AV-unprocessed.smi:824|AV-procd|sdf|3849|dock10
  -GOLD-   22720 1293D 1   1.00000     0.00000
 Structure written by MMmdl.
 52 53  0  0  0  0  0  0  0  0  1 V2000
  146.9875  142.4427  154.3929 C   0  0  0  0  0  0  0  0  0  0  0  0
  148.2305  141.6164  154.6729 C   0  0  0  0  0  0  0  0  0  0  0  0
  149.0721  142.1506  155.6315 N   0  0  0  0  0  0  0  0  0  0  0  0
  150.2412  141.4755  155.9594 C   0  0  0  0  0  0  0  0  0  0  0  0
  151.0086  142.1009  156.9394 N   0  0  0  0  0  0  0  0  0  0  0  0
  151.3086  143.5262  156.8087 C   0  0  0  0  0  0  0  0  0  0  0  0
  151.7407  144.1313  158.1552 C   0  0  0  0  0  0  0  0  0  0  0  0
  152.8469  143.4044  158.6735 O   0  0  0  0  0  0  0  0  0  0  0  0
  152.5113  142.0426  158.9068 C   0  0  0  0  0  0  0  0  0  0  0  0
  152.1047  141.3765  157.5818 C   0  0  0  0  0  0  0  0  0  0  0  0
  150.5902  140.3488  155.4085 N   0  0  0  0  0  0  0  0  0  0  0  0
  149.7818  139.7601  154.4246 C   0  0  0  0  0  0  0  0  0  0  0  0
  150.1152  138.7009  153.8950 O   0  0  0  0  0  0  0  0  0  0  0  0
  148.5325  140.4535  154.0477 C   0  0  0  0  0  0  0  0  0  0  0  0
  147.6378  139.8212  152.9850 C   0  0  0  0  0  0  0  0  0  0  0  0
  146.7325  138.7213  153.5743 C   0  0  0  0  0  0  0  0  0  0  0  0
  146.2487  137.6901  152.5375 C   0  0  0  0  0  0  0  0  0  0  0  0
  146.6237  137.7994  151.3684 O   0  0  0  0  0  0  0  0  0  0  0  0
  145.4022  136.7050  152.9267 N   0  0  0  0  0  0  0  0  0  0  0  0
  145.0646  136.5519  154.3460 C   0  0  0  0  0  0  0  0  0  0  0  0
  144.8229  135.6964  152.0242 C   0  0  0  0  0  0  0  0  0  0  0  0
  145.8368  134.6098  151.5904 C   0  0  0  0  0  0  0  0  0  0  0  0
  145.1920  133.4907  150.7550 C   0  0  0  0  0  0  0  0  0  0  0  0
  146.5518  134.0208  152.8153 C   0  0  0  0  0  0  0  0  0  0  0  0
  148.8018  143.0203  156.0674 H   0  0  0  0  0  0  0  0  0  0  0  0
  146.9211  142.6851  153.3320 H   0  0  0  0  0  0  0  0  0  0  0  0
  146.9933  143.3800  154.9504 H   0  0  0  0  0  0  0  0  0  0  0  0
  146.0921  141.8895  154.6773 H   0  0  0  0  0  0  0  0  0  0  0  0
  150.4452  144.0738  156.4298 H   0  0  0  0  0  0  0  0  0  0  0  0
  152.1059  143.6502  156.0747 H   0  0  0  0  0  0  0  0  0  0  0  0
  152.0327  145.1731  158.0217 H   0  0  0  0  0  0  0  0  0  0  0  0
  150.9155  144.1212  158.8690 H   0  0  0  0  0  0  0  0  0  0  0  0
  153.3749  141.5325  159.3337 H   0  0  0  0  0  0  0  0  0  0  0  0
  151.7058  141.9741  159.6396 H   0  0  0  0  0  0  0  0  0  0  0  0
  152.9581  141.3454  156.9029 H   0  0  0  0  0  0  0  0  0  0  0  0
  151.8107  140.3431  157.7723 H   0  0  0  0  0  0  0  0  0  0  0  0
  148.2526  139.4035  152.1878 H   0  0  0  0  0  0  0  0  0  0  0  0
  147.0376  140.5975  152.5073 H   0  0  0  0  0  0  0  0  0  0  0  0
  147.2783  138.2181  154.3702 H   0  0  0  0  0  0  0  0  0  0  0  0
  145.8562  139.1806  154.0330 H   0  0  0  0  0  0  0  0  0  0  0  0
  144.6918  137.4894  154.7614 H   0  0  0  0  0  0  0  0  0  0  0  0
  145.9455  136.2531  154.9157 H   0  0  0  0  0  0  0  0  0  0  0  0
  144.2919  135.8013  154.5142 H   0  0  0  0  0  0  0  0  0  0  0  0
  143.9562  135.2297  152.4931 H   0  0  0  0  0  0  0  0  0  0  0  0
  144.4137  136.1836  151.1379 H   0  0  0  0  0  0  0  0  0  0  0  0
  146.6024  135.0700  150.9669 H   0  0  0  0  0  0  0  0  0  0  0  0
  144.3852  133.0018  151.3017 H   0  0  0  0  0  0  0  0  0  0  0  0
  145.9242  132.7268  150.4913 H   0  0  0  0  0  0  0  0  0  0  0  0
  144.7804  133.8741  149.8214 H   0  0  0  0  0  0  0  0  0  0  0  0
  145.8475  133.5287  153.4868 H   0  0  0  0  0  0  0  0  0  0  0  0
  147.0655  134.7977  153.3821 H   0  0  0  0  0  0  0  0  0  0  0  0
  147.2992  133.2843  152.5190 H   0  0  0  0  0  0  0  0  0  0  0  0
  1 26  1  0  0  0  0
  1 27  1  0  0  0  0
  1 28  1  0  0  0  0
  1  2  1  0  0  0  0
  2 14  2  0  0  0  0
  2  3  1  0  0  0  0
  3 25  1  0  0  0  0
  3  4  1  0  0  0  0
  4  5  1  0  0  0  0
  4 11  2  0  0  0  0
  5 10  1  0  0  0  0
  5  6  1  0  0  0  0
  6  7  1  0  0  0  0
  6 29  1  0  0  0  0
  6 30  1  0  0  0  0
  7  8  1  0  0  0  0
  7 31  1  0  0  0  0
  7 32  1  0  0  0  0
  8  9  1  0  0  0  0
  9 10  1  0  0  0  0
  9 33  1  0  0  0  0
  9 34  1  0  0  0  0
 10 35  1  0  0  0  0
 10 36  1  0  0  0  0
 11 12  1  0  0  0  0
 12 13  2  0  0  0  0
 12 14  1  0  0  0  0
 14 15  1  0  0  0  0
 15 16  1  0  0  0  0
 15 37  1  0  0  0  0
 15 38  1  0  0  0  0
 16 17  1  0  0  0  0
 16 39  1  0  0  0  0
 16 40  1  0  0  0  0
 17 18  2  0  0  0  0
 17 19  1  0  0  0  0
 19 20  1  0  0  0  0
 19 21  1  0  0  0  0
 20 41  1  0  0  0  0
 20 42  1  0  0  0  0
 20 43  1  0  0  0  0
 21 22  1  0  0  0  0
 21 44  1  0  0  0  0
 21 45  1  0  0  0  0
 22 23  1  0  0  0  0
 22 24  1  0  0  0  0
 22 46  1  0  0  0  0
 23 47  1  0  0  0  0
 23 48  1  0  0  0  0
 23 49  1  0  0  0  0
 24 50  1  0  0  0  0
 24 51  1  0  0  0  0
 24 52  1  0  0  0  0
M  END
> <s_m_source_file>
AV-unprocessed.smi

> <i_m_source_file_index>
824

> <i_lp_mmshare_version>
43012

> <i_f3d_flags>
0

> <s_epik_input>
W0NIMl0xW0NIMl1PW0NIMl1bQ0gyXU4xYyhuYzJbQ0gzXSlbbkhdYyg9TyljMltDSDJdW0NIMl1DKD1PKU4oW0NIM10pW0NIMl1bQ0hdKFtDSDNdKVtDSDNd

> <s_epik_cmdline>
J2VwaWtfcHl0aG9uJywgJy1waCcsICc3LjAnLCAnLXRuJywgJzgnLCAnLW1hJywgJzIwMCcsICctbWV0YWxfYmluZGluZycsICctaW1hZScsICc8aW5maWxlLm1hZT4nLCAnLW9tYWUnLCAnPG91dGZpbGUubWFlPic=

> <r_lp_tautomer_probability>
0.108306

> <r_epik_Ionization_Penalty>
0.0729191

> <r_epik_Ionization_Penalty_Charging>
0.0597558

> <r_epik_Ionization_Penalty_Neutral>
0.0131634

> <r_epik_State_Penalty>
1.71329

> <r_epik_Charging_Adjusted_Penalty>
1.77304

> <i_epik_Tot_Q>
0

> <i_epik_Tot_abs_Q>
0

> <r_epik_Metal_State_Penalty>
2.71696

> <b_epik_Metal_Only>
0

> <s_lp_Force_Field>
OPLS_2005

> <r_lp_Energy>
37.7489

> <b_lp_Chiralities_Consistent>
1

> <s_lp_Variant>
AV-unprocessed.smi:824-2

> <Gold.Version>
5.8.1

> <Gold.Id.Protein>
6NUR|6NUR_protein|mol2

> <Gold.PLP.Fitness>
44.6068

> <Gold.PLP.PLP>
-40.8983

> <Gold.PLP.part.hbond>
-2.1242

> <Gold.PLP.part.metal>
0.0000

> <Gold.PLP.part.buried>
1.1496

> <Gold.PLP.part.nonpolar>
-41.5023

> <Gold.PLP.part.repulsive>
2.3179

> <Gold.PLP.ligand.clash>
0.0000

> <Gold.PLP.ligand.torsion>
1.1456

> <Gold.PLP.Chemscore.Hbond>
1.8800

> <Gold.PLP.Chemscore.CHOScore>
0.0000

> <Gold.PLP.Chemscore.Metal>
0.0000

> <Gold.Chemscore.Hbonds>
donor molecule, donor type, donor heavy atom, donor atom, acceptor molecule, acceptor atom, score
      L1  H     3    25       P1  8028  0.74
      P1  H  7954  7966       L1    18  0.75

> <Gold.PLP.Chemscore.Internal.Correction>
0.3598

> <Gold.Rescore>
     Score         DG    S(hbond)    S(metal)    S(lipo)     H(rot)  DE(clash)    DE(int)     intcor
     13.84     -18.36       1.78        0.00      96.79       1.71       3.25       1.26       ----

> <Gold.Chemscore.Fitness>
13.8401

> <Gold.Chemscore.DG>
-18.3575

> <Gold.Chemscore.ZeroCoef>
-5.4800

> <Gold.Chemscore.Hbond>
1.7753

> <Gold.Chemscore.Metal>
0.0000

> <Gold.Chemscore.Lipo>
96.7853

> <Gold.Chemscore.Internal_Hbond>
0.0000

> <Gold.Chemscore.DEClash>
3.2547

> <Gold.Chemscore.DEInternal>
1.2626

> <Gold.Chemscore.Rot>
1.7093

> <Gold.Chemscore.Internal.Correction>
   9.000000E+99

> <Gold.Chemscore.Hbonds>
donor molecule, donor type, donor heavy atom, donor atom, acceptor molecule, acceptor atom, score
      L1  H     3    25       P1  8028  0.74
      P1  H  7954  7966       L1    18  0.75

> <Gold.Chemscore.Hbond.Weighted>
-5.9295

> <Gold.Chemscore.Metal.Weighted>
-0.0000

> <Gold.Chemscore.Lipo.Weighted>
-11.3239

> <Gold.Chemscore.Internal_Hbond.Weighted>
0.0000

> <Gold.Chemscore.DEClash.Weighted>
3.2547

> <Gold.Chemscore.DEInternal.Weighted>
1.2626

> <Gold.Chemscore.Rot.Weighted>
4.3759

> <Gold.Chemscore.Internal.Correction.Weighted>
   9.000000E+99

> <Gold.Protein.RotatedTorsions>
[ 6907 6896 6895 6894 ] final  156.62 input  -60.11 | X-H torsion
[ 7974 7965 7964 7962 ] final -108.52 input  175.53 | X-H torsion
[ 8008 7997 7996 7995 ] final  -55.64 input   59.86 | X-H torsion
[ 10167 10162 10161 10158 ] final   75.33 input  -65.29 | X-H torsion
[ 10718 10713 10712 10709 ] final -105.08 input   66.30 | X-H torsion
[ 10763 10752 10751 10750 ] final  124.24 input  -60.55 | X-H torsion
[ 11005 11000 10999 10996 ] final   96.31 input  -57.11 | X-H torsion

> <Gold.Protein.ActiveResidues>
 VAL166  LYS551  ARG553  GLY616  TRP617  ASP618  TYR619  PRO620  LYS621  CYS622 
 ASP623  PHE694  ASN695  SER759  ASP760  ASP761  ALA762  ILE779  LEU786  VAL792 
 PHE793  MET794  SER795  GLU796  ALA797  LYS798  CYS799  TRP800  GLU811  SER814 

> <Gold.Protein.RotatedAtoms>
  152.0270  133.3921  159.4281 H   0  0  0  0  0  0  0  0  0  0  0  0  # atno 6907 bound_to 6896
  150.6885  134.3563  159.4940 H   0  0  0  0  0  0  0  0  0  0  0  0  # atno 6908 bound_to 6896
  152.1344  134.9110  160.0608 H   0  0  0  0  0  0  0  0  0  0  0  0  # atno 6909 bound_to 6896
  145.1919  140.9018  143.3420 H   0  0  0  0  0  0  0  0  0  0  0  0  # atno 7974 bound_to 7965
  154.4202  140.1148  156.5509 H   0  0  0  0  0  0  0  0  0  0  0  0  # atno 8008 bound_to 7997
  155.6411  140.3496  155.4696 H   0  0  0  0  0  0  0  0  0  0  0  0  # atno 8009 bound_to 7997
  155.9870  140.1171  157.0664 H   0  0  0  0  0  0  0  0  0  0  0  0  # atno 8010 bound_to 7997
  140.0042  144.5663  150.7712 H   0  0  0  0  0  0  0  0  0  0  0  0  # atno 10167 bound_to 10162
  156.0331  130.5546  150.7489 H   0  0  0  0  0  0  0  0  0  0  0  0  # atno 10718 bound_to 10713
  153.6582  135.3351  155.3119 H   0  0  0  0  0  0  0  0  0  0  0  0  # atno 10763 bound_to 10752
  154.8521  135.4357  154.1832 H   0  0  0  0  0  0  0  0  0  0  0  0  # atno 10764 bound_to 10752
  153.2792  135.7007  153.7477 H   0  0  0  0  0  0  0  0  0  0  0  0  # atno 10765 bound_to 10752
  139.8782  134.8944  156.4140 H   0  0  0  0  0  0  0  0  0  0  0  0  # atno 11005 bound_to 11000
  145.0033  139.3578  143.6156 LP  0  0  0  0  0  0  0  0  0  0  0  0  # atno 17320 bound_to 7965
  146.3434  139.9265  142.8759 LP  0  0  0  0  0  0  0  0  0  0  0  0  # atno 17321 bound_to 7965
  140.7407  143.2808  151.3604 LP  0  0  0  0  0  0  0  0  0  0  0  0  # atno 17342 bound_to 10162
  139.6250  144.0831  152.2426 LP  0  0  0  0  0  0  0  0  0  0  0  0  # atno 17343 bound_to 10162
  157.5038  131.0920  151.0282 LP  0  0  0  0  0  0  0  0  0  0  0  0  # atno 17370 bound_to 10713
  157.0655  130.5843  149.5393 LP  0  0  0  0  0  0  0  0  0  0  0  0  # atno 17371 bound_to 10713
  140.9181  133.7664  155.9872 LP  0  0  0  0  0  0  0  0  0  0  0  0  # atno 17394 bound_to 11000
  140.8471  134.2998  157.5290 LP  0  0  0  0  0  0  0  0  0  0  0  0  # atno 17395 bound_to 11000

$$$$
