AV-unprocessed.smi:3349|AV-procd|sdf|12935|dock6
  -GOLD-   2272019363D 1   1.00000     0.00000
 Structure written by MMmdl.
 41 42  0  0  0  0  0  0  0  0  2 V2000
  144.7915  137.7216  154.1305 C   0  0  0  0  0  0  0  0  0  0  0  0
  146.2393  137.4782  153.6377 C   0  0  2  0  0  0  0  0  0  0  0  0
  146.8185  138.7626  152.9797 C   0  0  0  0  0  0  0  0  0  0  0  0
  148.2437  138.9537  153.2393 N   0  0  0  0  0  0  0  0  0  0  0  0
  148.8814  138.6275  154.3758 C   0  0  0  0  0  0  0  0  0  0  0  0
  148.3188  138.0900  155.3304 O   0  0  0  0  0  0  0  0  0  0  0  0
  150.3836  138.9511  154.4283 C   0  0  2  0  0  0  0  0  0  0  0  0
  151.2567  137.7053  154.6833 C   0  0  0  0  0  0  0  0  0  0  0  0
  150.6407  140.0092  155.3977 N   0  0  0  0  0  0  0  0  0  0  0  0
  151.4493  140.0223  156.4595 C   0  0  0  0  0  0  0  0  0  0  0  0
  151.4750  141.1804  157.1037 N   0  0  0  0  0  0  0  0  0  0  0  0
  150.6042  141.8917  156.3280 C   0  0  0  0  0  0  0  0  0  0  0  0
  150.0839  141.2413  155.2876 N   0  0  0  0  0  0  0  0  0  0  0  0
  146.3107  136.2849  152.7271 N   0  3  0  0  0  0  0  0  0  0  0  0
  146.2107  134.9717  153.4258 C   0  0  0  0  0  0  0  0  0  0  0  0
  146.2851  133.7943  152.4387 C   0  0  0  0  0  0  0  0  0  0  0  0
  145.2674  133.9216  151.4592 O   0  0  0  0  0  0  0  0  0  0  0  0
  145.4383  135.1046  150.6962 C   0  0  0  0  0  0  0  0  0  0  0  0
  145.3208  136.3330  151.6135 C   0  0  0  0  0  0  0  0  0  0  0  0
  144.7205  138.5952  154.7769 H   0  0  0  0  0  0  0  0  0  0  0  0
  144.4071  136.9004  154.7324 H   0  0  0  0  0  0  0  0  0  0  0  0
  144.1100  137.8770  153.2936 H   0  0  0  0  0  0  0  0  0  0  0  0
  146.8544  137.2571  154.5116 H   0  0  0  0  0  0  0  0  0  0  0  0
  146.7463  138.7070  151.8945 H   0  0  0  0  0  0  0  0  0  0  0  0
  146.2407  139.6372  153.2838 H   0  0  0  0  0  0  0  0  0  0  0  0
  148.7843  139.3878  152.5050 H   0  0  0  0  0  0  0  0  0  0  0  0
  150.6619  139.3415  153.4480 H   0  0  0  0  0  0  0  0  0  0  0  0
  151.0900  136.9449  153.9195 H   0  0  0  0  0  0  0  0  0  0  0  0
  151.0498  137.2504  155.6530 H   0  0  0  0  0  0  0  0  0  0  0  0
  152.3159  137.9629  154.6599 H   0  0  0  0  0  0  0  0  0  0  0  0
  152.0357  139.1682  156.7652 H   0  0  0  0  0  0  0  0  0  0  0  0
  150.3518  142.9218  156.5323 H   0  0  0  0  0  0  0  0  0  0  0  0
  147.0285  134.8417  154.1329 H   0  0  0  0  0  0  0  0  0  0  0  0
  145.2781  134.9278  153.9904 H   0  0  0  0  0  0  0  0  0  0  0  0
  147.2654  133.7463  151.9614 H   0  0  0  0  0  0  0  0  0  0  0  0
  146.1458  132.8523  152.9692 H   0  0  0  0  0  0  0  0  0  0  0  0
  146.4012  135.0897  150.1826 H   0  0  0  0  0  0  0  0  0  0  0  0
  144.6686  135.1392  149.9251 H   0  0  0  0  0  0  0  0  0  0  0  0
  144.3120  136.3937  152.0244 H   0  0  0  0  0  0  0  0  0  0  0  0
  145.4684  137.2126  150.9907 H   0  0  0  0  0  0  0  0  0  0  0  0
  147.2262  136.3060  152.3002 H   0  0  0  0  0  0  0  0  0  0  0  0
  1  2  1  0  0  0  0
  1 20  1  0  0  0  0
  1 21  1  0  0  0  0
  1 22  1  0  0  0  0
  2  3  1  0  0  0  0
  2 14  1  0  0  0  0
  2 23  1  0  0  0  0
  3  4  1  0  0  0  0
  3 24  1  0  0  0  0
  3 25  1  0  0  0  0
  4  5  1  0  0  0  0
  4 26  1  0  0  0  0
  5  6  2  0  0  0  0
  5  7  1  0  0  0  0
  7  8  1  0  0  0  0
  7  9  1  0  0  0  0
  7 27  1  0  0  0  0
  8 28  1  0  0  0  0
  8 29  1  0  0  0  0
  8 30  1  0  0  0  0
  9 13  1  0  0  0  0
  9 10  1  0  0  0  0
 10 11  2  0  0  0  0
 10 31  1  0  0  0  0
 11 12  1  0  0  0  0
 12 13  2  0  0  0  0
 12 32  1  0  0  0  0
 14 19  1  0  0  0  0
 14 15  1  0  0  0  0
 14 41  1  0  0  0  0
 15 16  1  0  0  0  0
 15 33  1  0  0  0  0
 15 34  1  0  0  0  0
 16 17  1  0  0  0  0
 16 35  1  0  0  0  0
 16 36  1  0  0  0  0
 17 18  1  0  0  0  0
 18 19  1  0  0  0  0
 18 37  1  0  0  0  0
 18 38  1  0  0  0  0
 19 39  1  0  0  0  0
 19 40  1  0  0  0  0
M  CHG  1  14   1
M  END
> <s_m_source_file>
AV-unprocessed.smi

> <i_m_source_file_index>
3349

> <i_lp_mmshare_version>
43012

> <i_f3d_flags>
0

> <s_epik_input>
W0NIMl0xW0NIMl1PW0NIMl1bQ0gyXU4xW0NASF0oW0NIM10pW0NIMl1bTkhdQyg9TylbQ0BIXShbQ0gzXSluMltjSF1uW2NIXW4y

> <s_epik_cmdline>
J2VwaWtfcHl0aG9uJywgJy1waCcsICc3LjAnLCAnLXRuJywgJzgnLCAnLW1hJywgJzIwMCcsICctbWV0YWxfYmluZGluZycsICctaW1hZScsICc8aW5maWxlLm1hZT4nLCAnLW9tYWUnLCAnPG91dGZpbGUubWFlPic=

> <r_lp_tautomer_probability>
1

> <r_epik_Ionization_Penalty>
0.71326

> <r_epik_Ionization_Penalty_Charging>
0.713252

> <r_epik_Ionization_Penalty_Neutral>
8.10337e-06

> <r_epik_State_Penalty>
0.737017

> <r_epik_Charging_Adjusted_Penalty>
1.45027

> <i_epik_Tot_Q>
1

> <i_epik_Tot_abs_Q>
1

> <r_epik_Metal_State_Penalty>
0.73702

> <b_epik_Metal_Only>
0

> <s_lp_Force_Field>
OPLS_2005

> <r_lp_Energy>
28.3535

> <b_lp_Chiralities_Consistent>
1

> <s_lp_Variant>
AV-unprocessed.smi:3349-5

> <Gold.Version>
5.8.1

> <Gold.Id.Protein>
6NUR|6NUR_protein|mol2

> <Gold.PLP.Fitness>
41.1604

> <Gold.PLP.PLP>
-30.8579

> <Gold.PLP.part.hbond>
-3.7364

> <Gold.PLP.part.metal>
0.0000

> <Gold.PLP.part.buried>
-2.2326

> <Gold.PLP.part.nonpolar>
-24.9589

> <Gold.PLP.part.repulsive>
0.3790

> <Gold.PLP.ligand.clash>
0.0000

> <Gold.PLP.ligand.torsion>
0.9253

> <Gold.PLP.Chemscore.Hbond>
3.0000

> <Gold.PLP.Chemscore.CHOScore>
1.0000

> <Gold.PLP.Chemscore.Metal>
0.0000

> <Gold.Chemscore.Hbonds>
donor molecule, donor type, donor heavy atom, donor atom, acceptor molecule, acceptor atom, score
      L1  H     4    26       P1  7957  1.00
      L1  H    14    41       P1  7948  2.00
      L1  C    12    32       P1  8028  1.00

> <Gold.PLP.Chemscore.Internal.Correction>
0.1531

> <Gold.Rescore>
     Score         DG    S(hbond)    S(metal)    S(lipo)     H(rot)  DE(clash)    DE(int)     intcor
      8.62     -10.79       2.00        0.00      45.96       2.63       0.01       2.17       ----

> <Gold.Chemscore.Fitness>
8.6160

> <Gold.Chemscore.DG>
-10.7946

> <Gold.Chemscore.ZeroCoef>
-5.4800

> <Gold.Chemscore.Hbond>
1.9994

> <Gold.Chemscore.Metal>
0.0000

> <Gold.Chemscore.Lipo>
45.9561

> <Gold.Chemscore.Internal_Hbond>
0.0000

> <Gold.Chemscore.DEClash>
0.0075

> <Gold.Chemscore.DEInternal>
2.1712

> <Gold.Chemscore.Rot>
2.6329

> <Gold.Chemscore.Internal.Correction>
   9.000000E+99

> <Gold.Chemscore.Hbonds>
donor molecule, donor type, donor heavy atom, donor atom, acceptor molecule, acceptor atom, score
      L1  H     4    26       P1  7957  1.00
      L1  H    14    41       P1  7948  1.00

> <Gold.Chemscore.Hbond.Weighted>
-6.6781

> <Gold.Chemscore.Metal.Weighted>
-0.0000

> <Gold.Chemscore.Lipo.Weighted>
-5.3769

> <Gold.Chemscore.Internal_Hbond.Weighted>
0.0000

> <Gold.Chemscore.DEClash.Weighted>
0.0075

> <Gold.Chemscore.DEInternal.Weighted>
2.1712

> <Gold.Chemscore.Rot.Weighted>
6.7403

> <Gold.Chemscore.Internal.Correction.Weighted>
   9.000000E+99

> <Gold.Protein.RotatedTorsions>
[ 6907 6896 6895 6894 ] final  -85.69 input  -60.11 | X-H torsion
[ 7974 7965 7964 7962 ] final  134.84 input  175.53 | X-H torsion
[ 8008 7997 7996 7995 ] final    1.25 input   59.86 | X-H torsion
[ 10167 10162 10161 10158 ] final  -85.23 input  -65.29 | X-H torsion
[ 10718 10713 10712 10709 ] final  -23.08 input   66.30 | X-H torsion
[ 10763 10752 10751 10750 ] final   80.00 input  -60.55 | X-H torsion
[ 11005 11000 10999 10996 ] final  -78.22 input  -57.11 | X-H torsion

> <Gold.Protein.ActiveResidues>
 VAL166  LYS551  ARG553  GLY616  TRP617  ASP618  TYR619  PRO620  LYS621  CYS622 
 ASP623  PHE694  ASN695  SER759  ASP760  ASP761  ALA762  ILE779  LEU786  VAL792 
 PHE793  MET794  SER795  GLU796  ALA797  LYS798  CYS799  TRP800  GLU811  SER814 

> <Gold.Protein.RotatedAtoms>
  150.6869  134.3166  159.4768 H   0  0  0  0  0  0  0  0  0  0  0  0  # atno 6907 bound_to 6896
  152.1046  134.9315  160.0578 H   0  0  0  0  0  0  0  0  0  0  0  0  # atno 6908 bound_to 6896
  152.0581  133.4015  159.4443 H   0  0  0  0  0  0  0  0  0  0  0  0  # atno 6909 bound_to 6896
  144.9723  139.4593  143.5427 H   0  0  0  0  0  0  0  0  0  0  0  0  # atno 7974 bound_to 7965
  154.6775  140.2625  155.6942 H   0  0  0  0  0  0  0  0  0  0  0  0  # atno 8008 bound_to 7997
  156.2684  140.2817  156.1230 H   0  0  0  0  0  0  0  0  0  0  0  0  # atno 8009 bound_to 7997
  155.1079  140.0375  157.2706 H   0  0  0  0  0  0  0  0  0  0  0  0  # atno 8010 bound_to 7997
  140.4057  143.2644  151.9084 H   0  0  0  0  0  0  0  0  0  0  0  0  # atno 10167 bound_to 10162
  156.4959  130.4577  149.6728 H   0  0  0  0  0  0  0  0  0  0  0  0  # atno 10718 bound_to 10713
  153.0997  135.4819  154.8845 H   0  0  0  0  0  0  0  0  0  0  0  0  # atno 10763 bound_to 10752
  154.7365  135.3072  154.8804 H   0  0  0  0  0  0  0  0  0  0  0  0  # atno 10764 bound_to 10752
  153.9425  135.6832  153.4797 H   0  0  0  0  0  0  0  0  0  0  0  0  # atno 10765 bound_to 10752
  141.1664  133.7054  156.7938 H   0  0  0  0  0  0  0  0  0  0  0  0  # atno 11005 bound_to 11000
  146.3385  139.8942  142.8804 LP  0  0  0  0  0  0  0  0  0  0  0  0  # atno 17320 bound_to 7965
  145.2541  141.0054  143.3864 LP  0  0  0  0  0  0  0  0  0  0  0  0  # atno 17321 bound_to 7965
  139.4783  144.5589  151.8271 LP  0  0  0  0  0  0  0  0  0  0  0  0  # atno 17342 bound_to 10162
  140.4692  144.1611  150.5916 LP  0  0  0  0  0  0  0  0  0  0  0  0  # atno 17343 bound_to 10162
  156.3380  130.7367  151.2307 LP  0  0  0  0  0  0  0  0  0  0  0  0  # atno 17370 bound_to 10713
  157.7468  131.0411  150.4632 LP  0  0  0  0  0  0  0  0  0  0  0  0  # atno 17371 bound_to 10713
  140.2306  134.8689  157.3472 LP  0  0  0  0  0  0  0  0  0  0  0  0  # atno 17394 bound_to 11000
  140.1895  134.4389  155.7724 LP  0  0  0  0  0  0  0  0  0  0  0  0  # atno 17395 bound_to 11000

$$$$
