AV-unprocessed.smi:1624|AV-procd|sdf|6503|dock9
  -GOLD-   22720 7173D 1   1.00000     0.00000
 Structure written by MMmdl.
 36 37  0  0  0  0  0  0  0  0  1 V2000
  149.7836  133.7599  155.6725 O   0  0  0  0  0  0  0  0  0  0  0  0
  149.5272  134.4784  154.7058 C   0  0  0  0  0  0  0  0  0  0  0  0
  149.9482  135.7465  154.5956 N   0  0  0  0  0  0  0  0  0  0  0  0
  150.7587  136.4466  155.5838 C   0  0  0  0  0  0  0  0  0  0  0  0
  151.6325  137.5350  154.9332 C   0  0  0  0  0  0  0  0  0  0  0  0
  150.9478  138.8333  154.9391 N   0  0  0  0  0  0  0  0  0  0  0  0
  149.6951  138.9118  154.1694 C   0  0  0  0  0  0  0  0  0  0  0  0
  148.4295  139.0276  155.0510 C   0  0  0  0  0  0  0  0  0  0  0  0
  148.6055  139.7309  156.4115 C   0  0  0  0  0  0  0  0  0  0  0  0
  149.2698  141.1221  156.3456 C   0  0  0  0  0  0  0  0  0  0  0  0
  150.6347  141.2013  155.6208 C   0  0  0  0  0  0  0  0  0  0  0  0
  151.4354  139.8892  155.6361 C   0  0  0  0  0  0  0  0  0  0  0  0
  152.4813  139.8410  156.2842 O   0  0  0  0  0  0  0  0  0  0  0  0
  148.8019  134.1133  153.6342 N   0  0  0  0  0  0  0  0  0  0  0  0
  148.1835  132.8620  153.3730 C   0  0  0  0  0  0  0  0  0  0  0  0
  147.1486  132.7032  152.5332 N   0  0  0  0  0  0  0  0  0  0  0  0
  146.7380  131.3782  152.4598 N   0  0  0  0  0  0  0  0  0  0  0  0
  147.4785  130.5914  153.2456 C   0  0  0  0  0  0  0  0  0  0  0  0
  148.7503  131.3919  154.1520 S   0  0  0  0  0  0  0  0  0  0  0  0
  149.6922  136.2656  153.7685 H   0  0  0  0  0  0  0  0  0  0  0  0
  150.1174  136.8800  156.3534 H   0  0  0  0  0  0  0  0  0  0  0  0
  151.3852  135.7081  156.0845 H   0  0  0  0  0  0  0  0  0  0  0  0
  152.5856  137.6117  155.4594 H   0  0  0  0  0  0  0  0  0  0  0  0
  151.8964  137.2453  153.9155 H   0  0  0  0  0  0  0  0  0  0  0  0
  149.7478  139.7592  153.4857 H   0  0  0  0  0  0  0  0  0  0  0  0
  149.5802  138.0499  153.5115 H   0  0  0  0  0  0  0  0  0  0  0  0
  147.6475  139.5281  154.4792 H   0  0  0  0  0  0  0  0  0  0  0  0
  148.0526  138.0230  155.2461 H   0  0  0  0  0  0  0  0  0  0  0  0
  147.6281  139.8289  156.8846 H   0  0  0  0  0  0  0  0  0  0  0  0
  149.1772  139.0859  157.0805 H   0  0  0  0  0  0  0  0  0  0  0  0
  148.5824  141.8199  155.8664 H   0  0  0  0  0  0  0  0  0  0  0  0
  149.3929  141.4886  157.3654 H   0  0  0  0  0  0  0  0  0  0  0  0
  150.4934  141.5173  154.5876 H   0  0  0  0  0  0  0  0  0  0  0  0
  151.2347  141.9918  156.0737 H   0  0  0  0  0  0  0  0  0  0  0  0
  148.6788  134.8137  152.9182 H   0  0  0  0  0  0  0  0  0  0  0  0
  147.2750  129.5320  153.2917 H   0  0  0  0  0  0  0  0  0  0  0  0
  1  2  2  0  0  0  0
  2  3  1  0  0  0  0
  2 14  1  0  0  0  0
  3  4  1  0  0  0  0
  3 20  1  0  0  0  0
  4  5  1  0  0  0  0
  4 21  1  0  0  0  0
  4 22  1  0  0  0  0
  5  6  1  0  0  0  0
  5 23  1  0  0  0  0
  5 24  1  0  0  0  0
  6 12  1  0  0  0  0
  6  7  1  0  0  0  0
  7  8  1  0  0  0  0
  7 25  1  0  0  0  0
  7 26  1  0  0  0  0
  8  9  1  0  0  0  0
  8 27  1  0  0  0  0
  8 28  1  0  0  0  0
  9 10  1  0  0  0  0
  9 29  1  0  0  0  0
  9 30  1  0  0  0  0
 10 11  1  0  0  0  0
 10 31  1  0  0  0  0
 10 32  1  0  0  0  0
 11 12  1  0  0  0  0
 11 33  1  0  0  0  0
 11 34  1  0  0  0  0
 12 13  2  0  0  0  0
 14 15  1  0  0  0  0
 14 35  1  0  0  0  0
 15 19  1  0  0  0  0
 15 16  2  0  0  0  0
 16 17  1  0  0  0  0
 17 18  2  0  0  0  0
 18 19  1  0  0  0  0
 18 36  1  0  0  0  0
M  END
> <s_m_source_file>
AV-unprocessed.smi

> <i_m_source_file_index>
1624

> <i_lp_mmshare_version>
43012

> <i_f3d_flags>
0

> <s_epik_input>
czFbY0hdbm5jMVtOSF1DKD1PKVtOSF1bQ0gyXVtDSDJdTjJbQ0gyXVtDSDJdW0NIMl1bQ0gyXVtDSDJdQzI9Tw==

> <s_epik_cmdline>
J2VwaWtfcHl0aG9uJywgJy1waCcsICc3LjAnLCAnLXRuJywgJzgnLCAnLW1hJywgJzIwMCcsICctbWV0YWxfYmluZGluZycsICctaW1hZScsICc8aW5maWxlLm1hZT4nLCAnLW9tYWUnLCAnPG91dGZpbGUubWFlPic=

> <r_lp_tautomer_probability>
1

> <r_epik_Ionization_Penalty>
0.00222419

> <r_epik_Ionization_Penalty_Charging>
0

> <r_epik_Ionization_Penalty_Neutral>
0.00222419

> <r_epik_State_Penalty>
-0

> <r_epik_Charging_Adjusted_Penalty>
0

> <i_epik_Tot_Q>
0

> <i_epik_Tot_abs_Q>
0

> <r_epik_Metal_State_Penalty>
0.3454

> <b_epik_Metal_Only>
0

> <s_lp_Force_Field>
OPLS_2005

> <r_lp_Energy>
20.1162

> <b_lp_Chiralities_Consistent>
1

> <s_lp_Variant>
AV-unprocessed.smi:1624-1

> <Gold.Version>
5.8.1

> <Gold.Id.Protein>
6NUR|6NUR_protein|mol2

> <Gold.PLP.Fitness>
37.0493

> <Gold.PLP.PLP>
-29.2497

> <Gold.PLP.part.hbond>
-3.1747

> <Gold.PLP.part.metal>
0.0000

> <Gold.PLP.part.buried>
-1.1517

> <Gold.PLP.part.nonpolar>
-23.8434

> <Gold.PLP.part.repulsive>
0.3549

> <Gold.PLP.ligand.clash>
0.0000

> <Gold.PLP.ligand.torsion>
0.5216

> <Gold.PLP.Chemscore.Hbond>
2.9440

> <Gold.PLP.Chemscore.CHOScore>
0.0000

> <Gold.PLP.Chemscore.Metal>
0.0000

> <Gold.Chemscore.Hbonds>
donor molecule, donor type, donor heavy atom, donor atom, acceptor molecule, acceptor atom, score
      L1  H     3    20       P1  7948  0.96
      L1  H    14    35       P1  7948  1.00
      P1  H  7997  8010       L1    13  1.00

> <Gold.PLP.Chemscore.Internal.Correction>
0.0109

> <Gold.Rescore>
     Score         DG    S(hbond)    S(metal)    S(lipo)     H(rot)  DE(clash)    DE(int)     intcor
     13.24     -14.58       2.47        0.00      45.96       1.76       0.04       1.30       ----

> <Gold.Chemscore.Fitness>
13.2400

> <Gold.Chemscore.DG>
-14.5847

> <Gold.Chemscore.ZeroCoef>
-5.4800

> <Gold.Chemscore.Hbond>
2.4659

> <Gold.Chemscore.Metal>
0.0000

> <Gold.Chemscore.Lipo>
45.9649

> <Gold.Chemscore.Internal_Hbond>
0.0000

> <Gold.Chemscore.DEClash>
0.0416

> <Gold.Chemscore.DEInternal>
1.3030

> <Gold.Chemscore.Rot>
1.7615

> <Gold.Chemscore.Internal.Correction>
   9.000000E+99

> <Gold.Chemscore.Hbonds>
donor molecule, donor type, donor heavy atom, donor atom, acceptor molecule, acceptor atom, score
      L1  H     3    20       P1  7948  0.39
      L1  H    14    35       P1  7948  0.26
      P1  H  7997  8010       L1    13  0.98

> <Gold.Chemscore.Hbond.Weighted>
-8.2362

> <Gold.Chemscore.Metal.Weighted>
-0.0000

> <Gold.Chemscore.Lipo.Weighted>
-5.3779

> <Gold.Chemscore.Internal_Hbond.Weighted>
0.0000

> <Gold.Chemscore.DEClash.Weighted>
0.0416

> <Gold.Chemscore.DEInternal.Weighted>
1.3030

> <Gold.Chemscore.Rot.Weighted>
4.5095

> <Gold.Chemscore.Internal.Correction.Weighted>
   9.000000E+99

> <Gold.Protein.RotatedTorsions>
[ 6907 6896 6895 6894 ] final   -4.85 input  -60.11 | X-H torsion
[ 7974 7965 7964 7962 ] final  148.11 input  175.53 | X-H torsion
[ 8008 7997 7996 7995 ] final   91.64 input   59.86 | X-H torsion
[ 10167 10162 10161 10158 ] final  -40.11 input  -65.29 | X-H torsion
[ 10718 10713 10712 10709 ] final  -81.03 input   66.30 | X-H torsion
[ 10763 10752 10751 10750 ] final -155.65 input  -60.55 | X-H torsion
[ 11005 11000 10999 10996 ] final   47.93 input  -57.11 | X-H torsion

> <Gold.Protein.ActiveResidues>
 VAL166  LYS551  ARG553  GLY616  TRP617  ASP618  TYR619  PRO620  LYS621  CYS622 
 ASP623  PHE694  ASN695  SER759  ASP760  ASP761  ALA762  ILE779  LEU786  VAL792 
 PHE793  MET794  SER795  GLU796  ALA797  LYS798  CYS799  TRP800  GLU811  SER814 

> <Gold.Protein.RotatedAtoms>
  151.4910  135.1057  159.9803 H   0  0  0  0  0  0  0  0  0  0  0  0  # atno 6907 bound_to 6896
  152.4741  133.8093  159.7005 H   0  0  0  0  0  0  0  0  0  0  0  0  # atno 6908 bound_to 6896
  150.8767  133.7366  159.2970 H   0  0  0  0  0  0  0  0  0  0  0  0  # atno 6909 bound_to 6896
  144.8539  139.6112  143.5961 H   0  0  0  0  0  0  0  0  0  0  0  0  # atno 7974 bound_to 7965
  156.0261  140.3335  155.7090 H   0  0  0  0  0  0  0  0  0  0  0  0  # atno 8008 bound_to 7997
  155.5953  140.0650  157.2765 H   0  0  0  0  0  0  0  0  0  0  0  0  # atno 8009 bound_to 7997
  154.4334  140.1820  156.1104 H   0  0  0  0  0  0  0  0  0  0  0  0  # atno 8010 bound_to 7997
  140.7044  143.3173  151.2878 H   0  0  0  0  0  0  0  0  0  0  0  0  # atno 10167 bound_to 10162
  156.0058  130.4591  150.3890 H   0  0  0  0  0  0  0  0  0  0  0  0  # atno 10718 bound_to 10713
  154.7771  135.3163  154.8068 H   0  0  0  0  0  0  0  0  0  0  0  0  # atno 10763 bound_to 10752
  153.8788  135.6837  153.4773 H   0  0  0  0  0  0  0  0  0  0  0  0  # atno 10764 bound_to 10752
  153.1398  135.4744  154.9415 H   0  0  0  0  0  0  0  0  0  0  0  0  # atno 10765 bound_to 10752
  140.1235  134.4798  155.8578 H   0  0  0  0  0  0  0  0  0  0  0  0  # atno 11005 bound_to 11000
  146.2807  139.6871  142.9231 LP  0  0  0  0  0  0  0  0  0  0  0  0  # atno 17320 bound_to 7965
  145.4444  141.0424  143.2839 LP  0  0  0  0  0  0  0  0  0  0  0  0  # atno 17321 bound_to 7965
  139.6616  144.0179  152.2696 LP  0  0  0  0  0  0  0  0  0  0  0  0  # atno 17342 bound_to 10162
  139.9749  144.6469  150.7955 LP  0  0  0  0  0  0  0  0  0  0  0  0  # atno 17343 bound_to 10162
  157.1966  131.0428  151.2672 LP  0  0  0  0  0  0  0  0  0  0  0  0  # atno 17370 bound_to 10713
  157.4014  130.7335  149.6770 LP  0  0  0  0  0  0  0  0  0  0  0  0  # atno 17371 bound_to 10713
  141.2156  133.6769  156.6934 LP  0  0  0  0  0  0  0  0  0  0  0  0  # atno 17394 bound_to 11000
  140.2934  134.8222  157.4036 LP  0  0  0  0  0  0  0  0  0  0  0  0  # atno 17395 bound_to 11000

$$$$
