AV-unprocessed.smi:34|AV-procd|sdf|237|dock4
  -GOLD-   2262015583D 1   1.00000     0.00000
 Structure written by MMmdl.
 54 58  0  0  0  0  0  0  0  0  2 V2000
  152.3657  139.0335  159.1125 O   0  0  0  0  0  0  0  0  0  0  0  0
  152.3299  139.9824  158.3260 C   0  0  0  0  0  0  0  0  0  0  0  0
  152.4255  139.9472  156.9727 N   0  5  0  0  0  0  0  0  0  0  0  0
  151.5687  139.2001  156.2604 C   0  0  0  0  0  0  0  0  0  0  0  0
  150.8846  139.7428  155.2210 N   0  0  0  0  0  0  0  0  0  0  0  0
  150.0373  138.9944  154.5051 C   0  0  0  0  0  0  0  0  0  0  0  0
  149.7314  137.7015  154.6490 N   0  0  0  0  0  0  0  0  0  0  0  0
  150.4186  137.1420  155.6867 C   0  0  0  0  0  0  0  0  0  0  0  0
  151.3477  137.8211  156.5274 C   0  0  0  0  0  0  0  0  0  0  0  0
  151.8710  136.9589  157.4800 N   0  0  0  0  0  0  0  0  0  0  0  0
  151.2499  135.8200  157.1816 C   0  0  0  0  0  0  0  0  0  0  0  0
  150.3817  135.8371  156.1508 N   0  0  0  0  0  0  0  0  0  0  0  0
  149.5769  134.6966  155.6218 C   0  0  2  0  0  0  0  0  0  0  0  0
  149.1589  133.9307  156.7077 O   0  0  0  0  0  0  0  0  0  0  0  0
  149.1150  132.5729  156.3026 C   0  0  2  0  0  0  0  0  0  0  0  0
  149.0985  131.6393  157.5195 C   0  0  0  0  0  0  0  0  0  0  0  0
  148.2927  132.2102  158.5376 O   0  0  0  0  0  0  0  0  0  0  0  0
  147.8441  131.4456  159.5521 C   0  0  0  0  0  0  0  0  0  0  0  0
  148.0715  130.2377  159.6484 O   0  0  0  0  0  0  0  0  0  0  0  0
  147.0383  132.2138  160.5447 C   0  0  0  0  0  0  0  0  0  0  0  0
  147.5454  133.4311  161.0560 C   0  0  0  0  0  0  0  0  0  0  0  0
  146.8083  134.1770  161.9962 C   0  0  0  0  0  0  0  0  0  0  0  0
  145.5545  133.7148  162.4365 C   0  0  0  0  0  0  0  0  0  0  0  0
  145.0384  132.5056  161.9351 C   0  0  0  0  0  0  0  0  0  0  0  0
  145.7744  131.7581  160.9949 C   0  0  0  0  0  0  0  0  0  0  0  0
  150.3347  132.4324  155.3887 C   0  0  2  0  0  0  0  0  0  0  0  0
  151.4434  132.2173  156.0986 F   0  0  0  0  0  0  0  0  0  0  0  0
  150.4237  133.7925  154.7059 C   0  0  1  0  0  0  0  0  0  0  0  0
  149.8815  133.7078  153.4035 O   0  0  0  0  0  0  0  0  0  0  0  0
  152.0915  141.3661  158.8690 C   0  0  0  0  0  0  0  0  0  0  0  0
  151.4857  142.3456  158.0493 C   0  0  0  0  0  0  0  0  0  0  0  0
  151.2307  143.6384  158.5471 C   0  0  0  0  0  0  0  0  0  0  0  0
  151.5703  143.9632  159.8738 C   0  0  0  0  0  0  0  0  0  0  0  0
  152.1608  142.9922  160.7040 C   0  0  0  0  0  0  0  0  0  0  0  0
  152.4159  141.6991  160.2071 C   0  0  0  0  0  0  0  0  0  0  0  0
  149.5319  139.5054  153.6994 H   0  0  0  0  0  0  0  0  0  0  0  0
  151.4375  134.9193  157.7473 H   0  0  0  0  0  0  0  0  0  0  0  0
  148.7215  135.1533  155.1209 H   0  0  0  0  0  0  0  0  0  0  0  0
  148.2043  132.4329  155.7172 H   0  0  0  0  0  0  0  0  0  0  0  0
  148.7230  130.6541  157.2388 H   0  0  0  0  0  0  0  0  0  0  0  0
  150.1121  131.5045  157.8989 H   0  0  0  0  0  0  0  0  0  0  0  0
  148.5070  133.8048  160.7339 H   0  0  0  0  0  0  0  0  0  0  0  0
  147.2062  135.1048  162.3801 H   0  0  0  0  0  0  0  0  0  0  0  0
  144.9895  134.2867  163.1579 H   0  0  0  0  0  0  0  0  0  0  0  0
  144.0756  132.1500  162.2717 H   0  0  0  0  0  0  0  0  0  0  0  0
  145.3484  130.8350  160.6300 H   0  0  0  0  0  0  0  0  0  0  0  0
  150.2449  131.5961  154.6940 H   0  0  0  0  0  0  0  0  0  0  0  0
  151.4545  134.1450  154.6409 H   0  0  0  0  0  0  0  0  0  0  0  0
  149.4671  134.5321  153.1977 H   0  0  0  0  0  0  0  0  0  0  0  0
  151.2173  142.1120  157.0291 H   0  0  0  0  0  0  0  0  0  0  0  0
  150.7728  144.3803  157.9100 H   0  0  0  0  0  0  0  0  0  0  0  0
  151.3742  144.9540  160.2557 H   0  0  0  0  0  0  0  0  0  0  0  0
  152.4155  143.2368  161.7247 H   0  0  0  0  0  0  0  0  0  0  0  0
  152.8592  140.9652  160.8647 H   0  0  0  0  0  0  0  0  0  0  0  0
  1  2  2  0  0  0  0
  2  3  1  0  0  0  0
  2 30  1  0  0  0  0
  3  4  1  0  0  0  0
  4  9  1  0  0  0  0
  4  5  2  0  0  0  0
  5  6  1  0  0  0  0
  6  7  2  0  0  0  0
  6 36  1  0  0  0  0
  7  8  1  0  0  0  0
  8 12  1  0  0  0  0
  8  9  2  0  0  0  0
  9 10  1  0  0  0  0
 10 11  2  0  0  0  0
 11 12  1  0  0  0  0
 11 37  1  0  0  0  0
 12 13  1  0  0  0  0
 13 28  1  0  0  0  0
 13 14  1  0  0  0  0
 13 38  1  0  0  0  0
 14 15  1  0  0  0  0
 15 16  1  0  0  0  0
 15 26  1  0  0  0  0
 15 39  1  0  0  0  0
 16 17  1  0  0  0  0
 16 40  1  0  0  0  0
 16 41  1  0  0  0  0
 17 18  1  0  0  0  0
 18 19  2  0  0  0  0
 18 20  1  0  0  0  0
 20 25  1  0  0  0  0
 20 21  2  0  0  0  0
 21 22  1  0  0  0  0
 21 42  1  0  0  0  0
 22 23  2  0  0  0  0
 22 43  1  0  0  0  0
 23 24  1  0  0  0  0
 23 44  1  0  0  0  0
 24 25  2  0  0  0  0
 24 45  1  0  0  0  0
 25 46  1  0  0  0  0
 26 27  1  0  0  0  0
 26 28  1  0  0  0  0
 26 47  1  0  0  0  0
 28 29  1  0  0  0  0
 28 48  1  0  0  0  0
 29 49  1  0  0  0  0
 30 35  1  0  0  0  0
 30 31  2  0  0  0  0
 31 32  1  0  0  0  0
 31 50  1  0  0  0  0
 32 33  2  0  0  0  0
 32 51  1  0  0  0  0
 33 34  1  0  0  0  0
 33 52  1  0  0  0  0
 34 35  2  0  0  0  0
 34 53  1  0  0  0  0
 35 54  1  0  0  0  0
M  CHG  1   3  -1
M  END
> <s_m_source_file>
AV-unprocessed.smi

> <i_m_source_file_index>
34

> <i_lp_mmshare_version>
43012

> <i_f3d_flags>
0

> <s_epik_input>
W2NIXTFbY0hdW2NIXVtjSF1bY0hdYzFDKD1PKVtOSF1jKG5bY0hdbjIpYyhjMjMpbltjSF1uM1tDQEBIXTRPW0NASF0oW0NAQEhdKEYpW0NASF00W09IXSlbQ0gyXU9DKD1PKWM1W2NIXVtjSF1bY0hdW2NIXVtjSF01

> <s_epik_cmdline>
J2VwaWtfcHl0aG9uJywgJy1waCcsICc3LjAnLCAnLXRuJywgJzgnLCAnLW1hJywgJzIwMCcsICctbWV0YWxfYmluZGluZycsICctaW1hZScsICc8aW5maWxlLm1hZT4nLCAnLW9tYWUnLCAnPG91dGZpbGUubWFlPic=

> <r_lp_tautomer_probability>
1

> <r_epik_Ionization_Penalty>
4.33227

> <r_epik_Ionization_Penalty_Charging>
3.41027

> <r_epik_Ionization_Penalty_Neutral>
0.922001

> <r_epik_State_Penalty>
3.41358

> <r_epik_Charging_Adjusted_Penalty>
6.82385

> <i_epik_Tot_Q>
-1

> <i_epik_Tot_abs_Q>
1

> <r_epik_Metal_State_Penalty>
0.496292

> <b_epik_Metal_Only>
1

> <s_epik_Chemistry_Notes>
This compound has an ester and may undergo hydrolysis at high or low pH. This compound contains an acetal/aminal-like group ( X-CH(R)-Y where X, Y are N, S, or O) that may be acid/base labile, releasing an aldehyde.

> <s_lp_Force_Field>
OPLS_2005

> <r_lp_Energy>
44.3344

> <b_lp_Chiralities_Consistent>
1

> <s_lp_Variant>
AV-unprocessed.smi:34-23

> <Gold.Version>
5.8.1

> <Gold.Id.Protein>
6NUR|6NUR_protein|mol2

> <Gold.PLP.Fitness>
62.7995

> <Gold.PLP.PLP>
-54.0193

> <Gold.PLP.part.hbond>
-3.0000

> <Gold.PLP.part.metal>
0.0000

> <Gold.PLP.part.buried>
-3.4455

> <Gold.PLP.part.nonpolar>
-46.2641

> <Gold.PLP.part.repulsive>
0.2406

> <Gold.PLP.ligand.clash>
0.0000

> <Gold.PLP.ligand.torsion>
3.0421

> <Gold.PLP.Chemscore.Hbond>
3.6896

> <Gold.PLP.Chemscore.CHOScore>
1.0000

> <Gold.PLP.Chemscore.Metal>
0.0000

> <Gold.Chemscore.Hbonds>
donor molecule, donor type, donor heavy atom, donor atom, acceptor molecule, acceptor atom, score
      L1  H    29    49       P1  7948  0.10
      P1  H  7989  7998       L1     5  0.45
      P1  H  7997  8008       L1     3  1.75
      L1  C     6    36       P1  7957  0.84

> <Gold.PLP.Chemscore.Internal.Correction>
0.7956

> <Gold.Rescore>
     Score         DG    S(hbond)    S(metal)    S(lipo)     H(rot)  DE(clash)    DE(int)     intcor
      9.85     -16.45       0.93        0.00     126.24       2.69       1.41       5.20       ----

> <Gold.Chemscore.Fitness>
9.8498

> <Gold.Chemscore.DG>
-16.4541

> <Gold.Chemscore.ZeroCoef>
-5.4800

> <Gold.Chemscore.Hbond>
0.9286

> <Gold.Chemscore.Metal>
0.0000

> <Gold.Chemscore.Lipo>
126.2400

> <Gold.Chemscore.Internal_Hbond>
0.0000

> <Gold.Chemscore.DEClash>
1.4069

> <Gold.Chemscore.DEInternal>
5.1973

> <Gold.Chemscore.Rot>
2.6944

> <Gold.Chemscore.Internal.Correction>
   9.000000E+99

> <Gold.Chemscore.Hbonds>
donor molecule, donor type, donor heavy atom, donor atom, acceptor molecule, acceptor atom, score
      P1  H  7989  7998       L1     5  0.06
      P1  H  7997  8008       L1     3  0.68

> <Gold.Chemscore.Hbond.Weighted>
-3.1015

> <Gold.Chemscore.Metal.Weighted>
-0.0000

> <Gold.Chemscore.Lipo.Weighted>
-14.7701

> <Gold.Chemscore.Internal_Hbond.Weighted>
0.0000

> <Gold.Chemscore.DEClash.Weighted>
1.4069

> <Gold.Chemscore.DEInternal.Weighted>
5.1973

> <Gold.Chemscore.Rot.Weighted>
6.8975

> <Gold.Chemscore.Internal.Correction.Weighted>
   9.000000E+99

> <Gold.Protein.RotatedTorsions>
[ 6907 6896 6895 6894 ] final -135.50 input  -60.11 | X-H torsion
[ 7974 7965 7964 7962 ] final -124.55 input  175.53 | X-H torsion
[ 8008 7997 7996 7995 ] final  -36.47 input   59.86 | X-H torsion
[ 10167 10162 10161 10158 ] final  162.24 input  -65.29 | X-H torsion
[ 10718 10713 10712 10709 ] final -138.59 input   66.30 | X-H torsion
[ 10763 10752 10751 10750 ] final  108.40 input  -60.55 | X-H torsion
[ 11005 11000 10999 10996 ] final   46.16 input  -57.11 | X-H torsion

> <Gold.Protein.ActiveResidues>
 VAL166  LYS551  ARG553  GLY616  TRP617  ASP618  TYR619  PRO620  LYS621  CYS622 
 ASP623  PHE694  ASN695  SER759  ASP760  ASP761  ALA762  ILE779  LEU786  VAL792 
 PHE793  MET794  SER795  GLU796  ALA797  LYS798  CYS799  TRP800  GLU811  SER814 

> <Gold.Protein.RotatedAtoms>
  150.9986  133.6078  159.2697 H   0  0  0  0  0  0  0  0  0  0  0  0  # atno 6907 bound_to 6896
  151.3272  135.0832  159.9336 H   0  0  0  0  0  0  0  0  0  0  0  0  # atno 6908 bound_to 6896
  152.5267  133.9622  159.7777 H   0  0  0  0  0  0  0  0  0  0  0  0  # atno 6909 bound_to 6896
  145.0069  140.7871  143.4462 H   0  0  0  0  0  0  0  0  0  0  0  0  # atno 7974 bound_to 7965
  154.4072  140.1630  156.2379 H   0  0  0  0  0  0  0  0  0  0  0  0  # atno 8008 bound_to 7997
  155.9226  140.3420  155.6162 H   0  0  0  0  0  0  0  0  0  0  0  0  # atno 8009 bound_to 7997
  155.7203  140.0767  157.2324 H   0  0  0  0  0  0  0  0  0  0  0  0  # atno 8010 bound_to 7997
  139.4858  144.4457  151.8895 H   0  0  0  0  0  0  0  0  0  0  0  0  # atno 10167 bound_to 10162
  156.3011  130.7429  151.1481 H   0  0  0  0  0  0  0  0  0  0  0  0  # atno 10718 bound_to 10713
  153.4201  135.3813  155.2105 H   0  0  0  0  0  0  0  0  0  0  0  0  # atno 10763 bound_to 10752
  154.8744  135.3815  154.4395 H   0  0  0  0  0  0  0  0  0  0  0  0  # atno 10764 bound_to 10752
  153.4914  135.7088  153.5945 H   0  0  0  0  0  0  0  0  0  0  0  0  # atno 10765 bound_to 10752
  140.1394  134.4603  155.8461 H   0  0  0  0  0  0  0  0  0  0  0  0  # atno 11005 bound_to 11000
  145.2076  139.2220  143.5160 LP  0  0  0  0  0  0  0  0  0  0  0  0  # atno 17320 bound_to 7965
  146.3463  140.1907  142.8589 LP  0  0  0  0  0  0  0  0  0  0  0  0  # atno 17321 bound_to 7965
  140.3911  144.2614  150.5899 LP  0  0  0  0  0  0  0  0  0  0  0  0  # atno 17342 bound_to 10162
  140.5145  143.2282  151.8484 LP  0  0  0  0  0  0  0  0  0  0  0  0  # atno 17343 bound_to 10162
  157.7368  131.0558  150.5392 LP  0  0  0  0  0  0  0  0  0  0  0  0  # atno 17370 bound_to 10713
  156.5520  130.4234  149.6103 LP  0  0  0  0  0  0  0  0  0  0  0  0  # atno 17371 bound_to 10713
  141.2183  133.6827  156.7218 LP  0  0  0  0  0  0  0  0  0  0  0  0  # atno 17394 bound_to 11000
  140.2742  134.8368  157.3874 LP  0  0  0  0  0  0  0  0  0  0  0  0  # atno 17395 bound_to 11000

$$$$
