AV-unprocessed.smi:72|AV-procd|sdf|703|dock8
  -GOLD-   2262017 23D 1   1.00000     0.00000
 Structure written by MMmdl.
 30 31  0  0  0  0  0  0  0  0  2 V2000
  145.9005  138.8780  151.9599 N   0  0  0  0  0  0  0  0  0  0  0  0
  146.8660  139.4305  152.7758 C   0  0  0  0  0  0  0  0  0  0  0  0
  148.0802  138.7757  152.8698 N   0  3  0  0  0  0  0  0  0  0  0  0
  149.1080  139.1697  153.6333 C   0  0  0  0  0  0  0  0  0  0  0  0
  148.9712  140.2328  154.3986 N   0  0  0  0  0  0  0  0  0  0  0  0
  150.1349  140.7041  155.2358 C   0  0  2  0  0  0  0  0  0  0  0  0
  151.2395  139.9526  154.8483 O   0  0  0  0  0  0  0  0  0  0  0  0
  152.0212  139.6480  155.9948 C   0  0  2  0  0  0  0  0  0  0  0  0
  152.8803  138.4018  155.7296 C   0  0  0  0  0  0  0  0  0  0  0  0
  153.8896  138.7034  154.7903 O   0  0  0  0  0  0  0  0  0  0  0  0
  150.9655  139.4458  157.0878 C   0  0  1  0  0  0  0  0  0  0  0  0
  151.5254  139.6839  158.3635 O   0  0  0  0  0  0  0  0  0  0  0  0
  149.9199  140.5026  156.7509 C   0  0  2  0  0  0  0  0  0  0  0  0
  148.6160  140.0841  157.1136 O   0  0  0  0  0  0  0  0  0  0  0  0
  147.7948  141.0213  154.2999 C   0  0  0  0  0  0  0  0  0  0  0  0
  147.6846  142.0751  154.9246 O   0  0  0  0  0  0  0  0  0  0  0  0
  146.7728  140.5271  153.4757 N   0  0  0  0  0  0  0  0  0  0  0  0
  150.3088  141.7556  155.0090 H   0  0  0  0  0  0  0  0  0  0  0  0
  152.6431  140.5127  156.2383 H   0  0  0  0  0  0  0  0  0  0  0  0
  150.5446  138.4405  157.0326 H   0  0  0  0  0  0  0  0  0  0  0  0
  150.1500  141.4476  157.2460 H   0  0  0  0  0  0  0  0  0  0  0  0
  144.9889  139.2923  151.8233 H   0  0  0  0  0  0  0  0  0  0  0  0
  146.0234  138.0213  151.4394 H   0  0  0  0  0  0  0  0  0  0  0  0
  150.0418  138.6228  153.5979 H   0  0  0  0  0  0  0  0  0  0  0  0
  153.3746  138.0838  156.6480 H   0  0  0  0  0  0  0  0  0  0  0  0
  152.2727  137.5659  155.3819 H   0  0  0  0  0  0  0  0  0  0  0  0
  153.8735  138.0482  154.1091 H   0  0  0  0  0  0  0  0  0  0  0  0
  152.4313  139.9304  158.2549 H   0  0  0  0  0  0  0  0  0  0  0  0
  148.4707  139.2159  156.7685 H   0  0  0  0  0  0  0  0  0  0  0  0
  148.2000  137.9408  152.3142 H   0  0  0  0  0  0  0  0  0  0  0  0
  1  2  1  0  0  0  0
  1 22  1  0  0  0  0
  1 23  1  0  0  0  0
  2 17  2  0  0  0  0
  2  3  1  0  0  0  0
  3  4  2  0  0  0  0
  3 30  1  0  0  0  0
  4  5  1  0  0  0  0
  4 24  1  0  0  0  0
  5  6  1  0  0  0  0
  5 15  1  0  0  0  0
  6 18  1  0  0  0  0
  6 13  1  0  0  0  0
  6  7  1  0  0  0  0
  7  8  1  0  0  0  0
  8 19  1  0  0  0  0
  8  9  1  0  0  0  0
  8 11  1  0  0  0  0
  9 10  1  0  0  0  0
  9 25  1  0  0  0  0
  9 26  1  0  0  0  0
 10 27  1  0  0  0  0
 11 20  1  0  0  0  0
 11 12  1  0  0  0  0
 11 13  1  0  0  0  0
 12 28  1  0  0  0  0
 13 21  1  0  0  0  0
 13 14  1  0  0  0  0
 14 29  1  0  0  0  0
 15 16  2  0  0  0  0
 15 17  1  0  0  0  0
M  CHG  1   3   1
M  END
> <s_m_source_file>
AV-unprocessed.smi

> <i_m_source_file_index>
72

> <i_lp_mmshare_version>
43012

> <i_f3d_flags>
0

> <s_epik_input>
W05IMl1jMW5bY0hdbihjKD1PKW4xKVtDQEBIXTJPW0NASF0oW0NIMl1bT0hdKVtDQEBIXShbT0hdKVtDQEhdMltPSF0=

> <s_epik_cmdline>
J2VwaWtfcHl0aG9uJywgJy1waCcsICc3LjAnLCAnLXRuJywgJzgnLCAnLW1hJywgJzIwMCcsICctbWV0YWxfYmluZGluZycsICctaW1hZScsICc8aW5maWxlLm1hZT4nLCAnLW9tYWUnLCAnPG91dGZpbGUubWFlPic=

> <r_lp_tautomer_probability>
4.77166e-05

> <r_epik_Ionization_Penalty>
0.104979

> <r_epik_Ionization_Penalty_Charging>
0.0999619

> <r_epik_Ionization_Penalty_Neutral>
0.00501745

> <r_epik_State_Penalty>
2.51541

> <r_epik_Charging_Adjusted_Penalty>
2.61537

> <i_epik_Tot_Q>
1

> <i_epik_Tot_abs_Q>
1

> <r_epik_Metal_State_Penalty>
3.53763

> <b_epik_Metal_Only>
0

> <s_epik_Chemistry_Notes>
This compound contains an acetal/aminal-like group ( X-CH(R)-Y where X, Y are N, S, or O) that may be acid/base labile, releasing an aldehyde.

> <s_lp_Force_Field>
OPLS_2005

> <r_lp_Energy>
34.5598

> <b_lp_Chiralities_Consistent>
1

> <s_lp_Variant>
AV-unprocessed.smi:72-41

> <Gold.Version>
5.8.1

> <Gold.Id.Protein>
6NUR|6NUR_protein|mol2

> <Gold.PLP.Fitness>
39.4751

> <Gold.PLP.PLP>
-25.3432

> <Gold.PLP.part.hbond>
-6.0000

> <Gold.PLP.part.metal>
0.0000

> <Gold.PLP.part.buried>
-1.8001

> <Gold.PLP.part.nonpolar>
-19.1590

> <Gold.PLP.part.repulsive>
1.0783

> <Gold.PLP.ligand.clash>
0.0000

> <Gold.PLP.ligand.torsion>
0.3296

> <Gold.PLP.Chemscore.Hbond>
4.8880

> <Gold.PLP.Chemscore.CHOScore>
0.0000

> <Gold.PLP.Chemscore.Metal>
0.0000

> <Gold.Chemscore.Hbonds>
donor molecule, donor type, donor heavy atom, donor atom, acceptor molecule, acceptor atom, score
      L1  H     1    22       P1 10175  0.98
      L1  H     3    30       P1  7948  2.00
      P1  H  7989  7998       L1     7  0.85
      P1  H  7997  8010       L1    10  0.83

> <Gold.PLP.Chemscore.Internal.Correction>
0.1271

> <Gold.Rescore>
     Score         DG    S(hbond)    S(metal)    S(lipo)     H(rot)  DE(clash)    DE(int)     intcor
      8.38      -9.06       3.47        0.00      20.86       4.08       0.23       0.44       ----

> <Gold.Chemscore.Fitness>
8.3842

> <Gold.Chemscore.DG>
-9.0585

> <Gold.Chemscore.ZeroCoef>
-5.4800

> <Gold.Chemscore.Hbond>
3.4665

> <Gold.Chemscore.Metal>
0.0000

> <Gold.Chemscore.Lipo>
20.8609

> <Gold.Chemscore.Internal_Hbond>
0.0000

> <Gold.Chemscore.DEClash>
0.2302

> <Gold.Chemscore.DEInternal>
0.4441

> <Gold.Chemscore.Rot>
4.0783

> <Gold.Chemscore.Internal.Correction>
   9.000000E+99

> <Gold.Chemscore.Hbonds>
donor molecule, donor type, donor heavy atom, donor atom, acceptor molecule, acceptor atom, score
      L1  H     1    22       P1 10175  0.89
      L1  H     3    30       P1  7948  0.98
      P1  H  7989  7998       L1     7  0.15
      P1  H  7997  8010       L1    10  0.21

> <Gold.Chemscore.Hbond.Weighted>
-11.5782

> <Gold.Chemscore.Metal.Weighted>
-0.0000

> <Gold.Chemscore.Lipo.Weighted>
-2.4407

> <Gold.Chemscore.Internal_Hbond.Weighted>
0.0000

> <Gold.Chemscore.DEClash.Weighted>
0.2302

> <Gold.Chemscore.DEInternal.Weighted>
0.4441

> <Gold.Chemscore.Rot.Weighted>
10.4404

> <Gold.Chemscore.Internal.Correction.Weighted>
   9.000000E+99

> <Gold.Protein.RotatedTorsions>
[ 6907 6896 6895 6894 ] final  -91.44 input  -60.11 | X-H torsion
[ 7974 7965 7964 7962 ] final  123.54 input  175.53 | X-H torsion
[ 8008 7997 7996 7995 ] final  125.10 input   59.86 | X-H torsion
[ 10167 10162 10161 10158 ] final  168.04 input  -65.29 | X-H torsion
[ 10718 10713 10712 10709 ] final -174.46 input   66.30 | X-H torsion
[ 10763 10752 10751 10750 ] final  171.13 input  -60.55 | X-H torsion
[ 11005 11000 10999 10996 ] final -150.32 input  -57.11 | X-H torsion

> <Gold.Protein.ActiveResidues>
 VAL166  LYS551  ARG553  GLY616  TRP617  ASP618  TYR619  PRO620  LYS621  CYS622 
 ASP623  PHE694  ASN695  SER759  ASP760  ASP761  ALA762  ILE779  LEU786  VAL792 
 PHE793  MET794  SER795  GLU796  ALA797  LYS798  CYS799  TRP800  GLU811  SER814 

> <Gold.Protein.RotatedAtoms>
  150.6892  134.2277  159.4421 H   0  0  0  0  0  0  0  0  0  0  0  0  # atno 6907 bound_to 6896
  152.0229  134.9810  160.0580 H   0  0  0  0  0  0  0  0  0  0  0  0  # atno 6908 bound_to 6896
  152.1380  133.4412  159.4789 H   0  0  0  0  0  0  0  0  0  0  0  0  # atno 6909 bound_to 6896
  145.0948  139.3561  143.4842 H   0  0  0  0  0  0  0  0  0  0  0  0  # atno 7974 bound_to 7965
  156.2823  140.2724  156.1895 H   0  0  0  0  0  0  0  0  0  0  0  0  # atno 8008 bound_to 7997
  155.0473  140.0386  157.2549 H   0  0  0  0  0  0  0  0  0  0  0  0  # atno 8009 bound_to 7997
  154.7224  140.2690  155.6534 H   0  0  0  0  0  0  0  0  0  0  0  0  # atno 8010 bound_to 7997
  139.4959  144.3857  151.9573 H   0  0  0  0  0  0  0  0  0  0  0  0  # atno 10167 bound_to 10162
  156.7854  130.9499  151.3120 H   0  0  0  0  0  0  0  0  0  0  0  0  # atno 10718 bound_to 10713
  154.4075  135.2756  155.2058 H   0  0  0  0  0  0  0  0  0  0  0  0  # atno 10763 bound_to 10752
  154.4058  135.6034  153.5927 H   0  0  0  0  0  0  0  0  0  0  0  0  # atno 10764 bound_to 10752
  152.9831  135.5937  154.4351 H   0  0  0  0  0  0  0  0  0  0  0  0  # atno 10765 bound_to 10752
  140.7415  134.3509  157.5146 H   0  0  0  0  0  0  0  0  0  0  0  0  # atno 11005 bound_to 11000
  146.3531  140.0798  142.8618 LP  0  0  0  0  0  0  0  0  0  0  0  0  # atno 17320 bound_to 7965
  145.1024  140.9354  143.4705 LP  0  0  0  0  0  0  0  0  0  0  0  0  # atno 17321 bound_to 7965
  140.3294  144.3335  150.5991 LP  0  0  0  0  0  0  0  0  0  0  0  0  # atno 17342 bound_to 10162
  140.5658  143.2186  151.7686 LP  0  0  0  0  0  0  0  0  0  0  0  0  # atno 17343 bound_to 10162
  157.6626  130.8979  149.9863 LP  0  0  0  0  0  0  0  0  0  0  0  0  # atno 17370 bound_to 10713
  156.1192  130.3646  149.9916 LP  0  0  0  0  0  0  0  0  0  0  0  0  # atno 17371 bound_to 10713
  139.8805  134.9084  156.2966 LP  0  0  0  0  0  0  0  0  0  0  0  0  # atno 17394 bound_to 11000
  140.9833  133.7254  156.0704 LP  0  0  0  0  0  0  0  0  0  0  0  0  # atno 17395 bound_to 11000

$$$$
