AV-unprocessed.smi:1836|AV-procd|sdf|7480|dock3
  -GOLD-   22720 9173D 1   1.00000     0.00000
 Structure written by MMmdl.
 32 33  0  0  0  0  0  0  0  0  2 V2000
  148.7990  141.2910  155.3035 C   0  0  0  0  0  0  0  0  0  0  0  0
  149.5426  141.5083  156.6280 C   0  0  1  0  0  0  0  0  0  0  0  0
  150.7686  142.4285  156.4313 C   0  0  0  0  0  0  0  0  0  0  0  0
  151.3501  142.8631  157.7010 N   0  0  0  0  0  0  0  0  0  0  0  0
  151.2991  144.2599  158.0995 C   0  0  0  0  0  0  0  0  0  0  0  0
  152.1995  144.3491  159.3394 C   0  0  0  0  0  0  0  0  0  0  0  0
  152.3952  142.9054  159.8135 C   0  0  0  0  0  0  0  0  0  0  0  0
  151.9020  142.0805  158.6372 C   0  0  0  0  0  0  0  0  0  0  0  0
  152.0152  140.8567  158.5888 O   0  0  0  0  0  0  0  0  0  0  0  0
  148.6050  142.0780  157.5956 N   0  0  0  0  0  0  0  0  0  0  0  0
  147.8807  141.3972  158.4969 C   0  0  0  0  0  0  0  0  0  0  0  0
  147.9640  140.1678  158.5550 O   0  0  0  0  0  0  0  0  0  0  0  0
  147.1183  142.1841  159.2892 N   0  5  0  0  0  0  0  0  0  0  0  0
  146.7905  141.7709  160.5243 C   0  0  0  0  0  0  0  0  0  0  0  0
  146.7131  140.4709  160.8509 N   0  0  0  0  0  0  0  0  0  0  0  0
  146.3554  140.2617  162.1761 N   0  0  0  0  0  0  0  0  0  0  0  0
  146.1652  141.4153  162.8160 C   0  0  0  0  0  0  0  0  0  0  0  0
  146.4008  142.8618  161.8577 S   0  0  0  0  0  0  0  0  0  0  0  0
  149.4499  140.8331  154.5584 H   0  0  0  0  0  0  0  0  0  0  0  0
  148.4340  142.2332  154.8932 H   0  0  0  0  0  0  0  0  0  0  0  0
  147.9410  140.6314  155.4387 H   0  0  0  0  0  0  0  0  0  0  0  0
  149.8841  140.5278  156.9646 H   0  0  0  0  0  0  0  0  0  0  0  0
  151.5420  141.8936  155.8784 H   0  0  0  0  0  0  0  0  0  0  0  0
  150.5041  143.2901  155.8157 H   0  0  0  0  0  0  0  0  0  0  0  0
  151.6458  144.9168  157.3011 H   0  0  0  0  0  0  0  0  0  0  0  0
  150.2700  144.5278  158.3419 H   0  0  0  0  0  0  0  0  0  0  0  0
  153.1639  144.7812  159.0687 H   0  0  0  0  0  0  0  0  0  0  0  0
  151.7617  144.9800  160.1133 H   0  0  0  0  0  0  0  0  0  0  0  0
  153.4380  142.6842  160.0435 H   0  0  0  0  0  0  0  0  0  0  0  0
  151.7860  142.6867  160.6910 H   0  0  0  0  0  0  0  0  0  0  0  0
  148.5064  143.0826  157.5936 H   0  0  0  0  0  0  0  0  0  0  0  0
  145.8805  141.4147  163.8574 H   0  0  0  0  0  0  0  0  0  0  0  0
  1  2  1  0  0  0  0
  1 19  1  0  0  0  0
  1 20  1  0  0  0  0
  1 21  1  0  0  0  0
  2  3  1  0  0  0  0
  2 10  1  0  0  0  0
  2 22  1  0  0  0  0
  3  4  1  0  0  0  0
  3 23  1  0  0  0  0
  3 24  1  0  0  0  0
  4  8  1  0  0  0  0
  4  5  1  0  0  0  0
  5  6  1  0  0  0  0
  5 25  1  0  0  0  0
  5 26  1  0  0  0  0
  6  7  1  0  0  0  0
  6 27  1  0  0  0  0
  6 28  1  0  0  0  0
  7  8  1  0  0  0  0
  7 29  1  0  0  0  0
  7 30  1  0  0  0  0
  8  9  2  0  0  0  0
 10 11  1  0  0  0  0
 10 31  1  0  0  0  0
 11 12  2  0  0  0  0
 11 13  1  0  0  0  0
 13 14  1  0  0  0  0
 14 18  1  0  0  0  0
 14 15  2  0  0  0  0
 15 16  1  0  0  0  0
 16 17  2  0  0  0  0
 17 18  1  0  0  0  0
 17 32  1  0  0  0  0
M  CHG  1  13  -1
M  END
> <s_m_source_file>
AV-unprocessed.smi

> <i_m_source_file_index>
1836

> <i_lp_mmshare_version>
43012

> <i_f3d_flags>
0

> <s_epik_input>
Tz1DMVtDSDJdW0NIMl1bQ0gyXU4xW0NIMl1bQ0BASF0oW0NIM10pW05IXUMoPU8pW05IXWMybm5bY0hdczI=

> <s_epik_cmdline>
J2VwaWtfcHl0aG9uJywgJy1waCcsICc3LjAnLCAnLXRuJywgJzgnLCAnLW1hJywgJzIwMCcsICctbWV0YWxfYmluZGluZycsICctaW1hZScsICc8aW5maWxlLm1hZT4nLCAnLW9tYWUnLCAnPG91dGZpbGUubWFlPic=

> <r_lp_tautomer_probability>
1

> <r_epik_Ionization_Penalty>
3.44722

> <r_epik_Ionization_Penalty_Charging>
3.40341

> <r_epik_Ionization_Penalty_Neutral>
0.0438099

> <r_epik_State_Penalty>
3.40151

> <r_epik_Charging_Adjusted_Penalty>
6.80491

> <i_epik_Tot_Q>
-1

> <i_epik_Tot_abs_Q>
1

> <r_epik_Metal_State_Penalty>
0.49534

> <b_epik_Metal_Only>
1

> <s_lp_Force_Field>
OPLS_2005

> <r_lp_Energy>
17.1678

> <b_lp_Chiralities_Consistent>
1

> <s_lp_Variant>
AV-unprocessed.smi:1836-4

> <Gold.Version>
5.8.1

> <Gold.Id.Protein>
6NUR|6NUR_protein|mol2

> <Gold.PLP.Fitness>
40.7724

> <Gold.PLP.PLP>
-37.1313

> <Gold.PLP.part.hbond>
-4.1251

> <Gold.PLP.part.metal>
0.0000

> <Gold.PLP.part.buried>
-6.5600

> <Gold.PLP.part.nonpolar>
-27.1726

> <Gold.PLP.part.repulsive>
0.8833

> <Gold.PLP.ligand.clash>
0.0000

> <Gold.PLP.ligand.torsion>
0.7308

> <Gold.PLP.Chemscore.Hbond>
1.6460

> <Gold.PLP.Chemscore.CHOScore>
0.0000

> <Gold.PLP.Chemscore.Metal>
0.0000

> <Gold.PLP.Chemscore.Internal.Correction>
0.1648

> <Gold.Rescore>
     Score         DG    S(hbond)    S(metal)    S(lipo)     H(rot)  DE(clash)    DE(int)     intcor
     10.94     -13.76       1.45        0.00      67.17       1.73       0.17       2.65       ----

> <Gold.Chemscore.Fitness>
10.9415

> <Gold.Chemscore.DG>
-13.7577

> <Gold.Chemscore.ZeroCoef>
-5.4800

> <Gold.Chemscore.Hbond>
1.4515

> <Gold.Chemscore.Metal>
0.0000

> <Gold.Chemscore.Lipo>
67.1707

> <Gold.Chemscore.Internal_Hbond>
0.0000

> <Gold.Chemscore.DEClash>
0.1698

> <Gold.Chemscore.DEInternal>
2.6464

> <Gold.Chemscore.Rot>
1.7302

> <Gold.Chemscore.Internal.Correction>
   9.000000E+99

> <Gold.Chemscore.Hbond.Weighted>
-4.8482

> <Gold.Chemscore.Metal.Weighted>
-0.0000

> <Gold.Chemscore.Lipo.Weighted>
-7.8590

> <Gold.Chemscore.Internal_Hbond.Weighted>
0.0000

> <Gold.Chemscore.DEClash.Weighted>
0.1698

> <Gold.Chemscore.DEInternal.Weighted>
2.6464

> <Gold.Chemscore.Rot.Weighted>
4.4294

> <Gold.Chemscore.Internal.Correction.Weighted>
   9.000000E+99

> <Gold.Protein.RotatedTorsions>
[ 6907 6896 6895 6894 ] final -117.72 input  -60.11 | X-H torsion
[ 7974 7965 7964 7962 ] final -170.70 input  175.53 | X-H torsion
[ 8008 7997 7996 7995 ] final   40.02 input   59.86 | X-H torsion
[ 10167 10162 10161 10158 ] final  -76.67 input  -65.29 | X-H torsion
[ 10718 10713 10712 10709 ] final -129.63 input   66.30 | X-H torsion
[ 10763 10752 10751 10750 ] final  -91.06 input  -60.55 | X-H torsion
[ 11005 11000 10999 10996 ] final  -71.04 input  -57.11 | X-H torsion

> <Gold.Protein.ActiveResidues>
 VAL166  LYS551  ARG553  GLY616  TRP617  ASP618  TYR619  PRO620  LYS621  CYS622 
 ASP623  PHE694  ASN695  SER759  ASP760  ASP761  ALA762  ILE779  LEU786  VAL792 
 PHE793  MET794  SER795  GLU796  ALA797  LYS798  CYS799  TRP800  GLU811  SER814 

> <Gold.Protein.RotatedAtoms>
  150.8160  133.8337  159.3160 H   0  0  0  0  0  0  0  0  0  0  0  0  # atno 6907 bound_to 6896
  151.6109  135.1038  160.0090 H   0  0  0  0  0  0  0  0  0  0  0  0  # atno 6908 bound_to 6896
  152.4251  133.7141  159.6552 H   0  0  0  0  0  0  0  0  0  0  0  0  # atno 6909 bound_to 6896
  144.7166  140.2033  143.6336 H   0  0  0  0  0  0  0  0  0  0  0  0  # atno 7974 bound_to 7965
  155.2463  140.3349  155.4287 H   0  0  0  0  0  0  0  0  0  0  0  0  # atno 8008 bound_to 7997
  156.2234  140.1819  156.7465 H   0  0  0  0  0  0  0  0  0  0  0  0  # atno 8009 bound_to 7997
  154.5861  140.0645  156.9158 H   0  0  0  0  0  0  0  0  0  0  0  0  # atno 8010 bound_to 7997
  140.4837  143.2396  151.8018 H   0  0  0  0  0  0  0  0  0  0  0  0  # atno 10167 bound_to 10162
  156.2065  130.6891  151.0600 H   0  0  0  0  0  0  0  0  0  0  0  0  # atno 10718 bound_to 10713
  154.6722  135.5281  153.8153 H   0  0  0  0  0  0  0  0  0  0  0  0  # atno 10763 bound_to 10752
  153.0509  135.6532  154.0707 H   0  0  0  0  0  0  0  0  0  0  0  0  # atno 10764 bound_to 10752
  154.0604  135.2962  155.3305 H   0  0  0  0  0  0  0  0  0  0  0  0  # atno 10765 bound_to 10752
  141.1585  133.6806  156.6845 H   0  0  0  0  0  0  0  0  0  0  0  0  # atno 11005 bound_to 11000
  145.8660  139.2247  143.1689 LP  0  0  0  0  0  0  0  0  0  0  0  0  # atno 17320 bound_to 7965
  146.0130  140.8418  142.9961 LP  0  0  0  0  0  0  0  0  0  0  0  0  # atno 17321 bound_to 7965
  139.4838  144.4740  151.9390 LP  0  0  0  0  0  0  0  0  0  0  0  0  # atno 17342 bound_to 10162
  140.3826  144.2717  150.5907 LP  0  0  0  0  0  0  0  0  0  0  0  0  # atno 17343 bound_to 10162
  157.7015  131.0774  150.6805 LP  0  0  0  0  0  0  0  0  0  0  0  0  # atno 17370 bound_to 10713
  156.6863  130.4582  149.5613 LP  0  0  0  0  0  0  0  0  0  0  0  0  # atno 17371 bound_to 10713
  140.3077  134.8111  157.4151 LP  0  0  0  0  0  0  0  0  0  0  0  0  # atno 17394 bound_to 11000
  140.1206  134.5225  155.8187 LP  0  0  0  0  0  0  0  0  0  0  0  0  # atno 17395 bound_to 11000

$$$$
