AV-unprocessed.smi:47|AV-procd|sdf|446|dock7
  -GOLD-   2262016313D 1   1.00000     0.00000
 Structure written by MMmdl.
 30 32  0  0  0  0  0  0  0  0  2 V2000
  145.7733  140.2698  154.6296 O   0  0  0  0  0  0  0  0  0  0  0  0
  147.1236  140.6720  154.7232 C   0  0  2  0  0  0  0  0  0  0  0  0
  147.6626  141.2147  153.4064 C   0  0  0  0  0  0  0  0  0  0  0  0
  149.1093  141.1199  153.5407 N   0  0  0  0  0  0  0  0  0  0  0  0
  149.4054  139.9517  154.3781 C   0  0  1  0  0  0  0  0  0  0  0  0
  150.4582  140.2392  155.4333 C   0  0  0  0  0  0  0  0  0  0  0  0
  151.6185  139.5665  155.5770 N   0  0  0  0  0  0  0  0  0  0  0  0
  152.2606  140.1487  156.5722 N   0  5  0  0  0  0  0  0  0  0  0  0
  151.4995  141.1633  157.0098 C   0  0  0  0  0  0  0  0  0  0  0  0
  151.9178  142.0407  158.1229 C   0  0  0  0  0  0  0  0  0  0  0  0
  152.6994  141.5276  159.1840 C   0  0  0  0  0  0  0  0  0  0  0  0
  153.1054  142.3511  160.2522 C   0  0  0  0  0  0  0  0  0  0  0  0
  152.7344  143.7076  160.2757 C   0  0  0  0  0  0  0  0  0  0  0  0
  151.9572  144.2355  159.2289 C   0  0  0  0  0  0  0  0  0  0  0  0
  151.5537  143.4077  158.1630 C   0  0  0  0  0  0  0  0  0  0  0  0
  150.3742  141.2483  156.3143 N   0  0  0  0  0  0  0  0  0  0  0  0
  148.0712  139.5111  155.0079 C   0  0  0  0  0  0  0  0  0  0  0  0
  147.2234  141.4296  155.5021 H   0  0  0  0  0  0  0  0  0  0  0  0
  149.7795  139.1419  153.7504 H   0  0  0  0  0  0  0  0  0  0  0  0
  145.4093  140.6321  153.8363 H   0  0  0  0  0  0  0  0  0  0  0  0
  147.3295  140.5859  152.5794 H   0  0  0  0  0  0  0  0  0  0  0  0
  147.3366  142.2354  153.2052 H   0  0  0  0  0  0  0  0  0  0  0  0
  149.5207  140.9983  152.6213 H   0  0  0  0  0  0  0  0  0  0  0  0
  152.9947  140.4886  159.1838 H   0  0  0  0  0  0  0  0  0  0  0  0
  153.7017  141.9400  161.0532 H   0  0  0  0  0  0  0  0  0  0  0  0
  153.0448  144.3410  161.0935 H   0  0  0  0  0  0  0  0  0  0  0  0
  151.6691  145.2763  159.2419 H   0  0  0  0  0  0  0  0  0  0  0  0
  150.9575  143.8351  157.3702 H   0  0  0  0  0  0  0  0  0  0  0  0
  148.1450  139.2775  156.0710 H   0  0  0  0  0  0  0  0  0  0  0  0
  147.7211  138.6116  154.4992 H   0  0  0  0  0  0  0  0  0  0  0  0
  1  2  1  0  0  0  0
  1 20  1  0  0  0  0
  2 18  1  0  0  0  0
  2 17  1  0  0  0  0
  2  3  1  0  0  0  0
  3  4  1  0  0  0  0
  3 21  1  0  0  0  0
  3 22  1  0  0  0  0
  4  5  1  0  0  0  0
  4 23  1  0  0  0  0
  5 19  1  0  0  0  0
  5  6  1  0  0  0  0
  5 17  1  0  0  0  0
  6 16  1  0  0  0  0
  6  7  2  0  0  0  0
  7  8  1  0  0  0  0
  8  9  1  0  0  0  0
  9 10  1  0  0  0  0
  9 16  2  0  0  0  0
 10 15  1  0  0  0  0
 10 11  2  0  0  0  0
 11 12  1  0  0  0  0
 11 24  1  0  0  0  0
 12 13  2  0  0  0  0
 12 25  1  0  0  0  0
 13 14  1  0  0  0  0
 13 26  1  0  0  0  0
 14 15  2  0  0  0  0
 14 27  1  0  0  0  0
 15 28  1  0  0  0  0
 17 29  1  0  0  0  0
 17 30  1  0  0  0  0
M  CHG  1   8  -1
M  END
> <s_m_source_file>
AV-unprocessed.smi

> <i_m_source_file_index>
47

> <i_lp_mmshare_version>
43012

> <i_f3d_flags>
0

> <s_epik_input>
W09IXVtDQEhdMVtDSDJdW05IXVtDQEBIXShbQ0gyXTEpYzJuW25IXWMobjIpLWMzW2NIXVtjSF1bY0hdW2NIXVtjSF0z

> <s_epik_cmdline>
J2VwaWtfcHl0aG9uJywgJy1waCcsICc3LjAnLCAnLXRuJywgJzgnLCAnLW1hJywgJzIwMCcsICctbWV0YWxfYmluZGluZycsICctaW1hZScsICc8aW5maWxlLm1hZT4nLCAnLW9tYWUnLCAnPG91dGZpbGUubWFlPic=

> <r_epik_Ionization_Penalty>
16.1968

> <r_epik_Ionization_Penalty_Charging>
13.1522

> <r_epik_Ionization_Penalty_Neutral>
3.04463

> <r_epik_State_Penalty>
6.32428

> <r_epik_Charging_Adjusted_Penalty>
19.4764

> <i_epik_Tot_Q>
-1

> <i_epik_Tot_abs_Q>
1

> <r_epik_Metal_State_Penalty>
2.82187

> <b_epik_Metal_Only>
1

> <s_lp_Force_Field>
OPLS_2005

> <r_lp_Energy>
30.4729

> <b_lp_Chiralities_Consistent>
1

> <s_lp_Variant>
AV-unprocessed.smi:47-24

> <Gold.Version>
5.8.1

> <Gold.Id.Protein>
6NUR|6NUR_protein|mol2

> <Gold.PLP.Fitness>
44.6159

> <Gold.PLP.PLP>
-35.1668

> <Gold.PLP.part.hbond>
-5.0372

> <Gold.PLP.part.metal>
0.0000

> <Gold.PLP.part.buried>
-3.2356

> <Gold.PLP.part.nonpolar>
-25.7699

> <Gold.PLP.part.repulsive>
0.0654

> <Gold.PLP.ligand.clash>
0.0000

> <Gold.PLP.ligand.torsion>
0.4784

> <Gold.PLP.Chemscore.Hbond>
3.4652

> <Gold.PLP.Chemscore.CHOScore>
0.0000

> <Gold.PLP.Chemscore.Metal>
0.0000

> <Gold.Chemscore.Hbonds>
donor molecule, donor type, donor heavy atom, donor atom, acceptor molecule, acceptor atom, score
      L1  H     1    20       P1 10175  0.51
      L1  H     4    23       P1  7957  0.98
      P1  H  7997  8008       L1     8  1.76

> <Gold.PLP.Chemscore.Internal.Correction>
0.0103

> <Gold.Rescore>
     Score         DG    S(hbond)    S(metal)    S(lipo)     H(rot)  DE(clash)    DE(int)     intcor
     19.51     -19.98       2.39        0.00      87.72       1.46       0.10       0.37       ----

> <Gold.Chemscore.Fitness>
19.5109

> <Gold.Chemscore.DG>
-19.9821

> <Gold.Chemscore.ZeroCoef>
-5.4800

> <Gold.Chemscore.Hbond>
2.3896

> <Gold.Chemscore.Metal>
0.0000

> <Gold.Chemscore.Lipo>
87.7227

> <Gold.Chemscore.Internal_Hbond>
0.0000

> <Gold.Chemscore.DEClash>
0.1036

> <Gold.Chemscore.DEInternal>
0.3676

> <Gold.Chemscore.Rot>
1.4621

> <Gold.Chemscore.Internal.Correction>
   9.000000E+99

> <Gold.Chemscore.Hbonds>
donor molecule, donor type, donor heavy atom, donor atom, acceptor molecule, acceptor atom, score
      L1  H     1    20       P1 10175  0.48
      L1  H     4    23       P1  7957  0.93
      P1  H  7997  8008       L1     8  0.76

> <Gold.Chemscore.Hbond.Weighted>
-7.9814

> <Gold.Chemscore.Metal.Weighted>
-0.0000

> <Gold.Chemscore.Lipo.Weighted>
-10.2636

> <Gold.Chemscore.Internal_Hbond.Weighted>
0.0000

> <Gold.Chemscore.DEClash.Weighted>
0.1036

> <Gold.Chemscore.DEInternal.Weighted>
0.3676

> <Gold.Chemscore.Rot.Weighted>
3.7429

> <Gold.Chemscore.Internal.Correction.Weighted>
   9.000000E+99

> <Gold.Protein.RotatedTorsions>
[ 6907 6896 6895 6894 ] final   57.50 input  -60.11 | X-H torsion
[ 7974 7965 7964 7962 ] final   67.35 input  175.53 | X-H torsion
[ 8008 7997 7996 7995 ] final  -46.26 input   59.86 | X-H torsion
[ 10167 10162 10161 10158 ] final  -41.00 input  -65.29 | X-H torsion
[ 10718 10713 10712 10709 ] final  145.76 input   66.30 | X-H torsion
[ 10763 10752 10751 10750 ] final -135.60 input  -60.55 | X-H torsion
[ 11005 11000 10999 10996 ] final  -24.55 input  -57.11 | X-H torsion

> <Gold.Protein.ActiveResidues>
 VAL166  LYS551  ARG553  GLY616  TRP617  ASP618  TYR619  PRO620  LYS621  CYS622 
 ASP623  PHE694  ASN695  SER759  ASP760  ASP761  ALA762  ILE779  LEU786  VAL792 
 PHE793  MET794  SER795  GLU796  ALA797  LYS798  CYS799  TRP800  GLU811  SER814 

> <Gold.Protein.RotatedAtoms>
  152.3737  134.6696  160.0167 H   0  0  0  0  0  0  0  0  0  0  0  0  # atno 6907 bound_to 6896
  151.6981  133.3305  159.3267 H   0  0  0  0  0  0  0  0  0  0  0  0  # atno 6908 bound_to 6896
  150.7693  134.6575  159.6366 H   0  0  0  0  0  0  0  0  0  0  0  0  # atno 6909 bound_to 6896
  145.8157  139.3057  143.1073 H   0  0  0  0  0  0  0  0  0  0  0  0  # atno 7974 bound_to 7965
  154.4006  140.1376  156.3981 H   0  0  0  0  0  0  0  0  0  0  0  0  # atno 8008 bound_to 7997
  155.7850  140.3480  155.5297 H   0  0  0  0  0  0  0  0  0  0  0  0  # atno 8009 bound_to 7997
  155.8636  140.0960  157.1587 H   0  0  0  0  0  0  0  0  0  0  0  0  # atno 8010 bound_to 7997
  140.7016  143.3120  151.3004 H   0  0  0  0  0  0  0  0  0  0  0  0  # atno 10167 bound_to 10162
  157.3413  131.0936  151.1080 H   0  0  0  0  0  0  0  0  0  0  0  0  # atno 10718 bound_to 10713
  154.8700  135.3698  154.4925 H   0  0  0  0  0  0  0  0  0  0  0  0  # atno 10763 bound_to 10752
  153.5570  135.7023  153.5569 H   0  0  0  0  0  0  0  0  0  0  0  0  # atno 10764 bound_to 10752
  153.3662  135.4033  155.1719 H   0  0  0  0  0  0  0  0  0  0  0  0  # atno 10765 bound_to 10752
  140.8856  133.7624  156.0356 H   0  0  0  0  0  0  0  0  0  0  0  0  # atno 11005 bound_to 11000
  145.9729  140.8745  143.0153 LP  0  0  0  0  0  0  0  0  0  0  0  0  # atno 17320 bound_to 7965
  144.6752  140.1971  143.7391 LP  0  0  0  0  0  0  0  0  0  0  0  0  # atno 17321 bound_to 7965
  139.6546  144.0300  152.2650 LP  0  0  0  0  0  0  0  0  0  0  0  0  # atno 17342 bound_to 10162
  139.9847  144.6404  150.7868 LP  0  0  0  0  0  0  0  0  0  0  0  0  # atno 17343 bound_to 10162
  157.2290  130.6516  149.5842 LP  0  0  0  0  0  0  0  0  0  0  0  0  # atno 17370 bound_to 10713
  155.9708  130.4605  150.6074 LP  0  0  0  0  0  0  0  0  0  0  0  0  # atno 17371 bound_to 10713
  140.8409  134.3067  157.5314 LP  0  0  0  0  0  0  0  0  0  0  0  0  # atno 17394 bound_to 11000
  139.8724  134.9415  156.3800 LP  0  0  0  0  0  0  0  0  0  0  0  0  # atno 17395 bound_to 11000

$$$$
