AV-unprocessed.smi:221|AV-procd|sdf|1692|dock6
  -GOLD-   2262020133D 1   1.00000     0.00000
 Structure written by MMmdl.
 50 53  0  0  0  0  0  0  0  0  1 V2000
  141.7128  134.0797  154.1109 N   0  0  0  0  0  0  0  0  0  0  0  0
  141.8561  135.1863  153.3752 C   0  0  0  0  0  0  0  0  0  0  0  0
  141.2711  136.2300  153.6583 O   0  0  0  0  0  0  0  0  0  0  0  0
  142.7938  135.1165  152.1514 C   0  0  2  0  0  0  0  0  0  0  0  0
  143.3723  133.7285  151.8459 C   0  0  0  0  0  0  0  0  0  0  0  0
  144.5100  134.0366  150.8698 C   0  0  2  0  0  0  0  0  0  0  0  0
  145.5738  133.2732  151.1197 F   0  0  0  0  0  0  0  0  0  0  0  0
  144.8201  135.5312  151.0621 C   0  0  0  0  0  0  0  0  0  0  0  0
  143.9544  136.0179  152.1348 N   0  0  0  0  0  0  0  0  0  0  0  0
  144.6339  136.2439  153.2887 C   0  0  0  0  0  0  0  0  0  0  0  0
  144.4344  135.4615  154.3828 N   0  0  0  0  0  0  0  0  0  0  0  0
  145.1149  135.6985  155.5084 C   0  0  0  0  0  0  0  0  0  0  0  0
  146.0278  136.6428  155.7491 N   0  0  0  0  0  0  0  0  0  0  0  0
  146.2317  137.4241  154.6500 C   0  0  0  0  0  0  0  0  0  0  0  0
  145.5830  137.2937  153.3911 C   0  0  0  0  0  0  0  0  0  0  0  0
  146.0418  138.2668  152.5127 N   0  0  0  0  0  0  0  0  0  0  0  0
  146.9178  138.9350  153.2130 C   0  0  0  0  0  0  0  0  0  0  0  0
  147.0975  138.4925  154.5047 N   0  0  0  0  0  0  0  0  0  0  0  0
  148.0033  139.0441  155.4966 C   0  0  0  0  0  0  0  0  0  0  0  0
  148.6505  140.3825  155.0610 C   0  0  1  0  0  0  0  0  0  0  0  0
  147.6089  141.4994  154.8092 C   0  0  0  0  0  0  0  0  0  0  0  0
  148.2291  142.7030  154.4056 O   0  0  0  0  0  0  0  0  0  0  0  0
  149.7604  140.8189  156.0504 C   0  0  2  0  0  0  0  0  0  0  0  0
  150.9193  139.8477  156.1892 C   0  0  0  0  0  0  0  0  0  0  0  0
  151.5515  140.2897  157.5040 C   0  0  0  0  0  0  0  0  0  0  0  0
  150.4742  140.7540  158.3089 O   0  0  0  0  0  0  0  0  0  0  0  0
  149.3061  140.9195  157.5107 C   0  0  0  0  0  0  0  0  0  0  0  0
  142.1776  135.4134  151.3011 H   0  0  0  0  0  0  0  0  0  0  0  0
  144.2076  133.8401  149.8408 H   0  0  0  0  0  0  0  0  0  0  0  0
  141.1058  134.0896  154.9177 H   0  0  0  0  0  0  0  0  0  0  0  0
  142.2100  133.2382  153.8572 H   0  0  0  0  0  0  0  0  0  0  0  0
  143.7623  133.2601  152.7508 H   0  0  0  0  0  0  0  0  0  0  0  0
  142.6328  133.0517  151.4168 H   0  0  0  0  0  0  0  0  0  0  0  0
  145.8813  135.6984  151.2606 H   0  0  0  0  0  0  0  0  0  0  0  0
  144.5819  136.0851  150.1534 H   0  0  0  0  0  0  0  0  0  0  0  0
  144.8974  135.0365  156.3335 H   0  0  0  0  0  0  0  0  0  0  0  0
  147.4668  139.7702  152.8023 H   0  0  0  0  0  0  0  0  0  0  0  0
  147.4520  139.1789  156.4281 H   0  0  0  0  0  0  0  0  0  0  0  0
  148.7690  138.2948  155.6984 H   0  0  0  0  0  0  0  0  0  0  0  0
  149.1342  140.2006  154.1000 H   0  0  0  0  0  0  0  0  0  0  0  0
  146.8946  141.1995  154.0429 H   0  0  0  0  0  0  0  0  0  0  0  0
  147.0180  141.6927  155.7046 H   0  0  0  0  0  0  0  0  0  0  0  0
  149.1062  142.5052  154.1141 H   0  0  0  0  0  0  0  0  0  0  0  0
  150.1600  141.7881  155.7467 H   0  0  0  0  0  0  0  0  0  0  0  0
  150.5528  138.8238  156.2754 H   0  0  0  0  0  0  0  0  0  0  0  0
  151.6216  139.8920  155.3563 H   0  0  0  0  0  0  0  0  0  0  0  0
  152.1008  139.4862  157.9949 H   0  0  0  0  0  0  0  0  0  0  0  0
  152.2405  141.1180  157.3346 H   0  0  0  0  0  0  0  0  0  0  0  0
  148.8147  141.8676  157.7297 H   0  0  0  0  0  0  0  0  0  0  0  0
  148.6108  140.1156  157.7568 H   0  0  0  0  0  0  0  0  0  0  0  0
  1  2  1  0  0  0  0
  1 30  1  0  0  0  0
  1 31  1  0  0  0  0
  2  3  2  0  0  0  0
  2  4  1  0  0  0  0
  4 28  1  0  0  0  0
  4  9  1  0  0  0  0
  4  5  1  0  0  0  0
  5  6  1  0  0  0  0
  5 32  1  0  0  0  0
  5 33  1  0  0  0  0
  6 29  1  0  0  0  0
  6  7  1  0  0  0  0
  6  8  1  0  0  0  0
  8  9  1  0  0  0  0
  8 34  1  0  0  0  0
  8 35  1  0  0  0  0
  9 10  1  0  0  0  0
 10 15  1  0  0  0  0
 10 11  2  0  0  0  0
 11 12  1  0  0  0  0
 12 13  2  0  0  0  0
 12 36  1  0  0  0  0
 13 14  1  0  0  0  0
 14 18  1  0  0  0  0
 14 15  2  0  0  0  0
 15 16  1  0  0  0  0
 16 17  2  0  0  0  0
 17 18  1  0  0  0  0
 17 37  1  0  0  0  0
 18 19  1  0  0  0  0
 19 20  1  0  0  0  0
 19 38  1  0  0  0  0
 19 39  1  0  0  0  0
 20 21  1  0  0  0  0
 20 23  1  0  0  0  0
 20 40  1  0  0  0  0
 21 22  1  0  0  0  0
 21 41  1  0  0  0  0
 21 42  1  0  0  0  0
 22 43  1  0  0  0  0
 23 27  1  0  0  0  0
 23 24  1  0  0  0  0
 23 44  1  0  0  0  0
 24 25  1  0  0  0  0
 24 45  1  0  0  0  0
 24 46  1  0  0  0  0
 25 26  1  0  0  0  0
 25 47  1  0  0  0  0
 25 48  1  0  0  0  0
 26 27  1  0  0  0  0
 27 49  1  0  0  0  0
 27 50  1  0  0  0  0
M  END
> <s_m_source_file>
AV-unprocessed.smi

> <i_m_source_file_index>
221

> <i_lp_mmshare_version>
43012

> <i_f3d_flags>
0

> <s_epik_input>
W05IMl1DKD1PKVtDQEBIXTFbQ0gyXVtDQEBIXShGKVtDSDJdTjFjKG5bY0hdbjIpYyhjMjMpbltjSF1uM1tDSDJdW0NASF0oW0NIMl1bT0hdKVtDQEBIXTRbQ0gyXVtDSDJdT1tDSDJdNA==

> <s_epik_cmdline>
J2VwaWtfcHl0aG9uJywgJy1waCcsICc3LjAnLCAnLXRuJywgJzgnLCAnLW1hJywgJzIwMCcsICctbWV0YWxfYmluZGluZycsICctaW1hZScsICc8aW5maWxlLm1hZT4nLCAnLW9tYWUnLCAnPG91dGZpbGUubWFlPic=

> <r_lp_tautomer_probability>
1

> <r_epik_Ionization_Penalty>
0.000818822

> <r_epik_Ionization_Penalty_Charging>
0

> <r_epik_Ionization_Penalty_Neutral>
0.000818822

> <r_epik_State_Penalty>
0.000440551

> <r_epik_Charging_Adjusted_Penalty>
0.000440551

> <i_epik_Tot_Q>
0

> <i_epik_Tot_abs_Q>
0

> <r_epik_Metal_State_Penalty>
-0

> <b_epik_Metal_Only>
0

> <s_lp_Force_Field>
OPLS_2005

> <r_lp_Energy>
53.4739

> <b_lp_Chiralities_Consistent>
1

> <s_lp_Variant>
AV-unprocessed.smi:221-7

> <Gold.Version>
5.8.1

> <Gold.Id.Protein>
6NUR|6NUR_protein|mol2

> <Gold.PLP.Fitness>
48.0247

> <Gold.PLP.PLP>
-37.5293

> <Gold.PLP.part.hbond>
-4.4248

> <Gold.PLP.part.metal>
0.0000

> <Gold.PLP.part.buried>
-6.2999

> <Gold.PLP.part.nonpolar>
-26.5720

> <Gold.PLP.part.repulsive>
0.6514

> <Gold.PLP.ligand.clash>
0.0000

> <Gold.PLP.ligand.torsion>
0.4141

> <Gold.PLP.Chemscore.Hbond>
2.7180

> <Gold.PLP.Chemscore.CHOScore>
1.0000

> <Gold.PLP.Chemscore.Metal>
0.0000

> <Gold.Chemscore.Hbonds>
donor molecule, donor type, donor heavy atom, donor atom, acceptor molecule, acceptor atom, score
      L1  H     1    30       P1 11000  1.00
      L1  H     1    31       P1 10957  0.66
      P1  H  8022  8030       L1    22  0.15
      L1  C    17    37       P1  7957  0.59

> <Gold.PLP.Chemscore.Internal.Correction>
0.1696

> <Gold.Rescore>
     Score         DG    S(hbond)    S(metal)    S(lipo)     H(rot)  DE(clash)    DE(int)     intcor
      9.15     -11.17       2.35        0.00      63.02       3.72       0.27       1.75       ----

> <Gold.Chemscore.Fitness>
9.1480

> <Gold.Chemscore.DG>
-11.1665

> <Gold.Chemscore.ZeroCoef>
-5.4800

> <Gold.Chemscore.Hbond>
2.3463

> <Gold.Chemscore.Metal>
0.0000

> <Gold.Chemscore.Lipo>
63.0216

> <Gold.Chemscore.Internal_Hbond>
0.0000

> <Gold.Chemscore.DEClash>
0.2699

> <Gold.Chemscore.DEInternal>
1.7487

> <Gold.Chemscore.Rot>
3.7202

> <Gold.Chemscore.Internal.Correction>
   9.000000E+99

> <Gold.Chemscore.Hbonds>
donor molecule, donor type, donor heavy atom, donor atom, acceptor molecule, acceptor atom, score
      L1  H     1    30       P1 11000  0.95
      L1  H     1    31       P1 10957  0.64

> <Gold.Chemscore.Hbond.Weighted>
-7.8367

> <Gold.Chemscore.Metal.Weighted>
-0.0000

> <Gold.Chemscore.Lipo.Weighted>
-7.3735

> <Gold.Chemscore.Internal_Hbond.Weighted>
0.0000

> <Gold.Chemscore.DEClash.Weighted>
0.2699

> <Gold.Chemscore.DEInternal.Weighted>
1.7487

> <Gold.Chemscore.Rot.Weighted>
9.5237

> <Gold.Chemscore.Internal.Correction.Weighted>
   9.000000E+99

> <Gold.Protein.RotatedTorsions>
[ 6907 6896 6895 6894 ] final   93.79 input  -60.11 | X-H torsion
[ 7974 7965 7964 7962 ] final   26.95 input  175.53 | X-H torsion
[ 8008 7997 7996 7995 ] final   23.88 input   59.86 | X-H torsion
[ 10167 10162 10161 10158 ] final   77.39 input  -65.29 | X-H torsion
[ 10718 10713 10712 10709 ] final   25.93 input   66.30 | X-H torsion
[ 10763 10752 10751 10750 ] final   51.12 input  -60.55 | X-H torsion
[ 11005 11000 10999 10996 ] final -142.69 input  -57.11 | X-H torsion

> <Gold.Protein.ActiveResidues>
 VAL166  LYS551  ARG553  GLY616  TRP617  ASP618  TYR619  PRO620  LYS621  CYS622 
 ASP623  PHE694  ASN695  SER759  ASP760  ASP761  ALA762  ILE779  LEU786  VAL792 
 PHE793  MET794  SER795  GLU796  ALA797  LYS798  CYS799  TRP800  GLU811  SER814 

> <Gold.Protein.RotatedAtoms>
  152.5451  134.1293  159.8432 H   0  0  0  0  0  0  0  0  0  0  0  0  # atno 6907 bound_to 6896
  151.1341  133.5009  159.2606 H   0  0  0  0  0  0  0  0  0  0  0  0  # atno 6908 bound_to 6896
  151.1644  135.0298  159.8779 H   0  0  0  0  0  0  0  0  0  0  0  0  # atno 6909 bound_to 6896
  146.1810  139.7258  142.8900 H   0  0  0  0  0  0  0  0  0  0  0  0  # atno 7974 bound_to 7965
  154.9877  140.3110  155.4919 H   0  0  0  0  0  0  0  0  0  0  0  0  # atno 8008 bound_to 7997
  156.2944  140.2255  156.4920 H   0  0  0  0  0  0  0  0  0  0  0  0  # atno 8009 bound_to 7997
  154.7732  140.0451  157.1056 H   0  0  0  0  0  0  0  0  0  0  0  0  # atno 8010 bound_to 7997
  139.9821  144.5819  150.7892 H   0  0  0  0  0  0  0  0  0  0  0  0  # atno 10167 bound_to 10162
  157.2000  130.6886  149.6184 H   0  0  0  0  0  0  0  0  0  0  0  0  # atno 10718 bound_to 10713
  152.9785  135.5856  154.4363 H   0  0  0  0  0  0  0  0  0  0  0  0  # atno 10763 bound_to 10752
  154.3970  135.2768  155.2122 H   0  0  0  0  0  0  0  0  0  0  0  0  # atno 10764 bound_to 10752
  154.3970  135.6112  153.5929 H   0  0  0  0  0  0  0  0  0  0  0  0  # atno 10765 bound_to 10752
  140.8200  134.2643  157.4904 H   0  0  0  0  0  0  0  0  0  0  0  0  # atno 11005 bound_to 11000
  145.4075  141.0392  143.3036 LP  0  0  0  0  0  0  0  0  0  0  0  0  # atno 17320 bound_to 7965
  144.8315  139.5620  143.6941 LP  0  0  0  0  0  0  0  0  0  0  0  0  # atno 17321 bound_to 7965
  140.7485  143.2924  151.3295 LP  0  0  0  0  0  0  0  0  0  0  0  0  # atno 17342 bound_to 10162
  139.6402  144.0553  152.2548 LP  0  0  0  0  0  0  0  0  0  0  0  0  # atno 17343 bound_to 10162
  155.9701  130.4586  150.6004 LP  0  0  0  0  0  0  0  0  0  0  0  0  # atno 17370 bound_to 10713
  157.3776  131.0776  151.1504 LP  0  0  0  0  0  0  0  0  0  0  0  0  # atno 17371 bound_to 10713
  139.8709  134.9530  156.4132 LP  0  0  0  0  0  0  0  0  0  0  0  0  # atno 17394 bound_to 11000
  140.9109  133.7712  155.9790 LP  0  0  0  0  0  0  0  0  0  0  0  0  # atno 17395 bound_to 11000

$$$$
