AV-unprocessed.smi:783|AV-procd|sdf|3717|dock5
  -GOLD-   22720 1143D 1   1.00000     0.00000
 Structure written by MMmdl.
 45 46  0  0  0  0  0  0  0  0  1 V2000
  144.2381  136.0256  151.6504 C   0  0  0  0  0  0  0  0  0  0  0  0
  145.4242  135.0785  151.9253 C   0  0  1  0  0  0  0  0  0  0  0  0
  145.7997  135.0164  153.4138 C   0  0  0  0  0  0  0  0  0  0  0  0
  145.0221  134.5355  154.2389 O   0  0  0  0  0  0  0  0  0  0  0  0
  147.0022  135.5161  153.7403 N   0  0  0  0  0  0  0  0  0  0  0  0
  147.5662  135.5856  155.0886 C   0  0  0  0  0  0  0  0  0  0  0  0
  148.5793  134.4402  155.3975 C   0  0  0  0  0  0  0  0  0  0  0  0
  149.6589  134.8851  156.4436 C   0  0  0  0  0  0  0  0  0  0  0  0
  149.6769  134.3050  157.5323 O   0  0  0  0  0  0  0  0  0  0  0  0
  150.5581  135.8766  156.1973 N   0  0  0  0  0  0  0  0  0  0  0  0
  150.4905  136.6111  154.9291 C   0  0  0  0  0  0  0  0  0  0  0  0
  151.6520  136.3399  157.0556 C   0  0  0  0  0  0  0  0  0  0  0  0
  147.7921  133.2014  155.9107 C   0  0  0  0  0  0  0  0  0  0  0  0
  148.6743  131.9737  155.6617 C   0  0  0  0  0  0  0  0  0  0  0  0
  149.5821  132.3616  154.4924 C   0  0  0  0  0  0  0  0  0  0  0  0
  149.2041  133.8038  154.1290 C   0  0  0  0  0  0  0  0  0  0  0  0
  145.1973  133.7350  151.4050 N   0  0  0  0  0  0  0  0  0  0  0  0
  144.0623  133.2458  150.7904 C   0  0  0  0  0  0  0  0  0  0  0  0
  144.3139  131.9532  150.4295 C   0  0  0  0  0  0  0  0  0  0  0  0
  145.6531  131.7381  150.8577 C   0  0  0  0  0  0  0  0  0  0  0  0
  146.1819  132.8064  151.4310 N   0  0  0  0  0  0  0  0  0  0  0  0
  144.4510  137.0340  152.0068 H   0  0  0  0  0  0  0  0  0  0  0  0
  143.3215  135.6909  152.1380 H   0  0  0  0  0  0  0  0  0  0  0  0
  144.0369  136.0938  150.5810 H   0  0  0  0  0  0  0  0  0  0  0  0
  146.2848  135.4857  151.3913 H   0  0  0  0  0  0  0  0  0  0  0  0
  147.5703  135.8905  152.9946 H   0  0  0  0  0  0  0  0  0  0  0  0
  148.0390  136.5567  155.2448 H   0  0  0  0  0  0  0  0  0  0  0  0
  146.7264  135.5862  155.7772 H   0  0  0  0  0  0  0  0  0  0  0  0
  149.4997  137.0446  154.7838 H   0  0  0  0  0  0  0  0  0  0  0  0
  150.6992  135.9464  154.0898 H   0  0  0  0  0  0  0  0  0  0  0  0
  151.2071  137.4324  154.8827 H   0  0  0  0  0  0  0  0  0  0  0  0
  151.8829  135.7037  157.9020 H   0  0  0  0  0  0  0  0  0  0  0  0
  151.4156  137.3298  157.4470 H   0  0  0  0  0  0  0  0  0  0  0  0
  152.5738  136.4240  156.4787 H   0  0  0  0  0  0  0  0  0  0  0  0
  147.4694  133.2705  156.9503 H   0  0  0  0  0  0  0  0  0  0  0  0
  146.8775  133.0825  155.3274 H   0  0  0  0  0  0  0  0  0  0  0  0
  149.2765  131.7520  156.5437 H   0  0  0  0  0  0  0  0  0  0  0  0
  148.0762  131.0888  155.4422 H   0  0  0  0  0  0  0  0  0  0  0  0
  150.6266  132.3102  154.8028 H   0  0  0  0  0  0  0  0  0  0  0  0
  149.4607  131.6926  153.6399 H   0  0  0  0  0  0  0  0  0  0  0  0
  148.4570  133.7816  153.3342 H   0  0  0  0  0  0  0  0  0  0  0  0
  150.0653  134.3220  153.7165 H   0  0  0  0  0  0  0  0  0  0  0  0
  143.1784  133.8528  150.6616 H   0  0  0  0  0  0  0  0  0  0  0  0
  143.6454  131.2673  149.9308 H   0  0  0  0  0  0  0  0  0  0  0  0
  146.2545  130.8458  150.7652 H   0  0  0  0  0  0  0  0  0  0  0  0
  1  2  1  0  0  0  0
  1 22  1  0  0  0  0
  1 23  1  0  0  0  0
  1 24  1  0  0  0  0
  2  3  1  0  0  0  0
  2 17  1  0  0  0  0
  2 25  1  0  0  0  0
  3  4  2  0  0  0  0
  3  5  1  0  0  0  0
  5  6  1  0  0  0  0
  5 26  1  0  0  0  0
  6  7  1  0  0  0  0
  6 27  1  0  0  0  0
  6 28  1  0  0  0  0
  7 16  1  0  0  0  0
  7  8  1  0  0  0  0
  7 13  1  0  0  0  0
  8  9  2  0  0  0  0
  8 10  1  0  0  0  0
 10 11  1  0  0  0  0
 10 12  1  0  0  0  0
 11 29  1  0  0  0  0
 11 30  1  0  0  0  0
 11 31  1  0  0  0  0
 12 32  1  0  0  0  0
 12 33  1  0  0  0  0
 12 34  1  0  0  0  0
 13 14  1  0  0  0  0
 13 35  1  0  0  0  0
 13 36  1  0  0  0  0
 14 15  1  0  0  0  0
 14 37  1  0  0  0  0
 14 38  1  0  0  0  0
 15 16  1  0  0  0  0
 15 39  1  0  0  0  0
 15 40  1  0  0  0  0
 16 41  1  0  0  0  0
 16 42  1  0  0  0  0
 17 21  1  0  0  0  0
 17 18  1  0  0  0  0
 18 19  2  0  0  0  0
 18 43  1  0  0  0  0
 19 20  1  0  0  0  0
 19 44  1  0  0  0  0
 20 21  2  0  0  0  0
 20 45  1  0  0  0  0
M  END
> <s_m_source_file>
AV-unprocessed.smi

> <i_m_source_file_index>
783

> <i_lp_mmshare_version>
43012

> <i_f3d_flags>
0

> <s_epik_input>
bjFbY0hdW2NIXVtjSF1uMVtDQEhdKFtDSDNdKUMoPU8pW05IXVtDSDJdQzIoQyg9TylOKFtDSDNdKVtDSDNdKVtDSDJdW0NIMl1bQ0gyXVtDSDJdMg==

> <s_epik_cmdline>
J2VwaWtfcHl0aG9uJywgJy1waCcsICc3LjAnLCAnLXRuJywgJzgnLCAnLW1hJywgJzIwMCcsICctbWV0YWxfYmluZGluZycsICctaW1hZScsICc8aW5maWxlLm1hZT4nLCAnLW9tYWUnLCAnPG91dGZpbGUubWFlPic=

> <r_lp_tautomer_probability>
1

> <r_epik_Ionization_Penalty>
3.31274e-05

> <r_epik_Ionization_Penalty_Charging>
0

> <r_epik_Ionization_Penalty_Neutral>
3.31274e-05

> <r_epik_State_Penalty>
-0

> <r_epik_Charging_Adjusted_Penalty>
0

> <i_epik_Tot_Q>
0

> <i_epik_Tot_abs_Q>
0

> <r_epik_Metal_State_Penalty>
-0

> <b_epik_Metal_Only>
0

> <s_lp_Force_Field>
OPLS_2005

> <r_lp_Energy>
40.1786

> <b_lp_Chiralities_Consistent>
1

> <s_lp_Variant>
AV-unprocessed.smi:783-2

> <Gold.Version>
5.8.1

> <Gold.Id.Protein>
6NUR|6NUR_protein|mol2

> <Gold.PLP.Fitness>
39.7197

> <Gold.PLP.PLP>
-29.8437

> <Gold.PLP.part.hbond>
-2.0000

> <Gold.PLP.part.metal>
0.0000

> <Gold.PLP.part.buried>
-4.8672

> <Gold.PLP.part.nonpolar>
-23.4185

> <Gold.PLP.part.repulsive>
0.2435

> <Gold.PLP.ligand.clash>
0.0000

> <Gold.PLP.ligand.torsion>
0.8839

> <Gold.PLP.Chemscore.Hbond>
1.9588

> <Gold.PLP.Chemscore.CHOScore>
1.8205

> <Gold.PLP.Chemscore.Metal>
0.0000

> <Gold.Chemscore.Hbonds>
donor molecule, donor type, donor heavy atom, donor atom, acceptor molecule, acceptor atom, score
      L1  H     5    26       P1  7948  1.00
      P1  H  6896  6909       L1     9  0.86
      L1  C    18    43       P1 10186  1.00
      L1  C    20    45       P1 10747  0.39

> <Gold.PLP.Chemscore.Internal.Correction>
0.3061

> <Gold.Rescore>
     Score         DG    S(hbond)    S(metal)    S(lipo)     H(rot)  DE(clash)    DE(int)     intcor
     14.57     -15.43       1.95        0.00      69.77       1.84       0.00       0.86       ----

> <Gold.Chemscore.Fitness>
14.5666

> <Gold.Chemscore.DG>
-15.4262

> <Gold.Chemscore.ZeroCoef>
-5.4800

> <Gold.Chemscore.Hbond>
1.9478

> <Gold.Chemscore.Metal>
0.0000

> <Gold.Chemscore.Lipo>
69.7728

> <Gold.Chemscore.Internal_Hbond>
0.0000

> <Gold.Chemscore.DEClash>
0.0015

> <Gold.Chemscore.DEInternal>
0.8581

> <Gold.Chemscore.Rot>
1.8449

> <Gold.Chemscore.Internal.Correction>
   9.000000E+99

> <Gold.Chemscore.Hbonds>
donor molecule, donor type, donor heavy atom, donor atom, acceptor molecule, acceptor atom, score
      L1  H     5    26       P1  7948  1.00
      P1  H  6896  6909       L1     9  0.79

> <Gold.Chemscore.Hbond.Weighted>
-6.5057

> <Gold.Chemscore.Metal.Weighted>
-0.0000

> <Gold.Chemscore.Lipo.Weighted>
-8.1634

> <Gold.Chemscore.Internal_Hbond.Weighted>
0.0000

> <Gold.Chemscore.DEClash.Weighted>
0.0015

> <Gold.Chemscore.DEInternal.Weighted>
0.8581

> <Gold.Chemscore.Rot.Weighted>
4.7229

> <Gold.Chemscore.Internal.Correction.Weighted>
   9.000000E+99

> <Gold.Protein.RotatedTorsions>
[ 6907 6896 6895 6894 ] final    6.06 input  -60.11 | X-H torsion
[ 7974 7965 7964 7962 ] final   56.10 input  175.53 | X-H torsion
[ 8008 7997 7996 7995 ] final  -80.86 input   59.86 | X-H torsion
[ 10167 10162 10161 10158 ] final   13.50 input  -65.29 | X-H torsion
[ 10718 10713 10712 10709 ] final -138.62 input   66.30 | X-H torsion
[ 10763 10752 10751 10750 ] final   53.86 input  -60.55 | X-H torsion
[ 11005 11000 10999 10996 ] final  172.22 input  -57.11 | X-H torsion

> <Gold.Protein.ActiveResidues>
 VAL166  LYS551  ARG553  GLY616  TRP617  ASP618  TYR619  PRO620  LYS621  CYS622 
 ASP623  PHE694  ASN695  SER759  ASP760  ASP761  ALA762  ILE779  LEU786  VAL792 
 PHE793  MET794  SER795  GLU796  ALA797  LYS798  CYS799  TRP800  GLU811  SER814 

> <Gold.Protein.RotatedAtoms>
  151.6675  135.0981  160.0191 H   0  0  0  0  0  0  0  0  0  0  0  0  # atno 6907 bound_to 6896
  152.3911  133.6676  159.6246 H   0  0  0  0  0  0  0  0  0  0  0  0  # atno 6908 bound_to 6896
  150.7826  133.8870  159.3343 H   0  0  0  0  0  0  0  0  0  0  0  0  # atno 6909 bound_to 6896
  145.9433  139.3908  143.0350 H   0  0  0  0  0  0  0  0  0  0  0  0  # atno 7974 bound_to 7965
  154.5925  140.0656  156.9258 H   0  0  0  0  0  0  0  0  0  0  0  0  # atno 8008 bound_to 7997
  155.2271  140.3334  155.4290 H   0  0  0  0  0  0  0  0  0  0  0  0  # atno 8009 bound_to 7997
  156.2265  140.1821  156.7334 H   0  0  0  0  0  0  0  0  0  0  0  0  # atno 8010 bound_to 7997
  140.5998  143.8627  150.6954 H   0  0  0  0  0  0  0  0  0  0  0  0  # atno 10167 bound_to 10162
  156.3014  130.7431  151.1483 H   0  0  0  0  0  0  0  0  0  0  0  0  # atno 10718 bound_to 10713
  152.9799  135.5764  154.4810 H   0  0  0  0  0  0  0  0  0  0  0  0  # atno 10763 bound_to 10752
  154.4359  135.2774  155.1883 H   0  0  0  0  0  0  0  0  0  0  0  0  # atno 10764 bound_to 10752
  154.3572  135.6196  153.5726 H   0  0  0  0  0  0  0  0  0  0  0  0  # atno 10765 bound_to 10752
  140.3274  134.7386  157.4109 H   0  0  0  0  0  0  0  0  0  0  0  0  # atno 11005 bound_to 11000
  145.8270  140.9650  143.0869 LP  0  0  0  0  0  0  0  0  0  0  0  0  # atno 17320 bound_to 7965
  144.6783  140.0113  143.7484 LP  0  0  0  0  0  0  0  0  0  0  0  0  # atno 17321 bound_to 7965
  140.2170  143.3839  152.1673 LP  0  0  0  0  0  0  0  0  0  0  0  0  # atno 17342 bound_to 10162
  139.5283  144.7129  151.5147 LP  0  0  0  0  0  0  0  0  0  0  0  0  # atno 17343 bound_to 10162
  157.7369  131.0558  150.5388 LP  0  0  0  0  0  0  0  0  0  0  0  0  # atno 17370 bound_to 10713
  156.5516  130.4233  149.6105 LP  0  0  0  0  0  0  0  0  0  0  0  0  # atno 17371 bound_to 10713
  140.0890  134.5627  155.8463 LP  0  0  0  0  0  0  0  0  0  0  0  0  # atno 17394 bound_to 11000
  141.2072  133.6662  156.6289 LP  0  0  0  0  0  0  0  0  0  0  0  0  # atno 17395 bound_to 11000

$$$$
