AV-unprocessed.smi:861|AV-procd|sdf|3968|dock2
  -GOLD-   22720 1443D 1   1.00000     0.00000
 Structure written by MMmdl.
 44 45  0  0  0  0  0  0  0  0  2 V2000
  145.9743  132.8007  150.5043 C   0  0  0  0  0  0  0  0  0  0  0  0
  144.5677  133.3610  150.7739 C   0  0  0  0  0  0  0  0  0  0  0  0
  143.5230  132.6081  149.9359 C   0  0  0  0  0  0  0  0  0  0  0  0
  144.4789  134.8790  150.5163 C   0  0  0  0  0  0  0  0  0  0  0  0
  145.5285  135.7069  151.2844 C   0  0  0  0  0  0  0  0  0  0  0  0
  145.1035  137.1166  151.4970 N   0  3  1  0  0  0  0  0  0  0  0  0
  144.0239  137.2623  152.5033 C   0  0  0  0  0  0  0  0  0  0  0  0
  144.5810  137.1633  153.9349 C   0  0  0  0  0  0  0  0  0  0  0  0
  145.5991  138.1401  154.1160 O   0  0  0  0  0  0  0  0  0  0  0  0
  146.7069  137.9489  153.2421 C   0  0  2  0  0  0  0  0  0  0  0  0
  147.7665  139.0028  153.6109 C   0  0  0  0  0  0  0  0  0  0  0  0
  149.1296  138.4909  153.5141 N   0  0  0  0  0  0  0  0  0  0  0  0
  150.1563  138.9227  154.3665 C   0  0  0  0  0  0  0  0  0  0  0  0
  151.2271  138.0473  154.6348 C   0  0  0  0  0  0  0  0  0  0  0  0
  152.2493  138.5059  155.4837 C   0  0  0  0  0  0  0  0  0  0  0  0
  152.1232  139.8083  156.0001 C   0  0  0  0  0  0  0  0  0  0  0  0
  151.0718  140.6071  155.7102 N   0  0  0  0  0  0  0  0  0  0  0  0
  150.0986  140.1668  154.9049 N   0  0  0  0  0  0  0  0  0  0  0  0
  146.2069  138.0686  151.7836 C   0  0  0  0  0  0  0  0  0  0  0  0
  146.2896  132.9956  149.4788 H   0  0  0  0  0  0  0  0  0  0  0  0
  146.0008  131.7217  150.6592 H   0  0  0  0  0  0  0  0  0  0  0  0
  146.7176  133.2362  151.1716 H   0  0  0  0  0  0  0  0  0  0  0  0
  144.3309  133.1792  151.8231 H   0  0  0  0  0  0  0  0  0  0  0  0
  143.6966  132.7469  148.8681 H   0  0  0  0  0  0  0  0  0  0  0  0
  142.5135  132.9560  150.1564 H   0  0  0  0  0  0  0  0  0  0  0  0
  143.5512  131.5372  150.1400 H   0  0  0  0  0  0  0  0  0  0  0  0
  144.5606  135.0559  149.4441 H   0  0  0  0  0  0  0  0  0  0  0  0
  143.4863  135.2268  150.8064 H   0  0  0  0  0  0  0  0  0  0  0  0
  145.6765  135.2399  152.2589 H   0  0  0  0  0  0  0  0  0  0  0  0
  146.4934  135.6757  150.7800 H   0  0  0  0  0  0  0  0  0  0  0  0
  143.5573  138.2385  152.3668 H   0  0  0  0  0  0  0  0  0  0  0  0
  143.2390  136.5229  152.3393 H   0  0  0  0  0  0  0  0  0  0  0  0
  143.7863  137.3485  154.6575 H   0  0  0  0  0  0  0  0  0  0  0  0
  144.9707  136.1658  154.1430 H   0  0  0  0  0  0  0  0  0  0  0  0
  147.1270  136.9586  153.4250 H   0  0  0  0  0  0  0  0  0  0  0  0
  147.6323  139.9122  153.0247 H   0  0  0  0  0  0  0  0  0  0  0  0
  147.6205  139.2980  154.6502 H   0  0  0  0  0  0  0  0  0  0  0  0
  149.3393  137.8167  152.7921 H   0  0  0  0  0  0  0  0  0  0  0  0
  151.2673  137.0569  154.2053 H   0  0  0  0  0  0  0  0  0  0  0  0
  153.0972  137.8840  155.7292 H   0  0  0  0  0  0  0  0  0  0  0  0
  152.8774  140.2170  156.6561 H   0  0  0  0  0  0  0  0  0  0  0  0
  147.0236  137.9330  151.0779 H   0  0  0  0  0  0  0  0  0  0  0  0
  145.8311  139.0788  151.6149 H   0  0  0  0  0  0  0  0  0  0  0  0
  144.7001  137.4040  150.6165 H   0  0  0  0  0  0  0  0  0  0  0  0
  1  2  1  0  0  0  0
  1 20  1  0  0  0  0
  1 21  1  0  0  0  0
  1 22  1  0  0  0  0
  2  3  1  0  0  0  0
  2  4  1  0  0  0  0
  2 23  1  0  0  0  0
  3 24  1  0  0  0  0
  3 25  1  0  0  0  0
  3 26  1  0  0  0  0
  4  5  1  0  0  0  0
  4 27  1  0  0  0  0
  4 28  1  0  0  0  0
  5  6  1  0  0  0  0
  5 29  1  0  0  0  0
  5 30  1  0  0  0  0
  6 19  1  0  0  0  0
  6  7  1  0  0  0  0
  6 44  1  0  0  0  0
  7  8  1  0  0  0  0
  7 31  1  0  0  0  0
  7 32  1  0  0  0  0
  8  9  1  0  0  0  0
  8 33  1  0  0  0  0
  8 34  1  0  0  0  0
  9 10  1  0  0  0  0
 10 11  1  0  0  0  0
 10 19  1  0  0  0  0
 10 35  1  0  0  0  0
 11 12  1  0  0  0  0
 11 36  1  0  0  0  0
 11 37  1  0  0  0  0
 12 13  1  0  0  0  0
 12 38  1  0  0  0  0
 13 18  1  0  0  0  0
 13 14  2  0  0  0  0
 14 15  1  0  0  0  0
 14 39  1  0  0  0  0
 15 16  2  0  0  0  0
 15 40  1  0  0  0  0
 16 17  1  0  0  0  0
 16 41  1  0  0  0  0
 17 18  2  0  0  0  0
 19 42  1  0  0  0  0
 19 43  1  0  0  0  0
M  CHG  1   6   1
M  END
> <s_m_source_file>
AV-unprocessed.smi

> <i_m_source_file_index>
861

> <i_lp_mmshare_version>
43012

> <i_f3d_flags>
0

> <s_epik_input>
W0NIM11bQ0hdKFtDSDNdKVtDSDJdW0NIMl1OMVtDSDJdW0NIMl1PW0NASF0oW0NIMl0xKVtDSDJdW05IXWMyW2NIXVtjSF1bY0hdbm4y

> <s_epik_cmdline>
J2VwaWtfcHl0aG9uJywgJy1waCcsICc3LjAnLCAnLXRuJywgJzgnLCAnLW1hJywgJzIwMCcsICctbWV0YWxfYmluZGluZycsICctaW1hZScsICc8aW5maWxlLm1hZT4nLCAnLW9tYWUnLCAnPG91dGZpbGUubWFlPic=

> <r_lp_tautomer_probability>
0.999978

> <r_epik_Ionization_Penalty>
0.114704

> <r_epik_Ionization_Penalty_Charging>
0.0953451

> <r_epik_Ionization_Penalty_Neutral>
0.0193593

> <r_epik_State_Penalty>
0.104983

> <r_epik_Charging_Adjusted_Penalty>
0.200328

> <i_epik_Tot_Q>
1

> <i_epik_Tot_abs_Q>
1

> <r_epik_Metal_State_Penalty>
0.100113

> <b_epik_Metal_Only>
0

> <s_lp_Force_Field>
OPLS_2005

> <r_lp_Energy>
26.2812

> <b_lp_Chiralities_Consistent>
1

> <s_lp_Variant>
AV-unprocessed.smi:861-3

> <Gold.Version>
5.8.1

> <Gold.Id.Protein>
6NUR|6NUR_protein|mol2

> <Gold.PLP.Fitness>
42.3404

> <Gold.PLP.PLP>
-38.6383

> <Gold.PLP.part.hbond>
-4.9894

> <Gold.PLP.part.metal>
0.0000

> <Gold.PLP.part.buried>
-1.4350

> <Gold.PLP.part.nonpolar>
-32.8739

> <Gold.PLP.part.repulsive>
0.3523

> <Gold.PLP.ligand.clash>
0.0000

> <Gold.PLP.ligand.torsion>
1.1417

> <Gold.PLP.Chemscore.Hbond>
1.9440

> <Gold.PLP.Chemscore.CHOScore>
0.0000

> <Gold.PLP.Chemscore.Metal>
0.0000

> <Gold.Chemscore.Hbonds>
donor molecule, donor type, donor heavy atom, donor atom, acceptor molecule, acceptor atom, score
      L1  H     6    44       P1 10171  0.93
      L1  H    12    38       P1  7948  1.00

> <Gold.PLP.Chemscore.Internal.Correction>
0.1535

> <Gold.Rescore>
     Score         DG    S(hbond)    S(metal)    S(lipo)     H(rot)  DE(clash)    DE(int)     intcor
     16.26     -17.63       1.82        0.00      89.41       1.71       0.23       1.14       ----

> <Gold.Chemscore.Fitness>
16.2577

> <Gold.Chemscore.DG>
-17.6266

> <Gold.Chemscore.ZeroCoef>
-5.4800

> <Gold.Chemscore.Hbond>
1.8174

> <Gold.Chemscore.Metal>
0.0000

> <Gold.Chemscore.Lipo>
89.4098

> <Gold.Chemscore.Internal_Hbond>
0.0000

> <Gold.Chemscore.DEClash>
0.2301

> <Gold.Chemscore.DEInternal>
1.1389

> <Gold.Chemscore.Rot>
1.7127

> <Gold.Chemscore.Internal.Correction>
   9.000000E+99

> <Gold.Chemscore.Hbonds>
donor molecule, donor type, donor heavy atom, donor atom, acceptor molecule, acceptor atom, score
      L1  H     6    44       P1 10171  0.91
      L1  H    12    38       P1  7948  0.90

> <Gold.Chemscore.Hbond.Weighted>
-6.0701

> <Gold.Chemscore.Metal.Weighted>
-0.0000

> <Gold.Chemscore.Lipo.Weighted>
-10.4610

> <Gold.Chemscore.Internal_Hbond.Weighted>
0.0000

> <Gold.Chemscore.DEClash.Weighted>
0.2301

> <Gold.Chemscore.DEInternal.Weighted>
1.1389

> <Gold.Chemscore.Rot.Weighted>
4.3844

> <Gold.Chemscore.Internal.Correction.Weighted>
   9.000000E+99

> <Gold.Protein.RotatedTorsions>
[ 6907 6896 6895 6894 ] final  -47.74 input  -60.11 | X-H torsion
[ 7974 7965 7964 7962 ] final -124.74 input  175.53 | X-H torsion
[ 8008 7997 7996 7995 ] final  -73.61 input   59.86 | X-H torsion
[ 10167 10162 10161 10158 ] final  103.97 input  -65.29 | X-H torsion
[ 10718 10713 10712 10709 ] final  -53.45 input   66.30 | X-H torsion
[ 10763 10752 10751 10750 ] final   88.05 input  -60.55 | X-H torsion
[ 11005 11000 10999 10996 ] final    3.12 input  -57.11 | X-H torsion

> <Gold.Protein.ActiveResidues>
 VAL166  LYS551  ARG553  GLY616  TRP617  ASP618  TYR619  PRO620  LYS621  CYS622 
 ASP623  PHE694  ASN695  SER759  ASP760  ASP761  ALA762  ILE779  LEU786  VAL792 
 PHE793  MET794  SER795  GLU796  ALA797  LYS798  CYS799  TRP800  GLU811  SER814 

> <Gold.Protein.RotatedAtoms>
  150.8977  134.8387  159.7337 H   0  0  0  0  0  0  0  0  0  0  0  0  # atno 6907 bound_to 6896
  152.4874  134.4550  159.9596 H   0  0  0  0  0  0  0  0  0  0  0  0  # atno 6908 bound_to 6896
  151.4605  133.3555  159.2844 H   0  0  0  0  0  0  0  0  0  0  0  0  # atno 6909 bound_to 6896
  145.0049  140.7854  143.4474 H   0  0  0  0  0  0  0  0  0  0  0  0  # atno 7974 bound_to 7965
  154.5261  140.0776  156.8261 H   0  0  0  0  0  0  0  0  0  0  0  0  # atno 8008 bound_to 7997
  155.3472  140.3410  155.4221 H   0  0  0  0  0  0  0  0  0  0  0  0  # atno 8009 bound_to 7997
  156.1733  140.1627  156.8395 H   0  0  0  0  0  0  0  0  0  0  0  0  # atno 8010 bound_to 7997
  139.7217  144.7056  151.0862 H   0  0  0  0  0  0  0  0  0  0  0  0  # atno 10167 bound_to 10162
  156.1534  130.4151  149.9908 H   0  0  0  0  0  0  0  0  0  0  0  0  # atno 10718 bound_to 10713
  153.1729  135.4521  154.9926 H   0  0  0  0  0  0  0  0  0  0  0  0  # atno 10763 bound_to 10752
  154.7978  135.3244  154.7626 H   0  0  0  0  0  0  0  0  0  0  0  0  # atno 10764 bound_to 10752
  153.8100  135.6955  153.4897 H   0  0  0  0  0  0  0  0  0  0  0  0  # atno 10765 bound_to 10752
  140.5966  133.9874  155.8113 H   0  0  0  0  0  0  0  0  0  0  0  0  # atno 11005 bound_to 11000
  145.2102  139.2208  143.5147 LP  0  0  0  0  0  0  0  0  0  0  0  0  # atno 17320 bound_to 7965
  146.3459  140.1939  142.8589 LP  0  0  0  0  0  0  0  0  0  0  0  0  # atno 17321 bound_to 7965
  140.7755  143.5157  150.9597 LP  0  0  0  0  0  0  0  0  0  0  0  0  # atno 17342 bound_to 10162
  139.8844  143.7031  152.3153 LP  0  0  0  0  0  0  0  0  0  0  0  0  # atno 17343 bound_to 10162
  156.7759  130.9203  151.3645 LP  0  0  0  0  0  0  0  0  0  0  0  0  # atno 17370 bound_to 10713
  157.6675  130.9021  149.9965 LP  0  0  0  0  0  0  0  0  0  0  0  0  # atno 17371 bound_to 10713
  141.0900  133.9932  157.3253 LP  0  0  0  0  0  0  0  0  0  0  0  0  # atno 17394 bound_to 11000
  139.9250  135.0201  156.8203 LP  0  0  0  0  0  0  0  0  0  0  0  0  # atno 17395 bound_to 11000

$$$$
