AV-unprocessed.smi:1703|AV-procd|sdf|6858|dock3
  -GOLD-   22720 8 43D 1   1.00000     0.00000
 Structure written by MMmdl.
 48 50  0  0  0  0  0  0  0  0  1 V2000
  143.7405  144.5759  154.3942 C   0  0  0  0  0  0  0  0  0  0  0  0
  144.3847  143.4167  155.1616 C   0  0  1  0  0  0  0  0  0  0  0  0
  145.8216  143.1351  154.6866 C   0  0  0  0  0  0  0  0  0  0  0  0
  146.4622  142.0876  155.4721 N   0  0  0  0  0  0  0  0  0  0  0  0
  147.8097  141.8134  154.9712 C   0  0  0  0  0  0  0  0  0  0  0  0
  148.8330  141.3550  156.0338 C   0  0  1  0  0  0  0  0  0  0  0  0
  148.6529  139.9719  156.2580 O   0  0  0  0  0  0  0  0  0  0  0  0
  150.3009  141.5665  155.6097 C   0  0  0  0  0  0  0  0  0  0  0  0
  151.2509  141.3025  156.6825 N   0  0  0  0  0  0  0  0  0  0  0  0
  152.0012  140.1894  156.8823 C   0  0  0  0  0  0  0  0  0  0  0  0
  151.9535  139.0138  155.9549 C   0  0  0  0  0  0  0  0  0  0  0  0
  152.2311  139.3652  154.6163 O   0  0  0  0  0  0  0  0  0  0  0  0
  152.7960  140.2093  157.9529 N   0  0  0  0  0  0  0  0  0  0  0  0
  152.5458  141.4551  158.4942 C   0  0  0  0  0  0  0  0  0  0  0  0
  153.0814  142.0818  159.6420 C   0  0  0  0  0  0  0  0  0  0  0  0
  152.6684  143.3805  160.0050 C   0  0  0  0  0  0  0  0  0  0  0  0
  151.7159  144.0700  159.2271 C   0  0  0  0  0  0  0  0  0  0  0  0
  151.1704  143.4642  158.0788 C   0  0  0  0  0  0  0  0  0  0  0  0
  151.5853  142.1670  157.7211 C   0  0  0  0  0  0  0  0  0  0  0  0
  146.4547  142.4834  156.8797 C   0  0  0  0  0  0  0  0  0  0  0  0
  145.0397  142.8077  157.4000 C   0  0  2  0  0  0  0  0  0  0  0  0
  144.1683  141.5578  157.6118 C   0  0  0  0  0  0  0  0  0  0  0  0
  144.4024  143.7590  156.5462 O   0  0  0  0  0  0  0  0  0  0  0  0
  143.6931  144.3618  153.3262 H   0  0  0  0  0  0  0  0  0  0  0  0
  144.3057  145.4988  154.5268 H   0  0  0  0  0  0  0  0  0  0  0  0
  142.7230  144.7552  154.7425 H   0  0  0  0  0  0  0  0  0  0  0  0
  143.7717  142.5267  155.0164 H   0  0  0  0  0  0  0  0  0  0  0  0
  145.7985  142.8449  153.6353 H   0  0  0  0  0  0  0  0  0  0  0  0
  146.4121  144.0513  154.7433 H   0  0  0  0  0  0  0  0  0  0  0  0
  147.7585  141.0410  154.2020 H   0  0  0  0  0  0  0  0  0  0  0  0
  148.1782  142.7071  154.4671 H   0  0  0  0  0  0  0  0  0  0  0  0
  148.6664  141.8733  156.9760 H   0  0  0  0  0  0  0  0  0  0  0  0
  149.4330  139.5211  155.9717 H   0  0  0  0  0  0  0  0  0  0  0  0
  150.5458  140.9287  154.7598 H   0  0  0  0  0  0  0  0  0  0  0  0
  150.4482  142.5911  155.2655 H   0  0  0  0  0  0  0  0  0  0  0  0
  152.6836  138.2708  156.2779 H   0  0  0  0  0  0  0  0  0  0  0  0
  150.9770  138.5344  156.0087 H   0  0  0  0  0  0  0  0  0  0  0  0
  152.5286  138.5937  154.1592 H   0  0  0  0  0  0  0  0  0  0  0  0
  153.8120  141.5621  160.2441 H   0  0  0  0  0  0  0  0  0  0  0  0
  153.0846  143.8499  160.8842 H   0  0  0  0  0  0  0  0  0  0  0  0
  151.4043  145.0641  159.5122 H   0  0  0  0  0  0  0  0  0  0  0  0
  150.4394  143.9897  157.4825 H   0  0  0  0  0  0  0  0  0  0  0  0
  146.8844  141.7015  157.5040 H   0  0  0  0  0  0  0  0  0  0  0  0
  147.0872  143.3629  157.0105 H   0  0  0  0  0  0  0  0  0  0  0  0
  145.1435  143.2908  158.3719 H   0  0  0  0  0  0  0  0  0  0  0  0
  144.6111  140.9000  158.3601 H   0  0  0  0  0  0  0  0  0  0  0  0
  144.0536  140.9775  156.6964 H   0  0  0  0  0  0  0  0  0  0  0  0
  143.1728  141.8321  157.9613 H   0  0  0  0  0  0  0  0  0  0  0  0
  1  2  1  0  0  0  0
  1 24  1  0  0  0  0
  1 25  1  0  0  0  0
  1 26  1  0  0  0  0
  2 23  1  0  0  0  0
  2  3  1  0  0  0  0
  2 27  1  0  0  0  0
  3  4  1  0  0  0  0
  3 28  1  0  0  0  0
  3 29  1  0  0  0  0
  4  5  1  0  0  0  0
  4 20  1  0  0  0  0
  5  6  1  0  0  0  0
  5 30  1  0  0  0  0
  5 31  1  0  0  0  0
  6  7  1  0  0  0  0
  6  8  1  0  0  0  0
  6 32  1  0  0  0  0
  7 33  1  0  0  0  0
  8  9  1  0  0  0  0
  8 34  1  0  0  0  0
  8 35  1  0  0  0  0
  9 19  1  0  0  0  0
  9 10  1  0  0  0  0
 10 11  1  0  0  0  0
 10 13  2  0  0  0  0
 11 12  1  0  0  0  0
 11 36  1  0  0  0  0
 11 37  1  0  0  0  0
 12 38  1  0  0  0  0
 13 14  1  0  0  0  0
 14 19  2  0  0  0  0
 14 15  1  0  0  0  0
 15 16  2  0  0  0  0
 15 39  1  0  0  0  0
 16 17  1  0  0  0  0
 16 40  1  0  0  0  0
 17 18  2  0  0  0  0
 17 41  1  0  0  0  0
 18 19  1  0  0  0  0
 18 42  1  0  0  0  0
 20 21  1  0  0  0  0
 20 43  1  0  0  0  0
 20 44  1  0  0  0  0
 21 22  1  0  0  0  0
 21 23  1  0  0  0  0
 21 45  1  0  0  0  0
 22 46  1  0  0  0  0
 22 47  1  0  0  0  0
 22 48  1  0  0  0  0
M  END
> <s_m_source_file>
AV-unprocessed.smi

> <i_m_source_file_index>
1703

> <i_lp_mmshare_version>
43012

> <i_f3d_flags>
0

> <s_epik_input>
W0NIM11bQ0BASF0xW0NIMl1OKFtDSDJdW0NASF0oTzEpW0NIM10pW0NIMl1bQ0BIXShbT0hdKVtDSDJdbihjKG4yKVtDSDJdW09IXSljKGMyMylbY0hdW2NIXVtjSF1bY0hdMw==

> <s_epik_cmdline>
J2VwaWtfcHl0aG9uJywgJy1waCcsICc3LjAnLCAnLXRuJywgJzgnLCAnLW1hJywgJzIwMCcsICctbWV0YWxfYmluZGluZycsICctaW1hZScsICc8aW5maWxlLm1hZT4nLCAnLW9tYWUnLCAnPG91dGZpbGUubWFlPic=

> <r_epik_Ionization_Penalty>
0.307685

> <r_epik_Ionization_Penalty_Charging>
0

> <r_epik_Ionization_Penalty_Neutral>
0.307685

> <r_epik_State_Penalty>
0.277856

> <r_epik_Charging_Adjusted_Penalty>
0.277856

> <i_epik_Tot_Q>
0

> <i_epik_Tot_abs_Q>
0

> <r_epik_Metal_State_Penalty>
0.238959

> <b_epik_Metal_Only>
0

> <s_lp_Force_Field>
OPLS_2005

> <r_lp_Energy>
33.4596

> <b_lp_Chiralities_Consistent>
1

> <s_lp_Variant>
AV-unprocessed.smi:1703-6

> <Gold.Version>
5.8.1

> <Gold.Id.Protein>
6NUR|6NUR_protein|mol2

> <Gold.PLP.Fitness>
43.8773

> <Gold.PLP.PLP>
-40.3679

> <Gold.PLP.part.hbond>
-2.0000

> <Gold.PLP.part.metal>
0.0000

> <Gold.PLP.part.buried>
-4.3268

> <Gold.PLP.part.nonpolar>
-32.4031

> <Gold.PLP.part.repulsive>
0.2186

> <Gold.PLP.ligand.clash>
0.0000

> <Gold.PLP.ligand.torsion>
0.9592

> <Gold.PLP.Chemscore.Hbond>
1.7677

> <Gold.PLP.Chemscore.CHOScore>
0.0000

> <Gold.PLP.Chemscore.Metal>
0.0000

> <Gold.Chemscore.Hbonds>
donor molecule, donor type, donor heavy atom, donor atom, acceptor molecule, acceptor atom, score
      P1  H  7989  7998       L1    12  0.78
      P1  H  7997  8010       L1    13  0.87

> <Gold.PLP.Chemscore.Internal.Correction>
0.1245

> <Gold.Rescore>
     Score         DG    S(hbond)    S(metal)    S(lipo)     H(rot)  DE(clash)    DE(int)     intcor
     13.55     -14.69       1.17        0.00     108.22       2.88       0.21       0.93       ----

> <Gold.Chemscore.Fitness>
13.5521

> <Gold.Chemscore.DG>
-14.6918

> <Gold.Chemscore.ZeroCoef>
-5.4800

> <Gold.Chemscore.Hbond>
1.1727

> <Gold.Chemscore.Metal>
0.0000

> <Gold.Chemscore.Lipo>
108.2236

> <Gold.Chemscore.Internal_Hbond>
0.0000

> <Gold.Chemscore.DEClash>
0.2139

> <Gold.Chemscore.DEInternal>
0.9258

> <Gold.Chemscore.Rot>
2.8778

> <Gold.Chemscore.Internal.Correction>
   9.000000E+99

> <Gold.Chemscore.Hbonds>
donor molecule, donor type, donor heavy atom, donor atom, acceptor molecule, acceptor atom, score
      P1  H  7989  7998       L1    12  0.71
      P1  H  7997  8010       L1    13  0.16

> <Gold.Chemscore.Hbond.Weighted>
-3.9167

> <Gold.Chemscore.Metal.Weighted>
-0.0000

> <Gold.Chemscore.Lipo.Weighted>
-12.6622

> <Gold.Chemscore.Internal_Hbond.Weighted>
0.0000

> <Gold.Chemscore.DEClash.Weighted>
0.2139

> <Gold.Chemscore.DEInternal.Weighted>
0.9258

> <Gold.Chemscore.Rot.Weighted>
7.3671

> <Gold.Chemscore.Internal.Correction.Weighted>
   9.000000E+99

> <Gold.Protein.RotatedTorsions>
[ 6907 6896 6895 6894 ] final  -54.02 input  -60.11 | X-H torsion
[ 7974 7965 7964 7962 ] final -112.00 input  175.53 | X-H torsion
[ 8008 7997 7996 7995 ] final   34.24 input   59.86 | X-H torsion
[ 10167 10162 10161 10158 ] final  -91.49 input  -65.29 | X-H torsion
[ 10718 10713 10712 10709 ] final -169.52 input   66.30 | X-H torsion
[ 10763 10752 10751 10750 ] final   35.50 input  -60.55 | X-H torsion
[ 11005 11000 10999 10996 ] final -107.44 input  -57.11 | X-H torsion

> <Gold.Protein.ActiveResidues>
 VAL166  LYS551  ARG553  GLY616  TRP617  ASP618  TYR619  PRO620  LYS621  CYS622 
 ASP623  PHE694  ASN695  SER759  ASP760  ASP761  ALA762  ILE779  LEU786  VAL792 
 PHE793  MET794  SER795  GLU796  ALA797  LYS798  CYS799  TRP800  GLU811  SER814 

> <Gold.Protein.RotatedAtoms>
  150.8374  134.7653  159.6904 H   0  0  0  0  0  0  0  0  0  0  0  0  # atno 6907 bound_to 6896
  152.4468  134.5474  159.9866 H   0  0  0  0  0  0  0  0  0  0  0  0  # atno 6908 bound_to 6896
  151.5621  133.3364  159.3009 H   0  0  0  0  0  0  0  0  0  0  0  0  # atno 6909 bound_to 6896
  145.1493  140.8820  143.3656 H   0  0  0  0  0  0  0  0  0  0  0  0  # atno 7974 bound_to 7965
  155.1517  140.3275  155.4430 H   0  0  0  0  0  0  0  0  0  0  0  0  # atno 8008 bound_to 7997
  156.2572  140.1976  156.6578 H   0  0  0  0  0  0  0  0  0  0  0  0  # atno 8009 bound_to 7997
  154.6468  140.0563  156.9896 H   0  0  0  0  0  0  0  0  0  0  0  0  # atno 8010 bound_to 7997
  140.3444  143.2925  151.9798 H   0  0  0  0  0  0  0  0  0  0  0  0  # atno 10167 bound_to 10162
  156.7128  130.9240  151.3091 H   0  0  0  0  0  0  0  0  0  0  0  0  # atno 10718 bound_to 10713
  153.0116  135.6331  154.1837 H   0  0  0  0  0  0  0  0  0  0  0  0  # atno 10763 bound_to 10752
  154.1579  135.2825  155.3119 H   0  0  0  0  0  0  0  0  0  0  0  0  # atno 10764 bound_to 10752
  154.6004  135.5589  153.7429 H   0  0  0  0  0  0  0  0  0  0  0  0  # atno 10765 bound_to 10752
  141.0954  133.8981  157.1976 H   0  0  0  0  0  0  0  0  0  0  0  0  # atno 11005 bound_to 11000
  145.0448  139.3230  143.5958 LP  0  0  0  0  0  0  0  0  0  0  0  0  # atno 17320 bound_to 7965
  146.3496  139.9834  142.8693 LP  0  0  0  0  0  0  0  0  0  0  0  0  # atno 17321 bound_to 7965
  139.4835  144.6130  151.7399 LP  0  0  0  0  0  0  0  0  0  0  0  0  # atno 17342 bound_to 10162
  140.5279  144.0777  150.6043 LP  0  0  0  0  0  0  0  0  0  0  0  0  # atno 17343 bound_to 10162
  157.6929  130.9252  150.0564 LP  0  0  0  0  0  0  0  0  0  0  0  0  # atno 17370 bound_to 10713
  156.1649  130.3645  149.9246 LP  0  0  0  0  0  0  0  0  0  0  0  0  # atno 17371 bound_to 10713
  139.9789  135.0105  156.9701 LP  0  0  0  0  0  0  0  0  0  0  0  0  # atno 17394 bound_to 11000
  140.5153  134.0961  155.7279 LP  0  0  0  0  0  0  0  0  0  0  0  0  # atno 17395 bound_to 11000

$$$$
