AV-unprocessed.smi:1191|AV-procd|sdf|4984|dock6
  -GOLD-   22720 3583D 1   1.00000     0.00000
 Structure written by MMmdl.
 47 48  0  0  0  0  0  0  0  0  2 V2000
  147.7371  137.2841  163.7432 C   0  0  0  0  0  0  0  0  0  0  0  0
  147.6980  136.2203  162.6859 C   0  0  0  0  0  0  0  0  0  0  0  0
  147.4416  134.8296  162.8428 C   0  0  0  0  0  0  0  0  0  0  0  0
  147.5248  134.3259  161.5753 C   0  0  0  0  0  0  0  0  0  0  0  0
  147.3546  132.9256  161.0847 C   0  0  0  0  0  0  0  0  0  0  0  0
  147.8168  135.3894  160.7388 N   0  0  0  0  0  0  0  0  0  0  0  0
  148.0141  135.3994  159.2972 C   0  0  0  0  0  0  0  0  0  0  0  0
  146.7777  134.8745  158.5643 C   0  0  0  0  0  0  0  0  0  0  0  0
  145.8378  134.3956  159.1990 O   0  0  0  0  0  0  0  0  0  0  0  0
  146.7814  134.9829  157.2269 N   0  0  0  0  0  0  0  0  0  0  0  0
  145.6845  134.5768  156.3572 C   0  0  0  0  0  0  0  0  0  0  0  0
  146.1365  133.4982  155.3534 C   0  0  0  0  0  0  0  0  0  0  0  0
  145.1990  133.3550  154.2110 N   0  3  1  0  0  0  0  0  0  0  0  0
  144.6236  134.6599  153.7940 C   0  0  0  0  0  0  0  0  0  0  0  0
  143.5500  134.4720  152.7107 C   0  0  0  0  0  0  0  0  0  0  0  0
  144.1162  133.7161  151.5022 C   0  0  0  0  0  0  0  0  0  0  0  0
  144.7344  132.3814  151.9509 C   0  0  1  0  0  0  0  0  0  0  0  0
  145.3325  131.6133  150.7636 C   0  0  0  0  0  0  0  0  0  0  0  0
  145.7837  132.6225  153.0550 C   0  0  0  0  0  0  0  0  0  0  0  0
  147.9208  136.5485  161.4243 N   0  0  0  0  0  0  0  0  0  0  0  0
  147.6356  136.8538  164.7396 H   0  0  0  0  0  0  0  0  0  0  0  0
  146.9272  138.0013  163.6072 H   0  0  0  0  0  0  0  0  0  0  0  0
  148.6789  137.8330  163.7141 H   0  0  0  0  0  0  0  0  0  0  0  0
  147.2283  134.2845  163.7502 H   0  0  0  0  0  0  0  0  0  0  0  0
  147.0237  132.2698  161.8900 H   0  0  0  0  0  0  0  0  0  0  0  0
  148.2952  132.5327  160.6983 H   0  0  0  0  0  0  0  0  0  0  0  0
  146.6118  132.8778  160.2885 H   0  0  0  0  0  0  0  0  0  0  0  0
  148.2546  136.4154  158.9814 H   0  0  0  0  0  0  0  0  0  0  0  0
  148.8740  134.7779  159.0427 H   0  0  0  0  0  0  0  0  0  0  0  0
  147.5963  135.3828  156.7838 H   0  0  0  0  0  0  0  0  0  0  0  0
  144.8874  134.2040  156.9989 H   0  0  0  0  0  0  0  0  0  0  0  0
  145.2815  135.4447  155.8321 H   0  0  0  0  0  0  0  0  0  0  0  0
  147.1183  133.7790  154.9691 H   0  0  0  0  0  0  0  0  0  0  0  0
  146.2665  132.5356  155.8505 H   0  0  0  0  0  0  0  0  0  0  0  0
  144.1766  135.1597  154.6544 H   0  0  0  0  0  0  0  0  0  0  0  0
  145.4199  135.3099  153.4279 H   0  0  0  0  0  0  0  0  0  0  0  0
  142.7031  133.9227  153.1240 H   0  0  0  0  0  0  0  0  0  0  0  0
  143.1651  135.4423  152.3955 H   0  0  0  0  0  0  0  0  0  0  0  0
  143.3261  133.5415  150.7708 H   0  0  0  0  0  0  0  0  0  0  0  0
  144.8703  134.3292  151.0066 H   0  0  0  0  0  0  0  0  0  0  0  0
  143.9382  131.7650  152.3717 H   0  0  0  0  0  0  0  0  0  0  0  0
  146.1402  132.1749  150.2931 H   0  0  0  0  0  0  0  0  0  0  0  0
  144.5767  131.4173  150.0026 H   0  0  0  0  0  0  0  0  0  0  0  0
  145.7360  130.6512  151.0805 H   0  0  0  0  0  0  0  0  0  0  0  0
  146.6284  133.1877  152.6571 H   0  0  0  0  0  0  0  0  0  0  0  0
  146.1762  131.6601  153.3809 H   0  0  0  0  0  0  0  0  0  0  0  0
  144.4231  132.8031  154.5483 H   0  0  0  0  0  0  0  0  0  0  0  0
  1  2  1  0  0  0  0
  1 21  1  0  0  0  0
  1 22  1  0  0  0  0
  1 23  1  0  0  0  0
  2 20  2  0  0  0  0
  2  3  1  0  0  0  0
  3  4  2  0  0  0  0
  3 24  1  0  0  0  0
  4  5  1  0  0  0  0
  4  6  1  0  0  0  0
  5 25  1  0  0  0  0
  5 26  1  0  0  0  0
  5 27  1  0  0  0  0
  6  7  1  0  0  0  0
  6 20  1  0  0  0  0
  7  8  1  0  0  0  0
  7 28  1  0  0  0  0
  7 29  1  0  0  0  0
  8  9  2  0  0  0  0
  8 10  1  0  0  0  0
 10 11  1  0  0  0  0
 10 30  1  0  0  0  0
 11 12  1  0  0  0  0
 11 31  1  0  0  0  0
 11 32  1  0  0  0  0
 12 13  1  0  0  0  0
 12 33  1  0  0  0  0
 12 34  1  0  0  0  0
 13 19  1  0  0  0  0
 13 14  1  0  0  0  0
 13 47  1  0  0  0  0
 14 15  1  0  0  0  0
 14 35  1  0  0  0  0
 14 36  1  0  0  0  0
 15 16  1  0  0  0  0
 15 37  1  0  0  0  0
 15 38  1  0  0  0  0
 16 17  1  0  0  0  0
 16 39  1  0  0  0  0
 16 40  1  0  0  0  0
 17 18  1  0  0  0  0
 17 19  1  0  0  0  0
 17 41  1  0  0  0  0
 18 42  1  0  0  0  0
 18 43  1  0  0  0  0
 18 44  1  0  0  0  0
 19 45  1  0  0  0  0
 19 46  1  0  0  0  0
M  CHG  1  13   1
M  END
> <s_m_source_file>
AV-unprocessed.smi

> <i_m_source_file_index>
1191

> <i_lp_mmshare_version>
43012

> <i_f3d_flags>
0

> <s_epik_input>
W0NIM11jMVtjSF1jKFtDSDNdKW4objEpW0NIMl1DKD1PKVtOSF1bQ0gyXVtDSDJdTjJbQ0gyXVtDSDJdW0NIMl1bQ0BASF0oW0NIM10pW0NIMl0y

> <s_epik_cmdline>
J2VwaWtfcHl0aG9uJywgJy1waCcsICc3LjAnLCAnLXRuJywgJzgnLCAnLW1hJywgJzIwMCcsICctbWV0YWxfYmluZGluZycsICctaW1hZScsICc8aW5maWxlLm1hZT4nLCAnLW9tYWUnLCAnPG91dGZpbGUubWFlPic=

> <r_lp_tautomer_probability>
1

> <r_epik_Ionization_Penalty>
0.00249932

> <r_epik_Ionization_Penalty_Charging>
0.00230623

> <r_epik_Ionization_Penalty_Neutral>
0.000193092

> <r_epik_State_Penalty>
-0

> <r_epik_Charging_Adjusted_Penalty>
0.00230623

> <i_epik_Tot_Q>
1

> <i_epik_Tot_abs_Q>
1

> <r_epik_Metal_State_Penalty>
-0

> <b_epik_Metal_Only>
0

> <s_lp_Force_Field>
OPLS_2005

> <r_lp_Energy>
14.3844

> <b_lp_Chiralities_Consistent>
1

> <s_lp_Variant>
AV-unprocessed.smi:1191-1

> <Gold.Version>
5.8.1

> <Gold.Id.Protein>
6NUR|6NUR_protein|mol2

> <Gold.PLP.Fitness>
40.2319

> <Gold.PLP.PLP>
-32.9481

> <Gold.PLP.part.hbond>
-1.9767

> <Gold.PLP.part.metal>
0.0000

> <Gold.PLP.part.buried>
-3.6496

> <Gold.PLP.part.nonpolar>
-28.0720

> <Gold.PLP.part.repulsive>
0.0000

> <Gold.PLP.ligand.clash>
0.0000

> <Gold.PLP.ligand.torsion>
0.3135

> <Gold.PLP.Chemscore.Hbond>
2.6232

> <Gold.PLP.Chemscore.CHOScore>
0.0000

> <Gold.PLP.Chemscore.Metal>
0.0000

> <Gold.Chemscore.Hbonds>
donor molecule, donor type, donor heavy atom, donor atom, acceptor molecule, acceptor atom, score
      L1  H    13    47       P1 10957  1.92
      P1  H  6931  6943       L1    20  0.60

> <Gold.PLP.Chemscore.Internal.Correction>
0.0412

> <Gold.Rescore>
     Score         DG    S(hbond)    S(metal)    S(lipo)     H(rot)  DE(clash)    DE(int)     intcor
     13.73     -16.96       1.87        0.00      81.25       1.67       0.55       2.69       ----

> <Gold.Chemscore.Fitness>
13.7321

> <Gold.Chemscore.DG>
-16.9644

> <Gold.Chemscore.ZeroCoef>
-5.4800

> <Gold.Chemscore.Hbond>
1.8688

> <Gold.Chemscore.Metal>
0.0000

> <Gold.Chemscore.Lipo>
81.2544

> <Gold.Chemscore.Internal_Hbond>
0.0000

> <Gold.Chemscore.DEClash>
0.5460

> <Gold.Chemscore.DEInternal>
2.6864

> <Gold.Chemscore.Rot>
1.6657

> <Gold.Chemscore.Internal.Correction>
   9.000000E+99

> <Gold.Chemscore.Hbonds>
donor molecule, donor type, donor heavy atom, donor atom, acceptor molecule, acceptor atom, score
      L1  H    13    47       P1 10957  0.89
      P1  H  6931  6943       L1    20  0.06

> <Gold.Chemscore.Hbond.Weighted>
-6.2417

> <Gold.Chemscore.Metal.Weighted>
-0.0000

> <Gold.Chemscore.Lipo.Weighted>
-9.5068

> <Gold.Chemscore.Internal_Hbond.Weighted>
0.0000

> <Gold.Chemscore.DEClash.Weighted>
0.5460

> <Gold.Chemscore.DEInternal.Weighted>
2.6864

> <Gold.Chemscore.Rot.Weighted>
4.2641

> <Gold.Chemscore.Internal.Correction.Weighted>
   9.000000E+99

> <Gold.Protein.RotatedTorsions>
[ 6907 6896 6895 6894 ] final  -95.41 input  -60.11 | X-H torsion
[ 7974 7965 7964 7962 ] final   81.80 input  175.53 | X-H torsion
[ 8008 7997 7996 7995 ] final  179.27 input   59.86 | X-H torsion
[ 10167 10162 10161 10158 ] final -158.45 input  -65.29 | X-H torsion
[ 10718 10713 10712 10709 ] final  -19.68 input   66.30 | X-H torsion
[ 10763 10752 10751 10750 ] final  -85.78 input  -60.55 | X-H torsion
[ 11005 11000 10999 10996 ] final  166.21 input  -57.11 | X-H torsion

> <Gold.Protein.ActiveResidues>
 VAL166  LYS551  ARG553  GLY616  TRP617  ASP618  TYR619  PRO620  LYS621  CYS622 
 ASP623  PHE694  ASN695  SER759  ASP760  ASP761  ALA762  ILE779  LEU786  VAL792 
 PHE793  MET794  SER795  GLU796  ALA797  LYS798  CYS799  TRP800  GLU811  SER814 

> <Gold.Protein.RotatedAtoms>
  150.6963  134.1662  159.4194 H   0  0  0  0  0  0  0  0  0  0  0  0  # atno 6907 bound_to 6896
  151.9641  135.0107  160.0558 H   0  0  0  0  0  0  0  0  0  0  0  0  # atno 6908 bound_to 6896
  152.1901  133.4732  159.5040 H   0  0  0  0  0  0  0  0  0  0  0  0  # atno 6909 bound_to 6896
  145.6334  139.2409  143.2072 H   0  0  0  0  0  0  0  0  0  0  0  0  # atno 7974 bound_to 7965
  156.0453  140.1313  157.0110 H   0  0  0  0  0  0  0  0  0  0  0  0  # atno 8008 bound_to 7997
  154.4410  140.1022  156.6368 H   0  0  0  0  0  0  0  0  0  0  0  0  # atno 8009 bound_to 7997
  155.5605  140.3464  155.4492 H   0  0  0  0  0  0  0  0  0  0  0  0  # atno 8010 bound_to 7997
  139.6691  143.9777  152.2273 H   0  0  0  0  0  0  0  0  0  0  0  0  # atno 10167 bound_to 10162
  156.5422  130.4681  149.6493 H   0  0  0  0  0  0  0  0  0  0  0  0  # atno 10718 bound_to 10713
  154.6150  135.5473  153.7513 H   0  0  0  0  0  0  0  0  0  0  0  0  # atno 10763 bound_to 10752
  153.0212  135.6398  154.1524 H   0  0  0  0  0  0  0  0  0  0  0  0  # atno 10764 bound_to 10752
  154.1460  135.2905  155.3128 H   0  0  0  0  0  0  0  0  0  0  0  0  # atno 10765 bound_to 10752
  140.2641  134.7879  157.3616 H   0  0  0  0  0  0  0  0  0  0  0  0  # atno 11005 bound_to 11000
  146.1339  140.7149  142.9399 LP  0  0  0  0  0  0  0  0  0  0  0  0  # atno 17320 bound_to 7965
  144.7185  140.4292  143.7026 LP  0  0  0  0  0  0  0  0  0  0  0  0  # atno 17321 bound_to 7965
  139.9536  144.6604  150.8147 LP  0  0  0  0  0  0  0  0  0  0  0  0  # atno 17342 bound_to 10162
  140.7611  143.3166  151.2718 LP  0  0  0  0  0  0  0  0  0  0  0  0  # atno 17343 bound_to 10162
  156.2961  130.7151  151.2011 LP  0  0  0  0  0  0  0  0  0  0  0  0  # atno 17370 bound_to 10713
  157.7403  131.0518  150.5175 LP  0  0  0  0  0  0  0  0  0  0  0  0  # atno 17371 bound_to 10713
  140.1436  134.4940  155.8013 LP  0  0  0  0  0  0  0  0  0  0  0  0  # atno 17394 bound_to 11000
  141.2186  133.6835  156.7254 LP  0  0  0  0  0  0  0  0  0  0  0  0  # atno 17395 bound_to 11000

$$$$
