AV-unprocessed.smi:72|AV-procd|sdf|674|dock6
  -GOLD-   2262016583D 1   1.00000     0.00000
 Structure written by MMmdl.
 29 30  0  0  0  0  0  0  0  0  1 V2000
  152.6487  136.1169  158.4165 N   0  0  0  0  0  0  0  0  0  0  0  0
  152.1536  137.1905  157.9125 C   0  0  0  0  0  0  0  0  0  0  0  0
  151.0189  137.8619  158.3897 N   0  0  0  0  0  0  0  0  0  0  0  0
  150.6531  138.9600  157.8042 C   0  0  0  0  0  0  0  0  0  0  0  0
  151.4048  139.5459  156.6995 N   0  0  0  0  0  0  0  0  0  0  0  0
  150.9372  140.8141  155.9962 C   0  0  1  0  0  0  0  0  0  0  0  0
  150.6677  140.5354  154.6485 O   0  0  0  0  0  0  0  0  0  0  0  0
  149.2662  140.4875  154.3851 C   0  0  1  0  0  0  0  0  0  0  0  0
  148.7106  139.0622  154.6088 C   0  0  0  0  0  0  0  0  0  0  0  0
  148.9871  138.2570  153.4828 O   0  0  0  0  0  0  0  0  0  0  0  0
  148.7419  141.5500  155.3562 C   0  0  1  0  0  0  0  0  0  0  0  0
  147.3713  141.3934  155.6680 O   0  0  0  0  0  0  0  0  0  0  0  0
  149.6228  141.3803  156.5874 C   0  0  2  0  0  0  0  0  0  0  0  0
  149.8183  142.6406  157.1967 O   0  0  0  0  0  0  0  0  0  0  0  0
  152.4862  138.8159  156.1405 C   0  0  0  0  0  0  0  0  0  0  0  0
  153.0790  139.1791  155.1252 O   0  0  0  0  0  0  0  0  0  0  0  0
  152.8327  137.6854  156.7927 N   0  0  0  0  0  0  0  0  0  0  0  0
  151.7887  141.4931  156.0675 H   0  0  0  0  0  0  0  0  0  0  0  0
  149.0691  140.7942  153.3570 H   0  0  0  0  0  0  0  0  0  0  0  0
  148.8984  142.5340  154.9104 H   0  0  0  0  0  0  0  0  0  0  0  0
  149.1786  140.6671  157.2835 H   0  0  0  0  0  0  0  0  0  0  0  0
  153.4606  135.8210  157.8948 H   0  0  0  0  0  0  0  0  0  0  0  0
  149.7609  139.5067  158.1096 H   0  0  0  0  0  0  0  0  0  0  0  0
  149.0955  138.5996  155.5163 H   0  0  0  0  0  0  0  0  0  0  0  0
  147.6256  139.0867  154.7077 H   0  0  0  0  0  0  0  0  0  0  0  0
  149.2210  138.8200  152.7606 H   0  0  0  0  0  0  0  0  0  0  0  0
  147.1422  140.4837  155.5521 H   0  0  0  0  0  0  0  0  0  0  0  0
  149.4038  143.2982  156.6583 H   0  0  0  0  0  0  0  0  0  0  0  0
  153.6158  137.1612  156.4306 H   0  0  0  0  0  0  0  0  0  0  0  0
  1  2  2  0  0  0  0
  1 22  1  0  0  0  0
  2 17  1  0  0  0  0
  2  3  1  0  0  0  0
  3  4  2  0  0  0  0
  4  5  1  0  0  0  0
  4 23  1  0  0  0  0
  5  6  1  0  0  0  0
  5 15  1  0  0  0  0
  6 18  1  0  0  0  0
  6 13  1  0  0  0  0
  6  7  1  0  0  0  0
  7  8  1  0  0  0  0
  8 19  1  0  0  0  0
  8  9  1  0  0  0  0
  8 11  1  0  0  0  0
  9 10  1  0  0  0  0
  9 24  1  0  0  0  0
  9 25  1  0  0  0  0
 10 26  1  0  0  0  0
 11 20  1  0  0  0  0
 11 12  1  0  0  0  0
 11 13  1  0  0  0  0
 12 27  1  0  0  0  0
 13 21  1  0  0  0  0
 13 14  1  0  0  0  0
 14 28  1  0  0  0  0
 15 16  2  0  0  0  0
 15 17  1  0  0  0  0
 17 29  1  0  0  0  0
M  END
> <s_m_source_file>
AV-unprocessed.smi

> <i_m_source_file_index>
72

> <i_lp_mmshare_version>
43012

> <i_f3d_flags>
0

> <s_epik_input>
W05IMl1jMW5bY0hdbihjKD1PKW4xKVtDQEBIXTJPW0NASF0oW0NIMl1bT0hdKVtDQEBIXShbT0hdKVtDQEhdMltPSF0=

> <s_epik_cmdline>
J2VwaWtfcHl0aG9uJywgJy1waCcsICc3LjAnLCAnLXRuJywgJzgnLCAnLW1hJywgJzIwMCcsICctbWV0YWxfYmluZGluZycsICctaW1hZScsICc8aW5maWxlLm1hZT4nLCAnLW9tYWUnLCAnPG91dGZpbGUubWFlPic=

> <r_lp_tautomer_probability>
7.17554e-07

> <r_epik_Ionization_Penalty>
0.0066451

> <r_epik_Ionization_Penalty_Charging>
0.00663793

> <r_epik_Ionization_Penalty_Neutral>
7.17052e-06

> <r_epik_State_Penalty>
0.419231

> <r_epik_Charging_Adjusted_Penalty>
0.425868

> <i_epik_Tot_Q>
0

> <i_epik_Tot_abs_Q>
0

> <r_epik_Metal_State_Penalty>
1.44144

> <b_epik_Metal_Only>
0

> <s_epik_Chemistry_Notes>
This compound contains an acetal/aminal-like group ( X-CH(R)-Y where X, Y are N, S, or O) that may be acid/base labile, releasing an aldehyde.

> <s_lp_Force_Field>
OPLS_2005

> <r_lp_Energy>
41.469

> <b_lp_Chiralities_Consistent>
1

> <s_lp_Variant>
AV-unprocessed.smi:72-12

> <Gold.Version>
5.8.1

> <Gold.Id.Protein>
6NUR|6NUR_protein|mol2

> <Gold.PLP.Fitness>
35.7358

> <Gold.PLP.PLP>
-22.5749

> <Gold.PLP.part.hbond>
-5.8230

> <Gold.PLP.part.metal>
0.0000

> <Gold.PLP.part.buried>
-3.2217

> <Gold.PLP.part.nonpolar>
-14.2593

> <Gold.PLP.part.repulsive>
0.2415

> <Gold.PLP.ligand.clash>
0.0000

> <Gold.PLP.ligand.torsion>
0.2129

> <Gold.PLP.Chemscore.Hbond>
4.4960

> <Gold.PLP.Chemscore.CHOScore>
0.0000

> <Gold.PLP.Chemscore.Metal>
0.0000

> <Gold.Chemscore.Hbonds>
donor molecule, donor type, donor heavy atom, donor atom, acceptor molecule, acceptor atom, score
      L1  H    10    26       P1  7957  0.99
      L1  H    14    28       P1  8028  1.00
      P1  H  6896  6907       L1     1  0.46
      P1  H  7989  7998       L1     7  1.00
      P1  H  7997  8008       L1    16  1.00

> <Gold.PLP.Chemscore.Internal.Correction>
0.0987

> <Gold.Rescore>
     Score         DG    S(hbond)    S(metal)    S(lipo)     H(rot)  DE(clash)    DE(int)     intcor
     10.04     -11.66       4.18        0.00      22.25       4.06       0.07       1.56       ----

> <Gold.Chemscore.Fitness>
10.0395

> <Gold.Chemscore.DG>
-11.6606

> <Gold.Chemscore.ZeroCoef>
-5.4800

> <Gold.Chemscore.Hbond>
4.1828

> <Gold.Chemscore.Metal>
0.0000

> <Gold.Chemscore.Lipo>
22.2530

> <Gold.Chemscore.Internal_Hbond>
0.0000

> <Gold.Chemscore.DEClash>
0.0650

> <Gold.Chemscore.DEInternal>
1.5560

> <Gold.Chemscore.Rot>
4.0600

> <Gold.Chemscore.Internal.Correction>
   9.000000E+99

> <Gold.Chemscore.Hbonds>
donor molecule, donor type, donor heavy atom, donor atom, acceptor molecule, acceptor atom, score
      L1  H    10    26       P1  7957  0.89
      L1  H    14    28       P1  8028  1.00
      P1  H  6896  6907       L1     1  0.42
      P1  H  7989  7998       L1     7  0.86
      P1  H  7997  8008       L1    16  0.26

> <Gold.Chemscore.Hbond.Weighted>
-13.9706

> <Gold.Chemscore.Metal.Weighted>
-0.0000

> <Gold.Chemscore.Lipo.Weighted>
-2.6036

> <Gold.Chemscore.Internal_Hbond.Weighted>
0.0000

> <Gold.Chemscore.DEClash.Weighted>
0.0650

> <Gold.Chemscore.DEInternal.Weighted>
1.5560

> <Gold.Chemscore.Rot.Weighted>
10.3936

> <Gold.Chemscore.Internal.Correction.Weighted>
   9.000000E+99

> <Gold.Protein.RotatedTorsions>
[ 6907 6896 6895 6894 ] final   27.79 input  -60.11 | X-H torsion
[ 7974 7965 7964 7962 ] final    9.35 input  175.53 | X-H torsion
[ 8008 7997 7996 7995 ] final  -16.59 input   59.86 | X-H torsion
[ 10167 10162 10161 10158 ] final -148.86 input  -65.29 | X-H torsion
[ 10718 10713 10712 10709 ] final  176.01 input   66.30 | X-H torsion
[ 10763 10752 10751 10750 ] final -152.62 input  -60.55 | X-H torsion
[ 11005 11000 10999 10996 ] final   18.11 input  -57.11 | X-H torsion

> <Gold.Protein.ActiveResidues>
 VAL166  LYS551  ARG553  GLY616  TRP617  ASP618  TYR619  PRO620  LYS621  CYS622 
 ASP623  PHE694  ASN695  SER759  ASP760  ASP761  ALA762  ILE779  LEU786  VAL792 
 PHE793  MET794  SER795  GLU796  ALA797  LYS798  CYS799  TRP800  GLU811  SER814 

> <Gold.Protein.RotatedAtoms>
  152.0074  134.9895  160.0566 H   0  0  0  0  0  0  0  0  0  0  0  0  # atno 6907 bound_to 6896
  152.1461  133.4489  159.4799 H   0  0  0  0  0  0  0  0  0  0  0  0  # atno 6908 bound_to 6896
  150.6870  134.2164  159.4422 H   0  0  0  0  0  0  0  0  0  0  0  0  # atno 6909 bound_to 6896
  146.2404  139.9796  142.8437 H   0  0  0  0  0  0  0  0  0  0  0  0  # atno 7974 bound_to 7965
  154.5041  140.2165  155.9286 H   0  0  0  0  0  0  0  0  0  0  0  0  # atno 8008 bound_to 7997
  156.1472  140.3168  155.8556 H   0  0  0  0  0  0  0  0  0  0  0  0  # atno 8009 bound_to 7997
  155.4009  140.0484  157.3027 H   0  0  0  0  0  0  0  0  0  0  0  0  # atno 8010 bound_to 7997
  139.7494  143.8541  152.2582 H   0  0  0  0  0  0  0  0  0  0  0  0  # atno 10167 bound_to 10162
  156.9265  130.9957  151.2995 H   0  0  0  0  0  0  0  0  0  0  0  0  # atno 10718 bound_to 10713
  154.7982  135.3232  154.7615 H   0  0  0  0  0  0  0  0  0  0  0  0  # atno 10763 bound_to 10752
  153.8289  135.6881  153.4821 H   0  0  0  0  0  0  0  0  0  0  0  0  # atno 10764 bound_to 10752
  153.1684  135.4633  154.9811 H   0  0  0  0  0  0  0  0  0  0  0  0  # atno 10765 bound_to 10752
  140.4285  134.1445  155.7678 H   0  0  0  0  0  0  0  0  0  0  0  0  # atno 11005 bound_to 11000
  145.1604  140.9670  143.4380 LP  0  0  0  0  0  0  0  0  0  0  0  0  # atno 17320 bound_to 7965
  145.0121  139.3500  143.6114 LP  0  0  0  0  0  0  0  0  0  0  0  0  # atno 17321 bound_to 7965
  139.8515  144.7162  150.9208 LP  0  0  0  0  0  0  0  0  0  0  0  0  # atno 17342 bound_to 10162
  140.7796  143.3895  151.1335 LP  0  0  0  0  0  0  0  0  0  0  0  0  # atno 17343 bound_to 10162
  157.5874  130.8419  149.8610 LP  0  0  0  0  0  0  0  0  0  0  0  0  # atno 17370 bound_to 10713
  156.0467  130.3726  150.1301 LP  0  0  0  0  0  0  0  0  0  0  0  0  # atno 17371 bound_to 10713
  141.1755  133.8522  157.1434 LP  0  0  0  0  0  0  0  0  0  0  0  0  # atno 17394 bound_to 11000
  140.0151  134.9971  157.0476 LP  0  0  0  0  0  0  0  0  0  0  0  0  # atno 17395 bound_to 11000

$$$$
