AV-unprocessed.smi:159|AV-procd|sdf|1339|dock8
  -GOLD-   2262019 33D 1   1.00000     0.00000
 Structure written by MMmdl.
 28 29  0  0  0  0  0  0  0  0  1 V2000
  151.8861  139.0191  154.7546 N   0  0  0  0  0  0  0  0  0  0  0  0
  151.8989  139.6659  155.9285 C   0  0  0  0  0  0  0  0  0  0  0  0
  151.0291  140.7997  156.1474 C   0  0  0  0  0  0  0  0  0  0  0  0
  151.0970  141.3956  157.3581 C   0  0  0  0  0  0  0  0  0  0  0  0
  151.9487  140.9460  158.3576 N   0  0  0  0  0  0  0  0  0  0  0  0
  152.0069  141.6362  159.7021 C   0  0  1  0  0  0  0  0  0  0  0  0
  153.3655  142.3196  159.8951 C   0  0  0  0  0  0  0  0  0  0  0  0
  153.0233  143.7754  159.6586 C   0  0  0  0  0  0  0  0  0  0  0  0
  151.5920  143.8539  160.1850 C   0  0  1  0  0  0  0  0  0  0  0  0
  150.8003  145.0452  159.6263 C   0  0  0  0  0  0  0  0  0  0  0  0
  150.3452  144.7553  158.3221 O   0  0  0  0  0  0  0  0  0  0  0  0
  151.0208  142.6263  159.7440 O   0  0  0  0  0  0  0  0  0  0  0  0
  152.8048  139.8466  158.1055 C   0  0  0  0  0  0  0  0  0  0  0  0
  153.6046  139.4372  158.9464 O   0  0  0  0  0  0  0  0  0  0  0  0
  152.7196  139.2528  156.8746 N   0  0  0  0  0  0  0  0  0  0  0  0
  151.7837  140.8868  160.4632 H   0  0  0  0  0  0  0  0  0  0  0  0
  151.6144  143.8728  161.2765 H   0  0  0  0  0  0  0  0  0  0  0  0
  152.4969  138.2295  154.6035 H   0  0  0  0  0  0  0  0  0  0  0  0
  151.2660  139.3279  154.0197 H   0  0  0  0  0  0  0  0  0  0  0  0
  150.3455  141.1781  155.4008 H   0  0  0  0  0  0  0  0  0  0  0  0
  150.4593  142.2492  157.5348 H   0  0  0  0  0  0  0  0  0  0  0  0
  153.6914  142.1631  160.9242 H   0  0  0  0  0  0  0  0  0  0  0  0
  154.1277  141.9291  159.2194 H   0  0  0  0  0  0  0  0  0  0  0  0
  153.7016  144.4599  160.1687 H   0  0  0  0  0  0  0  0  0  0  0  0
  153.0532  143.9979  158.5911 H   0  0  0  0  0  0  0  0  0  0  0  0
  149.9217  145.2335  160.2439 H   0  0  0  0  0  0  0  0  0  0  0  0
  151.3991  145.9565  159.6276 H   0  0  0  0  0  0  0  0  0  0  0  0
  149.5415  145.2291  158.1716 H   0  0  0  0  0  0  0  0  0  0  0  0
  1  2  1  0  0  0  0
  1 18  1  0  0  0  0
  1 19  1  0  0  0  0
  2 15  2  0  0  0  0
  2  3  1  0  0  0  0
  3  4  2  0  0  0  0
  3 20  1  0  0  0  0
  4  5  1  0  0  0  0
  4 21  1  0  0  0  0
  5  6  1  0  0  0  0
  5 13  1  0  0  0  0
  6 16  1  0  0  0  0
  6 12  1  0  0  0  0
  6  7  1  0  0  0  0
  7  8  1  0  0  0  0
  7 22  1  0  0  0  0
  7 23  1  0  0  0  0
  8  9  1  0  0  0  0
  8 24  1  0  0  0  0
  8 25  1  0  0  0  0
  9 17  1  0  0  0  0
  9 10  1  0  0  0  0
  9 12  1  0  0  0  0
 10 11  1  0  0  0  0
 10 26  1  0  0  0  0
 10 27  1  0  0  0  0
 11 28  1  0  0  0  0
 13 14  2  0  0  0  0
 13 15  1  0  0  0  0
M  END
> <s_m_source_file>
AV-unprocessed.smi

> <i_m_source_file_index>
159

> <i_lp_mmshare_version>
43012

> <i_f3d_flags>
0

> <s_epik_input>
W05IMl1jMVtjSF1bY0hdbihjKD1PKW4xKVtDQEhdMltDSDJdW0NIMl1bQ0BIXShPMilbQ0gyXVtPSF0=

> <s_epik_cmdline>
J2VwaWtfcHl0aG9uJywgJy1waCcsICc3LjAnLCAnLXRuJywgJzgnLCAnLW1hJywgJzIwMCcsICctbWV0YWxfYmluZGluZycsICctaW1hZScsICc8aW5maWxlLm1hZT4nLCAnLW9tYWUnLCAnPG91dGZpbGUubWFlPic=

> <r_lp_tautomer_probability>
0.99996

> <r_epik_Ionization_Penalty>
0.00126102

> <r_epik_Ionization_Penalty_Charging>
4.46248e-08

> <r_epik_Ionization_Penalty_Neutral>
0.00126097

> <r_epik_State_Penalty>
1.15523e-05

> <r_epik_Charging_Adjusted_Penalty>
1.1597e-05

> <i_epik_Tot_Q>
0

> <i_epik_Tot_abs_Q>
0

> <r_epik_Metal_State_Penalty>
-0

> <b_epik_Metal_Only>
0

> <s_epik_Chemistry_Notes>
This compound contains an acetal/aminal-like group ( X-CH(R)-Y where X, Y are N, S, or O) that may be acid/base labile, releasing an aldehyde.

> <s_lp_Force_Field>
OPLS_2005

> <r_lp_Energy>
25.8801

> <b_lp_Chiralities_Consistent>
1

> <s_lp_Variant>
AV-unprocessed.smi:159-1

> <Gold.Version>
5.8.1

> <Gold.Id.Protein>
6NUR|6NUR_protein|mol2

> <Gold.PLP.Fitness>
33.7766

> <Gold.PLP.PLP>
-31.3201

> <Gold.PLP.part.hbond>
-4.2547

> <Gold.PLP.part.metal>
0.0000

> <Gold.PLP.part.buried>
-4.0479

> <Gold.PLP.part.nonpolar>
-24.1699

> <Gold.PLP.part.repulsive>
0.2876

> <Gold.PLP.ligand.clash>
0.0000

> <Gold.PLP.ligand.torsion>
0.2785

> <Gold.PLP.Chemscore.Hbond>
1.0000

> <Gold.PLP.Chemscore.CHOScore>
0.0000

> <Gold.PLP.Chemscore.Metal>
0.0000

> <Gold.Chemscore.Hbonds>
donor molecule, donor type, donor heavy atom, donor atom, acceptor molecule, acceptor atom, score
      L1  H    11    28       P1  8029  1.00

> <Gold.PLP.Chemscore.Internal.Correction>
0.0134

> <Gold.Rescore>
     Score         DG    S(hbond)    S(metal)    S(lipo)     H(rot)  DE(clash)    DE(int)     intcor
      8.84      -9.34       0.68        0.00      59.36       2.09       0.03       0.46       ----

> <Gold.Chemscore.Fitness>
8.8394

> <Gold.Chemscore.DG>
-9.3364

> <Gold.Chemscore.ZeroCoef>
-5.4800

> <Gold.Chemscore.Hbond>
0.6798

> <Gold.Chemscore.Metal>
0.0000

> <Gold.Chemscore.Lipo>
59.3616

> <Gold.Chemscore.Internal_Hbond>
0.0000

> <Gold.Chemscore.DEClash>
0.0329

> <Gold.Chemscore.DEInternal>
0.4642

> <Gold.Chemscore.Rot>
2.0935

> <Gold.Chemscore.Internal.Correction>
   9.000000E+99

> <Gold.Chemscore.Hbonds>
donor molecule, donor type, donor heavy atom, donor atom, acceptor molecule, acceptor atom, score
      L1  H    11    28       P1  8029  0.38

> <Gold.Chemscore.Hbond.Weighted>
-2.2705

> <Gold.Chemscore.Metal.Weighted>
-0.0000

> <Gold.Chemscore.Lipo.Weighted>
-6.9453

> <Gold.Chemscore.Internal_Hbond.Weighted>
0.0000

> <Gold.Chemscore.DEClash.Weighted>
0.0329

> <Gold.Chemscore.DEInternal.Weighted>
0.4642

> <Gold.Chemscore.Rot.Weighted>
5.3594

> <Gold.Chemscore.Internal.Correction.Weighted>
   9.000000E+99

> <Gold.Protein.RotatedTorsions>
[ 6907 6896 6895 6894 ] final -174.62 input  -60.11 | X-H torsion
[ 7974 7965 7964 7962 ] final -179.59 input  175.53 | X-H torsion
[ 8008 7997 7996 7995 ] final  -97.41 input   59.86 | X-H torsion
[ 10167 10162 10161 10158 ] final  -61.30 input  -65.29 | X-H torsion
[ 10718 10713 10712 10709 ] final -152.85 input   66.30 | X-H torsion
[ 10763 10752 10751 10750 ] final  -75.80 input  -60.55 | X-H torsion
[ 11005 11000 10999 10996 ] final  -32.98 input  -57.11 | X-H torsion

> <Gold.Protein.ActiveResidues>
 VAL166  LYS551  ARG553  GLY616  TRP617  ASP618  TYR619  PRO620  LYS621  CYS622 
 ASP623  PHE694  ASN695  SER759  ASP760  ASP761  ALA762  ILE779  LEU786  VAL792 
 PHE793  MET794  SER795  GLU796  ALA797  LYS798  CYS799  TRP800  GLU811  SER814 

> <Gold.Protein.RotatedAtoms>
  151.5753  133.3384  159.2997 H   0  0  0  0  0  0  0  0  0  0  0  0  # atno 6907 bound_to 6896
  150.8344  134.7614  159.6892 H   0  0  0  0  0  0  0  0  0  0  0  0  # atno 6908 bound_to 6896
  152.4423  134.5573  159.9935 H   0  0  0  0  0  0  0  0  0  0  0  0  # atno 6909 bound_to 6896
  144.7137  140.0695  143.6430 H   0  0  0  0  0  0  0  0  0  0  0  0  # atno 7974 bound_to 7965
  154.7874  140.0463  157.1175 H   0  0  0  0  0  0  0  0  0  0  0  0  # atno 8008 bound_to 7997
  154.9631  140.3080  155.5002 H   0  0  0  0  0  0  0  0  0  0  0  0  # atno 8009 bound_to 7997
  156.2945  140.2267  156.4718 H   0  0  0  0  0  0  0  0  0  0  0  0  # atno 8010 bound_to 7997
  140.6015  143.2362  151.5918 H   0  0  0  0  0  0  0  0  0  0  0  0  # atno 10167 bound_to 10162
  156.4780  130.8290  151.2517 H   0  0  0  0  0  0  0  0  0  0  0  0  # atno 10718 bound_to 10713
  154.4913  135.5819  153.6462 H   0  0  0  0  0  0  0  0  0  0  0  0  # atno 10763 bound_to 10752
  152.9863  135.6113  154.3121 H   0  0  0  0  0  0  0  0  0  0  0  0  # atno 10764 bound_to 10752
  154.3021  135.2846  155.2585 H   0  0  0  0  0  0  0  0  0  0  0  0  # atno 10765 bound_to 10752
  140.9597  133.7172  156.1349 H   0  0  0  0  0  0  0  0  0  0  0  0  # atno 11005 bound_to 11000
  145.9795  139.2930  143.1050 LP  0  0  0  0  0  0  0  0  0  0  0  0  # atno 17320 bound_to 7965
  145.9026  140.9232  143.0495 LP  0  0  0  0  0  0  0  0  0  0  0  0  # atno 17321 bound_to 7965
  139.5294  144.2960  152.1113 LP  0  0  0  0  0  0  0  0  0  0  0  0  # atno 17342 bound_to 10162
  140.2142  144.4532  150.6372 LP  0  0  0  0  0  0  0  0  0  0  0  0  # atno 17343 bound_to 10162
  157.7486  131.0054  150.3113 LP  0  0  0  0  0  0  0  0  0  0  0  0  # atno 17370 bound_to 10713
  156.3550  130.3837  149.7297 LP  0  0  0  0  0  0  0  0  0  0  0  0  # atno 17371 bound_to 10713
  140.7485  134.4071  157.5545 LP  0  0  0  0  0  0  0  0  0  0  0  0  # atno 17394 bound_to 11000
  139.8874  134.8884  156.2532 LP  0  0  0  0  0  0  0  0  0  0  0  0  # atno 17395 bound_to 11000

$$$$
