AV-unprocessed.smi:2821|AV-procd|sdf|10859|dock4
  -GOLD-   2272015303D 1   1.00000     0.00000
 Structure written by MMmdl.
 36 37  0  0  0  0  0  0  0  0  1 V2000
  154.4438  136.9495  157.6839 C   0  0  0  0  0  0  0  0  0  0  0  0
  153.0755  136.3198  157.4138 C   0  0  0  0  0  0  0  0  0  0  0  0
  152.5899  136.7980  156.1631 O   0  0  0  0  0  0  0  0  0  0  0  0
  152.1536  138.1045  156.0889 C   0  0  0  0  0  0  0  0  0  0  0  0
  151.6220  138.5941  154.8768 C   0  0  0  0  0  0  0  0  0  0  0  0
  151.1690  139.8613  154.7549 N   0  0  0  0  0  0  0  0  0  0  0  0
  151.2459  140.6402  155.8565 C   0  0  0  0  0  0  0  0  0  0  0  0
  151.7728  140.1636  157.0770 C   0  0  0  0  0  0  0  0  0  0  0  0
  151.8155  141.0198  158.1869 N   0  0  0  0  0  0  0  0  0  0  0  0
  151.4746  142.4381  158.0817 C   0  0  1  0  0  0  0  0  0  0  0  0
  149.9695  142.6261  158.3216 C   0  0  0  0  0  0  0  0  0  0  0  0
  152.3079  143.3261  159.0397 C   0  0  1  0  0  0  0  0  0  0  0  0
  152.1396  144.8474  158.8686 C   0  0  0  0  0  0  0  0  0  0  0  0
  151.5197  145.2882  160.1805 C   0  0  0  0  0  0  0  0  0  0  0  0
  152.0441  144.2406  161.1516 C   0  0  0  0  0  0  0  0  0  0  0  0
  151.9832  143.0410  160.3982 O   0  0  0  0  0  0  0  0  0  0  0  0
  152.2371  138.8964  157.1871 N   0  0  0  0  0  0  0  0  0  0  0  0
  154.8469  136.6099  158.6381 H   0  0  0  0  0  0  0  0  0  0  0  0
  154.3743  138.0369  157.7177 H   0  0  0  0  0  0  0  0  0  0  0  0
  155.1580  136.6822  156.9048 H   0  0  0  0  0  0  0  0  0  0  0  0
  153.1714  135.2326  157.3962 H   0  0  0  0  0  0  0  0  0  0  0  0
  152.3848  136.5851  158.2161 H   0  0  0  0  0  0  0  0  0  0  0  0
  151.5567  137.9646  154.0017 H   0  0  0  0  0  0  0  0  0  0  0  0
  150.8771  141.6513  155.7624 H   0  0  0  0  0  0  0  0  0  0  0  0
  152.3483  140.7273  158.9930 H   0  0  0  0  0  0  0  0  0  0  0  0
  151.6650  142.7694  157.0604 H   0  0  0  0  0  0  0  0  0  0  0  0
  149.6807  143.6707  158.2027 H   0  0  0  0  0  0  0  0  0  0  0  0
  149.6794  142.3140  159.3254 H   0  0  0  0  0  0  0  0  0  0  0  0
  149.3837  142.0428  157.6103 H   0  0  0  0  0  0  0  0  0  0  0  0
  153.3637  143.0786  158.9196 H   0  0  0  0  0  0  0  0  0  0  0  0
  153.1184  145.3129  158.7466 H   0  0  0  0  0  0  0  0  0  0  0  0
  151.5325  145.1335  158.0097 H   0  0  0  0  0  0  0  0  0  0  0  0
  151.7895  146.3062  160.4623 H   0  0  0  0  0  0  0  0  0  0  0  0
  150.4323  145.2261  160.1201 H   0  0  0  0  0  0  0  0  0  0  0  0
  153.0797  144.4468  161.4263 H   0  0  0  0  0  0  0  0  0  0  0  0
  151.4494  144.1723  162.0627 H   0  0  0  0  0  0  0  0  0  0  0  0
  1  2  1  0  0  0  0
  1 18  1  0  0  0  0
  1 19  1  0  0  0  0
  1 20  1  0  0  0  0
  2  3  1  0  0  0  0
  2 21  1  0  0  0  0
  2 22  1  0  0  0  0
  3  4  1  0  0  0  0
  4 17  1  0  0  0  0
  4  5  2  0  0  0  0
  5  6  1  0  0  0  0
  5 23  1  0  0  0  0
  6  7  2  0  0  0  0
  7  8  1  0  0  0  0
  7 24  1  0  0  0  0
  8  9  1  0  0  0  0
  8 17  2  0  0  0  0
  9 10  1  0  0  0  0
  9 25  1  0  0  0  0
 10 11  1  0  0  0  0
 10 12  1  0  0  0  0
 10 26  1  0  0  0  0
 11 27  1  0  0  0  0
 11 28  1  0  0  0  0
 11 29  1  0  0  0  0
 12 16  1  0  0  0  0
 12 13  1  0  0  0  0
 12 30  1  0  0  0  0
 13 14  1  0  0  0  0
 13 31  1  0  0  0  0
 13 32  1  0  0  0  0
 14 15  1  0  0  0  0
 14 33  1  0  0  0  0
 14 34  1  0  0  0  0
 15 16  1  0  0  0  0
 15 35  1  0  0  0  0
 15 36  1  0  0  0  0
M  END
> <s_m_source_file>
AV-unprocessed.smi

> <i_m_source_file_index>
2821

> <i_lp_mmshare_version>
43012

> <i_f3d_flags>
0

> <s_epik_input>
W0NIM11bQ0gyXU9jMVtjSF1uW2NIXWMobjEpW05IXVtDQEhdKFtDSDNdKVtDQEBIXTJbQ0gyXVtDSDJdW0NIMl1PMg==

> <s_epik_cmdline>
J2VwaWtfcHl0aG9uJywgJy1waCcsICc3LjAnLCAnLXRuJywgJzgnLCAnLW1hJywgJzIwMCcsICctbWV0YWxfYmluZGluZycsICctaW1hZScsICc8aW5maWxlLm1hZT4nLCAnLW9tYWUnLCAnPG91dGZpbGUubWFlPic=

> <r_lp_tautomer_probability>
1

> <r_epik_Ionization_Penalty>
4.69533e-05

> <r_epik_Ionization_Penalty_Charging>
0

> <r_epik_Ionization_Penalty_Neutral>
4.69533e-05

> <r_epik_State_Penalty>
-0

> <r_epik_Charging_Adjusted_Penalty>
0

> <i_epik_Tot_Q>
0

> <i_epik_Tot_abs_Q>
0

> <r_epik_Metal_State_Penalty>
-0

> <b_epik_Metal_Only>
0

> <s_lp_Force_Field>
OPLS_2005

> <r_lp_Energy>
30.0608

> <b_lp_Chiralities_Consistent>
1

> <s_lp_Variant>
AV-unprocessed.smi:2821-4

> <Gold.Version>
5.8.1

> <Gold.Id.Protein>
6NUR|6NUR_protein|mol2

> <Gold.PLP.Fitness>
40.3565

> <Gold.PLP.PLP>
-35.3349

> <Gold.PLP.part.hbond>
-2.0000

> <Gold.PLP.part.metal>
0.0000

> <Gold.PLP.part.buried>
-6.4032

> <Gold.PLP.part.nonpolar>
-27.6564

> <Gold.PLP.part.repulsive>
0.1880

> <Gold.PLP.ligand.clash>
0.0000

> <Gold.PLP.ligand.torsion>
0.4547

> <Gold.PLP.Chemscore.Hbond>
1.9600

> <Gold.PLP.Chemscore.CHOScore>
0.0000

> <Gold.PLP.Chemscore.Metal>
0.0000

> <Gold.Chemscore.Hbonds>
donor molecule, donor type, donor heavy atom, donor atom, acceptor molecule, acceptor atom, score
      P1  H  7989  7998       L1     6  1.00
      P1  H 10752 10764       L1     3  0.93

> <Gold.PLP.Chemscore.Internal.Correction>
0.0511

> <Gold.Rescore>
     Score         DG    S(hbond)    S(metal)    S(lipo)     H(rot)  DE(clash)    DE(int)     intcor
     16.01     -16.52       1.42        0.00      87.72       1.55       0.00       0.51       ----

> <Gold.Chemscore.Fitness>
16.0120

> <Gold.Chemscore.DG>
-16.5191

> <Gold.Chemscore.ZeroCoef>
-5.4800

> <Gold.Chemscore.Hbond>
1.4215

> <Gold.Chemscore.Metal>
0.0000

> <Gold.Chemscore.Lipo>
87.7172

> <Gold.Chemscore.Internal_Hbond>
0.0000

> <Gold.Chemscore.DEClash>
0.0000

> <Gold.Chemscore.DEInternal>
0.5071

> <Gold.Chemscore.Rot>
1.5514

> <Gold.Chemscore.Internal.Correction>
   9.000000E+99

> <Gold.Chemscore.Hbonds>
donor molecule, donor type, donor heavy atom, donor atom, acceptor molecule, acceptor atom, score
      P1  H  7989  7998       L1     6  0.49
      P1  H 10752 10764       L1     3  0.23

> <Gold.Chemscore.Hbond.Weighted>
-4.7477

> <Gold.Chemscore.Metal.Weighted>
-0.0000

> <Gold.Chemscore.Lipo.Weighted>
-10.2629

> <Gold.Chemscore.Internal_Hbond.Weighted>
0.0000

> <Gold.Chemscore.DEClash.Weighted>
0.0000

> <Gold.Chemscore.DEInternal.Weighted>
0.5071

> <Gold.Chemscore.Rot.Weighted>
3.9715

> <Gold.Chemscore.Internal.Correction.Weighted>
   9.000000E+99

> <Gold.Protein.RotatedTorsions>
[ 6907 6896 6895 6894 ] final  -94.48 input  -60.11 | X-H torsion
[ 7974 7965 7964 7962 ] final  -62.33 input  175.53 | X-H torsion
[ 8008 7997 7996 7995 ] final  174.30 input   59.86 | X-H torsion
[ 10167 10162 10161 10158 ] final -134.37 input  -65.29 | X-H torsion
[ 10718 10713 10712 10709 ] final   11.77 input   66.30 | X-H torsion
[ 10763 10752 10751 10750 ] final  -27.89 input  -60.55 | X-H torsion
[ 11005 11000 10999 10996 ] final  127.57 input  -57.11 | X-H torsion

> <Gold.Protein.ActiveResidues>
 VAL166  LYS551  ARG553  GLY616  TRP617  ASP618  TYR619  PRO620  LYS621  CYS622 
 ASP623  PHE694  ASN695  SER759  ASP760  ASP761  ALA762  ILE779  LEU786  VAL792 
 PHE793  MET794  SER795  GLU796  ALA797  LYS798  CYS799  TRP800  GLU811  SER814 

> <Gold.Protein.RotatedAtoms>
  150.6943  134.1805  159.4246 H   0  0  0  0  0  0  0  0  0  0  0  0  # atno 6907 bound_to 6896
  151.9780  135.0041  160.0565 H   0  0  0  0  0  0  0  0  0  0  0  0  # atno 6908 bound_to 6896
  152.1781  133.4653  159.4980 H   0  0  0  0  0  0  0  0  0  0  0  0  # atno 6909 bound_to 6896
  145.7925  140.8701  143.0273 H   0  0  0  0  0  0  0  0  0  0  0  0  # atno 7974 bound_to 7965
  156.0988  140.1438  156.9495 H   0  0  0  0  0  0  0  0  0  0  0  0  # atno 8008 bound_to 7997
  154.4689  140.0917  156.7138 H   0  0  0  0  0  0  0  0  0  0  0  0  # atno 8009 bound_to 7997
  155.4795  140.3444  155.4340 H   0  0  0  0  0  0  0  0  0  0  0  0  # atno 8010 bound_to 7997
  139.8887  143.6749  152.2615 H   0  0  0  0  0  0  0  0  0  0  0  0  # atno 10167 bound_to 10162
  157.0005  130.6077  149.5696 H   0  0  0  0  0  0  0  0  0  0  0  0  # atno 10718 bound_to 10713
  153.7394  135.6933  153.4970 H   0  0  0  0  0  0  0  0  0  0  0  0  # atno 10763 bound_to 10752
  153.2079  135.4413  155.0344 H   0  0  0  0  0  0  0  0  0  0  0  0  # atno 10764 bound_to 10752
  154.8226  135.3429  154.6921 H   0  0  0  0  0  0  0  0  0  0  0  0  # atno 10765 bound_to 10752
  139.9514  134.9621  156.8873 H   0  0  0  0  0  0  0  0  0  0  0  0  # atno 11005 bound_to 11000
  144.6780  140.0144  143.7484 LP  0  0  0  0  0  0  0  0  0  0  0  0  # atno 17320 bound_to 7965
  145.9961  139.3054  143.0955 LP  0  0  0  0  0  0  0  0  0  0  0  0  # atno 17321 bound_to 7965
  139.7129  144.7617  151.1082 LP  0  0  0  0  0  0  0  0  0  0  0  0  # atno 17342 bound_to 10162
  140.7731  143.5307  150.9427 LP  0  0  0  0  0  0  0  0  0  0  0  0  # atno 17343 bound_to 10162
  156.0173  130.5267  150.8172 LP  0  0  0  0  0  0  0  0  0  0  0  0  # atno 17370 bound_to 10713
  157.5394  131.0940  150.9848 LP  0  0  0  0  0  0  0  0  0  0  0  0  # atno 17371 bound_to 10713
  140.5710  134.0443  155.7430 LP  0  0  0  0  0  0  0  0  0  0  0  0  # atno 17394 bound_to 11000
  141.1178  133.9512  157.2789 LP  0  0  0  0  0  0  0  0  0  0  0  0  # atno 17395 bound_to 11000

$$$$
