AV-unprocessed.smi:1982|AV-procd|sdf|8027|dock10
  -GOLD-   2272010223D 1   1.00000     0.00000
 Structure written by MMmdl.
 36 37  0  0  0  0  0  0  0  0  1 V2000
  153.1095  142.4142  162.5794 C   0  0  0  0  0  0  0  0  0  0  0  0
  152.4931  142.8547  161.2396 C   0  0  1  0  0  0  0  0  0  0  0  0
  152.2126  144.3716  161.2686 C   0  0  0  0  0  0  0  0  0  0  0  0
  151.5811  144.8691  159.9616 C   0  0  0  0  0  0  0  0  0  0  0  0
  152.4641  144.5155  158.7567 C   0  0  0  0  0  0  0  0  0  0  0  0
  152.7625  143.0055  158.6898 C   0  0  2  0  0  0  0  0  0  0  0  0
  151.5565  142.2548  158.3437 N   0  0  0  0  0  0  0  0  0  0  0  0
  151.5168  141.0204  157.8190 C   0  0  0  0  0  0  0  0  0  0  0  0
  152.5198  140.3814  157.5030 O   0  0  0  0  0  0  0  0  0  0  0  0
  150.1275  140.4105  157.6268 C   0  0  0  0  0  0  0  0  0  0  0  0
  149.7645  140.3732  156.2216 N   0  0  0  0  0  0  0  0  0  0  0  0
  149.7431  141.3340  155.2957 C   0  0  0  0  0  0  0  0  0  0  0  0
  149.3700  140.8662  154.1144 N   0  0  0  0  0  0  0  0  0  0  0  0
  149.1532  139.5209  154.3627 N   0  0  0  0  0  0  0  0  0  0  0  0
  149.3853  139.2223  155.6114 N   0  0  0  0  0  0  0  0  0  0  0  0
  153.3752  142.4814  160.0149 C   0  0  2  0  0  0  0  0  0  0  0  0
  153.6787  140.9709  159.9287 C   0  0  0  0  0  0  0  0  0  0  0  0
  154.1065  142.8340  162.7148 H   0  0  0  0  0  0  0  0  0  0  0  0
  153.1880  141.3298  162.6516 H   0  0  0  0  0  0  0  0  0  0  0  0
  152.4957  142.7421  163.4187 H   0  0  0  0  0  0  0  0  0  0  0  0
  151.5349  142.3425  161.1407 H   0  0  0  0  0  0  0  0  0  0  0  0
  151.5510  144.6127  162.1013 H   0  0  0  0  0  0  0  0  0  0  0  0
  153.1420  144.9138  161.4490 H   0  0  0  0  0  0  0  0  0  0  0  0
  150.5905  144.4293  159.8401 H   0  0  0  0  0  0  0  0  0  0  0  0
  151.4342  145.9484  160.0083 H   0  0  0  0  0  0  0  0  0  0  0  0
  151.9904  144.8517  157.8335 H   0  0  0  0  0  0  0  0  0  0  0  0
  153.4046  145.0628  158.8304 H   0  0  0  0  0  0  0  0  0  0  0  0
  153.5020  142.8472  157.9025 H   0  0  0  0  0  0  0  0  0  0  0  0
  150.6758  142.6983  158.5623 H   0  0  0  0  0  0  0  0  0  0  0  0
  150.1065  139.3998  158.0374 H   0  0  0  0  0  0  0  0  0  0  0  0
  149.3811  140.9958  158.1653 H   0  0  0  0  0  0  0  0  0  0  0  0
  150.0054  142.3647  155.4848 H   0  0  0  0  0  0  0  0  0  0  0  0
  154.3340  142.9874  160.1390 H   0  0  0  0  0  0  0  0  0  0  0  0
  152.7661  140.3735  159.9363 H   0  0  0  0  0  0  0  0  0  0  0  0
  154.3002  140.6379  160.7594 H   0  0  0  0  0  0  0  0  0  0  0  0
  154.2215  140.7334  159.0134 H   0  0  0  0  0  0  0  0  0  0  0  0
  1  2  1  0  0  0  0
  1 18  1  0  0  0  0
  1 19  1  0  0  0  0
  1 20  1  0  0  0  0
  2 16  1  0  0  0  0
  2  3  1  0  0  0  0
  2 21  1  0  0  0  0
  3  4  1  0  0  0  0
  3 22  1  0  0  0  0
  3 23  1  0  0  0  0
  4  5  1  0  0  0  0
  4 24  1  0  0  0  0
  4 25  1  0  0  0  0
  5  6  1  0  0  0  0
  5 26  1  0  0  0  0
  5 27  1  0  0  0  0
  6  7  1  0  0  0  0
  6 16  1  0  0  0  0
  6 28  1  0  0  0  0
  7  8  1  0  0  0  0
  7 29  1  0  0  0  0
  8  9  2  0  0  0  0
  8 10  1  0  0  0  0
 10 11  1  0  0  0  0
 10 30  1  0  0  0  0
 10 31  1  0  0  0  0
 11 15  1  0  0  0  0
 11 12  1  0  0  0  0
 12 13  2  0  0  0  0
 12 32  1  0  0  0  0
 13 14  1  0  0  0  0
 14 15  2  0  0  0  0
 16 17  1  0  0  0  0
 16 33  1  0  0  0  0
 17 34  1  0  0  0  0
 17 35  1  0  0  0  0
 17 36  1  0  0  0  0
M  END
> <s_m_source_file>
AV-unprocessed.smi

> <i_m_source_file_index>
1982

> <i_lp_mmshare_version>
43012

> <i_f3d_flags>
0

> <s_epik_input>
W0NIM11bQ0BASF0xW0NIMl1bQ0gyXVtDSDJdW0NASF0oW0NASF0xW0NIM10pW05IXUMoPU8pW0NIMl1uMltjSF1ubm4y

> <s_epik_cmdline>
J2VwaWtfcHl0aG9uJywgJy1waCcsICc3LjAnLCAnLXRuJywgJzgnLCAnLW1hJywgJzIwMCcsICctbWV0YWxfYmluZGluZycsICctaW1hZScsICc8aW5maWxlLm1hZT4nLCAnLW9tYWUnLCAnPG91dGZpbGUubWFlPic=

> <r_lp_tautomer_probability>
1

> <r_epik_Ionization_Penalty>
5.03816e-07

> <r_epik_Ionization_Penalty_Charging>
0

> <r_epik_Ionization_Penalty_Neutral>
5.03816e-07

> <r_epik_State_Penalty>
-0

> <r_epik_Charging_Adjusted_Penalty>
0

> <i_epik_Tot_Q>
0

> <i_epik_Tot_abs_Q>
0

> <r_epik_Metal_State_Penalty>
-0

> <b_epik_Metal_Only>
0

> <s_lp_Force_Field>
OPLS_2005

> <r_lp_Energy>
12.4214

> <b_lp_Chiralities_Consistent>
1

> <s_lp_Variant>
AV-unprocessed.smi:1982-8

> <Gold.Version>
5.8.1

> <Gold.Id.Protein>
6NUR|6NUR_protein|mol2

> <Gold.PLP.Fitness>
47.3542

> <Gold.PLP.PLP>
-40.1218

> <Gold.PLP.part.hbond>
-3.0000

> <Gold.PLP.part.metal>
0.0000

> <Gold.PLP.part.buried>
-3.1684

> <Gold.PLP.part.nonpolar>
-33.4375

> <Gold.PLP.part.repulsive>
2.0375

> <Gold.PLP.ligand.clash>
0.0000

> <Gold.PLP.ligand.torsion>
0.4430

> <Gold.PLP.Chemscore.Hbond>
1.7020

> <Gold.PLP.Chemscore.CHOScore>
1.0000

> <Gold.PLP.Chemscore.Metal>
0.0000

> <Gold.Chemscore.Hbonds>
donor molecule, donor type, donor heavy atom, donor atom, acceptor molecule, acceptor atom, score
      P1  H  7989  7998       L1    13  0.06
      P1  H  7997  8009       L1     9  0.84
      P1  H  8011  8017       L1    13  0.07
      L1  C    12    32       P1  8028  0.80

> <Gold.PLP.Chemscore.Internal.Correction>
0.0126

> <Gold.Rescore>
     Score         DG    S(hbond)    S(metal)    S(lipo)     H(rot)  DE(clash)    DE(int)     intcor
     13.87     -17.49       1.61        0.00      98.27       1.91       0.82       2.80       ----

> <Gold.Chemscore.Fitness>
13.8700

> <Gold.Chemscore.DG>
-17.4916

> <Gold.Chemscore.ZeroCoef>
-5.4800

> <Gold.Chemscore.Hbond>
1.6147

> <Gold.Chemscore.Metal>
0.0000

> <Gold.Chemscore.Lipo>
98.2667

> <Gold.Chemscore.Internal_Hbond>
0.0000

> <Gold.Chemscore.DEClash>
0.8238

> <Gold.Chemscore.DEInternal>
2.7978

> <Gold.Chemscore.Rot>
1.9058

> <Gold.Chemscore.Internal.Correction>
   9.000000E+99

> <Gold.Chemscore.Hbonds>
donor molecule, donor type, donor heavy atom, donor atom, acceptor molecule, acceptor atom, score
      P1  H  7997  8009       L1     9  0.79
      P1  H  8011  8017       L1    13  0.08

> <Gold.Chemscore.Hbond.Weighted>
-5.3932

> <Gold.Chemscore.Metal.Weighted>
-0.0000

> <Gold.Chemscore.Lipo.Weighted>
-11.4972

> <Gold.Chemscore.Internal_Hbond.Weighted>
0.0000

> <Gold.Chemscore.DEClash.Weighted>
0.8238

> <Gold.Chemscore.DEInternal.Weighted>
2.7978

> <Gold.Chemscore.Rot.Weighted>
4.8788

> <Gold.Chemscore.Internal.Correction.Weighted>
   9.000000E+99

> <Gold.Protein.RotatedTorsions>
[ 6907 6896 6895 6894 ] final  -54.10 input  -60.11 | X-H torsion
[ 7974 7965 7964 7962 ] final  -57.41 input  175.53 | X-H torsion
[ 8008 7997 7996 7995 ] final -179.10 input   59.86 | X-H torsion
[ 10167 10162 10161 10158 ] final  174.48 input  -65.29 | X-H torsion
[ 10718 10713 10712 10709 ] final   46.35 input   66.30 | X-H torsion
[ 10763 10752 10751 10750 ] final  161.50 input  -60.55 | X-H torsion
[ 11005 11000 10999 10996 ] final  130.69 input  -57.11 | X-H torsion

> <Gold.Protein.ActiveResidues>
 VAL166  LYS551  ARG553  GLY616  TRP617  ASP618  TYR619  PRO620  LYS621  CYS622 
 ASP623  PHE694  ASN695  SER759  ASP760  ASP761  ALA762  ILE779  LEU786  VAL792 
 PHE793  MET794  SER795  GLU796  ALA797  LYS798  CYS799  TRP800  GLU811  SER814 

> <Gold.Protein.RotatedAtoms>
  150.8368  134.7644  159.6899 H   0  0  0  0  0  0  0  0  0  0  0  0  # atno 6907 bound_to 6896
  152.4463  134.5484  159.9869 H   0  0  0  0  0  0  0  0  0  0  0  0  # atno 6908 bound_to 6896
  151.5633  133.3362  159.3011 H   0  0  0  0  0  0  0  0  0  0  0  0  # atno 6909 bound_to 6896
  145.8514  140.8350  142.9984 H   0  0  0  0  0  0  0  0  0  0  0  0  # atno 7974 bound_to 7965
  156.0265  140.1272  157.0303 H   0  0  0  0  0  0  0  0  0  0  0  0  # atno 8008 bound_to 7997
  154.4332  140.1058  156.6109 H   0  0  0  0  0  0  0  0  0  0  0  0  # atno 8009 bound_to 7997
  155.5869  140.3469  155.4558 H   0  0  0  0  0  0  0  0  0  0  0  0  # atno 8010 bound_to 7997
  139.5143  144.3142  152.0263 H   0  0  0  0  0  0  0  0  0  0  0  0  # atno 10167 bound_to 10162
  157.4472  130.8116  149.7752 H   0  0  0  0  0  0  0  0  0  0  0  0  # atno 10718 bound_to 10713
  154.2639  135.2767  155.2766 H   0  0  0  0  0  0  0  0  0  0  0  0  # atno 10763 bound_to 10752
  154.5360  135.5716  153.6802 H   0  0  0  0  0  0  0  0  0  0  0  0  # atno 10764 bound_to 10752
  152.9957  135.6239  154.2791 H   0  0  0  0  0  0  0  0  0  0  0  0  # atno 10765 bound_to 10752
  139.9686  134.9583  156.9330 H   0  0  0  0  0  0  0  0  0  0  0  0  # atno 11005 bound_to 11000
  144.6729  140.0958  143.7463 LP  0  0  0  0  0  0  0  0  0  0  0  0  # atno 17320 bound_to 7965
  145.9353  139.2633  143.1301 LP  0  0  0  0  0  0  0  0  0  0  0  0  # atno 17321 bound_to 7965
  140.2586  144.4092  150.6194 LP  0  0  0  0  0  0  0  0  0  0  0  0  # atno 17342 bound_to 10162
  140.6174  143.2173  151.6765 LP  0  0  0  0  0  0  0  0  0  0  0  0  # atno 17343 bound_to 10162
  155.9972  130.3901  150.2749 LP  0  0  0  0  0  0  0  0  0  0  0  0  # atno 17370 bound_to 10713
  157.0918  131.0171  151.3119 LP  0  0  0  0  0  0  0  0  0  0  0  0  # atno 17371 bound_to 10713
  140.5341  134.0784  155.7323 LP  0  0  0  0  0  0  0  0  0  0  0  0  # atno 17394 bound_to 11000
  141.1366  133.9210  157.2419 LP  0  0  0  0  0  0  0  0  0  0  0  0  # atno 17395 bound_to 11000

$$$$
