AV-unprocessed.smi:562|AV-procd|sdf|2945|dock2
  -GOLD-   2262023443D 1   1.00000     0.00000
 Structure written by MMmdl.
 40 42  0  0  0  0  0  0  0  0  2 V2000
  149.4572  140.8626  154.6619 C   0  0  0  0  0  0  0  0  0  0  0  0
  150.8282  141.0419  154.9662 O   0  0  0  0  0  0  0  0  0  0  0  0
  151.3903  139.9241  155.6335 C   0  0  0  0  0  0  0  0  0  0  0  0
  151.1623  140.0613  157.1451 C   0  0  0  0  0  0  0  0  0  0  0  0
  152.2143  139.4077  157.9200 N   0  0  0  0  0  0  0  0  0  0  0  0
  152.9680  139.9343  158.9201 C   0  0  0  0  0  0  0  0  0  0  0  0
  152.7971  141.2652  159.3570 N   0  0  0  0  0  0  0  0  0  0  0  0
  152.2145  142.1786  158.5496 N   0  0  0  0  0  0  0  0  0  0  0  0
  152.2236  143.3027  159.2466 C   0  0  0  0  0  0  0  0  0  0  0  0
  151.6300  144.5450  158.6509 C   0  0  0  0  0  0  0  0  0  0  0  0
  152.8330  143.1410  160.5222 C   0  0  0  0  0  0  0  0  0  0  0  0
  153.1983  141.8247  160.5567 C   0  0  0  0  0  0  0  0  0  0  0  0
  153.8943  141.0447  161.6244 C   0  0  0  0  0  0  0  0  0  0  0  0
  153.8432  139.0909  159.4708 N   0  0  0  0  0  0  0  0  0  0  0  0
  153.6302  137.9219  158.7547 C   0  0  0  0  0  0  0  0  0  0  0  0
  152.6529  138.0843  157.8222 C   0  0  0  0  0  0  0  0  0  0  0  0
  152.1847  137.0081  156.9223 C   0  0  0  0  0  0  0  0  0  0  0  0
  151.2885  137.2091  156.1051 O   0  0  0  0  0  0  0  0  0  0  0  0
  152.8554  135.8314  157.1324 N   0  5  0  0  0  0  0  0  0  0  0  0
  153.8509  135.6211  158.0628 C   0  0  0  0  0  0  0  0  0  0  0  0
  154.4002  134.5259  158.1903 O   0  0  0  0  0  0  0  0  0  0  0  0
  154.2503  136.6483  158.8773 N   0  0  0  0  0  0  0  0  0  0  0  0
  155.3025  136.4518  159.8787 C   0  0  0  0  0  0  0  0  0  0  0  0
  149.0788  141.7463  154.1481 H   0  0  0  0  0  0  0  0  0  0  0  0
  148.8680  140.7231  155.5692 H   0  0  0  0  0  0  0  0  0  0  0  0
  149.3074  140.0018  154.0090 H   0  0  0  0  0  0  0  0  0  0  0  0
  150.9373  139.0019  155.2668 H   0  0  0  0  0  0  0  0  0  0  0  0
  152.4597  139.8674  155.4252 H   0  0  0  0  0  0  0  0  0  0  0  0
  151.1084  141.1107  157.4316 H   0  0  0  0  0  0  0  0  0  0  0  0
  150.1924  139.6436  157.4089 H   0  0  0  0  0  0  0  0  0  0  0  0
  151.7523  145.3987  159.3176 H   0  0  0  0  0  0  0  0  0  0  0  0
  150.5631  144.4195  158.4649 H   0  0  0  0  0  0  0  0  0  0  0  0
  152.1083  144.7939  157.7031 H   0  0  0  0  0  0  0  0  0  0  0  0
  152.9837  143.8810  161.2941 H   0  0  0  0  0  0  0  0  0  0  0  0
  153.8435  141.5640  162.5814 H   0  0  0  0  0  0  0  0  0  0  0  0
  154.9453  140.9013  161.3730 H   0  0  0  0  0  0  0  0  0  0  0  0
  153.4427  140.0612  161.7543 H   0  0  0  0  0  0  0  0  0  0  0  0
  156.2236  136.1093  159.4053 H   0  0  0  0  0  0  0  0  0  0  0  0
  154.9956  135.7036  160.6105 H   0  0  0  0  0  0  0  0  0  0  0  0
  155.5391  137.3642  160.4251 H   0  0  0  0  0  0  0  0  0  0  0  0
  1  2  1  0  0  0  0
  1 24  1  0  0  0  0
  1 25  1  0  0  0  0
  1 26  1  0  0  0  0
  2  3  1  0  0  0  0
  3  4  1  0  0  0  0
  3 27  1  0  0  0  0
  3 28  1  0  0  0  0
  4  5  1  0  0  0  0
  4 29  1  0  0  0  0
  4 30  1  0  0  0  0
  5 16  1  0  0  0  0
  5  6  1  0  0  0  0
  6  7  1  0  0  0  0
  6 14  2  0  0  0  0
  7 12  1  0  0  0  0
  7  8  1  0  0  0  0
  8  9  2  0  0  0  0
  9 10  1  0  0  0  0
  9 11  1  0  0  0  0
 10 31  1  0  0  0  0
 10 32  1  0  0  0  0
 10 33  1  0  0  0  0
 11 12  2  0  0  0  0
 11 34  1  0  0  0  0
 12 13  1  0  0  0  0
 13 35  1  0  0  0  0
 13 36  1  0  0  0  0
 13 37  1  0  0  0  0
 14 15  1  0  0  0  0
 15 22  1  0  0  0  0
 15 16  2  0  0  0  0
 16 17  1  0  0  0  0
 17 18  2  0  0  0  0
 17 19  1  0  0  0  0
 19 20  1  0  0  0  0
 20 21  2  0  0  0  0
 20 22  1  0  0  0  0
 22 23  1  0  0  0  0
 23 38  1  0  0  0  0
 23 39  1  0  0  0  0
 23 40  1  0  0  0  0
M  CHG  1  19  -1
M  END
> <s_m_source_file>
AV-unprocessed.smi

> <i_m_source_file_index>
562

> <i_lp_mmshare_version>
43012

> <i_f3d_flags>
0

> <s_epik_input>
W0NIM11uMWMoPU8pW25IXWMoPU8pYyhjMTIpbihbQ0gyXVtDSDJdT1tDSDNdKWMobjIpLW4zbmMoW0NIM10pW2NIXWMzW0NIM10=

> <s_epik_cmdline>
J2VwaWtfcHl0aG9uJywgJy1waCcsICc3LjAnLCAnLXRuJywgJzgnLCAnLW1hJywgJzIwMCcsICctbWV0YWxfYmluZGluZycsICctaW1hZScsICc8aW5maWxlLm1hZT4nLCAnLW9tYWUnLCAnPG91dGZpbGUubWFlPic=

> <r_lp_tautomer_probability>
1

> <r_epik_Ionization_Penalty>
3.9873

> <r_epik_Ionization_Penalty_Charging>
0.0180637

> <r_epik_Ionization_Penalty_Neutral>
3.96924

> <r_epik_State_Penalty>
3.96767

> <r_epik_Charging_Adjusted_Penalty>
3.98573

> <i_epik_Tot_Q>
-1

> <i_epik_Tot_abs_Q>
1

> <r_epik_Metal_State_Penalty>
0.612149

> <b_epik_Metal_Only>
1

> <s_lp_Force_Field>
OPLS_2005

> <r_lp_Energy>
28.5769

> <b_lp_Chiralities_Consistent>
1

> <s_lp_Variant>
AV-unprocessed.smi:562-2

> <Gold.Version>
5.8.1

> <Gold.Id.Protein>
6NUR|6NUR_protein|mol2

> <Gold.PLP.Fitness>
44.8176

> <Gold.PLP.PLP>
-37.2778

> <Gold.PLP.part.hbond>
-2.0000

> <Gold.PLP.part.metal>
0.0000

> <Gold.PLP.part.buried>
-4.0628

> <Gold.PLP.part.nonpolar>
-31.7095

> <Gold.PLP.part.repulsive>
0.0894

> <Gold.PLP.ligand.clash>
0.0000

> <Gold.PLP.ligand.torsion>
0.5511

> <Gold.PLP.Chemscore.Hbond>
2.7520

> <Gold.PLP.Chemscore.CHOScore>
0.0000

> <Gold.PLP.Chemscore.Metal>
0.0000

> <Gold.Chemscore.Hbonds>
donor molecule, donor type, donor heavy atom, donor atom, acceptor molecule, acceptor atom, score
      P1  H  7989  7998       L1     2  0.65
      P1  H 10752 10765       L1    19  2.00

> <Gold.PLP.Chemscore.Internal.Correction>
0.3859

> <Gold.Rescore>
     Score         DG    S(hbond)    S(metal)    S(lipo)     H(rot)  DE(clash)    DE(int)     intcor
      9.56     -14.32       0.93        0.00      82.05       1.52       0.15       4.61       ----

> <Gold.Chemscore.Fitness>
9.5635

> <Gold.Chemscore.DG>
-14.3209

> <Gold.Chemscore.ZeroCoef>
-5.4800

> <Gold.Chemscore.Hbond>
0.9345

> <Gold.Chemscore.Metal>
0.0000

> <Gold.Chemscore.Lipo>
82.0532

> <Gold.Chemscore.Internal_Hbond>
0.0000

> <Gold.Chemscore.DEClash>
0.1493

> <Gold.Chemscore.DEInternal>
4.6081

> <Gold.Chemscore.Rot>
1.5159

> <Gold.Chemscore.Internal.Correction>
   9.000000E+99

> <Gold.Chemscore.Hbonds>
donor molecule, donor type, donor heavy atom, donor atom, acceptor molecule, acceptor atom, score
      P1  H  7989  7998       L1     2  0.08
      P1  H 10752 10765       L1    19  0.31

> <Gold.Chemscore.Hbond.Weighted>
-3.1212

> <Gold.Chemscore.Metal.Weighted>
-0.0000

> <Gold.Chemscore.Lipo.Weighted>
-9.6002

> <Gold.Chemscore.Internal_Hbond.Weighted>
0.0000

> <Gold.Chemscore.DEClash.Weighted>
0.1493

> <Gold.Chemscore.DEInternal.Weighted>
4.6081

> <Gold.Chemscore.Rot.Weighted>
3.8806

> <Gold.Chemscore.Internal.Correction.Weighted>
   9.000000E+99

> <Gold.Protein.RotatedTorsions>
[ 6907 6896 6895 6894 ] final  -81.90 input  -60.11 | X-H torsion
[ 7974 7965 7964 7962 ] final -111.35 input  175.53 | X-H torsion
[ 8008 7997 7996 7995 ] final -123.71 input   59.86 | X-H torsion
[ 10167 10162 10161 10158 ] final   30.49 input  -65.29 | X-H torsion
[ 10718 10713 10712 10709 ] final  -11.60 input   66.30 | X-H torsion
[ 10763 10752 10751 10750 ] final -120.47 input  -60.55 | X-H torsion
[ 11005 11000 10999 10996 ] final  -89.02 input  -57.11 | X-H torsion

> <Gold.Protein.ActiveResidues>
 VAL166  LYS551  ARG553  GLY616  TRP617  ASP618  TYR619  PRO620  LYS621  CYS622 
 ASP623  PHE694  ASN695  SER759  ASP760  ASP761  ALA762  ILE779  LEU786  VAL792 
 PHE793  MET794  SER795  GLU796  ALA797  LYS798  CYS799  TRP800  GLU811  SER814 

> <Gold.Protein.RotatedAtoms>
  150.6905  134.3748  159.5007 H   0  0  0  0  0  0  0  0  0  0  0  0  # atno 6907 bound_to 6896
  152.1558  134.8949  160.0554 H   0  0  0  0  0  0  0  0  0  0  0  0  # atno 6908 bound_to 6896
  152.0029  133.3797  159.4226 H   0  0  0  0  0  0  0  0  0  0  0  0  # atno 6909 bound_to 6896
  145.1571  140.8859  143.3612 H   0  0  0  0  0  0  0  0  0  0  0  0  # atno 7974 bound_to 7965
  155.1850  140.0411  157.2889 H   0  0  0  0  0  0  0  0  0  0  0  0  # atno 8008 bound_to 7997
  154.6177  140.2493  155.7560 H   0  0  0  0  0  0  0  0  0  0  0  0  # atno 8009 bound_to 7997
  156.2416  140.2901  156.0470 H   0  0  0  0  0  0  0  0  0  0  0  0  # atno 8010 bound_to 7997
  140.4673  144.0815  150.6228 H   0  0  0  0  0  0  0  0  0  0  0  0  # atno 10167 bound_to 10162
  156.6567  130.4970  149.6044 H   0  0  0  0  0  0  0  0  0  0  0  0  # atno 10718 bound_to 10713
  154.8645  135.4202  154.2464 H   0  0  0  0  0  0  0  0  0  0  0  0  # atno 10763 bound_to 10752
  153.3419  135.6994  153.6866 H   0  0  0  0  0  0  0  0  0  0  0  0  # atno 10764 bound_to 10752
  153.5841  135.3567  155.2859 H   0  0  0  0  0  0  0  0  0  0  0  0  # atno 10765 bound_to 10752
  141.1592  133.7605  156.9535 H   0  0  0  0  0  0  0  0  0  0  0  0  # atno 11005 bound_to 11000
  145.0369  139.3293  143.5996 LP  0  0  0  0  0  0  0  0  0  0  0  0  # atno 17320 bound_to 7965
  146.3487  139.9728  142.8704 LP  0  0  0  0  0  0  0  0  0  0  0  0  # atno 17321 bound_to 7965
  140.4020  143.2699  151.9936 LP  0  0  0  0  0  0  0  0  0  0  0  0  # atno 17342 bound_to 10162
  139.4814  144.5989  151.7640 LP  0  0  0  0  0  0  0  0  0  0  0  0  # atno 17343 bound_to 10162
  156.2042  130.6639  151.1200 LP  0  0  0  0  0  0  0  0  0  0  0  0  # atno 17370 bound_to 10713
  157.7123  131.0728  150.6455 LP  0  0  0  0  0  0  0  0  0  0  0  0  # atno 17371 bound_to 10713
  140.1241  134.9398  157.2245 LP  0  0  0  0  0  0  0  0  0  0  0  0  # atno 17394 bound_to 11000
  140.3035  134.3105  155.7284 LP  0  0  0  0  0  0  0  0  0  0  0  0  # atno 17395 bound_to 11000

$$$$
