AV-unprocessed.smi:2883|AV-procd|sdf|11081|dock5
  -GOLD-   2272015553D 1   1.00000     0.00000
 Structure written by MMmdl.
 39 41  0  0  0  0  0  0  0  0  1 V2000
  147.3023  139.3547  153.2004 C   0  0  0  0  0  0  0  0  0  0  0  0
  147.3634  140.5282  154.1951 C   0  0  0  0  0  0  0  0  0  0  0  0
  147.1217  141.8590  153.4438 C   0  0  0  0  0  0  0  0  0  0  0  0
  146.2106  140.3986  155.2184 C   0  0  0  0  0  0  0  0  0  0  0  0
  148.7319  140.5338  154.8971 C   0  0  0  0  0  0  0  0  0  0  0  0
  149.5858  139.5489  154.5874 N   0  0  0  0  0  0  0  0  0  0  0  0
  150.8321  139.6195  155.1011 C   0  0  0  0  0  0  0  0  0  0  0  0
  151.2426  140.6996  155.9063 C   0  0  0  0  0  0  0  0  0  0  0  0
  150.2849  141.7055  156.1416 C   0  0  0  0  0  0  0  0  0  0  0  0
  150.6295  142.8159  156.9243 N   0  0  0  0  0  0  0  0  0  0  0  0
  151.8131  142.7906  157.7786 C   0  0  2  0  0  0  0  0  0  0  0  0
  151.5581  142.1362  159.1385 C   0  0  0  0  0  0  0  0  0  0  0  0
  152.0532  143.2195  160.1072 C   0  0  2  0  0  0  0  0  0  0  0  0
  151.0622  144.3865  160.2007 C   0  0  0  0  0  0  0  0  0  0  0  0
  151.2640  145.0730  158.8512 C   0  0  0  0  0  0  0  0  0  0  0  0
  152.3328  144.1812  158.1963 C   0  0  1  0  0  0  0  0  0  0  0  0
  153.0857  143.8184  159.3416 O   0  0  0  0  0  0  0  0  0  0  0  0
  149.0410  141.6203  155.6164 N   0  0  0  0  0  0  0  0  0  0  0  0
  146.3429  139.3204  152.6834 H   0  0  0  0  0  0  0  0  0  0  0  0
  147.4373  138.3988  153.7076 H   0  0  0  0  0  0  0  0  0  0  0  0
  148.0819  139.4373  152.4423 H   0  0  0  0  0  0  0  0  0  0  0  0
  147.8457  142.0144  152.6429 H   0  0  0  0  0  0  0  0  0  0  0  0
  147.1877  142.7138  154.1183 H   0  0  0  0  0  0  0  0  0  0  0  0
  146.1338  141.8814  152.9826 H   0  0  0  0  0  0  0  0  0  0  0  0
  145.2379  140.4407  154.7271 H   0  0  0  0  0  0  0  0  0  0  0  0
  146.2403  141.2025  155.9549 H   0  0  0  0  0  0  0  0  0  0  0  0
  146.2483  139.4524  155.7594 H   0  0  0  0  0  0  0  0  0  0  0  0
  151.5087  138.8122  154.8628 H   0  0  0  0  0  0  0  0  0  0  0  0
  152.2416  140.7515  156.3136 H   0  0  0  0  0  0  0  0  0  0  0  0
  150.1927  143.7061  156.7351 H   0  0  0  0  0  0  0  0  0  0  0  0
  152.6097  142.2413  157.2744 H   0  0  0  0  0  0  0  0  0  0  0  0
  150.5128  141.8787  159.3149 H   0  0  0  0  0  0  0  0  0  0  0  0
  152.1508  141.2262  159.2360 H   0  0  0  0  0  0  0  0  0  0  0  0
  152.3750  142.8347  161.0753 H   0  0  0  0  0  0  0  0  0  0  0  0
  150.0368  144.0501  160.3564 H   0  0  0  0  0  0  0  0  0  0  0  0
  151.3294  145.0596  161.0161 H   0  0  0  0  0  0  0  0  0  0  0  0
  150.3468  145.1426  158.2661 H   0  0  0  0  0  0  0  0  0  0  0  0
  151.6465  146.0841  158.9952 H   0  0  0  0  0  0  0  0  0  0  0  0
  152.9157  144.6871  157.4261 H   0  0  0  0  0  0  0  0  0  0  0  0
  1  2  1  0  0  0  0
  1 19  1  0  0  0  0
  1 20  1  0  0  0  0
  1 21  1  0  0  0  0
  2  3  1  0  0  0  0
  2  4  1  0  0  0  0
  2  5  1  0  0  0  0
  3 22  1  0  0  0  0
  3 23  1  0  0  0  0
  3 24  1  0  0  0  0
  4 25  1  0  0  0  0
  4 26  1  0  0  0  0
  4 27  1  0  0  0  0
  5 18  1  0  0  0  0
  5  6  2  0  0  0  0
  6  7  1  0  0  0  0
  7  8  2  0  0  0  0
  7 28  1  0  0  0  0
  8  9  1  0  0  0  0
  8 29  1  0  0  0  0
  9 10  1  0  0  0  0
  9 18  2  0  0  0  0
 10 11  1  0  0  0  0
 10 30  1  0  0  0  0
 11 16  1  0  0  0  0
 11 12  1  0  0  0  0
 11 31  1  0  0  0  0
 12 13  1  0  0  0  0
 12 32  1  0  0  0  0
 12 33  1  0  0  0  0
 13 17  1  0  0  0  0
 13 14  1  0  0  0  0
 13 34  1  0  0  0  0
 14 15  1  0  0  0  0
 14 35  1  0  0  0  0
 14 36  1  0  0  0  0
 15 16  1  0  0  0  0
 15 37  1  0  0  0  0
 15 38  1  0  0  0  0
 16 17  1  0  0  0  0
 16 39  1  0  0  0  0
M  END
> <s_m_source_file>
AV-unprocessed.smi

> <i_m_source_file_index>
2883

> <i_lp_mmshare_version>
43012

> <i_f3d_flags>
0

> <s_epik_input>
W0NIM11DKFtDSDNdKShbQ0gzXSljMW5bY0hdW2NIXWMobjEpW05IXVtDQEhdKFtDSDJdW0NAQEhdMjMpW0NAQEhdKE8zKVtDSDJdW0NIMl0y

> <s_epik_cmdline>
J2VwaWtfcHl0aG9uJywgJy1waCcsICc3LjAnLCAnLXRuJywgJzgnLCAnLW1hJywgJzIwMCcsICctbWV0YWxfYmluZGluZycsICctaW1hZScsICc8aW5maWxlLm1hZT4nLCAnLW9tYWUnLCAnPG91dGZpbGUubWFlPic=

> <r_lp_tautomer_probability>
1

> <r_epik_Ionization_Penalty>
0.453006

> <r_epik_Ionization_Penalty_Charging>
0

> <r_epik_Ionization_Penalty_Neutral>
0.453006

> <r_epik_State_Penalty>
0.455155

> <r_epik_Charging_Adjusted_Penalty>
0.455155

> <i_epik_Tot_Q>
0

> <i_epik_Tot_abs_Q>
0

> <r_epik_Metal_State_Penalty>
0.255592

> <b_epik_Metal_Only>
0

> <s_lp_Force_Field>
OPLS_2005

> <r_lp_Energy>
33.5757

> <b_lp_Chiralities_Consistent>
1

> <s_lp_Variant>
AV-unprocessed.smi:2883-7

> <Gold.Version>
5.8.1

> <Gold.Id.Protein>
6NUR|6NUR_protein|mol2

> <Gold.PLP.Fitness>
39.0976

> <Gold.PLP.PLP>
-37.1271

> <Gold.PLP.part.hbond>
-1.0000

> <Gold.PLP.part.metal>
0.0000

> <Gold.PLP.part.buried>
-5.3521

> <Gold.PLP.part.nonpolar>
-30.7072

> <Gold.PLP.part.repulsive>
0.4037

> <Gold.PLP.ligand.clash>
0.0000

> <Gold.PLP.ligand.torsion>
0.5508

> <Gold.PLP.Chemscore.Hbond>
0.9760

> <Gold.PLP.Chemscore.CHOScore>
0.0000

> <Gold.PLP.Chemscore.Metal>
0.0000

> <Gold.Chemscore.Hbonds>
donor molecule, donor type, donor heavy atom, donor atom, acceptor molecule, acceptor atom, score
      L1  H    10    30       P1  8028  0.98

> <Gold.PLP.Chemscore.Internal.Correction>
0.1441

> <Gold.Rescore>
     Score         DG    S(hbond)    S(metal)    S(lipo)     H(rot)  DE(clash)    DE(int)     intcor
     16.96     -17.60       0.97        0.00     101.08       1.15       0.15       0.50       ----

> <Gold.Chemscore.Fitness>
16.9590

> <Gold.Chemscore.DG>
-17.6032

> <Gold.Chemscore.ZeroCoef>
-5.4800

> <Gold.Chemscore.Hbond>
0.9687

> <Gold.Chemscore.Metal>
0.0000

> <Gold.Chemscore.Lipo>
101.0846

> <Gold.Chemscore.Internal_Hbond>
0.0000

> <Gold.Chemscore.DEClash>
0.1490

> <Gold.Chemscore.DEInternal>
0.4951

> <Gold.Chemscore.Rot>
1.1482

> <Gold.Chemscore.Internal.Correction>
   9.000000E+99

> <Gold.Chemscore.Hbonds>
donor molecule, donor type, donor heavy atom, donor atom, acceptor molecule, acceptor atom, score
      L1  H    10    30       P1  8028  0.91

> <Gold.Chemscore.Hbond.Weighted>
-3.2355

> <Gold.Chemscore.Metal.Weighted>
-0.0000

> <Gold.Chemscore.Lipo.Weighted>
-11.8269

> <Gold.Chemscore.Internal_Hbond.Weighted>
0.0000

> <Gold.Chemscore.DEClash.Weighted>
0.1490

> <Gold.Chemscore.DEInternal.Weighted>
0.4951

> <Gold.Chemscore.Rot.Weighted>
2.9393

> <Gold.Chemscore.Internal.Correction.Weighted>
   9.000000E+99

> <Gold.Protein.RotatedTorsions>
[ 6907 6896 6895 6894 ] final  133.01 input  -60.11 | X-H torsion
[ 7974 7965 7964 7962 ] final  100.91 input  175.53 | X-H torsion
[ 8008 7997 7996 7995 ] final   97.41 input   59.86 | X-H torsion
[ 10167 10162 10161 10158 ] final   46.63 input  -65.29 | X-H torsion
[ 10718 10713 10712 10709 ] final -153.79 input   66.30 | X-H torsion
[ 10763 10752 10751 10750 ] final  159.88 input  -60.55 | X-H torsion
[ 11005 11000 10999 10996 ] final   12.33 input  -57.11 | X-H torsion

> <Gold.Protein.ActiveResidues>
 VAL166  LYS551  ARG553  GLY616  TRP617  ASP618  TYR619  PRO620  LYS621  CYS622 
 ASP623  PHE694  ASN695  SER759  ASP760  ASP761  ALA762  ILE779  LEU786  VAL792 
 PHE793  MET794  SER795  GLU796  ALA797  LYS798  CYS799  TRP800  GLU811  SER814 

> <Gold.Protein.RotatedAtoms>
  152.3264  133.5910  159.5779 H   0  0  0  0  0  0  0  0  0  0  0  0  # atno 6907 bound_to 6896
  150.7399  133.9934  159.3623 H   0  0  0  0  0  0  0  0  0  0  0  0  # atno 6908 bound_to 6896
  151.7813  135.0761  160.0425 H   0  0  0  0  0  0  0  0  0  0  0  0  # atno 6909 bound_to 6896
  145.3793  139.2383  143.3412 H   0  0  0  0  0  0  0  0  0  0  0  0  # atno 7974 bound_to 7965
  156.0899  140.3258  155.7802 H   0  0  0  0  0  0  0  0  0  0  0  0  # atno 8008 bound_to 7997
  155.5014  140.0569  157.2955 H   0  0  0  0  0  0  0  0  0  0  0  0  # atno 8009 bound_to 7997
  154.4631  140.1976  156.0206 H   0  0  0  0  0  0  0  0  0  0  0  0  # atno 8010 bound_to 7997
  140.3119  144.2810  150.6198 H   0  0  0  0  0  0  0  0  0  0  0  0  # atno 10167 bound_to 10162
  156.4905  130.8345  151.2568 H   0  0  0  0  0  0  0  0  0  0  0  0  # atno 10718 bound_to 10713
  154.2388  135.2775  155.2862 H   0  0  0  0  0  0  0  0  0  0  0  0  # atno 10763 bound_to 10752
  154.5563  135.5660  153.6970 H   0  0  0  0  0  0  0  0  0  0  0  0  # atno 10764 bound_to 10752
  153.0004  135.6287  154.2531 H   0  0  0  0  0  0  0  0  0  0  0  0  # atno 10765 bound_to 10752
  140.4932  134.0819  155.7776 H   0  0  0  0  0  0  0  0  0  0  0  0  # atno 11005 bound_to 11000
  146.2849  140.4458  142.8762 LP  0  0  0  0  0  0  0  0  0  0  0  0  # atno 17320 bound_to 7965
  144.8519  140.7014  143.6163 LP  0  0  0  0  0  0  0  0  0  0  0  0  # atno 17321 bound_to 7965
  140.5560  143.2199  151.7846 LP  0  0  0  0  0  0  0  0  0  0  0  0  # atno 17342 bound_to 10162
  139.4892  144.4413  151.9761 LP  0  0  0  0  0  0  0  0  0  0  0  0  # atno 17343 bound_to 10162
  157.7474  131.0015  150.2965 LP  0  0  0  0  0  0  0  0  0  0  0  0  # atno 17370 bound_to 10713
  156.3431  130.3818  149.7392 LP  0  0  0  0  0  0  0  0  0  0  0  0  # atno 17371 bound_to 10713
  141.1473  133.9031  157.2183 LP  0  0  0  0  0  0  0  0  0  0  0  0  # atno 17394 bound_to 11000
  139.9757  135.0114  156.9624 LP  0  0  0  0  0  0  0  0  0  0  0  0  # atno 17395 bound_to 11000

$$$$
