AV-unprocessed.smi:1148|AV-procd|sdf|4889|dock6
  -GOLD-   22720 3463D 1   1.00000     0.00000
 Structure written by MMmdl.
 45 47  0  0  0  0  0  0  0  0  1 V2000
  147.0520  132.6003  152.4187 C   0  0  0  0  0  0  0  0  0  0  0  0
  148.2446  133.2833  152.7896 O   0  0  0  0  0  0  0  0  0  0  0  0
  148.9704  132.8073  153.8651 C   0  0  0  0  0  0  0  0  0  0  0  0
  148.8590  131.4940  154.1878 N   0  0  0  0  0  0  0  0  0  0  0  0
  149.5685  131.0270  155.2355 C   0  0  0  0  0  0  0  0  0  0  0  0
  150.4253  131.8335  156.0067 C   0  0  0  0  0  0  0  0  0  0  0  0
  150.5422  133.1960  155.6745 C   0  0  0  0  0  0  0  0  0  0  0  0
  149.7914  133.7047  154.5872 C   0  0  0  0  0  0  0  0  0  0  0  0
  149.8496  135.0592  154.1586 N   0  0  0  0  0  0  0  0  0  0  0  0
  150.5271  136.0803  154.7100 C   0  0  0  0  0  0  0  0  0  0  0  0
  151.2461  136.0022  155.7062 O   0  0  0  0  0  0  0  0  0  0  0  0
  150.3055  137.2224  154.0439 N   0  0  0  0  0  0  0  0  0  0  0  0
  150.8566  138.5269  154.3981 C   0  0  0  0  0  0  0  0  0  0  0  0
  152.3322  138.3661  154.8228 C   0  0  0  0  0  0  0  0  0  0  0  0
  152.8944  139.6872  155.3746 C   0  0  0  0  0  0  0  0  0  0  0  0
  152.0534  140.1231  156.4977 N   0  0  0  0  0  0  0  0  0  0  0  0
  152.4103  140.1242  157.8063 C   0  0  0  0  0  0  0  0  0  0  0  0
  153.5044  139.7065  158.1886 O   0  0  0  0  0  0  0  0  0  0  0  0
  151.4227  140.6895  158.7818 C   0  0  0  0  0  0  0  0  0  0  0  0
  150.9360  142.1128  158.5747 C   0  0  0  0  0  0  0  0  0  0  0  0
  151.9102  141.8054  159.6817 C   0  0  0  0  0  0  0  0  0  0  0  0
  150.6997  140.4674  156.0450 C   0  0  0  0  0  0  0  0  0  0  0  0
  150.0170  139.1935  155.5128 C   0  0  0  0  0  0  0  0  0  0  0  0
  146.6020  133.1009  151.5616 H   0  0  0  0  0  0  0  0  0  0  0  0
  146.3200  132.6087  153.2276 H   0  0  0  0  0  0  0  0  0  0  0  0
  147.2553  131.5683  152.1292 H   0  0  0  0  0  0  0  0  0  0  0  0
  149.4548  129.9771  155.4619 H   0  0  0  0  0  0  0  0  0  0  0  0
  150.9835  131.4157  156.8313 H   0  0  0  0  0  0  0  0  0  0  0  0
  151.2122  133.8175  156.2480 H   0  0  0  0  0  0  0  0  0  0  0  0
  149.2344  135.2958  153.3938 H   0  0  0  0  0  0  0  0  0  0  0  0
  149.6995  137.1908  153.2374 H   0  0  0  0  0  0  0  0  0  0  0  0
  150.8366  139.1745  153.5193 H   0  0  0  0  0  0  0  0  0  0  0  0
  152.4182  137.5933  155.5885 H   0  0  0  0  0  0  0  0  0  0  0  0
  152.9318  138.0314  153.9756 H   0  0  0  0  0  0  0  0  0  0  0  0
  153.9477  139.5760  155.6291 H   0  0  0  0  0  0  0  0  0  0  0  0
  152.8726  140.4503  154.5952 H   0  0  0  0  0  0  0  0  0  0  0  0
  150.6884  139.9954  159.1870 H   0  0  0  0  0  0  0  0  0  0  0  0
  151.3131  142.6880  157.7310 H   0  0  0  0  0  0  0  0  0  0  0  0
  149.9046  142.3258  158.8484 H   0  0  0  0  0  0  0  0  0  0  0  0
  151.5416  141.8099  160.7054 H   0  0  0  0  0  0  0  0  0  0  0  0
  152.9343  142.1541  159.5584 H   0  0  0  0  0  0  0  0  0  0  0  0
  150.0881  140.9110  156.8316 H   0  0  0  0  0  0  0  0  0  0  0  0
  150.7587  141.2196  155.2569 H   0  0  0  0  0  0  0  0  0  0  0  0
  149.0203  139.4353  155.1417 H   0  0  0  0  0  0  0  0  0  0  0  0
  149.8773  138.4938  156.3383 H   0  0  0  0  0  0  0  0  0  0  0  0
  1  2  1  0  0  0  0
  1 24  1  0  0  0  0
  1 25  1  0  0  0  0
  1 26  1  0  0  0  0
  2  3  1  0  0  0  0
  3  8  1  0  0  0  0
  3  4  2  0  0  0  0
  4  5  1  0  0  0  0
  5  6  2  0  0  0  0
  5 27  1  0  0  0  0
  6  7  1  0  0  0  0
  6 28  1  0  0  0  0
  7  8  2  0  0  0  0
  7 29  1  0  0  0  0
  8  9  1  0  0  0  0
  9 10  1  0  0  0  0
  9 30  1  0  0  0  0
 10 11  2  0  0  0  0
 10 12  1  0  0  0  0
 12 13  1  0  0  0  0
 12 31  1  0  0  0  0
 13 23  1  0  0  0  0
 13 14  1  0  0  0  0
 13 32  1  0  0  0  0
 14 15  1  0  0  0  0
 14 33  1  0  0  0  0
 14 34  1  0  0  0  0
 15 16  1  0  0  0  0
 15 35  1  0  0  0  0
 15 36  1  0  0  0  0
 16 17  1  0  0  0  0
 16 22  1  0  0  0  0
 17 18  2  0  0  0  0
 17 19  1  0  0  0  0
 19 21  1  0  0  0  0
 19 20  1  0  0  0  0
 19 37  1  0  0  0  0
 20 21  1  0  0  0  0
 20 38  1  0  0  0  0
 20 39  1  0  0  0  0
 21 40  1  0  0  0  0
 21 41  1  0  0  0  0
 22 23  1  0  0  0  0
 22 42  1  0  0  0  0
 22 43  1  0  0  0  0
 23 44  1  0  0  0  0
 23 45  1  0  0  0  0
M  END
> <s_m_source_file>
AV-unprocessed.smi

> <i_m_source_file_index>
1148

> <i_lp_mmshare_version>
43012

> <i_f3d_flags>
0

> <s_epik_input>
W0NIM11PYzFuW2NIXVtjSF1bY0hdYzFbTkhdQyg9TylbTkhdW0NIXTJbQ0gyXVtDSDJdTihbQ0gyXVtDSDJdMilDKD1PKVtDSF0zW0NIMl1bQ0gyXTM=

> <s_epik_cmdline>
J2VwaWtfcHl0aG9uJywgJy1waCcsICc3LjAnLCAnLXRuJywgJzgnLCAnLW1hJywgJzIwMCcsICctbWV0YWxfYmluZGluZycsICctaW1hZScsICc8aW5maWxlLm1hZT4nLCAnLW9tYWUnLCAnPG91dGZpbGUubWFlPic=

> <r_lp_tautomer_probability>
1

> <r_epik_Ionization_Penalty>
9.48164e-05

> <r_epik_Ionization_Penalty_Charging>
0

> <r_epik_Ionization_Penalty_Neutral>
9.48164e-05

> <r_epik_State_Penalty>
-0

> <r_epik_Charging_Adjusted_Penalty>
0

> <i_epik_Tot_Q>
0

> <i_epik_Tot_abs_Q>
0

> <r_epik_Metal_State_Penalty>
-0

> <b_epik_Metal_Only>
0

> <s_lp_Force_Field>
OPLS_2005

> <r_lp_Energy>
31.242

> <b_lp_Chiralities_Consistent>
1

> <s_lp_Variant>
AV-unprocessed.smi:1148-1

> <Gold.Version>
5.8.1

> <Gold.Id.Protein>
6NUR|6NUR_protein|mol2

> <Gold.PLP.Fitness>
46.5567

> <Gold.PLP.PLP>
-36.1239

> <Gold.PLP.part.hbond>
-5.8020

> <Gold.PLP.part.metal>
0.0000

> <Gold.PLP.part.buried>
3.0989

> <Gold.PLP.part.nonpolar>
-32.6301

> <Gold.PLP.part.repulsive>
0.5788

> <Gold.PLP.ligand.clash>
0.0958

> <Gold.PLP.ligand.torsion>
0.6976

> <Gold.PLP.Chemscore.Hbond>
3.9360

> <Gold.PLP.Chemscore.CHOScore>
0.0000

> <Gold.PLP.Chemscore.Metal>
0.0000

> <Gold.Chemscore.Hbonds>
donor molecule, donor type, donor heavy atom, donor atom, acceptor molecule, acceptor atom, score
      L1  H     9    30       P1  7948  0.91
      L1  H    12    31       P1  7948  0.98
      P1  H  7997  8008       L1    18  1.00
      P1  H 10752 10763       L1    11  1.00

> <Gold.PLP.Chemscore.Internal.Correction>
0.1158

> <Gold.Rescore>
     Score         DG    S(hbond)    S(metal)    S(lipo)     H(rot)  DE(clash)    DE(int)     intcor
     14.95     -20.97       2.85        0.00      82.95       1.46       1.51       4.52       ----

> <Gold.Chemscore.Fitness>
14.9450

> <Gold.Chemscore.DG>
-20.9727

> <Gold.Chemscore.ZeroCoef>
-5.4800

> <Gold.Chemscore.Hbond>
2.8491

> <Gold.Chemscore.Metal>
0.0000

> <Gold.Chemscore.Lipo>
82.9502

> <Gold.Chemscore.Internal_Hbond>
0.0000

> <Gold.Chemscore.DEClash>
1.5074

> <Gold.Chemscore.DEInternal>
4.5203

> <Gold.Chemscore.Rot>
1.4564

> <Gold.Chemscore.Internal.Correction>
   9.000000E+99

> <Gold.Chemscore.Hbonds>
donor molecule, donor type, donor heavy atom, donor atom, acceptor molecule, acceptor atom, score
      L1  H     9    30       P1  7948  0.20
      L1  H    12    31       P1  7948  0.56
      P1  H  7997  8008       L1    18  0.85
      P1  H 10752 10763       L1    11  0.24

> <Gold.Chemscore.Hbond.Weighted>
-9.5160

> <Gold.Chemscore.Metal.Weighted>
-0.0000

> <Gold.Chemscore.Lipo.Weighted>
-9.7052

> <Gold.Chemscore.Internal_Hbond.Weighted>
0.0000

> <Gold.Chemscore.DEClash.Weighted>
1.5074

> <Gold.Chemscore.DEInternal.Weighted>
4.5203

> <Gold.Chemscore.Rot.Weighted>
3.7285

> <Gold.Chemscore.Internal.Correction.Weighted>
   9.000000E+99

> <Gold.Protein.RotatedTorsions>
[ 6907 6896 6895 6894 ] final   96.92 input  -60.11 | X-H torsion
[ 7974 7965 7964 7962 ] final   42.63 input  175.53 | X-H torsion
[ 8008 7997 7996 7995 ] final  -95.44 input   59.86 | X-H torsion
[ 10167 10162 10161 10158 ] final -113.86 input  -65.29 | X-H torsion
[ 10718 10713 10712 10709 ] final   15.48 input   66.30 | X-H torsion
[ 10763 10752 10751 10750 ] final   74.45 input  -60.55 | X-H torsion
[ 11005 11000 10999 10996 ] final   92.38 input  -57.11 | X-H torsion

> <Gold.Protein.ActiveResidues>
 VAL166  LYS551  ARG553  GLY616  TRP617  ASP618  TYR619  PRO620  LYS621  CYS622 
 ASP623  PHE694  ASN695  SER759  ASP760  ASP761  ALA762  ILE779  LEU786  VAL792 
 PHE793  MET794  SER795  GLU796  ALA797  LYS798  CYS799  TRP800  GLU811  SER814 

> <Gold.Protein.RotatedAtoms>
  152.5430  134.0813  159.8236 H   0  0  0  0  0  0  0  0  0  0  0  0  # atno 6907 bound_to 6896
  151.0914  133.5305  159.2622 H   0  0  0  0  0  0  0  0  0  0  0  0  # atno 6908 bound_to 6896
  151.2095  135.0484  159.8959 H   0  0  0  0  0  0  0  0  0  0  0  0  # atno 6909 bound_to 6896
  146.0724  139.5278  142.9589 H   0  0  0  0  0  0  0  0  0  0  0  0  # atno 7974 bound_to 7965
  154.7614  140.0480  157.0977 H   0  0  0  0  0  0  0  0  0  0  0  0  # atno 8008 bound_to 7997
  154.9933  140.3116  155.4878 H   0  0  0  0  0  0  0  0  0  0  0  0  # atno 8009 bound_to 7997
  156.2905  140.2215  156.5038 H   0  0  0  0  0  0  0  0  0  0  0  0  # atno 8010 bound_to 7997
  140.1072  143.4560  152.1775 H   0  0  0  0  0  0  0  0  0  0  0  0  # atno 10167 bound_to 10162
  157.0541  130.6282  149.5773 H   0  0  0  0  0  0  0  0  0  0  0  0  # atno 10718 bound_to 10713
  153.0588  135.5025  154.8045 H   0  0  0  0  0  0  0  0  0  0  0  0  # atno 10763 bound_to 10752
  154.6850  135.2974  154.9563 H   0  0  0  0  0  0  0  0  0  0  0  0  # atno 10764 bound_to 10752
  154.0336  135.6726  153.4836 H   0  0  0  0  0  0  0  0  0  0  0  0  # atno 10765 bound_to 10752
  139.8824  134.8729  156.3564 H   0  0  0  0  0  0  0  0  0  0  0  0  # atno 11005 bound_to 11000
  145.6368  141.0293  143.1833 LP  0  0  0  0  0  0  0  0  0  0  0  0  # atno 17320 bound_to 7965
  144.7240  139.7937  143.7372 LP  0  0  0  0  0  0  0  0  0  0  0  0  # atno 17321 bound_to 7965
  139.5639  144.7423  151.4078 LP  0  0  0  0  0  0  0  0  0  0  0  0  # atno 17342 bound_to 10162
  140.6945  143.7781  150.7306 LP  0  0  0  0  0  0  0  0  0  0  0  0  # atno 17343 bound_to 10162
  155.9998  130.5075  150.7621 LP  0  0  0  0  0  0  0  0  0  0  0  0  # atno 17370 bound_to 10713
  157.5006  131.0918  151.0318 LP  0  0  0  0  0  0  0  0  0  0  0  0  # atno 17371 bound_to 10713
  140.9559  133.7420  156.0335 LP  0  0  0  0  0  0  0  0  0  0  0  0  # atno 17394 bound_to 11000
  140.8049  134.3467  157.5429 LP  0  0  0  0  0  0  0  0  0  0  0  0  # atno 17395 bound_to 11000

$$$$
