AV-unprocessed.smi:902|AV-procd|sdf|4094|dock7
  -GOLD-   22720 1583D 1   1.00000     0.00000
 Structure written by MMmdl.
 42 44  0  0  0  0  0  0  0  0  1 V2000
  151.6933  137.8035  154.3131 C   0  0  0  0  0  0  0  0  0  0  0  0
  150.9658  138.9836  154.7376 N   0  0  0  0  0  0  0  0  0  0  0  0
  151.5358  139.8560  155.5956 N   0  0  0  0  0  0  0  0  0  0  0  0
  150.6293  140.8114  155.7784 C   0  0  0  0  0  0  0  0  0  0  0  0
  150.9338  141.9683  156.6917 C   0  0  0  0  0  0  0  0  0  0  0  0
  151.9910  141.8297  157.7966 C   0  0  0  0  0  0  0  0  0  0  0  0
  151.1204  142.7268  158.6827 C   0  0  0  0  0  0  0  0  0  0  0  0
  149.9319  142.3878  157.7768 C   0  0  0  0  0  0  0  0  0  0  0  0
  149.4351  140.5814  155.0348 C   0  0  0  0  0  0  0  0  0  0  0  0
  149.7024  139.4054  154.3891 C   0  0  0  0  0  0  0  0  0  0  0  0
  148.9172  138.7038  153.5295 N   0  0  0  0  0  0  0  0  0  0  0  0
  147.6032  138.8455  153.2838 C   0  0  0  0  0  0  0  0  0  0  0  0
  146.8572  139.6584  153.8303 O   0  0  0  0  0  0  0  0  0  0  0  0
  147.1921  137.9760  152.3502 N   0  0  0  0  0  0  0  0  0  0  0  0
  145.8348  137.8933  151.8224 C   0  0  0  0  0  0  0  0  0  0  0  0
  145.1021  136.5676  152.0241 C   0  0  0  0  0  0  0  0  0  0  0  0
  145.4359  135.5428  150.9440 C   0  0  0  0  0  0  0  0  0  0  0  0
  145.1186  136.0223  149.6536 O   0  0  0  0  0  0  0  0  0  0  0  0
  144.9498  136.0671  153.4476 C   0  0  0  0  0  0  0  0  0  0  0  0
  143.7399  136.5415  152.6873 C   0  0  0  0  0  0  0  0  0  0  0  0
  151.0568  136.9236  154.4105 H   0  0  0  0  0  0  0  0  0  0  0  0
  152.5846  137.6614  154.9258 H   0  0  0  0  0  0  0  0  0  0  0  0
  151.9922  137.9152  153.2709 H   0  0  0  0  0  0  0  0  0  0  0  0
  151.1776  142.8448  156.0880 H   0  0  0  0  0  0  0  0  0  0  0  0
  152.0745  140.8135  158.1854 H   0  0  0  0  0  0  0  0  0  0  0  0
  152.9676  142.2446  157.5456 H   0  0  0  0  0  0  0  0  0  0  0  0
  151.0181  142.3871  159.7137 H   0  0  0  0  0  0  0  0  0  0  0  0
  151.4052  143.7786  158.6280 H   0  0  0  0  0  0  0  0  0  0  0  0
  149.3032  143.2379  157.5112 H   0  0  0  0  0  0  0  0  0  0  0  0
  149.3403  141.5545  158.1591 H   0  0  0  0  0  0  0  0  0  0  0  0
  148.5454  141.1913  154.9954 H   0  0  0  0  0  0  0  0  0  0  0  0
  149.3919  137.9856  153.0028 H   0  0  0  0  0  0  0  0  0  0  0  0
  147.8728  137.3445  151.9543 H   0  0  0  0  0  0  0  0  0  0  0  0
  145.2505  138.6804  152.2997 H   0  0  0  0  0  0  0  0  0  0  0  0
  145.8482  138.1409  150.7594 H   0  0  0  0  0  0  0  0  0  0  0  0
  146.4930  135.2797  150.9914 H   0  0  0  0  0  0  0  0  0  0  0  0
  144.8683  134.6274  151.1139 H   0  0  0  0  0  0  0  0  0  0  0  0
  145.5336  135.4634  149.0143 H   0  0  0  0  0  0  0  0  0  0  0  0
  145.0363  134.9976  153.6294 H   0  0  0  0  0  0  0  0  0  0  0  0
  145.3121  136.7026  154.2534 H   0  0  0  0  0  0  0  0  0  0  0  0
  143.3014  137.4917  152.9852 H   0  0  0  0  0  0  0  0  0  0  0  0
  143.0298  135.7885  152.3511 H   0  0  0  0  0  0  0  0  0  0  0  0
  1  2  1  0  0  0  0
  1 21  1  0  0  0  0
  1 22  1  0  0  0  0
  1 23  1  0  0  0  0
  2 10  1  0  0  0  0
  2  3  1  0  0  0  0
  3  4  2  0  0  0  0
  4  5  1  0  0  0  0
  4  9  1  0  0  0  0
  5  8  1  0  0  0  0
  5  6  1  0  0  0  0
  5 24  1  0  0  0  0
  6  7  1  0  0  0  0
  6 25  1  0  0  0  0
  6 26  1  0  0  0  0
  7  8  1  0  0  0  0
  7 27  1  0  0  0  0
  7 28  1  0  0  0  0
  8 29  1  0  0  0  0
  8 30  1  0  0  0  0
  9 10  2  0  0  0  0
  9 31  1  0  0  0  0
 10 11  1  0  0  0  0
 11 12  1  0  0  0  0
 11 32  1  0  0  0  0
 12 13  2  0  0  0  0
 12 14  1  0  0  0  0
 14 15  1  0  0  0  0
 14 33  1  0  0  0  0
 15 16  1  0  0  0  0
 15 34  1  0  0  0  0
 15 35  1  0  0  0  0
 16 20  1  0  0  0  0
 16 17  1  0  0  0  0
 16 19  1  0  0  0  0
 17 18  1  0  0  0  0
 17 36  1  0  0  0  0
 17 37  1  0  0  0  0
 18 38  1  0  0  0  0
 19 20  1  0  0  0  0
 19 39  1  0  0  0  0
 19 40  1  0  0  0  0
 20 41  1  0  0  0  0
 20 42  1  0  0  0  0
M  END
> <s_m_source_file>
AV-unprocessed.smi

> <i_m_source_file_index>
902

> <i_lp_mmshare_version>
43012

> <i_f3d_flags>
0

> <s_epik_input>
W0NIMl0xW0NIMl1bQ0gyXVtDSF0xYyhubjJbQ0gzXSlbY0hdYzJbTkhdQyg9TylbTkhdW0NIMl1DMyhbQ0gyXVtPSF0pW0NIMl1bQ0gyXTM=

> <s_epik_cmdline>
J2VwaWtfcHl0aG9uJywgJy1waCcsICc3LjAnLCAnLXRuJywgJzgnLCAnLW1hJywgJzIwMCcsICctbWV0YWxfYmluZGluZycsICctaW1hZScsICc8aW5maWxlLm1hZT4nLCAnLW9tYWUnLCAnPG91dGZpbGUubWFlPic=

> <r_lp_tautomer_probability>
1

> <r_epik_Ionization_Penalty>
9.68756e-05

> <r_epik_Ionization_Penalty_Charging>
0

> <r_epik_Ionization_Penalty_Neutral>
9.68756e-05

> <r_epik_State_Penalty>
-0

> <r_epik_Charging_Adjusted_Penalty>
0

> <i_epik_Tot_Q>
0

> <i_epik_Tot_abs_Q>
0

> <r_epik_Metal_State_Penalty>
-0

> <b_epik_Metal_Only>
0

> <s_lp_Force_Field>
OPLS_2005

> <r_lp_Energy>
26.4992

> <b_lp_Chiralities_Consistent>
1

> <s_lp_Variant>
AV-unprocessed.smi:902-1

> <Gold.Version>
5.8.1

> <Gold.Id.Protein>
6NUR|6NUR_protein|mol2

> <Gold.PLP.Fitness>
44.6317

> <Gold.PLP.PLP>
-37.7637

> <Gold.PLP.part.hbond>
-4.9500

> <Gold.PLP.part.metal>
0.0000

> <Gold.PLP.part.buried>
-3.4005

> <Gold.PLP.part.nonpolar>
-30.9179

> <Gold.PLP.part.repulsive>
0.3068

> <Gold.PLP.ligand.clash>
0.0000

> <Gold.PLP.ligand.torsion>
1.2667

> <Gold.PLP.Chemscore.Hbond>
2.6895

> <Gold.PLP.Chemscore.CHOScore>
0.0000

> <Gold.PLP.Chemscore.Metal>
0.0000

> <Gold.Chemscore.Hbonds>
donor molecule, donor type, donor heavy atom, donor atom, acceptor molecule, acceptor atom, score
      L1  H    11    32       P1  7948  0.69
      L1  H    14    33       P1  7948  0.99
      L1  H    18    38       P1  7921  1.00

> <Gold.PLP.Chemscore.Internal.Correction>
1.3329

> <Gold.Rescore>
     Score         DG    S(hbond)    S(metal)    S(lipo)     H(rot)  DE(clash)    DE(int)     intcor
     14.59     -17.39       2.75        0.00      72.77       2.26       0.75       2.05       ----

> <Gold.Chemscore.Fitness>
14.5880

> <Gold.Chemscore.DG>
-17.3884

> <Gold.Chemscore.ZeroCoef>
-5.4800

> <Gold.Chemscore.Hbond>
2.7503

> <Gold.Chemscore.Metal>
0.0000

> <Gold.Chemscore.Lipo>
72.7745

> <Gold.Chemscore.Internal_Hbond>
0.0000

> <Gold.Chemscore.DEClash>
0.7546

> <Gold.Chemscore.DEInternal>
2.0458

> <Gold.Chemscore.Rot>
2.2626

> <Gold.Chemscore.Internal.Correction>
   9.000000E+99

> <Gold.Chemscore.Hbonds>
donor molecule, donor type, donor heavy atom, donor atom, acceptor molecule, acceptor atom, score
      L1  H    11    32       P1  7948  0.61
      L1  H    14    33       P1  7948  0.92
      L1  H    18    38       P1  7921  0.99

> <Gold.Chemscore.Hbond.Weighted>
-9.1860

> <Gold.Chemscore.Metal.Weighted>
-0.0000

> <Gold.Chemscore.Lipo.Weighted>
-8.5146

> <Gold.Chemscore.Internal_Hbond.Weighted>
0.0000

> <Gold.Chemscore.DEClash.Weighted>
0.7546

> <Gold.Chemscore.DEInternal.Weighted>
2.0458

> <Gold.Chemscore.Rot.Weighted>
5.7922

> <Gold.Chemscore.Internal.Correction.Weighted>
   9.000000E+99

> <Gold.Protein.RotatedTorsions>
[ 6907 6896 6895 6894 ] final  103.48 input  -60.11 | X-H torsion
[ 7974 7965 7964 7962 ] final  115.32 input  175.53 | X-H torsion
[ 8008 7997 7996 7995 ] final  -24.38 input   59.86 | X-H torsion
[ 10167 10162 10161 10158 ] final  -43.71 input  -65.29 | X-H torsion
[ 10718 10713 10712 10709 ] final  172.62 input   66.30 | X-H torsion
[ 10763 10752 10751 10750 ] final  -35.93 input  -60.55 | X-H torsion
[ 11005 11000 10999 10996 ] final   54.55 input  -57.11 | X-H torsion

> <Gold.Protein.ActiveResidues>
 VAL166  LYS551  ARG553  GLY616  TRP617  ASP618  TYR619  PRO620  LYS621  CYS622 
 ASP623  PHE694  ASN695  SER759  ASP760  ASP761  ALA762  ILE779  LEU786  VAL792 
 PHE793  MET794  SER795  GLU796  ALA797  LYS798  CYS799  TRP800  GLU811  SER814 

> <Gold.Protein.RotatedAtoms>
  152.5294  133.9819  159.7810 H   0  0  0  0  0  0  0  0  0  0  0  0  # atno 6907 bound_to 6896
  151.0071  133.5992  159.2694 H   0  0  0  0  0  0  0  0  0  0  0  0  # atno 6908 bound_to 6896
  151.3080  135.0793  159.9315 H   0  0  0  0  0  0  0  0  0  0  0  0  # atno 6909 bound_to 6896
  145.1935  139.2988  143.4356 H   0  0  0  0  0  0  0  0  0  0  0  0  # atno 7974 bound_to 7965
  154.4532  140.1955  156.0456 H   0  0  0  0  0  0  0  0  0  0  0  0  # atno 8008 bound_to 7997
  156.0692  140.3286  155.7528 H   0  0  0  0  0  0  0  0  0  0  0  0  # atno 8009 bound_to 7997
  155.5289  140.0576  157.2883 H   0  0  0  0  0  0  0  0  0  0  0  0  # atno 8010 bound_to 7997
  140.6924  143.2968  151.3391 H   0  0  0  0  0  0  0  0  0  0  0  0  # atno 10167 bound_to 10162
  156.9763  131.0105  151.2893 H   0  0  0  0  0  0  0  0  0  0  0  0  # atno 10718 bound_to 10713
  153.8713  135.6830  153.4774 H   0  0  0  0  0  0  0  0  0  0  0  0  # atno 10763 bound_to 10752
  153.1285  135.4708  154.9309 H   0  0  0  0  0  0  0  0  0  0  0  0  # atno 10764 bound_to 10752
  154.7712  135.3239  154.8135 H   0  0  0  0  0  0  0  0  0  0  0  0  # atno 10765 bound_to 10752
  140.0678  134.5513  155.9080 H   0  0  0  0  0  0  0  0  0  0  0  0  # atno 11005 bound_to 11000
  146.3431  140.2155  142.8590 LP  0  0  0  0  0  0  0  0  0  0  0  0  # atno 17320 bound_to 7965
  145.0018  140.8638  143.5277 LP  0  0  0  0  0  0  0  0  0  0  0  0  # atno 17321 bound_to 7965
  139.6340  144.0665  152.2500 LP  0  0  0  0  0  0  0  0  0  0  0  0  # atno 17342 bound_to 10162
  140.0149  144.6196  150.7615 LP  0  0  0  0  0  0  0  0  0  0  0  0  # atno 17343 bound_to 10162
  157.5557  130.8212  149.8201 LP  0  0  0  0  0  0  0  0  0  0  0  0  # atno 17370 bound_to 10713
  156.0262  130.3779  150.1816 LP  0  0  0  0  0  0  0  0  0  0  0  0  # atno 17371 bound_to 10713
  141.1999  133.6610  156.5871 LP  0  0  0  0  0  0  0  0  0  0  0  0  # atno 17394 bound_to 11000
  140.3673  134.7636  157.4575 LP  0  0  0  0  0  0  0  0  0  0  0  0  # atno 17395 bound_to 11000

$$$$
