AV-unprocessed.smi:2809|AV-procd|sdf|10825|dock9
  -GOLD-   2272015263D 1   1.00000     0.00000
 Structure written by MMmdl.
 44 45  0  0  0  0  0  0  0  0  1 V2000
  150.0229  145.4209  160.0782 C   0  0  0  0  0  0  0  0  0  0  0  0
  151.5410  145.4874  159.8780 C   0  0  0  0  0  0  0  0  0  0  0  0
  152.2133  144.1521  160.1345 C   0  0  0  0  0  0  0  0  0  0  0  0
  152.3262  143.6526  161.4473 C   0  0  0  0  0  0  0  0  0  0  0  0
  152.9478  142.4108  161.6797 C   0  0  0  0  0  0  0  0  0  0  0  0
  153.4625  141.6490  160.6109 C   0  0  0  0  0  0  0  0  0  0  0  0
  154.0513  140.4443  160.9291 O   0  0  0  0  0  0  0  0  0  0  0  0
  154.6357  140.2981  162.2167 C   0  0  0  0  0  0  0  0  0  0  0  0
  155.0733  138.8365  162.3970 C   0  0  2  0  0  0  0  0  0  0  0  0
  156.1985  138.6327  161.5659 O   0  0  0  0  0  0  0  0  0  0  0  0
  153.9631  137.8426  161.9861 C   0  0  0  0  0  0  0  0  0  0  0  0
  154.1428  136.5196  162.6061 N   0  0  0  0  0  0  0  0  0  0  0  0
  154.2303  136.4955  164.0073 C   0  0  0  0  0  0  0  0  0  0  0  0
  154.3934  135.3905  164.6585 N   0  0  0  0  0  0  0  0  0  0  0  0
  154.4850  134.1798  163.9658 C   0  0  0  0  0  0  0  0  0  0  0  0
  154.6791  132.9445  164.8269 C   0  0  0  0  0  0  0  0  0  0  0  0
  154.4013  134.1340  162.6080 C   0  0  0  0  0  0  0  0  0  0  0  0
  154.4889  132.8448  161.8006 C   0  0  0  0  0  0  0  0  0  0  0  0
  154.2130  135.3836  161.8532 C   0  0  0  0  0  0  0  0  0  0  0  0
  154.1206  135.4153  160.6245 O   0  0  0  0  0  0  0  0  0  0  0  0
  153.3470  142.1572  159.2925 C   0  0  0  0  0  0  0  0  0  0  0  0
  152.7266  143.3998  159.0592 C   0  0  0  0  0  0  0  0  0  0  0  0
  149.5634  146.3908  159.8872 H   0  0  0  0  0  0  0  0  0  0  0  0
  149.7724  145.1285  161.0983 H   0  0  0  0  0  0  0  0  0  0  0  0
  149.5671  144.6983  159.4006 H   0  0  0  0  0  0  0  0  0  0  0  0
  151.7665  145.8100  158.8608 H   0  0  0  0  0  0  0  0  0  0  0  0
  151.9681  146.2413  160.5404 H   0  0  0  0  0  0  0  0  0  0  0  0
  151.9355  144.2188  162.2802 H   0  0  0  0  0  0  0  0  0  0  0  0
  153.0288  142.0372  162.6902 H   0  0  0  0  0  0  0  0  0  0  0  0
  155.4935  140.9630  162.3318 H   0  0  0  0  0  0  0  0  0  0  0  0
  153.8981  140.5593  162.9778 H   0  0  0  0  0  0  0  0  0  0  0  0
  155.3763  138.6862  163.4340 H   0  0  0  0  0  0  0  0  0  0  0  0
  156.9452  139.0555  161.9615 H   0  0  0  0  0  0  0  0  0  0  0  0
  152.9916  138.2302  162.2982 H   0  0  0  0  0  0  0  0  0  0  0  0
  153.8847  137.7847  160.8982 H   0  0  0  0  0  0  0  0  0  0  0  0
  154.1483  137.4656  164.5006 H   0  0  0  0  0  0  0  0  0  0  0  0
  155.6229  132.4554  164.5844 H   0  0  0  0  0  0  0  0  0  0  0  0
  153.8672  132.2348  164.6669 H   0  0  0  0  0  0  0  0  0  0  0  0
  154.6966  133.1978  165.8876 H   0  0  0  0  0  0  0  0  0  0  0  0
  153.5631  132.6857  161.2468 H   0  0  0  0  0  0  0  0  0  0  0  0
  154.6594  131.9630  162.4160 H   0  0  0  0  0  0  0  0  0  0  0  0
  155.3071  132.9046  161.0824 H   0  0  0  0  0  0  0  0  0  0  0  0
  153.7271  141.6130  158.4415 H   0  0  0  0  0  0  0  0  0  0  0  0
  152.6436  143.7736  158.0492 H   0  0  0  0  0  0  0  0  0  0  0  0
  1  2  1  0  0  0  0
  1 23  1  0  0  0  0
  1 24  1  0  0  0  0
  1 25  1  0  0  0  0
  2  3  1  0  0  0  0
  2 26  1  0  0  0  0
  2 27  1  0  0  0  0
  3 22  1  0  0  0  0
  3  4  2  0  0  0  0
  4  5  1  0  0  0  0
  4 28  1  0  0  0  0
  5  6  2  0  0  0  0
  5 29  1  0  0  0  0
  6  7  1  0  0  0  0
  6 21  1  0  0  0  0
  7  8  1  0  0  0  0
  8  9  1  0  0  0  0
  8 30  1  0  0  0  0
  8 31  1  0  0  0  0
  9 10  1  0  0  0  0
  9 11  1  0  0  0  0
  9 32  1  0  0  0  0
 10 33  1  0  0  0  0
 11 12  1  0  0  0  0
 11 34  1  0  0  0  0
 11 35  1  0  0  0  0
 12 19  1  0  0  0  0
 12 13  1  0  0  0  0
 13 14  2  0  0  0  0
 13 36  1  0  0  0  0
 14 15  1  0  0  0  0
 15 16  1  0  0  0  0
 15 17  2  0  0  0  0
 16 37  1  0  0  0  0
 16 38  1  0  0  0  0
 16 39  1  0  0  0  0
 17 18  1  0  0  0  0
 17 19  1  0  0  0  0
 18 40  1  0  0  0  0
 18 41  1  0  0  0  0
 18 42  1  0  0  0  0
 19 20  2  0  0  0  0
 21 22  2  0  0  0  0
 21 43  1  0  0  0  0
 22 44  1  0  0  0  0
M  END
> <s_m_source_file>
AV-unprocessed.smi

> <i_m_source_file_index>
2809

> <i_lp_mmshare_version>
43012

> <i_f3d_flags>
0

> <s_epik_input>
W0NIM11bQ0gyXWMxW2NIXVtjSF1jKFtjSF1bY0hdMSlPW0NIMl1bQ0BIXShbT0hdKVtDSDJdbjJbY0hdbmMoW0NIM10pYyhbQ0gzXSljMj1P

> <s_epik_cmdline>
J2VwaWtfcHl0aG9uJywgJy1waCcsICc3LjAnLCAnLXRuJywgJzgnLCAnLW1hJywgJzIwMCcsICctbWV0YWxfYmluZGluZycsICctaW1hZScsICc8aW5maWxlLm1hZT4nLCAnLW9tYWUnLCAnPG91dGZpbGUubWFlPic=

> <r_lp_tautomer_probability>
1

> <r_epik_Ionization_Penalty>
3.74127e-05

> <r_epik_Ionization_Penalty_Charging>
8.43242e-08

> <r_epik_Ionization_Penalty_Neutral>
3.73284e-05

> <r_epik_State_Penalty>
-0

> <r_epik_Charging_Adjusted_Penalty>
8.43242e-08

> <i_epik_Tot_Q>
0

> <i_epik_Tot_abs_Q>
0

> <r_epik_Metal_State_Penalty>
-0

> <b_epik_Metal_Only>
0

> <s_lp_Force_Field>
OPLS_2005

> <r_lp_Energy>
22.1893

> <b_lp_Chiralities_Consistent>
1

> <s_lp_Variant>
AV-unprocessed.smi:2809-1

> <Gold.Version>
5.8.1

> <Gold.Id.Protein>
6NUR|6NUR_protein|mol2

> <Gold.PLP.Fitness>
51.9272

> <Gold.PLP.PLP>
-50.7393

> <Gold.PLP.part.hbond>
-0.9085

> <Gold.PLP.part.metal>
0.0000

> <Gold.PLP.part.buried>
-5.2666

> <Gold.PLP.part.nonpolar>
-45.9971

> <Gold.PLP.part.repulsive>
0.1506

> <Gold.PLP.ligand.clash>
0.0000

> <Gold.PLP.ligand.torsion>
0.8282

> <Gold.PLP.Chemscore.Hbond>
0.9100

> <Gold.PLP.Chemscore.CHOScore>
0.0000

> <Gold.PLP.Chemscore.Metal>
0.0000

> <Gold.Chemscore.Hbonds>
donor molecule, donor type, donor heavy atom, donor atom, acceptor molecule, acceptor atom, score
      P1  H  6896  6907       L1    20  1.00

> <Gold.PLP.Chemscore.Internal.Correction>
0.1143

> <Gold.Rescore>
     Score         DG    S(hbond)    S(metal)    S(lipo)     H(rot)  DE(clash)    DE(int)     intcor
     16.93     -17.98       0.97        0.00     133.09       2.47       0.27       0.79       ----

> <Gold.Chemscore.Fitness>
16.9280

> <Gold.Chemscore.DG>
-17.9837

> <Gold.Chemscore.ZeroCoef>
-5.4800

> <Gold.Chemscore.Hbond>
0.9713

> <Gold.Chemscore.Metal>
0.0000

> <Gold.Chemscore.Lipo>
133.0911

> <Gold.Chemscore.Internal_Hbond>
0.0000

> <Gold.Chemscore.DEClash>
0.2690

> <Gold.Chemscore.DEInternal>
0.7867

> <Gold.Chemscore.Rot>
2.4657

> <Gold.Chemscore.Internal.Correction>
   9.000000E+99

> <Gold.Chemscore.Hbonds>
donor molecule, donor type, donor heavy atom, donor atom, acceptor molecule, acceptor atom, score
      P1  H  6896  6907       L1    20  0.82

> <Gold.Chemscore.Hbond.Weighted>
-3.2441

> <Gold.Chemscore.Metal.Weighted>
-0.0000

> <Gold.Chemscore.Lipo.Weighted>
-15.5717

> <Gold.Chemscore.Internal_Hbond.Weighted>
0.0000

> <Gold.Chemscore.DEClash.Weighted>
0.2690

> <Gold.Chemscore.DEInternal.Weighted>
0.7867

> <Gold.Chemscore.Rot.Weighted>
6.3121

> <Gold.Chemscore.Internal.Correction.Weighted>
   9.000000E+99

> <Gold.Protein.RotatedTorsions>
[ 6907 6896 6895 6894 ] final   65.96 input  -60.11 | X-H torsion
[ 7974 7965 7964 7962 ] final  -47.20 input  175.53 | X-H torsion
[ 8008 7997 7996 7995 ] final  -75.87 input   59.86 | X-H torsion
[ 10167 10162 10161 10158 ] final -169.77 input  -65.29 | X-H torsion
[ 10718 10713 10712 10709 ] final -162.93 input   66.30 | X-H torsion
[ 10763 10752 10751 10750 ] final  -42.91 input  -60.55 | X-H torsion
[ 11005 11000 10999 10996 ] final  -88.10 input  -57.11 | X-H torsion

> <Gold.Protein.ActiveResidues>
 VAL166  LYS551  ARG553  GLY616  TRP617  ASP618  TYR619  PRO620  LYS621  CYS622 
 ASP623  PHE694  ASN695  SER759  ASP760  ASP761  ALA762  ILE779  LEU786  VAL792 
 PHE793  MET794  SER795  GLU796  ALA797  LYS798  CYS799  TRP800  GLU811  SER814 

> <Gold.Protein.RotatedAtoms>
  152.4446  134.5521  159.9869 H   0  0  0  0  0  0  0  0  0  0  0  0  # atno 6907 bound_to 6896
  151.5609  133.3397  159.2979 H   0  0  0  0  0  0  0  0  0  0  0  0  # atno 6908 bound_to 6896
  150.8359  134.7665  159.6956 H   0  0  0  0  0  0  0  0  0  0  0  0  # atno 6909 bound_to 6896
  145.9641  140.7450  142.9443 H   0  0  0  0  0  0  0  0  0  0  0  0  # atno 7974 bound_to 7965
  154.5455  140.0737  156.8581 H   0  0  0  0  0  0  0  0  0  0  0  0  # atno 8008 bound_to 7997
  155.3097  140.3389  155.4226 H   0  0  0  0  0  0  0  0  0  0  0  0  # atno 8009 bound_to 7997
  156.1914  140.1687  156.8071 H   0  0  0  0  0  0  0  0  0  0  0  0  # atno 8010 bound_to 7997
  139.5902  144.1229  152.1625 H   0  0  0  0  0  0  0  0  0  0  0  0  # atno 10167 bound_to 10162
  156.6174  130.8876  151.2950 H   0  0  0  0  0  0  0  0  0  0  0  0  # atno 10718 bound_to 10713
  153.9869  135.6710  153.4752 H   0  0  0  0  0  0  0  0  0  0  0  0  # atno 10763 bound_to 10752
  153.0723  135.4967  154.8327 H   0  0  0  0  0  0  0  0  0  0  0  0  # atno 10764 bound_to 10752
  154.7132  135.3101  154.9126 H   0  0  0  0  0  0  0  0  0  0  0  0  # atno 10765 bound_to 10752
  141.1607  133.7550  156.9402 H   0  0  0  0  0  0  0  0  0  0  0  0  # atno 11005 bound_to 11000
  144.6821  140.2639  143.7315 LP  0  0  0  0  0  0  0  0  0  0  0  0  # atno 17320 bound_to 7965
  145.7999  139.1960  143.2054 LP  0  0  0  0  0  0  0  0  0  0  0  0  # atno 17321 bound_to 7965
  140.0802  144.5707  150.7128 LP  0  0  0  0  0  0  0  0  0  0  0  0  # atno 17342 bound_to 10162
  140.7167  143.2551  151.4412 LP  0  0  0  0  0  0  0  0  0  0  0  0  # atno 17343 bound_to 10162
  157.7237  130.9593  150.1545 LP  0  0  0  0  0  0  0  0  0  0  0  0  # atno 17370 bound_to 10713
  156.2339  130.3684  149.8413 LP  0  0  0  0  0  0  0  0  0  0  0  0  # atno 17371 bound_to 10713
  140.1327  134.9345  157.2359 LP  0  0  0  0  0  0  0  0  0  0  0  0  # atno 17394 bound_to 11000
  140.2933  134.3215  155.7309 LP  0  0  0  0  0  0  0  0  0  0  0  0  # atno 17395 bound_to 11000

$$$$
