AV-unprocessed.smi:2362|AV-procd|sdf|9413|dock9
  -GOLD-   2272013 53D 1   1.00000     0.00000
 Structure written by MMmdl.
 45 46  0  0  0  0  0  0  0  0  2 V2000
  151.6590  141.9902  158.0496 C   0  0  0  0  0  0  0  0  0  0  0  0
  151.2668  140.7528  157.2694 C   0  0  0  0  0  0  0  0  0  0  0  0
  151.0432  140.8054  155.8804 C   0  0  0  0  0  0  0  0  0  0  0  0
  150.6789  139.6236  155.2067 C   0  0  0  0  0  0  0  0  0  0  0  0
  150.5481  138.4198  155.9349 C   0  0  0  0  0  0  0  0  0  0  0  0
  150.1737  137.2869  155.1635 N   0  0  0  0  0  0  0  0  0  0  0  0
  149.8751  136.0503  155.5988 C   0  0  0  0  0  0  0  0  0  0  0  0
  149.9159  135.6792  156.7719 O   0  0  0  0  0  0  0  0  0  0  0  0
  149.5072  135.2505  154.5857 N   0  0  0  0  0  0  0  0  0  0  0  0
  149.1378  133.8384  154.6989 C   0  0  2  0  0  0  0  0  0  0  0  0
  150.3217  133.0566  155.2840 C   0  0  0  0  0  0  0  0  0  0  0  0
  148.7023  133.2543  153.3344 C   0  0  0  0  0  0  0  0  0  0  0  0
  147.5223  133.9429  152.7509 N   0  3  0  0  0  0  0  0  0  0  0  0
  147.0920  133.3526  151.4574 C   0  0  0  0  0  0  0  0  0  0  0  0
  145.9765  134.1925  150.8116 C   0  0  0  0  0  0  0  0  0  0  0  0
  144.7854  134.3548  151.7650 C   0  0  0  0  0  0  0  0  0  0  0  0
  145.2615  134.9275  153.1064 C   0  0  0  0  0  0  0  0  0  0  0  0
  146.3865  134.0657  153.7027 C   0  0  0  0  0  0  0  0  0  0  0  0
  150.7636  138.3797  157.2735 N   0  0  0  0  0  0  0  0  0  0  0  0
  151.1131  139.5127  157.9185 C   0  0  0  0  0  0  0  0  0  0  0  0
  151.7774  142.8527  157.3929 H   0  0  0  0  0  0  0  0  0  0  0  0
  152.6028  141.8261  158.5701 H   0  0  0  0  0  0  0  0  0  0  0  0
  150.8946  142.2269  158.7900 H   0  0  0  0  0  0  0  0  0  0  0  0
  151.1473  141.7328  155.3365 H   0  0  0  0  0  0  0  0  0  0  0  0
  150.5036  139.6471  154.1409 H   0  0  0  0  0  0  0  0  0  0  0  0
  150.1147  137.4418  154.1678 H   0  0  0  0  0  0  0  0  0  0  0  0
  149.5038  135.6430  153.6552 H   0  0  0  0  0  0  0  0  0  0  0  0
  148.3172  133.7412  155.4110 H   0  0  0  0  0  0  0  0  0  0  0  0
  150.0645  132.0067  155.4275 H   0  0  0  0  0  0  0  0  0  0  0  0
  150.6166  133.4565  156.2549 H   0  0  0  0  0  0  0  0  0  0  0  0
  151.1916  133.0983  154.6275 H   0  0  0  0  0  0  0  0  0  0  0  0
  149.5458  133.3425  152.6477 H   0  0  0  0  0  0  0  0  0  0  0  0
  148.4949  132.1863  153.4197 H   0  0  0  0  0  0  0  0  0  0  0  0
  147.9399  133.3035  150.7731 H   0  0  0  0  0  0  0  0  0  0  0  0
  146.7518  132.3285  151.6177 H   0  0  0  0  0  0  0  0  0  0  0  0
  146.3675  135.1754  150.5446 H   0  0  0  0  0  0  0  0  0  0  0  0
  145.6488  133.7268  149.8816 H   0  0  0  0  0  0  0  0  0  0  0  0
  144.0326  135.0075  151.3218 H   0  0  0  0  0  0  0  0  0  0  0  0
  144.3068  133.3879  151.9255 H   0  0  0  0  0  0  0  0  0  0  0  0
  145.6194  135.9484  152.9644 H   0  0  0  0  0  0  0  0  0  0  0  0
  144.4260  134.9867  153.8046 H   0  0  0  0  0  0  0  0  0  0  0  0
  146.0077  133.0731  153.9512 H   0  0  0  0  0  0  0  0  0  0  0  0
  146.7218  134.5170  154.6361 H   0  0  0  0  0  0  0  0  0  0  0  0
  151.2734  139.4252  158.9832 H   0  0  0  0  0  0  0  0  0  0  0  0
  147.8247  134.8837  152.5404 H   0  0  0  0  0  0  0  0  0  0  0  0
  1  2  1  0  0  0  0
  1 21  1  0  0  0  0
  1 22  1  0  0  0  0
  1 23  1  0  0  0  0
  2 20  1  0  0  0  0
  2  3  2  0  0  0  0
  3  4  1  0  0  0  0
  3 24  1  0  0  0  0
  4  5  2  0  0  0  0
  4 25  1  0  0  0  0
  5  6  1  0  0  0  0
  5 19  1  0  0  0  0
  6  7  1  0  0  0  0
  6 26  1  0  0  0  0
  7  8  2  0  0  0  0
  7  9  1  0  0  0  0
  9 10  1  0  0  0  0
  9 27  1  0  0  0  0
 10 11  1  0  0  0  0
 10 12  1  0  0  0  0
 10 28  1  0  0  0  0
 11 29  1  0  0  0  0
 11 30  1  0  0  0  0
 11 31  1  0  0  0  0
 12 13  1  0  0  0  0
 12 32  1  0  0  0  0
 12 33  1  0  0  0  0
 13 18  1  0  0  0  0
 13 14  1  0  0  0  0
 13 45  1  0  0  0  0
 14 15  1  0  0  0  0
 14 34  1  0  0  0  0
 14 35  1  0  0  0  0
 15 16  1  0  0  0  0
 15 36  1  0  0  0  0
 15 37  1  0  0  0  0
 16 17  1  0  0  0  0
 16 38  1  0  0  0  0
 16 39  1  0  0  0  0
 17 18  1  0  0  0  0
 17 40  1  0  0  0  0
 17 41  1  0  0  0  0
 18 42  1  0  0  0  0
 18 43  1  0  0  0  0
 19 20  2  0  0  0  0
 20 44  1  0  0  0  0
M  CHG  1  13   1
M  END
> <s_m_source_file>
AV-unprocessed.smi

> <i_m_source_file_index>
2362

> <i_lp_mmshare_version>
43012

> <i_f3d_flags>
0

> <s_epik_input>
W0NIM11jMVtjSF1bY0hdYyhuW2NIXTEpW05IXUMoPU8pW05IXVtDQEhdKFtDSDNdKVtDSDJdTjJbQ0gyXVtDSDJdW0NIMl1bQ0gyXVtDSDJdMg==

> <s_epik_cmdline>
J2VwaWtfcHl0aG9uJywgJy1waCcsICc3LjAnLCAnLXRuJywgJzgnLCAnLW1hJywgJzIwMCcsICctbWV0YWxfYmluZGluZycsICctaW1hZScsICc8aW5maWxlLm1hZT4nLCAnLW9tYWUnLCAnPG91dGZpbGUubWFlPic=

> <r_epik_Ionization_Penalty>
0.00215987

> <r_epik_Ionization_Penalty_Charging>
0.00211816

> <r_epik_Ionization_Penalty_Neutral>
4.17101e-05

> <r_epik_State_Penalty>
0.00145254

> <r_epik_Charging_Adjusted_Penalty>
0.0035707

> <i_epik_Tot_Q>
1

> <i_epik_Tot_abs_Q>
1

> <r_epik_Metal_State_Penalty>
-0

> <b_epik_Metal_Only>
0

> <s_lp_Force_Field>
OPLS_2005

> <r_lp_Energy>
24.6446

> <b_lp_Chiralities_Consistent>
1

> <s_lp_Variant>
AV-unprocessed.smi:2362-1

> <Gold.Version>
5.8.1

> <Gold.Id.Protein>
6NUR|6NUR_protein|mol2

> <Gold.PLP.Fitness>
39.5129

> <Gold.PLP.PLP>
-30.5577

> <Gold.PLP.part.hbond>
-2.0000

> <Gold.PLP.part.metal>
0.0000

> <Gold.PLP.part.buried>
-3.9458

> <Gold.PLP.part.nonpolar>
-23.9796

> <Gold.PLP.part.repulsive>
0.0743

> <Gold.PLP.ligand.clash>
0.0000

> <Gold.PLP.ligand.torsion>
0.0354

> <Gold.PLP.Chemscore.Hbond>
3.0000

> <Gold.PLP.Chemscore.CHOScore>
0.0000

> <Gold.PLP.Chemscore.Metal>
0.0000

> <Gold.Chemscore.Hbonds>
donor molecule, donor type, donor heavy atom, donor atom, acceptor molecule, acceptor atom, score
      L1  H     9    27       P1  7948  1.00
      L1  H    13    45       P1  7948  2.00

> <Gold.PLP.Chemscore.Internal.Correction>
0.0261

> <Gold.Rescore>
     Score         DG    S(hbond)    S(metal)    S(lipo)     H(rot)  DE(clash)    DE(int)     intcor
     14.11     -15.47       1.74        0.00      67.31       1.44       0.01       1.35       ----

> <Gold.Chemscore.Fitness>
14.1085

> <Gold.Chemscore.DG>
-15.4677

> <Gold.Chemscore.ZeroCoef>
-5.4800

> <Gold.Chemscore.Hbond>
1.7365

> <Gold.Chemscore.Metal>
0.0000

> <Gold.Chemscore.Lipo>
67.3095

> <Gold.Chemscore.Internal_Hbond>
0.0000

> <Gold.Chemscore.DEClash>
0.0052

> <Gold.Chemscore.DEInternal>
1.3540

> <Gold.Chemscore.Rot>
1.4404

> <Gold.Chemscore.Internal.Correction>
   9.000000E+99

> <Gold.Chemscore.Hbonds>
donor molecule, donor type, donor heavy atom, donor atom, acceptor molecule, acceptor atom, score
      L1  H     9    27       P1  7948  0.25
      L1  H    13    45       P1  7948  0.89

> <Gold.Chemscore.Hbond.Weighted>
-5.8000

> <Gold.Chemscore.Metal.Weighted>
-0.0000

> <Gold.Chemscore.Lipo.Weighted>
-7.8752

> <Gold.Chemscore.Internal_Hbond.Weighted>
0.0000

> <Gold.Chemscore.DEClash.Weighted>
0.0052

> <Gold.Chemscore.DEInternal.Weighted>
1.3540

> <Gold.Chemscore.Rot.Weighted>
3.6875

> <Gold.Chemscore.Internal.Correction.Weighted>
   9.000000E+99

> <Gold.Protein.RotatedTorsions>
[ 6907 6896 6895 6894 ] final  174.07 input  -60.11 | X-H torsion
[ 7974 7965 7964 7962 ] final  -60.44 input  175.53 | X-H torsion
[ 8008 7997 7996 7995 ] final -122.39 input   59.86 | X-H torsion
[ 10167 10162 10161 10158 ] final  148.70 input  -65.29 | X-H torsion
[ 10718 10713 10712 10709 ] final -133.16 input   66.30 | X-H torsion
[ 10763 10752 10751 10750 ] final   19.96 input  -60.55 | X-H torsion
[ 11005 11000 10999 10996 ] final  -18.21 input  -57.11 | X-H torsion

> <Gold.Protein.ActiveResidues>
 VAL166  LYS551  ARG553  GLY616  TRP617  ASP618  TYR619  PRO620  LYS621  CYS622 
 ASP623  PHE694  ASN695  SER759  ASP760  ASP761  ALA762  ILE779  LEU786  VAL792 
 PHE793  MET794  SER795  GLU796  ALA797  LYS798  CYS799  TRP800  GLU811  SER814 

> <Gold.Protein.RotatedAtoms>
  151.7582  133.3332  159.3410 H   0  0  0  0  0  0  0  0  0  0  0  0  # atno 6907 bound_to 6896
  150.7508  134.6130  159.6105 H   0  0  0  0  0  0  0  0  0  0  0  0  # atno 6908 bound_to 6896
  152.3423  134.7120  160.0312 H   0  0  0  0  0  0  0  0  0  0  0  0  # atno 6909 bound_to 6896
  145.8155  140.8572  143.0160 H   0  0  0  0  0  0  0  0  0  0  0  0  # atno 7974 bound_to 7965
  155.1635  140.0406  157.2847 H   0  0  0  0  0  0  0  0  0  0  0  0  # atno 8008 bound_to 7997
  154.6320  140.2526  155.7396 H   0  0  0  0  0  0  0  0  0  0  0  0  # atno 8009 bound_to 7997
  156.2489  140.2873  156.0676 H   0  0  0  0  0  0  0  0  0  0  0  0  # atno 8010 bound_to 7997
  139.4871  144.5659  151.7146 H   0  0  0  0  0  0  0  0  0  0  0  0  # atno 10167 bound_to 10162
  156.2420  130.7101  151.0966 H   0  0  0  0  0  0  0  0  0  0  0  0  # atno 10718 bound_to 10713
  153.1117  135.6698  153.9488 H   0  0  0  0  0  0  0  0  0  0  0  0  # atno 10763 bound_to 10752
  153.9030  135.3034  155.3450 H   0  0  0  0  0  0  0  0  0  0  0  0  # atno 10764 bound_to 10752
  154.7536  135.5022  153.9412 H   0  0  0  0  0  0  0  0  0  0  0  0  # atno 10765 bound_to 10752
  140.8245  133.8043  155.9694 H   0  0  0  0  0  0  0  0  0  0  0  0  # atno 11005 bound_to 11000
  144.6753  140.0457  143.7480 LP  0  0  0  0  0  0  0  0  0  0  0  0  # atno 17320 bound_to 7965
  145.9731  139.2885  143.1087 LP  0  0  0  0  0  0  0  0  0  0  0  0  # atno 17321 bound_to 7965
  140.5237  144.0839  150.6030 LP  0  0  0  0  0  0  0  0  0  0  0  0  # atno 17342 bound_to 10162
  140.3806  143.2805  152.0175 LP  0  0  0  0  0  0  0  0  0  0  0  0  # atno 17343 bound_to 10162
  157.7179  131.0699  150.6254 LP  0  0  0  0  0  0  0  0  0  0  0  0  # atno 17370 bound_to 10713
  156.6328  130.4436  149.5780 LP  0  0  0  0  0  0  0  0  0  0  0  0  # atno 17371 bound_to 10713
  140.9064  134.2315  157.5012 LP  0  0  0  0  0  0  0  0  0  0  0  0  # atno 17394 bound_to 11000
  139.8707  134.9730  156.4793 LP  0  0  0  0  0  0  0  0  0  0  0  0  # atno 17395 bound_to 11000

$$$$
