AV-unprocessed.smi:56|AV-procd|sdf|579|dock5
  -GOLD-   2262016483D 1   1.00000     0.00000
 Structure written by MMmdl.
 23 24  0  0  0  0  0  0  0  0  2 V2000
  146.7881  132.8232  149.7502 O   0  0  0  0  0  0  0  0  0  0  0  0
  145.7138  132.6154  150.6516 C   0  0  1  0  0  0  0  0  0  0  0  0
  145.9685  131.3884  151.4780 C   0  0  0  0  0  0  0  0  0  0  0  0
  145.2919  130.2044  151.5940 C   0  0  0  0  0  0  0  0  0  0  0  0
  146.0515  129.4555  152.5387 C   0  0  0  0  0  0  0  0  0  0  0  0
  147.1121  130.1120  152.9784 N   0  0  0  0  0  0  0  0  0  0  0  0
  147.0495  131.2882  152.3277 N   0  0  0  0  0  0  0  0  0  0  0  0
  145.4964  133.9105  151.4433 C   0  0  0  0  0  0  0  0  0  0  0  0
  144.7151  134.8185  150.4835 C   0  0  0  0  0  0  0  0  0  0  0  0
  144.0536  133.9279  149.5078 N   0  3  0  0  0  0  0  0  0  0  0  0
  144.4170  132.5356  149.8347 C   0  0  0  0  0  0  0  0  0  0  0  0
  147.7392  132.0110  152.4770 H   0  0  0  0  0  0  0  0  0  0  0  0
  147.4383  132.1513  149.8847 H   0  0  0  0  0  0  0  0  0  0  0  0
  144.3868  129.9108  151.0834 H   0  0  0  0  0  0  0  0  0  0  0  0
  145.8633  128.4608  152.9151 H   0  0  0  0  0  0  0  0  0  0  0  0
  144.8628  133.7127  152.3092 H   0  0  0  0  0  0  0  0  0  0  0  0
  146.4204  134.3582  151.8121 H   0  0  0  0  0  0  0  0  0  0  0  0
  143.9876  135.4374  151.0093 H   0  0  0  0  0  0  0  0  0  0  0  0
  145.3926  135.4812  149.9442 H   0  0  0  0  0  0  0  0  0  0  0  0
  143.0504  134.0432  149.5355 H   0  0  0  0  0  0  0  0  0  0  0  0
  144.4982  131.9089  148.9456 H   0  0  0  0  0  0  0  0  0  0  0  0
  143.6142  132.1290  150.4517 H   0  0  0  0  0  0  0  0  0  0  0  0
  144.3954  134.1515  148.5840 H   0  0  0  0  0  0  0  0  0  0  0  0
  1  2  1  0  0  0  0
  1 13  1  0  0  0  0
  2 11  1  0  0  0  0
  2  3  1  0  0  0  0
  2  8  1  0  0  0  0
  3  7  1  0  0  0  0
  3  4  2  0  0  0  0
  4  5  1  0  0  0  0
  4 14  1  0  0  0  0
  5  6  2  0  0  0  0
  5 15  1  0  0  0  0
  6  7  1  0  0  0  0
  7 12  1  0  0  0  0
  8  9  1  0  0  0  0
  8 16  1  0  0  0  0
  8 17  1  0  0  0  0
  9 10  1  0  0  0  0
  9 18  1  0  0  0  0
  9 19  1  0  0  0  0
 10 11  1  0  0  0  0
 10 20  1  0  0  0  0
 10 23  1  0  0  0  0
 11 21  1  0  0  0  0
 11 22  1  0  0  0  0
M  CHG  1  10   1
M  END
> <s_m_source_file>
AV-unprocessed.smi

> <i_m_source_file_index>
56

> <i_lp_mmshare_version>
43012

> <i_f3d_flags>
0

> <s_epik_input>
W0NIMl0xW05IXVtDSDJdW0NIMl1bQ0BAXTEoW09IXSljMltjSF1bY0hdbltuSF0y

> <s_epik_cmdline>
J2VwaWtfcHl0aG9uJywgJy1waCcsICc3LjAnLCAnLXRuJywgJzgnLCAnLW1hJywgJzIwMCcsICctbWV0YWxfYmluZGluZycsICctaW1hZScsICc8aW5maWxlLm1hZT4nLCAnLW9tYWUnLCAnPG91dGZpbGUubWFlPic=

> <r_lp_tautomer_probability>
0.5

> <r_epik_Ionization_Penalty>
0.00599842

> <r_epik_Ionization_Penalty_Charging>
0.00599115

> <r_epik_Ionization_Penalty_Neutral>
7.26593e-06

> <r_epik_State_Penalty>
0.41068

> <r_epik_Charging_Adjusted_Penalty>
0.416671

> <i_epik_Tot_Q>
1

> <i_epik_Tot_abs_Q>
1

> <r_epik_Metal_State_Penalty>
0.410678

> <b_epik_Metal_Only>
0

> <s_lp_Force_Field>
OPLS_2005

> <r_lp_Energy>
26.3948

> <b_lp_Chiralities_Consistent>
1

> <s_lp_Variant>
AV-unprocessed.smi:56-3

> <Gold.Version>
5.8.1

> <Gold.Id.Protein>
6NUR|6NUR_protein|mol2

> <Gold.PLP.Fitness>
33.7809

> <Gold.PLP.PLP>
-23.1833

> <Gold.PLP.part.hbond>
-5.8212

> <Gold.PLP.part.metal>
0.0000

> <Gold.PLP.part.buried>
-1.4825

> <Gold.PLP.part.nonpolar>
-15.9132

> <Gold.PLP.part.repulsive>
0.2162

> <Gold.PLP.ligand.clash>
0.0000

> <Gold.PLP.ligand.torsion>
0.0135

> <Gold.PLP.Chemscore.Hbond>
3.5367

> <Gold.PLP.Chemscore.CHOScore>
0.0000

> <Gold.PLP.Chemscore.Metal>
0.0000

> <Gold.Chemscore.Hbonds>
donor molecule, donor type, donor heavy atom, donor atom, acceptor molecule, acceptor atom, score
      L1  H     1    13       P1 10747  1.00
      L1  H    10    20       P1 10186  1.79
      L1  H    10    23       P1  7921  0.72

> <Gold.PLP.Chemscore.Internal.Correction>
0.0147

> <Gold.Rescore>
     Score         DG    S(hbond)    S(metal)    S(lipo)     H(rot)  DE(clash)    DE(int)     intcor
     16.66     -16.86       2.60        0.00      55.83       1.50       0.17       0.03       ----

> <Gold.Chemscore.Fitness>
16.6595

> <Gold.Chemscore.DG>
-16.8632

> <Gold.Chemscore.ZeroCoef>
-5.4800

> <Gold.Chemscore.Hbond>
2.6011

> <Gold.Chemscore.Metal>
0.0000

> <Gold.Chemscore.Lipo>
55.8262

> <Gold.Chemscore.Internal_Hbond>
0.0000

> <Gold.Chemscore.DEClash>
0.1739

> <Gold.Chemscore.DEInternal>
0.0298

> <Gold.Chemscore.Rot>
1.4985

> <Gold.Chemscore.Internal.Correction>
   9.000000E+99

> <Gold.Chemscore.Hbonds>
donor molecule, donor type, donor heavy atom, donor atom, acceptor molecule, acceptor atom, score
      L1  H     1    13       P1 10747  0.93
      L1  H    10    20       P1 10186  0.86
      L1  H    10    23       P1  7921  0.70

> <Gold.Chemscore.Hbond.Weighted>
-8.6877

> <Gold.Chemscore.Metal.Weighted>
-0.0000

> <Gold.Chemscore.Lipo.Weighted>
-6.5317

> <Gold.Chemscore.Internal_Hbond.Weighted>
0.0000

> <Gold.Chemscore.DEClash.Weighted>
0.1739

> <Gold.Chemscore.DEInternal.Weighted>
0.0298

> <Gold.Chemscore.Rot.Weighted>
3.8362

> <Gold.Chemscore.Internal.Correction.Weighted>
   9.000000E+99

> <Gold.Protein.RotatedTorsions>
[ 6907 6896 6895 6894 ] final  -99.72 input  -60.11 | X-H torsion
[ 7974 7965 7964 7962 ] final  -65.32 input  175.53 | X-H torsion
[ 8008 7997 7996 7995 ] final  130.93 input   59.86 | X-H torsion
[ 10167 10162 10161 10158 ] final   53.68 input  -65.29 | X-H torsion
[ 10718 10713 10712 10709 ] final   69.72 input   66.30 | X-H torsion
[ 10763 10752 10751 10750 ] final  145.85 input  -60.55 | X-H torsion
[ 11005 11000 10999 10996 ] final -107.28 input  -57.11 | X-H torsion

> <Gold.Protein.ActiveResidues>
 VAL166  LYS551  ARG553  GLY616  TRP617  ASP618  TYR619  PRO620  LYS621  CYS622 
 ASP623  PHE694  ASN695  SER759  ASP760  ASP761  ALA762  ILE779  LEU786  VAL792 
 PHE793  MET794  SER795  GLU796  ALA797  LYS798  CYS799  TRP800  GLU811  SER814 

> <Gold.Protein.RotatedAtoms>
  150.7090  134.0998  159.3961 H   0  0  0  0  0  0  0  0  0  0  0  0  # atno 6907 bound_to 6896
  151.8984  135.0386  160.0513 H   0  0  0  0  0  0  0  0  0  0  0  0  # atno 6908 bound_to 6896
  152.2434  133.5119  159.5320 H   0  0  0  0  0  0  0  0  0  0  0  0  # atno 6909 bound_to 6896
  145.7557  140.8886  143.0456 H   0  0  0  0  0  0  0  0  0  0  0  0  # atno 7974 bound_to 7965
  156.2962  140.2584  156.2842 H   0  0  0  0  0  0  0  0  0  0  0  0  # atno 8008 bound_to 7997
  154.9572  140.0393  157.2191 H   0  0  0  0  0  0  0  0  0  0  0  0  # atno 8009 bound_to 7997
  154.7980  140.2823  155.5947 H   0  0  0  0  0  0  0  0  0  0  0  0  # atno 8010 bound_to 7997
  140.2382  144.3612  150.6389 H   0  0  0  0  0  0  0  0  0  0  0  0  # atno 10167 bound_to 10162
  157.6361  130.9440  150.0552 H   0  0  0  0  0  0  0  0  0  0  0  0  # atno 10718 bound_to 10713
  154.0122  135.2913  155.3391 H   0  0  0  0  0  0  0  0  0  0  0  0  # atno 10763 bound_to 10752
  154.7096  135.5155  153.8650 H   0  0  0  0  0  0  0  0  0  0  0  0  # atno 10764 bound_to 10752
  153.0718  135.6650  154.0353 H   0  0  0  0  0  0  0  0  0  0  0  0  # atno 10765 bound_to 10752
  141.0962  133.8966  157.1956 H   0  0  0  0  0  0  0  0  0  0  0  0  # atno 11005 bound_to 11000
  144.6840  139.9653  143.7481 LP  0  0  0  0  0  0  0  0  0  0  0  0  # atno 17320 bound_to 7965
  146.0313  139.3337  143.0753 LP  0  0  0  0  0  0  0  0  0  0  0  0  # atno 17321 bound_to 7965
  140.6133  143.2171  151.6841 LP  0  0  0  0  0  0  0  0  0  0  0  0  # atno 17342 bound_to 10162
  139.5086  144.3605  152.0567 LP  0  0  0  0  0  0  0  0  0  0  0  0  # atno 17343 bound_to 10162
  156.1601  130.3644  149.9311 LP  0  0  0  0  0  0  0  0  0  0  0  0  # atno 17370 bound_to 10713
  156.7311  130.9043  151.3626 LP  0  0  0  0  0  0  0  0  0  0  0  0  # atno 17371 bound_to 10713
  139.9800  135.0101  156.9725 LP  0  0  0  0  0  0  0  0  0  0  0  0  # atno 17394 bound_to 11000
  140.5134  134.0979  155.7275 LP  0  0  0  0  0  0  0  0  0  0  0  0  # atno 17395 bound_to 11000

$$$$
