AV-unprocessed.smi:304|AV-procd|sdf|2277|dock8
  -GOLD-   2262022173D 1   1.00000     0.00000
 Structure written by MMmdl.
 36 38  0  0  0  0  0  0  0  0  1 V2000
  148.5362  142.4576  156.7729 O   0  0  0  0  0  0  0  0  0  0  0  0
  149.0183  141.3497  156.0379 C   0  0  1  0  0  0  0  0  0  0  0  0
  148.1624  141.1996  154.7706 C   0  0  0  0  0  0  0  0  0  0  0  0
  148.5063  139.9869  154.1214 O   0  0  0  0  0  0  0  0  0  0  0  0
  147.9772  138.8455  154.7770 C   0  0  0  0  0  0  0  0  0  0  0  0
  147.0767  138.1404  153.8134 C   0  0  0  0  0  0  0  0  0  0  0  0
  146.3710  136.9858  154.0387 C   0  0  0  0  0  0  0  0  0  0  0  0
  145.5845  136.5780  152.9213 C   0  0  0  0  0  0  0  0  0  0  0  0
  145.6924  137.4321  151.8564 C   0  0  0  0  0  0  0  0  0  0  0  0
  146.7646  138.7593  152.2075 S   0  0  0  0  0  0  0  0  0  0  0  0
  150.5050  141.5775  155.7025 C   0  0  0  0  0  0  0  0  0  0  0  0
  151.3930  141.0994  156.7477 N   0  0  0  0  0  0  0  0  0  0  0  0
  152.1250  139.9691  156.7320 C   0  0  0  0  0  0  0  0  0  0  0  0
  152.8795  139.7166  157.7977 N   0  0  0  0  0  0  0  0  0  0  0  0
  152.6051  140.8108  158.6000 C   0  0  0  0  0  0  0  0  0  0  0  0
  153.0908  141.1515  159.8824 C   0  0  0  0  0  0  0  0  0  0  0  0
  152.6635  142.3364  160.5171 C   0  0  0  0  0  0  0  0  0  0  0  0
  153.1392  142.6480  161.7460 F   0  0  0  0  0  0  0  0  0  0  0  0
  151.7447  143.1968  159.8801 C   0  0  0  0  0  0  0  0  0  0  0  0
  151.3388  144.3317  160.4974 F   0  0  0  0  0  0  0  0  0  0  0  0
  151.2471  142.8782  158.6019 C   0  0  0  0  0  0  0  0  0  0  0  0
  151.6773  141.6958  157.9718 C   0  0  0  0  0  0  0  0  0  0  0  0
  148.6293  143.2320  156.2388 H   0  0  0  0  0  0  0  0  0  0  0  0
  148.9265  140.4515  156.6503 H   0  0  0  0  0  0  0  0  0  0  0  0
  147.0974  141.2388  155.0067 H   0  0  0  0  0  0  0  0  0  0  0  0
  148.3718  142.0230  154.0858 H   0  0  0  0  0  0  0  0  0  0  0  0
  148.7838  138.1833  155.0956 H   0  0  0  0  0  0  0  0  0  0  0  0
  147.4142  139.1403  155.6635 H   0  0  0  0  0  0  0  0  0  0  0  0
  146.3927  136.4229  154.9603 H   0  0  0  0  0  0  0  0  0  0  0  0
  144.9743  135.6871  152.9388 H   0  0  0  0  0  0  0  0  0  0  0  0
  145.2078  137.3652  150.8935 H   0  0  0  0  0  0  0  0  0  0  0  0
  150.7648  141.0616  154.7769 H   0  0  0  0  0  0  0  0  0  0  0  0
  150.7013  142.6368  155.5322 H   0  0  0  0  0  0  0  0  0  0  0  0
  152.1019  139.2931  155.8896 H   0  0  0  0  0  0  0  0  0  0  0  0
  153.7935  140.5000  160.3801 H   0  0  0  0  0  0  0  0  0  0  0  0
  150.5414  143.5335  158.1137 H   0  0  0  0  0  0  0  0  0  0  0  0
  1  2  1  0  0  0  0
  1 23  1  0  0  0  0
  2  3  1  0  0  0  0
  2 11  1  0  0  0  0
  2 24  1  0  0  0  0
  3  4  1  0  0  0  0
  3 25  1  0  0  0  0
  3 26  1  0  0  0  0
  4  5  1  0  0  0  0
  5  6  1  0  0  0  0
  5 27  1  0  0  0  0
  5 28  1  0  0  0  0
  6 10  1  0  0  0  0
  6  7  2  0  0  0  0
  7  8  1  0  0  0  0
  7 29  1  0  0  0  0
  8  9  2  0  0  0  0
  8 30  1  0  0  0  0
  9 10  1  0  0  0  0
  9 31  1  0  0  0  0
 11 12  1  0  0  0  0
 11 32  1  0  0  0  0
 11 33  1  0  0  0  0
 12 22  1  0  0  0  0
 12 13  1  0  0  0  0
 13 14  2  0  0  0  0
 13 34  1  0  0  0  0
 14 15  1  0  0  0  0
 15 22  2  0  0  0  0
 15 16  1  0  0  0  0
 16 17  2  0  0  0  0
 16 35  1  0  0  0  0
 17 18  1  0  0  0  0
 17 19  1  0  0  0  0
 19 20  1  0  0  0  0
 19 21  2  0  0  0  0
 21 22  1  0  0  0  0
 21 36  1  0  0  0  0
M  END
> <s_m_source_file>
AV-unprocessed.smi

> <i_m_source_file_index>
304

> <i_lp_mmshare_version>
43012

> <i_f3d_flags>
0

> <s_epik_input>
W2NIXTFjKEYpYyhGKVtjSF1jKGMxMiluKFtjSF1uMilbQ0gyXVtDQEhdKFtPSF0pW0NIMl1PW0NIMl1jM1tjSF1bY0hdW2NIXXMz

> <s_epik_cmdline>
J2VwaWtfcHl0aG9uJywgJy1waCcsICc3LjAnLCAnLXRuJywgJzgnLCAnLW1hJywgJzIwMCcsICctbWV0YWxfYmluZGluZycsICctaW1hZScsICc8aW5maWxlLm1hZT4nLCAnLW9tYWUnLCAnPG91dGZpbGUubWFlPic=

> <r_epik_Ionization_Penalty>
0.0152118

> <r_epik_Ionization_Penalty_Charging>
0

> <r_epik_Ionization_Penalty_Neutral>
0.0152118

> <r_epik_State_Penalty>
0.0119413

> <r_epik_Charging_Adjusted_Penalty>
0.0119413

> <i_epik_Tot_Q>
0

> <i_epik_Tot_abs_Q>
0

> <r_epik_Metal_State_Penalty>
1.20623e-05

> <b_epik_Metal_Only>
0

> <s_lp_Force_Field>
OPLS_2005

> <r_lp_Energy>
8.44111

> <b_lp_Chiralities_Consistent>
1

> <s_lp_Variant>
AV-unprocessed.smi:304-2

> <Gold.Version>
5.8.1

> <Gold.Id.Protein>
6NUR|6NUR_protein|mol2

> <Gold.PLP.Fitness>
48.3535

> <Gold.PLP.PLP>
-41.2183

> <Gold.PLP.part.hbond>
-2.0000

> <Gold.PLP.part.metal>
0.0000

> <Gold.PLP.part.buried>
-2.3811

> <Gold.PLP.part.nonpolar>
-36.5021

> <Gold.PLP.part.repulsive>
0.1302

> <Gold.PLP.ligand.clash>
0.0000

> <Gold.PLP.ligand.torsion>
1.0152

> <Gold.PLP.Chemscore.Hbond>
2.0000

> <Gold.PLP.Chemscore.CHOScore>
1.0000

> <Gold.PLP.Chemscore.Metal>
0.0000

> <Gold.Chemscore.Hbonds>
donor molecule, donor type, donor heavy atom, donor atom, acceptor molecule, acceptor atom, score
      L1  H     1    23       P1  8028  1.00
      P1  H  7997  8008       L1    14  1.00
      L1  C     9    31       P1 10171  1.00

> <Gold.PLP.Chemscore.Internal.Correction>
0.1656

> <Gold.Rescore>
     Score         DG    S(hbond)    S(metal)    S(lipo)     H(rot)  DE(clash)    DE(int)     intcor
     13.49     -14.63       1.28        0.00      99.32       2.64       0.11       1.03       ----

> <Gold.Chemscore.Fitness>
13.4908

> <Gold.Chemscore.DG>
-14.6263

> <Gold.Chemscore.ZeroCoef>
-5.4800

> <Gold.Chemscore.Hbond>
1.2830

> <Gold.Chemscore.Metal>
0.0000

> <Gold.Chemscore.Lipo>
99.3189

> <Gold.Chemscore.Internal_Hbond>
0.0000

> <Gold.Chemscore.DEClash>
0.1083

> <Gold.Chemscore.DEInternal>
1.0273

> <Gold.Chemscore.Rot>
2.6403

> <Gold.Chemscore.Internal.Correction>
   9.000000E+99

> <Gold.Chemscore.Hbonds>
donor molecule, donor type, donor heavy atom, donor atom, acceptor molecule, acceptor atom, score
      L1  H     1    23       P1  8028  0.93
      P1  H  7997  8008       L1    14  0.14

> <Gold.Chemscore.Hbond.Weighted>
-4.2852

> <Gold.Chemscore.Metal.Weighted>
-0.0000

> <Gold.Chemscore.Lipo.Weighted>
-11.6203

> <Gold.Chemscore.Internal_Hbond.Weighted>
0.0000

> <Gold.Chemscore.DEClash.Weighted>
0.1083

> <Gold.Chemscore.DEInternal.Weighted>
1.0273

> <Gold.Chemscore.Rot.Weighted>
6.7592

> <Gold.Chemscore.Internal.Correction.Weighted>
   9.000000E+99

> <Gold.Protein.RotatedTorsions>
[ 6907 6896 6895 6894 ] final   84.57 input  -60.11 | X-H torsion
[ 7974 7965 7964 7962 ] final  -36.35 input  175.53 | X-H torsion
[ 8008 7997 7996 7995 ] final  -88.88 input   59.86 | X-H torsion
[ 10167 10162 10161 10158 ] final  -51.61 input  -65.29 | X-H torsion
[ 10718 10713 10712 10709 ] final  -74.19 input   66.30 | X-H torsion
[ 10763 10752 10751 10750 ] final  -81.33 input  -60.55 | X-H torsion
[ 11005 11000 10999 10996 ] final -113.69 input  -57.11 | X-H torsion

> <Gold.Protein.ActiveResidues>
 VAL166  LYS551  ARG553  GLY616  TRP617  ASP618  TYR619  PRO620  LYS621  CYS622 
 ASP623  PHE694  ASN695  SER759  ASP760  ASP761  ALA762  ILE779  LEU786  VAL792 
 PHE793  MET794  SER795  GLU796  ALA797  LYS798  CYS799  TRP800  GLU811  SER814 

> <Gold.Protein.RotatedAtoms>
  152.5355  134.2721  159.8975 H   0  0  0  0  0  0  0  0  0  0  0  0  # atno 6907 bound_to 6896
  151.2677  133.4264  159.2627 H   0  0  0  0  0  0  0  0  0  0  0  0  # atno 6908 bound_to 6896
  151.0395  134.9612  159.8211 H   0  0  0  0  0  0  0  0  0  0  0  0  # atno 6909 bound_to 6896
  146.0669  140.6268  142.8971 H   0  0  0  0  0  0  0  0  0  0  0  0  # atno 7974 bound_to 7965
  154.6801  140.0548  157.0256 H   0  0  0  0  0  0  0  0  0  0  0  0  # atno 8008 bound_to 7997
  155.0964  140.3224  155.4540 H   0  0  0  0  0  0  0  0  0  0  0  0  # atno 8009 bound_to 7997
  156.2690  140.2039  156.6091 H   0  0  0  0  0  0  0  0  0  0  0  0  # atno 8010 bound_to 7997
  140.6579  143.2613  151.4528 H   0  0  0  0  0  0  0  0  0  0  0  0  # atno 10167 bound_to 10162
  156.0252  130.4411  150.2855 H   0  0  0  0  0  0  0  0  0  0  0  0  # atno 10718 bound_to 10713
  154.5622  135.5630  153.7018 H   0  0  0  0  0  0  0  0  0  0  0  0  # atno 10763 bound_to 10752
  153.0021  135.6276  154.2229 H   0  0  0  0  0  0  0  0  0  0  0  0  # atno 10764 bound_to 10752
  154.2167  135.2871  155.2919 H   0  0  0  0  0  0  0  0  0  0  0  0  # atno 10765 bound_to 10752
  141.0599  133.9552  157.2686 H   0  0  0  0  0  0  0  0  0  0  0  0  # atno 11005 bound_to 11000
  144.7207  140.4365  143.7010 LP  0  0  0  0  0  0  0  0  0  0  0  0  # atno 17320 bound_to 7965
  145.6462  139.1557  143.2888 LP  0  0  0  0  0  0  0  0  0  0  0  0  # atno 17321 bound_to 7965
  139.5806  144.1718  152.1963 LP  0  0  0  0  0  0  0  0  0  0  0  0  # atno 17342 bound_to 10162
  140.1042  144.5513  150.6968 LP  0  0  0  0  0  0  0  0  0  0  0  0  # atno 17343 bound_to 10162
  157.0959  131.0182  151.3104 LP  0  0  0  0  0  0  0  0  0  0  0  0  # atno 17370 bound_to 10713
  157.4818  130.7769  149.7421 LP  0  0  0  0  0  0  0  0  0  0  0  0  # atno 17371 bound_to 10713
  139.9423  135.0189  156.8746 LP  0  0  0  0  0  0  0  0  0  0  0  0  # atno 17394 bound_to 11000
  140.5890  134.0280  155.7492 LP  0  0  0  0  0  0  0  0  0  0  0  0  # atno 17395 bound_to 11000

$$$$
