AV-unprocessed.smi:3151|AV-procd|sdf|12015|dock3
  -GOLD-   2272017423D 1   1.00000     0.00000
 Structure written by MMmdl.
 36 37  0  0  0  0  0  0  0  0  2 V2000
  151.3087  140.9589  158.0631 O   0  0  0  0  0  0  0  0  0  0  0  0
  151.0131  142.0460  157.5661 C   0  0  0  0  0  0  0  0  0  0  0  0
  151.3373  143.3497  158.3034 C   0  0  0  0  0  0  0  0  0  0  0  0
  151.5641  143.1572  159.8176 C   0  0  0  0  0  0  0  0  0  0  0  0
  151.7085  144.4593  160.6178 C   0  0  0  0  0  0  0  0  0  0  0  0
  152.4940  144.0874  161.8834 C   0  0  0  0  0  0  0  0  0  0  0  0
  153.0967  142.6982  161.6289 C   0  0  0  0  0  0  0  0  0  0  0  0
  152.8517  142.4003  160.1485 C   0  0  0  0  0  0  0  0  0  0  0  0
  150.4074  142.1671  156.3745 N   0  0  0  0  0  0  0  0  0  0  0  0
  150.0047  141.0496  155.5294 C   0  0  0  0  0  0  0  0  0  0  0  0
  149.3461  141.5344  154.2274 C   0  0  0  0  0  0  0  0  0  0  0  0
  147.8860  141.4734  154.3064 N   0  0  0  0  0  0  0  0  0  0  0  0
  147.0701  142.1359  155.1869 C   0  0  0  0  0  0  0  0  0  0  0  0
  145.7855  141.7640  154.8834 C   0  0  0  0  0  0  0  0  0  0  0  0
  145.8725  140.8903  153.8327 N   0  3  0  0  0  0  0  0  0  0  0  0
  147.1510  140.7142  153.4838 C   0  0  0  0  0  0  0  0  0  0  0  0
  152.2337  143.7756  157.8515 H   0  0  0  0  0  0  0  0  0  0  0  0
  150.5367  144.0730  158.1394 H   0  0  0  0  0  0  0  0  0  0  0  0
  150.7320  142.5886  160.2371 H   0  0  0  0  0  0  0  0  0  0  0  0
  152.2805  145.1876  160.0409 H   0  0  0  0  0  0  0  0  0  0  0  0
  150.7442  144.9122  160.8506 H   0  0  0  0  0  0  0  0  0  0  0  0
  153.2704  144.8268  162.0832 H   0  0  0  0  0  0  0  0  0  0  0  0
  151.8389  144.0602  162.7550 H   0  0  0  0  0  0  0  0  0  0  0  0
  154.1549  142.6505  161.8873 H   0  0  0  0  0  0  0  0  0  0  0  0
  152.5771  141.9590  162.2403 H   0  0  0  0  0  0  0  0  0  0  0  0
  152.7744  141.3314  159.9465 H   0  0  0  0  0  0  0  0  0  0  0  0
  153.6797  142.7919  159.5554 H   0  0  0  0  0  0  0  0  0  0  0  0
  150.2022  143.0966  156.0371 H   0  0  0  0  0  0  0  0  0  0  0  0
  150.8696  140.4205  155.3112 H   0  0  0  0  0  0  0  0  0  0  0  0
  149.3058  140.4298  156.0921 H   0  0  0  0  0  0  0  0  0  0  0  0
  149.6294  142.5654  154.0113 H   0  0  0  0  0  0  0  0  0  0  0  0
  149.6628  140.9293  153.3763 H   0  0  0  0  0  0  0  0  0  0  0  0
  147.4538  142.8043  155.9439 H   0  0  0  0  0  0  0  0  0  0  0  0
  144.8411  142.0476  155.3253 H   0  0  0  0  0  0  0  0  0  0  0  0
  147.5178  140.0823  152.6942 H   0  0  0  0  0  0  0  0  0  0  0  0
  145.0848  140.4403  153.3833 H   0  0  0  0  0  0  0  0  0  0  0  0
  1  2  2  0  0  0  0
  2  3  1  0  0  0  0
  2  9  1  0  0  0  0
  3  4  1  0  0  0  0
  3 17  1  0  0  0  0
  3 18  1  0  0  0  0
  4  8  1  0  0  0  0
  4  5  1  0  0  0  0
  4 19  1  0  0  0  0
  5  6  1  0  0  0  0
  5 20  1  0  0  0  0
  5 21  1  0  0  0  0
  6  7  1  0  0  0  0
  6 22  1  0  0  0  0
  6 23  1  0  0  0  0
  7  8  1  0  0  0  0
  7 24  1  0  0  0  0
  7 25  1  0  0  0  0
  8 26  1  0  0  0  0
  8 27  1  0  0  0  0
  9 10  1  0  0  0  0
  9 28  1  0  0  0  0
 10 11  1  0  0  0  0
 10 29  1  0  0  0  0
 10 30  1  0  0  0  0
 11 12  1  0  0  0  0
 11 31  1  0  0  0  0
 11 32  1  0  0  0  0
 12 16  1  0  0  0  0
 12 13  1  0  0  0  0
 13 14  2  0  0  0  0
 13 33  1  0  0  0  0
 14 15  1  0  0  0  0
 14 34  1  0  0  0  0
 15 16  2  0  0  0  0
 15 36  1  0  0  0  0
 16 35  1  0  0  0  0
M  CHG  1  15   1
M  END
> <s_m_source_file>
AV-unprocessed.smi

> <i_m_source_file_index>
3151

> <i_lp_mmshare_version>
43012

> <i_f3d_flags>
0

> <s_epik_input>
W0NIMl0xW0NIMl1bQ0gyXVtDSDJdW0NIXTFbQ0gyXUMoPU8pW05IXVtDSDJdW0NIMl1uMltjSF1bY0hdbltjSF0y

> <s_epik_cmdline>
J2VwaWtfcHl0aG9uJywgJy1waCcsICc3LjAnLCAnLXRuJywgJzgnLCAnLW1hJywgJzIwMCcsICctbWV0YWxfYmluZGluZycsICctaW1hZScsICc8aW5maWxlLm1hZT4nLCAnLW9tYWUnLCAnPG91dGZpbGUubWFlPic=

> <r_lp_tautomer_probability>
1

> <r_epik_Ionization_Penalty>
0.269485

> <r_epik_Ionization_Penalty_Charging>
0

> <r_epik_Ionization_Penalty_Neutral>
0.269485

> <r_epik_State_Penalty>
0.261564

> <r_epik_Charging_Adjusted_Penalty>
0.261564

> <i_epik_Tot_Q>
1

> <i_epik_Tot_abs_Q>
1

> <r_epik_Metal_State_Penalty>
0.546677

> <b_epik_Metal_Only>
0

> <s_lp_Force_Field>
OPLS_2005

> <r_lp_Energy>
22.4511

> <b_lp_Chiralities_Consistent>
1

> <s_lp_Variant>
AV-unprocessed.smi:3151-1

> <Gold.Version>
5.8.1

> <Gold.Id.Protein>
6NUR|6NUR_protein|mol2

> <Gold.PLP.Fitness>
49.3600

> <Gold.PLP.PLP>
-36.3736

> <Gold.PLP.part.hbond>
-1.9059

> <Gold.PLP.part.metal>
0.0000

> <Gold.PLP.part.buried>
-0.5878

> <Gold.PLP.part.nonpolar>
-32.8142

> <Gold.PLP.part.repulsive>
0.0859

> <Gold.PLP.ligand.clash>
0.0000

> <Gold.PLP.ligand.torsion>
0.5986

> <Gold.PLP.Chemscore.Hbond>
2.7638

> <Gold.PLP.Chemscore.CHOScore>
1.9562

> <Gold.PLP.Chemscore.Metal>
0.0000

> <Gold.Chemscore.Hbonds>
donor molecule, donor type, donor heavy atom, donor atom, acceptor molecule, acceptor atom, score
      L1  H     9    28       P1  8028  0.78
      L1  H    15    36       P1 10175  2.00
      L1  C    13    33       P1  8028  0.92
      L1  C    16    35       P1  7957  0.89

> <Gold.PLP.Chemscore.Internal.Correction>
0.0238

> <Gold.Rescore>
     Score         DG    S(hbond)    S(metal)    S(lipo)     H(rot)  DE(clash)    DE(int)     intcor
     15.89     -16.97       1.86        0.00      90.58       2.08       0.41       0.67       ----

> <Gold.Chemscore.Fitness>
15.8876

> <Gold.Chemscore.DG>
-16.9689

> <Gold.Chemscore.ZeroCoef>
-5.4800

> <Gold.Chemscore.Hbond>
1.8591

> <Gold.Chemscore.Metal>
0.0000

> <Gold.Chemscore.Lipo>
90.5786

> <Gold.Chemscore.Internal_Hbond>
0.0000

> <Gold.Chemscore.DEClash>
0.4075

> <Gold.Chemscore.DEInternal>
0.6737

> <Gold.Chemscore.Rot>
2.0774

> <Gold.Chemscore.Internal.Correction>
   9.000000E+99

> <Gold.Chemscore.Hbonds>
donor molecule, donor type, donor heavy atom, donor atom, acceptor molecule, acceptor atom, score
      L1  H     9    28       P1  8028  0.74
      L1  H    15    36       P1 10175  0.95

> <Gold.Chemscore.Hbond.Weighted>
-6.2095

> <Gold.Chemscore.Metal.Weighted>
-0.0000

> <Gold.Chemscore.Lipo.Weighted>
-10.5977

> <Gold.Chemscore.Internal_Hbond.Weighted>
0.0000

> <Gold.Chemscore.DEClash.Weighted>
0.4075

> <Gold.Chemscore.DEInternal.Weighted>
0.6737

> <Gold.Chemscore.Rot.Weighted>
5.3183

> <Gold.Chemscore.Internal.Correction.Weighted>
   9.000000E+99

> <Gold.Protein.RotatedTorsions>
[ 6907 6896 6895 6894 ] final -152.22 input  -60.11 | X-H torsion
[ 7974 7965 7964 7962 ] final  -83.27 input  175.53 | X-H torsion
[ 8008 7997 7996 7995 ] final   41.08 input   59.86 | X-H torsion
[ 10167 10162 10161 10158 ] final  114.22 input  -65.29 | X-H torsion
[ 10718 10713 10712 10709 ] final  152.52 input   66.30 | X-H torsion
[ 10763 10752 10751 10750 ] final  140.27 input  -60.55 | X-H torsion
[ 11005 11000 10999 10996 ] final   49.23 input  -57.11 | X-H torsion

> <Gold.Protein.ActiveResidues>
 VAL166  LYS551  ARG553  GLY616  TRP617  ASP618  TYR619  PRO620  LYS621  CYS622 
 ASP623  PHE694  ASN695  SER759  ASP760  ASP761  ALA762  ILE779  LEU786  VAL792 
 PHE793  MET794  SER795  GLU796  ALA797  LYS798  CYS799  TRP800  GLU811  SER814 

> <Gold.Protein.RotatedAtoms>
  151.2246  133.4483  159.2601 H   0  0  0  0  0  0  0  0  0  0  0  0  # atno 6907 bound_to 6896
  151.0852  134.9883  159.8386 H   0  0  0  0  0  0  0  0  0  0  0  0  # atno 6908 bound_to 6896
  152.5429  134.2183  159.8830 H   0  0  0  0  0  0  0  0  0  0  0  0  # atno 6909 bound_to 6896
  145.5223  140.9530  143.1648 H   0  0  0  0  0  0  0  0  0  0  0  0  # atno 7974 bound_to 7965
  155.2637  140.3361  155.4271 H   0  0  0  0  0  0  0  0  0  0  0  0  # atno 8008 bound_to 7997
  156.2163  140.1790  156.7623 H   0  0  0  0  0  0  0  0  0  0  0  0  # atno 8009 bound_to 7997
  154.5759  140.0662  156.9017 H   0  0  0  0  0  0  0  0  0  0  0  0  # atno 8010 bound_to 7997
  139.6404  144.7123  151.2249 H   0  0  0  0  0  0  0  0  0  0  0  0  # atno 10167 bound_to 10162
  157.2567  131.0790  151.1694 H   0  0  0  0  0  0  0  0  0  0  0  0  # atno 10718 bound_to 10713
  153.9200  135.3001  155.3448 H   0  0  0  0  0  0  0  0  0  0  0  0  # atno 10763 bound_to 10752
  154.7580  135.4948  153.9414 H   0  0  0  0  0  0  0  0  0  0  0  0  # atno 10764 bound_to 10752
  153.1147  135.6768  153.9542 H   0  0  0  0  0  0  0  0  0  0  0  0  # atno 10765 bound_to 10752
  140.1121  134.4940  155.8668 H   0  0  0  0  0  0  0  0  0  0  0  0  # atno 11005 bound_to 11000
  144.7669  139.6823  143.7211 LP  0  0  0  0  0  0  0  0  0  0  0  0  # atno 17320 bound_to 7965
  146.2098  139.5447  142.9688 LP  0  0  0  0  0  0  0  0  0  0  0  0  # atno 17321 bound_to 7965
  140.7488  143.6322  150.8412 LP  0  0  0  0  0  0  0  0  0  0  0  0  # atno 17342 bound_to 10162
  139.9958  143.5797  152.2893 LP  0  0  0  0  0  0  0  0  0  0  0  0  # atno 17343 bound_to 10162
  157.3220  130.6942  149.6274 LP  0  0  0  0  0  0  0  0  0  0  0  0  # atno 17370 bound_to 10713
  155.9665  130.4332  150.4998 LP  0  0  0  0  0  0  0  0  0  0  0  0  # atno 17371 bound_to 10713
  141.2133  133.6731  156.6726 LP  0  0  0  0  0  0  0  0  0  0  0  0  # atno 17394 bound_to 11000
  140.3076  134.8112  157.4150 LP  0  0  0  0  0  0  0  0  0  0  0  0  # atno 17395 bound_to 11000

$$$$
