AV-unprocessed.smi:2706|AV-procd|sdf|10445|dock8
  -GOLD-   2272014483D 1   1.00000     0.00000
 Structure written by MMmdl.
 43 46  0  0  0  0  0  0  0  0  1 V2000
  148.2260  136.7544  155.8353 C   0  0  0  0  0  0  0  0  0  0  0  0
  147.4096  137.0870  154.6720 N   0  0  0  0  0  0  0  0  0  0  0  0
  146.5194  136.0856  154.0984 C   0  0  0  0  0  0  0  0  0  0  0  0
  147.4218  138.4046  154.1606 C   0  0  0  0  0  0  0  0  0  0  0  0
  146.7628  138.7386  152.9530 C   0  0  0  0  0  0  0  0  0  0  0  0
  146.8082  140.0688  152.4988 C   0  0  0  0  0  0  0  0  0  0  0  0
  147.5071  141.0255  153.2564 C   0  0  0  0  0  0  0  0  0  0  0  0
  148.1456  140.6259  154.4490 C   0  0  0  0  0  0  0  0  0  0  0  0
  148.8262  141.6580  155.1484 N   0  0  0  0  0  0  0  0  0  0  0  0
  149.8592  141.5398  156.0018 C   0  0  0  0  0  0  0  0  0  0  0  0
  150.4128  140.4828  156.3068 O   0  0  0  0  0  0  0  0  0  0  0  0
  150.2232  142.7342  156.4887 N   0  0  0  0  0  0  0  0  0  0  0  0
  151.2895  142.9628  157.4091 C   0  0  2  0  0  0  0  0  0  0  0  0
  150.9206  143.1112  158.8769 C   0  0  1  0  0  0  0  0  0  0  0  0
  151.8986  143.0912  160.0480 C   0  0  2  0  0  0  0  0  0  0  0  0
  151.5206  144.2452  160.9993 C   0  0  0  0  0  0  0  0  0  0  0  0
  151.9432  145.4967  160.1908 C   0  0  0  0  0  0  0  0  0  0  0  0
  152.5060  144.8811  158.8927 C   0  0  1  0  0  0  0  0  0  0  0  0
  153.1998  143.6436  159.4638 C   0  0  0  0  0  0  0  0  0  0  0  0
  151.3328  144.3209  158.0938 C   0  0  1  0  0  0  0  0  0  0  0  0
  148.0924  139.3408  154.8748 N   0  0  0  0  0  0  0  0  0  0  0  0
  149.2804  136.9431  155.6313 H   0  0  0  0  0  0  0  0  0  0  0  0
  148.1234  135.7040  156.1076 H   0  0  0  0  0  0  0  0  0  0  0  0
  147.9275  137.3540  156.6956 H   0  0  0  0  0  0  0  0  0  0  0  0
  146.7787  135.8961  153.0564 H   0  0  0  0  0  0  0  0  0  0  0  0
  145.4824  136.4194  154.1470 H   0  0  0  0  0  0  0  0  0  0  0  0
  146.5882  135.1399  154.6359 H   0  0  0  0  0  0  0  0  0  0  0  0
  146.2263  138.0056  152.3699 H   0  0  0  0  0  0  0  0  0  0  0  0
  146.3131  140.3516  151.5815 H   0  0  0  0  0  0  0  0  0  0  0  0
  147.5509  142.0515  152.9208 H   0  0  0  0  0  0  0  0  0  0  0  0
  148.4840  142.5928  154.9835 H   0  0  0  0  0  0  0  0  0  0  0  0
  149.7097  143.5473  156.1821 H   0  0  0  0  0  0  0  0  0  0  0  0
  152.2412  142.4917  157.1730 H   0  0  0  0  0  0  0  0  0  0  0  0
  149.8685  143.0121  159.1390 H   0  0  0  0  0  0  0  0  0  0  0  0
  151.9740  142.1116  160.5203 H   0  0  0  0  0  0  0  0  0  0  0  0
  150.4580  144.2474  161.2454 H   0  0  0  0  0  0  0  0  0  0  0  0
  152.0812  144.1822  161.9329 H   0  0  0  0  0  0  0  0  0  0  0  0
  151.1069  146.1706  160.0002 H   0  0  0  0  0  0  0  0  0  0  0  0
  152.7117  146.0586  160.7233 H   0  0  0  0  0  0  0  0  0  0  0  0
  153.1389  145.5465  158.3054 H   0  0  0  0  0  0  0  0  0  0  0  0
  153.9521  143.8767  160.2200 H   0  0  0  0  0  0  0  0  0  0  0  0
  153.6641  143.0031  158.7148 H   0  0  0  0  0  0  0  0  0  0  0  0
  150.5590  145.0387  157.8265 H   0  0  0  0  0  0  0  0  0  0  0  0
  1  2  1  0  0  0  0
  1 22  1  0  0  0  0
  1 23  1  0  0  0  0
  1 24  1  0  0  0  0
  2  3  1  0  0  0  0
  2  4  1  0  0  0  0
  3 25  1  0  0  0  0
  3 26  1  0  0  0  0
  3 27  1  0  0  0  0
  4 21  1  0  0  0  0
  4  5  2  0  0  0  0
  5  6  1  0  0  0  0
  5 28  1  0  0  0  0
  6  7  2  0  0  0  0
  6 29  1  0  0  0  0
  7  8  1  0  0  0  0
  7 30  1  0  0  0  0
  8  9  1  0  0  0  0
  8 21  2  0  0  0  0
  9 10  1  0  0  0  0
  9 31  1  0  0  0  0
 10 11  2  0  0  0  0
 10 12  1  0  0  0  0
 12 13  1  0  0  0  0
 12 32  1  0  0  0  0
 13 20  1  0  0  0  0
 13 14  1  0  0  0  0
 13 33  1  0  0  0  0
 14 20  1  0  0  0  0
 14 15  1  0  0  0  0
 14 34  1  0  0  0  0
 15 19  1  0  0  0  0
 15 16  1  0  0  0  0
 15 35  1  0  0  0  0
 16 17  1  0  0  0  0
 16 36  1  0  0  0  0
 16 37  1  0  0  0  0
 17 18  1  0  0  0  0
 17 38  1  0  0  0  0
 17 39  1  0  0  0  0
 18 19  1  0  0  0  0
 18 20  1  0  0  0  0
 18 40  1  0  0  0  0
 19 41  1  0  0  0  0
 19 42  1  0  0  0  0
 20 43  1  0  0  0  0
M  END
> <s_m_source_file>
AV-unprocessed.smi

> <i_m_source_file_index>
2706

> <i_lp_mmshare_version>
43012

> <i_f3d_flags>
0

> <s_epik_input>
W0NIM11OKFtDSDNdKWMxW2NIXVtjSF1bY0hdYyhuMSlbTkhdQyg9TylbTkhdW0NASF0yW0NAQEhdM1tDQEBIXShbQ0gyXTQpW0NIMl1bQ0gyXVtDQEBIXTRbQ0BIXTIz

> <s_epik_cmdline>
J2VwaWtfcHl0aG9uJywgJy1waCcsICc3LjAnLCAnLXRuJywgJzgnLCAnLW1hJywgJzIwMCcsICctbWV0YWxfYmluZGluZycsICctaW1hZScsICc8aW5maWxlLm1hZT4nLCAnLW9tYWUnLCAnPG91dGZpbGUubWFlPic=

> <r_lp_tautomer_probability>
1

> <r_epik_Ionization_Penalty>
0.0296788

> <r_epik_Ionization_Penalty_Charging>
0

> <r_epik_Ionization_Penalty_Neutral>
0.0296788

> <r_epik_State_Penalty>
0.0248512

> <r_epik_Charging_Adjusted_Penalty>
0.0248512

> <i_epik_Tot_Q>
0

> <i_epik_Tot_abs_Q>
0

> <r_epik_Metal_State_Penalty>
0.0237882

> <b_epik_Metal_Only>
0

> <s_lp_Force_Field>
OPLS_2005

> <r_lp_Energy>
77.4142

> <b_lp_Chiralities_Consistent>
1

> <s_lp_Variant>
AV-unprocessed.smi:2706-2

> <Gold.Version>
5.8.1

> <Gold.Id.Protein>
6NUR|6NUR_protein|mol2

> <Gold.PLP.Fitness>
43.3985

> <Gold.PLP.PLP>
-40.1054

> <Gold.PLP.part.hbond>
-1.7775

> <Gold.PLP.part.metal>
0.0000

> <Gold.PLP.part.buried>
-3.3988

> <Gold.PLP.part.nonpolar>
-36.6030

> <Gold.PLP.part.repulsive>
0.3224

> <Gold.PLP.ligand.clash>
0.0000

> <Gold.PLP.ligand.torsion>
0.4127

> <Gold.PLP.Chemscore.Hbond>
1.3625

> <Gold.PLP.Chemscore.CHOScore>
0.0000

> <Gold.PLP.Chemscore.Metal>
0.0000

> <Gold.Chemscore.Hbonds>
donor molecule, donor type, donor heavy atom, donor atom, acceptor molecule, acceptor atom, score
      L1  H     9    31       P1  8028  0.37
      L1  H    12    32       P1  8028  0.98

> <Gold.PLP.Chemscore.Internal.Correction>
0.0309

> <Gold.Rescore>
     Score         DG    S(hbond)    S(metal)    S(lipo)     H(rot)  DE(clash)    DE(int)     intcor
     21.17     -23.01       1.94        0.00     116.17       1.00       0.22       1.62       ----

> <Gold.Chemscore.Fitness>
21.1710

> <Gold.Chemscore.DG>
-23.0081

> <Gold.Chemscore.ZeroCoef>
-5.4800

> <Gold.Chemscore.Hbond>
1.9449

> <Gold.Chemscore.Metal>
0.0000

> <Gold.Chemscore.Lipo>
116.1707

> <Gold.Chemscore.Internal_Hbond>
0.0000

> <Gold.Chemscore.DEClash>
0.2203

> <Gold.Chemscore.DEInternal>
1.6168

> <Gold.Chemscore.Rot>
1.0000

> <Gold.Chemscore.Internal.Correction>
   9.000000E+99

> <Gold.Chemscore.Hbonds>
donor molecule, donor type, donor heavy atom, donor atom, acceptor molecule, acceptor atom, score
      L1  H     9    31       P1  8028  0.37
      L1  H    12    32       P1  8028  0.92

> <Gold.Chemscore.Hbond.Weighted>
-6.4961

> <Gold.Chemscore.Metal.Weighted>
-0.0000

> <Gold.Chemscore.Lipo.Weighted>
-13.5920

> <Gold.Chemscore.Internal_Hbond.Weighted>
0.0000

> <Gold.Chemscore.DEClash.Weighted>
0.2203

> <Gold.Chemscore.DEInternal.Weighted>
1.6168

> <Gold.Chemscore.Rot.Weighted>
2.5600

> <Gold.Chemscore.Internal.Correction.Weighted>
   9.000000E+99

> <Gold.Protein.RotatedTorsions>
[ 6907 6896 6895 6894 ] final -113.64 input  -60.11 | X-H torsion
[ 7974 7965 7964 7962 ] final  118.40 input  175.53 | X-H torsion
[ 8008 7997 7996 7995 ] final   62.99 input   59.86 | X-H torsion
[ 10167 10162 10161 10158 ] final -130.61 input  -65.29 | X-H torsion
[ 10718 10713 10712 10709 ] final   14.47 input   66.30 | X-H torsion
[ 10763 10752 10751 10750 ] final   43.49 input  -60.55 | X-H torsion
[ 11005 11000 10999 10996 ] final   74.95 input  -57.11 | X-H torsion

> <Gold.Protein.ActiveResidues>
 VAL166  LYS551  ARG553  GLY616  TRP617  ASP618  TYR619  PRO620  LYS621  CYS622 
 ASP623  PHE694  ASN695  SER759  ASP760  ASP761  ALA762  ILE779  LEU786  VAL792 
 PHE793  MET794  SER795  GLU796  ALA797  LYS798  CYS799  TRP800  GLU811  SER814 

> <Gold.Protein.RotatedAtoms>
  150.7844  133.8916  159.3314 H   0  0  0  0  0  0  0  0  0  0  0  0  # atno 6907 bound_to 6896
  151.6770  135.0965  160.0218 H   0  0  0  0  0  0  0  0  0  0  0  0  # atno 6908 bound_to 6896
  152.3904  133.6631  159.6268 H   0  0  0  0  0  0  0  0  0  0  0  0  # atno 6909 bound_to 6896
  145.1557  139.3184  143.4543 H   0  0  0  0  0  0  0  0  0  0  0  0  # atno 7974 bound_to 7965
  155.6231  140.3496  155.4658 H   0  0  0  0  0  0  0  0  0  0  0  0  # atno 8008 bound_to 7997
  156.0064  140.1224  157.0521 H   0  0  0  0  0  0  0  0  0  0  0  0  # atno 8009 bound_to 7997
  154.4265  140.1090  156.5754 H   0  0  0  0  0  0  0  0  0  0  0  0  # atno 8010 bound_to 7997
  139.9275  143.6310  152.2538 H   0  0  0  0  0  0  0  0  0  0  0  0  # atno 10167 bound_to 10162
  157.0396  130.6226  149.5749 H   0  0  0  0  0  0  0  0  0  0  0  0  # atno 10718 bound_to 10713
  152.9859  135.6100  154.3120 H   0  0  0  0  0  0  0  0  0  0  0  0  # atno 10763 bound_to 10752
  154.2835  135.2776  155.2688 H   0  0  0  0  0  0  0  0  0  0  0  0  # atno 10764 bound_to 10752
  154.5016  135.5865  153.6592 H   0  0  0  0  0  0  0  0  0  0  0  0  # atno 10765 bound_to 10752
  139.9366  134.7476  156.1211 H   0  0  0  0  0  0  0  0  0  0  0  0  # atno 11005 bound_to 11000
  146.3489  140.1648  142.8590 LP  0  0  0  0  0  0  0  0  0  0  0  0  # atno 17320 bound_to 7965
  145.0384  140.8926  143.5067 LP  0  0  0  0  0  0  0  0  0  0  0  0  # atno 17321 bound_to 7965
  139.6810  144.7655  151.1609 LP  0  0  0  0  0  0  0  0  0  0  0  0  # atno 17342 bound_to 10162
  140.7646  143.5725  150.8980 LP  0  0  0  0  0  0  0  0  0  0  0  0  # atno 17343 bound_to 10162
  156.0042  130.5126  150.7772 LP  0  0  0  0  0  0  0  0  0  0  0  0  # atno 17370 bound_to 10713
  157.5115  131.0926  151.0193 LP  0  0  0  0  0  0  0  0  0  0  0  0  # atno 17371 bound_to 10713
  141.0983  133.6687  156.2695 LP  0  0  0  0  0  0  0  0  0  0  0  0  # atno 17394 bound_to 11000
  140.6059  134.5508  157.5525 LP  0  0  0  0  0  0  0  0  0  0  0  0  # atno 17395 bound_to 11000

$$$$
