AV-unprocessed.smi:3303|AV-procd|sdf|12687|dock2
  -GOLD-   2272019 23D 1   1.00000     0.00000
 Structure written by MMmdl.
 44 45  0  0  0  0  0  0  0  0  2 V2000
  146.1352  142.7582  154.1538 C   0  0  0  0  0  0  0  0  0  0  0  0
  147.3482  141.8332  154.3539 C   0  0  2  0  0  0  0  0  0  0  0  0
  147.5195  140.8565  153.1736 C   0  0  0  0  0  0  0  0  0  0  0  0
  146.4721  139.8027  153.1517 N   0  3  1  0  0  0  0  0  0  0  0  0
  146.5742  138.9866  151.9176 C   0  0  0  0  0  0  0  0  0  0  0  0
  146.4593  139.0011  154.4115 C   0  0  2  0  0  0  0  0  0  0  0  0
  145.3687  137.9118  154.4129 C   0  0  0  0  0  0  0  0  0  0  0  0
  146.2695  139.9187  155.6403 C   0  0  0  0  0  0  0  0  0  0  0  0
  147.2814  141.0769  155.7024 C   0  0  1  0  0  0  0  0  0  0  0  0
  148.5829  140.5458  156.0887 N   0  0  0  0  0  0  0  0  0  0  0  0
  149.5826  141.5839  156.3023 C   0  0  0  0  0  0  0  0  0  0  0  0
  150.7562  141.0345  157.1309 C   0  0  0  0  0  0  0  0  0  0  0  0
  151.4600  142.1074  157.9473 C   0  0  0  0  0  0  0  0  0  0  0  0
  152.4704  141.7580  158.8687 C   0  0  0  0  0  0  0  0  0  0  0  0
  153.0762  142.7819  159.6223 C   0  0  0  0  0  0  0  0  0  0  0  0
  152.6495  144.1099  159.4287 C   0  0  0  0  0  0  0  0  0  0  0  0
  151.6332  144.3559  158.4843 C   0  0  0  0  0  0  0  0  0  0  0  0
  151.0456  143.3814  157.7574 N   0  0  0  0  0  0  0  0  0  0  0  0
  145.2002  142.2002  154.1043 H   0  0  0  0  0  0  0  0  0  0  0  0
  146.2267  143.3295  153.2295 H   0  0  0  0  0  0  0  0  0  0  0  0
  146.0510  143.4738  154.9722 H   0  0  0  0  0  0  0  0  0  0  0  0
  148.2171  142.4906  154.3512 H   0  0  0  0  0  0  0  0  0  0  0  0
  147.5024  141.4165  152.2377 H   0  0  0  0  0  0  0  0  0  0  0  0
  148.5004  140.3805  153.2270 H   0  0  0  0  0  0  0  0  0  0  0  0
  147.4595  138.3498  151.9419 H   0  0  0  0  0  0  0  0  0  0  0  0
  146.6415  139.6250  151.0362 H   0  0  0  0  0  0  0  0  0  0  0  0
  145.6955  138.3576  151.7782 H   0  0  0  0  0  0  0  0  0  0  0  0
  147.4266  138.5031  154.4996 H   0  0  0  0  0  0  0  0  0  0  0  0
  145.3218  137.4108  155.3803 H   0  0  0  0  0  0  0  0  0  0  0  0
  145.5626  137.1357  153.6728 H   0  0  0  0  0  0  0  0  0  0  0  0
  144.3834  138.3341  154.2133 H   0  0  0  0  0  0  0  0  0  0  0  0
  145.2618  140.3358  155.6184 H   0  0  0  0  0  0  0  0  0  0  0  0
  146.3215  139.3323  156.5590 H   0  0  0  0  0  0  0  0  0  0  0  0
  146.9607  141.7589  156.4917 H   0  0  0  0  0  0  0  0  0  0  0  0
  148.4989  139.9983  156.9337 H   0  0  0  0  0  0  0  0  0  0  0  0
  149.9624  141.9724  155.3582 H   0  0  0  0  0  0  0  0  0  0  0  0
  149.1132  142.4184  156.8239 H   0  0  0  0  0  0  0  0  0  0  0  0
  150.3888  140.2650  157.8105 H   0  0  0  0  0  0  0  0  0  0  0  0
  151.4790  140.5399  156.4801 H   0  0  0  0  0  0  0  0  0  0  0  0
  152.7721  140.7290  158.9997 H   0  0  0  0  0  0  0  0  0  0  0  0
  153.8524  142.5523  160.3374 H   0  0  0  0  0  0  0  0  0  0  0  0
  153.0910  144.9204  159.9894 H   0  0  0  0  0  0  0  0  0  0  0  0
  151.2804  145.3616  158.3100 H   0  0  0  0  0  0  0  0  0  0  0  0
  145.5852  140.2836  153.1033 H   0  0  0  0  0  0  0  0  0  0  0  0
  1  2  1  0  0  0  0
  1 19  1  0  0  0  0
  1 20  1  0  0  0  0
  1 21  1  0  0  0  0
  2  9  1  0  0  0  0
  2  3  1  0  0  0  0
  2 22  1  0  0  0  0
  3  4  1  0  0  0  0
  3 23  1  0  0  0  0
  3 24  1  0  0  0  0
  4  5  1  0  0  0  0
  4  6  1  0  0  0  0
  4 44  1  0  0  0  0
  5 25  1  0  0  0  0
  5 26  1  0  0  0  0
  5 27  1  0  0  0  0
  6  7  1  0  0  0  0
  6  8  1  0  0  0  0
  6 28  1  0  0  0  0
  7 29  1  0  0  0  0
  7 30  1  0  0  0  0
  7 31  1  0  0  0  0
  8  9  1  0  0  0  0
  8 32  1  0  0  0  0
  8 33  1  0  0  0  0
  9 10  1  0  0  0  0
  9 34  1  0  0  0  0
 10 11  1  0  0  0  0
 10 35  1  0  0  0  0
 11 12  1  0  0  0  0
 11 36  1  0  0  0  0
 11 37  1  0  0  0  0
 12 13  1  0  0  0  0
 12 38  1  0  0  0  0
 12 39  1  0  0  0  0
 13 18  1  0  0  0  0
 13 14  2  0  0  0  0
 14 15  1  0  0  0  0
 14 40  1  0  0  0  0
 15 16  2  0  0  0  0
 15 41  1  0  0  0  0
 16 17  1  0  0  0  0
 16 42  1  0  0  0  0
 17 18  2  0  0  0  0
 17 43  1  0  0  0  0
M  CHG  1   4   1
M  END
> <s_m_source_file>
AV-unprocessed.smi

> <i_m_source_file_index>
3303

> <i_lp_mmshare_version>
43012

> <i_f3d_flags>
0

> <s_epik_input>
W0NIM11bQ0BASF0xW0NIMl1OKFtDSDNdKVtDQEBIXShbQ0gzXSlbQ0gyXVtDQEhdMVtOSF1bQ0gyXVtDSDJdYzJbY0hdW2NIXVtjSF1bY0hdbjI=

> <s_epik_cmdline>
J2VwaWtfcHl0aG9uJywgJy1waCcsICc3LjAnLCAnLXRuJywgJzgnLCAnLW1hJywgJzIwMCcsICctbWV0YWxfYmluZGluZycsICctaW1hZScsICc8aW5maWxlLm1hZT4nLCAnLW9tYWUnLCAnPG91dGZpbGUubWFlPic=

> <r_epik_Ionization_Penalty>
2.31085

> <r_epik_Ionization_Penalty_Charging>
0.000313057

> <r_epik_Ionization_Penalty_Neutral>
2.31054

> <r_epik_State_Penalty>
2.4087

> <r_epik_Charging_Adjusted_Penalty>
2.40902

> <i_epik_Tot_Q>
1

> <i_epik_Tot_abs_Q>
1

> <r_epik_Metal_State_Penalty>
2.30979

> <b_epik_Metal_Only>
0

> <s_lp_Force_Field>
OPLS_2005

> <r_lp_Energy>
26.8033

> <b_lp_Chiralities_Consistent>
1

> <s_lp_Variant>
AV-unprocessed.smi:3303-31

> <Gold.Version>
5.8.1

> <Gold.Id.Protein>
6NUR|6NUR_protein|mol2

> <Gold.PLP.Fitness>
41.7453

> <Gold.PLP.PLP>
-36.2917

> <Gold.PLP.part.hbond>
-1.0000

> <Gold.PLP.part.metal>
0.0000

> <Gold.PLP.part.buried>
-3.1278

> <Gold.PLP.part.nonpolar>
-33.1324

> <Gold.PLP.part.repulsive>
0.2470

> <Gold.PLP.ligand.clash>
0.0000

> <Gold.PLP.ligand.torsion>
0.2916

> <Gold.PLP.Chemscore.Hbond>
2.0000

> <Gold.PLP.Chemscore.CHOScore>
0.0000

> <Gold.PLP.Chemscore.Metal>
0.0000

> <Gold.Chemscore.Hbonds>
donor molecule, donor type, donor heavy atom, donor atom, acceptor molecule, acceptor atom, score
      L1  H     4    44       P1 10175  2.00

> <Gold.PLP.Chemscore.Internal.Correction>
0.0368

> <Gold.Rescore>
     Score         DG    S(hbond)    S(metal)    S(lipo)     H(rot)  DE(clash)    DE(int)     intcor
     17.31     -17.75       0.95        0.00     106.70       1.33       0.20       0.24       ----

> <Gold.Chemscore.Fitness>
17.3061

> <Gold.Chemscore.DG>
-17.7498

> <Gold.Chemscore.ZeroCoef>
-5.4800

> <Gold.Chemscore.Hbond>
0.9533

> <Gold.Chemscore.Metal>
0.0000

> <Gold.Chemscore.Lipo>
106.6951

> <Gold.Chemscore.Internal_Hbond>
0.0000

> <Gold.Chemscore.DEClash>
0.2047

> <Gold.Chemscore.DEInternal>
0.2390

> <Gold.Chemscore.Rot>
1.3272

> <Gold.Chemscore.Internal.Correction>
   9.000000E+99

> <Gold.Chemscore.Hbonds>
donor molecule, donor type, donor heavy atom, donor atom, acceptor molecule, acceptor atom, score
      L1  H     4    44       P1 10175  0.89

> <Gold.Chemscore.Hbond.Weighted>
-3.1842

> <Gold.Chemscore.Metal.Weighted>
-0.0000

> <Gold.Chemscore.Lipo.Weighted>
-12.4833

> <Gold.Chemscore.Internal_Hbond.Weighted>
0.0000

> <Gold.Chemscore.DEClash.Weighted>
0.2047

> <Gold.Chemscore.DEInternal.Weighted>
0.2390

> <Gold.Chemscore.Rot.Weighted>
3.3976

> <Gold.Chemscore.Internal.Correction.Weighted>
   9.000000E+99

> <Gold.Protein.RotatedTorsions>
[ 6907 6896 6895 6894 ] final  -36.12 input  -60.11 | X-H torsion
[ 7974 7965 7964 7962 ] final -144.92 input  175.53 | X-H torsion
[ 8008 7997 7996 7995 ] final  -90.28 input   59.86 | X-H torsion
[ 10167 10162 10161 10158 ] final -137.72 input  -65.29 | X-H torsion
[ 10718 10713 10712 10709 ] final  -99.20 input   66.30 | X-H torsion
[ 10763 10752 10751 10750 ] final  -40.07 input  -60.55 | X-H torsion
[ 11005 11000 10999 10996 ] final  106.30 input  -57.11 | X-H torsion

> <Gold.Protein.ActiveResidues>
 VAL166  LYS551  ARG553  GLY616  TRP617  ASP618  TYR619  PRO620  LYS621  CYS622 
 ASP623  PHE694  ASN695  SER759  ASP760  ASP761  ALA762  ILE779  LEU786  VAL792 
 PHE793  MET794  SER795  GLU796  ALA797  LYS798  CYS799  TRP800  GLU811  SER814 

> <Gold.Protein.RotatedAtoms>
  151.0312  134.9540  159.8111 H   0  0  0  0  0  0  0  0  0  0  0  0  # atno 6907 bound_to 6896
  152.5346  134.2777  159.9006 H   0  0  0  0  0  0  0  0  0  0  0  0  # atno 6908 bound_to 6896
  151.2787  133.4178  159.2659 H   0  0  0  0  0  0  0  0  0  0  0  0  # atno 6909 bound_to 6896
  144.8263  140.5649  143.5544 H   0  0  0  0  0  0  0  0  0  0  0  0  # atno 7974 bound_to 7965
  154.6966  140.0532  157.0417 H   0  0  0  0  0  0  0  0  0  0  0  0  # atno 8008 bound_to 7997
  155.0742  140.3203  155.4602 H   0  0  0  0  0  0  0  0  0  0  0  0  # atno 8009 bound_to 7997
  156.2746  140.2076  156.5870 H   0  0  0  0  0  0  0  0  0  0  0  0  # atno 8010 bound_to 7997
  139.8549  143.7150  152.2655 H   0  0  0  0  0  0  0  0  0  0  0  0  # atno 10167 bound_to 10162
  156.0127  130.5272  150.6635 H   0  0  0  0  0  0  0  0  0  0  0  0  # atno 10718 bound_to 10713
  153.9399  135.6762  153.4744 H   0  0  0  0  0  0  0  0  0  0  0  0  # atno 10763 bound_to 10752
  153.0937  135.4862  154.8735 H   0  0  0  0  0  0  0  0  0  0  0  0  # atno 10764 bound_to 10752
  154.7383  135.3154  154.8731 H   0  0  0  0  0  0  0  0  0  0  0  0  # atno 10765 bound_to 10752
  139.8812  134.9365  156.5646 H   0  0  0  0  0  0  0  0  0  0  0  0  # atno 11005 bound_to 11000
  145.4992  139.1484  143.3666 LP  0  0  0  0  0  0  0  0  0  0  0  0  # atno 17320 bound_to 7965
  146.2568  140.5132  142.8870 LP  0  0  0  0  0  0  0  0  0  0  0  0  # atno 17321 bound_to 7965
  139.7429  144.7555  151.0624 LP  0  0  0  0  0  0  0  0  0  0  0  0  # atno 17342 bound_to 10162
  140.7783  143.4951  150.9843 LP  0  0  0  0  0  0  0  0  0  0  0  0  # atno 17343 bound_to 10162
  157.4373  131.0857  151.0979 LP  0  0  0  0  0  0  0  0  0  0  0  0  # atno 17370 bound_to 10713
  157.1534  130.6194  149.5589 LP  0  0  0  0  0  0  0  0  0  0  0  0  # atno 17371 bound_to 10713
  140.8144  133.8403  155.8839 LP  0  0  0  0  0  0  0  0  0  0  0  0  # atno 17394 bound_to 11000
  140.9476  134.1820  157.4751 LP  0  0  0  0  0  0  0  0  0  0  0  0  # atno 17395 bound_to 11000

$$$$
