AV-unprocessed.smi:1860|AV-procd|sdf|7547|dock10
  -GOLD-   22720 9263D 1   1.00000     0.00000
 Structure written by MMmdl.
 31 32  0  0  0  0  0  0  0  0  1 V2000
  146.9236  141.7972  153.4724 C   0  0  0  0  0  0  0  0  0  0  0  0
  147.3476  141.2940  154.8585 C   0  0  0  0  0  0  0  0  0  0  0  0
  148.6249  141.8661  155.2662 N   0  0  0  0  0  0  0  0  0  0  0  0
  149.7045  141.1598  155.6367 C   0  0  0  0  0  0  0  0  0  0  0  0
  149.7257  139.9302  155.6893 O   0  0  0  0  0  0  0  0  0  0  0  0
  150.9543  141.9628  155.9997 C   0  0  0  0  0  0  0  0  0  0  0  0
  151.5021  141.4975  157.3175 C   0  0  0  0  0  0  0  0  0  0  0  0
  151.8022  140.2056  157.6757 C   0  0  0  0  0  0  0  0  0  0  0  0
  152.4129  140.1033  159.3040 S   0  0  0  0  0  0  0  0  0  0  0  0
  152.2443  141.8559  159.4411 C   0  0  0  0  0  0  0  0  0  0  0  0
  152.5663  142.6507  160.5811 N   0  0  0  0  0  0  0  0  0  0  0  0
  153.2452  142.0856  161.7431 C   0  0  0  0  0  0  0  0  0  0  0  0
  153.3805  143.2670  162.6985 C   0  0  0  0  0  0  0  0  0  0  0  0
  152.7631  144.3357  161.9493 N   0  0  0  0  0  0  0  0  0  0  0  0
  152.3081  143.9627  160.7511 C   0  0  0  0  0  0  0  0  0  0  0  0
  151.7502  144.7223  159.9613 O   0  0  0  0  0  0  0  0  0  0  0  0
  151.7637  142.4259  158.3308 N   0  0  0  0  0  0  0  0  0  0  0  0
  145.9523  141.3886  153.1931 H   0  0  0  0  0  0  0  0  0  0  0  0
  147.6398  141.5006  152.7056 H   0  0  0  0  0  0  0  0  0  0  0  0
  146.8443  142.8845  153.4544 H   0  0  0  0  0  0  0  0  0  0  0  0
  146.5974  141.5764  155.5972 H   0  0  0  0  0  0  0  0  0  0  0  0
  147.3988  140.2042  154.8687 H   0  0  0  0  0  0  0  0  0  0  0  0
  148.6987  142.8730  155.2528 H   0  0  0  0  0  0  0  0  0  0  0  0
  151.7010  141.8545  155.2120 H   0  0  0  0  0  0  0  0  0  0  0  0
  150.6997  143.0229  156.0366 H   0  0  0  0  0  0  0  0  0  0  0  0
  151.6965  139.3091  157.0831 H   0  0  0  0  0  0  0  0  0  0  0  0
  152.6523  141.2827  162.1837 H   0  0  0  0  0  0  0  0  0  0  0  0
  154.2208  141.6856  161.4631 H   0  0  0  0  0  0  0  0  0  0  0  0
  152.8500  143.0992  163.6364 H   0  0  0  0  0  0  0  0  0  0  0  0
  154.4230  143.5023  162.9155 H   0  0  0  0  0  0  0  0  0  0  0  0
  152.6877  145.2756  162.3103 H   0  0  0  0  0  0  0  0  0  0  0  0
  1  2  1  0  0  0  0
  1 18  1  0  0  0  0
  1 19  1  0  0  0  0
  1 20  1  0  0  0  0
  2  3  1  0  0  0  0
  2 21  1  0  0  0  0
  2 22  1  0  0  0  0
  3  4  1  0  0  0  0
  3 23  1  0  0  0  0
  4  5  2  0  0  0  0
  4  6  1  0  0  0  0
  6  7  1  0  0  0  0
  6 24  1  0  0  0  0
  6 25  1  0  0  0  0
  7 17  1  0  0  0  0
  7  8  2  0  0  0  0
  8  9  1  0  0  0  0
  8 26  1  0  0  0  0
  9 10  1  0  0  0  0
 10 11  1  0  0  0  0
 10 17  2  0  0  0  0
 11 15  1  0  0  0  0
 11 12  1  0  0  0  0
 12 13  1  0  0  0  0
 12 27  1  0  0  0  0
 12 28  1  0  0  0  0
 13 14  1  0  0  0  0
 13 29  1  0  0  0  0
 13 30  1  0  0  0  0
 14 15  1  0  0  0  0
 14 31  1  0  0  0  0
 15 16  2  0  0  0  0
M  END
> <s_m_source_file>
AV-unprocessed.smi

> <i_m_source_file_index>
1860

> <i_lp_mmshare_version>
43012

> <i_f3d_flags>
0

> <s_epik_input>
W0NIM11bQ0gyXVtOSF1DKD1PKVtDSDJdYzFbY0hdc2MobjEpTjJbQ0gyXVtDSDJdW05IXUMyPU8=

> <s_epik_cmdline>
J2VwaWtfcHl0aG9uJywgJy1waCcsICc3LjAnLCAnLXRuJywgJzgnLCAnLW1hJywgJzIwMCcsICctbWV0YWxfYmluZGluZycsICctaW1hZScsICc8aW5maWxlLm1hZT4nLCAnLW9tYWUnLCAnPG91dGZpbGUubWFlPic=

> <r_lp_tautomer_probability>
1

> <r_epik_Ionization_Penalty>
0.000119829

> <r_epik_Ionization_Penalty_Charging>
0

> <r_epik_Ionization_Penalty_Neutral>
0.000119829

> <r_epik_State_Penalty>
-0

> <r_epik_Charging_Adjusted_Penalty>
0

> <i_epik_Tot_Q>
0

> <i_epik_Tot_abs_Q>
0

> <r_epik_Metal_State_Penalty>
-0

> <b_epik_Metal_Only>
0

> <s_lp_Force_Field>
OPLS_2005

> <r_lp_Energy>
29.5586

> <b_lp_Chiralities_Consistent>
1

> <s_lp_Variant>
AV-unprocessed.smi:1860-1

> <Gold.Version>
5.8.1

> <Gold.Id.Protein>
6NUR|6NUR_protein|mol2

> <Gold.PLP.Fitness>
41.8584

> <Gold.PLP.PLP>
-39.2542

> <Gold.PLP.part.hbond>
-3.0000

> <Gold.PLP.part.metal>
0.0000

> <Gold.PLP.part.buried>
-6.0190

> <Gold.PLP.part.nonpolar>
-30.4235

> <Gold.PLP.part.repulsive>
0.5940

> <Gold.PLP.ligand.clash>
0.0000

> <Gold.PLP.ligand.torsion>
0.1994

> <Gold.PLP.Chemscore.Hbond>
1.0000

> <Gold.PLP.Chemscore.CHOScore>
0.0000

> <Gold.PLP.Chemscore.Metal>
0.0000

> <Gold.Chemscore.Hbonds>
donor molecule, donor type, donor heavy atom, donor atom, acceptor molecule, acceptor atom, score
      L1  H     3    23       P1  8028  1.00

> <Gold.PLP.Chemscore.Internal.Correction>
0.0029

> <Gold.Rescore>
     Score         DG    S(hbond)    S(metal)    S(lipo)     H(rot)  DE(clash)    DE(int)     intcor
      8.68     -12.22       0.99        0.00      64.97       1.62       0.59       2.96       ----

> <Gold.Chemscore.Fitness>
8.6762

> <Gold.Chemscore.DG>
-12.2205

> <Gold.Chemscore.ZeroCoef>
-5.4800

> <Gold.Chemscore.Hbond>
0.9863

> <Gold.Chemscore.Metal>
0.0000

> <Gold.Chemscore.Lipo>
64.9692

> <Gold.Chemscore.Internal_Hbond>
0.0000

> <Gold.Chemscore.DEClash>
0.5861

> <Gold.Chemscore.DEInternal>
2.9583

> <Gold.Chemscore.Rot>
1.6231

> <Gold.Chemscore.Internal.Correction>
   9.000000E+99

> <Gold.Chemscore.Hbonds>
donor molecule, donor type, donor heavy atom, donor atom, acceptor molecule, acceptor atom, score
      L1  H     3    23       P1  8028  1.00

> <Gold.Chemscore.Hbond.Weighted>
-3.2944

> <Gold.Chemscore.Metal.Weighted>
-0.0000

> <Gold.Chemscore.Lipo.Weighted>
-7.6014

> <Gold.Chemscore.Internal_Hbond.Weighted>
0.0000

> <Gold.Chemscore.DEClash.Weighted>
0.5861

> <Gold.Chemscore.DEInternal.Weighted>
2.9583

> <Gold.Chemscore.Rot.Weighted>
4.1553

> <Gold.Chemscore.Internal.Correction.Weighted>
   9.000000E+99

> <Gold.Protein.RotatedTorsions>
[ 6907 6896 6895 6894 ] final  -83.68 input  -60.11 | X-H torsion
[ 7974 7965 7964 7962 ] final   30.58 input  175.53 | X-H torsion
[ 8008 7997 7996 7995 ] final  133.07 input   59.86 | X-H torsion
[ 10167 10162 10161 10158 ] final   -3.66 input  -65.29 | X-H torsion
[ 10718 10713 10712 10709 ] final   73.06 input   66.30 | X-H torsion
[ 10763 10752 10751 10750 ] final   72.74 input  -60.55 | X-H torsion
[ 11005 11000 10999 10996 ] final   -3.64 input  -57.11 | X-H torsion

> <Gold.Protein.ActiveResidues>
 VAL166  LYS551  ARG553  GLY616  TRP617  ASP618  TYR619  PRO620  LYS621  CYS622 
 ASP623  PHE694  ASN695  SER759  ASP760  ASP761  ALA762  ILE779  LEU786  VAL792 
 PHE793  MET794  SER795  GLU796  ALA797  LYS798  CYS799  TRP800  GLU811  SER814 

> <Gold.Protein.RotatedAtoms>
  150.6883  134.3474  159.4894 H   0  0  0  0  0  0  0  0  0  0  0  0  # atno 6907 bound_to 6896
  152.1320  134.9125  160.0567 H   0  0  0  0  0  0  0  0  0  0  0  0  # atno 6908 bound_to 6896
  152.0291  133.3895  159.4327 H   0  0  0  0  0  0  0  0  0  0  0  0  # atno 6909 bound_to 6896
  146.1603  139.6770  142.9038 H   0  0  0  0  0  0  0  0  0  0  0  0  # atno 7974 bound_to 7965
  156.2989  140.2530  156.3193 H   0  0  0  0  0  0  0  0  0  0  0  0  # atno 8008 bound_to 7997
  154.9251  140.0400  157.2037 H   0  0  0  0  0  0  0  0  0  0  0  0  # atno 8009 bound_to 7997
  154.8273  140.2870  155.5750 H   0  0  0  0  0  0  0  0  0  0  0  0  # atno 8010 bound_to 7997
  140.6898  143.6514  150.8347 H   0  0  0  0  0  0  0  0  0  0  0  0  # atno 10167 bound_to 10162
  157.6530  130.9610  150.1016 H   0  0  0  0  0  0  0  0  0  0  0  0  # atno 10718 bound_to 10713
  153.0477  135.5089  154.7789 H   0  0  0  0  0  0  0  0  0  0  0  0  # atno 10763 bound_to 10752
  154.6675  135.2948  154.9788 H   0  0  0  0  0  0  0  0  0  0  0  0  # atno 10764 bound_to 10752
  154.0617  135.6690  153.4865 H   0  0  0  0  0  0  0  0  0  0  0  0  # atno 10765 bound_to 10752
  140.6716  133.9232  155.8498 H   0  0  0  0  0  0  0  0  0  0  0  0  # atno 11005 bound_to 11000
  145.4605  141.0432  143.2754 LP  0  0  0  0  0  0  0  0  0  0  0  0  # atno 17320 bound_to 7965
  144.8018  139.6126  143.7068 LP  0  0  0  0  0  0  0  0  0  0  0  0  # atno 17321 bound_to 7965
  140.0225  143.5527  152.2794 LP  0  0  0  0  0  0  0  0  0  0  0  0  # atno 17342 bound_to 10162
  139.6291  144.7641  151.2575 LP  0  0  0  0  0  0  0  0  0  0  0  0  # atno 17343 bound_to 10162
  156.1937  130.3656  149.8877 LP  0  0  0  0  0  0  0  0  0  0  0  0  # atno 17370 bound_to 10713
  156.6798  130.8854  151.3574 LP  0  0  0  0  0  0  0  0  0  0  0  0  # atno 17371 bound_to 10713
  141.0388  134.0651  157.3927 LP  0  0  0  0  0  0  0  0  0  0  0  0  # atno 17394 bound_to 11000
  139.8980  135.0152  156.7127 LP  0  0  0  0  0  0  0  0  0  0  0  0  # atno 17395 bound_to 11000

$$$$
