AV-unprocessed.smi:261|AV-procd|sdf|1983|dock6
  -GOLD-   2262021163D 1   1.00000     0.00000
 Structure written by MMmdl.
 51 54  0  0  0  0  0  0  0  0  1 V2000
  152.2006  143.7908  158.3751 C   0  0  0  0  0  0  0  0  0  0  0  0
  150.8517  143.5709  157.9972 O   0  0  0  0  0  0  0  0  0  0  0  0
  150.5804  142.2260  157.6326 C   0  0  1  0  0  0  0  0  0  0  0  0
  149.0917  142.0239  157.3796 C   0  0  0  0  0  0  0  0  0  0  0  0
  149.0569  140.7630  156.5051 C   0  0  1  0  0  0  0  0  0  0  0  0
  147.7959  140.7025  155.6316 C   0  0  0  0  0  0  0  0  0  0  0  0
  147.9821  140.6226  154.3122 N   0  0  0  0  0  0  0  0  0  0  0  0
  146.6731  140.7117  156.1337 O   0  0  0  0  0  0  0  0  0  0  0  0
  150.2799  140.8455  155.7014 N   0  0  0  0  0  0  0  0  0  0  0  0
  150.8245  139.6553  155.3653 C   0  0  0  0  0  0  0  0  0  0  0  0
  151.9346  139.6769  154.5885 N   0  0  0  0  0  0  0  0  0  0  0  0
  152.5092  138.5295  154.2142 C   0  0  0  0  0  0  0  0  0  0  0  0
  152.1393  137.2782  154.4976 N   0  0  0  0  0  0  0  0  0  0  0  0
  151.0203  137.2561  155.2774 C   0  0  0  0  0  0  0  0  0  0  0  0
  150.3055  138.3892  155.7561 C   0  0  0  0  0  0  0  0  0  0  0  0
  149.2188  137.9791  156.5195 N   0  0  0  0  0  0  0  0  0  0  0  0
  149.2864  136.6761  156.4924 C   0  0  0  0  0  0  0  0  0  0  0  0
  150.3372  136.1582  155.7696 N   0  0  0  0  0  0  0  0  0  0  0  0
  150.6411  134.7515  155.5708 C   0  0  0  0  0  0  0  0  0  0  0  0
  149.3842  133.9136  155.2528 C   0  0  2  0  0  0  0  0  0  0  0  0
  148.7022  133.6682  156.4677 O   0  0  0  0  0  0  0  0  0  0  0  0
  149.7124  132.5498  154.6120 C   0  0  2  0  0  0  0  0  0  0  0  0
  148.4958  131.6724  154.3074 C   0  0  0  0  0  0  0  0  0  0  0  0
  149.0610  130.2616  154.3022 C   0  0  0  0  0  0  0  0  0  0  0  0
  150.3952  130.3989  155.0392 C   0  0  0  0  0  0  0  0  0  0  0  0
  150.4063  131.7285  155.5401 O   0  0  0  0  0  0  0  0  0  0  0  0
  151.1946  141.8197  156.2894 C   0  0  0  0  0  0  0  0  0  0  0  0
  150.9000  141.5381  158.4180 H   0  0  0  0  0  0  0  0  0  0  0  0
  149.0909  139.8836  157.1521 H   0  0  0  0  0  0  0  0  0  0  0  0
  152.3305  144.8322  158.6685 H   0  0  0  0  0  0  0  0  0  0  0  0
  152.8859  143.5884  157.5515 H   0  0  0  0  0  0  0  0  0  0  0  0
  152.4791  143.1656  159.2243 H   0  0  0  0  0  0  0  0  0  0  0  0
  148.5247  141.9108  158.3044 H   0  0  0  0  0  0  0  0  0  0  0  0
  148.6882  142.8840  156.8415 H   0  0  0  0  0  0  0  0  0  0  0  0
  147.1870  140.5806  153.6916 H   0  0  0  0  0  0  0  0  0  0  0  0
  148.9206  140.6050  153.9403 H   0  0  0  0  0  0  0  0  0  0  0  0
  153.3907  138.6283  153.5980 H   0  0  0  0  0  0  0  0  0  0  0  0
  148.5669  136.0517  157.0023 H   0  0  0  0  0  0  0  0  0  0  0  0
  151.3648  134.6837  154.7585 H   0  0  0  0  0  0  0  0  0  0  0  0
  151.1393  134.3673  156.4620 H   0  0  0  0  0  0  0  0  0  0  0  0
  148.7302  134.4823  154.5903 H   0  0  0  0  0  0  0  0  0  0  0  0
  149.0227  132.8579  156.8333 H   0  0  0  0  0  0  0  0  0  0  0  0
  150.3108  132.6742  153.7068 H   0  0  0  0  0  0  0  0  0  0  0  0
  147.7576  131.7639  155.1056 H   0  0  0  0  0  0  0  0  0  0  0  0
  148.0100  131.9345  153.3668 H   0  0  0  0  0  0  0  0  0  0  0  0
  148.3866  129.5663  154.8033 H   0  0  0  0  0  0  0  0  0  0  0  0
  149.2219  129.9025  153.2851 H   0  0  0  0  0  0  0  0  0  0  0  0
  150.5033  129.6762  155.8481 H   0  0  0  0  0  0  0  0  0  0  0  0
  151.2304  130.2667  154.3498 H   0  0  0  0  0  0  0  0  0  0  0  0
  151.2330  142.6770  155.6164 H   0  0  0  0  0  0  0  0  0  0  0  0
  152.2161  141.4538  156.4059 H   0  0  0  0  0  0  0  0  0  0  0  0
  1  2  1  0  0  0  0
  1 30  1  0  0  0  0
  1 31  1  0  0  0  0
  1 32  1  0  0  0  0
  2  3  1  0  0  0  0
  3 28  1  0  0  0  0
  3 27  1  0  0  0  0
  3  4  1  0  0  0  0
  4  5  1  0  0  0  0
  4 33  1  0  0  0  0
  4 34  1  0  0  0  0
  5 29  1  0  0  0  0
  5  6  1  0  0  0  0
  5  9  1  0  0  0  0
  6  7  1  0  0  0  0
  6  8  2  0  0  0  0
  7 35  1  0  0  0  0
  7 36  1  0  0  0  0
  9 10  1  0  0  0  0
  9 27  1  0  0  0  0
 10 15  1  0  0  0  0
 10 11  2  0  0  0  0
 11 12  1  0  0  0  0
 12 13  2  0  0  0  0
 12 37  1  0  0  0  0
 13 14  1  0  0  0  0
 14 18  1  0  0  0  0
 14 15  2  0  0  0  0
 15 16  1  0  0  0  0
 16 17  2  0  0  0  0
 17 18  1  0  0  0  0
 17 38  1  0  0  0  0
 18 19  1  0  0  0  0
 19 20  1  0  0  0  0
 19 39  1  0  0  0  0
 19 40  1  0  0  0  0
 20 21  1  0  0  0  0
 20 22  1  0  0  0  0
 20 41  1  0  0  0  0
 21 42  1  0  0  0  0
 22 26  1  0  0  0  0
 22 23  1  0  0  0  0
 22 43  1  0  0  0  0
 23 24  1  0  0  0  0
 23 44  1  0  0  0  0
 23 45  1  0  0  0  0
 24 25  1  0  0  0  0
 24 46  1  0  0  0  0
 24 47  1  0  0  0  0
 25 26  1  0  0  0  0
 25 48  1  0  0  0  0
 25 49  1  0  0  0  0
 27 50  1  0  0  0  0
 27 51  1  0  0  0  0
M  END
> <s_m_source_file>
AV-unprocessed.smi

> <i_m_source_file_index>
261

> <i_lp_mmshare_version>
43012

> <i_f3d_flags>
0

> <s_epik_input>
W0NIM11PW0NASF0xW0NIMl1bQ0BASF0oQyg9TylbTkgyXSlOKFtDSDJdMSljKG5bY0hdbjIpYyhjMjMpbltjSF1uM1tDSDJdW0NASF0oW09IXSlbQ0BASF00W0NIMl1bQ0gyXVtDSDJdTzQ=

> <s_epik_cmdline>
J2VwaWtfcHl0aG9uJywgJy1waCcsICc3LjAnLCAnLXRuJywgJzgnLCAnLW1hJywgJzIwMCcsICctbWV0YWxfYmluZGluZycsICctaW1hZScsICc8aW5maWxlLm1hZT4nLCAnLW9tYWUnLCAnPG91dGZpbGUubWFlPic=

> <r_lp_tautomer_probability>
1

> <r_epik_Ionization_Penalty>
0.000713824

> <r_epik_Ionization_Penalty_Charging>
0

> <r_epik_Ionization_Penalty_Neutral>
0.000713824

> <r_epik_State_Penalty>
0.000402132

> <r_epik_Charging_Adjusted_Penalty>
0.000402132

> <i_epik_Tot_Q>
0

> <i_epik_Tot_abs_Q>
0

> <r_epik_Metal_State_Penalty>
-0

> <b_epik_Metal_Only>
0

> <s_lp_Force_Field>
OPLS_2005

> <r_lp_Energy>
45.6621

> <b_lp_Chiralities_Consistent>
1

> <s_lp_Variant>
AV-unprocessed.smi:261-1

> <Gold.Version>
5.8.1

> <Gold.Id.Protein>
6NUR|6NUR_protein|mol2

> <Gold.PLP.Fitness>
43.4463

> <Gold.PLP.PLP>
-38.9537

> <Gold.PLP.part.hbond>
-2.0851

> <Gold.PLP.part.metal>
0.0000

> <Gold.PLP.part.buried>
-7.8772

> <Gold.PLP.part.nonpolar>
-29.1267

> <Gold.PLP.part.repulsive>
0.5807

> <Gold.PLP.ligand.clash>
0.0000

> <Gold.PLP.ligand.torsion>
0.5358

> <Gold.PLP.Chemscore.Hbond>
1.7920

> <Gold.PLP.Chemscore.CHOScore>
0.0000

> <Gold.PLP.Chemscore.Metal>
0.0000

> <Gold.Chemscore.Hbonds>
donor molecule, donor type, donor heavy atom, donor atom, acceptor molecule, acceptor atom, score
      P1  H  7989  7998       L1    11  0.93
      P1  H 10752 10765       L1    13  0.86

> <Gold.PLP.Chemscore.Internal.Correction>
0.1883

> <Gold.Rescore>
     Score         DG    S(hbond)    S(metal)    S(lipo)     H(rot)  DE(clash)    DE(int)     intcor
      7.83      -9.85       1.71        0.00      66.88       3.57       0.09       1.93       ----

> <Gold.Chemscore.Fitness>
7.8322

> <Gold.Chemscore.DG>
-9.8533

> <Gold.Chemscore.ZeroCoef>
-5.4800

> <Gold.Chemscore.Hbond>
1.7058

> <Gold.Chemscore.Metal>
0.0000

> <Gold.Chemscore.Lipo>
66.8835

> <Gold.Chemscore.Internal_Hbond>
0.0000

> <Gold.Chemscore.DEClash>
0.0918

> <Gold.Chemscore.DEInternal>
1.9294

> <Gold.Chemscore.Rot>
3.5740

> <Gold.Chemscore.Internal.Correction>
   9.000000E+99

> <Gold.Chemscore.Hbonds>
donor molecule, donor type, donor heavy atom, donor atom, acceptor molecule, acceptor atom, score
      P1  H  7989  7998       L1    11  0.44
      P1  H 10752 10765       L1    13  0.75

> <Gold.Chemscore.Hbond.Weighted>
-5.6974

> <Gold.Chemscore.Metal.Weighted>
-0.0000

> <Gold.Chemscore.Lipo.Weighted>
-7.8254

> <Gold.Chemscore.Internal_Hbond.Weighted>
0.0000

> <Gold.Chemscore.DEClash.Weighted>
0.0918

> <Gold.Chemscore.DEInternal.Weighted>
1.9294

> <Gold.Chemscore.Rot.Weighted>
9.1495

> <Gold.Chemscore.Internal.Correction.Weighted>
   9.000000E+99

> <Gold.Protein.RotatedTorsions>
[ 6907 6896 6895 6894 ] final  125.58 input  -60.11 | X-H torsion
[ 7974 7965 7964 7962 ] final  142.85 input  175.53 | X-H torsion
[ 8008 7997 7996 7995 ] final  150.32 input   59.86 | X-H torsion
[ 10167 10162 10161 10158 ] final  -80.69 input  -65.29 | X-H torsion
[ 10718 10713 10712 10709 ] final  137.25 input   66.30 | X-H torsion
[ 10763 10752 10751 10750 ] final  165.92 input  -60.55 | X-H torsion
[ 11005 11000 10999 10996 ] final    8.58 input  -57.11 | X-H torsion

> <Gold.Protein.ActiveResidues>
 VAL166  LYS551  ARG553  GLY616  TRP617  ASP618  TYR619  PRO620  LYS621  CYS622 
 ASP623  PHE694  ASN695  SER759  ASP760  ASP761  ALA762  ILE779  LEU786  VAL792 
 PHE793  MET794  SER795  GLU796  ALA797  LYS798  CYS799  TRP800  GLU811  SER814 

> <Gold.Protein.RotatedAtoms>
  152.3979  133.6775  159.6291 H   0  0  0  0  0  0  0  0  0  0  0  0  # atno 6907 bound_to 6896
  150.7875  133.8841  159.3303 H   0  0  0  0  0  0  0  0  0  0  0  0  # atno 6908 bound_to 6896
  151.6613  135.0990  160.0231 H   0  0  0  0  0  0  0  0  0  0  0  0  # atno 6909 bound_to 6896
  144.8972  139.5474  143.5771 H   0  0  0  0  0  0  0  0  0  0  0  0  # atno 7974 bound_to 7965
  156.2720  140.2078  156.5998 H   0  0  0  0  0  0  0  0  0  0  0  0  # atno 8008 bound_to 7997
  154.6915  140.0530  157.0392 H   0  0  0  0  0  0  0  0  0  0  0  0  # atno 8009 bound_to 7997
  155.0859  140.3191  155.4590 H   0  0  0  0  0  0  0  0  0  0  0  0  # atno 8010 bound_to 7997
  140.4480  143.2492  151.8529 H   0  0  0  0  0  0  0  0  0  0  0  0  # atno 10167 bound_to 10162
  157.4380  131.1055  151.0175 H   0  0  0  0  0  0  0  0  0  0  0  0  # atno 10718 bound_to 10713
  154.3312  135.2755  155.2471 H   0  0  0  0  0  0  0  0  0  0  0  0  # atno 10763 bound_to 10752
  154.4782  135.5865  153.6374 H   0  0  0  0  0  0  0  0  0  0  0  0  # atno 10764 bound_to 10752
  152.9866  135.6105  154.3504 H   0  0  0  0  0  0  0  0  0  0  0  0  # atno 10765 bound_to 10752
  140.5354  134.0425  155.7887 H   0  0  0  0  0  0  0  0  0  0  0  0  # atno 11005 bound_to 11000
  146.3088  139.7672  142.9036 LP  0  0  0  0  0  0  0  0  0  0  0  0  # atno 17320 bound_to 7965
  145.3679  141.0337  143.3247 LP  0  0  0  0  0  0  0  0  0  0  0  0  # atno 17321 bound_to 7965
  139.4794  144.5152  151.8877 LP  0  0  0  0  0  0  0  0  0  0  0  0  # atno 17342 bound_to 10162
  140.4240  144.2205  150.5887 LP  0  0  0  0  0  0  0  0  0  0  0  0  # atno 17343 bound_to 10162
  157.1048  130.5997  149.5468 LP  0  0  0  0  0  0  0  0  0  0  0  0  # atno 17370 bound_to 10713
  155.9938  130.5000  150.7394 LP  0  0  0  0  0  0  0  0  0  0  0  0  # atno 17371 bound_to 10713
  141.1257  133.9386  157.2639 LP  0  0  0  0  0  0  0  0  0  0  0  0  # atno 17394 bound_to 11000
  139.9532  135.0171  156.9053 LP  0  0  0  0  0  0  0  0  0  0  0  0  # atno 17395 bound_to 11000

$$$$
