AV-unprocessed.smi:1809|AV-procd|sdf|7322|dock6
  -GOLD-   22720 8573D 1   1.00000     0.00000
 Structure written by MMmdl.
 39 41  0  0  0  0  0  0  0  0  3 V2000
  151.1406  141.7140  158.3642 C   0  0  0  0  0  0  0  0  0  0  0  0
  150.8063  140.9385  157.1363 C   0  0  0  0  0  0  0  0  0  0  0  0
  150.4076  141.5179  156.0012 N   0  0  0  0  0  0  0  0  0  0  0  0
  150.1557  140.5899  155.0010 N   0  0  0  0  0  0  0  0  0  0  0  0
  150.3562  139.3244  155.3956 C   0  0  0  0  0  0  0  0  0  0  0  0
  150.1726  138.2764  154.5755 N   0  5  0  0  0  0  0  0  0  0  0  0
  150.4732  137.0280  154.9970 C   0  0  0  0  0  0  0  0  0  0  0  0
  151.2693  136.7268  155.8895 O   0  0  0  0  0  0  0  0  0  0  0  0
  149.8093  136.0658  154.3448 N   0  0  0  0  0  0  0  0  0  0  0  0
  149.9315  134.6402  154.6123 C   0  0  0  0  0  0  0  0  0  0  0  0
  148.5897  134.0575  155.0959 C   0  0  1  0  0  0  0  0  0  0  0  0
  147.3700  134.8420  154.5557 C   0  0  0  0  0  0  0  0  0  0  0  0
  147.1829  134.5129  153.1302 N   0  3  2  0  0  0  0  0  0  0  0  0
  146.0772  135.1621  152.4055 C   0  0  0  0  0  0  0  0  0  0  0  0
  145.7690  134.2186  151.2258 C   0  0  0  0  0  0  0  0  0  0  0  0
  146.6320  132.9649  151.4569 C   0  0  0  0  0  0  0  0  0  0  0  0
  147.0125  133.0722  152.9304 C   0  0  1  0  0  0  0  0  0  0  0  0
  148.2786  132.3475  153.4020 C   0  0  0  0  0  0  0  0  0  0  0  0
  148.4717  132.6599  154.7841 O   0  0  0  0  0  0  0  0  0  0  0  0
  150.9007  139.1870  157.0672 S   0  0  0  0  0  0  0  0  0  0  0  0
  150.2285  141.9674  158.9043 H   0  0  0  0  0  0  0  0  0  0  0  0
  151.6612  142.6350  158.1003 H   0  0  0  0  0  0  0  0  0  0  0  0
  151.7844  141.1261  159.0187 H   0  0  0  0  0  0  0  0  0  0  0  0
  149.1646  136.3488  153.6210 H   0  0  0  0  0  0  0  0  0  0  0  0
  150.2436  134.1372  153.6958 H   0  0  0  0  0  0  0  0  0  0  0  0
  150.7213  134.4714  155.3453 H   0  0  0  0  0  0  0  0  0  0  0  0
  148.5778  134.1338  156.1838 H   0  0  0  0  0  0  0  0  0  0  0  0
  146.4724  134.5707  155.1133 H   0  0  0  0  0  0  0  0  0  0  0  0
  147.5120  135.9165  154.6778 H   0  0  0  0  0  0  0  0  0  0  0  0
  145.2047  135.2471  153.0553 H   0  0  0  0  0  0  0  0  0  0  0  0
  146.3582  136.1638  152.0797 H   0  0  0  0  0  0  0  0  0  0  0  0
  144.7084  133.9642  151.2149 H   0  0  0  0  0  0  0  0  0  0  0  0
  146.0052  134.6813  150.2671 H   0  0  0  0  0  0  0  0  0  0  0  0
  146.1051  132.0388  151.2244 H   0  0  0  0  0  0  0  0  0  0  0  0
  147.5256  133.0100  150.8325 H   0  0  0  0  0  0  0  0  0  0  0  0
  146.1639  132.7344  153.5298 H   0  0  0  0  0  0  0  0  0  0  0  0
  148.1611  131.2690  153.2957 H   0  0  0  0  0  0  0  0  0  0  0  0
  149.1495  132.6326  152.8112 H   0  0  0  0  0  0  0  0  0  0  0  0
  148.0328  134.7692  152.6479 H   0  0  0  0  0  0  0  0  0  0  0  0
  1  2  1  0  0  0  0
  1 21  1  0  0  0  0
  1 22  1  0  0  0  0
  1 23  1  0  0  0  0
  2 20  1  0  0  0  0
  2  3  2  0  0  0  0
  3  4  1  0  0  0  0
  4  5  2  0  0  0  0
  5  6  1  0  0  0  0
  5 20  1  0  0  0  0
  6  7  1  0  0  0  0
  7  8  2  0  0  0  0
  7  9  1  0  0  0  0
  9 10  1  0  0  0  0
  9 24  1  0  0  0  0
 10 11  1  0  0  0  0
 10 25  1  0  0  0  0
 10 26  1  0  0  0  0
 11 19  1  0  0  0  0
 11 12  1  0  0  0  0
 11 27  1  0  0  0  0
 12 13  1  0  0  0  0
 12 28  1  0  0  0  0
 12 29  1  0  0  0  0
 13 17  1  0  0  0  0
 13 14  1  0  0  0  0
 13 39  1  0  0  0  0
 14 15  1  0  0  0  0
 14 30  1  0  0  0  0
 14 31  1  0  0  0  0
 15 16  1  0  0  0  0
 15 32  1  0  0  0  0
 15 33  1  0  0  0  0
 16 17  1  0  0  0  0
 16 34  1  0  0  0  0
 16 35  1  0  0  0  0
 17 18  1  0  0  0  0
 17 36  1  0  0  0  0
 18 19  1  0  0  0  0
 18 37  1  0  0  0  0
 18 38  1  0  0  0  0
M  CHG  1   6  -1
M  CHG  1  13   1
M  END
> <s_m_source_file>
AV-unprocessed.smi

> <i_m_source_file_index>
1809

> <i_lp_mmshare_version>
43012

> <i_f3d_flags>
0

> <s_epik_input>
W0NIM11jMW5uYyhzMSlbTkhdQyg9TylbTkhdW0NIMl1bQ0BIXShbQ0gyXTIpT1tDSDJdW0NAQEhdKE4yMylbQ0gyXVtDSDJdW0NIMl0z

> <s_epik_cmdline>
J2VwaWtfcHl0aG9uJywgJy1waCcsICc3LjAnLCAnLXRuJywgJzgnLCAnLW1hJywgJzIwMCcsICctbWV0YWxfYmluZGluZycsICctaW1hZScsICc8aW5maWxlLm1hZT4nLCAnLW9tYWUnLCAnPG91dGZpbGUubWFlPic=

> <r_lp_tautomer_probability>
1

> <r_epik_Ionization_Penalty>
3.2601

> <r_epik_Ionization_Penalty_Charging>
3.1406

> <r_epik_Ionization_Penalty_Neutral>
0.119497

> <r_epik_State_Penalty>
3.08894

> <r_epik_Charging_Adjusted_Penalty>
6.22954

> <i_epik_Tot_Q>
0

> <i_epik_Tot_abs_Q>
2

> <r_epik_Metal_State_Penalty>
0.510807

> <b_epik_Metal_Only>
1

> <s_lp_Force_Field>
OPLS_2005

> <r_lp_Energy>
31.1034

> <b_lp_Chiralities_Consistent>
1

> <s_lp_Variant>
AV-unprocessed.smi:1809-14

> <Gold.Version>
5.8.1

> <Gold.Id.Protein>
6NUR|6NUR_protein|mol2

> <Gold.PLP.Fitness>
39.8201

> <Gold.PLP.PLP>
-27.6288

> <Gold.PLP.part.hbond>
-5.2909

> <Gold.PLP.part.metal>
0.0000

> <Gold.PLP.part.buried>
-1.8785

> <Gold.PLP.part.nonpolar>
-20.3439

> <Gold.PLP.part.repulsive>
0.4891

> <Gold.PLP.ligand.clash>
0.4616

> <Gold.PLP.ligand.torsion>
0.4956

> <Gold.PLP.Chemscore.Hbond>
4.5440

> <Gold.PLP.Chemscore.CHOScore>
0.0000

> <Gold.PLP.Chemscore.Metal>
0.0000

> <Gold.Chemscore.Hbonds>
donor molecule, donor type, donor heavy atom, donor atom, acceptor molecule, acceptor atom, score
      L1  H     9    24       P1  7948  0.77
      L1  H    13    39       P1  7948  1.79
      P1  H  7989  7998       L1     4  0.71
      P1  H 10752 10763       L1     8  0.11

> <Gold.PLP.Chemscore.Internal.Correction>
0.0120

> <Gold.Rescore>
     Score         DG    S(hbond)    S(metal)    S(lipo)     H(rot)  DE(clash)    DE(int)     intcor
     16.97     -18.77       3.30        0.00      48.25       1.32       0.02       1.78       ----

> <Gold.Chemscore.Fitness>
16.9683

> <Gold.Chemscore.DG>
-18.7663

> <Gold.Chemscore.ZeroCoef>
-5.4800

> <Gold.Chemscore.Hbond>
3.3030

> <Gold.Chemscore.Metal>
0.0000

> <Gold.Chemscore.Lipo>
48.2491

> <Gold.Chemscore.Internal_Hbond>
0.0000

> <Gold.Chemscore.DEClash>
0.0199

> <Gold.Chemscore.DEInternal>
1.7781

> <Gold.Chemscore.Rot>
1.3246

> <Gold.Chemscore.Internal.Correction>
   9.000000E+99

> <Gold.Chemscore.Hbonds>
donor molecule, donor type, donor heavy atom, donor atom, acceptor molecule, acceptor atom, score
      L1  H     9    24       P1  7948  0.74
      L1  H    13    39       P1  7948  0.66
      P1  H  7989  7998       L1     4  0.19
      P1  H 10752 10763       L1     8  0.04

> <Gold.Chemscore.Hbond.Weighted>
-11.0321

> <Gold.Chemscore.Metal.Weighted>
-0.0000

> <Gold.Chemscore.Lipo.Weighted>
-5.6451

> <Gold.Chemscore.Internal_Hbond.Weighted>
0.0000

> <Gold.Chemscore.DEClash.Weighted>
0.0199

> <Gold.Chemscore.DEInternal.Weighted>
1.7781

> <Gold.Chemscore.Rot.Weighted>
3.3910

> <Gold.Chemscore.Internal.Correction.Weighted>
   9.000000E+99

> <Gold.Protein.RotatedTorsions>
[ 6907 6896 6895 6894 ] final   -4.27 input  -60.11 | X-H torsion
[ 7974 7965 7964 7962 ] final  135.18 input  175.53 | X-H torsion
[ 8008 7997 7996 7995 ] final   93.80 input   59.86 | X-H torsion
[ 10167 10162 10161 10158 ] final -134.81 input  -65.29 | X-H torsion
[ 10718 10713 10712 10709 ] final  -34.65 input   66.30 | X-H torsion
[ 10763 10752 10751 10750 ] final   61.48 input  -60.55 | X-H torsion
[ 11005 11000 10999 10996 ] final   40.07 input  -57.11 | X-H torsion

> <Gold.Protein.ActiveResidues>
 VAL166  LYS551  ARG553  GLY616  TRP617  ASP618  TYR619  PRO620  LYS621  CYS622 
 ASP623  PHE694  ASN695  SER759  ASP760  ASP761  ALA762  ILE779  LEU786  VAL792 
 PHE793  MET794  SER795  GLU796  ALA797  LYS798  CYS799  TRP800  GLU811  SER814 

> <Gold.Protein.RotatedAtoms>
  151.5003  135.1061  159.9826 H   0  0  0  0  0  0  0  0  0  0  0  0  # atno 6907 bound_to 6896
  152.4704  133.8013  159.6965 H   0  0  0  0  0  0  0  0  0  0  0  0  # atno 6908 bound_to 6896
  150.8710  133.7442  159.2987 H   0  0  0  0  0  0  0  0  0  0  0  0  # atno 6909 bound_to 6896
  144.9689  139.4627  143.5443 H   0  0  0  0  0  0  0  0  0  0  0  0  # atno 7974 bound_to 7965
  156.0508  140.3308  155.7349 H   0  0  0  0  0  0  0  0  0  0  0  0  # atno 8008 bound_to 7997
  155.5603  140.0618  157.2848 H   0  0  0  0  0  0  0  0  0  0  0  0  # atno 8009 bound_to 7997
  154.4435  140.1878  156.0764 H   0  0  0  0  0  0  0  0  0  0  0  0  # atno 8010 bound_to 7997
  139.8842  143.6801  152.2622 H   0  0  0  0  0  0  0  0  0  0  0  0  # atno 10167 bound_to 10162
  156.3481  130.4304  149.7728 H   0  0  0  0  0  0  0  0  0  0  0  0  # atno 10718 bound_to 10713
  152.9952  135.5499  154.6040 H   0  0  0  0  0  0  0  0  0  0  0  0  # atno 10763 bound_to 10752
  154.5375  135.2817  155.1127 H   0  0  0  0  0  0  0  0  0  0  0  0  # atno 10764 bound_to 10752
  154.2418  135.6415  153.5262 H   0  0  0  0  0  0  0  0  0  0  0  0  # atno 10765 bound_to 10752
  140.1966  134.3921  155.8118 H   0  0  0  0  0  0  0  0  0  0  0  0  # atno 11005 bound_to 11000
  146.3376  139.8888  142.8812 LP  0  0  0  0  0  0  0  0  0  0  0  0  # atno 17320 bound_to 7965
  145.2588  141.0070  143.3838 LP  0  0  0  0  0  0  0  0  0  0  0  0  # atno 17321 bound_to 7965
  139.7168  144.7610  151.1021 LP  0  0  0  0  0  0  0  0  0  0  0  0  # atno 17342 bound_to 10162
  140.7739  143.5259  150.9481 LP  0  0  0  0  0  0  0  0  0  0  0  0  # atno 17343 bound_to 10162
  156.4939  130.8098  151.3106 LP  0  0  0  0  0  0  0  0  0  0  0  0  # atno 17370 bound_to 10713
  157.7457  130.9966  150.2787 LP  0  0  0  0  0  0  0  0  0  0  0  0  # atno 17371 bound_to 10713
  141.2227  133.7073  156.8186 LP  0  0  0  0  0  0  0  0  0  0  0  0  # atno 17394 bound_to 11000
  140.2100  134.8834  157.3264 LP  0  0  0  0  0  0  0  0  0  0  0  0  # atno 17395 bound_to 11000

$$$$
