AV-unprocessed.smi:3113|AV-procd|sdf|11852|dock6
  -GOLD-   2272017233D 1   1.00000     0.00000
 Structure written by MMmdl.
 35 36  0  0  0  0  0  0  0  0  2 V2000
  153.7394  141.3439  160.6873 C   0  0  0  0  0  0  0  0  0  0  0  0
  153.2600  142.4926  161.3772 C   0  0  0  0  0  0  0  0  0  0  0  0
  153.0025  143.5050  160.5646 N   0  0  0  0  0  0  0  0  0  0  0  0
  153.3032  143.0365  159.3340 N   0  0  0  0  0  0  0  0  0  0  0  0
  153.1421  143.8972  158.1779 C   0  0  0  0  0  0  0  0  0  0  0  0
  151.6656  144.2254  157.9110 C   0  0  0  0  0  0  0  0  0  0  0  0
  151.1320  143.4064  156.8059 N   0  3  0  0  0  0  0  0  0  0  0  0
  150.9067  141.9914  157.1617 C   0  0  0  0  0  0  0  0  0  0  0  0
  150.4776  141.1744  155.9344 C   0  0  2  0  0  0  0  0  0  0  0  0
  148.9687  141.3118  155.6517 C   0  0  0  0  0  0  0  0  0  0  0  0
  148.5519  140.4067  154.4867 C   0  0  0  0  0  0  0  0  0  0  0  0
  149.0099  138.9704  154.7596 C   0  0  0  0  0  0  0  0  0  0  0  0
  150.5103  138.9438  155.0905 C   0  0  0  0  0  0  0  0  0  0  0  0
  150.7793  139.8043  156.1936 O   0  0  0  0  0  0  0  0  0  0  0  0
  153.7556  141.7342  159.3789 C   0  0  0  0  0  0  0  0  0  0  0  0
  154.0277  140.3845  161.0909 H   0  0  0  0  0  0  0  0  0  0  0  0
  153.0937  142.6199  162.4368 H   0  0  0  0  0  0  0  0  0  0  0  0
  153.7138  144.8111  158.3452 H   0  0  0  0  0  0  0  0  0  0  0  0
  153.5833  143.4006  157.3125 H   0  0  0  0  0  0  0  0  0  0  0  0
  151.0748  144.0425  158.8097 H   0  0  0  0  0  0  0  0  0  0  0  0
  151.5535  145.2809  157.6595 H   0  0  0  0  0  0  0  0  0  0  0  0
  150.2553  143.8050  156.5016 H   0  0  0  0  0  0  0  0  0  0  0  0
  151.8141  141.5698  157.5966 H   0  0  0  0  0  0  0  0  0  0  0  0
  150.1314  141.9466  157.9278 H   0  0  0  0  0  0  0  0  0  0  0  0
  151.0414  141.5134  155.0629 H   0  0  0  0  0  0  0  0  0  0  0  0
  148.4004  141.0421  156.5432 H   0  0  0  0  0  0  0  0  0  0  0  0
  148.7189  142.3486  155.4235 H   0  0  0  0  0  0  0  0  0  0  0  0
  147.4714  140.4413  154.3442 H   0  0  0  0  0  0  0  0  0  0  0  0
  149.0029  140.7666  153.5611 H   0  0  0  0  0  0  0  0  0  0  0  0
  148.4450  138.5575  155.5963 H   0  0  0  0  0  0  0  0  0  0  0  0
  148.8014  138.3365  153.8973 H   0  0  0  0  0  0  0  0  0  0  0  0
  150.8181  137.9309  155.3510 H   0  0  0  0  0  0  0  0  0  0  0  0
  151.1052  139.2446  154.2267 H   0  0  0  0  0  0  0  0  0  0  0  0
  154.0475  141.1984  158.4874 H   0  0  0  0  0  0  0  0  0  0  0  0
  151.7867  143.4398  156.0372 H   0  0  0  0  0  0  0  0  0  0  0  0
  1 15  2  0  0  0  0
  1  2  1  0  0  0  0
  1 16  1  0  0  0  0
  2  3  2  0  0  0  0
  2 17  1  0  0  0  0
  3  4  1  0  0  0  0
  4  5  1  0  0  0  0
  4 15  1  0  0  0  0
  5  6  1  0  0  0  0
  5 18  1  0  0  0  0
  5 19  1  0  0  0  0
  6  7  1  0  0  0  0
  6 20  1  0  0  0  0
  6 21  1  0  0  0  0
  7  8  1  0  0  0  0
  7 22  1  0  0  0  0
  7 35  1  0  0  0  0
  8  9  1  0  0  0  0
  8 23  1  0  0  0  0
  8 24  1  0  0  0  0
  9 14  1  0  0  0  0
  9 10  1  0  0  0  0
  9 25  1  0  0  0  0
 10 11  1  0  0  0  0
 10 26  1  0  0  0  0
 10 27  1  0  0  0  0
 11 12  1  0  0  0  0
 11 28  1  0  0  0  0
 11 29  1  0  0  0  0
 12 13  1  0  0  0  0
 12 30  1  0  0  0  0
 12 31  1  0  0  0  0
 13 14  1  0  0  0  0
 13 32  1  0  0  0  0
 13 33  1  0  0  0  0
 15 34  1  0  0  0  0
M  CHG  1   7   1
M  END
> <s_m_source_file>
AV-unprocessed.smi

> <i_m_source_file_index>
3113

> <i_lp_mmshare_version>
43012

> <i_f3d_flags>
0

> <s_epik_input>
W2NIXTFbY0hdW2NIXW5uMVtDSDJdW0NIMl1bTkhdW0NIMl1bQ0BASF0yW0NIMl1bQ0gyXVtDSDJdW0NIMl1PMg==

> <s_epik_cmdline>
J2VwaWtfcHl0aG9uJywgJy1waCcsICc3LjAnLCAnLXRuJywgJzgnLCAnLW1hJywgJzIwMCcsICctbWV0YWxfYmluZGluZycsICctaW1hZScsICc8aW5maWxlLm1hZT4nLCAnLW9tYWUnLCAnPG91dGZpbGUubWFlPic=

> <r_lp_tautomer_probability>
1

> <r_epik_Ionization_Penalty>
0.00849054

> <r_epik_Ionization_Penalty_Charging>
0.00848754

> <r_epik_Ionization_Penalty_Neutral>
3.00382e-06

> <r_epik_State_Penalty>
0.00639836

> <r_epik_Charging_Adjusted_Penalty>
0.0148859

> <i_epik_Tot_Q>
1

> <i_epik_Tot_abs_Q>
1

> <r_epik_Metal_State_Penalty>
0.00641155

> <b_epik_Metal_Only>
0

> <s_lp_Force_Field>
OPLS_2005

> <r_lp_Energy>
10.9258

> <b_lp_Chiralities_Consistent>
1

> <s_lp_Variant>
AV-unprocessed.smi:3113-1

> <Gold.Version>
5.8.1

> <Gold.Id.Protein>
6NUR|6NUR_protein|mol2

> <Gold.PLP.Fitness>
48.1875

> <Gold.PLP.PLP>
-43.4129

> <Gold.PLP.part.hbond>
-1.0000

> <Gold.PLP.part.metal>
0.0000

> <Gold.PLP.part.buried>
-5.3893

> <Gold.PLP.part.nonpolar>
-38.2006

> <Gold.PLP.part.repulsive>
0.1316

> <Gold.PLP.ligand.clash>
0.0000

> <Gold.PLP.ligand.torsion>
0.6177

> <Gold.PLP.Chemscore.Hbond>
2.0000

> <Gold.PLP.Chemscore.CHOScore>
0.0000

> <Gold.PLP.Chemscore.Metal>
0.0000

> <Gold.Chemscore.Hbonds>
donor molecule, donor type, donor heavy atom, donor atom, acceptor molecule, acceptor atom, score
      L1  H     7    22       P1  8028  2.00

> <Gold.PLP.Chemscore.Internal.Correction>
0.0099

> <Gold.Rescore>
     Score         DG    S(hbond)    S(metal)    S(lipo)     H(rot)  DE(clash)    DE(int)     intcor
     16.16     -16.56       0.99        0.00     103.52       1.70       0.05       0.35       ----

> <Gold.Chemscore.Fitness>
16.1593

> <Gold.Chemscore.DG>
-16.5645

> <Gold.Chemscore.ZeroCoef>
-5.4800

> <Gold.Chemscore.Hbond>
0.9941

> <Gold.Chemscore.Metal>
0.0000

> <Gold.Chemscore.Lipo>
103.5248

> <Gold.Chemscore.Internal_Hbond>
0.0000

> <Gold.Chemscore.DEClash>
0.0527

> <Gold.Chemscore.DEInternal>
0.3526

> <Gold.Chemscore.Rot>
1.6985

> <Gold.Chemscore.Internal.Correction>
   9.000000E+99

> <Gold.Chemscore.Hbonds>
donor molecule, donor type, donor heavy atom, donor atom, acceptor molecule, acceptor atom, score
      L1  H     7    22       P1  8028  1.00

> <Gold.Chemscore.Hbond.Weighted>
-3.3203

> <Gold.Chemscore.Metal.Weighted>
-0.0000

> <Gold.Chemscore.Lipo.Weighted>
-12.1124

> <Gold.Chemscore.Internal_Hbond.Weighted>
0.0000

> <Gold.Chemscore.DEClash.Weighted>
0.0527

> <Gold.Chemscore.DEInternal.Weighted>
0.3526

> <Gold.Chemscore.Rot.Weighted>
4.3482

> <Gold.Chemscore.Internal.Correction.Weighted>
   9.000000E+99

> <Gold.Protein.RotatedTorsions>
[ 6907 6896 6895 6894 ] final -154.97 input  -60.11 | X-H torsion
[ 7974 7965 7964 7962 ] final -146.76 input  175.53 | X-H torsion
[ 8008 7997 7996 7995 ] final   19.07 input   59.86 | X-H torsion
[ 10167 10162 10161 10158 ] final -165.29 input  -65.29 | X-H torsion
[ 10718 10713 10712 10709 ] final  -25.25 input   66.30 | X-H torsion
[ 10763 10752 10751 10750 ] final  -79.75 input  -60.55 | X-H torsion
[ 11005 11000 10999 10996 ] final  -16.11 input  -57.11 | X-H torsion

> <Gold.Protein.ActiveResidues>
 VAL166  LYS551  ARG553  GLY616  TRP617  ASP618  TYR619  PRO620  LYS621  CYS622 
 ASP623  PHE694  ASN695  SER759  ASP760  ASP761  ALA762  ILE779  LEU786  VAL792 
 PHE793  MET794  SER795  GLU796  ALA797  LYS798  CYS799  TRP800  GLU811  SER814 

> <Gold.Protein.RotatedAtoms>
  151.2654  133.4281  159.2618 H   0  0  0  0  0  0  0  0  0  0  0  0  # atno 6907 bound_to 6896
  151.0493  134.9662  159.8213 H   0  0  0  0  0  0  0  0  0  0  0  0  # atno 6908 bound_to 6896
  152.5379  134.2609  159.8987 H   0  0  0  0  0  0  0  0  0  0  0  0  # atno 6909 bound_to 6896
  144.8138  140.5415  143.5624 H   0  0  0  0  0  0  0  0  0  0  0  0  # atno 7974 bound_to 7965
  154.9154  140.3020  155.5244 H   0  0  0  0  0  0  0  0  0  0  0  0  # atno 8008 bound_to 7997
  156.3013  140.2381  156.4133 H   0  0  0  0  0  0  0  0  0  0  0  0  # atno 8009 bound_to 7997
  154.8384  140.0415  157.1513 H   0  0  0  0  0  0  0  0  0  0  0  0  # atno 8010 bound_to 7997
  139.6192  144.0658  152.1917 H   0  0  0  0  0  0  0  0  0  0  0  0  # atno 10167 bound_to 10162
  156.4668  130.4516  149.6894 H   0  0  0  0  0  0  0  0  0  0  0  0  # atno 10718 bound_to 10713
  154.5426  135.5685  153.6852 H   0  0  0  0  0  0  0  0  0  0  0  0  # atno 10763 bound_to 10752
  152.9967  135.6231  154.2482 H   0  0  0  0  0  0  0  0  0  0  0  0  # atno 10764 bound_to 10752
  154.2413  135.2862  155.2832 H   0  0  0  0  0  0  0  0  0  0  0  0  # atno 10765 bound_to 10752
  140.8035  133.8195  155.9493 H   0  0  0  0  0  0  0  0  0  0  0  0  # atno 11005 bound_to 11000
  145.5261  139.1476  143.3525 LP  0  0  0  0  0  0  0  0  0  0  0  0  # atno 17320 bound_to 7965
  146.2439  140.5402  142.8922 LP  0  0  0  0  0  0  0  0  0  0  0  0  # atno 17321 bound_to 7965
  140.0296  144.6091  150.7499 LP  0  0  0  0  0  0  0  0  0  0  0  0  # atno 17342 bound_to 10162
  140.7371  143.2761  151.3737 LP  0  0  0  0  0  0  0  0  0  0  0  0  # atno 17343 bound_to 10162
  156.3659  130.7506  151.2483 LP  0  0  0  0  0  0  0  0  0  0  0  0  # atno 17370 bound_to 10713
  157.7494  131.0337  150.4283 LP  0  0  0  0  0  0  0  0  0  0  0  0  # atno 17371 bound_to 10713
  140.9271  134.2069  157.4889 LP  0  0  0  0  0  0  0  0  0  0  0  0  # atno 17394 bound_to 11000
  139.8719  134.9817  156.5126 LP  0  0  0  0  0  0  0  0  0  0  0  0  # atno 17395 bound_to 11000

$$$$
