AV-unprocessed.smi:1273|AV-procd|sdf|5339|dock8
  -GOLD-   22720 4473D 1   1.00000     0.00000
 Structure written by MMmdl.
 40 41  0  0  0  0  0  0  0  0  1 V2000
  146.6864  133.7686  161.6721 C   0  0  0  0  0  0  0  0  0  0  0  0
  147.7123  134.7121  161.0233 C   0  0  1  0  0  0  0  0  0  0  0  0
  147.7583  134.5397  159.4988 C   0  0  0  0  0  0  0  0  0  0  0  0
  148.8282  134.2981  158.9400 O   0  0  0  0  0  0  0  0  0  0  0  0
  146.5783  134.6530  158.8606 N   0  0  0  0  0  0  0  0  0  0  0  0
  146.3224  134.5602  157.4671 C   0  0  0  0  0  0  0  0  0  0  0  0
  147.4142  134.6387  156.5813 C   0  0  0  0  0  0  0  0  0  0  0  0
  147.1864  134.5235  155.1969 C   0  0  0  0  0  0  0  0  0  0  0  0
  145.8663  134.3210  154.7291 C   0  0  0  0  0  0  0  0  0  0  0  0
  145.6123  134.2018  153.3453 N   0  0  0  0  0  0  0  0  0  0  0  0
  146.0719  132.9629  152.7222 C   0  0  0  0  0  0  0  0  0  0  0  0
  145.4780  132.8197  151.3100 C   0  0  0  0  0  0  0  0  0  0  0  0
  145.7838  133.9755  150.5371 O   0  0  0  0  0  0  0  0  0  0  0  0
  145.2258  135.1549  151.1063 C   0  0  0  0  0  0  0  0  0  0  0  0
  145.8173  135.3823  152.5075 C   0  0  0  0  0  0  0  0  0  0  0  0
  144.8195  134.2233  155.5851 N   0  0  0  0  0  0  0  0  0  0  0  0
  145.0409  134.3386  156.9112 C   0  0  0  0  0  0  0  0  0  0  0  0
  147.3144  136.4707  161.4568 S   0  0  0  0  0  0  0  0  0  0  0  0
  145.6449  136.3456  162.2260 C   0  0  0  0  0  0  0  0  0  0  0  0
  148.2566  136.9358  162.4865 O   0  0  0  0  0  0  0  0  0  0  0  0
  147.1855  137.2296  160.2032 O   0  0  0  0  0  0  0  0  0  0  0  0
  146.8703  132.7299  161.3946 H   0  0  0  0  0  0  0  0  0  0  0  0
  145.6672  134.0198  161.3756 H   0  0  0  0  0  0  0  0  0  0  0  0
  146.7362  133.8305  162.7593 H   0  0  0  0  0  0  0  0  0  0  0  0
  148.6959  134.4928  161.4405 H   0  0  0  0  0  0  0  0  0  0  0  0
  145.7624  134.7565  159.4460 H   0  0  0  0  0  0  0  0  0  0  0  0
  148.4171  134.7867  156.9544 H   0  0  0  0  0  0  0  0  0  0  0  0
  148.0231  134.5745  154.5164 H   0  0  0  0  0  0  0  0  0  0  0  0
  147.1611  132.9803  152.6680 H   0  0  0  0  0  0  0  0  0  0  0  0
  145.7980  132.0886  153.3109 H   0  0  0  0  0  0  0  0  0  0  0  0
  145.8949  131.9423  150.8154 H   0  0  0  0  0  0  0  0  0  0  0  0
  144.3973  132.6756  151.3558 H   0  0  0  0  0  0  0  0  0  0  0  0
  145.4534  136.0034  150.4609 H   0  0  0  0  0  0  0  0  0  0  0  0
  144.1386  135.0714  151.1515 H   0  0  0  0  0  0  0  0  0  0  0  0
  145.3450  136.2549  152.9609 H   0  0  0  0  0  0  0  0  0  0  0  0
  146.8855  135.5910  152.4319 H   0  0  0  0  0  0  0  0  0  0  0  0
  144.1635  134.2233  157.5285 H   0  0  0  0  0  0  0  0  0  0  0  0
  145.2727  137.3478  162.4379 H   0  0  0  0  0  0  0  0  0  0  0  0
  145.7054  135.7858  163.1589 H   0  0  0  0  0  0  0  0  0  0  0  0
  144.9613  135.8454  161.5407 H   0  0  0  0  0  0  0  0  0  0  0  0
  1  2  1  0  0  0  0
  1 22  1  0  0  0  0
  1 23  1  0  0  0  0
  1 24  1  0  0  0  0
  2  3  1  0  0  0  0
  2 18  1  0  0  0  0
  2 25  1  0  0  0  0
  3  4  2  0  0  0  0
  3  5  1  0  0  0  0
  5  6  1  0  0  0  0
  5 26  1  0  0  0  0
  6 17  1  0  0  0  0
  6  7  2  0  0  0  0
  7  8  1  0  0  0  0
  7 27  1  0  0  0  0
  8  9  2  0  0  0  0
  8 28  1  0  0  0  0
  9 10  1  0  0  0  0
  9 16  1  0  0  0  0
 10 15  1  0  0  0  0
 10 11  1  0  0  0  0
 11 12  1  0  0  0  0
 11 29  1  0  0  0  0
 11 30  1  0  0  0  0
 12 13  1  0  0  0  0
 12 31  1  0  0  0  0
 12 32  1  0  0  0  0
 13 14  1  0  0  0  0
 14 15  1  0  0  0  0
 14 33  1  0  0  0  0
 14 34  1  0  0  0  0
 15 35  1  0  0  0  0
 15 36  1  0  0  0  0
 16 17  2  0  0  0  0
 17 37  1  0  0  0  0
 18 19  1  0  0  0  0
 18 20  2  0  0  0  0
 18 21  2  0  0  0  0
 19 38  1  0  0  0  0
 19 39  1  0  0  0  0
 19 40  1  0  0  0  0
M  END
> <s_m_source_file>
AV-unprocessed.smi

> <i_m_source_file_index>
1273

> <i_lp_mmshare_version>
43012

> <i_f3d_flags>
0

> <s_epik_input>
W0NIM11TKD1PKSg9TylbQ0BIXShbQ0gzXSlDKD1PKVtOSF1jMVtjSF1bY0hdYyhuW2NIXTEpTjJbQ0gyXVtDSDJdT1tDSDJdW0NIMl0y

> <s_epik_cmdline>
J2VwaWtfcHl0aG9uJywgJy1waCcsICc3LjAnLCAnLXRuJywgJzgnLCAnLW1hJywgJzIwMCcsICctbWV0YWxfYmluZGluZycsICctaW1hZScsICc8aW5maWxlLm1hZT4nLCAnLW9tYWUnLCAnPG91dGZpbGUubWFlPic=

> <r_lp_tautomer_probability>
1

> <r_epik_Ionization_Penalty>
0.000253983

> <r_epik_Ionization_Penalty_Charging>
0

> <r_epik_Ionization_Penalty_Neutral>
0.000253983

> <r_epik_State_Penalty>
-0

> <r_epik_Charging_Adjusted_Penalty>
0

> <i_epik_Tot_Q>
0

> <i_epik_Tot_abs_Q>
0

> <r_epik_Metal_State_Penalty>
-0

> <b_epik_Metal_Only>
0

> <s_lp_Force_Field>
OPLS_2005

> <r_lp_Energy>
19.0029

> <b_lp_Chiralities_Consistent>
1

> <s_lp_Variant>
AV-unprocessed.smi:1273-2

> <Gold.Version>
5.8.1

> <Gold.Id.Protein>
6NUR|6NUR_protein|mol2

> <Gold.PLP.Fitness>
31.2668

> <Gold.PLP.PLP>
-22.9698

> <Gold.PLP.part.hbond>
-3.0000

> <Gold.PLP.part.metal>
0.0000

> <Gold.PLP.part.buried>
-4.6126

> <Gold.PLP.part.nonpolar>
-15.7208

> <Gold.PLP.part.repulsive>
0.9868

> <Gold.PLP.ligand.clash>
0.0000

> <Gold.PLP.ligand.torsion>
0.5926

> <Gold.PLP.Chemscore.Hbond>
3.0000

> <Gold.PLP.Chemscore.CHOScore>
0.0000

> <Gold.PLP.Chemscore.Metal>
0.0000

> <Gold.Chemscore.Hbonds>
donor molecule, donor type, donor heavy atom, donor atom, acceptor molecule, acceptor atom, score
      P1  H  6896  6907       L1     4  1.00
      P1  H  6931  6943       L1    20  1.00
      P1  H  6934  6947       L1    21  1.00

> <Gold.PLP.Chemscore.Internal.Correction>
0.4822

> <Gold.Rescore>
     Score         DG    S(hbond)    S(metal)    S(lipo)     H(rot)  DE(clash)    DE(int)     intcor
     11.37     -14.44       2.36        0.00      43.29       1.56       0.00       3.07       ----

> <Gold.Chemscore.Fitness>
11.3685

> <Gold.Chemscore.DG>
-14.4373

> <Gold.Chemscore.ZeroCoef>
-5.4800

> <Gold.Chemscore.Hbond>
2.3628

> <Gold.Chemscore.Metal>
0.0000

> <Gold.Chemscore.Lipo>
43.2914

> <Gold.Chemscore.Internal_Hbond>
0.0000

> <Gold.Chemscore.DEClash>
0.0000

> <Gold.Chemscore.DEInternal>
3.0688

> <Gold.Chemscore.Rot>
1.5624

> <Gold.Chemscore.Internal.Correction>
   9.000000E+99

> <Gold.Chemscore.Hbonds>
donor molecule, donor type, donor heavy atom, donor atom, acceptor molecule, acceptor atom, score
      P1  H  6896  6907       L1     4  0.97
      P1  H  6931  6943       L1    20  0.72
      P1  H  6934  6947       L1    21  0.25

> <Gold.Chemscore.Hbond.Weighted>
-7.8918

> <Gold.Chemscore.Metal.Weighted>
-0.0000

> <Gold.Chemscore.Lipo.Weighted>
-5.0651

> <Gold.Chemscore.Internal_Hbond.Weighted>
0.0000

> <Gold.Chemscore.DEClash.Weighted>
0.0000

> <Gold.Chemscore.DEInternal.Weighted>
3.0688

> <Gold.Chemscore.Rot.Weighted>
3.9996

> <Gold.Chemscore.Internal.Correction.Weighted>
   9.000000E+99

> <Gold.Protein.RotatedTorsions>
[ 6907 6896 6895 6894 ] final -104.05 input  -60.11 | X-H torsion
[ 7974 7965 7964 7962 ] final   -9.01 input  175.53 | X-H torsion
[ 8008 7997 7996 7995 ] final   15.84 input   59.86 | X-H torsion
[ 10167 10162 10161 10158 ] final -156.04 input  -65.29 | X-H torsion
[ 10718 10713 10712 10709 ] final   56.33 input   66.30 | X-H torsion
[ 10763 10752 10751 10750 ] final   17.15 input  -60.55 | X-H torsion
[ 11005 11000 10999 10996 ] final  -78.83 input  -57.11 | X-H torsion

> <Gold.Protein.ActiveResidues>
 VAL166  LYS551  ARG553  GLY616  TRP617  ASP618  TYR619  PRO620  LYS621  CYS622 
 ASP623  PHE694  ASN695  SER759  ASP760  ASP761  ALA762  ILE779  LEU786  VAL792 
 PHE793  MET794  SER795  GLU796  ALA797  LYS798  CYS799  TRP800  GLU811  SER814 

> <Gold.Protein.RotatedAtoms>
  150.7269  134.0336  159.3741 H   0  0  0  0  0  0  0  0  0  0  0  0  # atno 6907 bound_to 6896
  151.8306  135.0620  160.0445 H   0  0  0  0  0  0  0  0  0  0  0  0  # atno 6908 bound_to 6896
  152.2936  133.5549  159.5609 H   0  0  0  0  0  0  0  0  0  0  0  0  # atno 6909 bound_to 6896
  146.2264  140.2553  142.8349 H   0  0  0  0  0  0  0  0  0  0  0  0  # atno 7974 bound_to 7965
  154.8683  140.2955  155.5496 H   0  0  0  0  0  0  0  0  0  0  0  0  # atno 8008 bound_to 7997
  156.3021  140.2465  156.3601 H   0  0  0  0  0  0  0  0  0  0  0  0  # atno 8009 bound_to 7997
  154.8844  140.0396  157.1790 H   0  0  0  0  0  0  0  0  0  0  0  0  # atno 8010 bound_to 7997
  139.6882  143.9465  152.2372 H   0  0  0  0  0  0  0  0  0  0  0  0  # atno 10167 bound_to 10162
  157.5422  130.8705  149.8838 H   0  0  0  0  0  0  0  0  0  0  0  0  # atno 10718 bound_to 10713
  153.1365  135.6751  153.9094 H   0  0  0  0  0  0  0  0  0  0  0  0  # atno 10763 bound_to 10752
  153.8564  135.3087  155.3436 H   0  0  0  0  0  0  0  0  0  0  0  0  # atno 10764 bound_to 10752
  154.7752  135.4918  153.9812 H   0  0  0  0  0  0  0  0  0  0  0  0  # atno 10765 bound_to 10752
  141.1666  133.7080  156.8031 H   0  0  0  0  0  0  0  0  0  0  0  0  # atno 11005 bound_to 11000
  144.9381  140.8048  143.5648 LP  0  0  0  0  0  0  0  0  0  0  0  0  # atno 17320 bound_to 7965
  145.2502  139.2035  143.4946 LP  0  0  0  0  0  0  0  0  0  0  0  0  # atno 17321 bound_to 7965
  139.9274  144.6762  150.8398 LP  0  0  0  0  0  0  0  0  0  0  0  0  # atno 17342 bound_to 10162
  140.7674  143.3332  151.2364 LP  0  0  0  0  0  0  0  0  0  0  0  0  # atno 17343 bound_to 10162
  156.0506  130.3718  150.1211 LP  0  0  0  0  0  0  0  0  0  0  0  0  # atno 17370 bound_to 10713
  156.9390  130.9738  151.3519 LP  0  0  0  0  0  0  0  0  0  0  0  0  # atno 17371 bound_to 10713
  140.2242  134.8734  157.3409 LP  0  0  0  0  0  0  0  0  0  0  0  0  # atno 17394 bound_to 11000
  140.1957  134.4317  155.7690 LP  0  0  0  0  0  0  0  0  0  0  0  0  # atno 17395 bound_to 11000

$$$$
