AV-unprocessed.smi:2668|AV-procd|sdf|10339|dock10
  -GOLD-   2272014363D 1   1.00000     0.00000
 Structure written by MMmdl.
 54 55  0  0  0  0  0  0  0  0  3 V2000
  146.6258  135.3985  154.6729 C   0  0  0  0  0  0  0  0  0  0  0  0
  146.6165  135.5595  153.1973 N   0  3  0  0  0  0  0  0  0  0  0  0
  146.7319  134.2344  152.5386 C   0  0  0  0  0  0  0  0  0  0  0  0
  145.4730  136.3865  152.6887 C   0  0  2  0  0  0  0  0  0  0  0  0
  145.9084  137.5127  151.7253 C   0  0  0  0  0  0  0  0  0  0  0  0
  146.7075  138.6177  152.4417 C   0  0  0  0  0  0  0  0  0  0  0  0
  145.9267  139.2204  153.5647 N   0  3  2  0  0  0  0  0  0  0  0  0
  146.5418  140.4398  154.2084 C   0  0  0  0  0  0  0  0  0  0  0  0
  146.8120  141.5555  153.1717 C   0  0  0  0  0  0  0  0  0  0  0  0
  145.5974  141.0241  155.2884 C   0  0  0  0  0  0  0  0  0  0  0  0
  147.8889  140.0835  154.9074 C   0  0  0  0  0  0  0  0  0  0  0  0
  148.5983  141.2411  155.4553 N   0  0  0  0  0  0  0  0  0  0  0  0
  149.6175  141.1909  156.3251 C   0  0  0  0  0  0  0  0  0  0  0  0
  150.0981  140.1398  156.7460 O   0  0  0  0  0  0  0  0  0  0  0  0
  150.0179  142.4250  156.6756 N   0  0  0  0  0  0  0  0  0  0  0  0
  151.0732  142.7942  157.5528 C   0  0  0  0  0  0  0  0  0  0  0  0
  151.6829  141.7785  158.3182 C   0  0  0  0  0  0  0  0  0  0  0  0
  152.7189  142.1179  159.2090 C   0  0  0  0  0  0  0  0  0  0  0  0
  153.1015  143.4696  159.3069 C   0  0  0  0  0  0  0  0  0  0  0  0
  152.5188  144.4565  158.5943 N   0  0  0  0  0  0  0  0  0  0  0  0
  151.5274  144.1239  157.7398 C   0  0  0  0  0  0  0  0  0  0  0  0
  145.4736  138.1657  154.5209 C   0  0  0  0  0  0  0  0  0  0  0  0
  144.6594  137.0706  153.8096 C   0  0  0  0  0  0  0  0  0  0  0  0
  145.6801  134.9880  155.0292 H   0  0  0  0  0  0  0  0  0  0  0  0
  146.8106  136.3435  155.1815 H   0  0  0  0  0  0  0  0  0  0  0  0
  147.4239  134.7254  154.9886 H   0  0  0  0  0  0  0  0  0  0  0  0
  145.8016  133.6713  152.6240 H   0  0  0  0  0  0  0  0  0  0  0  0
  147.5268  133.6404  152.9911 H   0  0  0  0  0  0  0  0  0  0  0  0
  146.9886  134.3273  151.4845 H   0  0  0  0  0  0  0  0  0  0  0  0
  144.8072  135.7124  152.1475 H   0  0  0  0  0  0  0  0  0  0  0  0
  146.4654  137.1297  150.8717 H   0  0  0  0  0  0  0  0  0  0  0  0
  145.0159  137.9634  151.2883 H   0  0  0  0  0  0  0  0  0  0  0  0
  147.6503  138.2150  152.8118 H   0  0  0  0  0  0  0  0  0  0  0  0
  146.9556  139.3631  151.6887 H   0  0  0  0  0  0  0  0  0  0  0  0
  147.2267  142.4408  153.6555 H   0  0  0  0  0  0  0  0  0  0  0  0
  145.9025  141.8719  152.6611 H   0  0  0  0  0  0  0  0  0  0  0  0
  147.5306  141.2510  152.4112 H   0  0  0  0  0  0  0  0  0  0  0  0
  146.1043  141.7779  155.8922 H   0  0  0  0  0  0  0  0  0  0  0  0
  145.2327  140.2544  155.9693 H   0  0  0  0  0  0  0  0  0  0  0  0
  144.7305  141.5232  154.8553 H   0  0  0  0  0  0  0  0  0  0  0  0
  147.7201  139.3934  155.7338 H   0  0  0  0  0  0  0  0  0  0  0  0
  148.5382  139.5296  154.2266 H   0  0  0  0  0  0  0  0  0  0  0  0
  148.2583  142.1522  155.1841 H   0  0  0  0  0  0  0  0  0  0  0  0
  149.4670  143.1917  156.3180 H   0  0  0  0  0  0  0  0  0  0  0  0
  151.3661  140.7501  158.2230 H   0  0  0  0  0  0  0  0  0  0  0  0
  153.2086  141.3605  159.8031 H   0  0  0  0  0  0  0  0  0  0  0  0
  153.8922  143.7665  159.9798 H   0  0  0  0  0  0  0  0  0  0  0  0
  151.0853  144.9586  157.2188 H   0  0  0  0  0  0  0  0  0  0  0  0
  146.3320  137.7153  155.0194 H   0  0  0  0  0  0  0  0  0  0  0  0
  144.8438  138.5870  155.3016 H   0  0  0  0  0  0  0  0  0  0  0  0
  143.7709  137.5289  153.3720 H   0  0  0  0  0  0  0  0  0  0  0  0
  144.2703  136.3528  154.5301 H   0  0  0  0  0  0  0  0  0  0  0  0
  147.4648  136.0574  152.9682 H   0  0  0  0  0  0  0  0  0  0  0  0
  145.0823  139.5696  153.1336 H   0  0  0  0  0  0  0  0  0  0  0  0
  1  2  1  0  0  0  0
  1 24  1  0  0  0  0
  1 25  1  0  0  0  0
  1 26  1  0  0  0  0
  2  3  1  0  0  0  0
  2  4  1  0  0  0  0
  2 53  1  0  0  0  0
  3 27  1  0  0  0  0
  3 28  1  0  0  0  0
  3 29  1  0  0  0  0
  4 23  1  0  0  0  0
  4  5  1  0  0  0  0
  4 30  1  0  0  0  0
  5  6  1  0  0  0  0
  5 31  1  0  0  0  0
  5 32  1  0  0  0  0
  6  7  1  0  0  0  0
  6 33  1  0  0  0  0
  6 34  1  0  0  0  0
  7  8  1  0  0  0  0
  7 22  1  0  0  0  0
  7 54  1  0  0  0  0
  8  9  1  0  0  0  0
  8 10  1  0  0  0  0
  8 11  1  0  0  0  0
  9 35  1  0  0  0  0
  9 36  1  0  0  0  0
  9 37  1  0  0  0  0
 10 38  1  0  0  0  0
 10 39  1  0  0  0  0
 10 40  1  0  0  0  0
 11 12  1  0  0  0  0
 11 41  1  0  0  0  0
 11 42  1  0  0  0  0
 12 13  1  0  0  0  0
 12 43  1  0  0  0  0
 13 14  2  0  0  0  0
 13 15  1  0  0  0  0
 15 16  1  0  0  0  0
 15 44  1  0  0  0  0
 16 21  1  0  0  0  0
 16 17  2  0  0  0  0
 17 18  1  0  0  0  0
 17 45  1  0  0  0  0
 18 19  2  0  0  0  0
 18 46  1  0  0  0  0
 19 20  1  0  0  0  0
 19 47  1  0  0  0  0
 20 21  2  0  0  0  0
 21 48  1  0  0  0  0
 22 23  1  0  0  0  0
 22 49  1  0  0  0  0
 22 50  1  0  0  0  0
 23 51  1  0  0  0  0
 23 52  1  0  0  0  0
M  CHG  1   2   1
M  CHG  1   7   1
M  END
> <s_m_source_file>
AV-unprocessed.smi

> <i_m_source_file_index>
2668

> <i_lp_mmshare_version>
43012

> <i_f3d_flags>
0

> <s_epik_input>
W0NIM11OKFtDSDNdKVtDSF0xW0NIMl1bQ0gyXU4oW0NIMl1bQ0gyXTEpQyhbQ0gzXSkoW0NIM10pW0NIMl1bTkhdQyg9TylbTkhdYzJbY0hdW2NIXVtjSF1uW2NIXTI=

> <s_epik_cmdline>
J2VwaWtfcHl0aG9uJywgJy1waCcsICc3LjAnLCAnLXRuJywgJzgnLCAnLW1hJywgJzIwMCcsICctbWV0YWxfYmluZGluZycsICctaW1hZScsICc8aW5maWxlLm1hZT4nLCAnLW9tYWUnLCAnPG91dGZpbGUubWFlPic=

> <r_epik_Ionization_Penalty>
0.210461

> <r_epik_Ionization_Penalty_Charging>
0.206231

> <r_epik_Ionization_Penalty_Neutral>
0.00422959

> <r_epik_State_Penalty>
0.176025

> <r_epik_Charging_Adjusted_Penalty>
0.382256

> <i_epik_Tot_Q>
2

> <i_epik_Tot_abs_Q>
2

> <r_epik_Metal_State_Penalty>
0.176152

> <b_epik_Metal_Only>
0

> <s_lp_Force_Field>
OPLS_2005

> <r_lp_Energy>
56.664

> <b_lp_Chiralities_Consistent>
1

> <s_lp_Variant>
AV-unprocessed.smi:2668-2

> <Gold.Version>
5.8.1

> <Gold.Id.Protein>
6NUR|6NUR_protein|mol2

> <Gold.PLP.Fitness>
45.8368

> <Gold.PLP.PLP>
-33.1035

> <Gold.PLP.part.hbond>
-3.0000

> <Gold.PLP.part.metal>
0.0000

> <Gold.PLP.part.buried>
-4.0531

> <Gold.PLP.part.nonpolar>
-27.9431

> <Gold.PLP.part.repulsive>
0.1520

> <Gold.PLP.ligand.clash>
1.0205

> <Gold.PLP.ligand.torsion>
1.5127

> <Gold.PLP.Chemscore.Hbond>
4.9520

> <Gold.PLP.Chemscore.CHOScore>
0.5927

> <Gold.PLP.Chemscore.Metal>
0.0000

> <Gold.Chemscore.Hbonds>
donor molecule, donor type, donor heavy atom, donor atom, acceptor molecule, acceptor atom, score
      L1  H     2    53       P1  7948  1.92
      L1  H     7    54       P1 10175  2.00
      L1  H    15    44       P1  8028  1.00
      L1  C    21    48       P1  8028  0.60

> <Gold.PLP.Chemscore.Internal.Correction>
0.1451

> <Gold.Rescore>
     Score         DG    S(hbond)    S(metal)    S(lipo)     H(rot)  DE(clash)    DE(int)     intcor
     18.14     -22.95       2.96        0.00     101.57       1.69       0.70       4.10       ----

> <Gold.Chemscore.Fitness>
18.1436

> <Gold.Chemscore.DG>
-22.9452

> <Gold.Chemscore.ZeroCoef>
-5.4800

> <Gold.Chemscore.Hbond>
2.9646

> <Gold.Chemscore.Metal>
0.0000

> <Gold.Chemscore.Lipo>
101.5709

> <Gold.Chemscore.Internal_Hbond>
0.0000

> <Gold.Chemscore.DEClash>
0.7005

> <Gold.Chemscore.DEInternal>
4.1011

> <Gold.Chemscore.Rot>
1.6877

> <Gold.Chemscore.Internal.Correction>
   9.000000E+99

> <Gold.Chemscore.Hbonds>
donor molecule, donor type, donor heavy atom, donor atom, acceptor molecule, acceptor atom, score
      L1  H     2    53       P1  7948  0.92
      L1  H     7    54       P1 10175  1.00
      L1  H    15    44       P1  8028  1.00

> <Gold.Chemscore.Hbond.Weighted>
-9.9019

> <Gold.Chemscore.Metal.Weighted>
-0.0000

> <Gold.Chemscore.Lipo.Weighted>
-11.8838

> <Gold.Chemscore.Internal_Hbond.Weighted>
0.0000

> <Gold.Chemscore.DEClash.Weighted>
0.7005

> <Gold.Chemscore.DEInternal.Weighted>
4.1011

> <Gold.Chemscore.Rot.Weighted>
4.3205

> <Gold.Chemscore.Internal.Correction.Weighted>
   9.000000E+99

> <Gold.Protein.RotatedTorsions>
[ 6907 6896 6895 6894 ] final   73.39 input  -60.11 | X-H torsion
[ 7974 7965 7964 7962 ] final  145.72 input  175.53 | X-H torsion
[ 8008 7997 7996 7995 ] final  -91.65 input   59.86 | X-H torsion
[ 10167 10162 10161 10158 ] final -147.56 input  -65.29 | X-H torsion
[ 10718 10713 10712 10709 ] final -139.47 input   66.30 | X-H torsion
[ 10763 10752 10751 10750 ] final  143.44 input  -60.55 | X-H torsion
[ 11005 11000 10999 10996 ] final  -60.72 input  -57.11 | X-H torsion

> <Gold.Protein.ActiveResidues>
 VAL166  LYS551  ARG553  GLY616  TRP617  ASP618  TYR619  PRO620  LYS621  CYS622 
 ASP623  PHE694  ASN695  SER759  ASP760  ASP761  ALA762  ILE779  LEU786  VAL792 
 PHE793  MET794  SER795  GLU796  ALA797  LYS798  CYS799  TRP800  GLU811  SER814 

> <Gold.Protein.RotatedAtoms>
  152.4921  134.4428  159.9548 H   0  0  0  0  0  0  0  0  0  0  0  0  # atno 6907 bound_to 6896
  151.4414  133.3636  159.2790 H   0  0  0  0  0  0  0  0  0  0  0  0  # atno 6908 bound_to 6896
  150.9085  134.8525  159.7469 H   0  0  0  0  0  0  0  0  0  0  0  0  # atno 6909 bound_to 6896
  144.8729  139.5818  143.5878 H   0  0  0  0  0  0  0  0  0  0  0  0  # atno 7974 bound_to 7965
  154.7133  140.0517  157.0571 H   0  0  0  0  0  0  0  0  0  0  0  0  # atno 8008 bound_to 7997
  155.0525  140.3180  155.4668 H   0  0  0  0  0  0  0  0  0  0  0  0  # atno 8009 bound_to 7997
  156.2796  140.2113  156.5651 H   0  0  0  0  0  0  0  0  0  0  0  0  # atno 8010 bound_to 7997
  139.7611  143.8376  152.2607 H   0  0  0  0  0  0  0  0  0  0  0  0  # atno 10167 bound_to 10162
  156.3111  130.7482  151.1558 H   0  0  0  0  0  0  0  0  0  0  0  0  # atno 10718 bound_to 10713
  153.9724  135.2949  155.3426 H   0  0  0  0  0  0  0  0  0  0  0  0  # atno 10763 bound_to 10752
  154.7315  135.5065  153.8974 H   0  0  0  0  0  0  0  0  0  0  0  0  # atno 10764 bound_to 10752
  153.0894  135.6703  153.9997 H   0  0  0  0  0  0  0  0  0  0  0  0  # atno 10765 bound_to 10752
  141.1298  133.6624  156.5267 H   0  0  0  0  0  0  0  0  0  0  0  0  # atno 11005 bound_to 11000
  146.2943  139.7230  142.9138 LP  0  0  0  0  0  0  0  0  0  0  0  0  # atno 17320 bound_to 7965
  145.4097  141.0395  143.3024 LP  0  0  0  0  0  0  0  0  0  0  0  0  # atno 17321 bound_to 7965
  139.8382  144.7222  150.9364 LP  0  0  0  0  0  0  0  0  0  0  0  0  # atno 17342 bound_to 10162
  140.7807  143.4007  151.1153 LP  0  0  0  0  0  0  0  0  0  0  0  0  # atno 17343 bound_to 10162
  157.7391  131.0533  150.5253 LP  0  0  0  0  0  0  0  0  0  0  0  0  # atno 17370 bound_to 10713
  156.5392  130.4204  149.6162 LP  0  0  0  0  0  0  0  0  0  0  0  0  # atno 17371 bound_to 10713
  140.4249  134.7154  157.4910 LP  0  0  0  0  0  0  0  0  0  0  0  0  # atno 17394 bound_to 11000
  140.0334  134.6373  155.9076 LP  0  0  0  0  0  0  0  0  0  0  0  0  # atno 17395 bound_to 11000

$$$$
