AV-unprocessed.smi:670|AV-procd|sdf|3271|dock1
  -GOLD-   22720 0223D 1   1.00000     0.00000
 Structure written by MMmdl.
 45 46  0  0  0  0  0  0  0  0  1 V2000
  153.3678  142.5055  161.7391 C   0  0  0  0  0  0  0  0  0  0  0  0
  153.0698  143.4678  160.5787 C   0  0  2  0  0  0  0  0  0  0  0  0
  152.0644  144.5649  160.9828 C   0  0  0  0  0  0  0  0  0  0  0  0
  151.8010  145.5380  159.8219 C   0  0  0  0  0  0  0  0  0  0  0  0
  151.3300  144.7949  158.5615 C   0  0  0  0  0  0  0  0  0  0  0  0
  152.3218  143.6906  158.1566 C   0  0  0  0  0  0  0  0  0  0  0  0
  152.5897  142.7151  159.3188 C   0  0  2  0  0  0  0  0  0  0  0  0
  151.3842  142.0376  159.6439 O   0  0  0  0  0  0  0  0  0  0  0  0
  150.7547  141.3770  158.5593 C   0  0  0  0  0  0  0  0  0  0  0  0
  151.8100  140.5566  157.8037 C   0  0  0  0  0  0  0  0  0  0  0  0
  151.2096  139.8054  156.7050 N   0  0  0  0  0  0  0  0  0  0  0  0
  151.8798  139.0018  155.8638 C   0  0  0  0  0  0  0  0  0  0  0  0
  153.0881  138.7808  155.9625 O   0  0  0  0  0  0  0  0  0  0  0  0
  151.0453  138.3587  154.7457 C   0  0  0  0  0  0  0  0  0  0  0  0
  149.6893  138.9150  154.6246 N   0  0  0  0  0  0  0  0  0  0  0  0
  149.6608  140.2712  154.3369 N   0  0  0  0  0  0  0  0  0  0  0  0
  148.5308  140.8828  154.2218 C   0  0  0  0  0  0  0  0  0  0  0  0
  148.5485  142.2264  153.9382 O   0  0  0  0  0  0  0  0  0  0  0  0
  147.2780  140.1781  154.3848 C   0  0  0  0  0  0  0  0  0  0  0  0
  147.3155  138.8560  154.6602 C   0  0  0  0  0  0  0  0  0  0  0  0
  148.5801  138.1311  154.7959 C   0  0  0  0  0  0  0  0  0  0  0  0
  148.6416  136.9272  155.0420 O   0  0  0  0  0  0  0  0  0  0  0  0
  148.6051  142.6599  154.7756 H   0  0  0  0  0  0  0  0  0  0  0  0
  152.4754  141.9576  162.0416 H   0  0  0  0  0  0  0  0  0  0  0  0
  153.7382  143.0437  162.6118 H   0  0  0  0  0  0  0  0  0  0  0  0
  154.1245  141.7734  161.4570 H   0  0  0  0  0  0  0  0  0  0  0  0
  154.0096  143.9620  160.3281 H   0  0  0  0  0  0  0  0  0  0  0  0
  151.1247  144.1099  161.3004 H   0  0  0  0  0  0  0  0  0  0  0  0
  152.4420  145.1180  161.8433 H   0  0  0  0  0  0  0  0  0  0  0  0
  151.0554  146.2762  160.1187 H   0  0  0  0  0  0  0  0  0  0  0  0
  152.7126  146.0932  159.5977 H   0  0  0  0  0  0  0  0  0  0  0  0
  150.3481  144.3560  158.7435 H   0  0  0  0  0  0  0  0  0  0  0  0
  151.2036  145.5002  157.7398 H   0  0  0  0  0  0  0  0  0  0  0  0
  151.9437  143.1520  157.2875 H   0  0  0  0  0  0  0  0  0  0  0  0
  153.2624  144.1473  157.8459 H   0  0  0  0  0  0  0  0  0  0  0  0
  153.3626  142.0015  159.0261 H   0  0  0  0  0  0  0  0  0  0  0  0
  149.9644  140.7206  158.9249 H   0  0  0  0  0  0  0  0  0  0  0  0
  150.2954  142.1068  157.8907 H   0  0  0  0  0  0  0  0  0  0  0  0
  152.6093  141.2061  157.4429 H   0  0  0  0  0  0  0  0  0  0  0  0
  152.2764  139.8449  158.4849 H   0  0  0  0  0  0  0  0  0  0  0  0
  150.2189  139.9291  156.5553 H   0  0  0  0  0  0  0  0  0  0  0  0
  151.5839  138.4826  153.8043 H   0  0  0  0  0  0  0  0  0  0  0  0
  150.9964  137.2813  154.9145 H   0  0  0  0  0  0  0  0  0  0  0  0
  146.3396  140.7033  154.2864 H   0  0  0  0  0  0  0  0  0  0  0  0
  146.3879  138.3167  154.7845 H   0  0  0  0  0  0  0  0  0  0  0  0
  1  2  1  0  0  0  0
  1 24  1  0  0  0  0
  1 25  1  0  0  0  0
  1 26  1  0  0  0  0
  2  7  1  0  0  0  0
  2  3  1  0  0  0  0
  2 27  1  0  0  0  0
  3  4  1  0  0  0  0
  3 28  1  0  0  0  0
  3 29  1  0  0  0  0
  4  5  1  0  0  0  0
  4 30  1  0  0  0  0
  4 31  1  0  0  0  0
  5  6  1  0  0  0  0
  5 32  1  0  0  0  0
  5 33  1  0  0  0  0
  6  7  1  0  0  0  0
  6 34  1  0  0  0  0
  6 35  1  0  0  0  0
  7  8  1  0  0  0  0
  7 36  1  0  0  0  0
  8  9  1  0  0  0  0
  9 10  1  0  0  0  0
  9 37  1  0  0  0  0
  9 38  1  0  0  0  0
 10 11  1  0  0  0  0
 10 39  1  0  0  0  0
 10 40  1  0  0  0  0
 11 12  1  0  0  0  0
 11 41  1  0  0  0  0
 12 13  2  0  0  0  0
 12 14  1  0  0  0  0
 14 42  1  0  0  0  0
 14 43  1  0  0  0  0
 14 15  1  0  0  0  0
 15 16  1  0  0  0  0
 15 21  1  0  0  0  0
 16 17  2  0  0  0  0
 17 18  1  0  0  0  0
 17 19  1  0  0  0  0
 18 23  1  0  0  0  0
 19 44  1  0  0  0  0
 19 20  2  0  0  0  0
 20 45  1  0  0  0  0
 20 21  1  0  0  0  0
 21 22  2  0  0  0  0
M  END
> <s_m_source_file>
AV-unprocessed.smi

> <i_m_source_file_index>
670

> <i_lp_mmshare_version>
43012

> <i_f3d_flags>
0

> <s_epik_input>
W0NIM11bQ0BASF0xW0NIMl1bQ0gyXVtDSDJdW0NIMl1bQ0BIXTFPW0NIMl1bQ0gyXVtOSF1DKD1PKVtDSDJdbjJbbkhdYyg9TylbY0hdW2NIXWMyPU8=

> <s_epik_cmdline>
J2VwaWtfcHl0aG9uJywgJy1waCcsICc3LjAnLCAnLXRuJywgJzgnLCAnLW1hJywgJzIwMCcsICctbWV0YWxfYmluZGluZycsICctaW1hZScsICc8aW5maWxlLm1hZT4nLCAnLW9tYWUnLCAnPG91dGZpbGUubWFlPic=

> <r_lp_tautomer_probability>
0.9996

> <r_epik_Ionization_Penalty>
2.12726

> <r_epik_Ionization_Penalty_Charging>
3.83395e-08

> <r_epik_Ionization_Penalty_Neutral>
2.12726

> <r_epik_State_Penalty>
1.70432

> <r_epik_Charging_Adjusted_Penalty>
1.70432

> <i_epik_Tot_Q>
0

> <i_epik_Tot_abs_Q>
0

> <r_epik_Metal_State_Penalty>
1.70432

> <b_epik_Metal_Only>
0

> <s_lp_Force_Field>
OPLS_2005

> <r_lp_Energy>
20.0493

> <b_lp_Chiralities_Consistent>
1

> <s_lp_Variant>
AV-unprocessed.smi:670-7

> <Gold.Version>
5.8.1

> <Gold.Id.Protein>
6NUR|6NUR_protein|mol2

> <Gold.PLP.Fitness>
58.5348

> <Gold.PLP.PLP>
-51.8636

> <Gold.PLP.part.hbond>
-5.4231

> <Gold.PLP.part.metal>
0.0000

> <Gold.PLP.part.buried>
-4.8634

> <Gold.PLP.part.nonpolar>
-40.6713

> <Gold.PLP.part.repulsive>
1.5510

> <Gold.PLP.ligand.clash>
0.0000

> <Gold.PLP.ligand.torsion>
0.1544

> <Gold.PLP.Chemscore.Hbond>
2.2625

> <Gold.PLP.Chemscore.CHOScore>
0.0000

> <Gold.PLP.Chemscore.Metal>
0.0000

> <Gold.Chemscore.Hbonds>
donor molecule, donor type, donor heavy atom, donor atom, acceptor molecule, acceptor atom, score
      L1  H    18    23       P1  8028  0.38
      P1  H  7989  7998       L1    16  0.46
      P1  H  7997  8009       L1    13  1.00
      P1  H  8011  8017       L1    18  0.29

> <Gold.PLP.Chemscore.Internal.Correction>
0.1925

> <Gold.Rescore>
     Score         DG    S(hbond)    S(metal)    S(lipo)     H(rot)  DE(clash)    DE(int)     intcor
     15.04     -16.70       1.72        0.00     114.29       3.09       0.20       1.46       ----

> <Gold.Chemscore.Fitness>
15.0370

> <Gold.Chemscore.DG>
-16.6976

> <Gold.Chemscore.ZeroCoef>
-5.4800

> <Gold.Chemscore.Hbond>
1.7234

> <Gold.Chemscore.Metal>
0.0000

> <Gold.Chemscore.Lipo>
114.2917

> <Gold.Chemscore.Internal_Hbond>
0.0000

> <Gold.Chemscore.DEClash>
0.2041

> <Gold.Chemscore.DEInternal>
1.4565

> <Gold.Chemscore.Rot>
3.0901

> <Gold.Chemscore.Internal.Correction>
   9.000000E+99

> <Gold.Chemscore.Hbonds>
donor molecule, donor type, donor heavy atom, donor atom, acceptor molecule, acceptor atom, score
      L1  H    18    23       P1  8028  0.38
      P1  H  7989  7998       L1    16  0.33
      P1  H  7997  8009       L1    13  0.98
      P1  H  8011  8017       L1    18  0.16

> <Gold.Chemscore.Hbond.Weighted>
-5.7561

> <Gold.Chemscore.Metal.Weighted>
-0.0000

> <Gold.Chemscore.Lipo.Weighted>
-13.3721

> <Gold.Chemscore.Internal_Hbond.Weighted>
0.0000

> <Gold.Chemscore.DEClash.Weighted>
0.2041

> <Gold.Chemscore.DEInternal.Weighted>
1.4565

> <Gold.Chemscore.Rot.Weighted>
7.9106

> <Gold.Chemscore.Internal.Correction.Weighted>
   9.000000E+99

> <Gold.Protein.RotatedTorsions>
[ 6907 6896 6895 6894 ] final  172.15 input  -60.11 | X-H torsion
[ 7974 7965 7964 7962 ] final   20.16 input  175.53 | X-H torsion
[ 8008 7997 7996 7995 ] final -162.09 input   59.86 | X-H torsion
[ 10167 10162 10161 10158 ] final   48.80 input  -65.29 | X-H torsion
[ 10718 10713 10712 10709 ] final -106.94 input   66.30 | X-H torsion
[ 10763 10752 10751 10750 ] final  -48.05 input  -60.55 | X-H torsion
[ 11005 11000 10999 10996 ] final  159.40 input  -57.11 | X-H torsion

> <Gold.Protein.ActiveResidues>
 VAL166  LYS551  ARG553  GLY616  TRP617  ASP618  TYR619  PRO620  LYS621  CYS622 
 ASP623  PHE694  ASN695  SER759  ASP760  ASP761  ALA762  ILE779  LEU786  VAL792 
 PHE793  MET794  SER795  GLU796  ALA797  LYS798  CYS799  TRP800  GLU811  SER814 

> <Gold.Protein.RotatedAtoms>
  151.7888  133.3357  159.3492 H   0  0  0  0  0  0  0  0  0  0  0  0  # atno 6907 bound_to 6896
  150.7399  134.5862  159.5973 H   0  0  0  0  0  0  0  0  0  0  0  0  # atno 6908 bound_to 6896
  152.3224  134.7364  160.0361 H   0  0  0  0  0  0  0  0  0  0  0  0  # atno 6909 bound_to 6896
  146.2122  139.8209  142.8680 H   0  0  0  0  0  0  0  0  0  0  0  0  # atno 7974 bound_to 7965
  155.8017  140.0893  157.1953 H   0  0  0  0  0  0  0  0  0  0  0  0  # atno 8008 bound_to 7997
  154.3982  140.1471  156.3341 H   0  0  0  0  0  0  0  0  0  0  0  0  # atno 8009 bound_to 7997
  155.8456  140.3437  155.5662 H   0  0  0  0  0  0  0  0  0  0  0  0  # atno 8010 bound_to 7997
  140.2895  144.3062  150.6244 H   0  0  0  0  0  0  0  0  0  0  0  0  # atno 10167 bound_to 10162
  156.0413  130.5637  150.7751 H   0  0  0  0  0  0  0  0  0  0  0  0  # atno 10718 bound_to 10713
  154.0715  135.6604  153.4825 H   0  0  0  0  0  0  0  0  0  0  0  0  # atno 10763 bound_to 10752
  153.0389  135.5158  154.7562 H   0  0  0  0  0  0  0  0  0  0  0  0  # atno 10764 bound_to 10752
  154.6629  135.3017  154.9810 H   0  0  0  0  0  0  0  0  0  0  0  0  # atno 10765 bound_to 10752
  140.1958  134.8374  157.2963 H   0  0  0  0  0  0  0  0  0  0  0  0  # atno 11005 bound_to 11000
  145.3097  141.0216  143.3562 LP  0  0  0  0  0  0  0  0  0  0  0  0  # atno 17320 bound_to 7965
  144.8945  139.4730  143.6662 LP  0  0  0  0  0  0  0  0  0  0  0  0  # atno 17321 bound_to 7965
  140.5744  143.2178  151.7542 LP  0  0  0  0  0  0  0  0  0  0  0  0  # atno 17342 bound_to 10162
  139.4941  144.4171  152.0018 LP  0  0  0  0  0  0  0  0  0  0  0  0  # atno 17343 bound_to 10162
  157.5234  131.0933  151.0049 LP  0  0  0  0  0  0  0  0  0  0  0  0  # atno 17370 bound_to 10713
  157.0374  130.5735  149.5351 LP  0  0  0  0  0  0  0  0  0  0  0  0  # atno 17371 bound_to 10713
  140.2109  134.4140  155.7613 LP  0  0  0  0  0  0  0  0  0  0  0  0  # atno 17394 bound_to 11000
  141.2227  133.7118  156.8336 LP  0  0  0  0  0  0  0  0  0  0  0  0  # atno 17395 bound_to 11000

$$$$
