AV-unprocessed.smi:152|AV-procd|sdf|1247|dock10
  -GOLD-   2262018473D 1   1.00000     0.00000
 Structure written by MMmdl.
 58 61  0  0  0  0  0  0  0  0  2 V2000
  148.9760  133.3562  153.2248 C   0  0  0  0  0  0  0  0  0  0  0  0
  147.7063  132.5176  153.4206 C   0  0  0  0  0  0  0  0  0  0  0  0
  147.1729  132.0121  152.1318 N   0  3  1  0  0  0  0  0  0  0  0  0
  146.3824  130.7611  152.2114 C   0  0  0  0  0  0  0  0  0  0  0  0
  145.3762  130.8053  151.0531 C   0  0  0  0  0  0  0  0  0  0  0  0
  145.7487  132.0573  150.2604 C   0  0  0  0  0  0  0  0  0  0  0  0
  146.4077  132.9718  151.2995 C   0  0  1  0  0  0  0  0  0  0  0  0
  145.3888  133.8032  152.1242 C   0  0  0  0  0  0  0  0  0  0  0  0
  145.4156  135.2329  151.7993 N   0  0  0  0  0  0  0  0  0  0  0  0
  144.8939  135.6431  150.5009 C   0  0  0  0  0  0  0  0  0  0  0  0
  145.7673  136.1702  152.7300 C   0  0  0  0  0  0  0  0  0  0  0  0
  145.6034  135.8679  154.0466 N   0  0  0  0  0  0  0  0  0  0  0  0
  145.9197  136.7441  155.0023 C   0  0  0  0  0  0  0  0  0  0  0  0
  146.4112  137.9746  154.8714 N   0  0  0  0  0  0  0  0  0  0  0  0
  146.5833  138.2984  153.5591 C   0  0  0  0  0  0  0  0  0  0  0  0
  146.2966  137.4670  152.4353 C   0  0  0  0  0  0  0  0  0  0  0  0
  146.6138  138.1557  151.2675 N   0  0  0  0  0  0  0  0  0  0  0  0
  147.0587  139.3117  151.6744 C   0  0  0  0  0  0  0  0  0  0  0  0
  147.0627  139.4873  153.0377 N   0  0  0  0  0  0  0  0  0  0  0  0
  147.4963  140.6726  153.7621 C   0  0  0  0  0  0  0  0  0  0  0  0
  148.6395  140.4117  154.7751 C   0  0  0  0  0  0  0  0  0  0  0  0
  148.0560  139.9369  155.9760 O   0  0  0  0  0  0  0  0  0  0  0  0
  149.5932  139.3266  154.2360 C   0  0  0  0  0  0  0  0  0  0  0  0
  150.8390  139.1539  155.1232 C   0  0  0  0  0  0  0  0  0  0  0  0
  151.5064  140.4011  155.2712 O   0  0  0  0  0  0  0  0  0  0  0  0
  150.7086  141.3756  155.9321 C   0  0  0  0  0  0  0  0  0  0  0  0
  149.4515  141.6851  155.0997 C   0  0  0  0  0  0  0  0  0  0  0  0
  149.3207  133.7607  154.1767 H   0  0  0  0  0  0  0  0  0  0  0  0
  148.7942  134.1967  152.5544 H   0  0  0  0  0  0  0  0  0  0  0  0
  149.7896  132.7622  152.8074 H   0  0  0  0  0  0  0  0  0  0  0  0
  147.9078  131.6889  154.1010 H   0  0  0  0  0  0  0  0  0  0  0  0
  146.9470  133.1422  153.8932 H   0  0  0  0  0  0  0  0  0  0  0  0
  147.0464  129.8994  152.1363 H   0  0  0  0  0  0  0  0  0  0  0  0
  145.8523  130.6927  153.1625 H   0  0  0  0  0  0  0  0  0  0  0  0
  145.4081  129.9061  150.4371 H   0  0  0  0  0  0  0  0  0  0  0  0
  144.3633  130.9004  151.4464 H   0  0  0  0  0  0  0  0  0  0  0  0
  146.4836  131.7926  149.4988 H   0  0  0  0  0  0  0  0  0  0  0  0
  144.9012  132.5018  149.7403 H   0  0  0  0  0  0  0  0  0  0  0  0
  147.1093  133.6498  150.8120 H   0  0  0  0  0  0  0  0  0  0  0  0
  144.3902  133.3751  152.0436 H   0  0  0  0  0  0  0  0  0  0  0  0
  145.6337  133.7318  153.1838 H   0  0  0  0  0  0  0  0  0  0  0  0
  143.9637  136.1998  150.6172 H   0  0  0  0  0  0  0  0  0  0  0  0
  144.6845  134.7782  149.8709 H   0  0  0  0  0  0  0  0  0  0  0  0
  145.6173  136.2644  149.9723 H   0  0  0  0  0  0  0  0  0  0  0  0
  145.7543  136.4121  156.0166 H   0  0  0  0  0  0  0  0  0  0  0  0
  147.3892  140.0761  150.9862 H   0  0  0  0  0  0  0  0  0  0  0  0
  147.7992  141.4279  153.0351 H   0  0  0  0  0  0  0  0  0  0  0  0
  146.6277  141.0835  154.2788 H   0  0  0  0  0  0  0  0  0  0  0  0
  148.2304  139.0111  156.0498 H   0  0  0  0  0  0  0  0  0  0  0  0
  149.0712  138.3742  154.1342 H   0  0  0  0  0  0  0  0  0  0  0  0
  149.9219  139.6021  153.2330 H   0  0  0  0  0  0  0  0  0  0  0  0
  150.5739  138.7509  156.1019 H   0  0  0  0  0  0  0  0  0  0  0  0
  151.5258  138.4419  154.6654 H   0  0  0  0  0  0  0  0  0  0  0  0
  150.4430  141.0277  156.9315 H   0  0  0  0  0  0  0  0  0  0  0  0
  151.3003  142.2819  156.0619 H   0  0  0  0  0  0  0  0  0  0  0  0
  149.7614  142.1605  154.1682 H   0  0  0  0  0  0  0  0  0  0  0  0
  148.8373  142.4152  155.6281 H   0  0  0  0  0  0  0  0  0  0  0  0
  147.9784  131.7807  151.5682 H   0  0  0  0  0  0  0  0  0  0  0  0
  1  2  1  0  0  0  0
  1 28  1  0  0  0  0
  1 29  1  0  0  0  0
  1 30  1  0  0  0  0
  2  3  1  0  0  0  0
  2 31  1  0  0  0  0
  2 32  1  0  0  0  0
  3  7  1  0  0  0  0
  3  4  1  0  0  0  0
  3 58  1  0  0  0  0
  4  5  1  0  0  0  0
  4 33  1  0  0  0  0
  4 34  1  0  0  0  0
  5  6  1  0  0  0  0
  5 35  1  0  0  0  0
  5 36  1  0  0  0  0
  6  7  1  0  0  0  0
  6 37  1  0  0  0  0
  6 38  1  0  0  0  0
  7  8  1  0  0  0  0
  7 39  1  0  0  0  0
  8  9  1  0  0  0  0
  8 40  1  0  0  0  0
  8 41  1  0  0  0  0
  9 10  1  0  0  0  0
  9 11  1  0  0  0  0
 10 42  1  0  0  0  0
 10 43  1  0  0  0  0
 10 44  1  0  0  0  0
 11 16  1  0  0  0  0
 11 12  2  0  0  0  0
 12 13  1  0  0  0  0
 13 14  2  0  0  0  0
 13 45  1  0  0  0  0
 14 15  1  0  0  0  0
 15 19  1  0  0  0  0
 15 16  2  0  0  0  0
 16 17  1  0  0  0  0
 17 18  2  0  0  0  0
 18 19  1  0  0  0  0
 18 46  1  0  0  0  0
 19 20  1  0  0  0  0
 20 21  1  0  0  0  0
 20 47  1  0  0  0  0
 20 48  1  0  0  0  0
 21 27  1  0  0  0  0
 21 22  1  0  0  0  0
 21 23  1  0  0  0  0
 22 49  1  0  0  0  0
 23 24  1  0  0  0  0
 23 50  1  0  0  0  0
 23 51  1  0  0  0  0
 24 25  1  0  0  0  0
 24 52  1  0  0  0  0
 24 53  1  0  0  0  0
 25 26  1  0  0  0  0
 26 27  1  0  0  0  0
 26 54  1  0  0  0  0
 26 55  1  0  0  0  0
 27 56  1  0  0  0  0
 27 57  1  0  0  0  0
M  CHG  1   3   1
M  END
> <s_m_source_file>
AV-unprocessed.smi

> <i_m_source_file_index>
152

> <i_lp_mmshare_version>
43012

> <i_f3d_flags>
0

> <s_epik_input>
W0NIM11bQ0gyXU4xW0NIMl1bQ0gyXVtDSDJdW0NASF0xW0NIMl1OKFtDSDNdKWMobltjSF1uMiljKGMyMyluW2NIXW4zW0NIMl1DNChbT0hdKVtDSDJdW0NIMl1PW0NIMl1bQ0gyXTQ=

> <s_epik_cmdline>
J2VwaWtfcHl0aG9uJywgJy1waCcsICc3LjAnLCAnLXRuJywgJzgnLCAnLW1hJywgJzIwMCcsICctbWV0YWxfYmluZGluZycsICctaW1hZScsICc8aW5maWxlLm1hZT4nLCAnLW9tYWUnLCAnPG91dGZpbGUubWFlPic=

> <r_lp_tautomer_probability>
1

> <r_epik_Ionization_Penalty>
0.00152183

> <r_epik_Ionization_Penalty_Charging>
0.00112577

> <r_epik_Ionization_Penalty_Neutral>
0.000396066

> <r_epik_State_Penalty>
-0

> <r_epik_Charging_Adjusted_Penalty>
0.00112577

> <i_epik_Tot_Q>
1

> <i_epik_Tot_abs_Q>
1

> <r_epik_Metal_State_Penalty>
-0

> <b_epik_Metal_Only>
0

> <s_lp_Force_Field>
OPLS_2005

> <r_lp_Energy>
46.3876

> <b_lp_Chiralities_Consistent>
1

> <s_lp_Variant>
AV-unprocessed.smi:152-2

> <Gold.Version>
5.8.1

> <Gold.Id.Protein>
6NUR|6NUR_protein|mol2

> <Gold.PLP.Fitness>
51.0590

> <Gold.PLP.PLP>
-45.3564

> <Gold.PLP.part.hbond>
-2.8101

> <Gold.PLP.part.metal>
0.0000

> <Gold.PLP.part.buried>
0.0637

> <Gold.PLP.part.nonpolar>
-44.3157

> <Gold.PLP.part.repulsive>
1.1979

> <Gold.PLP.ligand.clash>
0.0000

> <Gold.PLP.ligand.torsion>
1.6955

> <Gold.PLP.Chemscore.Hbond>
2.4475

> <Gold.PLP.Chemscore.CHOScore>
0.5326

> <Gold.PLP.Chemscore.Metal>
0.0000

> <Gold.Chemscore.Hbonds>
donor molecule, donor type, donor heavy atom, donor atom, acceptor molecule, acceptor atom, score
      L1  H     3    58       P1 10747  1.00
      P1  H  7954  7966       L1    17  0.59
      P1  H  7989  7998       L1    25  0.90
      L1  C    18    46       P1  7957  0.51

> <Gold.PLP.Chemscore.Internal.Correction>
0.1533

> <Gold.Rescore>
     Score         DG    S(hbond)    S(metal)    S(lipo)     H(rot)  DE(clash)    DE(int)     intcor
     12.99     -15.60       1.33        0.00     102.40       2.46       0.80       1.81       ----

> <Gold.Chemscore.Fitness>
12.9856

> <Gold.Chemscore.DG>
-15.5972

> <Gold.Chemscore.ZeroCoef>
-5.4800

> <Gold.Chemscore.Hbond>
1.3286

> <Gold.Chemscore.Metal>
0.0000

> <Gold.Chemscore.Lipo>
102.4011

> <Gold.Chemscore.Internal_Hbond>
0.0000

> <Gold.Chemscore.DEClash>
0.7983

> <Gold.Chemscore.DEInternal>
1.8133

> <Gold.Chemscore.Rot>
2.4614

> <Gold.Chemscore.Internal.Correction>
   9.000000E+99

> <Gold.Chemscore.Hbonds>
donor molecule, donor type, donor heavy atom, donor atom, acceptor molecule, acceptor atom, score
      L1  H     3    58       P1 10747  0.99
      P1  H  7954  7966       L1    17  0.06
      P1  H  7989  7998       L1    25  0.15

> <Gold.Chemscore.Hbond.Weighted>
-4.4374

> <Gold.Chemscore.Metal.Weighted>
-0.0000

> <Gold.Chemscore.Lipo.Weighted>
-11.9809

> <Gold.Chemscore.Internal_Hbond.Weighted>
0.0000

> <Gold.Chemscore.DEClash.Weighted>
0.7983

> <Gold.Chemscore.DEInternal.Weighted>
1.8133

> <Gold.Chemscore.Rot.Weighted>
6.3012

> <Gold.Chemscore.Internal.Correction.Weighted>
   9.000000E+99

> <Gold.Protein.RotatedTorsions>
[ 6907 6896 6895 6894 ] final  -75.87 input  -60.11 | X-H torsion
[ 7974 7965 7964 7962 ] final   44.33 input  175.53 | X-H torsion
[ 8008 7997 7996 7995 ] final -165.24 input   59.86 | X-H torsion
[ 10167 10162 10161 10158 ] final  -75.24 input  -65.29 | X-H torsion
[ 10718 10713 10712 10709 ] final  -19.19 input   66.30 | X-H torsion
[ 10763 10752 10751 10750 ] final -177.92 input  -60.55 | X-H torsion
[ 11005 11000 10999 10996 ] final -106.67 input  -57.11 | X-H torsion

> <Gold.Protein.ActiveResidues>
 VAL166  LYS551  ARG553  GLY616  TRP617  ASP618  TYR619  PRO620  LYS621  CYS622 
 ASP623  PHE694  ASN695  SER759  ASP760  ASP761  ALA762  ILE779  LEU786  VAL792 
 PHE793  MET794  SER795  GLU796  ALA797  LYS798  CYS799  TRP800  GLU811  SER814 

> <Gold.Protein.RotatedAtoms>
  150.7045  134.4657  159.5401 H   0  0  0  0  0  0  0  0  0  0  0  0  # atno 6907 bound_to 6896
  152.2323  134.8307  160.0481 H   0  0  0  0  0  0  0  0  0  0  0  0  # atno 6908 bound_to 6896
  151.9118  133.3528  159.3903 H   0  0  0  0  0  0  0  0  0  0  0  0  # atno 6909 bound_to 6896
  146.0578  139.5086  142.9677 H   0  0  0  0  0  0  0  0  0  0  0  0  # atno 7974 bound_to 7965
  155.8470  140.0957  157.1699 H   0  0  0  0  0  0  0  0  0  0  0  0  # atno 8008 bound_to 7997
  154.3984  140.1390  156.3859 H   0  0  0  0  0  0  0  0  0  0  0  0  # atno 8009 bound_to 7997
  155.8003  140.3453  155.5401 H   0  0  0  0  0  0  0  0  0  0  0  0  # atno 8010 bound_to 7997
  140.4959  143.2371  151.7832 H   0  0  0  0  0  0  0  0  0  0  0  0  # atno 10167 bound_to 10162
  156.5492  130.4697  149.6460 H   0  0  0  0  0  0  0  0  0  0  0  0  # atno 10718 bound_to 10713
  154.5541  135.2815  155.0981 H   0  0  0  0  0  0  0  0  0  0  0  0  # atno 10763 bound_to 10752
  154.2415  135.6356  153.5212 H   0  0  0  0  0  0  0  0  0  0  0  0  # atno 10764 bound_to 10752
  153.0011  135.5561  154.6116 H   0  0  0  0  0  0  0  0  0  0  0  0  # atno 10765 bound_to 10752
  141.0993  133.8914  157.1884 H   0  0  0  0  0  0  0  0  0  0  0  0  # atno 11005 bound_to 11000
  145.6613  141.0239  143.1707 LP  0  0  0  0  0  0  0  0  0  0  0  0  # atno 17320 bound_to 7965
  144.7157  139.8204  143.7399 LP  0  0  0  0  0  0  0  0  0  0  0  0  # atno 17321 bound_to 7965
  139.4861  144.4587  151.9567 LP  0  0  0  0  0  0  0  0  0  0  0  0  # atno 17342 bound_to 10162
  140.3675  144.2896  150.5924 LP  0  0  0  0  0  0  0  0  0  0  0  0  # atno 17343 bound_to 10162
  156.2900  130.7119  151.1965 LP  0  0  0  0  0  0  0  0  0  0  0  0  # atno 17370 bound_to 10713
  157.7391  131.0533  150.5254 LP  0  0  0  0  0  0  0  0  0  0  0  0  # atno 17371 bound_to 10713
  139.9839  135.0089  156.9816 LP  0  0  0  0  0  0  0  0  0  0  0  0  # atno 17394 bound_to 11000
  140.5062  134.1047  155.7260 LP  0  0  0  0  0  0  0  0  0  0  0  0  # atno 17395 bound_to 11000

$$$$
