AV-unprocessed.smi:343|AV-procd|sdf|2388|dock5
  -GOLD-   2262022313D 1   1.00000     0.00000
 Structure written by MMmdl.
 42 44  0  0  0  0  0  0  0  0  1 V2000
  151.8682  140.1811  156.6759 C   0  0  0  0  0  0  0  0  0  0  0  0
  152.2964  140.7424  158.0018 C   0  0  0  0  0  0  0  0  0  0  0  0
  153.3136  140.1899  158.6420 N   0  0  0  0  0  0  0  0  0  0  0  0
  153.4446  140.9147  159.7711 N   0  0  0  0  0  0  0  0  0  0  0  0
  154.4885  140.5748  160.7183 C   0  0  0  0  0  0  0  0  0  0  0  0
  152.5056  141.9247  159.8465 C   0  0  0  0  0  0  0  0  0  0  0  0
  152.4446  142.8731  161.0002 C   0  0  0  0  0  0  0  0  0  0  0  0
  151.7405  141.8460  158.7135 C   0  0  0  0  0  0  0  0  0  0  0  0
  150.5846  142.7203  158.2956 C   0  0  0  0  0  0  0  0  0  0  0  0
  149.4680  141.8535  157.7139 C   0  0  0  0  0  0  0  0  0  0  0  0
  149.3658  140.6746  158.0520 O   0  0  0  0  0  0  0  0  0  0  0  0
  148.6338  142.4560  156.8517 N   0  0  0  0  0  0  0  0  0  0  0  0
  147.4612  141.8485  156.2340 C   0  0  0  0  0  0  0  0  0  0  0  0
  147.5770  141.8270  154.7212 C   0  0  0  0  0  0  0  0  0  0  0  0
  147.1407  140.6269  153.9145 C   0  0  0  0  0  0  0  0  0  0  0  0
  148.6092  140.9682  154.0312 C   0  0  0  0  0  0  0  0  0  0  0  0
  146.1707  142.5325  156.6546 C   0  0  0  0  0  0  0  0  0  0  0  0
  144.8545  142.2088  155.9889 C   0  0  0  0  0  0  0  0  0  0  0  0
  145.4999  143.5589  155.7724 C   0  0  0  0  0  0  0  0  0  0  0  0
  151.7027  140.9766  155.9492 H   0  0  0  0  0  0  0  0  0  0  0  0
  150.9379  139.6217  156.7740 H   0  0  0  0  0  0  0  0  0  0  0  0
  152.6189  139.5080  156.2598 H   0  0  0  0  0  0  0  0  0  0  0  0
  155.0999  141.4545  160.9218 H   0  0  0  0  0  0  0  0  0  0  0  0
  155.1285  139.7859  160.3206 H   0  0  0  0  0  0  0  0  0  0  0  0
  154.0386  140.2296  161.6496 H   0  0  0  0  0  0  0  0  0  0  0  0
  151.5530  143.4982  160.9509 H   0  0  0  0  0  0  0  0  0  0  0  0
  153.3136  143.5310  161.0041 H   0  0  0  0  0  0  0  0  0  0  0  0
  152.4214  142.3344  161.9477 H   0  0  0  0  0  0  0  0  0  0  0  0
  150.1873  143.2913  159.1355 H   0  0  0  0  0  0  0  0  0  0  0  0
  150.8932  143.4553  157.5514 H   0  0  0  0  0  0  0  0  0  0  0  0
  148.8042  143.4276  156.6368 H   0  0  0  0  0  0  0  0  0  0  0  0
  147.4034  140.8079  156.5601 H   0  0  0  0  0  0  0  0  0  0  0  0
  147.3863  142.7946  154.2599 H   0  0  0  0  0  0  0  0  0  0  0  0
  146.7891  139.7487  154.4523 H   0  0  0  0  0  0  0  0  0  0  0  0
  146.6535  140.8150  152.9600 H   0  0  0  0  0  0  0  0  0  0  0  0
  149.1023  141.3833  153.1544 H   0  0  0  0  0  0  0  0  0  0  0  0
  149.2271  140.3217  154.6515 H   0  0  0  0  0  0  0  0  0  0  0  0
  146.1179  142.7301  157.7240 H   0  0  0  0  0  0  0  0  0  0  0  0
  144.8637  141.5104  155.1546 H   0  0  0  0  0  0  0  0  0  0  0  0
  143.9710  142.1664  156.6224 H   0  0  0  0  0  0  0  0  0  0  0  0
  145.0444  144.4188  156.2592 H   0  0  0  0  0  0  0  0  0  0  0  0
  145.9327  143.7524  154.7930 H   0  0  0  0  0  0  0  0  0  0  0  0
  1  2  1  0  0  0  0
  1 20  1  0  0  0  0
  1 21  1  0  0  0  0
  1 22  1  0  0  0  0
  2  8  1  0  0  0  0
  2  3  2  0  0  0  0
  3  4  1  0  0  0  0
  4  5  1  0  0  0  0
  4  6  1  0  0  0  0
  5 23  1  0  0  0  0
  5 24  1  0  0  0  0
  5 25  1  0  0  0  0
  6  7  1  0  0  0  0
  6  8  2  0  0  0  0
  7 26  1  0  0  0  0
  7 27  1  0  0  0  0
  7 28  1  0  0  0  0
  8  9  1  0  0  0  0
  9 10  1  0  0  0  0
  9 29  1  0  0  0  0
  9 30  1  0  0  0  0
 10 11  2  0  0  0  0
 10 12  1  0  0  0  0
 12 13  1  0  0  0  0
 12 31  1  0  0  0  0
 13 14  1  0  0  0  0
 13 17  1  0  0  0  0
 13 32  1  0  0  0  0
 14 16  1  0  0  0  0
 14 15  1  0  0  0  0
 14 33  1  0  0  0  0
 15 16  1  0  0  0  0
 15 34  1  0  0  0  0
 15 35  1  0  0  0  0
 16 36  1  0  0  0  0
 16 37  1  0  0  0  0
 17 19  1  0  0  0  0
 17 18  1  0  0  0  0
 17 38  1  0  0  0  0
 18 19  1  0  0  0  0
 18 39  1  0  0  0  0
 18 40  1  0  0  0  0
 19 41  1  0  0  0  0
 19 42  1  0  0  0  0
M  END
> <s_m_source_file>
AV-unprocessed.smi

> <i_m_source_file_index>
343

> <i_lp_mmshare_version>
43012

> <i_f3d_flags>
0

> <s_epik_input>
W0NIM11jMW5uKFtDSDNdKWMoW0NIM10pYzFbQ0gyXUMoPU8pW05IXVtDSF0oW0NIXTJbQ0gyXVtDSDJdMilbQ0hdM1tDSDJdW0NIMl0z

> <s_epik_cmdline>
J2VwaWtfcHl0aG9uJywgJy1waCcsICc3LjAnLCAnLXRuJywgJzgnLCAnLW1hJywgJzIwMCcsICctbWV0YWxfYmluZGluZycsICctaW1hZScsICc8aW5maWxlLm1hZT4nLCAnLW9tYWUnLCAnPG91dGZpbGUubWFlPic=

> <r_lp_tautomer_probability>
1

> <r_epik_Ionization_Penalty>
0.00332543

> <r_epik_Ionization_Penalty_Charging>
0

> <r_epik_Ionization_Penalty_Neutral>
0.00332543

> <r_epik_State_Penalty>
0.00235125

> <r_epik_Charging_Adjusted_Penalty>
0.00235125

> <i_epik_Tot_Q>
0

> <i_epik_Tot_abs_Q>
0

> <r_epik_Metal_State_Penalty>
-0

> <b_epik_Metal_Only>
0

> <s_lp_Force_Field>
OPLS_2005

> <r_lp_Energy>
17.7033

> <b_lp_Chiralities_Consistent>
1

> <s_lp_Variant>
AV-unprocessed.smi:343-1

> <Gold.Version>
5.8.1

> <Gold.Id.Protein>
6NUR|6NUR_protein|mol2

> <Gold.PLP.Fitness>
39.4385

> <Gold.PLP.PLP>
-34.9716

> <Gold.PLP.part.hbond>
-2.0000

> <Gold.PLP.part.metal>
0.0000

> <Gold.PLP.part.buried>
-3.9808

> <Gold.PLP.part.nonpolar>
-28.6795

> <Gold.PLP.part.repulsive>
0.0117

> <Gold.PLP.ligand.clash>
0.0000

> <Gold.PLP.ligand.torsion>
1.7540

> <Gold.PLP.Chemscore.Hbond>
1.9440

> <Gold.PLP.Chemscore.CHOScore>
0.0000

> <Gold.PLP.Chemscore.Metal>
0.0000

> <Gold.Chemscore.Hbonds>
donor molecule, donor type, donor heavy atom, donor atom, acceptor molecule, acceptor atom, score
      L1  H    12    31       P1  8028  1.00
      P1  H  7997  8008       L1     3  0.89

> <Gold.PLP.Chemscore.Internal.Correction>
2.1429

> <Gold.Rescore>
     Score         DG    S(hbond)    S(metal)    S(lipo)     H(rot)  DE(clash)    DE(int)     intcor
     13.62     -16.97       1.54        0.00      86.31       1.46       0.03       3.33       ----

> <Gold.Chemscore.Fitness>
13.6221

> <Gold.Chemscore.DG>
-16.9747

> <Gold.Chemscore.ZeroCoef>
-5.4800

> <Gold.Chemscore.Hbond>
1.5409

> <Gold.Chemscore.Metal>
0.0000

> <Gold.Chemscore.Lipo>
86.3118

> <Gold.Chemscore.Internal_Hbond>
0.0000

> <Gold.Chemscore.DEClash>
0.0270

> <Gold.Chemscore.DEInternal>
3.3256

> <Gold.Chemscore.Rot>
1.4650

> <Gold.Chemscore.Internal.Correction>
   9.000000E+99

> <Gold.Chemscore.Hbonds>
donor molecule, donor type, donor heavy atom, donor atom, acceptor molecule, acceptor atom, score
      L1  H    12    31       P1  8028  0.76
      P1  H  7997  8008       L1     3  0.29

> <Gold.Chemscore.Hbond.Weighted>
-5.1465

> <Gold.Chemscore.Metal.Weighted>
-0.0000

> <Gold.Chemscore.Lipo.Weighted>
-10.0985

> <Gold.Chemscore.Internal_Hbond.Weighted>
0.0000

> <Gold.Chemscore.DEClash.Weighted>
0.0270

> <Gold.Chemscore.DEInternal.Weighted>
3.3256

> <Gold.Chemscore.Rot.Weighted>
3.7503

> <Gold.Chemscore.Internal.Correction.Weighted>
   9.000000E+99

> <Gold.Protein.RotatedTorsions>
[ 6907 6896 6895 6894 ] final   25.61 input  -60.11 | X-H torsion
[ 7974 7965 7964 7962 ] final  -68.87 input  175.53 | X-H torsion
[ 8008 7997 7996 7995 ] final  -96.21 input   59.86 | X-H torsion
[ 10167 10162 10161 10158 ] final   63.56 input  -65.29 | X-H torsion
[ 10718 10713 10712 10709 ] final   60.72 input   66.30 | X-H torsion
[ 10763 10752 10751 10750 ] final  135.02 input  -60.55 | X-H torsion
[ 11005 11000 10999 10996 ] final  146.29 input  -57.11 | X-H torsion

> <Gold.Protein.ActiveResidues>
 VAL166  LYS551  ARG553  GLY616  TRP617  ASP618  TYR619  PRO620  LYS621  CYS622 
 ASP623  PHE694  ASN695  SER759  ASP760  ASP761  ALA762  ILE779  LEU786  VAL792 
 PHE793  MET794  SER795  GLU796  ALA797  LYS798  CYS799  TRP800  GLU811  SER814 

> <Gold.Protein.RotatedAtoms>
  151.9750  135.0057  160.0554 H   0  0  0  0  0  0  0  0  0  0  0  0  # atno 6907 bound_to 6896
  152.1748  133.4663  159.4936 H   0  0  0  0  0  0  0  0  0  0  0  0  # atno 6908 bound_to 6896
  150.6907  134.1825  159.4297 H   0  0  0  0  0  0  0  0  0  0  0  0  # atno 6909 bound_to 6896
  145.7110  140.9078  143.0681 H   0  0  0  0  0  0  0  0  0  0  0  0  # atno 7974 bound_to 7965
  154.7715  140.0473  157.1055 H   0  0  0  0  0  0  0  0  0  0  0  0  # atno 8008 bound_to 7997
  154.9815  140.3102  155.4925 H   0  0  0  0  0  0  0  0  0  0  0  0  # atno 8009 bound_to 7997
  156.2922  140.2235  156.4914 H   0  0  0  0  0  0  0  0  0  0  0  0  # atno 8010 bound_to 7997
  140.1317  144.4636  150.6861 H   0  0  0  0  0  0  0  0  0  0  0  0  # atno 10167 bound_to 10162
  157.5774  130.8954  149.9370 H   0  0  0  0  0  0  0  0  0  0  0  0  # atno 10718 bound_to 10713
  153.8332  135.3101  155.3420 H   0  0  0  0  0  0  0  0  0  0  0  0  # atno 10763 bound_to 10752
  154.7964  135.4753  154.0174 H   0  0  0  0  0  0  0  0  0  0  0  0  # atno 10764 bound_to 10752
  153.1621  135.6863  153.8818 H   0  0  0  0  0  0  0  0  0  0  0  0  # atno 10765 bound_to 10752
  140.0781  134.9113  157.1456 H   0  0  0  0  0  0  0  0  0  0  0  0  # atno 11005 bound_to 11000
  144.6942  139.9074  143.7462 LP  0  0  0  0  0  0  0  0  0  0  0  0  # atno 17320 bound_to 7965
  146.0712  139.3701  143.0521 LP  0  0  0  0  0  0  0  0  0  0  0  0  # atno 17321 bound_to 7965
  140.6813  143.2328  151.5377 LP  0  0  0  0  0  0  0  0  0  0  0  0  # atno 17342 bound_to 10162
  139.5516  144.2381  152.1540 LP  0  0  0  0  0  0  0  0  0  0  0  0  # atno 17343 bound_to 10162
  156.0819  130.3672  150.0564 LP  0  0  0  0  0  0  0  0  0  0  0  0  # atno 17370 bound_to 10713
  156.8708  130.9524  151.3609 LP  0  0  0  0  0  0  0  0  0  0  0  0  # atno 17371 bound_to 10713
  140.3527  134.2580  155.7196 LP  0  0  0  0  0  0  0  0  0  0  0  0  # atno 17394 bound_to 11000
  141.2037  133.7906  157.0326 LP  0  0  0  0  0  0  0  0  0  0  0  0  # atno 17395 bound_to 11000

$$$$
