AV-unprocessed.smi:2026|AV-procd|sdf|8203|dock9
  -GOLD-   2272010463D 1   1.00000     0.00000
 Structure written by MMmdl.
 47 49  0  0  0  0  0  0  0  0  2 V2000
  152.2697  144.7134  160.1306 C   0  0  0  0  0  0  0  0  0  0  0  0
  151.8131  143.4555  159.4114 C   0  0  0  0  0  0  0  0  0  0  0  0
  151.0073  143.5919  158.2577 C   0  0  0  0  0  0  0  0  0  0  0  0
  150.6062  142.4224  157.6221 C   0  0  0  0  0  0  0  0  0  0  0  0
  149.8246  142.2177  156.4823 N   0  3  0  0  0  0  0  0  0  0  0  0
  149.7070  140.8811  156.2450 C   0  0  0  0  0  0  0  0  0  0  0  0
  150.4010  140.2311  157.2177 N   0  0  0  0  0  0  0  0  0  0  0  0
  150.6073  138.7962  157.4442 C   0  0  0  0  0  0  0  0  0  0  0  0
  149.3649  138.1142  158.0543 C   0  0  2  0  0  0  0  0  0  0  0  0
  148.3504  139.0784  158.2476 O   0  0  0  0  0  0  0  0  0  0  0  0
  149.6387  137.4102  159.3991 C   0  0  0  0  0  0  0  0  0  0  0  0
  148.6941  136.3179  159.6655 N   0  0  0  0  0  0  0  0  0  0  0  0
  148.5633  135.2186  158.9009 C   0  0  0  0  0  0  0  0  0  0  0  0
  149.1966  134.9570  157.8796 O   0  0  0  0  0  0  0  0  0  0  0  0
  147.6082  134.4458  159.4343 N   0  0  0  0  0  0  0  0  0  0  0  0
  147.0227  135.0158  160.6320 C   0  0  0  0  0  0  0  0  0  0  0  0
  145.5246  135.3033  160.4262 C   0  0  0  0  0  0  0  0  0  0  0  0
  147.2822  134.1149  161.8527 C   0  0  0  0  0  0  0  0  0  0  0  0
  147.8389  136.2975  160.6972 C   0  0  0  0  0  0  0  0  0  0  0  0
  147.6988  137.1594  161.5649 O   0  0  0  0  0  0  0  0  0  0  0  0
  150.9791  141.1512  158.0975 C   0  0  0  0  0  0  0  0  0  0  0  0
  151.7731  140.9981  159.2309 C   0  0  0  0  0  0  0  0  0  0  0  0
  152.1921  142.1746  159.8910 C   0  0  0  0  0  0  0  0  0  0  0  0
  153.0611  142.0380  161.1296 C   0  0  0  0  0  0  0  0  0  0  0  0
  151.8874  145.6122  159.6456 H   0  0  0  0  0  0  0  0  0  0  0  0
  153.3581  144.7764  160.1374 H   0  0  0  0  0  0  0  0  0  0  0  0
  151.9156  144.7152  161.1617 H   0  0  0  0  0  0  0  0  0  0  0  0
  150.7172  144.5638  157.8857 H   0  0  0  0  0  0  0  0  0  0  0  0
  149.1641  140.4213  155.4318 H   0  0  0  0  0  0  0  0  0  0  0  0
  150.8821  138.3485  156.4890 H   0  0  0  0  0  0  0  0  0  0  0  0
  151.4717  138.6789  158.0994 H   0  0  0  0  0  0  0  0  0  0  0  0
  148.9705  137.3829  157.3486 H   0  0  0  0  0  0  0  0  0  0  0  0
  148.6433  139.9004  157.8849 H   0  0  0  0  0  0  0  0  0  0  0  0
  150.6672  137.0451  159.4228 H   0  0  0  0  0  0  0  0  0  0  0  0
  149.5668  138.1331  160.2136 H   0  0  0  0  0  0  0  0  0  0  0  0
  147.3147  133.5590  159.0510 H   0  0  0  0  0  0  0  0  0  0  0  0
  145.0863  135.7714  161.3083 H   0  0  0  0  0  0  0  0  0  0  0  0
  144.9724  134.3828  160.2350 H   0  0  0  0  0  0  0  0  0  0  0  0
  145.3529  135.9684  159.5790 H   0  0  0  0  0  0  0  0  0  0  0  0
  146.8486  134.5412  162.7580 H   0  0  0  0  0  0  0  0  0  0  0  0
  148.3494  133.9749  162.0326 H   0  0  0  0  0  0  0  0  0  0  0  0
  146.8421  133.1275  161.7116 H   0  0  0  0  0  0  0  0  0  0  0  0
  152.0638  140.0229  159.5910 H   0  0  0  0  0  0  0  0  0  0  0  0
  153.2936  140.9940  161.3410 H   0  0  0  0  0  0  0  0  0  0  0  0
  152.5517  142.4495  162.0012 H   0  0  0  0  0  0  0  0  0  0  0  0
  154.0051  142.5669  160.9969 H   0  0  0  0  0  0  0  0  0  0  0  0
  149.4032  142.9348  155.9061 H   0  0  0  0  0  0  0  0  0  0  0  0
  1  2  1  0  0  0  0
  1 25  1  0  0  0  0
  1 26  1  0  0  0  0
  1 27  1  0  0  0  0
  2 23  1  0  0  0  0
  2  3  2  0  0  0  0
  3  4  1  0  0  0  0
  3 28  1  0  0  0  0
  4 21  2  0  0  0  0
  4  5  1  0  0  0  0
  5  6  2  0  0  0  0
  5 47  1  0  0  0  0
  6  7  1  0  0  0  0
  6 29  1  0  0  0  0
  7  8  1  0  0  0  0
  7 21  1  0  0  0  0
  8  9  1  0  0  0  0
  8 30  1  0  0  0  0
  8 31  1  0  0  0  0
  9 10  1  0  0  0  0
  9 11  1  0  0  0  0
  9 32  1  0  0  0  0
 10 33  1  0  0  0  0
 11 12  1  0  0  0  0
 11 34  1  0  0  0  0
 11 35  1  0  0  0  0
 12 19  1  0  0  0  0
 12 13  1  0  0  0  0
 13 14  2  0  0  0  0
 13 15  1  0  0  0  0
 15 16  1  0  0  0  0
 15 36  1  0  0  0  0
 16 17  1  0  0  0  0
 16 18  1  0  0  0  0
 16 19  1  0  0  0  0
 17 37  1  0  0  0  0
 17 38  1  0  0  0  0
 17 39  1  0  0  0  0
 18 40  1  0  0  0  0
 18 41  1  0  0  0  0
 18 42  1  0  0  0  0
 19 20  2  0  0  0  0
 21 22  1  0  0  0  0
 22 23  2  0  0  0  0
 22 43  1  0  0  0  0
 23 24  1  0  0  0  0
 24 44  1  0  0  0  0
 24 45  1  0  0  0  0
 24 46  1  0  0  0  0
M  CHG  1   5   1
M  END
> <s_m_source_file>
AV-unprocessed.smi

> <i_m_source_file_index>
2026

> <i_lp_mmshare_version>
43012

> <i_f3d_flags>
0

> <s_epik_input>
W0NIM11jKFtjSF0xKWMoW0NIM10pW2NIXWMoYzEyKW4oW2NIXW4yKVtDSDJdW0NASF0oW09IXSlbQ0gyXU4oQzM9TylDKD1PKVtOSF1DMyhbQ0gzXSlbQ0gzXQ==

> <s_epik_cmdline>
J2VwaWtfcHl0aG9uJywgJy1waCcsICc3LjAnLCAnLXRuJywgJzgnLCAnLW1hJywgJzIwMCcsICctbWV0YWxfYmluZGluZycsICctaW1hZScsICc8aW5maWxlLm1hZT4nLCAnLW9tYWUnLCAnPG91dGZpbGUubWFlPic=

> <r_lp_tautomer_probability>
1

> <r_epik_Ionization_Penalty>
1.08255

> <r_epik_Ionization_Penalty_Charging>
1.08249

> <r_epik_Ionization_Penalty_Neutral>
6.65731e-05

> <r_epik_State_Penalty>
1.13805

> <r_epik_Charging_Adjusted_Penalty>
2.22054

> <i_epik_Tot_Q>
1

> <i_epik_Tot_abs_Q>
1

> <r_epik_Metal_State_Penalty>
1.29676

> <b_epik_Metal_Only>
0

> <s_lp_Force_Field>
OPLS_2005

> <r_lp_Energy>
25.6396

> <b_lp_Chiralities_Consistent>
1

> <s_lp_Variant>
AV-unprocessed.smi:2026-3

> <Gold.Version>
5.8.1

> <Gold.Id.Protein>
6NUR|6NUR_protein|mol2

> <Gold.PLP.Fitness>
50.5737

> <Gold.PLP.PLP>
-41.9164

> <Gold.PLP.part.hbond>
-4.6330

> <Gold.PLP.part.metal>
0.0000

> <Gold.PLP.part.buried>
-3.9684

> <Gold.PLP.part.nonpolar>
-33.6260

> <Gold.PLP.part.repulsive>
0.1202

> <Gold.PLP.ligand.clash>
0.0000

> <Gold.PLP.ligand.torsion>
1.2341

> <Gold.PLP.Chemscore.Hbond>
3.7040

> <Gold.PLP.Chemscore.CHOScore>
0.0000

> <Gold.PLP.Chemscore.Metal>
0.0000

> <Gold.Chemscore.Hbonds>
donor molecule, donor type, donor heavy atom, donor atom, acceptor molecule, acceptor atom, score
      L1  H     5    47       P1  8028  2.00
      P1  H  6931  6943       L1    20  1.00
      P1  H  6934  6947       L1    20  0.75

> <Gold.PLP.Chemscore.Internal.Correction>
0.0135

> <Gold.Rescore>
     Score         DG    S(hbond)    S(metal)    S(lipo)     H(rot)  DE(clash)    DE(int)     intcor
     17.47     -19.36       2.67        0.00      96.97       2.49       0.03       1.85       ----

> <Gold.Chemscore.Fitness>
17.4708

> <Gold.Chemscore.DG>
-19.3560

> <Gold.Chemscore.ZeroCoef>
-5.4800

> <Gold.Chemscore.Hbond>
2.6684

> <Gold.Chemscore.Metal>
0.0000

> <Gold.Chemscore.Lipo>
96.9677

> <Gold.Chemscore.Internal_Hbond>
0.0000

> <Gold.Chemscore.DEClash>
0.0310

> <Gold.Chemscore.DEInternal>
1.8542

> <Gold.Chemscore.Rot>
2.4929

> <Gold.Chemscore.Internal.Correction>
   9.000000E+99

> <Gold.Chemscore.Hbonds>
donor molecule, donor type, donor heavy atom, donor atom, acceptor molecule, acceptor atom, score
      L1  H     5    47       P1  8028  0.94
      P1  H  6931  6943       L1    20  0.93
      P1  H  6934  6947       L1    20  0.67

> <Gold.Chemscore.Hbond.Weighted>
-8.9126

> <Gold.Chemscore.Metal.Weighted>
-0.0000

> <Gold.Chemscore.Lipo.Weighted>
-11.3452

> <Gold.Chemscore.Internal_Hbond.Weighted>
0.0000

> <Gold.Chemscore.DEClash.Weighted>
0.0310

> <Gold.Chemscore.DEInternal.Weighted>
1.8542

> <Gold.Chemscore.Rot.Weighted>
6.3819

> <Gold.Chemscore.Internal.Correction.Weighted>
   9.000000E+99

> <Gold.Protein.RotatedTorsions>
[ 6907 6896 6895 6894 ] final  149.25 input  -60.11 | X-H torsion
[ 7974 7965 7964 7962 ] final   40.14 input  175.53 | X-H torsion
[ 8008 7997 7996 7995 ] final  -96.91 input   59.86 | X-H torsion
[ 10167 10162 10161 10158 ] final  134.41 input  -65.29 | X-H torsion
[ 10718 10713 10712 10709 ] final  164.37 input   66.30 | X-H torsion
[ 10763 10752 10751 10750 ] final  -77.27 input  -60.55 | X-H torsion
[ 11005 11000 10999 10996 ] final -168.82 input  -57.11 | X-H torsion

> <Gold.Protein.ActiveResidues>
 VAL166  LYS551  ARG553  GLY616  TRP617  ASP618  TYR619  PRO620  LYS621  CYS622 
 ASP623  PHE694  ASN695  SER759  ASP760  ASP761  ALA762  ILE779  LEU786  VAL792 
 PHE793  MET794  SER795  GLU796  ALA797  LYS798  CYS799  TRP800  GLU811  SER814 

> <Gold.Protein.RotatedAtoms>
  152.1305  133.4405  159.4718 H   0  0  0  0  0  0  0  0  0  0  0  0  # atno 6907 bound_to 6896
  150.6878  134.2426  159.4488 H   0  0  0  0  0  0  0  0  0  0  0  0  # atno 6908 bound_to 6896
  152.0310  134.9767  160.0623 H   0  0  0  0  0  0  0  0  0  0  0  0  # atno 6909 bound_to 6896
  146.0929  139.5568  142.9464 H   0  0  0  0  0  0  0  0  0  0  0  0  # atno 7974 bound_to 7965
  154.7807  140.0467  157.1125 H   0  0  0  0  0  0  0  0  0  0  0  0  # atno 8008 bound_to 7997
  154.9708  140.3089  155.4969 H   0  0  0  0  0  0  0  0  0  0  0  0  # atno 8009 bound_to 7997
  156.2936  140.2253  156.4800 H   0  0  0  0  0  0  0  0  0  0  0  0  # atno 8010 bound_to 7997
  139.5257  144.6568  151.5136 H   0  0  0  0  0  0  0  0  0  0  0  0  # atno 10167 bound_to 10162
  157.0954  131.0428  151.2520 H   0  0  0  0  0  0  0  0  0  0  0  0  # atno 10718 bound_to 10713
  154.5108  135.5769  153.6603 H   0  0  0  0  0  0  0  0  0  0  0  0  # atno 10763 bound_to 10752
  152.9896  135.6158  154.2882 H   0  0  0  0  0  0  0  0  0  0  0  0  # atno 10764 bound_to 10752
  154.2796  135.2851  155.2682 H   0  0  0  0  0  0  0  0  0  0  0  0  # atno 10765 bound_to 10752
  140.5376  134.5554  157.5091 H   0  0  0  0  0  0  0  0  0  0  0  0  # atno 11005 bound_to 11000
  145.6005  141.0356  143.2021 LP  0  0  0  0  0  0  0  0  0  0  0  0  # atno 17320 bound_to 7965
  144.7373  139.7548  143.7324 LP  0  0  0  0  0  0  0  0  0  0  0  0  # atno 17321 bound_to 7965
  140.6398  143.8912  150.6681 LP  0  0  0  0  0  0  0  0  0  0  0  0  # atno 17342 bound_to 10162
  140.2243  143.3785  152.1618 LP  0  0  0  0  0  0  0  0  0  0  0  0  # atno 17343 bound_to 10162
  157.4686  130.7695  149.7302 LP  0  0  0  0  0  0  0  0  0  0  0  0  # atno 17370 bound_to 10713
  155.9887  130.3957  150.3105 LP  0  0  0  0  0  0  0  0  0  0  0  0  # atno 17371 bound_to 10713
  139.9521  134.7599  156.0425 LP  0  0  0  0  0  0  0  0  0  0  0  0  # atno 17394 bound_to 11000
  141.1245  133.6603  156.3301 LP  0  0  0  0  0  0  0  0  0  0  0  0  # atno 17395 bound_to 11000

$$$$
