AV-unprocessed.smi:1838|AV-procd|sdf|7483|dock9
  -GOLD-   22720 9183D 1   1.00000     0.00000
 Structure written by MMmdl.
 35 36  0  0  0  0  0  0  0  0  1 V2000
  151.6246  138.2897  154.5279 C   0  0  0  0  0  0  0  0  0  0  0  0
  150.2787  138.2386  154.0669 O   0  0  0  0  0  0  0  0  0  0  0  0
  149.5113  139.3856  154.1407 C   0  0  0  0  0  0  0  0  0  0  0  0
  150.0825  140.5102  154.6407 N   0  0  0  0  0  0  0  0  0  0  0  0
  149.3375  141.6313  154.7152 C   0  0  0  0  0  0  0  0  0  0  0  0
  147.9956  141.6918  154.2990 C   0  0  0  0  0  0  0  0  0  0  0  0
  147.4002  140.5270  153.7803 C   0  0  0  0  0  0  0  0  0  0  0  0
  148.1690  139.3394  153.6944 C   0  0  0  0  0  0  0  0  0  0  0  0
  147.6852  138.0973  153.1915 N   0  0  0  0  0  0  0  0  0  0  0  0
  146.4236  137.6844  152.9788 C   0  0  0  0  0  0  0  0  0  0  0  0
  145.4059  138.3449  153.1830 O   0  0  0  0  0  0  0  0  0  0  0  0
  146.4046  136.4323  152.5005 N   0  0  0  0  0  0  0  0  0  0  0  0
  145.2025  135.6619  152.1874 C   0  0  1  0  0  0  0  0  0  0  0  0
  145.3176  134.9977  150.8022 C   0  0  0  0  0  0  0  0  0  0  0  0
  144.1423  134.0440  150.5708 C   0  0  0  0  0  0  0  0  0  0  0  0
  144.0946  132.9732  151.6728 C   0  0  0  0  0  0  0  0  0  0  0  0
  144.2699  133.5203  153.0192 N   0  0  0  0  0  0  0  0  0  0  0  0
  144.8340  134.7006  153.3317 C   0  0  0  0  0  0  0  0  0  0  0  0
  145.0183  135.0315  154.5019 O   0  0  0  0  0  0  0  0  0  0  0  0
  152.0849  137.3093  154.4061 H   0  0  0  0  0  0  0  0  0  0  0  0
  151.6742  138.5483  155.5867 H   0  0  0  0  0  0  0  0  0  0  0  0
  152.2158  139.0060  153.9553 H   0  0  0  0  0  0  0  0  0  0  0  0
  149.8258  142.5060  155.1187 H   0  0  0  0  0  0  0  0  0  0  0  0
  147.4343  142.6112  154.3761 H   0  0  0  0  0  0  0  0  0  0  0  0
  146.3713  140.5810  153.4651 H   0  0  0  0  0  0  0  0  0  0  0  0
  148.4057  137.4277  152.9632 H   0  0  0  0  0  0  0  0  0  0  0  0
  147.2875  135.9614  152.3671 H   0  0  0  0  0  0  0  0  0  0  0  0
  144.3624  136.3578  152.1445 H   0  0  0  0  0  0  0  0  0  0  0  0
  145.3396  135.7557  150.0184 H   0  0  0  0  0  0  0  0  0  0  0  0
  146.2553  134.4448  150.7285 H   0  0  0  0  0  0  0  0  0  0  0  0
  143.2104  134.6113  150.5694 H   0  0  0  0  0  0  0  0  0  0  0  0
  144.2202  133.5727  149.5906 H   0  0  0  0  0  0  0  0  0  0  0  0
  143.1514  132.4283  151.6276 H   0  0  0  0  0  0  0  0  0  0  0  0
  144.8866  132.2420  151.5066 H   0  0  0  0  0  0  0  0  0  0  0  0
  143.9970  132.9216  153.7853 H   0  0  0  0  0  0  0  0  0  0  0  0
  1  2  1  0  0  0  0
  1 20  1  0  0  0  0
  1 21  1  0  0  0  0
  1 22  1  0  0  0  0
  2  3  1  0  0  0  0
  3  8  1  0  0  0  0
  3  4  2  0  0  0  0
  4  5  1  0  0  0  0
  5  6  2  0  0  0  0
  5 23  1  0  0  0  0
  6  7  1  0  0  0  0
  6 24  1  0  0  0  0
  7  8  2  0  0  0  0
  7 25  1  0  0  0  0
  8  9  1  0  0  0  0
  9 10  1  0  0  0  0
  9 26  1  0  0  0  0
 10 11  2  0  0  0  0
 10 12  1  0  0  0  0
 12 13  1  0  0  0  0
 12 27  1  0  0  0  0
 13 18  1  0  0  0  0
 13 14  1  0  0  0  0
 13 28  1  0  0  0  0
 14 15  1  0  0  0  0
 14 29  1  0  0  0  0
 14 30  1  0  0  0  0
 15 16  1  0  0  0  0
 15 31  1  0  0  0  0
 15 32  1  0  0  0  0
 16 17  1  0  0  0  0
 16 33  1  0  0  0  0
 16 34  1  0  0  0  0
 17 18  1  0  0  0  0
 17 35  1  0  0  0  0
 18 19  2  0  0  0  0
M  END
> <s_m_source_file>
AV-unprocessed.smi

> <i_m_source_file_index>
1838

> <i_lp_mmshare_version>
43012

> <i_f3d_flags>
0

> <s_epik_input>
W0NIM11PYzFuW2NIXVtjSF1bY0hdYzFbTkhdQyg9TylbTkhdW0NAQEhdMltDSDJdW0NIMl1bQ0gyXVtOSF1DMj1P

> <s_epik_cmdline>
J2VwaWtfcHl0aG9uJywgJy1waCcsICc3LjAnLCAnLXRuJywgJzgnLCAnLW1hJywgJzIwMCcsICctbWV0YWxfYmluZGluZycsICctaW1hZScsICc8aW5maWxlLm1hZT4nLCAnLW9tYWUnLCAnPG91dGZpbGUubWFlPic=

> <r_lp_tautomer_probability>
1

> <r_epik_Ionization_Penalty>
8.30645e-05

> <r_epik_Ionization_Penalty_Charging>
0

> <r_epik_Ionization_Penalty_Neutral>
8.30645e-05

> <r_epik_State_Penalty>
-0

> <r_epik_Charging_Adjusted_Penalty>
0

> <i_epik_Tot_Q>
0

> <i_epik_Tot_abs_Q>
0

> <r_epik_Metal_State_Penalty>
-0

> <b_epik_Metal_Only>
0

> <s_lp_Force_Field>
OPLS_2005

> <r_lp_Energy>
12.0006

> <b_lp_Chiralities_Consistent>
1

> <s_lp_Variant>
AV-unprocessed.smi:1838-2

> <Gold.Version>
5.8.1

> <Gold.Id.Protein>
6NUR|6NUR_protein|mol2

> <Gold.PLP.Fitness>
41.7028

> <Gold.PLP.PLP>
-28.1812

> <Gold.PLP.part.hbond>
-4.0000

> <Gold.PLP.part.metal>
0.0000

> <Gold.PLP.part.buried>
-1.2582

> <Gold.PLP.part.nonpolar>
-25.0868

> <Gold.PLP.part.repulsive>
2.6580

> <Gold.PLP.ligand.clash>
0.0000

> <Gold.PLP.ligand.torsion>
0.2814

> <Gold.PLP.Chemscore.Hbond>
3.6880

> <Gold.PLP.Chemscore.CHOScore>
0.9925

> <Gold.PLP.Chemscore.Metal>
0.0000

> <Gold.Chemscore.Hbonds>
donor molecule, donor type, donor heavy atom, donor atom, acceptor molecule, acceptor atom, score
      L1  H     9    26       P1  7948  0.94
      L1  H    12    27       P1  7948  0.86
      L1  H    17    35       P1 10957  1.00
      P1  H  7989  7998       L1     4  0.91
      L1  C     5    23       P1  8028  0.99

> <Gold.PLP.Chemscore.Internal.Correction>
0.0428

> <Gold.Rescore>
     Score         DG    S(hbond)    S(metal)    S(lipo)     H(rot)  DE(clash)    DE(int)     intcor
     16.70     -19.52       3.16        0.00      59.02       1.33       1.50       1.33       ----

> <Gold.Chemscore.Fitness>
16.6950

> <Gold.Chemscore.DG>
-19.5222

> <Gold.Chemscore.ZeroCoef>
-5.4800

> <Gold.Chemscore.Hbond>
3.1555

> <Gold.Chemscore.Metal>
0.0000

> <Gold.Chemscore.Lipo>
59.0211

> <Gold.Chemscore.Internal_Hbond>
0.0000

> <Gold.Chemscore.DEClash>
1.4951

> <Gold.Chemscore.DEInternal>
1.3320

> <Gold.Chemscore.Rot>
1.3292

> <Gold.Chemscore.Internal.Correction>
   9.000000E+99

> <Gold.Chemscore.Hbonds>
donor molecule, donor type, donor heavy atom, donor atom, acceptor molecule, acceptor atom, score
      L1  H     9    26       P1  7948  0.91
      L1  H    12    27       P1  7948  0.85
      L1  H    17    35       P1 10957  0.83
      P1  H  7989  7998       L1     4  0.31

> <Gold.Chemscore.Hbond.Weighted>
-10.5394

> <Gold.Chemscore.Metal.Weighted>
-0.0000

> <Gold.Chemscore.Lipo.Weighted>
-6.9055

> <Gold.Chemscore.Internal_Hbond.Weighted>
0.0000

> <Gold.Chemscore.DEClash.Weighted>
1.4951

> <Gold.Chemscore.DEInternal.Weighted>
1.3320

> <Gold.Chemscore.Rot.Weighted>
3.4027

> <Gold.Chemscore.Internal.Correction.Weighted>
   9.000000E+99

> <Gold.Protein.RotatedTorsions>
[ 6907 6896 6895 6894 ] final -160.33 input  -60.11 | X-H torsion
[ 7974 7965 7964 7962 ] final   91.09 input  175.53 | X-H torsion
[ 8008 7997 7996 7995 ] final   79.49 input   59.86 | X-H torsion
[ 10167 10162 10161 10158 ] final  143.14 input  -65.29 | X-H torsion
[ 10718 10713 10712 10709 ] final -134.12 input   66.30 | X-H torsion
[ 10763 10752 10751 10750 ] final   53.83 input  -60.55 | X-H torsion
[ 11005 11000 10999 10996 ] final   15.35 input  -57.11 | X-H torsion

> <Gold.Protein.ActiveResidues>
 VAL166  LYS551  ARG553  GLY616  TRP617  ASP618  TYR619  PRO620  LYS621  CYS622 
 ASP623  PHE694  ASN695  SER759  ASP760  ASP761  ALA762  ILE779  LEU786  VAL792 
 PHE793  MET794  SER795  GLU796  ALA797  LYS798  CYS799  TRP800  GLU811  SER814 

> <Gold.Protein.RotatedAtoms>
  151.3474  133.3939  159.2676 H   0  0  0  0  0  0  0  0  0  0  0  0  # atno 6907 bound_to 6896
  150.9829  134.9181  159.7865 H   0  0  0  0  0  0  0  0  0  0  0  0  # atno 6908 bound_to 6896
  152.5223  134.3438  159.9279 H   0  0  0  0  0  0  0  0  0  0  0  0  # atno 6909 bound_to 6896
  145.5103  139.2277  143.2728 H   0  0  0  0  0  0  0  0  0  0  0  0  # atno 7974 bound_to 7965
  155.8704  140.3449  155.5817 H   0  0  0  0  0  0  0  0  0  0  0  0  # atno 8008 bound_to 7997
  155.7834  140.0861  157.2066 H   0  0  0  0  0  0  0  0  0  0  0  0  # atno 8009 bound_to 7997
  154.4017  140.1496  156.3066 H   0  0  0  0  0  0  0  0  0  0  0  0  # atno 8010 bound_to 7997
  139.4977  144.6060  151.6376 H   0  0  0  0  0  0  0  0  0  0  0  0  # atno 10167 bound_to 10162
  156.2520  130.7159  151.1062 H   0  0  0  0  0  0  0  0  0  0  0  0  # atno 10718 bound_to 10713
  152.9799  135.5765  154.4805 H   0  0  0  0  0  0  0  0  0  0  0  0  # atno 10763 bound_to 10752
  154.4355  135.2774  155.1885 H   0  0  0  0  0  0  0  0  0  0  0  0  # atno 10764 bound_to 10752
  154.3576  135.6195  153.5728 H   0  0  0  0  0  0  0  0  0  0  0  0  # atno 10765 bound_to 10752
  140.4593  134.1144  155.7714 H   0  0  0  0  0  0  0  0  0  0  0  0  # atno 11005 bound_to 11000
  146.2171  140.5910  142.9034 LP  0  0  0  0  0  0  0  0  0  0  0  0  # atno 17320 bound_to 7965
  144.7731  140.5681  143.6656 LP  0  0  0  0  0  0  0  0  0  0  0  0  # atno 17321 bound_to 7965
  140.5722  144.0088  150.6223 LP  0  0  0  0  0  0  0  0  0  0  0  0  # atno 17342 bound_to 10162
  140.3210  143.3137  152.0784 LP  0  0  0  0  0  0  0  0  0  0  0  0  # atno 17343 bound_to 10162
  157.7218  131.0676  150.6103 LP  0  0  0  0  0  0  0  0  0  0  0  0  # atno 17370 bound_to 10713
  156.6183  130.4399  149.5832 LP  0  0  0  0  0  0  0  0  0  0  0  0  # atno 17371 bound_to 10713
  141.1629  133.8759  157.1798 LP  0  0  0  0  0  0  0  0  0  0  0  0  # atno 17394 bound_to 11000
  139.9956  135.0048  157.0074 LP  0  0  0  0  0  0  0  0  0  0  0  0  # atno 17395 bound_to 11000

$$$$
