AV-unprocessed.smi:3325|AV-procd|sdf|12784|dock2
  -GOLD-   2272019133D 1   1.00000     0.00000
 Structure written by MMmdl.
 44 45  0  0  0  0  0  0  0  0  2 V2000
  151.1597  139.4346  156.0027 C   0  0  0  0  0  0  0  0  0  0  0  0
  150.3827  140.7040  155.6233 C   0  0  0  0  0  0  0  0  0  0  0  0
  149.6412  141.3309  156.8131 C   0  0  0  0  0  0  0  0  0  0  0  0
  149.4653  140.4693  154.4623 C   0  0  0  0  0  0  0  0  0  0  0  0
  149.4994  141.2496  153.3882 N   0  0  0  0  0  0  0  0  0  0  0  0
  148.4946  140.7192  152.5670 O   0  0  0  0  0  0  0  0  0  0  0  0
  147.9835  139.6642  153.2444 C   0  0  0  0  0  0  0  0  0  0  0  0
  146.8345  138.9150  152.6543 C   0  0  0  0  0  0  0  0  0  0  0  0
  147.1336  138.3660  151.2512 C   0  0  0  0  0  0  0  0  0  0  0  0
  146.8419  136.9207  151.1577 N   0  3  0  0  0  0  0  0  0  0  0  0
  145.4211  136.5766  151.3636 C   0  0  0  0  0  0  0  0  0  0  0  0
  145.1198  135.1298  150.9314 C   0  0  0  0  0  0  0  0  0  0  0  0
  143.6385  134.7535  151.1567 C   0  0  0  0  0  0  0  0  0  0  0  0
  143.3501  133.3025  150.7387 C   0  0  0  0  0  0  0  0  0  0  0  0
  144.2735  132.3173  151.4705 C   0  0  0  0  0  0  0  0  0  0  0  0
  145.7499  132.6801  151.2541 C   0  0  0  0  0  0  0  0  0  0  0  0
  146.0335  134.1322  151.6727 C   0  0  0  0  0  0  0  0  0  0  0  0
  148.5318  139.4761  154.4417 N   0  0  0  0  0  0  0  0  0  0  0  0
  151.7313  139.0558  155.1548 H   0  0  0  0  0  0  0  0  0  0  0  0
  150.4888  138.6414  156.3339 H   0  0  0  0  0  0  0  0  0  0  0  0
  151.8626  139.6329  156.8120 H   0  0  0  0  0  0  0  0  0  0  0  0
  151.1279  141.4352  155.3051 H   0  0  0  0  0  0  0  0  0  0  0  0
  149.1657  142.2698  156.5277 H   0  0  0  0  0  0  0  0  0  0  0  0
  150.3263  141.5448  157.6338 H   0  0  0  0  0  0  0  0  0  0  0  0
  148.8652  140.6660  157.1936 H   0  0  0  0  0  0  0  0  0  0  0  0
  146.5792  138.0930  153.3240 H   0  0  0  0  0  0  0  0  0  0  0  0
  145.9637  139.5712  152.6254 H   0  0  0  0  0  0  0  0  0  0  0  0
  146.5454  138.9055  150.5074 H   0  0  0  0  0  0  0  0  0  0  0  0
  148.1843  138.5305  151.0102 H   0  0  0  0  0  0  0  0  0  0  0  0
  147.1207  136.5946  150.2430 H   0  0  0  0  0  0  0  0  0  0  0  0
  145.1891  136.7021  152.4223 H   0  0  0  0  0  0  0  0  0  0  0  0
  144.7893  137.2759  150.8141 H   0  0  0  0  0  0  0  0  0  0  0  0
  145.3364  135.0439  149.8650 H   0  0  0  0  0  0  0  0  0  0  0  0
  143.3801  134.8846  152.2087 H   0  0  0  0  0  0  0  0  0  0  0  0
  142.9862  135.4225  150.5947 H   0  0  0  0  0  0  0  0  0  0  0  0
  142.3080  133.0566  150.9452 H   0  0  0  0  0  0  0  0  0  0  0  0
  143.4841  133.1983  149.6612 H   0  0  0  0  0  0  0  0  0  0  0  0
  144.0473  132.3269  152.5377 H   0  0  0  0  0  0  0  0  0  0  0  0
  144.0848  131.3012  151.1230 H   0  0  0  0  0  0  0  0  0  0  0  0
  146.3862  131.9985  151.8197 H   0  0  0  0  0  0  0  0  0  0  0  0
  146.0097  132.5443  150.2036 H   0  0  0  0  0  0  0  0  0  0  0  0
  147.0802  134.3664  151.4764 H   0  0  0  0  0  0  0  0  0  0  0  0
  145.8928  134.2328  152.7498 H   0  0  0  0  0  0  0  0  0  0  0  0
  147.3921  136.4357  151.8527 H   0  0  0  0  0  0  0  0  0  0  0  0
  1  2  1  0  0  0  0
  1 19  1  0  0  0  0
  1 20  1  0  0  0  0
  1 21  1  0  0  0  0
  2  3  1  0  0  0  0
  2  4  1  0  0  0  0
  2 22  1  0  0  0  0
  3 23  1  0  0  0  0
  3 24  1  0  0  0  0
  3 25  1  0  0  0  0
  4 18  1  0  0  0  0
  4  5  2  0  0  0  0
  5  6  1  0  0  0  0
  6  7  1  0  0  0  0
  7  8  1  0  0  0  0
  7 18  2  0  0  0  0
  8  9  1  0  0  0  0
  8 26  1  0  0  0  0
  8 27  1  0  0  0  0
  9 10  1  0  0  0  0
  9 28  1  0  0  0  0
  9 29  1  0  0  0  0
 10 11  1  0  0  0  0
 10 30  1  0  0  0  0
 10 44  1  0  0  0  0
 11 12  1  0  0  0  0
 11 31  1  0  0  0  0
 11 32  1  0  0  0  0
 12 17  1  0  0  0  0
 12 13  1  0  0  0  0
 12 33  1  0  0  0  0
 13 14  1  0  0  0  0
 13 34  1  0  0  0  0
 13 35  1  0  0  0  0
 14 15  1  0  0  0  0
 14 36  1  0  0  0  0
 14 37  1  0  0  0  0
 15 16  1  0  0  0  0
 15 38  1  0  0  0  0
 15 39  1  0  0  0  0
 16 17  1  0  0  0  0
 16 40  1  0  0  0  0
 16 41  1  0  0  0  0
 17 42  1  0  0  0  0
 17 43  1  0  0  0  0
M  CHG  1  10   1
M  END
> <s_m_source_file>
AV-unprocessed.smi

> <i_m_source_file_index>
3325

> <i_lp_mmshare_version>
43012

> <i_f3d_flags>
0

> <s_epik_input>
W0NIM11bQ0hdKFtDSDNdKWMxbm9jKG4xKVtDSDJdW0NIMl1bTkhdW0NIMl1bQ0hdMltDSDJdW0NIMl1bQ0gyXVtDSDJdW0NIMl0y

> <s_epik_cmdline>
J2VwaWtfcHl0aG9uJywgJy1waCcsICc3LjAnLCAnLXRuJywgJzgnLCAnLW1hJywgJzIwMCcsICctbWV0YWxfYmluZGluZycsICctaW1hZScsICc8aW5maWxlLm1hZT4nLCAnLW9tYWUnLCAnPG91dGZpbGUubWFlPic=

> <r_lp_tautomer_probability>
1

> <r_epik_Ionization_Penalty>
0.00142412

> <r_epik_Ionization_Penalty_Charging>
0.00142412

> <r_epik_Ionization_Penalty_Neutral>
2.66011e-13

> <r_epik_State_Penalty>
0.000950746

> <r_epik_Charging_Adjusted_Penalty>
0.00237487

> <i_epik_Tot_Q>
1

> <i_epik_Tot_abs_Q>
1

> <r_epik_Metal_State_Penalty>
-0

> <b_epik_Metal_Only>
0

> <s_lp_Force_Field>
OPLS_2005

> <r_lp_Energy>
7.21373

> <b_lp_Chiralities_Consistent>
1

> <s_lp_Variant>
AV-unprocessed.smi:3325-1

> <Gold.Version>
5.8.1

> <Gold.Id.Protein>
6NUR|6NUR_protein|mol2

> <Gold.PLP.Fitness>
43.7143

> <Gold.PLP.PLP>
-36.7066

> <Gold.PLP.part.hbond>
-2.3161

> <Gold.PLP.part.metal>
0.0000

> <Gold.PLP.part.buried>
-3.8412

> <Gold.PLP.part.nonpolar>
-32.4123

> <Gold.PLP.part.repulsive>
2.0929

> <Gold.PLP.ligand.clash>
0.0000

> <Gold.PLP.ligand.torsion>
0.6587

> <Gold.PLP.Chemscore.Hbond>
2.7200

> <Gold.PLP.Chemscore.CHOScore>
0.0000

> <Gold.PLP.Chemscore.Metal>
0.0000

> <Gold.Chemscore.Hbonds>
donor molecule, donor type, donor heavy atom, donor atom, acceptor molecule, acceptor atom, score
      L1  H    10    44       P1  7948  1.02
      P1  H  7989  7998       L1     5  0.02
      P1  H  8011  8017       L1     5  0.55

> <Gold.PLP.Chemscore.Internal.Correction>
0.1650

> <Gold.Rescore>
     Score         DG    S(hbond)    S(metal)    S(lipo)     H(rot)  DE(clash)    DE(int)     intcor
     12.69     -14.15       1.08        0.00      83.98       1.86       0.34       1.12       ----

> <Gold.Chemscore.Fitness>
12.6937

> <Gold.Chemscore.DG>
-14.1542

> <Gold.Chemscore.ZeroCoef>
-5.4800

> <Gold.Chemscore.Hbond>
1.0807

> <Gold.Chemscore.Metal>
0.0000

> <Gold.Chemscore.Lipo>
83.9788

> <Gold.Chemscore.Internal_Hbond>
0.0000

> <Gold.Chemscore.DEClash>
0.3377

> <Gold.Chemscore.DEInternal>
1.1228

> <Gold.Chemscore.Rot>
1.8597

> <Gold.Chemscore.Internal.Correction>
   9.000000E+99

> <Gold.Chemscore.Hbonds>
donor molecule, donor type, donor heavy atom, donor atom, acceptor molecule, acceptor atom, score
      L1  H    10    44       P1  7948  0.50
      P1  H  8011  8017       L1     5  0.03

> <Gold.Chemscore.Hbond.Weighted>
-3.6096

> <Gold.Chemscore.Metal.Weighted>
-0.0000

> <Gold.Chemscore.Lipo.Weighted>
-9.8255

> <Gold.Chemscore.Internal_Hbond.Weighted>
0.0000

> <Gold.Chemscore.DEClash.Weighted>
0.3377

> <Gold.Chemscore.DEInternal.Weighted>
1.1228

> <Gold.Chemscore.Rot.Weighted>
4.7610

> <Gold.Chemscore.Internal.Correction.Weighted>
   9.000000E+99

> <Gold.Protein.RotatedTorsions>
[ 6907 6896 6895 6894 ] final   62.51 input  -60.11 | X-H torsion
[ 7974 7965 7964 7962 ] final  111.55 input  175.53 | X-H torsion
[ 8008 7997 7996 7995 ] final -109.48 input   59.86 | X-H torsion
[ 10167 10162 10161 10158 ] final -179.48 input  -65.29 | X-H torsion
[ 10718 10713 10712 10709 ] final  -54.32 input   66.30 | X-H torsion
[ 10763 10752 10751 10750 ] final  110.16 input  -60.55 | X-H torsion
[ 11005 11000 10999 10996 ] final  119.85 input  -57.11 | X-H torsion

> <Gold.Protein.ActiveResidues>
 VAL166  LYS551  ARG553  GLY616  TRP617  ASP618  TYR619  PRO620  LYS621  CYS622 
 ASP623  PHE694  ASN695  SER759  ASP760  ASP761  ALA762  ILE779  LEU786  VAL792 
 PHE793  MET794  SER795  GLU796  ALA797  LYS798  CYS799  TRP800  GLU811  SER814 

> <Gold.Protein.RotatedAtoms>
  152.4178  134.6010  159.9999 H   0  0  0  0  0  0  0  0  0  0  0  0  # atno 6907 bound_to 6896
  151.6168  133.3337  159.3087 H   0  0  0  0  0  0  0  0  0  0  0  0  # atno 6908 bound_to 6896
  150.8066  134.7234  159.6716 H   0  0  0  0  0  0  0  0  0  0  0  0  # atno 6909 bound_to 6896
  145.2408  139.2780  143.4119 H   0  0  0  0  0  0  0  0  0  0  0  0  # atno 7974 bound_to 7965
  154.9600  140.0399  157.2185 H   0  0  0  0  0  0  0  0  0  0  0  0  # atno 8008 bound_to 7997
  154.7898  140.2833  155.5978 H   0  0  0  0  0  0  0  0  0  0  0  0  # atno 8009 bound_to 7997
  156.2948  140.2575  156.2742 H   0  0  0  0  0  0  0  0  0  0  0  0  # atno 8010 bound_to 7997
  139.5384  144.2431  152.0844 H   0  0  0  0  0  0  0  0  0  0  0  0  # atno 10167 bound_to 10162
  156.1461  130.4153  150.0022 H   0  0  0  0  0  0  0  0  0  0  0  0  # atno 10718 bound_to 10713
  153.4450  135.3757  155.2250 H   0  0  0  0  0  0  0  0  0  0  0  0  # atno 10763 bound_to 10752
  154.8755  135.3872  154.4107 H   0  0  0  0  0  0  0  0  0  0  0  0  # atno 10764 bound_to 10752
  153.4658  135.7087  153.6086 H   0  0  0  0  0  0  0  0  0  0  0  0  # atno 10765 bound_to 10752
  139.9162  134.9631  156.7717 H   0  0  0  0  0  0  0  0  0  0  0  0  # atno 11005 bound_to 11000
  146.3329  140.2770  142.8608 LP  0  0  0  0  0  0  0  0  0  0  0  0  # atno 17320 bound_to 7965
  144.9591  140.8257  143.5524 LP  0  0  0  0  0  0  0  0  0  0  0  0  # atno 17321 bound_to 7965
  140.1906  144.4756  150.6481 LP  0  0  0  0  0  0  0  0  0  0  0  0  # atno 17342 bound_to 10162
  140.6602  143.2250  151.5873 LP  0  0  0  0  0  0  0  0  0  0  0  0  # atno 17343 bound_to 10162
  156.7893  130.9250  151.3646 LP  0  0  0  0  0  0  0  0  0  0  0  0  # atno 17370 bound_to 10713
  157.6617  130.8972  149.9845 LP  0  0  0  0  0  0  0  0  0  0  0  0  # atno 17371 bound_to 10713
  140.6615  133.9641  155.7807 LP  0  0  0  0  0  0  0  0  0  0  0  0  # atno 17394 bound_to 11000
  141.0640  134.0304  157.3619 LP  0  0  0  0  0  0  0  0  0  0  0  0  # atno 17395 bound_to 11000

$$$$
