AV-unprocessed.smi:313|AV-procd|sdf|2311|dock9
  -GOLD-   2262022213D 1   1.00000     0.00000
 Structure written by MMmdl.
 50 51  0  0  0  0  0  0  0  0  1 V2000
  151.6248  144.3014  160.7390 C   0  0  0  0  0  0  0  0  0  0  0  0
  150.6530  143.7770  159.6714 C   0  0  0  0  0  0  0  0  0  0  0  0
  151.3416  143.3750  158.3537 C   0  0  2  0  0  0  0  0  0  0  0  0
  152.0663  144.5627  157.7029 C   0  0  0  0  0  0  0  0  0  0  0  0
  150.3595  142.8224  157.4246 N   0  0  0  0  0  0  0  0  0  0  0  0
  150.2568  141.5326  157.0706 C   0  0  0  0  0  0  0  0  0  0  0  0
  151.0263  140.6561  157.4679 O   0  0  0  0  0  0  0  0  0  0  0  0
  149.1025  141.1843  156.1181 C   0  0  1  0  0  0  0  0  0  0  0  0
  149.3051  141.9527  154.8015 C   0  0  0  0  0  0  0  0  0  0  0  0
  149.1192  139.7545  155.8177 N   0  0  0  0  0  0  0  0  0  0  0  0
  150.0810  139.1214  155.1246 C   0  0  0  0  0  0  0  0  0  0  0  0
  151.0979  139.6773  154.7085 O   0  0  0  0  0  0  0  0  0  0  0  0
  149.8733  137.6485  154.9270 C   0  0  0  0  0  0  0  0  0  0  0  0
  148.5890  137.1023  154.7144 C   0  0  0  0  0  0  0  0  0  0  0  0
  148.4593  135.7154  154.5097 C   0  0  0  0  0  0  0  0  0  0  0  0
  149.6190  134.9046  154.5118 C   0  0  0  0  0  0  0  0  0  0  0  0
  149.5126  133.5113  154.3092 N   0  0  0  0  0  0  0  0  0  0  0  0
  148.9424  133.0971  153.0296 C   0  0  0  0  0  0  0  0  0  0  0  0
  148.5906  131.6000  153.0604 C   0  0  0  0  0  0  0  0  0  0  0  0
  149.7399  130.8423  153.4225 O   0  0  0  0  0  0  0  0  0  0  0  0
  150.2132  131.1854  154.7204 C   0  0  0  0  0  0  0  0  0  0  0  0
  150.6226  132.6676  154.7479 C   0  0  0  0  0  0  0  0  0  0  0  0
  150.8516  135.4328  154.7109 N   0  0  0  0  0  0  0  0  0  0  0  0
  150.9717  136.7634  154.9040 C   0  0  0  0  0  0  0  0  0  0  0  0
  151.0845  144.6176  161.6312 H   0  0  0  0  0  0  0  0  0  0  0  0
  152.1873  145.1595  160.3706 H   0  0  0  0  0  0  0  0  0  0  0  0
  152.3413  143.5374  161.0422 H   0  0  0  0  0  0  0  0  0  0  0  0
  150.0998  142.9276  160.0744 H   0  0  0  0  0  0  0  0  0  0  0  0
  149.9121  144.5507  159.4665 H   0  0  0  0  0  0  0  0  0  0  0  0
  152.0866  142.6131  158.5906 H   0  0  0  0  0  0  0  0  0  0  0  0
  152.8144  144.9817  158.3763 H   0  0  0  0  0  0  0  0  0  0  0  0
  151.3690  145.3600  157.4433 H   0  0  0  0  0  0  0  0  0  0  0  0
  152.5804  144.2590  156.7904 H   0  0  0  0  0  0  0  0  0  0  0  0
  149.6822  143.4687  157.0461 H   0  0  0  0  0  0  0  0  0  0  0  0
  148.1434  141.4635  156.5592 H   0  0  0  0  0  0  0  0  0  0  0  0
  149.3129  143.0304  154.9700 H   0  0  0  0  0  0  0  0  0  0  0  0
  148.4970  141.7403  154.1010 H   0  0  0  0  0  0  0  0  0  0  0  0
  150.2429  141.6852  154.3118 H   0  0  0  0  0  0  0  0  0  0  0  0
  148.3287  139.2135  156.1364 H   0  0  0  0  0  0  0  0  0  0  0  0
  147.7084  137.7280  154.7056 H   0  0  0  0  0  0  0  0  0  0  0  0
  147.4764  135.2924  154.3660 H   0  0  0  0  0  0  0  0  0  0  0  0
  148.0478  133.6656  152.7803 H   0  0  0  0  0  0  0  0  0  0  0  0
  149.6710  133.2921  152.2415 H   0  0  0  0  0  0  0  0  0  0  0  0
  147.7775  131.4064  153.7618 H   0  0  0  0  0  0  0  0  0  0  0  0
  148.2473  131.2754  152.0780 H   0  0  0  0  0  0  0  0  0  0  0  0
  149.4434  130.9808  155.4662 H   0  0  0  0  0  0  0  0  0  0  0  0
  151.0684  130.5556  154.9649 H   0  0  0  0  0  0  0  0  0  0  0  0
  151.4796  132.8302  154.0931 H   0  0  0  0  0  0  0  0  0  0  0  0
  150.9276  132.9385  155.7594 H   0  0  0  0  0  0  0  0  0  0  0  0
  151.9792  137.1251  155.0500 H   0  0  0  0  0  0  0  0  0  0  0  0
  1  2  1  0  0  0  0
  1 25  1  0  0  0  0
  1 26  1  0  0  0  0
  1 27  1  0  0  0  0
  2  3  1  0  0  0  0
  2 28  1  0  0  0  0
  2 29  1  0  0  0  0
  3  4  1  0  0  0  0
  3  5  1  0  0  0  0
  3 30  1  0  0  0  0
  4 31  1  0  0  0  0
  4 32  1  0  0  0  0
  4 33  1  0  0  0  0
  5  6  1  0  0  0  0
  5 34  1  0  0  0  0
  6  7  2  0  0  0  0
  6  8  1  0  0  0  0
  8  9  1  0  0  0  0
  8 10  1  0  0  0  0
  8 35  1  0  0  0  0
  9 36  1  0  0  0  0
  9 37  1  0  0  0  0
  9 38  1  0  0  0  0
 10 11  1  0  0  0  0
 10 39  1  0  0  0  0
 11 12  2  0  0  0  0
 11 13  1  0  0  0  0
 13 24  1  0  0  0  0
 13 14  2  0  0  0  0
 14 15  1  0  0  0  0
 14 40  1  0  0  0  0
 15 16  2  0  0  0  0
 15 41  1  0  0  0  0
 16 17  1  0  0  0  0
 16 23  1  0  0  0  0
 17 22  1  0  0  0  0
 17 18  1  0  0  0  0
 18 19  1  0  0  0  0
 18 42  1  0  0  0  0
 18 43  1  0  0  0  0
 19 20  1  0  0  0  0
 19 44  1  0  0  0  0
 19 45  1  0  0  0  0
 20 21  1  0  0  0  0
 21 22  1  0  0  0  0
 21 46  1  0  0  0  0
 21 47  1  0  0  0  0
 22 48  1  0  0  0  0
 22 49  1  0  0  0  0
 23 24  2  0  0  0  0
 24 50  1  0  0  0  0
M  END
> <s_m_source_file>
AV-unprocessed.smi

> <i_m_source_file_index>
313

> <i_lp_mmshare_version>
43012

> <i_f3d_flags>
0

> <s_epik_input>
W0NIM11bQ0gyXVtDQEhdKFtDSDNdKVtOSF1DKD1PKVtDQEhdKFtDSDNdKVtOSF1DKD1PKWMxW2NIXVtjSF1jKG5bY0hdMSlOMltDSDJdW0NIMl1PW0NIMl1bQ0gyXTI=

> <s_epik_cmdline>
J2VwaWtfcHl0aG9uJywgJy1waCcsICc3LjAnLCAnLXRuJywgJzgnLCAnLW1hJywgJzIwMCcsICctbWV0YWxfYmluZGluZycsICctaW1hZScsICc8aW5maWxlLm1hZT4nLCAnLW9tYWUnLCAnPG91dGZpbGUubWFlPic=

> <r_lp_tautomer_probability>
1

> <r_epik_Ionization_Penalty>
9.96442e-06

> <r_epik_Ionization_Penalty_Charging>
0

> <r_epik_Ionization_Penalty_Neutral>
9.96442e-06

> <r_epik_State_Penalty>
-0

> <r_epik_Charging_Adjusted_Penalty>
0

> <i_epik_Tot_Q>
0

> <i_epik_Tot_abs_Q>
0

> <r_epik_Metal_State_Penalty>
-0

> <b_epik_Metal_Only>
0

> <s_lp_Force_Field>
OPLS_2005

> <r_lp_Energy>
19.146

> <b_lp_Chiralities_Consistent>
1

> <s_lp_Variant>
AV-unprocessed.smi:313-3

> <Gold.Version>
5.8.1

> <Gold.Id.Protein>
6NUR|6NUR_protein|mol2

> <Gold.PLP.Fitness>
42.6771

> <Gold.PLP.PLP>
-38.0401

> <Gold.PLP.part.hbond>
-3.0000

> <Gold.PLP.part.metal>
0.0000

> <Gold.PLP.part.buried>
-4.3711

> <Gold.PLP.part.nonpolar>
-30.5592

> <Gold.PLP.part.repulsive>
0.3826

> <Gold.PLP.ligand.clash>
0.0000

> <Gold.PLP.ligand.torsion>
0.8961

> <Gold.PLP.Chemscore.Hbond>
2.0125

> <Gold.PLP.Chemscore.CHOScore>
0.0000

> <Gold.PLP.Chemscore.Metal>
0.0000

> <Gold.Chemscore.Hbonds>
donor molecule, donor type, donor heavy atom, donor atom, acceptor molecule, acceptor atom, score
      L1  H     5    34       P1  8028  1.00
      P1  H  7989  7998       L1    12  1.00
      P1  H 10752 10765       L1    23  0.04

> <Gold.PLP.Chemscore.Internal.Correction>
0.3917

> <Gold.Rescore>
     Score         DG    S(hbond)    S(metal)    S(lipo)     H(rot)  DE(clash)    DE(int)     intcor
     13.66     -19.11       1.99        0.00      98.68       1.79       1.11       4.33       ----

> <Gold.Chemscore.Fitness>
13.6611

> <Gold.Chemscore.DG>
-19.1089

> <Gold.Chemscore.ZeroCoef>
-5.4800

> <Gold.Chemscore.Hbond>
1.9946

> <Gold.Chemscore.Metal>
0.0000

> <Gold.Chemscore.Lipo>
98.6841

> <Gold.Chemscore.Internal_Hbond>
0.0000

> <Gold.Chemscore.DEClash>
1.1131

> <Gold.Chemscore.DEInternal>
4.3347

> <Gold.Chemscore.Rot>
1.7888

> <Gold.Chemscore.Internal.Correction>
   9.000000E+99

> <Gold.Chemscore.Hbonds>
donor molecule, donor type, donor heavy atom, donor atom, acceptor molecule, acceptor atom, score
      L1  H     5    34       P1  8028  0.90
      P1  H  7989  7998       L1    12  1.00

> <Gold.Chemscore.Hbond.Weighted>
-6.6621

> <Gold.Chemscore.Metal.Weighted>
-0.0000

> <Gold.Chemscore.Lipo.Weighted>
-11.5460

> <Gold.Chemscore.Internal_Hbond.Weighted>
0.0000

> <Gold.Chemscore.DEClash.Weighted>
1.1131

> <Gold.Chemscore.DEInternal.Weighted>
4.3347

> <Gold.Chemscore.Rot.Weighted>
4.5793

> <Gold.Chemscore.Internal.Correction.Weighted>
   9.000000E+99

> <Gold.Protein.RotatedTorsions>
[ 6907 6896 6895 6894 ] final  -84.26 input  -60.11 | X-H torsion
[ 7974 7965 7964 7962 ] final   -2.85 input  175.53 | X-H torsion
[ 8008 7997 7996 7995 ] final -162.22 input   59.86 | X-H torsion
[ 10167 10162 10161 10158 ] final -147.21 input  -65.29 | X-H torsion
[ 10718 10713 10712 10709 ] final -120.09 input   66.30 | X-H torsion
[ 10763 10752 10751 10750 ] final  152.88 input  -60.55 | X-H torsion
[ 11005 11000 10999 10996 ] final  -22.24 input  -57.11 | X-H torsion

> <Gold.Protein.ActiveResidues>
 VAL166  LYS551  ARG553  GLY616  TRP617  ASP618  TYR619  PRO620  LYS621  CYS622 
 ASP623  PHE694  ASN695  SER759  ASP760  ASP761  ALA762  ILE779  LEU786  VAL792 
 PHE793  MET794  SER795  GLU796  ALA797  LYS798  CYS799  TRP800  GLU811  SER814 

> <Gold.Protein.RotatedAtoms>
  150.6878  134.3385  159.4857 H   0  0  0  0  0  0  0  0  0  0  0  0  # atno 6907 bound_to 6896
  152.1241  134.9181  160.0571 H   0  0  0  0  0  0  0  0  0  0  0  0  # atno 6908 bound_to 6896
  152.0376  133.3929  159.4360 H   0  0  0  0  0  0  0  0  0  0  0  0  # atno 6909 bound_to 6896
  146.2398  140.1633  142.8332 H   0  0  0  0  0  0  0  0  0  0  0  0  # atno 7974 bound_to 7965
  155.8036  140.0895  157.1943 H   0  0  0  0  0  0  0  0  0  0  0  0  # atno 8008 bound_to 7997
  154.3981  140.1467  156.3363 H   0  0  0  0  0  0  0  0  0  0  0  0  # atno 8009 bound_to 7997
  155.8437  140.3437  155.5651 H   0  0  0  0  0  0  0  0  0  0  0  0  # atno 8010 bound_to 7997
  139.7642  143.8331  152.2613 H   0  0  0  0  0  0  0  0  0  0  0  0  # atno 10167 bound_to 10162
  156.1231  130.6338  150.9497 H   0  0  0  0  0  0  0  0  0  0  0  0  # atno 10718 bound_to 10713
  154.1271  135.2829  155.3194 H   0  0  0  0  0  0  0  0  0  0  0  0  # atno 10763 bound_to 10752
  154.6382  135.5412  153.7761 H   0  0  0  0  0  0  0  0  0  0  0  0  # atno 10764 bound_to 10752
  153.0293  135.6479  154.1423 H   0  0  0  0  0  0  0  0  0  0  0  0  # atno 10765 bound_to 10752
  140.8638  133.7769  156.0106 H   0  0  0  0  0  0  0  0  0  0  0  0  # atno 11005 bound_to 11000
  145.0071  140.8682  143.5246 LP  0  0  0  0  0  0  0  0  0  0  0  0  # atno 17320 bound_to 7965
  145.1661  139.2430  143.5366 LP  0  0  0  0  0  0  0  0  0  0  0  0  # atno 17321 bound_to 7965
  139.8347  144.7238  150.9406 LP  0  0  0  0  0  0  0  0  0  0  0  0  # atno 17342 bound_to 10162
  140.7809  143.4038  151.1105 LP  0  0  0  0  0  0  0  0  0  0  0  0  # atno 17343 bound_to 10162
  157.6414  131.0910  150.8244 LP  0  0  0  0  0  0  0  0  0  0  0  0  # atno 17370 bound_to 10713
  156.8337  130.5024  149.5328 LP  0  0  0  0  0  0  0  0  0  0  0  0  # atno 17371 bound_to 10713
  140.8652  134.2793  157.5216 LP  0  0  0  0  0  0  0  0  0  0  0  0  # atno 17394 bound_to 11000
  139.8708  134.9539  156.4158 LP  0  0  0  0  0  0  0  0  0  0  0  0  # atno 17395 bound_to 11000

$$$$
