AV-unprocessed.smi:1401|AV-procd|sdf|5690|dock8
  -GOLD-   22720 5313D 1   1.00000     0.00000
 Structure written by MMmdl.
 48 50  0  0  0  0  0  0  0  0  1 V2000
  146.1528  137.4108  152.2714 C   0  0  0  0  0  0  0  0  0  0  0  0
  146.6634  137.6735  153.6624 C   0  0  0  0  0  0  0  0  0  0  0  0
  147.1078  138.8632  153.9024 N   0  0  0  0  0  0  0  0  0  0  0  0
  147.6061  139.2082  155.1439 N   0  0  0  0  0  0  0  0  0  0  0  0
  148.0870  140.5946  155.2332 C   0  0  0  0  0  0  0  0  0  0  0  0
  149.5791  140.6984  155.5804 C   0  0  0  0  0  0  0  0  0  0  0  0
  150.4295  140.1466  154.8805 O   0  0  0  0  0  0  0  0  0  0  0  0
  149.8797  141.4328  156.6623 N   0  0  0  0  0  0  0  0  0  0  0  0
  151.2269  141.6945  157.1645 C   0  0  2  0  0  0  0  0  0  0  0  0
  151.8785  140.3635  157.5826 C   0  0  0  0  0  0  0  0  0  0  0  0
  151.1650  142.7086  158.3328 C   0  0  1  0  0  0  0  0  0  0  0  0
  152.5259  142.9257  159.0387 C   0  0  0  0  0  0  0  0  0  0  0  0
  152.7118  144.4526  158.9927 C   0  0  2  0  0  0  0  0  0  0  0  0
  151.6928  145.1256  159.9300 C   0  0  0  0  0  0  0  0  0  0  0  0
  150.3653  144.9436  159.1710 C   0  0  0  0  0  0  0  0  0  0  0  0
  150.7950  144.1569  157.9177 C   0  0  1  0  0  0  0  0  0  0  0  0
  152.1511  144.7868  157.6170 C   0  0  0  0  0  0  0  0  0  0  0  0
  147.6770  138.3651  156.2141 C   0  0  0  0  0  0  0  0  0  0  0  0
  148.1322  138.7152  157.3040 O   0  0  0  0  0  0  0  0  0  0  0  0
  147.1660  137.0208  155.9367 C   0  0  0  0  0  0  0  0  0  0  0  0
  147.2192  136.1063  157.0314 C   0  0  0  0  0  0  0  0  0  0  0  0
  147.2811  135.3725  157.9244 N   0  0  0  0  0  0  0  0  0  0  0  0
  146.6760  136.6695  154.7214 C   0  0  0  0  0  0  0  0  0  0  0  0
  146.1353  135.2874  154.3816 C   0  0  0  0  0  0  0  0  0  0  0  0
  145.0910  137.1637  152.2901 H   0  0  0  0  0  0  0  0  0  0  0  0
  146.6870  136.5783  151.8130 H   0  0  0  0  0  0  0  0  0  0  0  0
  146.2787  138.2778  151.6210 H   0  0  0  0  0  0  0  0  0  0  0  0
  147.9262  141.1107  154.2849 H   0  0  0  0  0  0  0  0  0  0  0  0
  147.4997  141.1481  155.9688 H   0  0  0  0  0  0  0  0  0  0  0  0
  149.1170  141.8508  157.1751 H   0  0  0  0  0  0  0  0  0  0  0  0
  151.8221  142.1319  156.3609 H   0  0  0  0  0  0  0  0  0  0  0  0
  152.9016  140.5077  157.9290 H   0  0  0  0  0  0  0  0  0  0  0  0
  151.9186  139.6641  156.7470 H   0  0  0  0  0  0  0  0  0  0  0  0
  151.3208  139.8849  158.3883 H   0  0  0  0  0  0  0  0  0  0  0  0
  150.4318  142.3441  159.0544 H   0  0  0  0  0  0  0  0  0  0  0  0
  152.5311  142.5365  160.0575 H   0  0  0  0  0  0  0  0  0  0  0  0
  153.3399  142.4417  158.4976 H   0  0  0  0  0  0  0  0  0  0  0  0
  153.7402  144.7732  159.1613 H   0  0  0  0  0  0  0  0  0  0  0  0
  151.6745  144.6649  160.9184 H   0  0  0  0  0  0  0  0  0  0  0  0
  151.9196  146.1849  160.0574 H   0  0  0  0  0  0  0  0  0  0  0  0
  149.6151  144.4157  159.7610 H   0  0  0  0  0  0  0  0  0  0  0  0
  149.9482  145.9128  158.8945 H   0  0  0  0  0  0  0  0  0  0  0  0
  150.0702  144.2296  157.1069 H   0  0  0  0  0  0  0  0  0  0  0  0
  152.0962  145.8591  157.4210 H   0  0  0  0  0  0  0  0  0  0  0  0
  152.6869  144.3022  156.7991 H   0  0  0  0  0  0  0  0  0  0  0  0
  146.1574  134.6129  155.2370 H   0  0  0  0  0  0  0  0  0  0  0  0
  146.7273  134.8302  153.5884 H   0  0  0  0  0  0  0  0  0  0  0  0
  145.1005  135.3528  154.0442 H   0  0  0  0  0  0  0  0  0  0  0  0
  1  2  1  0  0  0  0
  1 25  1  0  0  0  0
  1 26  1  0  0  0  0
  1 27  1  0  0  0  0
  2 23  1  0  0  0  0
  2  3  2  0  0  0  0
  3  4  1  0  0  0  0
  4  5  1  0  0  0  0
  4 18  1  0  0  0  0
  5  6  1  0  0  0  0
  5 28  1  0  0  0  0
  5 29  1  0  0  0  0
  6  7  2  0  0  0  0
  6  8  1  0  0  0  0
  8  9  1  0  0  0  0
  8 30  1  0  0  0  0
  9 10  1  0  0  0  0
  9 11  1  0  0  0  0
  9 31  1  0  0  0  0
 10 32  1  0  0  0  0
 10 33  1  0  0  0  0
 10 34  1  0  0  0  0
 11 16  1  0  0  0  0
 11 12  1  0  0  0  0
 11 35  1  0  0  0  0
 12 13  1  0  0  0  0
 12 36  1  0  0  0  0
 12 37  1  0  0  0  0
 13 17  1  0  0  0  0
 13 14  1  0  0  0  0
 13 38  1  0  0  0  0
 14 15  1  0  0  0  0
 14 39  1  0  0  0  0
 14 40  1  0  0  0  0
 15 16  1  0  0  0  0
 15 41  1  0  0  0  0
 15 42  1  0  0  0  0
 16 17  1  0  0  0  0
 16 43  1  0  0  0  0
 17 44  1  0  0  0  0
 17 45  1  0  0  0  0
 18 19  2  0  0  0  0
 18 20  1  0  0  0  0
 20 21  1  0  0  0  0
 20 23  2  0  0  0  0
 21 22  3  0  0  0  0
 23 24  1  0  0  0  0
 24 46  1  0  0  0  0
 24 47  1  0  0  0  0
 24 48  1  0  0  0  0
M  END
> <s_m_source_file>
AV-unprocessed.smi

> <i_m_source_file_index>
1401

> <i_lp_mmshare_version>
43012

> <i_f3d_flags>
0

> <s_epik_input>
TiNDYyhjMVtDSDNdKWMoPU8pbihuYzFbQ0gzXSlbQ0gyXUMoPU8pW05IXVtDQEhdKFtDSDNdKVtDQEhdKFtDSDJdW0NASF0yMylbQ0BIXShbQ0gyXTMpW0NIMl1bQ0gyXTI=

> <s_epik_cmdline>
J2VwaWtfcHl0aG9uJywgJy1waCcsICc3LjAnLCAnLXRuJywgJzgnLCAnLW1hJywgJzIwMCcsICctbWV0YWxfYmluZGluZycsICctaW1hZScsICc8aW5maWxlLm1hZT4nLCAnLW9tYWUnLCAnPG91dGZpbGUubWFlPic=

> <r_lp_tautomer_probability>
1

> <r_epik_Ionization_Penalty>
2.16501e-08

> <r_epik_Ionization_Penalty_Charging>
2.29436e-11

> <r_epik_Ionization_Penalty_Neutral>
2.16271e-08

> <r_epik_State_Penalty>
-0

> <r_epik_Charging_Adjusted_Penalty>
2.29436e-11

> <i_epik_Tot_Q>
0

> <i_epik_Tot_abs_Q>
0

> <r_epik_Metal_State_Penalty>
-0

> <b_epik_Metal_Only>
0

> <s_lp_Force_Field>
OPLS_2005

> <r_lp_Energy>
65.9265

> <b_lp_Chiralities_Consistent>
1

> <s_lp_Variant>
AV-unprocessed.smi:1401-3

> <Gold.Version>
5.8.1

> <Gold.Id.Protein>
6NUR|6NUR_protein|mol2

> <Gold.PLP.Fitness>
46.8447

> <Gold.PLP.PLP>
-44.0868

> <Gold.PLP.part.hbond>
-1.4578

> <Gold.PLP.part.metal>
0.0000

> <Gold.PLP.part.buried>
-3.6891

> <Gold.PLP.part.nonpolar>
-41.6014

> <Gold.PLP.part.repulsive>
2.2148

> <Gold.PLP.ligand.clash>
0.0000

> <Gold.PLP.ligand.torsion>
0.1323

> <Gold.PLP.Chemscore.Hbond>
1.0000

> <Gold.PLP.Chemscore.CHOScore>
0.0000

> <Gold.PLP.Chemscore.Metal>
0.0000

> <Gold.Chemscore.Hbonds>
donor molecule, donor type, donor heavy atom, donor atom, acceptor molecule, acceptor atom, score
      P1  H  7989  7998       L1     7  1.00

> <Gold.PLP.Chemscore.Internal.Correction>
0.0225

> <Gold.Rescore>
     Score         DG    S(hbond)    S(metal)    S(lipo)     H(rot)  DE(clash)    DE(int)     intcor
     16.69     -19.75       0.95        0.00     130.41       1.63       1.85       1.21       ----

> <Gold.Chemscore.Fitness>
16.6889

> <Gold.Chemscore.DG>
-19.7491

> <Gold.Chemscore.ZeroCoef>
-5.4800

> <Gold.Chemscore.Hbond>
0.9518

> <Gold.Chemscore.Metal>
0.0000

> <Gold.Chemscore.Lipo>
130.4099

> <Gold.Chemscore.Internal_Hbond>
0.0000

> <Gold.Chemscore.DEClash>
1.8487

> <Gold.Chemscore.DEInternal>
1.2115

> <Gold.Chemscore.Rot>
1.6281

> <Gold.Chemscore.Internal.Correction>
   9.000000E+99

> <Gold.Chemscore.Hbonds>
donor molecule, donor type, donor heavy atom, donor atom, acceptor molecule, acceptor atom, score
      P1  H  7989  7998       L1     7  0.98

> <Gold.Chemscore.Hbond.Weighted>
-3.1790

> <Gold.Chemscore.Metal.Weighted>
-0.0000

> <Gold.Chemscore.Lipo.Weighted>
-15.2580

> <Gold.Chemscore.Internal_Hbond.Weighted>
0.0000

> <Gold.Chemscore.DEClash.Weighted>
1.8487

> <Gold.Chemscore.DEInternal.Weighted>
1.2115

> <Gold.Chemscore.Rot.Weighted>
4.1678

> <Gold.Chemscore.Internal.Correction.Weighted>
   9.000000E+99

> <Gold.Protein.RotatedTorsions>
[ 6907 6896 6895 6894 ] final  120.28 input  -60.11 | X-H torsion
[ 7974 7965 7964 7962 ] final -122.45 input  175.53 | X-H torsion
[ 8008 7997 7996 7995 ] final -126.97 input   59.86 | X-H torsion
[ 10167 10162 10161 10158 ] final  -21.90 input  -65.29 | X-H torsion
[ 10718 10713 10712 10709 ] final -116.96 input   66.30 | X-H torsion
[ 10763 10752 10751 10750 ] final  162.37 input  -60.55 | X-H torsion
[ 11005 11000 10999 10996 ] final   95.18 input  -57.11 | X-H torsion

> <Gold.Protein.ActiveResidues>
 VAL166  LYS551  ARG553  GLY616  TRP617  ASP618  TYR619  PRO620  LYS621  CYS622 
 ASP623  PHE694  ASN695  SER759  ASP760  ASP761  ALA762  ILE779  LEU786  VAL792 
 PHE793  MET794  SER795  GLU796  ALA797  LYS798  CYS799  TRP800  GLU811  SER814 

> <Gold.Protein.RotatedAtoms>
  152.4409  133.7447  159.6660 H   0  0  0  0  0  0  0  0  0  0  0  0  # atno 6907 bound_to 6896
  150.8300  133.8096  159.3108 H   0  0  0  0  0  0  0  0  0  0  0  0  # atno 6908 bound_to 6896
  151.5753  135.1063  160.0056 H   0  0  0  0  0  0  0  0  0  0  0  0  # atno 6909 bound_to 6896
  145.0293  140.8054  143.4333 H   0  0  0  0  0  0  0  0  0  0  0  0  # atno 7974 bound_to 7965
  155.2385  140.0428  157.2972 H   0  0  0  0  0  0  0  0  0  0  0  0  # atno 8008 bound_to 7997
  154.5843  140.2409  155.7979 H   0  0  0  0  0  0  0  0  0  0  0  0  # atno 8009 bound_to 7997
  156.2215  140.2968  155.9972 H   0  0  0  0  0  0  0  0  0  0  0  0  # atno 8010 bound_to 7997
  140.7284  143.4585  151.0414 H   0  0  0  0  0  0  0  0  0  0  0  0  # atno 10167 bound_to 10162
  156.1000  130.6164  150.9103 H   0  0  0  0  0  0  0  0  0  0  0  0  # atno 10718 bound_to 10713
  154.2774  135.2764  155.2712 H   0  0  0  0  0  0  0  0  0  0  0  0  # atno 10763 bound_to 10752
  154.5248  135.5746  153.6714 H   0  0  0  0  0  0  0  0  0  0  0  0  # atno 10764 bound_to 10752
  152.9935  135.6213  154.2931 H   0  0  0  0  0  0  0  0  0  0  0  0  # atno 10765 bound_to 10752
  139.8791  134.8885  156.3972 H   0  0  0  0  0  0  0  0  0  0  0  0  # atno 11005 bound_to 11000
  145.1791  139.2361  143.5302 LP  0  0  0  0  0  0  0  0  0  0  0  0  # atno 17320 bound_to 7965
  146.3496  140.1561  142.8591 LP  0  0  0  0  0  0  0  0  0  0  0  0  # atno 17321 bound_to 7965
  139.8267  143.7746  152.3179 LP  0  0  0  0  0  0  0  0  0  0  0  0  # atno 17342 bound_to 10162
  139.7848  144.7432  151.0038 LP  0  0  0  0  0  0  0  0  0  0  0  0  # atno 17343 bound_to 10162
  157.6168  131.0932  150.8695 LP  0  0  0  0  0  0  0  0  0  0  0  0  # atno 17370 bound_to 10713
  156.8825  130.5184  149.5290 LP  0  0  0  0  0  0  0  0  0  0  0  0  # atno 17371 bound_to 10713
  140.9292  133.7591  156.0003 LP  0  0  0  0  0  0  0  0  0  0  0  0  # atno 17394 bound_to 11000
  140.8351  134.3133  157.5335 LP  0  0  0  0  0  0  0  0  0  0  0  0  # atno 17395 bound_to 11000

$$$$
