AV-unprocessed.smi:1243|AV-procd|sdf|5220|dock2
  -GOLD-   22720 4313D 1   1.00000     0.00000
 Structure written by MMmdl.
 50 51  0  0  0  0  0  0  0  0  1 V2000
  155.4851  138.4681  153.9599 C   0  0  0  0  0  0  0  0  0  0  0  0
  154.8605  138.3275  155.2311 O   0  0  0  0  0  0  0  0  0  0  0  0
  153.5003  138.0866  155.2762 C   0  0  0  0  0  0  0  0  0  0  0  0
  152.8295  137.9533  154.1044 N   0  0  0  0  0  0  0  0  0  0  0  0
  151.5014  137.7219  154.1471 C   0  0  0  0  0  0  0  0  0  0  0  0
  150.7754  137.6194  155.3477 C   0  0  0  0  0  0  0  0  0  0  0  0
  151.4687  137.7574  156.5643 C   0  0  0  0  0  0  0  0  0  0  0  0
  152.8665  137.9844  156.5368 C   0  0  0  0  0  0  0  0  0  0  0  0
  153.6671  138.1490  157.7013 N   0  0  0  0  0  0  0  0  0  0  0  0
  153.3033  138.5716  158.9238 C   0  0  0  0  0  0  0  0  0  0  0  0
  152.1726  138.9348  159.2466 O   0  0  0  0  0  0  0  0  0  0  0  0
  154.3427  138.5372  159.7686 N   0  0  0  0  0  0  0  0  0  0  0  0
  154.3212  138.9403  161.1742 C   0  0  0  0  0  0  0  0  0  0  0  0
  155.1732  140.2159  161.4354 C   0  0  0  0  0  0  0  0  0  0  0  0
  155.5936  140.1602  162.9263 C   0  0  0  0  0  0  0  0  0  0  0  0
  156.4628  140.0855  160.5898 C   0  0  0  0  0  0  0  0  0  0  0  0
  154.4067  141.4598  161.1427 N   0  0  0  0  0  0  0  0  0  0  0  0
  153.7874  141.5050  159.8083 C   0  0  0  0  0  0  0  0  0  0  0  0
  153.1381  142.8723  159.5258 C   0  0  0  0  0  0  0  0  0  0  0  0
  152.1178  143.1956  160.5182 N   0  0  0  0  0  0  0  0  0  0  0  0
  151.4952  144.4816  160.2453 C   0  0  0  0  0  0  0  0  0  0  0  0
  152.7278  143.1653  161.8438 C   0  0  0  0  0  0  0  0  0  0  0  0
  153.3731  141.7983  162.1354 C   0  0  0  0  0  0  0  0  0  0  0  0
  156.5502  138.6513  154.1007 H   0  0  0  0  0  0  0  0  0  0  0  0
  155.0747  139.3127  153.4047 H   0  0  0  0  0  0  0  0  0  0  0  0
  155.3828  137.5612  153.3624 H   0  0  0  0  0  0  0  0  0  0  0  0
  151.0008  137.6206  153.1955 H   0  0  0  0  0  0  0  0  0  0  0  0
  149.7100  137.4423  155.3359 H   0  0  0  0  0  0  0  0  0  0  0  0
  150.9125  137.6983  157.4865 H   0  0  0  0  0  0  0  0  0  0  0  0
  154.6204  137.8289  157.6123 H   0  0  0  0  0  0  0  0  0  0  0  0
  155.2330  138.2269  159.4080 H   0  0  0  0  0  0  0  0  0  0  0  0
  153.2975  139.1032  161.5158 H   0  0  0  0  0  0  0  0  0  0  0  0
  154.6750  138.0999  161.7708 H   0  0  0  0  0  0  0  0  0  0  0  0
  155.9959  139.1821  163.1931 H   0  0  0  0  0  0  0  0  0  0  0  0
  154.7504  140.3554  163.5899 H   0  0  0  0  0  0  0  0  0  0  0  0
  156.3738  140.8833  163.1639 H   0  0  0  0  0  0  0  0  0  0  0  0
  156.9980  139.1666  160.8328 H   0  0  0  0  0  0  0  0  0  0  0  0
  157.1564  140.9073  160.7661 H   0  0  0  0  0  0  0  0  0  0  0  0
  156.2524  140.0521  159.5211 H   0  0  0  0  0  0  0  0  0  0  0  0
  154.5275  141.3268  159.0306 H   0  0  0  0  0  0  0  0  0  0  0  0
  153.0323  140.7247  159.7115 H   0  0  0  0  0  0  0  0  0  0  0  0
  153.9069  143.6468  159.5127 H   0  0  0  0  0  0  0  0  0  0  0  0
  152.6918  142.8593  158.5309 H   0  0  0  0  0  0  0  0  0  0  0  0
  150.7233  144.7013  160.9835 H   0  0  0  0  0  0  0  0  0  0  0  0
  151.0233  144.4803  159.2623 H   0  0  0  0  0  0  0  0  0  0  0  0
  152.2287  145.2887  160.2699 H   0  0  0  0  0  0  0  0  0  0  0  0
  153.4810  143.9506  161.9282 H   0  0  0  0  0  0  0  0  0  0  0  0
  151.9717  143.3757  162.6010 H   0  0  0  0  0  0  0  0  0  0  0  0
  152.5966  141.0333  162.1538 H   0  0  0  0  0  0  0  0  0  0  0  0
  153.7962  141.8435  163.1371 H   0  0  0  0  0  0  0  0  0  0  0  0
  1  2  1  0  0  0  0
  1 24  1  0  0  0  0
  1 25  1  0  0  0  0
  1 26  1  0  0  0  0
  2  3  1  0  0  0  0
  3  8  1  0  0  0  0
  3  4  2  0  0  0  0
  4  5  1  0  0  0  0
  5  6  2  0  0  0  0
  5 27  1  0  0  0  0
  6  7  1  0  0  0  0
  6 28  1  0  0  0  0
  7  8  2  0  0  0  0
  7 29  1  0  0  0  0
  8  9  1  0  0  0  0
  9 10  1  0  0  0  0
  9 30  1  0  0  0  0
 10 11  2  0  0  0  0
 10 12  1  0  0  0  0
 12 13  1  0  0  0  0
 12 31  1  0  0  0  0
 13 14  1  0  0  0  0
 13 32  1  0  0  0  0
 13 33  1  0  0  0  0
 14 15  1  0  0  0  0
 14 16  1  0  0  0  0
 14 17  1  0  0  0  0
 15 34  1  0  0  0  0
 15 35  1  0  0  0  0
 15 36  1  0  0  0  0
 16 37  1  0  0  0  0
 16 38  1  0  0  0  0
 16 39  1  0  0  0  0
 17 23  1  0  0  0  0
 17 18  1  0  0  0  0
 18 19  1  0  0  0  0
 18 40  1  0  0  0  0
 18 41  1  0  0  0  0
 19 20  1  0  0  0  0
 19 42  1  0  0  0  0
 19 43  1  0  0  0  0
 20 21  1  0  0  0  0
 20 22  1  0  0  0  0
 21 44  1  0  0  0  0
 21 45  1  0  0  0  0
 21 46  1  0  0  0  0
 22 23  1  0  0  0  0
 22 47  1  0  0  0  0
 22 48  1  0  0  0  0
 23 49  1  0  0  0  0
 23 50  1  0  0  0  0
M  END
> <s_m_source_file>
AV-unprocessed.smi

> <i_m_source_file_index>
1243

> <i_lp_mmshare_version>
43012

> <i_f3d_flags>
0

> <s_epik_input>
W0NIM11PYzFuW2NIXVtjSF1bY0hdYzFbTkhdQyg9TylbTkhdW0NIMl1DKFtDSDNdKShbQ0gzXSlOMltDSDJdW0NIMl1OKFtDSDNdKVtDSDJdW0NIMl0y

> <s_epik_cmdline>
J2VwaWtfcHl0aG9uJywgJy1waCcsICc3LjAnLCAnLXRuJywgJzgnLCAnLW1hJywgJzIwMCcsICctbWV0YWxfYmluZGluZycsICctaW1hZScsICc8aW5maWxlLm1hZT4nLCAnLW9tYWUnLCAnPG91dGZpbGUubWFlPic=

> <r_lp_tautomer_probability>
1

> <r_epik_Ionization_Penalty>
3.08543

> <r_epik_Ionization_Penalty_Charging>
0

> <r_epik_Ionization_Penalty_Neutral>
3.08543

> <r_epik_State_Penalty>
2.1584

> <r_epik_Charging_Adjusted_Penalty>
2.1584

> <i_epik_Tot_Q>
0

> <i_epik_Tot_abs_Q>
0

> <r_epik_Metal_State_Penalty>
2.1584

> <b_epik_Metal_Only>
0

> <s_lp_Force_Field>
OPLS_2005

> <r_lp_Energy>
53.3534

> <b_lp_Chiralities_Consistent>
1

> <s_lp_Variant>
AV-unprocessed.smi:1243-3

> <Gold.Version>
5.8.1

> <Gold.Id.Protein>
6NUR|6NUR_protein|mol2

> <Gold.PLP.Fitness>
41.1344

> <Gold.PLP.PLP>
-37.8216

> <Gold.PLP.part.hbond>
-3.4418

> <Gold.PLP.part.metal>
0.0000

> <Gold.PLP.part.buried>
-2.7397

> <Gold.PLP.part.nonpolar>
-32.9955

> <Gold.PLP.part.repulsive>
0.3308

> <Gold.PLP.ligand.clash>
0.0000

> <Gold.PLP.ligand.torsion>
0.7347

> <Gold.PLP.Chemscore.Hbond>
0.4360

> <Gold.PLP.Chemscore.CHOScore>
1.1360

> <Gold.PLP.Chemscore.Metal>
0.0000

> <Gold.Chemscore.Hbonds>
donor molecule, donor type, donor heavy atom, donor atom, acceptor molecule, acceptor atom, score
      P1  H  7997  8010       L1     2  0.15
      P1  H 10752 10765       L1     4  0.09
      L1  C     5    27       P1  7948  0.08
      L1  C     5    27       P1  7949  1.00

> <Gold.PLP.Chemscore.Internal.Correction>
0.0662

> <Gold.Rescore>
     Score         DG    S(hbond)    S(metal)    S(lipo)     H(rot)  DE(clash)    DE(int)     intcor
     12.53     -15.16       0.00        0.00     119.31       1.67       0.18       2.44       ----

> <Gold.Chemscore.Fitness>
12.5339

> <Gold.Chemscore.DG>
-15.1621

> <Gold.Chemscore.ZeroCoef>
-5.4800

> <Gold.Chemscore.Hbond>
0.0024

> <Gold.Chemscore.Metal>
0.0000

> <Gold.Chemscore.Lipo>
119.3075

> <Gold.Chemscore.Internal_Hbond>
0.0000

> <Gold.Chemscore.DEClash>
0.1834

> <Gold.Chemscore.DEInternal>
2.4448

> <Gold.Chemscore.Rot>
1.6737

> <Gold.Chemscore.Internal.Correction>
   9.000000E+99

> <Gold.Chemscore.Hbond.Weighted>
-0.0079

> <Gold.Chemscore.Metal.Weighted>
-0.0000

> <Gold.Chemscore.Lipo.Weighted>
-13.9590

> <Gold.Chemscore.Internal_Hbond.Weighted>
0.0000

> <Gold.Chemscore.DEClash.Weighted>
0.1834

> <Gold.Chemscore.DEInternal.Weighted>
2.4448

> <Gold.Chemscore.Rot.Weighted>
4.2848

> <Gold.Chemscore.Internal.Correction.Weighted>
   9.000000E+99

> <Gold.Protein.RotatedTorsions>
[ 6907 6896 6895 6894 ] final  -33.63 input  -60.11 | X-H torsion
[ 7974 7965 7964 7962 ] final   51.56 input  175.53 | X-H torsion
[ 8008 7997 7996 7995 ] final  123.57 input   59.86 | X-H torsion
[ 10167 10162 10161 10158 ] final   46.14 input  -65.29 | X-H torsion
[ 10718 10713 10712 10709 ] final  151.05 input   66.30 | X-H torsion
[ 10763 10752 10751 10750 ] final  133.69 input  -60.55 | X-H torsion
[ 11005 11000 10999 10996 ] final  -34.40 input  -57.11 | X-H torsion

> <Gold.Protein.ActiveResidues>
 VAL166  LYS551  ARG553  GLY616  TRP617  ASP618  TYR619  PRO620  LYS621  CYS622 
 ASP623  PHE694  ASN695  SER759  ASP760  ASP761  ALA762  ILE779  LEU786  VAL792 
 PHE793  MET794  SER795  GLU796  ALA797  LYS798  CYS799  TRP800  GLU811  SER814 

> <Gold.Protein.RotatedAtoms>
  151.0631  134.9750  159.8270 H   0  0  0  0  0  0  0  0  0  0  0  0  # atno 6907 bound_to 6896
  152.5398  134.2392  159.8865 H   0  0  0  0  0  0  0  0  0  0  0  0  # atno 6908 bound_to 6896
  151.2413  133.4355  159.2641 H   0  0  0  0  0  0  0  0  0  0  0  0  # atno 6909 bound_to 6896
  145.9901  139.4330  143.0078 H   0  0  0  0  0  0  0  0  0  0  0  0  # atno 7974 bound_to 7965
  156.2771  140.2760  156.1649 H   0  0  0  0  0  0  0  0  0  0  0  0  # atno 8008 bound_to 7997
  155.0715  140.0387  157.2628 H   0  0  0  0  0  0  0  0  0  0  0  0  # atno 8009 bound_to 7997
  154.7036  140.2654  155.6701 H   0  0  0  0  0  0  0  0  0  0  0  0  # atno 8010 bound_to 7997
  140.3169  144.2752  150.6189 H   0  0  0  0  0  0  0  0  0  0  0  0  # atno 10167 bound_to 10162
  157.2757  131.0825  151.1568 H   0  0  0  0  0  0  0  0  0  0  0  0  # atno 10718 bound_to 10713
  153.8112  135.3128  155.3401 H   0  0  0  0  0  0  0  0  0  0  0  0  # atno 10763 bound_to 10752
  154.8050  135.4703  154.0374 H   0  0  0  0  0  0  0  0  0  0  0  0  # atno 10764 bound_to 10752
  153.1752  135.6884  153.8641 H   0  0  0  0  0  0  0  0  0  0  0  0  # atno 10765 bound_to 10752
  140.9713  133.7108  156.1529 H   0  0  0  0  0  0  0  0  0  0  0  0  # atno 11005 bound_to 11000
  145.7642  140.9923  143.1184 LP  0  0  0  0  0  0  0  0  0  0  0  0  # atno 17320 bound_to 7965
  144.6886  139.9367  143.7473 LP  0  0  0  0  0  0  0  0  0  0  0  0  # atno 17321 bound_to 7965
  140.5518  143.2205  151.7914 LP  0  0  0  0  0  0  0  0  0  0  0  0  # atno 17342 bound_to 10162
  139.4882  144.4466  151.9702 LP  0  0  0  0  0  0  0  0  0  0  0  0  # atno 17343 bound_to 10162
  157.3022  130.6848  149.6170 LP  0  0  0  0  0  0  0  0  0  0  0  0  # atno 17370 bound_to 10713
  155.9663  130.4388  150.5234 LP  0  0  0  0  0  0  0  0  0  0  0  0  # atno 17371 bound_to 10713
  140.7324  134.4239  157.5564 LP  0  0  0  0  0  0  0  0  0  0  0  0  # atno 17394 bound_to 11000
  139.8913  134.8782  156.2325 LP  0  0  0  0  0  0  0  0  0  0  0  0  # atno 17395 bound_to 11000

$$$$
