AV-unprocessed.smi:2603|AV-procd|sdf|10185|dock8
  -GOLD-   2272014203D 1   1.00000     0.00000
 Structure written by MMmdl.
 35 36  0  0  0  0  0  0  0  0  1 V2000
  151.6190  144.1268  158.1074 C   0  0  0  0  0  0  0  0  0  0  0  0
  152.4807  144.4103  159.3402 C   0  0  0  0  0  0  0  0  0  0  0  0
  153.5072  143.4370  159.4184 O   0  0  0  0  0  0  0  0  0  0  0  0
  153.0989  142.2906  160.1417 C   0  0  2  0  0  0  0  0  0  0  0  0
  153.4003  142.3545  161.6127 C   0  0  0  0  0  0  0  0  0  0  0  0
  154.2708  141.5142  160.6951 C   0  0  1  0  0  0  0  0  0  0  0  0
  154.1398  140.0963  160.7744 N   0  0  0  0  0  0  0  0  0  0  0  0
  153.8241  139.2828  159.7559 C   0  0  0  0  0  0  0  0  0  0  0  0
  153.6019  139.6752  158.6105 O   0  0  0  0  0  0  0  0  0  0  0  0
  153.7554  137.7902  160.0779 C   0  0  0  0  0  0  0  0  0  0  0  0
  153.4595  137.0144  158.8204 C   0  0  0  0  0  0  0  0  0  0  0  0
  152.2885  137.0590  158.0093 C   0  0  0  0  0  0  0  0  0  0  0  0
  151.0466  137.8820  158.1987 C   0  0  0  0  0  0  0  0  0  0  0  0
  152.3698  136.2344  156.9787 N   0  0  0  0  0  0  0  0  0  0  0  0
  153.6182  135.6133  157.0819 O   0  0  0  0  0  0  0  0  0  0  0  0
  154.2461  136.0929  158.1857 C   0  0  0  0  0  0  0  0  0  0  0  0
  155.6011  135.5443  158.4799 C   0  0  0  0  0  0  0  0  0  0  0  0
  150.8133  144.8557  158.0194 H   0  0  0  0  0  0  0  0  0  0  0  0
  151.1689  143.1353  158.1638 H   0  0  0  0  0  0  0  0  0  0  0  0
  152.2144  144.1744  157.1953 H   0  0  0  0  0  0  0  0  0  0  0  0
  152.9139  145.4093  159.2710 H   0  0  0  0  0  0  0  0  0  0  0  0
  151.8653  144.3782  160.2405 H   0  0  0  0  0  0  0  0  0  0  0  0
  152.2259  141.7601  159.7640 H   0  0  0  0  0  0  0  0  0  0  0  0
  153.8254  143.2776  162.0023 H   0  0  0  0  0  0  0  0  0  0  0  0
  152.7221  141.8345  162.2866 H   0  0  0  0  0  0  0  0  0  0  0  0
  155.2608  141.9132  160.4778 H   0  0  0  0  0  0  0  0  0  0  0  0
  154.3042  139.6762  161.6776 H   0  0  0  0  0  0  0  0  0  0  0  0
  154.6935  137.4710  160.5337 H   0  0  0  0  0  0  0  0  0  0  0  0
  152.9859  137.6296  160.8339 H   0  0  0  0  0  0  0  0  0  0  0  0
  150.3339  137.3666  158.8428 H   0  0  0  0  0  0  0  0  0  0  0  0
  150.5512  138.0846  157.2485 H   0  0  0  0  0  0  0  0  0  0  0  0
  151.2764  138.8425  158.6596 H   0  0  0  0  0  0  0  0  0  0  0  0
  155.5838  134.9472  159.3916 H   0  0  0  0  0  0  0  0  0  0  0  0
  156.3224  136.3500  158.6175 H   0  0  0  0  0  0  0  0  0  0  0  0
  155.9548  134.9098  157.6667 H   0  0  0  0  0  0  0  0  0  0  0  0
  1  2  1  0  0  0  0
  1 18  1  0  0  0  0
  1 19  1  0  0  0  0
  1 20  1  0  0  0  0
  2  3  1  0  0  0  0
  2 21  1  0  0  0  0
  2 22  1  0  0  0  0
  3  4  1  0  0  0  0
  4  6  1  0  0  0  0
  4  5  1  0  0  0  0
  4 23  1  0  0  0  0
  5  6  1  0  0  0  0
  5 24  1  0  0  0  0
  5 25  1  0  0  0  0
  6  7  1  0  0  0  0
  6 26  1  0  0  0  0
  7  8  1  0  0  0  0
  7 27  1  0  0  0  0
  8  9  2  0  0  0  0
  8 10  1  0  0  0  0
 10 11  1  0  0  0  0
 10 28  1  0  0  0  0
 10 29  1  0  0  0  0
 11 16  2  0  0  0  0
 11 12  1  0  0  0  0
 12 13  1  0  0  0  0
 12 14  2  0  0  0  0
 13 30  1  0  0  0  0
 13 31  1  0  0  0  0
 13 32  1  0  0  0  0
 14 15  1  0  0  0  0
 15 16  1  0  0  0  0
 16 17  1  0  0  0  0
 17 33  1  0  0  0  0
 17 34  1  0  0  0  0
 17 35  1  0  0  0  0
M  END
> <s_m_source_file>
AV-unprocessed.smi

> <i_m_source_file_index>
2603

> <i_lp_mmshare_version>
43012

> <i_f3d_flags>
0

> <s_epik_input>
W0NIM11bQ0gyXU9bQ0BASF0xW0NIMl1bQ0BIXTFbTkhdQyg9TylbQ0gyXWMyYyhbQ0gzXSlub2MyW0NIM10=

> <s_epik_cmdline>
J2VwaWtfcHl0aG9uJywgJy1waCcsICc3LjAnLCAnLXRuJywgJzgnLCAnLW1hJywgJzIwMCcsICctbWV0YWxfYmluZGluZycsICctaW1hZScsICc8aW5maWxlLm1hZT4nLCAnLW9tYWUnLCAnPG91dGZpbGUubWFlPic=

> <r_lp_tautomer_probability>
1

> <r_epik_Ionization_Penalty>
2.37325e-08

> <r_epik_Ionization_Penalty_Charging>
0

> <r_epik_Ionization_Penalty_Neutral>
2.37325e-08

> <r_epik_State_Penalty>
-0

> <r_epik_Charging_Adjusted_Penalty>
0

> <i_epik_Tot_Q>
0

> <i_epik_Tot_abs_Q>
0

> <r_epik_Metal_State_Penalty>
-0

> <b_epik_Metal_Only>
0

> <s_lp_Force_Field>
OPLS_2005

> <r_lp_Energy>
10.4269

> <b_lp_Chiralities_Consistent>
1

> <s_lp_Variant>
AV-unprocessed.smi:2603-1

> <Gold.Version>
5.8.1

> <Gold.Id.Protein>
6NUR|6NUR_protein|mol2

> <Gold.PLP.Fitness>
38.0272

> <Gold.PLP.PLP>
-32.4098

> <Gold.PLP.part.hbond>
-2.6440

> <Gold.PLP.part.metal>
0.0000

> <Gold.PLP.part.buried>
-4.6932

> <Gold.PLP.part.nonpolar>
-24.8825

> <Gold.PLP.part.repulsive>
0.0525

> <Gold.PLP.ligand.clash>
0.0000

> <Gold.PLP.ligand.torsion>
0.5272

> <Gold.PLP.Chemscore.Hbond>
2.0000

> <Gold.PLP.Chemscore.CHOScore>
0.0000

> <Gold.PLP.Chemscore.Metal>
0.0000

> <Gold.Chemscore.Hbonds>
donor molecule, donor type, donor heavy atom, donor atom, acceptor molecule, acceptor atom, score
      P1  H  7997  8008       L1     9  1.00
      P1  H 10752 10765       L1    15  1.00

> <Gold.PLP.Chemscore.Internal.Correction>
0.6718

> <Gold.Rescore>
     Score         DG    S(hbond)    S(metal)    S(lipo)     H(rot)  DE(clash)    DE(int)     intcor
     15.28     -16.96       1.86        0.00      82.15       1.69       0.04       1.64       ----

> <Gold.Chemscore.Fitness>
15.2767

> <Gold.Chemscore.DG>
-16.9570

> <Gold.Chemscore.ZeroCoef>
-5.4800

> <Gold.Chemscore.Hbond>
1.8564

> <Gold.Chemscore.Metal>
0.0000

> <Gold.Chemscore.Lipo>
82.1474

> <Gold.Chemscore.Internal_Hbond>
0.0000

> <Gold.Chemscore.DEClash>
0.0366

> <Gold.Chemscore.DEInternal>
1.6437

> <Gold.Chemscore.Rot>
1.6933

> <Gold.Chemscore.Internal.Correction>
   9.000000E+99

> <Gold.Chemscore.Hbonds>
donor molecule, donor type, donor heavy atom, donor atom, acceptor molecule, acceptor atom, score
      P1  H  7997  8008       L1     9  1.00
      P1  H 10752 10765       L1    15  0.30

> <Gold.Chemscore.Hbond.Weighted>
-6.2005

> <Gold.Chemscore.Metal.Weighted>
-0.0000

> <Gold.Chemscore.Lipo.Weighted>
-9.6113

> <Gold.Chemscore.Internal_Hbond.Weighted>
0.0000

> <Gold.Chemscore.DEClash.Weighted>
0.0366

> <Gold.Chemscore.DEInternal.Weighted>
1.6437

> <Gold.Chemscore.Rot.Weighted>
4.3348

> <Gold.Chemscore.Internal.Correction.Weighted>
   9.000000E+99

> <Gold.Protein.RotatedTorsions>
[ 6907 6896 6895 6894 ] final  169.37 input  -60.11 | X-H torsion
[ 7974 7965 7964 7962 ] final -127.49 input  175.53 | X-H torsion
[ 8008 7997 7996 7995 ] final -101.47 input   59.86 | X-H torsion
[ 10167 10162 10161 10158 ] final   75.63 input  -65.29 | X-H torsion
[ 10718 10713 10712 10709 ] final  -96.81 input   66.30 | X-H torsion
[ 10763 10752 10751 10750 ] final  -94.75 input  -60.55 | X-H torsion
[ 11005 11000 10999 10996 ] final  139.15 input  -57.11 | X-H torsion

> <Gold.Protein.ActiveResidues>
 VAL166  LYS551  ARG553  GLY616  TRP617  ASP618  TYR619  PRO620  LYS621  CYS622 
 ASP623  PHE694  ASN695  SER759  ASP760  ASP761  ALA762  ILE779  LEU786  VAL792 
 PHE793  MET794  SER795  GLU796  ALA797  LYS798  CYS799  TRP800  GLU811  SER814 

> <Gold.Protein.RotatedAtoms>
  151.8329  133.3411  159.3618 H   0  0  0  0  0  0  0  0  0  0  0  0  # atno 6907 bound_to 6896
  150.7258  134.5465  159.5782 H   0  0  0  0  0  0  0  0  0  0  0  0  # atno 6908 bound_to 6896
  152.2922  134.7709  160.0426 H   0  0  0  0  0  0  0  0  0  0  0  0  # atno 6909 bound_to 6896
  144.9765  140.7598  143.4638 H   0  0  0  0  0  0  0  0  0  0  0  0  # atno 7974 bound_to 7965
  154.8431  140.0434  157.1554 H   0  0  0  0  0  0  0  0  0  0  0  0  # atno 8008 bound_to 7997
  154.9025  140.3002  155.5289 H   0  0  0  0  0  0  0  0  0  0  0  0  # atno 8009 bound_to 7997
  156.2993  140.2373  156.4055 H   0  0  0  0  0  0  0  0  0  0  0  0  # atno 8010 bound_to 7997
  140.0009  144.5687  150.7738 H   0  0  0  0  0  0  0  0  0  0  0  0  # atno 10167 bound_to 10162
  156.0070  130.5167  150.6281 H   0  0  0  0  0  0  0  0  0  0  0  0  # atno 10718 bound_to 10713
  154.7084  135.5146  153.8630 H   0  0  0  0  0  0  0  0  0  0  0  0  # atno 10763 bound_to 10752
  153.0760  135.6616  154.0153 H   0  0  0  0  0  0  0  0  0  0  0  0  # atno 10764 bound_to 10752
  154.0000  135.3012  155.3383 H   0  0  0  0  0  0  0  0  0  0  0  0  # atno 10765 bound_to 10752
  140.0234  134.9386  157.0520 H   0  0  0  0  0  0  0  0  0  0  0  0  # atno 11005 bound_to 11000
  145.2482  139.2043  143.4956 LP  0  0  0  0  0  0  0  0  0  0  0  0  # atno 17320 bound_to 7965
  146.3397  140.2390  142.8595 LP  0  0  0  0  0  0  0  0  0  0  0  0  # atno 17321 bound_to 7965
  140.7419  143.2825  151.3558 LP  0  0  0  0  0  0  0  0  0  0  0  0  # atno 17342 bound_to 10162
  139.6273  144.0790  152.2445 LP  0  0  0  0  0  0  0  0  0  0  0  0  # atno 17343 bound_to 10162
  157.4084  131.0820  151.1244 LP  0  0  0  0  0  0  0  0  0  0  0  0  # atno 17370 bound_to 10713
  157.1883  130.6340  149.5695 LP  0  0  0  0  0  0  0  0  0  0  0  0  # atno 17371 bound_to 10713
  140.4347  134.1743  155.7170 LP  0  0  0  0  0  0  0  0  0  0  0  0  # atno 17394 bound_to 11000
  141.1788  133.8458  157.1330 LP  0  0  0  0  0  0  0  0  0  0  0  0  # atno 17395 bound_to 11000

$$$$
