AV-unprocessed.smi:2284|AV-procd|sdf|9202|dock9
  -GOLD-   2272012423D 1   1.00000     0.00000
 Structure written by MMmdl.
 44 45  0  0  0  0  0  0  0  0  1 V2000
  152.1700  145.1700  159.2466 C   0  0  0  0  0  0  0  0  0  0  0  0
  152.1818  143.6709  159.0279 C   0  0  0  0  0  0  0  0  0  0  0  0
  152.8820  142.8267  159.9116 C   0  0  0  0  0  0  0  0  0  0  0  0
  152.8849  141.4360  159.7008 C   0  0  0  0  0  0  0  0  0  0  0  0
  152.1896  140.8810  158.6066 C   0  0  0  0  0  0  0  0  0  0  0  0
  152.2042  139.3790  158.3905 C   0  0  0  0  0  0  0  0  0  0  0  0
  151.4846  141.7177  157.7109 C   0  0  0  0  0  0  0  0  0  0  0  0
  150.8267  141.1101  156.6626 O   0  0  0  0  0  0  0  0  0  0  0  0
  150.4939  141.8904  155.5225 C   0  0  0  0  0  0  0  0  0  0  0  0
  149.3879  141.1591  154.7474 C   0  0  1  0  0  0  0  0  0  0  0  0
  150.0122  140.1596  153.9676 O   0  0  0  0  0  0  0  0  0  0  0  0
  148.3554  140.4951  155.6883 C   0  0  0  0  0  0  0  0  0  0  0  0
  147.2923  141.4326  156.0841 N   0  0  0  0  0  0  0  0  0  0  0  0
  147.0992  141.6081  157.4650 C   0  0  0  0  0  0  0  0  0  0  0  0
  146.2011  142.4144  157.9282 N   0  0  0  0  0  0  0  0  0  0  0  0
  145.3949  143.1396  157.0461 C   0  0  0  0  0  0  0  0  0  0  0  0
  144.3727  144.0558  157.6948 C   0  0  0  0  0  0  0  0  0  0  0  0
  145.5350  143.0186  155.6975 C   0  0  0  0  0  0  0  0  0  0  0  0
  144.6853  143.7829  154.6898 C   0  0  0  0  0  0  0  0  0  0  0  0
  146.5567  142.1080  155.1552 C   0  0  0  0  0  0  0  0  0  0  0  0
  146.7430  141.9576  153.9463 O   0  0  0  0  0  0  0  0  0  0  0  0
  151.4867  143.1180  157.9337 C   0  0  0  0  0  0  0  0  0  0  0  0
  152.7689  145.4518  160.1131 H   0  0  0  0  0  0  0  0  0  0  0  0
  151.1502  145.5198  159.4089 H   0  0  0  0  0  0  0  0  0  0  0  0
  152.5737  145.6821  158.3728 H   0  0  0  0  0  0  0  0  0  0  0  0
  153.4184  143.2405  160.7531 H   0  0  0  0  0  0  0  0  0  0  0  0
  153.4250  140.7966  160.3838 H   0  0  0  0  0  0  0  0  0  0  0  0
  152.6376  139.1402  157.4188 H   0  0  0  0  0  0  0  0  0  0  0  0
  151.1890  138.9824  158.4202 H   0  0  0  0  0  0  0  0  0  0  0  0
  152.7893  138.8704  159.1570 H   0  0  0  0  0  0  0  0  0  0  0  0
  150.1349  142.8692  155.8455 H   0  0  0  0  0  0  0  0  0  0  0  0
  151.3666  142.0396  154.8839 H   0  0  0  0  0  0  0  0  0  0  0  0
  148.9061  141.8699  154.0745 H   0  0  0  0  0  0  0  0  0  0  0  0
  149.5557  140.0910  153.1429 H   0  0  0  0  0  0  0  0  0  0  0  0
  147.9514  139.5843  155.2422 H   0  0  0  0  0  0  0  0  0  0  0  0
  148.8551  140.1383  156.5913 H   0  0  0  0  0  0  0  0  0  0  0  0
  147.7597  141.0244  158.1090 H   0  0  0  0  0  0  0  0  0  0  0  0
  143.3619  143.7616  157.4110 H   0  0  0  0  0  0  0  0  0  0  0  0
  144.5355  145.0890  157.3867 H   0  0  0  0  0  0  0  0  0  0  0  0
  144.4385  144.0176  158.7830 H   0  0  0  0  0  0  0  0  0  0  0  0
  145.3193  144.4181  154.0703 H   0  0  0  0  0  0  0  0  0  0  0  0
  143.9357  144.4209  155.1550 H   0  0  0  0  0  0  0  0  0  0  0  0
  144.1609  143.0862  154.0349 H   0  0  0  0  0  0  0  0  0  0  0  0
  150.9570  143.7910  157.2765 H   0  0  0  0  0  0  0  0  0  0  0  0
  1  2  1  0  0  0  0
  1 23  1  0  0  0  0
  1 24  1  0  0  0  0
  1 25  1  0  0  0  0
  2 22  1  0  0  0  0
  2  3  2  0  0  0  0
  3  4  1  0  0  0  0
  3 26  1  0  0  0  0
  4  5  2  0  0  0  0
  4 27  1  0  0  0  0
  5  6  1  0  0  0  0
  5  7  1  0  0  0  0
  6 28  1  0  0  0  0
  6 29  1  0  0  0  0
  6 30  1  0  0  0  0
  7  8  1  0  0  0  0
  7 22  2  0  0  0  0
  8  9  1  0  0  0  0
  9 10  1  0  0  0  0
  9 31  1  0  0  0  0
  9 32  1  0  0  0  0
 10 11  1  0  0  0  0
 10 12  1  0  0  0  0
 10 33  1  0  0  0  0
 11 34  1  0  0  0  0
 12 13  1  0  0  0  0
 12 35  1  0  0  0  0
 12 36  1  0  0  0  0
 13 20  1  0  0  0  0
 13 14  1  0  0  0  0
 14 15  2  0  0  0  0
 14 37  1  0  0  0  0
 15 16  1  0  0  0  0
 16 17  1  0  0  0  0
 16 18  2  0  0  0  0
 17 38  1  0  0  0  0
 17 39  1  0  0  0  0
 17 40  1  0  0  0  0
 18 19  1  0  0  0  0
 18 20  1  0  0  0  0
 19 41  1  0  0  0  0
 19 42  1  0  0  0  0
 19 43  1  0  0  0  0
 20 21  2  0  0  0  0
 22 44  1  0  0  0  0
M  END
> <s_m_source_file>
AV-unprocessed.smi

> <i_m_source_file_index>
2284

> <i_lp_mmshare_version>
43012

> <i_f3d_flags>
0

> <s_epik_input>
W0NIM11jMVtjSF1bY0hdYyhbQ0gzXSljKFtjSF0xKU9bQ0gyXVtDQEhdKFtPSF0pW0NIMl1uMltjSF1uYyhbQ0gzXSljKFtDSDNdKWMyPU8=

> <s_epik_cmdline>
J2VwaWtfcHl0aG9uJywgJy1waCcsICc3LjAnLCAnLXRuJywgJzgnLCAnLW1hJywgJzIwMCcsICctbWV0YWxfYmluZGluZycsICctaW1hZScsICc8aW5maWxlLm1hZT4nLCAnLW9tYWUnLCAnPG91dGZpbGUubWFlPic=

> <r_lp_tautomer_probability>
1

> <r_epik_Ionization_Penalty>
3.7476e-05

> <r_epik_Ionization_Penalty_Charging>
8.44705e-08

> <r_epik_Ionization_Penalty_Neutral>
3.73915e-05

> <r_epik_State_Penalty>
-0

> <r_epik_Charging_Adjusted_Penalty>
8.44705e-08

> <i_epik_Tot_Q>
0

> <i_epik_Tot_abs_Q>
0

> <r_epik_Metal_State_Penalty>
-0

> <b_epik_Metal_Only>
0

> <s_lp_Force_Field>
OPLS_2005

> <r_lp_Energy>
21.7941

> <b_lp_Chiralities_Consistent>
1

> <s_lp_Variant>
AV-unprocessed.smi:2284-2

> <Gold.Version>
5.8.1

> <Gold.Id.Protein>
6NUR|6NUR_protein|mol2

> <Gold.PLP.Fitness>
46.9373

> <Gold.PLP.PLP>
-43.0092

> <Gold.PLP.part.hbond>
-2.0000

> <Gold.PLP.part.metal>
0.0000

> <Gold.PLP.part.buried>
-6.0205

> <Gold.PLP.part.nonpolar>
-34.8512

> <Gold.PLP.part.repulsive>
0.3537

> <Gold.PLP.ligand.clash>
0.0000

> <Gold.PLP.ligand.torsion>
0.8953

> <Gold.PLP.Chemscore.Hbond>
1.8873

> <Gold.PLP.Chemscore.CHOScore>
0.0000

> <Gold.PLP.Chemscore.Metal>
0.0000

> <Gold.Chemscore.Hbonds>
donor molecule, donor type, donor heavy atom, donor atom, acceptor molecule, acceptor atom, score
      L1  H    11    34       P1  7957  0.98
      P1  H  7989  7998       L1    11  0.85

> <Gold.PLP.Chemscore.Internal.Correction>
0.0570

> <Gold.Rescore>
     Score         DG    S(hbond)    S(metal)    S(lipo)     H(rot)  DE(clash)    DE(int)     intcor
     13.31     -16.24       1.09        0.00     111.81       2.32       0.89       2.04       ----

> <Gold.Chemscore.Fitness>
13.3144

> <Gold.Chemscore.DG>
-16.2437

> <Gold.Chemscore.ZeroCoef>
-5.4800

> <Gold.Chemscore.Hbond>
1.0870

> <Gold.Chemscore.Metal>
0.0000

> <Gold.Chemscore.Lipo>
111.8071

> <Gold.Chemscore.Internal_Hbond>
0.0000

> <Gold.Chemscore.DEClash>
0.8923

> <Gold.Chemscore.DEInternal>
2.0370

> <Gold.Chemscore.Rot>
2.3236

> <Gold.Chemscore.Internal.Correction>
   9.000000E+99

> <Gold.Chemscore.Hbonds>
donor molecule, donor type, donor heavy atom, donor atom, acceptor molecule, acceptor atom, score
      L1  H    11    34       P1  7957  0.91
      P1  H  7989  7998       L1    11  0.14

> <Gold.Chemscore.Hbond.Weighted>
-3.6307

> <Gold.Chemscore.Metal.Weighted>
-0.0000

> <Gold.Chemscore.Lipo.Weighted>
-13.0814

> <Gold.Chemscore.Internal_Hbond.Weighted>
0.0000

> <Gold.Chemscore.DEClash.Weighted>
0.8923

> <Gold.Chemscore.DEInternal.Weighted>
2.0370

> <Gold.Chemscore.Rot.Weighted>
5.9484

> <Gold.Chemscore.Internal.Correction.Weighted>
   9.000000E+99

> <Gold.Protein.RotatedTorsions>
[ 6907 6896 6895 6894 ] final  152.73 input  -60.11 | X-H torsion
[ 7974 7965 7964 7962 ] final    5.22 input  175.53 | X-H torsion
[ 8008 7997 7996 7995 ] final    4.72 input   59.86 | X-H torsion
[ 10167 10162 10161 10158 ] final -142.72 input  -65.29 | X-H torsion
[ 10718 10713 10712 10709 ] final  -90.59 input   66.30 | X-H torsion
[ 10763 10752 10751 10750 ] final -163.71 input  -60.55 | X-H torsion
[ 11005 11000 10999 10996 ] final  158.56 input  -57.11 | X-H torsion

> <Gold.Protein.ActiveResidues>
 VAL166  LYS551  ARG553  GLY616  TRP617  ASP618  TYR619  PRO620  LYS621  CYS622 
 ASP623  PHE694  ASN695  SER759  ASP760  ASP761  ALA762  ILE779  LEU786  VAL792 
 PHE793  MET794  SER795  GLU796  ALA797  LYS798  CYS799  TRP800  GLU811  SER814 

> <Gold.Protein.RotatedAtoms>
  152.0826  133.4160  159.4507 H   0  0  0  0  0  0  0  0  0  0  0  0  # atno 6907 bound_to 6896
  150.6862  134.2965  159.4697 H   0  0  0  0  0  0  0  0  0  0  0  0  # atno 6908 bound_to 6896
  152.0808  134.9472  160.0624 H   0  0  0  0  0  0  0  0  0  0  0  0  # atno 6909 bound_to 6896
  146.2441  140.0416  142.8381 H   0  0  0  0  0  0  0  0  0  0  0  0  # atno 7974 bound_to 7965
  154.7194  140.2708  155.6555 H   0  0  0  0  0  0  0  0  0  0  0  0  # atno 8008 bound_to 7997
  156.2819  140.2737  156.1786 H   0  0  0  0  0  0  0  0  0  0  0  0  # atno 8009 bound_to 7997
  155.0527  140.0371  157.2539 H   0  0  0  0  0  0  0  0  0  0  0  0  # atno 8010 bound_to 7997
  139.8062  143.7765  152.2661 H   0  0  0  0  0  0  0  0  0  0  0  0  # atno 10167 bound_to 10162
  155.9988  130.4915  150.5346 H   0  0  0  0  0  0  0  0  0  0  0  0  # atno 10718 bound_to 10713
  154.7097  135.3004  154.9216 H   0  0  0  0  0  0  0  0  0  0  0  0  # atno 10763 bound_to 10752
  154.0122  135.6693  153.4770 H   0  0  0  0  0  0  0  0  0  0  0  0  # atno 10764 bound_to 10752
  153.0745  135.5042  154.8288 H   0  0  0  0  0  0  0  0  0  0  0  0  # atno 10765 bound_to 10752
  140.1877  134.8430  157.2876 H   0  0  0  0  0  0  0  0  0  0  0  0  # atno 11005 bound_to 11000
  145.1064  140.9378  143.4682 LP  0  0  0  0  0  0  0  0  0  0  0  0  # atno 17320 bound_to 7965
  145.0620  139.3098  143.5875 LP  0  0  0  0  0  0  0  0  0  0  0  0  # atno 17321 bound_to 7965
  139.7900  144.7413  150.9968 LP  0  0  0  0  0  0  0  0  0  0  0  0  # atno 17342 bound_to 10162
  140.7819  143.4452  151.0494 LP  0  0  0  0  0  0  0  0  0  0  0  0  # atno 17343 bound_to 10162
  157.3290  131.0696  151.1875 LP  0  0  0  0  0  0  0  0  0  0  0  0  # atno 17370 bound_to 10713
  157.2762  130.6728  149.6043 LP  0  0  0  0  0  0  0  0  0  0  0  0  # atno 17371 bound_to 10713
  140.2195  134.4041  155.7573 LP  0  0  0  0  0  0  0  0  0  0  0  0  # atno 17394 bound_to 11000
  141.2225  133.7159  156.8467 LP  0  0  0  0  0  0  0  0  0  0  0  0  # atno 17395 bound_to 11000

$$$$
