AV-unprocessed.smi:1986|AV-procd|sdf|8051|dock5
  -GOLD-   2272010253D 1   1.00000     0.00000
 Structure written by MMmdl.
 47 48  0  0  0  0  0  0  0  0  1 V2000
  151.3441  140.9031  155.9046 C   0  0  0  0  0  0  0  0  0  0  0  0
  150.2933  141.8441  156.5216 C   0  0  0  0  0  0  0  0  0  0  0  0
  149.8470  141.4959  157.9773 C   0  0  2  0  0  0  0  0  0  0  0  0
  149.5210  139.9773  157.9828 C   0  0  0  0  0  0  0  0  0  0  0  0
  148.5379  142.2930  158.2897 C   0  0  0  0  0  0  0  0  0  0  0  0
  147.4444  142.0256  157.3550 N   0  0  0  0  0  0  0  0  0  0  0  0
  146.2590  142.6541  157.3354 C   0  0  0  0  0  0  0  0  0  0  0  0
  145.9714  143.5749  158.1016 O   0  0  0  0  0  0  0  0  0  0  0  0
  145.2534  142.1591  156.2862 C   0  0  0  0  0  0  0  0  0  0  0  0
  144.9587  143.1665  155.2573 N   0  0  0  0  0  0  0  0  0  0  0  0
  143.9845  144.0799  155.6317 N   0  0  0  0  0  0  0  0  0  0  0  0
  143.6518  145.0340  154.8298 C   0  0  0  0  0  0  0  0  0  0  0  0
  142.6858  145.9184  155.2434 O   0  0  0  0  0  0  0  0  0  0  0  0
  144.2747  145.1718  153.5316 C   0  0  0  0  0  0  0  0  0  0  0  0
  145.2205  144.2757  153.1744 C   0  0  0  0  0  0  0  0  0  0  0  0
  145.6257  143.1842  154.0623 C   0  0  0  0  0  0  0  0  0  0  0  0
  146.4907  142.3610  153.7647 O   0  0  0  0  0  0  0  0  0  0  0  0
  150.9307  141.7957  158.9561 N   0  0  0  0  0  0  0  0  0  0  0  0
  151.3544  143.2001  159.0098 C   0  0  0  0  0  0  0  0  0  0  0  0
  152.3661  143.4535  160.1404 C   0  0  0  0  0  0  0  0  0  0  0  0
  153.4909  142.5980  159.9785 O   0  0  0  0  0  0  0  0  0  0  0  0
  153.1303  141.2220  159.9776 C   0  0  0  0  0  0  0  0  0  0  0  0
  152.1261  140.9512  158.8445 C   0  0  0  0  0  0  0  0  0  0  0  0
  141.9252  145.7255  154.7174 H   0  0  0  0  0  0  0  0  0  0  0  0
  151.6034  141.2307  154.8978 H   0  0  0  0  0  0  0  0  0  0  0  0
  150.9758  139.8805  155.8266 H   0  0  0  0  0  0  0  0  0  0  0  0
  152.2655  140.8849  156.4867 H   0  0  0  0  0  0  0  0  0  0  0  0
  150.6684  142.8664  156.4757 H   0  0  0  0  0  0  0  0  0  0  0  0
  149.4289  141.8432  155.8568 H   0  0  0  0  0  0  0  0  0  0  0  0
  148.9209  139.6820  157.1215 H   0  0  0  0  0  0  0  0  0  0  0  0
  148.9534  139.6857  158.8668 H   0  0  0  0  0  0  0  0  0  0  0  0
  150.4262  139.3699  157.9638 H   0  0  0  0  0  0  0  0  0  0  0  0
  148.1991  142.1082  159.3092 H   0  0  0  0  0  0  0  0  0  0  0  0
  148.7243  143.3649  158.2331 H   0  0  0  0  0  0  0  0  0  0  0  0
  147.5950  141.2850  156.6854 H   0  0  0  0  0  0  0  0  0  0  0  0
  145.6367  141.2400  155.8402 H   0  0  0  0  0  0  0  0  0  0  0  0
  144.3262  141.8724  156.7865 H   0  0  0  0  0  0  0  0  0  0  0  0
  143.9842  145.9743  152.8697 H   0  0  0  0  0  0  0  0  0  0  0  0
  145.6940  144.3661  152.2078 H   0  0  0  0  0  0  0  0  0  0  0  0
  151.8075  143.4963  158.0639 H   0  0  0  0  0  0  0  0  0  0  0  0
  150.5040  143.8594  159.1738 H   0  0  0  0  0  0  0  0  0  0  0  0
  152.7013  144.4905  160.1230 H   0  0  0  0  0  0  0  0  0  0  0  0
  151.9065  143.2825  161.1152 H   0  0  0  0  0  0  0  0  0  0  0  0
  154.0277  140.6190  159.8398 H   0  0  0  0  0  0  0  0  0  0  0  0
  152.7052  140.9482  160.9446 H   0  0  0  0  0  0  0  0  0  0  0  0
  151.8643  139.8953  158.8766 H   0  0  0  0  0  0  0  0  0  0  0  0
  152.6240  141.1251  157.8907 H   0  0  0  0  0  0  0  0  0  0  0  0
  1  2  1  0  0  0  0
  1 25  1  0  0  0  0
  1 26  1  0  0  0  0
  1 27  1  0  0  0  0
  2  3  1  0  0  0  0
  2 28  1  0  0  0  0
  2 29  1  0  0  0  0
  3  4  1  0  0  0  0
  3  5  1  0  0  0  0
  3 18  1  0  0  0  0
  4 30  1  0  0  0  0
  4 31  1  0  0  0  0
  4 32  1  0  0  0  0
  5  6  1  0  0  0  0
  5 33  1  0  0  0  0
  5 34  1  0  0  0  0
  6  7  1  0  0  0  0
  6 35  1  0  0  0  0
  7  8  2  0  0  0  0
  7  9  1  0  0  0  0
  9 36  1  0  0  0  0
  9 37  1  0  0  0  0
  9 10  1  0  0  0  0
 10 11  1  0  0  0  0
 10 16  1  0  0  0  0
 11 12  2  0  0  0  0
 12 13  1  0  0  0  0
 12 14  1  0  0  0  0
 13 24  1  0  0  0  0
 14 38  1  0  0  0  0
 14 15  2  0  0  0  0
 15 39  1  0  0  0  0
 15 16  1  0  0  0  0
 16 17  2  0  0  0  0
 18 23  1  0  0  0  0
 18 19  1  0  0  0  0
 19 20  1  0  0  0  0
 19 40  1  0  0  0  0
 19 41  1  0  0  0  0
 20 21  1  0  0  0  0
 20 42  1  0  0  0  0
 20 43  1  0  0  0  0
 21 22  1  0  0  0  0
 22 23  1  0  0  0  0
 22 44  1  0  0  0  0
 22 45  1  0  0  0  0
 23 46  1  0  0  0  0
 23 47  1  0  0  0  0
M  END
> <s_m_source_file>
AV-unprocessed.smi

> <i_m_source_file_index>
1986

> <i_lp_mmshare_version>
43012

> <i_f3d_flags>
0

> <s_epik_input>
W0NIMl0xW0NIMl1PW0NIMl1bQ0gyXU4xW0NAQF0oW0NIM10pKFtDSDJdW0NIM10pW0NIMl1bTkhdQyg9TylbQ0gyXW4yW25IXWMoPU8pW2NIXVtjSF1jMj1P

> <s_epik_cmdline>
J2VwaWtfcHl0aG9uJywgJy1waCcsICc3LjAnLCAnLXRuJywgJzgnLCAnLW1hJywgJzIwMCcsICctbWV0YWxfYmluZGluZycsICctaW1hZScsICc8aW5maWxlLm1hZT4nLCAnLW9tYWUnLCAnPG91dGZpbGUubWFlPic=

> <r_epik_Ionization_Penalty>
2.44436

> <r_epik_Ionization_Penalty_Charging>
3.63754e-08

> <r_epik_Ionization_Penalty_Neutral>
2.44436

> <r_epik_State_Penalty>
2.04701

> <r_epik_Charging_Adjusted_Penalty>
2.04701

> <i_epik_Tot_Q>
0

> <i_epik_Tot_abs_Q>
0

> <r_epik_Metal_State_Penalty>
2.04701

> <b_epik_Metal_Only>
0

> <s_lp_Force_Field>
OPLS_2005

> <r_lp_Energy>
53.8062

> <b_lp_Chiralities_Consistent>
1

> <s_lp_Variant>
AV-unprocessed.smi:1986-6

> <Gold.Version>
5.8.1

> <Gold.Id.Protein>
6NUR|6NUR_protein|mol2

> <Gold.PLP.Fitness>
38.6740

> <Gold.PLP.PLP>
-39.6000

> <Gold.PLP.part.hbond>
0.0000

> <Gold.PLP.part.metal>
0.0000

> <Gold.PLP.part.buried>
-7.6495

> <Gold.PLP.part.nonpolar>
-32.2934

> <Gold.PLP.part.repulsive>
1.8571

> <Gold.PLP.ligand.clash>
0.0000

> <Gold.PLP.ligand.torsion>
0.5708

> <Gold.PLP.Chemscore.Hbond>
0.0000

> <Gold.PLP.Chemscore.CHOScore>
0.0000

> <Gold.PLP.Chemscore.Metal>
0.0000

> <Gold.PLP.Chemscore.Internal.Correction>
0.2156

> <Gold.Rescore>
     Score         DG    S(hbond)    S(metal)    S(lipo)     H(rot)  DE(clash)    DE(int)     intcor
      6.46      -7.22       0.00        0.00      81.89       3.06       0.15       0.61       ----

> <Gold.Chemscore.Fitness>
6.4637

> <Gold.Chemscore.DG>
-7.2228

> <Gold.Chemscore.ZeroCoef>
-5.4800

> <Gold.Chemscore.Hbond>
0.0000

> <Gold.Chemscore.Metal>
0.0000

> <Gold.Chemscore.Lipo>
81.8934

> <Gold.Chemscore.Internal_Hbond>
0.0000

> <Gold.Chemscore.DEClash>
0.1513

> <Gold.Chemscore.DEInternal>
0.6078

> <Gold.Chemscore.Rot>
3.0620

> <Gold.Chemscore.Internal.Correction>
   9.000000E+99

> <Gold.Chemscore.Hbond.Weighted>
-0.0000

> <Gold.Chemscore.Metal.Weighted>
-0.0000

> <Gold.Chemscore.Lipo.Weighted>
-9.5815

> <Gold.Chemscore.Internal_Hbond.Weighted>
0.0000

> <Gold.Chemscore.DEClash.Weighted>
0.1513

> <Gold.Chemscore.DEInternal.Weighted>
0.6078

> <Gold.Chemscore.Rot.Weighted>
7.8387

> <Gold.Chemscore.Internal.Correction.Weighted>
   9.000000E+99

> <Gold.Protein.RotatedTorsions>
[ 6907 6896 6895 6894 ] final  166.07 input  -60.11 | X-H torsion
[ 7974 7965 7964 7962 ] final  -80.98 input  175.53 | X-H torsion
[ 8008 7997 7996 7995 ] final  121.56 input   59.86 | X-H torsion
[ 10167 10162 10161 10158 ] final  -33.05 input  -65.29 | X-H torsion
[ 10718 10713 10712 10709 ] final -112.30 input   66.30 | X-H torsion
[ 10763 10752 10751 10750 ] final  -90.13 input  -60.55 | X-H torsion
[ 11005 11000 10999 10996 ] final   86.45 input  -57.11 | X-H torsion

> <Gold.Protein.ActiveResidues>
 VAL166  LYS551  ARG553  GLY616  TRP617  ASP618  TYR619  PRO620  LYS621  CYS622 
 ASP623  PHE694  ASN695  SER759  ASP760  ASP761  ALA762  ILE779  LEU786  VAL792 
 PHE793  MET794  SER795  GLU796  ALA797  LYS798  CYS799  TRP800  GLU811  SER814 

> <Gold.Protein.RotatedAtoms>
  151.8846  133.3503  159.3777 H   0  0  0  0  0  0  0  0  0  0  0  0  # atno 6907 bound_to 6896
  150.7118  134.4984  159.5559 H   0  0  0  0  0  0  0  0  0  0  0  0  # atno 6908 bound_to 6896
  152.2542  134.8101  160.0492 H   0  0  0  0  0  0  0  0  0  0  0  0  # atno 6909 bound_to 6896
  145.5527  140.9494  143.1490 H   0  0  0  0  0  0  0  0  0  0  0  0  # atno 7974 bound_to 7965
  156.2691  140.2805  156.1327 H   0  0  0  0  0  0  0  0  0  0  0  0  # atno 8008 bound_to 7997
  155.1037  140.0390  157.2722 H   0  0  0  0  0  0  0  0  0  0  0  0  # atno 8009 bound_to 7997
  154.6796  140.2605  155.6928 H   0  0  0  0  0  0  0  0  0  0  0  0  # atno 8010 bound_to 7997
  140.7211  143.3649  151.1890 H   0  0  0  0  0  0  0  0  0  0  0  0  # atno 10167 bound_to 10162
  156.0698  130.5913  150.8490 H   0  0  0  0  0  0  0  0  0  0  0  0  # atno 10718 bound_to 10713
  154.6625  135.5315  153.8036 H   0  0  0  0  0  0  0  0  0  0  0  0  # atno 10763 bound_to 10752
  153.0451  135.6509  154.0849 H   0  0  0  0  0  0  0  0  0  0  0  0  # atno 10764 bound_to 10752
  154.0757  135.2951  155.3280 H   0  0  0  0  0  0  0  0  0  0  0  0  # atno 10765 bound_to 10752
  139.8944  134.8356  156.2722 H   0  0  0  0  0  0  0  0  0  0  0  0  # atno 11005 bound_to 11000
  144.7521  139.7166  143.7269 LP  0  0  0  0  0  0  0  0  0  0  0  0  # atno 17320 bound_to 7965
  146.1906  139.5144  142.9808 LP  0  0  0  0  0  0  0  0  0  0  0  0  # atno 17321 bound_to 7965
  139.7209  143.9225  152.2985 LP  0  0  0  0  0  0  0  0  0  0  0  0  # atno 17342 bound_to 10162
  139.8982  144.6927  150.8694 LP  0  0  0  0  0  0  0  0  0  0  0  0  # atno 17343 bound_to 10162
  157.5761  131.0946  150.9343 LP  0  0  0  0  0  0  0  0  0  0  0  0  # atno 17370 bound_to 10713
  156.9548  130.5433  149.5283 LP  0  0  0  0  0  0  0  0  0  0  0  0  # atno 17371 bound_to 10713
  141.0093  133.7105  156.1086 LP  0  0  0  0  0  0  0  0  0  0  0  0  # atno 17394 bound_to 11000
  140.7389  134.4172  157.5557 LP  0  0  0  0  0  0  0  0  0  0  0  0  # atno 17395 bound_to 11000

$$$$
