AV-unprocessed.smi:1006|AV-procd|sdf|4394|dock6
  -GOLD-   22720 2323D 1   1.00000     0.00000
 Structure written by MMmdl.
 46 48  0  0  0  0  0  0  0  0  2 V2000
  150.9926  131.0183  156.3324 C   0  0  0  0  0  0  0  0  0  0  0  0
  150.3373  132.1415  155.5573 C   0  0  0  0  0  0  0  0  0  0  0  0
  149.6691  131.9049  154.3358 C   0  0  0  0  0  0  0  0  0  0  0  0
  149.0958  133.0316  153.7094 C   0  0  0  0  0  0  0  0  0  0  0  0
  148.4152  132.9057  152.5012 N   0  0  0  0  0  0  0  0  0  0  0  0
  149.1788  134.2662  154.2501 N   0  0  0  0  0  0  0  0  0  0  0  0
  149.8397  134.3616  155.4064 C   0  0  0  0  0  0  0  0  0  0  0  0
  149.9170  135.9771  156.1338 S   0  0  0  0  0  0  0  0  0  0  0  0
  150.6929  136.8598  154.7531 C   0  0  0  0  0  0  0  0  0  0  0  0
  150.4992  138.3852  154.8348 C   0  0  2  0  0  0  0  0  0  0  0  0
  150.7300  138.9584  153.5641 O   0  0  0  0  0  0  0  0  0  0  0  0
  151.4371  139.0789  155.8438 C   0  0  0  0  0  0  0  0  0  0  0  0
  151.0605  140.4742  156.1113 N   0  0  0  0  0  0  0  0  0  0  0  0
  150.1985  141.2815  155.4356 C   0  0  0  0  0  0  0  0  0  0  0  0
  150.1751  142.4838  156.0743 N   0  3  0  0  0  0  0  0  0  0  0  0
  151.0338  142.4444  157.1747 C   0  0  0  0  0  0  0  0  0  0  0  0
  151.3400  143.4117  158.1245 C   0  0  0  0  0  0  0  0  0  0  0  0
  152.2562  143.0527  159.1387 C   0  0  0  0  0  0  0  0  0  0  0  0
  152.6079  144.0845  160.1969 C   0  0  0  0  0  0  0  0  0  0  0  0
  152.8347  141.7576  159.1744 C   0  0  0  0  0  0  0  0  0  0  0  0
  153.8102  141.3776  160.2754 C   0  0  0  0  0  0  0  0  0  0  0  0
  152.5171  140.7911  158.1938 C   0  0  0  0  0  0  0  0  0  0  0  0
  151.6090  141.1590  157.2032 C   0  0  0  0  0  0  0  0  0  0  0  0
  150.4213  133.3783  156.0959 N   0  0  0  0  0  0  0  0  0  0  0  0
  150.8628  130.0620  155.8251 H   0  0  0  0  0  0  0  0  0  0  0  0
  150.5541  130.9382  157.3275 H   0  0  0  0  0  0  0  0  0  0  0  0
  152.0613  131.2048  156.4403 H   0  0  0  0  0  0  0  0  0  0  0  0
  149.6023  130.9166  153.9046 H   0  0  0  0  0  0  0  0  0  0  0  0
  148.3141  132.0112  152.0438 H   0  0  0  0  0  0  0  0  0  0  0  0
  148.0911  133.7177  151.9962 H   0  0  0  0  0  0  0  0  0  0  0  0
  151.7537  136.6114  154.7724 H   0  0  0  0  0  0  0  0  0  0  0  0
  150.2911  136.4716  153.8165 H   0  0  0  0  0  0  0  0  0  0  0  0
  149.4657  138.5974  155.1119 H   0  0  0  0  0  0  0  0  0  0  0  0
  149.9034  139.0402  153.1135 H   0  0  0  0  0  0  0  0  0  0  0  0
  151.4813  138.5313  156.7854 H   0  0  0  0  0  0  0  0  0  0  0  0
  152.4556  139.0938  155.4533 H   0  0  0  0  0  0  0  0  0  0  0  0
  149.6320  141.0145  154.5551 H   0  0  0  0  0  0  0  0  0  0  0  0
  150.8925  144.3944  158.0928 H   0  0  0  0  0  0  0  0  0  0  0  0
  153.6832  144.2642  160.2160 H   0  0  0  0  0  0  0  0  0  0  0  0
  152.2954  143.7412  161.1838 H   0  0  0  0  0  0  0  0  0  0  0  0
  152.1157  145.0383  160.0034 H   0  0  0  0  0  0  0  0  0  0  0  0
  154.1370  140.3417  160.1790 H   0  0  0  0  0  0  0  0  0  0  0  0
  153.3448  141.4882  161.2550 H   0  0  0  0  0  0  0  0  0  0  0  0
  154.6960  142.0118  160.2377 H   0  0  0  0  0  0  0  0  0  0  0  0
  152.9574  139.8056  158.2259 H   0  0  0  0  0  0  0  0  0  0  0  0
  149.6098  143.2704  155.7810 H   0  0  0  0  0  0  0  0  0  0  0  0
  1  2  1  0  0  0  0
  1 25  1  0  0  0  0
  1 26  1  0  0  0  0
  1 27  1  0  0  0  0
  2 24  1  0  0  0  0
  2  3  2  0  0  0  0
  3  4  1  0  0  0  0
  3 28  1  0  0  0  0
  4  5  1  0  0  0  0
  4  6  2  0  0  0  0
  5 29  1  0  0  0  0
  5 30  1  0  0  0  0
  6  7  1  0  0  0  0
  7  8  1  0  0  0  0
  7 24  2  0  0  0  0
  8  9  1  0  0  0  0
  9 10  1  0  0  0  0
  9 31  1  0  0  0  0
  9 32  1  0  0  0  0
 10 11  1  0  0  0  0
 10 12  1  0  0  0  0
 10 33  1  0  0  0  0
 11 34  1  0  0  0  0
 12 13  1  0  0  0  0
 12 35  1  0  0  0  0
 12 36  1  0  0  0  0
 13 23  1  0  0  0  0
 13 14  1  0  0  0  0
 14 15  2  0  0  0  0
 14 37  1  0  0  0  0
 15 16  1  0  0  0  0
 15 46  1  0  0  0  0
 16 23  2  0  0  0  0
 16 17  1  0  0  0  0
 17 18  2  0  0  0  0
 17 38  1  0  0  0  0
 18 19  1  0  0  0  0
 18 20  1  0  0  0  0
 19 39  1  0  0  0  0
 19 40  1  0  0  0  0
 19 41  1  0  0  0  0
 20 21  1  0  0  0  0
 20 22  2  0  0  0  0
 21 42  1  0  0  0  0
 21 43  1  0  0  0  0
 21 44  1  0  0  0  0
 22 23  1  0  0  0  0
 22 45  1  0  0  0  0
M  CHG  1  15   1
M  END
> <s_m_source_file>
AV-unprocessed.smi

> <i_m_source_file_index>
1006

> <i_lp_mmshare_version>
43012

> <i_f3d_flags>
0

> <s_epik_input>
W0NIM11jMVtjSF1jKFtOSDJdKW5jKG4xKVNbQ0gyXVtDQEhdKFtPSF0pW0NIMl1uKFtjSF1uMiljKGMyMylbY0hdYyhbQ0gzXSljKFtjSF0zKVtDSDNd

> <s_epik_cmdline>
J2VwaWtfcHl0aG9uJywgJy1waCcsICc3LjAnLCAnLXRuJywgJzgnLCAnLW1hJywgJzIwMCcsICctbWV0YWxfYmluZGluZycsICctaW1hZScsICc8aW5maWxlLm1hZT4nLCAnLW9tYWUnLCAnPG91dGZpbGUubWFlPic=

> <r_epik_Ionization_Penalty>
1.4378

> <r_epik_Ionization_Penalty_Charging>
1.06724

> <r_epik_Ionization_Penalty_Neutral>
0.370564

> <r_epik_State_Penalty>
1.48666

> <r_epik_Charging_Adjusted_Penalty>
2.5539

> <i_epik_Tot_Q>
1

> <i_epik_Tot_abs_Q>
1

> <r_epik_Metal_State_Penalty>
1.38026

> <b_epik_Metal_Only>
0

> <s_lp_Force_Field>
OPLS_2005

> <r_lp_Energy>
8.71661

> <b_lp_Chiralities_Consistent>
1

> <s_lp_Variant>
AV-unprocessed.smi:1006-5

> <Gold.Version>
5.8.1

> <Gold.Id.Protein>
6NUR|6NUR_protein|mol2

> <Gold.PLP.Fitness>
58.9695

> <Gold.PLP.PLP>
-47.2425

> <Gold.PLP.part.hbond>
-4.2320

> <Gold.PLP.part.metal>
0.0000

> <Gold.PLP.part.buried>
-1.5657

> <Gold.PLP.part.nonpolar>
-40.1672

> <Gold.PLP.part.repulsive>
1.5053

> <Gold.PLP.ligand.clash>
0.0000

> <Gold.PLP.ligand.torsion>
0.4861

> <Gold.PLP.Chemscore.Hbond>
4.2222

> <Gold.PLP.Chemscore.CHOScore>
0.0000

> <Gold.PLP.Chemscore.Metal>
0.0000

> <Gold.Chemscore.Hbonds>
donor molecule, donor type, donor heavy atom, donor atom, acceptor molecule, acceptor atom, score
      L1  H     5    29       P1 10747  0.48
      L1  H    11    34       P1  7957  0.28
      L1  H    15    46       P1  8028  2.00
      P1  H  7989  7998       L1    11  0.73

> <Gold.PLP.Chemscore.Internal.Correction>
0.0325

> <Gold.Rescore>
     Score         DG    S(hbond)    S(metal)    S(lipo)     H(rot)  DE(clash)    DE(int)     intcor
     18.39     -20.55       2.74        0.00     113.85       2.89       1.70       0.46       ----

> <Gold.Chemscore.Fitness>
18.3869

> <Gold.Chemscore.DG>
-20.5498

> <Gold.Chemscore.ZeroCoef>
-5.4800

> <Gold.Chemscore.Hbond>
2.7395

> <Gold.Chemscore.Metal>
0.0000

> <Gold.Chemscore.Lipo>
113.8540

> <Gold.Chemscore.Internal_Hbond>
0.0000

> <Gold.Chemscore.DEClash>
1.7039

> <Gold.Chemscore.DEInternal>
0.4589

> <Gold.Chemscore.Rot>
2.8910

> <Gold.Chemscore.Internal.Correction>
   9.000000E+99

> <Gold.Chemscore.Hbonds>
donor molecule, donor type, donor heavy atom, donor atom, acceptor molecule, acceptor atom, score
      L1  H     5    29       P1 10747  0.47
      L1  H    11    34       P1  7957  0.27
      L1  H    15    46       P1  8028  0.99
      P1  H  7989  7998       L1    11  0.37

> <Gold.Chemscore.Hbond.Weighted>
-9.1498

> <Gold.Chemscore.Metal.Weighted>
-0.0000

> <Gold.Chemscore.Lipo.Weighted>
-13.3209

> <Gold.Chemscore.Internal_Hbond.Weighted>
0.0000

> <Gold.Chemscore.DEClash.Weighted>
1.7039

> <Gold.Chemscore.DEInternal.Weighted>
0.4589

> <Gold.Chemscore.Rot.Weighted>
7.4009

> <Gold.Chemscore.Internal.Correction.Weighted>
   9.000000E+99

> <Gold.Protein.RotatedTorsions>
[ 6907 6896 6895 6894 ] final -176.68 input  -60.11 | X-H torsion
[ 7974 7965 7964 7962 ] final  139.12 input  175.53 | X-H torsion
[ 8008 7997 7996 7995 ] final  -71.36 input   59.86 | X-H torsion
[ 10167 10162 10161 10158 ] final  -93.09 input  -65.29 | X-H torsion
[ 10718 10713 10712 10709 ] final -161.31 input   66.30 | X-H torsion
[ 10763 10752 10751 10750 ] final  -83.94 input  -60.55 | X-H torsion
[ 11005 11000 10999 10996 ] final   15.98 input  -57.11 | X-H torsion

> <Gold.Protein.ActiveResidues>
 VAL166  LYS551  ARG553  GLY616  TRP617  ASP618  TYR619  PRO620  LYS621  CYS622 
 ASP623  PHE694  ASN695  SER759  ASP760  ASP761  ALA762  ILE779  LEU786  VAL792 
 PHE793  MET794  SER795  GLU796  ALA797  LYS798  CYS799  TRP800  GLU811  SER814 

> <Gold.Protein.RotatedAtoms>
  151.6087  133.3349  159.3062 H   0  0  0  0  0  0  0  0  0  0  0  0  # atno 6907 bound_to 6896
  150.8168  134.7357  159.6748 H   0  0  0  0  0  0  0  0  0  0  0  0  # atno 6908 bound_to 6896
  152.4263  134.5867  160.0014 H   0  0  0  0  0  0  0  0  0  0  0  0  # atno 6909 bound_to 6896
  144.9308  139.5050  143.5619 H   0  0  0  0  0  0  0  0  0  0  0  0  # atno 7974 bound_to 7965
  154.5082  140.0817  156.7936 H   0  0  0  0  0  0  0  0  0  0  0  0  # atno 8008 bound_to 7997
  155.3846  140.3429  155.4230 H   0  0  0  0  0  0  0  0  0  0  0  0  # atno 8009 bound_to 7997
  156.1541  140.1567  156.8709 H   0  0  0  0  0  0  0  0  0  0  0  0  # atno 8010 bound_to 7997
  140.3282  143.3010  151.9971 H   0  0  0  0  0  0  0  0  0  0  0  0  # atno 10167 bound_to 10162
  156.5945  130.8784  151.2898 H   0  0  0  0  0  0  0  0  0  0  0  0  # atno 10718 bound_to 10713
  154.5937  135.5538  153.7304 H   0  0  0  0  0  0  0  0  0  0  0  0  # atno 10763 bound_to 10752
  153.0127  135.6349  154.1813 H   0  0  0  0  0  0  0  0  0  0  0  0  # atno 10764 bound_to 10752
  154.1753  135.2890  155.3048 H   0  0  0  0  0  0  0  0  0  0  0  0  # atno 10765 bound_to 10752
  140.4522  134.1213  155.7704 H   0  0  0  0  0  0  0  0  0  0  0  0  # atno 11005 bound_to 11000
  146.3246  139.8257  142.8918 LP  0  0  0  0  0  0  0  0  0  0  0  0  # atno 17320 bound_to 7965
  145.3145  141.0228  143.3535 LP  0  0  0  0  0  0  0  0  0  0  0  0  # atno 17321 bound_to 7965
  139.4861  144.6256  151.7170 LP  0  0  0  0  0  0  0  0  0  0  0  0  # atno 17342 bound_to 10162
  140.5421  144.0562  150.6092 LP  0  0  0  0  0  0  0  0  0  0  0  0  # atno 17343 bound_to 10162
  157.7295  130.9672  150.1791 LP  0  0  0  0  0  0  0  0  0  0  0  0  # atno 17370 bound_to 10713
  156.2522  130.3701  149.8220 LP  0  0  0  0  0  0  0  0  0  0  0  0  # atno 17371 bound_to 10713
  141.1659  133.8704  157.1716 LP  0  0  0  0  0  0  0  0  0  0  0  0  # atno 17394 bound_to 11000
  139.9999  135.0032  157.0167 LP  0  0  0  0  0  0  0  0  0  0  0  0  # atno 17395 bound_to 11000

$$$$
