AV-unprocessed.smi:411|AV-procd|sdf|2508|dock5
  -GOLD-   2262022453D 1   1.00000     0.00000
 Structure written by MMmdl.
 35 36  0  0  0  0  0  0  0  0  1 V2000
  150.0360  141.0146  158.0019 O   0  0  0  0  0  0  0  0  0  0  0  0
  150.3085  141.9605  157.2637 C   0  0  0  0  0  0  0  0  0  0  0  0
  151.4327  142.9285  157.6729 C   0  0  0  0  0  0  0  0  0  0  0  0
  152.1313  142.5758  158.9233 N   0  0  0  0  0  0  0  0  0  0  0  0
  152.0282  143.4902  159.9867 C   0  0  0  0  0  0  0  0  0  0  0  0
  152.6129  143.2645  161.1706 C   0  0  0  0  0  0  0  0  0  0  0  0
  153.3656  142.0454  161.3383 C   0  0  0  0  0  0  0  0  0  0  0  0
  153.4785  141.1439  160.3355 C   0  0  0  0  0  0  0  0  0  0  0  0
  154.2711  139.8489  160.4955 C   0  0  0  0  0  0  0  0  0  0  0  0
  153.5290  138.8009  160.1360 F   0  0  0  0  0  0  0  0  0  0  0  0
  155.3634  139.8679  159.7307 F   0  0  0  0  0  0  0  0  0  0  0  0
  154.6608  139.6596  161.7571 F   0  0  0  0  0  0  0  0  0  0  0  0
  152.8266  141.4013  159.0351 C   0  0  0  0  0  0  0  0  0  0  0  0
  152.8890  140.6053  158.0969 O   0  0  0  0  0  0  0  0  0  0  0  0
  149.6647  142.1870  156.1061 N   0  0  0  0  0  0  0  0  0  0  0  0
  148.5751  141.3798  155.5708 C   0  0  2  0  0  0  0  0  0  0  0  0
  148.2694  141.7206  154.0978 C   0  0  0  0  0  0  0  0  0  0  0  0
  146.8993  141.1377  153.7325 C   0  0  0  0  0  0  0  0  0  0  0  0
  145.9077  141.1619  155.2738 S   0  0  0  0  0  0  0  0  0  0  0  0
  144.9544  142.2811  155.2293 O   0  0  0  0  0  0  0  0  0  0  0  0
  145.4569  139.7943  155.5726 O   0  0  0  0  0  0  0  0  0  0  0  0
  147.2942  141.6039  156.3865 C   0  0  0  0  0  0  0  0  0  0  0  0
  152.1434  143.0013  156.8478 H   0  0  0  0  0  0  0  0  0  0  0  0
  151.0009  143.9270  157.7551 H   0  0  0  0  0  0  0  0  0  0  0  0
  151.4416  144.3740  159.7804 H   0  0  0  0  0  0  0  0  0  0  0  0
  152.5206  143.9747  161.9793 H   0  0  0  0  0  0  0  0  0  0  0  0
  153.8410  141.8636  162.2907 H   0  0  0  0  0  0  0  0  0  0  0  0
  149.9515  142.9840  155.5566 H   0  0  0  0  0  0  0  0  0  0  0  0
  148.8358  140.3217  155.6363 H   0  0  0  0  0  0  0  0  0  0  0  0
  148.2290  142.8047  153.9817 H   0  0  0  0  0  0  0  0  0  0  0  0
  149.0477  141.3583  153.4252 H   0  0  0  0  0  0  0  0  0  0  0  0
  146.3929  141.7000  152.9479 H   0  0  0  0  0  0  0  0  0  0  0  0
  146.9946  140.1001  153.4116 H   0  0  0  0  0  0  0  0  0  0  0  0
  147.2554  141.0011  157.2941 H   0  0  0  0  0  0  0  0  0  0  0  0
  147.1754  142.6530  156.6603 H   0  0  0  0  0  0  0  0  0  0  0  0
  1  2  2  0  0  0  0
  2  3  1  0  0  0  0
  2 15  1  0  0  0  0
  3  4  1  0  0  0  0
  3 23  1  0  0  0  0
  3 24  1  0  0  0  0
  4 13  1  0  0  0  0
  4  5  1  0  0  0  0
  5  6  2  0  0  0  0
  5 25  1  0  0  0  0
  6  7  1  0  0  0  0
  6 26  1  0  0  0  0
  7  8  2  0  0  0  0
  7 27  1  0  0  0  0
  8  9  1  0  0  0  0
  8 13  1  0  0  0  0
  9 10  1  0  0  0  0
  9 11  1  0  0  0  0
  9 12  1  0  0  0  0
 13 14  2  0  0  0  0
 15 16  1  0  0  0  0
 15 28  1  0  0  0  0
 16 22  1  0  0  0  0
 16 17  1  0  0  0  0
 16 29  1  0  0  0  0
 17 18  1  0  0  0  0
 17 30  1  0  0  0  0
 17 31  1  0  0  0  0
 18 19  1  0  0  0  0
 18 32  1  0  0  0  0
 18 33  1  0  0  0  0
 19 20  2  0  0  0  0
 19 21  2  0  0  0  0
 19 22  1  0  0  0  0
 22 34  1  0  0  0  0
 22 35  1  0  0  0  0
M  END
> <s_m_source_file>
AV-unprocessed.smi

> <i_m_source_file_index>
411

> <i_lp_mmshare_version>
43012

> <i_f3d_flags>
0

> <s_epik_input>
Tz1TMSg9TylbQ0gyXVtDSDJdW0NASF0oW0NIMl0xKVtOSF1DKD1PKVtDSDJdbjJbY0hdW2NIXVtjSF1jKEMoRikoRilGKWMyPU8=

> <s_epik_cmdline>
J2VwaWtfcHl0aG9uJywgJy1waCcsICc3LjAnLCAnLXRuJywgJzgnLCAnLW1hJywgJzIwMCcsICctbWV0YWxfYmluZGluZycsICctaW1hZScsICc8aW5maWxlLm1hZT4nLCAnLW9tYWUnLCAnPG91dGZpbGUubWFlPic=

> <r_lp_tautomer_probability>
1

> <r_epik_Ionization_Penalty>
1.08759e-07

> <r_epik_Ionization_Penalty_Charging>
1.56656e-09

> <r_epik_Ionization_Penalty_Neutral>
1.07193e-07

> <r_epik_State_Penalty>
-0

> <r_epik_Charging_Adjusted_Penalty>
1.56656e-09

> <i_epik_Tot_Q>
0

> <i_epik_Tot_abs_Q>
0

> <r_epik_Metal_State_Penalty>
-0

> <b_epik_Metal_Only>
0

> <s_lp_Force_Field>
OPLS_2005

> <r_lp_Energy>
11.8943

> <b_lp_Chiralities_Consistent>
1

> <s_lp_Variant>
AV-unprocessed.smi:411-1

> <Gold.Version>
5.8.1

> <Gold.Id.Protein>
6NUR|6NUR_protein|mol2

> <Gold.PLP.Fitness>
44.1422

> <Gold.PLP.PLP>
-41.5379

> <Gold.PLP.part.hbond>
-2.0000

> <Gold.PLP.part.metal>
0.0000

> <Gold.PLP.part.buried>
-3.8045

> <Gold.PLP.part.nonpolar>
-36.5985

> <Gold.PLP.part.repulsive>
0.3604

> <Gold.PLP.ligand.clash>
0.1197

> <Gold.PLP.ligand.torsion>
0.3329

> <Gold.PLP.Chemscore.Hbond>
1.0205

> <Gold.PLP.Chemscore.CHOScore>
0.0000

> <Gold.PLP.Chemscore.Metal>
0.0000

> <Gold.Chemscore.Hbonds>
donor molecule, donor type, donor heavy atom, donor atom, acceptor molecule, acceptor atom, score
      L1  H    15    28       P1  8028  0.40
      P1  H  7997  8009       L1    14  0.70

> <Gold.PLP.Chemscore.Internal.Correction>
0.3284

> <Gold.Rescore>
     Score         DG    S(hbond)    S(metal)    S(lipo)     H(rot)  DE(clash)    DE(int)     intcor
     11.93     -14.06       1.14        0.00      78.58       1.73       0.19       1.95       ----

> <Gold.Chemscore.Fitness>
11.9250

> <Gold.Chemscore.DG>
-14.0605

> <Gold.Chemscore.ZeroCoef>
-5.4800

> <Gold.Chemscore.Hbond>
1.1435

> <Gold.Chemscore.Metal>
0.0000

> <Gold.Chemscore.Lipo>
78.5774

> <Gold.Chemscore.Internal_Hbond>
0.0000

> <Gold.Chemscore.DEClash>
0.1889

> <Gold.Chemscore.DEInternal>
1.9465

> <Gold.Chemscore.Rot>
1.7314

> <Gold.Chemscore.Internal.Correction>
   9.000000E+99

> <Gold.Chemscore.Hbonds>
donor molecule, donor type, donor heavy atom, donor atom, acceptor molecule, acceptor atom, score
      L1  H    15    28       P1  8028  0.37
      P1  H  7997  8009       L1    14  0.67

> <Gold.Chemscore.Hbond.Weighted>
-3.8193

> <Gold.Chemscore.Metal.Weighted>
-0.0000

> <Gold.Chemscore.Lipo.Weighted>
-9.1936

> <Gold.Chemscore.Internal_Hbond.Weighted>
0.0000

> <Gold.Chemscore.DEClash.Weighted>
0.1889

> <Gold.Chemscore.DEInternal.Weighted>
1.9465

> <Gold.Chemscore.Rot.Weighted>
4.4324

> <Gold.Chemscore.Internal.Correction.Weighted>
   9.000000E+99

> <Gold.Protein.RotatedTorsions>
[ 6907 6896 6895 6894 ] final  -29.23 input  -60.11 | X-H torsion
[ 7974 7965 7964 7962 ] final  174.60 input  175.53 | X-H torsion
[ 8008 7997 7996 7995 ] final  164.06 input   59.86 | X-H torsion
[ 10167 10162 10161 10158 ] final   89.47 input  -65.29 | X-H torsion
[ 10718 10713 10712 10709 ] final -147.81 input   66.30 | X-H torsion
[ 10763 10752 10751 10750 ] final -168.46 input  -60.55 | X-H torsion
[ 11005 11000 10999 10996 ] final   68.63 input  -57.11 | X-H torsion

> <Gold.Protein.ActiveResidues>
 VAL166  LYS551  ARG553  GLY616  TRP617  ASP618  TYR619  PRO620  LYS621  CYS622 
 ASP623  PHE694  ASN695  SER759  ASP760  ASP761  ALA762  ILE779  LEU786  VAL792 
 PHE793  MET794  SER795  GLU796  ALA797  LYS798  CYS799  TRP800  GLU811  SER814 

> <Gold.Protein.RotatedAtoms>
  151.1220  135.0084  159.8542 H   0  0  0  0  0  0  0  0  0  0  0  0  # atno 6907 bound_to 6896
  152.5448  134.1712  159.8607 H   0  0  0  0  0  0  0  0  0  0  0  0  # atno 6908 bound_to 6896
  151.1771  133.4703  159.2627 H   0  0  0  0  0  0  0  0  0  0  0  0  # atno 6909 bound_to 6896
  144.7218  139.9821  143.6439 H   0  0  0  0  0  0  0  0  0  0  0  0  # atno 7974 bound_to 7965
  156.1910  140.1707  156.8093 H   0  0  0  0  0  0  0  0  0  0  0  0  # atno 8008 bound_to 7997
  154.5471  140.0725  156.8638 H   0  0  0  0  0  0  0  0  0  0  0  0  # atno 8009 bound_to 7997
  155.3101  140.3367  155.4246 H   0  0  0  0  0  0  0  0  0  0  0  0  # atno 8010 bound_to 7997
  139.8569  144.6564  150.9103 H   0  0  0  0  0  0  0  0  0  0  0  0  # atno 10167 bound_to 10162
  156.4122  130.7987  151.2205 H   0  0  0  0  0  0  0  0  0  0  0  0  # atno 10718 bound_to 10713
  154.6626  135.2927  154.9846 H   0  0  0  0  0  0  0  0  0  0  0  0  # atno 10763 bound_to 10752
  154.0901  135.6592  153.4855 H   0  0  0  0  0  0  0  0  0  0  0  0  # atno 10764 bound_to 10752
  153.0439  135.5218  154.7585 H   0  0  0  0  0  0  0  0  0  0  0  0  # atno 10765 bound_to 10752
  139.9700  134.6916  156.0466 H   0  0  0  0  0  0  0  0  0  0  0  0  # atno 11005 bound_to 11000
  146.0479  139.3483  143.0657 LP  0  0  0  0  0  0  0  0  0  0  0  0  # atno 17320 bound_to 7965
  145.8252  140.9659  143.0878 LP  0  0  0  0  0  0  0  0  0  0  0  0  # atno 17321 bound_to 7965
  140.7780  143.3778  151.1532 LP  0  0  0  0  0  0  0  0  0  0  0  0  # atno 17342 bound_to 10162
  139.7411  143.8924  152.3050 LP  0  0  0  0  0  0  0  0  0  0  0  0  # atno 17343 bound_to 10162
  157.7507  131.0254  150.3917 LP  0  0  0  0  0  0  0  0  0  0  0  0  # atno 17370 bound_to 10713
  156.4218  130.3954  149.6820 LP  0  0  0  0  0  0  0  0  0  0  0  0  # atno 17371 bound_to 10713
  141.1380  133.6571  156.3648 LP  0  0  0  0  0  0  0  0  0  0  0  0  # atno 17394 bound_to 11000
  140.5313  134.6209  157.5351 LP  0  0  0  0  0  0  0  0  0  0  0  0  # atno 17395 bound_to 11000

$$$$
