AV-unprocessed.smi:155|AV-procd|sdf|1277|dock6
  -GOLD-   2262018543D 1   1.00000     0.00000
 Structure written by MMmdl.
 63 66  0  0  0  0  0  0  0  0  2 V2000
  146.0046  131.7300  149.6814 C   0  0  0  0  0  0  0  0  0  0  0  0
  145.1589  132.9448  149.6828 N   0  3  0  0  0  0  0  0  0  0  0  0
  143.7296  132.6114  149.4826 C   0  0  0  0  0  0  0  0  0  0  0  0
  145.4056  133.7928  150.8758 C   0  0  0  0  0  0  0  0  0  0  0  0
  144.2679  134.8065  151.1252 C   0  0  0  0  0  0  0  0  0  0  0  0
  144.6959  135.8990  152.0024 N   0  0  0  0  0  0  0  0  0  0  0  0
  145.0739  135.3626  153.3149 C   0  0  0  0  0  0  0  0  0  0  0  0
  145.3726  136.4528  154.3592 C   0  0  0  0  0  0  0  0  0  0  0  0
  146.7863  137.0446  154.2353 C   0  0  0  0  0  0  0  0  0  0  0  0
  146.9293  138.0087  153.1438 N   0  0  0  0  0  0  0  0  0  0  0  0
  147.6702  139.1220  153.3880 C   0  0  0  0  0  0  0  0  0  0  0  0
  147.4866  140.2256  152.6145 N   0  0  0  0  0  0  0  0  0  0  0  0
  148.1897  141.3386  152.8428 C   0  0  0  0  0  0  0  0  0  0  0  0
  149.1172  141.5632  153.7751 N   0  0  0  0  0  0  0  0  0  0  0  0
  149.3153  140.4586  154.5495 C   0  0  0  0  0  0  0  0  0  0  0  0
  148.6423  139.2093  154.4273 C   0  0  0  0  0  0  0  0  0  0  0  0
  149.1212  138.3228  155.3866 N   0  0  0  0  0  0  0  0  0  0  0  0
  150.0147  139.0107  156.0431 C   0  0  0  0  0  0  0  0  0  0  0  0
  150.1932  140.3032  155.6077 N   0  0  0  0  0  0  0  0  0  0  0  0
  151.1153  141.2816  156.1568 C   0  0  0  0  0  0  0  0  0  0  0  0
  150.6129  141.8824  157.4844 C   0  0  2  0  0  0  0  0  0  0  0  0
  149.5202  142.7429  157.2240 O   0  0  0  0  0  0  0  0  0  0  0  0
  151.7099  142.6769  158.2159 C   0  0  1  0  0  0  0  0  0  0  0  0
  152.0605  144.0158  157.5676 C   0  0  0  0  0  0  0  0  0  0  0  0
  152.7060  144.7521  158.7197 C   0  0  0  0  0  0  0  0  0  0  0  0
  151.8902  144.2697  159.9182 C   0  0  0  0  0  0  0  0  0  0  0  0
  151.2730  143.0478  159.5194 O   0  0  0  0  0  0  0  0  0  0  0  0
  146.0177  137.9948  151.9998 C   0  0  0  0  0  0  0  0  0  0  0  0
  145.8350  136.5921  151.3967 C   0  0  0  0  0  0  0  0  0  0  0  0
  145.7736  131.0922  150.5354 H   0  0  0  0  0  0  0  0  0  0  0  0
  147.0625  131.9923  149.7260 H   0  0  0  0  0  0  0  0  0  0  0  0
  145.8492  131.1513  148.7703 H   0  0  0  0  0  0  0  0  0  0  0  0
  143.3315  132.0635  150.3377 H   0  0  0  0  0  0  0  0  0  0  0  0
  143.6014  131.9928  148.5936 H   0  0  0  0  0  0  0  0  0  0  0  0
  143.1269  133.5074  149.3377 H   0  0  0  0  0  0  0  0  0  0  0  0
  145.5537  133.1626  151.7545 H   0  0  0  0  0  0  0  0  0  0  0  0
  146.3458  134.3194  150.7184 H   0  0  0  0  0  0  0  0  0  0  0  0
  143.8805  135.2059  150.1863 H   0  0  0  0  0  0  0  0  0  0  0  0
  143.4444  134.2687  151.5948 H   0  0  0  0  0  0  0  0  0  0  0  0
  144.2548  134.7639  153.7085 H   0  0  0  0  0  0  0  0  0  0  0  0
  145.9240  134.6847  153.2211 H   0  0  0  0  0  0  0  0  0  0  0  0
  144.6095  137.2324  154.3532 H   0  0  0  0  0  0  0  0  0  0  0  0
  145.3042  135.9858  155.3421 H   0  0  0  0  0  0  0  0  0  0  0  0
  147.0191  137.5367  155.1805 H   0  0  0  0  0  0  0  0  0  0  0  0
  147.5220  136.2491  154.1120 H   0  0  0  0  0  0  0  0  0  0  0  0
  147.9779  142.1684  152.1850 H   0  0  0  0  0  0  0  0  0  0  0  0
  150.5707  138.5923  156.8697 H   0  0  0  0  0  0  0  0  0  0  0  0
  152.0780  140.7905  156.3039 H   0  0  0  0  0  0  0  0  0  0  0  0
  151.2779  142.0675  155.4182 H   0  0  0  0  0  0  0  0  0  0  0  0
  150.2595  141.0784  158.1314 H   0  0  0  0  0  0  0  0  0  0  0  0
  149.7577  143.3238  156.5173 H   0  0  0  0  0  0  0  0  0  0  0  0
  152.6140  142.0738  158.3199 H   0  0  0  0  0  0  0  0  0  0  0  0
  152.7198  143.9136  156.7051 H   0  0  0  0  0  0  0  0  0  0  0  0
  151.1569  144.5377  157.2490 H   0  0  0  0  0  0  0  0  0  0  0  0
  153.7451  144.4377  158.8244 H   0  0  0  0  0  0  0  0  0  0  0  0
  152.6884  145.8356  158.5999 H   0  0  0  0  0  0  0  0  0  0  0  0
  152.5150  144.1229  160.7996 H   0  0  0  0  0  0  0  0  0  0  0  0
  151.1092  144.9868  160.1723 H   0  0  0  0  0  0  0  0  0  0  0  0
  145.0598  138.4415  152.2694 H   0  0  0  0  0  0  0  0  0  0  0  0
  146.4382  138.6263  151.2159 H   0  0  0  0  0  0  0  0  0  0  0  0
  146.7497  135.9982  151.4410 H   0  0  0  0  0  0  0  0  0  0  0  0
  145.6220  136.7455  150.3382 H   0  0  0  0  0  0  0  0  0  0  0  0
  145.4479  133.4862  148.8804 H   0  0  0  0  0  0  0  0  0  0  0  0
  1  2  1  0  0  0  0
  1 30  1  0  0  0  0
  1 31  1  0  0  0  0
  1 32  1  0  0  0  0
  2  3  1  0  0  0  0
  2  4  1  0  0  0  0
  2 63  1  0  0  0  0
  3 33  1  0  0  0  0
  3 34  1  0  0  0  0
  3 35  1  0  0  0  0
  4  5  1  0  0  0  0
  4 36  1  0  0  0  0
  4 37  1  0  0  0  0
  5  6  1  0  0  0  0
  5 38  1  0  0  0  0
  5 39  1  0  0  0  0
  6 29  1  0  0  0  0
  6  7  1  0  0  0  0
  7  8  1  0  0  0  0
  7 40  1  0  0  0  0
  7 41  1  0  0  0  0
  8  9  1  0  0  0  0
  8 42  1  0  0  0  0
  8 43  1  0  0  0  0
  9 10  1  0  0  0  0
  9 44  1  0  0  0  0
  9 45  1  0  0  0  0
 10 11  1  0  0  0  0
 10 28  1  0  0  0  0
 11 16  1  0  0  0  0
 11 12  2  0  0  0  0
 12 13  1  0  0  0  0
 13 14  2  0  0  0  0
 13 46  1  0  0  0  0
 14 15  1  0  0  0  0
 15 19  1  0  0  0  0
 15 16  2  0  0  0  0
 16 17  1  0  0  0  0
 17 18  2  0  0  0  0
 18 19  1  0  0  0  0
 18 47  1  0  0  0  0
 19 20  1  0  0  0  0
 20 21  1  0  0  0  0
 20 48  1  0  0  0  0
 20 49  1  0  0  0  0
 21 22  1  0  0  0  0
 21 23  1  0  0  0  0
 21 50  1  0  0  0  0
 22 51  1  0  0  0  0
 23 27  1  0  0  0  0
 23 24  1  0  0  0  0
 23 52  1  0  0  0  0
 24 25  1  0  0  0  0
 24 53  1  0  0  0  0
 24 54  1  0  0  0  0
 25 26  1  0  0  0  0
 25 55  1  0  0  0  0
 25 56  1  0  0  0  0
 26 27  1  0  0  0  0
 26 57  1  0  0  0  0
 26 58  1  0  0  0  0
 28 29  1  0  0  0  0
 28 59  1  0  0  0  0
 28 60  1  0  0  0  0
 29 61  1  0  0  0  0
 29 62  1  0  0  0  0
M  CHG  1   2   1
M  END
> <s_m_source_file>
AV-unprocessed.smi

> <i_m_source_file_index>
155

> <i_lp_mmshare_version>
43012

> <i_f3d_flags>
0

> <s_epik_input>
W0NIM11OKFtDSDNdKVtDSDJdW0NIMl1OMVtDSDJdW0NIMl1bQ0gyXU4oW0NIMl1bQ0gyXTEpYyhuW2NIXW4yKWMoYzIzKW5bY0hdbjNbQ0gyXVtDQEhdKFtPSF0pW0NAQEhdNFtDSDJdW0NIMl1bQ0gyXU80

> <s_epik_cmdline>
J2VwaWtfcHl0aG9uJywgJy1waCcsICc3LjAnLCAnLXRuJywgJzgnLCAnLW1hJywgJzIwMCcsICctbWV0YWxfYmluZGluZycsICctaW1hZScsICc8aW5maWxlLm1hZT4nLCAnLW9tYWUnLCAnPG91dGZpbGUubWFlPic=

> <r_lp_tautomer_probability>
1

> <r_epik_Ionization_Penalty>
0.0599493

> <r_epik_Ionization_Penalty_Charging>
0.00816363

> <r_epik_Ionization_Penalty_Neutral>
0.0517857

> <r_epik_State_Penalty>
0.460607

> <r_epik_Charging_Adjusted_Penalty>
0.468771

> <i_epik_Tot_Q>
1

> <i_epik_Tot_abs_Q>
1

> <r_epik_Metal_State_Penalty>
0.45965

> <b_epik_Metal_Only>
0

> <s_lp_Force_Field>
OPLS_2005

> <r_lp_Energy>
54.9456

> <b_lp_Chiralities_Consistent>
1

> <s_lp_Variant>
AV-unprocessed.smi:155-11

> <Gold.Version>
5.8.1

> <Gold.Id.Protein>
6NUR|6NUR_protein|mol2

> <Gold.PLP.Fitness>
55.5704

> <Gold.PLP.PLP>
-50.3133

> <Gold.PLP.part.hbond>
-3.0000

> <Gold.PLP.part.metal>
0.0000

> <Gold.PLP.part.buried>
-6.1068

> <Gold.PLP.part.nonpolar>
-41.5159

> <Gold.PLP.part.repulsive>
0.7350

> <Gold.PLP.ligand.clash>
0.0000

> <Gold.PLP.ligand.torsion>
0.7846

> <Gold.PLP.Chemscore.Hbond>
2.1980

> <Gold.PLP.Chemscore.CHOScore>
0.0000

> <Gold.PLP.Chemscore.Metal>
0.0000

> <Gold.Chemscore.Hbonds>
donor molecule, donor type, donor heavy atom, donor atom, acceptor molecule, acceptor atom, score
      L1  H     2    63       P1  7921  1.00
      L1  H    22    51       P1  8028  0.67

> <Gold.PLP.Chemscore.Internal.Correction>
0.2322

> <Gold.Rescore>
     Score         DG    S(hbond)    S(metal)    S(lipo)     H(rot)  DE(clash)    DE(int)     intcor
     16.23     -19.15       1.89        0.00     122.19       2.71       0.70       2.23       ----

> <Gold.Chemscore.Fitness>
16.2294

> <Gold.Chemscore.DG>
-19.1544

> <Gold.Chemscore.ZeroCoef>
-5.4800

> <Gold.Chemscore.Hbond>
1.8896

> <Gold.Chemscore.Metal>
0.0000

> <Gold.Chemscore.Lipo>
122.1861

> <Gold.Chemscore.Internal_Hbond>
0.0000

> <Gold.Chemscore.DEClash>
0.6967

> <Gold.Chemscore.DEInternal>
2.2283

> <Gold.Chemscore.Rot>
2.7080

> <Gold.Chemscore.Internal.Correction>
   9.000000E+99

> <Gold.Chemscore.Hbonds>
donor molecule, donor type, donor heavy atom, donor atom, acceptor molecule, acceptor atom, score
      L1  H     2    63       P1  7921  0.34
      L1  H    22    51       P1  8028  0.68

> <Gold.Chemscore.Hbond.Weighted>
-6.3112

> <Gold.Chemscore.Metal.Weighted>
-0.0000

> <Gold.Chemscore.Lipo.Weighted>
-14.2958

> <Gold.Chemscore.Internal_Hbond.Weighted>
0.0000

> <Gold.Chemscore.DEClash.Weighted>
0.6967

> <Gold.Chemscore.DEInternal.Weighted>
2.2283

> <Gold.Chemscore.Rot.Weighted>
6.9326

> <Gold.Chemscore.Internal.Correction.Weighted>
   9.000000E+99

> <Gold.Protein.RotatedTorsions>
[ 6907 6896 6895 6894 ] final   73.08 input  -60.11 | X-H torsion
[ 7974 7965 7964 7962 ] final  104.97 input  175.53 | X-H torsion
[ 8008 7997 7996 7995 ] final -152.21 input   59.86 | X-H torsion
[ 10167 10162 10161 10158 ] final   49.63 input  -65.29 | X-H torsion
[ 10718 10713 10712 10709 ] final  138.97 input   66.30 | X-H torsion
[ 10763 10752 10751 10750 ] final   48.81 input  -60.55 | X-H torsion
[ 11005 11000 10999 10996 ] final  -29.59 input  -57.11 | X-H torsion

> <Gold.Protein.ActiveResidues>
 VAL166  LYS551  ARG553  GLY616  TRP617  ASP618  TYR619  PRO620  LYS621  CYS622 
 ASP623  PHE694  ASN695  SER759  ASP760  ASP761  ALA762  ILE779  LEU786  VAL792 
 PHE793  MET794  SER795  GLU796  ALA797  LYS798  CYS799  TRP800  GLU811  SER814 

> <Gold.Protein.RotatedAtoms>
  152.4904  134.4475  159.9563 H   0  0  0  0  0  0  0  0  0  0  0  0  # atno 6907 bound_to 6896
  151.4463  133.3623  159.2796 H   0  0  0  0  0  0  0  0  0  0  0  0  # atno 6908 bound_to 6896
  150.9052  134.8491  159.7448 H   0  0  0  0  0  0  0  0  0  0  0  0  # atno 6909 bound_to 6896
  145.3258  139.2500  143.3687 H   0  0  0  0  0  0  0  0  0  0  0  0  # atno 7974 bound_to 7965
  155.6516  140.0712  157.2585 H   0  0  0  0  0  0  0  0  0  0  0  0  # atno 8008 bound_to 7997
  154.4161  140.1732  156.1730 H   0  0  0  0  0  0  0  0  0  0  0  0  # atno 8009 bound_to 7997
  155.9772  140.3357  155.6633 H   0  0  0  0  0  0  0  0  0  0  0  0  # atno 8010 bound_to 7997
  140.2809  144.3158  150.6264 H   0  0  0  0  0  0  0  0  0  0  0  0  # atno 10167 bound_to 10162
  157.4195  131.1037  151.0368 H   0  0  0  0  0  0  0  0  0  0  0  0  # atno 10718 bound_to 10713
  152.9790  135.5932  154.3987 H   0  0  0  0  0  0  0  0  0  0  0  0  # atno 10763 bound_to 10752
  154.3634  135.2767  155.2309 H   0  0  0  0  0  0  0  0  0  0  0  0  # atno 10764 bound_to 10752
  154.4296  135.6039  153.6115 H   0  0  0  0  0  0  0  0  0  0  0  0  # atno 10765 bound_to 10752
  140.9309  133.7339  156.0935 H   0  0  0  0  0  0  0  0  0  0  0  0  # atno 11005 bound_to 11000
  146.3065  140.3825  142.8685 LP  0  0  0  0  0  0  0  0  0  0  0  0  # atno 17320 bound_to 7965
  144.8903  140.7515  143.5931 LP  0  0  0  0  0  0  0  0  0  0  0  0  # atno 17321 bound_to 7965
  140.5813  143.2172  151.7424 LP  0  0  0  0  0  0  0  0  0  0  0  0  # atno 17342 bound_to 10162
  139.4963  144.4076  152.0114 LP  0  0  0  0  0  0  0  0  0  0  0  0  # atno 17343 bound_to 10162
  157.1304  130.6099  149.5528 LP  0  0  0  0  0  0  0  0  0  0  0  0  # atno 17370 bound_to 10713
  155.9876  130.4916  150.7132 LP  0  0  0  0  0  0  0  0  0  0  0  0  # atno 17371 bound_to 10713
  140.7864  134.3668  157.5475 LP  0  0  0  0  0  0  0  0  0  0  0  0  # atno 17394 bound_to 11000
  139.8796  134.9113  156.3034 LP  0  0  0  0  0  0  0  0  0  0  0  0  # atno 17395 bound_to 11000

$$$$
