AV-unprocessed.smi:193|AV-procd|sdf|1518|dock8
  -GOLD-   2262019353D 1   1.00000     0.00000
 Structure written by MMmdl.
 61 65  0  0  0  0  0  0  0  0  1 V2000
  147.4232  141.9447  153.9269 C   0  0  0  0  0  0  0  0  0  0  0  0
  148.1654  140.9029  154.7787 C   0  0  2  0  0  0  0  0  0  0  0  0
  147.2096  139.7367  155.1115 C   0  0  0  0  0  0  0  0  0  0  0  0
  147.8826  138.5015  155.5203 N   0  0  0  0  0  0  0  0  0  0  0  0
  147.4221  137.3342  154.9959 C   0  0  0  0  0  0  0  0  0  0  0  0
  148.0161  136.1650  155.3563 N   0  0  0  0  0  0  0  0  0  0  0  0
  147.5958  135.0044  154.8460 C   0  0  0  0  0  0  0  0  0  0  0  0
  146.6092  134.7847  153.9758 N   0  0  0  0  0  0  0  0  0  0  0  0
  145.9983  135.9491  153.6167 C   0  0  0  0  0  0  0  0  0  0  0  0
  146.3381  137.2553  154.0723 C   0  0  0  0  0  0  0  0  0  0  0  0
  145.4873  138.1894  153.4909 N   0  0  0  0  0  0  0  0  0  0  0  0
  144.7012  137.4794  152.7297 C   0  0  0  0  0  0  0  0  0  0  0  0
  144.9292  136.1223  152.7540 N   0  0  0  0  0  0  0  0  0  0  0  0
  144.2009  135.1042  152.0107 C   0  0  0  0  0  0  0  0  0  0  0  0
  144.9655  134.5489  150.7777 C   0  0  0  0  0  0  0  0  0  0  0  0
  145.1697  135.6248  149.8803 O   0  0  0  0  0  0  0  0  0  0  0  0
  146.3559  134.0061  151.1635 C   0  0  0  0  0  0  0  0  0  0  0  0
  146.2567  132.6455  151.8768 C   0  0  0  0  0  0  0  0  0  0  0  0
  145.5501  131.7166  151.0616 O   0  0  0  0  0  0  0  0  0  0  0  0
  144.2111  132.1167  150.7918 C   0  0  0  0  0  0  0  0  0  0  0  0
  144.2082  133.4432  150.0114 C   0  0  0  0  0  0  0  0  0  0  0  0
  149.2134  138.5261  156.1272 C   0  0  0  0  0  0  0  0  0  0  0  0
  149.3452  139.5793  157.2367 C   0  0  0  0  0  0  0  0  0  0  0  0
  149.8108  140.8492  156.6872 N   0  0  0  0  0  0  0  0  0  0  0  0
  150.3144  141.6666  157.7811 C   0  0  1  0  0  0  0  0  0  0  0  0
  151.7466  141.4482  158.2141 C   0  0  0  0  0  0  0  0  0  0  0  0
  151.3721  142.6999  157.4555 C   0  0  2  0  0  0  0  0  0  0  0  0
  151.3715  144.0468  158.1455 C   0  0  0  0  0  0  0  0  0  0  0  0
  148.7170  141.5827  156.0518 C   0  0  0  0  0  0  0  0  0  0  0  0
  146.5766  142.3686  154.4680 H   0  0  0  0  0  0  0  0  0  0  0  0
  147.0425  141.5030  153.0055 H   0  0  0  0  0  0  0  0  0  0  0  0
  148.0825  142.7657  153.6436 H   0  0  0  0  0  0  0  0  0  0  0  0
  148.9933  140.5371  154.1690 H   0  0  0  0  0  0  0  0  0  0  0  0
  146.5039  140.0332  155.8882 H   0  0  0  0  0  0  0  0  0  0  0  0
  146.6146  139.5310  154.2208 H   0  0  0  0  0  0  0  0  0  0  0  0
  148.1269  134.1261  155.1826 H   0  0  0  0  0  0  0  0  0  0  0  0
  143.9225  137.9290  152.1305 H   0  0  0  0  0  0  0  0  0  0  0  0
  143.9656  134.2918  152.6999 H   0  0  0  0  0  0  0  0  0  0  0  0
  143.2413  135.5269  151.7142 H   0  0  0  0  0  0  0  0  0  0  0  0
  145.2901  135.2709  149.0126 H   0  0  0  0  0  0  0  0  0  0  0  0
  146.9606  133.8755  150.2645 H   0  0  0  0  0  0  0  0  0  0  0  0
  146.8902  134.7227  151.7884 H   0  0  0  0  0  0  0  0  0  0  0  0
  147.2559  132.2522  152.0649 H   0  0  0  0  0  0  0  0  0  0  0  0
  145.7699  132.7391  152.8481 H   0  0  0  0  0  0  0  0  0  0  0  0
  143.7253  131.3383  150.2033 H   0  0  0  0  0  0  0  0  0  0  0  0
  143.6524  132.2001  151.7240 H   0  0  0  0  0  0  0  0  0  0  0  0
  143.1876  133.7459  149.7782 H   0  0  0  0  0  0  0  0  0  0  0  0
  144.6940  133.2699  149.0500 H   0  0  0  0  0  0  0  0  0  0  0  0
  149.4008  137.5541  156.5859 H   0  0  0  0  0  0  0  0  0  0  0  0
  149.9793  138.6560  155.3614 H   0  0  0  0  0  0  0  0  0  0  0  0
  148.4270  139.6912  157.8162 H   0  0  0  0  0  0  0  0  0  0  0  0
  150.1049  139.2170  157.9307 H   0  0  0  0  0  0  0  0  0  0  0  0
  149.6276  141.9384  158.5815 H   0  0  0  0  0  0  0  0  0  0  0  0
  151.9672  141.5435  159.2753 H   0  0  0  0  0  0  0  0  0  0  0  0
  152.3303  140.6972  157.6846 H   0  0  0  0  0  0  0  0  0  0  0  0
  151.7036  142.7426  156.4195 H   0  0  0  0  0  0  0  0  0  0  0  0
  151.0352  143.9533  159.1787 H   0  0  0  0  0  0  0  0  0  0  0  0
  150.7043  144.7332  157.6240 H   0  0  0  0  0  0  0  0  0  0  0  0
  152.3767  144.4687  158.1439 H   0  0  0  0  0  0  0  0  0  0  0  0
  149.1064  142.5631  155.7732 H   0  0  0  0  0  0  0  0  0  0  0  0
  147.9130  141.7672  156.7664 H   0  0  0  0  0  0  0  0  0  0  0  0
  1  2  1  0  0  0  0
  1 30  1  0  0  0  0
  1 31  1  0  0  0  0
  1 32  1  0  0  0  0
  2 29  1  0  0  0  0
  2  3  1  0  0  0  0
  2 33  1  0  0  0  0
  3  4  1  0  0  0  0
  3 34  1  0  0  0  0
  3 35  1  0  0  0  0
  4  5  1  0  0  0  0
  4 22  1  0  0  0  0
  5 10  1  0  0  0  0
  5  6  2  0  0  0  0
  6  7  1  0  0  0  0
  7  8  2  0  0  0  0
  7 36  1  0  0  0  0
  8  9  1  0  0  0  0
  9 13  1  0  0  0  0
  9 10  2  0  0  0  0
 10 11  1  0  0  0  0
 11 12  2  0  0  0  0
 12 13  1  0  0  0  0
 12 37  1  0  0  0  0
 13 14  1  0  0  0  0
 14 15  1  0  0  0  0
 14 38  1  0  0  0  0
 14 39  1  0  0  0  0
 15 21  1  0  0  0  0
 15 16  1  0  0  0  0
 15 17  1  0  0  0  0
 16 40  1  0  0  0  0
 17 18  1  0  0  0  0
 17 41  1  0  0  0  0
 17 42  1  0  0  0  0
 18 19  1  0  0  0  0
 18 43  1  0  0  0  0
 18 44  1  0  0  0  0
 19 20  1  0  0  0  0
 20 21  1  0  0  0  0
 20 45  1  0  0  0  0
 20 46  1  0  0  0  0
 21 47  1  0  0  0  0
 21 48  1  0  0  0  0
 22 23  1  0  0  0  0
 22 49  1  0  0  0  0
 22 50  1  0  0  0  0
 23 24  1  0  0  0  0
 23 51  1  0  0  0  0
 23 52  1  0  0  0  0
 24 25  1  0  0  0  0
 24 29  1  0  0  0  0
 25 27  1  0  0  0  0
 25 26  1  0  0  0  0
 25 53  1  0  0  0  0
 26 27  1  0  0  0  0
 26 54  1  0  0  0  0
 26 55  1  0  0  0  0
 27 28  1  0  0  0  0
 27 56  1  0  0  0  0
 28 57  1  0  0  0  0
 28 58  1  0  0  0  0
 28 59  1  0  0  0  0
 29 60  1  0  0  0  0
 29 61  1  0  0  0  0
M  END
> <s_m_source_file>
AV-unprocessed.smi

> <i_m_source_file_index>
193

> <i_lp_mmshare_version>
43012

> <i_f3d_flags>
0

> <s_epik_input>
W0NIM11bQ0BASF0xW0NIMl1bQ0BIXTFOKFtDSDJdMilbQ0gyXVtDSDJdTihbQ0gyXVtDQEhdMltDSDNdKWMobltjSF1uMyljKGMzNCluW2NIXW40W0NIMl1DNShbT0hdKVtDSDJdW0NIMl1PW0NIMl1bQ0gyXTU=

> <s_epik_cmdline>
J2VwaWtfcHl0aG9uJywgJy1waCcsICc3LjAnLCAnLXRuJywgJzgnLCAnLW1hJywgJzIwMCcsICctbWV0YWxfYmluZGluZycsICctaW1hZScsICc8aW5maWxlLm1hZT4nLCAnLW9tYWUnLCAnPG91dGZpbGUubWFlPic=

> <r_lp_tautomer_probability>
1

> <r_epik_Ionization_Penalty>
1.45227

> <r_epik_Ionization_Penalty_Charging>
0

> <r_epik_Ionization_Penalty_Neutral>
1.45227

> <r_epik_State_Penalty>
2.02377

> <r_epik_Charging_Adjusted_Penalty>
2.02377

> <i_epik_Tot_Q>
0

> <i_epik_Tot_abs_Q>
0

> <r_epik_Metal_State_Penalty>
2.01937

> <b_epik_Metal_Only>
0

> <s_lp_Force_Field>
OPLS_2005

> <r_lp_Energy>
49.0818

> <b_lp_Chiralities_Consistent>
1

> <s_lp_Variant>
AV-unprocessed.smi:193-23

> <Gold.Version>
5.8.1

> <Gold.Id.Protein>
6NUR|6NUR_protein|mol2

> <Gold.PLP.Fitness>
44.5488

> <Gold.PLP.PLP>
-37.1952

> <Gold.PLP.part.hbond>
-1.6760

> <Gold.PLP.part.metal>
0.0000

> <Gold.PLP.part.buried>
-7.6060

> <Gold.PLP.part.nonpolar>
-29.7902

> <Gold.PLP.part.repulsive>
0.6430

> <Gold.PLP.ligand.clash>
0.0000

> <Gold.PLP.ligand.torsion>
0.8652

> <Gold.PLP.Chemscore.Hbond>
1.0000

> <Gold.PLP.Chemscore.CHOScore>
1.6082

> <Gold.PLP.Chemscore.Metal>
0.0000

> <Gold.Chemscore.Hbonds>
donor molecule, donor type, donor heavy atom, donor atom, acceptor molecule, acceptor atom, score
      L1  H    16    40       P1  7921  1.00
      L1  C    12    37       P1 10171  1.00
      L1  C    12    37       P1 10175  0.69

> <Gold.PLP.Chemscore.Internal.Correction>
1.2593

> <Gold.Rescore>
     Score         DG    S(hbond)    S(metal)    S(lipo)     H(rot)  DE(clash)    DE(int)     intcor
     13.51     -15.97       0.95        0.00     104.15       1.91       0.16       2.30       ----

> <Gold.Chemscore.Fitness>
13.5089

> <Gold.Chemscore.DG>
-15.9691

> <Gold.Chemscore.ZeroCoef>
-5.4800

> <Gold.Chemscore.Hbond>
0.9537

> <Gold.Chemscore.Metal>
0.0000

> <Gold.Chemscore.Lipo>
104.1460

> <Gold.Chemscore.Internal_Hbond>
0.0000

> <Gold.Chemscore.DEClash>
0.1571

> <Gold.Chemscore.DEInternal>
2.3031

> <Gold.Chemscore.Rot>
1.9068

> <Gold.Chemscore.Internal.Correction>
   9.000000E+99

> <Gold.Chemscore.Hbonds>
donor molecule, donor type, donor heavy atom, donor atom, acceptor molecule, acceptor atom, score
      L1  H    16    40       P1  7921  0.99

> <Gold.Chemscore.Hbond.Weighted>
-3.1854

> <Gold.Chemscore.Metal.Weighted>
-0.0000

> <Gold.Chemscore.Lipo.Weighted>
-12.1851

> <Gold.Chemscore.Internal_Hbond.Weighted>
0.0000

> <Gold.Chemscore.DEClash.Weighted>
0.1571

> <Gold.Chemscore.DEInternal.Weighted>
2.3031

> <Gold.Chemscore.Rot.Weighted>
4.8814

> <Gold.Chemscore.Internal.Correction.Weighted>
   9.000000E+99

> <Gold.Protein.RotatedTorsions>
[ 6907 6896 6895 6894 ] final -117.25 input  -60.11 | X-H torsion
[ 7974 7965 7964 7962 ] final   78.75 input  175.53 | X-H torsion
[ 8008 7997 7996 7995 ] final  109.59 input   59.86 | X-H torsion
[ 10167 10162 10161 10158 ] final  -60.43 input  -65.29 | X-H torsion
[ 10718 10713 10712 10709 ] final  -33.23 input   66.30 | X-H torsion
[ 10763 10752 10751 10750 ] final  -43.25 input  -60.55 | X-H torsion
[ 11005 11000 10999 10996 ] final   38.10 input  -57.11 | X-H torsion

> <Gold.Protein.ActiveResidues>
 VAL166  LYS551  ARG553  GLY616  TRP617  ASP618  TYR619  PRO620  LYS621  CYS622 
 ASP623  PHE694  ASN695  SER759  ASP760  ASP761  ALA762  ILE779  LEU786  VAL792 
 PHE793  MET794  SER795  GLU796  ALA797  LYS798  CYS799  TRP800  GLU811  SER814 

> <Gold.Protein.RotatedAtoms>
  150.8121  133.8403  159.3177 H   0  0  0  0  0  0  0  0  0  0  0  0  # atno 6907 bound_to 6896
  151.6185  135.1032  160.0106 H   0  0  0  0  0  0  0  0  0  0  0  0  # atno 6908 bound_to 6896
  152.4213  133.7081  159.6519 H   0  0  0  0  0  0  0  0  0  0  0  0  # atno 6909 bound_to 6896
  145.6731  139.2502  143.1857 H   0  0  0  0  0  0  0  0  0  0  0  0  # atno 7974 bound_to 7965
  156.1990  140.3055  155.9487 H   0  0  0  0  0  0  0  0  0  0  0  0  # atno 8008 bound_to 7997
  155.2998  140.0446  157.3046 H   0  0  0  0  0  0  0  0  0  0  0  0  # atno 8009 bound_to 7997
  154.5546  140.2302  155.8439 H   0  0  0  0  0  0  0  0  0  0  0  0  # atno 8010 bound_to 7997
  140.6072  143.2376  151.5794 H   0  0  0  0  0  0  0  0  0  0  0  0  # atno 10167 bound_to 10162
  156.3652  130.4330  149.7591 H   0  0  0  0  0  0  0  0  0  0  0  0  # atno 10718 bound_to 10713
  153.9924  135.6703  153.4755 H   0  0  0  0  0  0  0  0  0  0  0  0  # atno 10763 bound_to 10752
  153.0699  135.4980  154.8278 H   0  0  0  0  0  0  0  0  0  0  0  0  # atno 10764 bound_to 10752
  154.7101  135.3095  154.9173 H   0  0  0  0  0  0  0  0  0  0  0  0  # atno 10765 bound_to 10752
  140.2160  134.3698  155.8027 H   0  0  0  0  0  0  0  0  0  0  0  0  # atno 11005 bound_to 11000
  146.1029  140.7522  142.9540 LP  0  0  0  0  0  0  0  0  0  0  0  0  # atno 17320 bound_to 7965
  144.7050  140.3815  143.7125 LP  0  0  0  0  0  0  0  0  0  0  0  0  # atno 17321 bound_to 7965
  139.5333  144.2852  152.1197 LP  0  0  0  0  0  0  0  0  0  0  0  0  # atno 17342 bound_to 10162
  140.2044  144.4626  150.6416 LP  0  0  0  0  0  0  0  0  0  0  0  0  # atno 17343 bound_to 10162
  156.4739  130.8009  151.3026 LP  0  0  0  0  0  0  0  0  0  0  0  0  # atno 17370 bound_to 10713
  157.7478  131.0027  150.3010 LP  0  0  0  0  0  0  0  0  0  0  0  0  # atno 17371 bound_to 10713
  141.2225  133.7168  156.8496 LP  0  0  0  0  0  0  0  0  0  0  0  0  # atno 17394 bound_to 11000
  140.1900  134.8972  157.3050 LP  0  0  0  0  0  0  0  0  0  0  0  0  # atno 17395 bound_to 11000

$$$$
