AV-unprocessed.smi:3278|AV-procd|sdf|12547|dock8
  -GOLD-   2272018463D 1   1.00000     0.00000
 Structure written by MMmdl.
 38 39  0  0  0  0  0  0  0  0  1 V2000
  146.1232  136.7613  153.1138 C   0  0  0  0  0  0  0  0  0  0  0  0
  146.4970  138.0090  153.7446 N   0  0  0  0  0  0  0  0  0  0  0  0
  147.5916  138.8066  153.4925 C   0  0  0  0  0  0  0  0  0  0  0  0
  147.5239  139.8836  154.3343 C   0  0  0  0  0  0  0  0  0  0  0  0
  148.4619  141.0664  154.4639 C   0  0  2  0  0  0  0  0  0  0  0  0
  147.7582  142.4038  154.1593 C   0  0  0  0  0  0  0  0  0  0  0  0
  149.5146  140.9687  153.5260 O   0  0  0  0  0  0  0  0  0  0  0  0
  149.1379  141.0876  155.8518 C   0  0  0  0  0  0  0  0  0  0  0  0
  150.0529  142.2224  156.0022 N   0  0  0  0  0  0  0  0  0  0  0  0
  150.6089  142.4161  157.3441 C   0  0  1  0  0  0  0  0  0  0  0  0
  151.4029  141.1796  157.8267 C   0  0  0  0  0  0  0  0  0  0  0  0
  151.9574  141.3449  159.2514 C   0  0  0  0  0  0  0  0  0  0  0  0
  152.9205  142.5320  159.3773 C   0  0  0  0  0  0  0  0  0  0  0  0
  152.0793  144.0924  159.0052 S   0  0  0  0  0  0  0  0  0  0  0  0
  151.4878  143.6802  157.3416 C   0  0  0  0  0  0  0  0  0  0  0  0
  146.3239  139.6437  155.0663 C   0  0  0  0  0  0  0  0  0  0  0  0
  145.7145  138.5240  154.7135 N   0  0  0  0  0  0  0  0  0  0  0  0
  146.9211  136.4226  152.4524 H   0  0  0  0  0  0  0  0  0  0  0  0
  145.2138  136.9030  152.5294 H   0  0  0  0  0  0  0  0  0  0  0  0
  145.9469  135.9994  153.8738 H   0  0  0  0  0  0  0  0  0  0  0  0
  148.3205  138.5450  152.7396 H   0  0  0  0  0  0  0  0  0  0  0  0
  146.9402  142.5964  154.8539 H   0  0  0  0  0  0  0  0  0  0  0  0
  147.3417  142.4136  153.1514 H   0  0  0  0  0  0  0  0  0  0  0  0
  148.4509  143.2430  154.2370 H   0  0  0  0  0  0  0  0  0  0  0  0
  149.3015  140.2878  152.9066 H   0  0  0  0  0  0  0  0  0  0  0  0
  148.3672  141.1423  156.6221 H   0  0  0  0  0  0  0  0  0  0  0  0
  149.6658  140.1470  156.0082 H   0  0  0  0  0  0  0  0  0  0  0  0
  149.5798  143.0715  155.7092 H   0  0  0  0  0  0  0  0  0  0  0  0
  149.7850  142.5887  158.0381 H   0  0  0  0  0  0  0  0  0  0  0  0
  150.7692  140.2935  157.8230 H   0  0  0  0  0  0  0  0  0  0  0  0
  152.2221  140.9725  157.1365 H   0  0  0  0  0  0  0  0  0  0  0  0
  151.1329  141.4643  159.9553 H   0  0  0  0  0  0  0  0  0  0  0  0
  152.4763  140.4308  159.5420 H   0  0  0  0  0  0  0  0  0  0  0  0
  153.3246  142.5850  160.3883 H   0  0  0  0  0  0  0  0  0  0  0  0
  153.7661  142.4114  158.6992 H   0  0  0  0  0  0  0  0  0  0  0  0
  152.3477  143.5492  156.6834 H   0  0  0  0  0  0  0  0  0  0  0  0
  150.9246  144.5342  156.9636 H   0  0  0  0  0  0  0  0  0  0  0  0
  145.8793  140.2523  155.8399 H   0  0  0  0  0  0  0  0  0  0  0  0
  1  2  1  0  0  0  0
  1 18  1  0  0  0  0
  1 19  1  0  0  0  0
  1 20  1  0  0  0  0
  2 17  1  0  0  0  0
  2  3  1  0  0  0  0
  3  4  2  0  0  0  0
  3 21  1  0  0  0  0
  4  5  1  0  0  0  0
  4 16  1  0  0  0  0
  5  6  1  0  0  0  0
  5  7  1  0  0  0  0
  5  8  1  0  0  0  0
  6 22  1  0  0  0  0
  6 23  1  0  0  0  0
  6 24  1  0  0  0  0
  7 25  1  0  0  0  0
  8  9  1  0  0  0  0
  8 26  1  0  0  0  0
  8 27  1  0  0  0  0
  9 10  1  0  0  0  0
  9 28  1  0  0  0  0
 10 15  1  0  0  0  0
 10 11  1  0  0  0  0
 10 29  1  0  0  0  0
 11 12  1  0  0  0  0
 11 30  1  0  0  0  0
 11 31  1  0  0  0  0
 12 13  1  0  0  0  0
 12 32  1  0  0  0  0
 12 33  1  0  0  0  0
 13 14  1  0  0  0  0
 13 34  1  0  0  0  0
 13 35  1  0  0  0  0
 14 15  1  0  0  0  0
 15 36  1  0  0  0  0
 15 37  1  0  0  0  0
 16 17  2  0  0  0  0
 16 38  1  0  0  0  0
M  END
> <s_m_source_file>
AV-unprocessed.smi

> <i_m_source_file_index>
3278

> <i_lp_mmshare_version>
43012

> <i_f3d_flags>
0

> <s_epik_input>
W0NIM11uMVtjSF1jKFtjSF1uMSlbQ0BAXShbQ0gzXSkoW09IXSlbQ0gyXVtOSF1bQ0BASF0yW0NIMl1bQ0gyXVtDSDJdU1tDSDJdMg==

> <s_epik_cmdline>
J2VwaWtfcHl0aG9uJywgJy1waCcsICc3LjAnLCAnLXRuJywgJzgnLCAnLW1hJywgJzIwMCcsICctbWV0YWxfYmluZGluZycsICctaW1hZScsICc8aW5maWxlLm1hZT4nLCAnLW9tYWUnLCAnPG91dGZpbGUubWFlPic=

> <r_lp_tautomer_probability>
1

> <r_epik_Ionization_Penalty>
2.06123

> <r_epik_Ionization_Penalty_Charging>
0

> <r_epik_Ionization_Penalty_Neutral>
2.06123

> <r_epik_State_Penalty>
2.1944

> <r_epik_Charging_Adjusted_Penalty>
2.1944

> <i_epik_Tot_Q>
0

> <i_epik_Tot_abs_Q>
0

> <r_epik_Metal_State_Penalty>
2.19434

> <b_epik_Metal_Only>
0

> <s_lp_Force_Field>
OPLS_2005

> <r_lp_Energy>
8.30166

> <b_lp_Chiralities_Consistent>
1

> <s_lp_Variant>
AV-unprocessed.smi:3278-8

> <Gold.Version>
5.8.1

> <Gold.Id.Protein>
6NUR|6NUR_protein|mol2

> <Gold.PLP.Fitness>
45.9591

> <Gold.PLP.PLP>
-31.1955

> <Gold.PLP.part.hbond>
-4.0000

> <Gold.PLP.part.metal>
0.0000

> <Gold.PLP.part.buried>
-0.9214

> <Gold.PLP.part.nonpolar>
-26.2095

> <Gold.PLP.part.repulsive>
0.0766

> <Gold.PLP.ligand.clash>
0.0000

> <Gold.PLP.ligand.torsion>
0.0521

> <Gold.PLP.Chemscore.Hbond>
2.9407

> <Gold.PLP.Chemscore.CHOScore>
1.9990

> <Gold.PLP.Chemscore.Metal>
0.0000

> <Gold.Chemscore.Hbonds>
donor molecule, donor type, donor heavy atom, donor atom, acceptor molecule, acceptor atom, score
      L1  H     7    25       P1  7957  0.69
      L1  H     9    28       P1  8028  1.00
      P1  H  7989  7998       L1     7  0.25
      P1  H  8011  8017       L1     7  1.00
      L1  C     3    21       P1  7948  1.00
      L1  C     3    21       P1  7957  1.00

> <Gold.PLP.Chemscore.Internal.Correction>
0.0484

> <Gold.Rescore>
     Score         DG    S(hbond)    S(metal)    S(lipo)     H(rot)  DE(clash)    DE(int)     intcor
     18.72     -19.01       2.23        0.00      94.44       1.93       0.21       0.08       ----

> <Gold.Chemscore.Fitness>
18.7190

> <Gold.Chemscore.DG>
-19.0142

> <Gold.Chemscore.ZeroCoef>
-5.4800

> <Gold.Chemscore.Hbond>
2.2256

> <Gold.Chemscore.Metal>
0.0000

> <Gold.Chemscore.Lipo>
94.4365

> <Gold.Chemscore.Internal_Hbond>
0.0000

> <Gold.Chemscore.DEClash>
0.2128

> <Gold.Chemscore.DEInternal>
0.0824

> <Gold.Chemscore.Rot>
1.9329

> <Gold.Chemscore.Internal.Correction>
   9.000000E+99

> <Gold.Chemscore.Hbonds>
donor molecule, donor type, donor heavy atom, donor atom, acceptor molecule, acceptor atom, score
      L1  H     7    25       P1  7957  0.68
      L1  H     9    28       P1  8028  1.00
      P1  H  7989  7998       L1     7  0.06
      P1  H  8011  8017       L1     7  0.24

> <Gold.Chemscore.Hbond.Weighted>
-7.4334

> <Gold.Chemscore.Metal.Weighted>
-0.0000

> <Gold.Chemscore.Lipo.Weighted>
-11.0491

> <Gold.Chemscore.Internal_Hbond.Weighted>
0.0000

> <Gold.Chemscore.DEClash.Weighted>
0.2128

> <Gold.Chemscore.DEInternal.Weighted>
0.0824

> <Gold.Chemscore.Rot.Weighted>
4.9483

> <Gold.Chemscore.Internal.Correction.Weighted>
   9.000000E+99

> <Gold.Protein.RotatedTorsions>
[ 6907 6896 6895 6894 ] final -143.18 input  -60.11 | X-H torsion
[ 7974 7965 7964 7962 ] final  108.51 input  175.53 | X-H torsion
[ 8008 7997 7996 7995 ] final   34.43 input   59.86 | X-H torsion
[ 10167 10162 10161 10158 ] final  160.82 input  -65.29 | X-H torsion
[ 10718 10713 10712 10709 ] final -105.56 input   66.30 | X-H torsion
[ 10763 10752 10751 10750 ] final   43.11 input  -60.55 | X-H torsion
[ 11005 11000 10999 10996 ] final  112.39 input  -57.11 | X-H torsion

> <Gold.Protein.ActiveResidues>
 VAL166  LYS551  ARG553  GLY616  TRP617  ASP618  TYR619  PRO620  LYS621  CYS622 
 ASP623  PHE694  ASN695  SER759  ASP760  ASP761  ALA762  ILE779  LEU786  VAL792 
 PHE793  MET794  SER795  GLU796  ALA797  LYS798  CYS799  TRP800  GLU811  SER814 

> <Gold.Protein.RotatedAtoms>
  151.0971  133.5272  159.2611 H   0  0  0  0  0  0  0  0  0  0  0  0  # atno 6907 bound_to 6896
  151.2117  135.0483  159.8924 H   0  0  0  0  0  0  0  0  0  0  0  0  # atno 6908 bound_to 6896
  152.5439  134.0785  159.8279 H   0  0  0  0  0  0  0  0  0  0  0  0  # atno 6909 bound_to 6896
  145.2797  139.2637  143.3922 H   0  0  0  0  0  0  0  0  0  0  0  0  # atno 7974 bound_to 7965
  155.1547  140.3278  155.4424 H   0  0  0  0  0  0  0  0  0  0  0  0  # atno 8008 bound_to 7997
  156.2563  140.1971  156.6607 H   0  0  0  0  0  0  0  0  0  0  0  0  # atno 8009 bound_to 7997
  154.6448  140.0566  156.9874 H   0  0  0  0  0  0  0  0  0  0  0  0  # atno 8010 bound_to 7997
  139.4843  144.4596  151.8722 H   0  0  0  0  0  0  0  0  0  0  0  0  # atno 10167 bound_to 10162
  156.0351  130.5569  150.7556 H   0  0  0  0  0  0  0  0  0  0  0  0  # atno 10718 bound_to 10713
  152.9867  135.6111  154.3059 H   0  0  0  0  0  0  0  0  0  0  0  0  # atno 10763 bound_to 10752
  154.2777  135.2778  155.2712 H   0  0  0  0  0  0  0  0  0  0  0  0  # atno 10764 bound_to 10752
  154.5066  135.5852  153.6628 H   0  0  0  0  0  0  0  0  0  0  0  0  # atno 10765 bound_to 10752
  139.8926  134.9529  156.6579 H   0  0  0  0  0  0  0  0  0  0  0  0  # atno 11005 bound_to 11000
  146.3220  140.3261  142.8637 LP  0  0  0  0  0  0  0  0  0  0  0  0  # atno 17320 bound_to 7965
  144.9264  140.7926  143.5716 LP  0  0  0  0  0  0  0  0  0  0  0  0  # atno 17321 bound_to 7965
  140.4058  144.2434  150.5891 LP  0  0  0  0  0  0  0  0  0  0  0  0  # atno 17342 bound_to 10162
  140.5014  143.2317  151.8673 LP  0  0  0  0  0  0  0  0  0  0  0  0  # atno 17343 bound_to 10162
  157.5089  131.0924  151.0223 LP  0  0  0  0  0  0  0  0  0  0  0  0  # atno 17370 bound_to 10713
  157.0584  130.5815  149.5381 LP  0  0  0  0  0  0  0  0  0  0  0  0  # atno 17371 bound_to 10713
  140.7470  133.8929  155.8319 LP  0  0  0  0  0  0  0  0  0  0  0  0  # atno 17394 bound_to 11000
  141.0031  134.1122  157.4297 LP  0  0  0  0  0  0  0  0  0  0  0  0  # atno 17395 bound_to 11000

$$$$
