AV-unprocessed.smi:198|AV-procd|sdf|1553|dock4
  -GOLD-   2262019423D 1   1.00000     0.00000
 Structure written by MMmdl.
 59 63  0  0  0  0  0  0  0  0  2 V2000
  147.8686  141.8063  156.5999 C   0  0  0  0  0  0  0  0  0  0  0  0
  149.1741  142.1593  155.9947 N   0  3  2  0  0  0  0  0  0  0  0  0
  149.5005  141.3761  154.7764 C   0  0  0  0  0  0  0  0  0  0  0  0
  149.9178  139.9351  155.1153 C   0  0  0  0  0  0  0  0  0  0  0  0
  151.0931  139.9187  156.1188 C   0  0  1  0  0  0  0  0  0  0  0  0
  150.7570  140.7636  157.3706 C   0  0  1  0  0  0  0  0  0  0  0  0
  151.9796  140.8171  158.3070 C   0  0  0  0  0  0  0  0  0  0  0  0
  152.4573  139.4026  158.6697 C   0  0  0  0  0  0  0  0  0  0  0  0
  152.7014  138.5509  157.4070 C   0  0  0  0  0  0  0  0  0  0  0  0
  151.5596  138.5756  156.4912 N   0  0  0  0  0  0  0  0  0  0  0  0
  150.6282  137.6099  156.6818 C   0  0  0  0  0  0  0  0  0  0  0  0
  149.7574  137.6927  157.7206 N   0  0  0  0  0  0  0  0  0  0  0  0
  148.8218  136.7531  157.8865 C   0  0  0  0  0  0  0  0  0  0  0  0
  148.5840  135.6714  157.1414 N   0  0  0  0  0  0  0  0  0  0  0  0
  149.4596  135.5843  156.0988 C   0  0  0  0  0  0  0  0  0  0  0  0
  150.5026  136.5040  155.7995 C   0  0  0  0  0  0  0  0  0  0  0  0
  151.1806  136.1016  154.6568 N   0  0  0  0  0  0  0  0  0  0  0  0
  150.5687  135.0064  154.2964 C   0  0  0  0  0  0  0  0  0  0  0  0
  149.5307  134.6138  155.1141 N   0  0  0  0  0  0  0  0  0  0  0  0
  148.6703  133.4764  154.9478 C   0  0  0  0  0  0  0  0  0  0  0  0
  148.8056  132.5106  153.7676 C   0  0  0  0  0  0  0  0  0  0  0  0
  147.2755  132.2836  153.7952 C   0  0  0  0  0  0  0  0  0  0  0  0
  146.5670  132.2455  152.4297 C   0  0  0  0  0  0  0  0  0  0  0  0
  146.7525  131.0095  151.7707 O   0  0  0  0  0  0  0  0  0  0  0  0
  146.7686  131.1124  154.6631 C   0  0  0  0  0  0  0  0  0  0  0  0
  145.4564  131.3317  155.1381 O   0  0  0  0  0  0  0  0  0  0  0  0
  147.2193  133.6570  154.5034 C   0  0  0  0  0  0  0  0  0  0  0  0
  150.2974  142.1815  156.9662 C   0  0  0  0  0  0  0  0  0  0  0  0
  147.8594  140.7881  156.9887 H   0  0  0  0  0  0  0  0  0  0  0  0
  147.0702  141.8932  155.8627 H   0  0  0  0  0  0  0  0  0  0  0  0
  147.6341  142.4838  157.4216 H   0  0  0  0  0  0  0  0  0  0  0  0
  148.6506  141.3771  154.0928 H   0  0  0  0  0  0  0  0  0  0  0  0
  150.3160  141.8766  154.2529 H   0  0  0  0  0  0  0  0  0  0  0  0
  149.0557  139.4001  155.5145 H   0  0  0  0  0  0  0  0  0  0  0  0
  150.2045  139.4181  154.1992 H   0  0  0  0  0  0  0  0  0  0  0  0
  151.9381  140.3942  155.6178 H   0  0  0  0  0  0  0  0  0  0  0  0
  149.9425  140.2822  157.9128 H   0  0  0  0  0  0  0  0  0  0  0  0
  152.7929  141.3587  157.8218 H   0  0  0  0  0  0  0  0  0  0  0  0
  151.7370  141.3692  159.2156 H   0  0  0  0  0  0  0  0  0  0  0  0
  153.3733  139.4592  159.2582 H   0  0  0  0  0  0  0  0  0  0  0  0
  151.7183  138.9242  159.3119 H   0  0  0  0  0  0  0  0  0  0  0  0
  153.5713  138.9331  156.8714 H   0  0  0  0  0  0  0  0  0  0  0  0
  152.9404  137.5236  157.6864 H   0  0  0  0  0  0  0  0  0  0  0  0
  148.1696  136.8876  158.7369 H   0  0  0  0  0  0  0  0  0  0  0  0
  150.8631  134.4583  153.4138 H   0  0  0  0  0  0  0  0  0  0  0  0
  148.7163  132.9168  155.8836 H   0  0  0  0  0  0  0  0  0  0  0  0
  149.1361  132.9907  152.8457 H   0  0  0  0  0  0  0  0  0  0  0  0
  149.4078  131.6268  153.9793 H   0  0  0  0  0  0  0  0  0  0  0  0
  145.4980  132.4347  152.5323 H   0  0  0  0  0  0  0  0  0  0  0  0
  146.9533  133.0252  151.7725 H   0  0  0  0  0  0  0  0  0  0  0  0
  147.5058  131.0813  151.2043 H   0  0  0  0  0  0  0  0  0  0  0  0
  146.7604  130.1782  154.1011 H   0  0  0  0  0  0  0  0  0  0  0  0
  147.4260  130.9433  155.5168 H   0  0  0  0  0  0  0  0  0  0  0  0
  144.8932  130.6643  154.7754 H   0  0  0  0  0  0  0  0  0  0  0  0
  146.5035  133.7243  155.3232 H   0  0  0  0  0  0  0  0  0  0  0  0
  147.0996  134.4949  153.8138 H   0  0  0  0  0  0  0  0  0  0  0  0
  151.1287  142.7196  156.5085 H   0  0  0  0  0  0  0  0  0  0  0  0
  150.0100  142.7568  157.8472 H   0  0  0  0  0  0  0  0  0  0  0  0
  149.0638  143.1140  155.6832 H   0  0  0  0  0  0  0  0  0  0  0  0
  1  2  1  0  0  0  0
  1 29  1  0  0  0  0
  1 30  1  0  0  0  0
  1 31  1  0  0  0  0
  2 28  1  0  0  0  0
  2  3  1  0  0  0  0
  2 59  1  0  0  0  0
  3  4  1  0  0  0  0
  3 32  1  0  0  0  0
  3 33  1  0  0  0  0
  4  5  1  0  0  0  0
  4 34  1  0  0  0  0
  4 35  1  0  0  0  0
  5 10  1  0  0  0  0
  5  6  1  0  0  0  0
  5 36  1  0  0  0  0
  6  7  1  0  0  0  0
  6 28  1  0  0  0  0
  6 37  1  0  0  0  0
  7  8  1  0  0  0  0
  7 38  1  0  0  0  0
  7 39  1  0  0  0  0
  8  9  1  0  0  0  0
  8 40  1  0  0  0  0
  8 41  1  0  0  0  0
  9 10  1  0  0  0  0
  9 42  1  0  0  0  0
  9 43  1  0  0  0  0
 10 11  1  0  0  0  0
 11 16  1  0  0  0  0
 11 12  2  0  0  0  0
 12 13  1  0  0  0  0
 13 14  2  0  0  0  0
 13 44  1  0  0  0  0
 14 15  1  0  0  0  0
 15 19  1  0  0  0  0
 15 16  2  0  0  0  0
 16 17  1  0  0  0  0
 17 18  2  0  0  0  0
 18 19  1  0  0  0  0
 18 45  1  0  0  0  0
 19 20  1  0  0  0  0
 20 27  1  0  0  0  0
 20 21  1  0  0  0  0
 20 46  1  0  0  0  0
 21 22  1  0  0  0  0
 21 47  1  0  0  0  0
 21 48  1  0  0  0  0
 22 23  1  0  0  0  0
 22 25  1  0  0  0  0
 22 27  1  0  0  0  0
 23 24  1  0  0  0  0
 23 49  1  0  0  0  0
 23 50  1  0  0  0  0
 24 51  1  0  0  0  0
 25 26  1  0  0  0  0
 25 52  1  0  0  0  0
 25 53  1  0  0  0  0
 26 54  1  0  0  0  0
 27 55  1  0  0  0  0
 27 56  1  0  0  0  0
 28 57  1  0  0  0  0
 28 58  1  0  0  0  0
M  CHG  1   2   1
M  END
> <s_m_source_file>
AV-unprocessed.smi

> <i_m_source_file_index>
198

> <i_lp_mmshare_version>
43012

> <i_f3d_flags>
0

> <s_epik_input>
W0NIMl0xW0NIMl1OKFtDSDNdKVtDSDJdW0NAQEhdKFtDQEhdMTIpW0NIMl1bQ0gyXVtDSDJdTjJjKG5bY0hdbjMpYyhjMzQpbltjSF1uNFtDSF0oW0NIMl01KVtDSDJdQzUoW0NIMl1bT0hdKVtDSDJdW09IXQ==

> <s_epik_cmdline>
J2VwaWtfcHl0aG9uJywgJy1waCcsICc3LjAnLCAnLXRuJywgJzgnLCAnLW1hJywgJzIwMCcsICctbWV0YWxfYmluZGluZycsICctaW1hZScsICc8aW5maWxlLm1hZT4nLCAnLW9tYWUnLCAnPG91dGZpbGUubWFlPic=

> <r_lp_tautomer_probability>
1

> <r_epik_Ionization_Penalty>
0.00239938

> <r_epik_Ionization_Penalty_Charging>
0.00138697

> <r_epik_Ionization_Penalty_Neutral>
0.00101241

> <r_epik_State_Penalty>
-0

> <r_epik_Charging_Adjusted_Penalty>
0.00138697

> <i_epik_Tot_Q>
1

> <i_epik_Tot_abs_Q>
1

> <r_epik_Metal_State_Penalty>
-0

> <b_epik_Metal_Only>
0

> <s_lp_Force_Field>
OPLS_2005

> <r_lp_Energy>
59.1545

> <b_lp_Chiralities_Consistent>
1

> <s_lp_Variant>
AV-unprocessed.smi:198-2

> <Gold.Version>
5.8.1

> <Gold.Id.Protein>
6NUR|6NUR_protein|mol2

> <Gold.PLP.Fitness>
46.9985

> <Gold.PLP.PLP>
-31.6053

> <Gold.PLP.part.hbond>
-4.9495

> <Gold.PLP.part.metal>
0.0000

> <Gold.PLP.part.buried>
-2.2341

> <Gold.PLP.part.nonpolar>
-23.9655

> <Gold.PLP.part.repulsive>
0.2582

> <Gold.PLP.ligand.clash>
0.0000

> <Gold.PLP.ligand.torsion>
0.6609

> <Gold.PLP.Chemscore.Hbond>
4.9750

> <Gold.PLP.Chemscore.CHOScore>
0.2937

> <Gold.PLP.Chemscore.Metal>
0.0000

> <Gold.Chemscore.Hbonds>
donor molecule, donor type, donor heavy atom, donor atom, acceptor molecule, acceptor atom, score
      L1  H     2    59       P1  8028  2.00
      L1  H    24    51       P1 10747  1.00
      L1  H    26    54       P1 10956  0.55
      P1  H 10752 10764       L1    17  1.00
      L1  C    18    45       P1  7949  0.25

> <Gold.PLP.Chemscore.Internal.Correction>
0.9090

> <Gold.Rescore>
     Score         DG    S(hbond)    S(metal)    S(lipo)     H(rot)  DE(clash)    DE(int)     intcor
     15.29     -16.58       3.00        0.00      76.67       3.08       0.82       0.47       ----

> <Gold.Chemscore.Fitness>
15.2902

> <Gold.Chemscore.DG>
-16.5814

> <Gold.Chemscore.ZeroCoef>
-5.4800

> <Gold.Chemscore.Hbond>
2.9974

> <Gold.Chemscore.Metal>
0.0000

> <Gold.Chemscore.Lipo>
76.6665

> <Gold.Chemscore.Internal_Hbond>
0.0000

> <Gold.Chemscore.DEClash>
0.8166

> <Gold.Chemscore.DEInternal>
0.4745

> <Gold.Chemscore.Rot>
3.0781

> <Gold.Chemscore.Internal.Correction>
   9.000000E+99

> <Gold.Chemscore.Hbonds>
donor molecule, donor type, donor heavy atom, donor atom, acceptor molecule, acceptor atom, score
      L1  H     2    59       P1  8028  0.99
      L1  H    24    51       P1 10747  1.00
      L1  H    26    54       P1 10956  0.03
      P1  H 10752 10764       L1    17  0.30

> <Gold.Chemscore.Hbond.Weighted>
-10.0114

> <Gold.Chemscore.Metal.Weighted>
-0.0000

> <Gold.Chemscore.Lipo.Weighted>
-8.9700

> <Gold.Chemscore.Internal_Hbond.Weighted>
0.0000

> <Gold.Chemscore.DEClash.Weighted>
0.8166

> <Gold.Chemscore.DEInternal.Weighted>
0.4745

> <Gold.Chemscore.Rot.Weighted>
7.8800

> <Gold.Chemscore.Internal.Correction.Weighted>
   9.000000E+99

> <Gold.Protein.RotatedTorsions>
[ 6907 6896 6895 6894 ] final  -56.37 input  -60.11 | X-H torsion
[ 7974 7965 7964 7962 ] final   87.10 input  175.53 | X-H torsion
[ 8008 7997 7996 7995 ] final -143.90 input   59.86 | X-H torsion
[ 10167 10162 10161 10158 ] final  -56.00 input  -65.29 | X-H torsion
[ 10718 10713 10712 10709 ] final -123.98 input   66.30 | X-H torsion
[ 10763 10752 10751 10750 ] final  -64.66 input  -60.55 | X-H torsion
[ 11005 11000 10999 10996 ] final   48.69 input  -57.11 | X-H torsion

> <Gold.Protein.ActiveResidues>
 VAL166  LYS551  ARG553  GLY616  TRP617  ASP618  TYR619  PRO620  LYS621  CYS622 
 ASP623  PHE694  ASN695  SER759  ASP760  ASP761  ALA762  ILE779  LEU786  VAL792 
 PHE793  MET794  SER795  GLU796  ALA797  LYS798  CYS799  TRP800  GLU811  SER814 

> <Gold.Protein.RotatedAtoms>
  150.8173  134.7362  159.6741 H   0  0  0  0  0  0  0  0  0  0  0  0  # atno 6907 bound_to 6896
  152.4291  134.5808  159.9957 H   0  0  0  0  0  0  0  0  0  0  0  0  # atno 6908 bound_to 6896
  151.6001  133.3320  159.3081 H   0  0  0  0  0  0  0  0  0  0  0  0  # atno 6909 bound_to 6896
  145.5635  139.2306  143.2446 H   0  0  0  0  0  0  0  0  0  0  0  0  # atno 7974 bound_to 7965
  155.5182  140.0589  157.2911 H   0  0  0  0  0  0  0  0  0  0  0  0  # atno 8008 bound_to 7997
  154.4527  140.1957  156.0417 H   0  0  0  0  0  0  0  0  0  0  0  0  # atno 8009 bound_to 7997
  156.0737  140.3256  155.7611 H   0  0  0  0  0  0  0  0  0  0  0  0  # atno 8010 bound_to 7997
  140.6342  143.2474  151.5161 H   0  0  0  0  0  0  0  0  0  0  0  0  # atno 10167 bound_to 10162
  156.1548  130.6560  150.9966 H   0  0  0  0  0  0  0  0  0  0  0  0  # atno 10718 bound_to 10713
  154.3335  135.6172  153.5562 H   0  0  0  0  0  0  0  0  0  0  0  0  # atno 10763 bound_to 10752
  152.9809  135.5752  154.4935 H   0  0  0  0  0  0  0  0  0  0  0  0  # atno 10764 bound_to 10752
  154.4626  135.2856  155.1679 H   0  0  0  0  0  0  0  0  0  0  0  0  # atno 10765 bound_to 10752
  140.1169  134.4881  155.8630 H   0  0  0  0  0  0  0  0  0  0  0  0  # atno 11005 bound_to 11000
  146.1835  140.6460  142.9178 LP  0  0  0  0  0  0  0  0  0  0  0  0  # atno 17320 bound_to 7965
  144.7472  140.5097  143.6827 LP  0  0  0  0  0  0  0  0  0  0  0  0  # atno 17321 bound_to 7965
  139.5554  144.2289  152.1603 LP  0  0  0  0  0  0  0  0  0  0  0  0  # atno 17342 bound_to 10162
  140.1541  144.5087  150.6670 LP  0  0  0  0  0  0  0  0  0  0  0  0  # atno 17343 bound_to 10162
  157.6686  131.0866  150.7668 LP  0  0  0  0  0  0  0  0  0  0  0  0  # atno 17370 bound_to 10713
  156.7734  130.4836  149.5414 LP  0  0  0  0  0  0  0  0  0  0  0  0  # atno 17371 bound_to 10713
  141.2143  133.6746  156.6813 LP  0  0  0  0  0  0  0  0  0  0  0  0  # atno 17394 bound_to 11000
  140.3017  134.8158  157.4103 LP  0  0  0  0  0  0  0  0  0  0  0  0  # atno 17395 bound_to 11000

$$$$
