AV-unprocessed.smi:265|AV-procd|sdf|2025|dock10
  -GOLD-   2262021233D 1   1.00000     0.00000
 Structure written by MMmdl.
 52 56  0  0  0  0  0  0  0  0  1 V2000
  144.4271  132.0613  152.8427 C   0  0  0  0  0  0  0  0  0  0  0  0
  144.1713  133.5652  152.6526 C   0  0  2  0  0  0  0  0  0  0  0  0
  143.7982  133.8439  151.3108 O   0  0  0  0  0  0  0  0  0  0  0  0
  143.9635  135.2366  151.1160 C   0  0  0  0  0  0  0  0  0  0  0  0
  145.3090  135.5106  151.7766 C   0  0  0  0  0  0  0  0  0  0  0  0
  145.3524  134.5274  152.9507 C   0  0  2  0  0  0  0  0  0  0  0  0
  146.6009  133.8550  152.9158 O   0  0  0  0  0  0  0  0  0  0  0  0
  145.2262  135.2457  154.3170 C   0  0  0  0  0  0  0  0  0  0  0  0
  146.3634  136.0975  154.6326 N   0  0  0  0  0  0  0  0  0  0  0  0
  147.3740  135.8268  155.5277 C   0  0  0  0  0  0  0  0  0  0  0  0
  148.2803  136.7582  155.6431 N   0  0  0  0  0  0  0  0  0  0  0  0
  147.8737  137.7409  154.7485 C   0  0  0  0  0  0  0  0  0  0  0  0
  148.3889  139.0140  154.3734 C   0  0  0  0  0  0  0  0  0  0  0  0
  149.5311  139.5253  154.8986 N   0  0  0  0  0  0  0  0  0  0  0  0
  150.4614  138.5962  155.5395 C   0  0  0  0  0  0  0  0  0  0  0  0
  151.8445  139.2429  155.7097 C   0  0  0  0  0  0  0  0  0  0  0  0
  151.7594  140.5936  156.4393 C   0  0  2  0  0  0  0  0  0  0  0  0
  151.3802  140.3982  157.7955 O   0  0  0  0  0  0  0  0  0  0  0  0
  151.4525  141.5831  158.5905 C   0  0  0  0  0  0  0  0  0  0  0  0
  150.7554  142.7820  157.9206 C   0  0  0  0  0  0  0  0  0  0  0  0
  150.4766  143.7779  158.5839 O   0  0  0  0  0  0  0  0  0  0  0  0
  150.5086  142.7151  156.6025 N   0  0  0  0  0  0  0  0  0  0  0  0
  150.7084  141.5199  155.7897 C   0  0  2  0  0  0  0  0  0  0  0  0
  149.3597  140.7979  155.5964 C   0  0  0  0  0  0  0  0  0  0  0  0
  147.6886  139.7236  153.4481 N   0  0  0  0  0  0  0  0  0  0  0  0
  146.5695  139.2221  152.9179 C   0  0  0  0  0  0  0  0  0  0  0  0
  145.9796  138.0520  153.1681 N   0  0  0  0  0  0  0  0  0  0  0  0
  146.6701  137.3394  154.1033 C   0  0  0  0  0  0  0  0  0  0  0  0
  152.7443  141.0643  156.4150 H   0  0  0  0  0  0  0  0  0  0  0  0
  151.0761  141.8364  154.8127 H   0  0  0  0  0  0  0  0  0  0  0  0
  144.7227  131.8388  153.8683 H   0  0  0  0  0  0  0  0  0  0  0  0
  145.2122  131.7000  152.1782 H   0  0  0  0  0  0  0  0  0  0  0  0
  143.5260  131.4873  152.6272 H   0  0  0  0  0  0  0  0  0  0  0  0
  143.3131  133.8481  153.2631 H   0  0  0  0  0  0  0  0  0  0  0  0
  143.9504  135.5012  150.0586 H   0  0  0  0  0  0  0  0  0  0  0  0
  143.1611  135.7785  151.6195 H   0  0  0  0  0  0  0  0  0  0  0  0
  146.1012  135.2980  151.0565 H   0  0  0  0  0  0  0  0  0  0  0  0
  145.4158  136.5538  152.0770 H   0  0  0  0  0  0  0  0  0  0  0  0
  147.2677  134.4726  152.6577 H   0  0  0  0  0  0  0  0  0  0  0  0
  144.3235  135.8573  154.3443 H   0  0  0  0  0  0  0  0  0  0  0  0
  145.1174  134.5108  155.1158 H   0  0  0  0  0  0  0  0  0  0  0  0
  147.4132  134.9140  156.1043 H   0  0  0  0  0  0  0  0  0  0  0  0
  150.0644  138.3014  156.5121 H   0  0  0  0  0  0  0  0  0  0  0  0
  150.5596  137.6887  154.9420 H   0  0  0  0  0  0  0  0  0  0  0  0
  152.5120  138.5675  156.2452 H   0  0  0  0  0  0  0  0  0  0  0  0
  152.2873  139.3973  154.7250 H   0  0  0  0  0  0  0  0  0  0  0  0
  150.9979  141.3868  159.5619 H   0  0  0  0  0  0  0  0  0  0  0  0
  152.4981  141.8374  158.7682 H   0  0  0  0  0  0  0  0  0  0  0  0
  150.0842  143.5137  156.1538 H   0  0  0  0  0  0  0  0  0  0  0  0
  148.6726  141.4552  155.0640 H   0  0  0  0  0  0  0  0  0  0  0  0
  148.9021  140.5949  156.5659 H   0  0  0  0  0  0  0  0  0  0  0  0
  146.0765  139.8482  152.1888 H   0  0  0  0  0  0  0  0  0  0  0  0
  1  2  1  0  0  0  0
  1 31  1  0  0  0  0
  1 32  1  0  0  0  0
  1 33  1  0  0  0  0
  2  6  1  0  0  0  0
  2  3  1  0  0  0  0
  2 34  1  0  0  0  0
  3  4  1  0  0  0  0
  4  5  1  0  0  0  0
  4 35  1  0  0  0  0
  4 36  1  0  0  0  0
  5  6  1  0  0  0  0
  5 37  1  0  0  0  0
  5 38  1  0  0  0  0
  6  7  1  0  0  0  0
  6  8  1  0  0  0  0
  7 39  1  0  0  0  0
  8  9  1  0  0  0  0
  8 40  1  0  0  0  0
  8 41  1  0  0  0  0
  9 28  1  0  0  0  0
  9 10  1  0  0  0  0
 10 11  2  0  0  0  0
 10 42  1  0  0  0  0
 11 12  1  0  0  0  0
 12 28  2  0  0  0  0
 12 13  1  0  0  0  0
 13 14  1  0  0  0  0
 13 25  2  0  0  0  0
 14 24  1  0  0  0  0
 14 15  1  0  0  0  0
 15 16  1  0  0  0  0
 15 43  1  0  0  0  0
 15 44  1  0  0  0  0
 16 17  1  0  0  0  0
 16 45  1  0  0  0  0
 16 46  1  0  0  0  0
 17 29  1  0  0  0  0
 17 23  1  0  0  0  0
 17 18  1  0  0  0  0
 18 19  1  0  0  0  0
 19 20  1  0  0  0  0
 19 47  1  0  0  0  0
 19 48  1  0  0  0  0
 20 21  2  0  0  0  0
 20 22  1  0  0  0  0
 22 23  1  0  0  0  0
 22 49  1  0  0  0  0
 23 30  1  0  0  0  0
 23 24  1  0  0  0  0
 24 50  1  0  0  0  0
 24 51  1  0  0  0  0
 25 26  1  0  0  0  0
 26 27  2  0  0  0  0
 26 52  1  0  0  0  0
 27 28  1  0  0  0  0
M  END
> <s_m_source_file>
AV-unprocessed.smi

> <i_m_source_file_index>
265

> <i_lp_mmshare_version>
43012

> <i_f3d_flags>
0

> <s_epik_input>
W0NIMl0xW0NIMl1PW0NAQEhdKFtDSDNdKVtDQEBdMShbT0hdKVtDSDJdbihbY0hdbjIpYyhjMjMpbltjSF1uYzNOKFtDSDJdW0NIMl00KVtDSDJdW0NAQEhdKFtDQEhdNDUpW05IXUMoPU8pW0NIMl1PNQ==

> <s_epik_cmdline>
J2VwaWtfcHl0aG9uJywgJy1waCcsICc3LjAnLCAnLXRuJywgJzgnLCAnLW1hJywgJzIwMCcsICctbWV0YWxfYmluZGluZycsICctaW1hZScsICc8aW5maWxlLm1hZT4nLCAnLW9tYWUnLCAnPG91dGZpbGUubWFlPic=

> <r_lp_tautomer_probability>
1

> <r_epik_Ionization_Penalty>
0.00221504

> <r_epik_Ionization_Penalty_Charging>
0

> <r_epik_Ionization_Penalty_Neutral>
0.00221504

> <r_epik_State_Penalty>
-0

> <r_epik_Charging_Adjusted_Penalty>
0

> <i_epik_Tot_Q>
0

> <i_epik_Tot_abs_Q>
0

> <r_epik_Metal_State_Penalty>
-0

> <b_epik_Metal_Only>
0

> <s_lp_Force_Field>
OPLS_2005

> <r_lp_Energy>
44.0403

> <b_lp_Chiralities_Consistent>
1

> <s_lp_Variant>
AV-unprocessed.smi:265-11

> <Gold.Version>
5.8.1

> <Gold.Id.Protein>
6NUR|6NUR_protein|mol2

> <Gold.PLP.Fitness>
40.6224

> <Gold.PLP.PLP>
-32.2319

> <Gold.PLP.part.hbond>
-2.0000

> <Gold.PLP.part.metal>
0.0000

> <Gold.PLP.part.buried>
-3.3591

> <Gold.PLP.part.nonpolar>
-27.5702

> <Gold.PLP.part.repulsive>
1.5956

> <Gold.PLP.ligand.clash>
0.0000

> <Gold.PLP.ligand.torsion>
0.4859

> <Gold.PLP.Chemscore.Hbond>
2.0000

> <Gold.PLP.Chemscore.CHOScore>
1.0000

> <Gold.PLP.Chemscore.Metal>
0.0000

> <Gold.Chemscore.Hbonds>
donor molecule, donor type, donor heavy atom, donor atom, acceptor molecule, acceptor atom, score
      L1  H    22    49       P1  8028  1.00
      L1  C    26    52       P1 10175  0.83

> <Gold.PLP.Chemscore.Internal.Correction>
0.3624

> <Gold.Rescore>
     Score         DG    S(hbond)    S(metal)    S(lipo)     H(rot)  DE(clash)    DE(int)     intcor
     12.19     -14.31       1.95        0.00      68.99       2.25       0.09       2.03       ----

> <Gold.Chemscore.Fitness>
12.1871

> <Gold.Chemscore.DG>
-14.3056

> <Gold.Chemscore.ZeroCoef>
-5.4800

> <Gold.Chemscore.Hbond>
1.9467

> <Gold.Chemscore.Metal>
0.0000

> <Gold.Chemscore.Lipo>
68.9875

> <Gold.Chemscore.Internal_Hbond>
0.0000

> <Gold.Chemscore.DEClash>
0.0905

> <Gold.Chemscore.DEInternal>
2.0280

> <Gold.Chemscore.Rot>
2.2453

> <Gold.Chemscore.Internal.Correction>
   9.000000E+99

> <Gold.Chemscore.Hbonds>
donor molecule, donor type, donor heavy atom, donor atom, acceptor molecule, acceptor atom, score
      L1  H     7    39       P1  7948  0.01
      L1  H    22    49       P1  8028  1.00

> <Gold.Chemscore.Hbond.Weighted>
-6.5020

> <Gold.Chemscore.Metal.Weighted>
-0.0000

> <Gold.Chemscore.Lipo.Weighted>
-8.0715

> <Gold.Chemscore.Internal_Hbond.Weighted>
0.0000

> <Gold.Chemscore.DEClash.Weighted>
0.0905

> <Gold.Chemscore.DEInternal.Weighted>
2.0280

> <Gold.Chemscore.Rot.Weighted>
5.7479

> <Gold.Chemscore.Internal.Correction.Weighted>
   9.000000E+99

> <Gold.Protein.RotatedTorsions>
[ 6907 6896 6895 6894 ] final  135.85 input  -60.11 | X-H torsion
[ 7974 7965 7964 7962 ] final  102.14 input  175.53 | X-H torsion
[ 8008 7997 7996 7995 ] final  160.53 input   59.86 | X-H torsion
[ 10167 10162 10161 10158 ] final  -39.60 input  -65.29 | X-H torsion
[ 10718 10713 10712 10709 ] final -145.43 input   66.30 | X-H torsion
[ 10763 10752 10751 10750 ] final  -54.19 input  -60.55 | X-H torsion
[ 11005 11000 10999 10996 ] final   21.61 input  -57.11 | X-H torsion

> <Gold.Protein.ActiveResidues>
 VAL166  LYS551  ARG553  GLY616  TRP617  ASP618  TYR619  PRO620  LYS621  CYS622 
 ASP623  PHE694  ASN695  SER759  ASP760  ASP761  ALA762  ILE779  LEU786  VAL792 
 PHE793  MET794  SER795  GLU796  ALA797  LYS798  CYS799  TRP800  GLU811  SER814 

> <Gold.Protein.RotatedAtoms>
  152.2959  133.5607  159.5587 H   0  0  0  0  0  0  0  0  0  0  0  0  # atno 6907 bound_to 6896
  150.7256  134.0361  159.3759 H   0  0  0  0  0  0  0  0  0  0  0  0  # atno 6908 bound_to 6896
  151.8264  135.0636  160.0482 H   0  0  0  0  0  0  0  0  0  0  0  0  # atno 6909 bound_to 6896
  145.3630  139.2414  143.3496 H   0  0  0  0  0  0  0  0  0  0  0  0  # atno 7974 bound_to 7965
  156.2166  140.1801  156.7575 H   0  0  0  0  0  0  0  0  0  0  0  0  # atno 8008 bound_to 7997
  154.5800  140.0668  156.9119 H   0  0  0  0  0  0  0  0  0  0  0  0  # atno 8009 bound_to 7997
  155.2519  140.3329  155.4284 H   0  0  0  0  0  0  0  0  0  0  0  0  # atno 8010 bound_to 7997
  140.7059  143.3205  151.2805 H   0  0  0  0  0  0  0  0  0  0  0  0  # atno 10167 bound_to 10162
  156.3824  130.7843  151.2037 H   0  0  0  0  0  0  0  0  0  0  0  0  # atno 10718 bound_to 10713
  154.1708  135.6459  153.5009 H   0  0  0  0  0  0  0  0  0  0  0  0  # atno 10763 bound_to 10752
  153.0085  135.5383  154.6614 H   0  0  0  0  0  0  0  0  0  0  0  0  # atno 10764 bound_to 10752
  154.5953  135.2938  155.0565 H   0  0  0  0  0  0  0  0  0  0  0  0  # atno 10765 bound_to 10752
  140.3897  134.1832  155.7662 H   0  0  0  0  0  0  0  0  0  0  0  0  # atno 11005 bound_to 11000
  146.2919  140.4268  142.8736 LP  0  0  0  0  0  0  0  0  0  0  0  0  # atno 17320 bound_to 7965
  144.8632  140.7169  143.6094 LP  0  0  0  0  0  0  0  0  0  0  0  0  # atno 17321 bound_to 7965
  139.6657  144.0110  152.2721 LP  0  0  0  0  0  0  0  0  0  0  0  0  # atno 17342 bound_to 10162
  139.9692  144.6505  150.8005 LP  0  0  0  0  0  0  0  0  0  0  0  0  # atno 17343 bound_to 10162
  157.7493  131.0340  150.4298 LP  0  0  0  0  0  0  0  0  0  0  0  0  # atno 17370 bound_to 10713
  156.4544  130.4018  149.6615 LP  0  0  0  0  0  0  0  0  0  0  0  0  # atno 17371 bound_to 10713
  141.1895  133.8237  157.0954 LP  0  0  0  0  0  0  0  0  0  0  0  0  # atno 17394 bound_to 11000
  140.0416  134.9851  157.0972 LP  0  0  0  0  0  0  0  0  0  0  0  0  # atno 17395 bound_to 11000

$$$$
