AV-unprocessed.smi:1997|AV-procd|sdf|8087|dock1
  -GOLD-   2272010303D 1   1.00000     0.00000
 Structure written by MMmdl.
 37 39  0  0  0  0  0  0  0  0  1 V2000
  146.4845  136.9849  153.5013 O   0  0  0  0  0  0  0  0  0  0  0  0
  145.6921  137.8747  153.1909 C   0  0  0  0  0  0  0  0  0  0  0  0
  145.8678  139.1882  153.4183 N   0  0  0  0  0  0  0  0  0  0  0  0
  146.9543  139.8318  154.0673 C   0  0  0  0  0  0  0  0  0  0  0  0
  146.8492  140.9994  154.7165 N   0  0  0  0  0  0  0  0  0  0  0  0
  148.0641  141.4060  155.2505 N   0  0  0  0  0  0  0  0  0  0  0  0
  149.0497  140.5389  154.9896 C   0  0  0  0  0  0  0  0  0  0  0  0
  150.4507  140.7624  155.4526 C   0  0  0  0  0  0  0  0  0  0  0  0
  150.7882  140.7504  156.9259 C   0  0  0  0  0  0  0  0  0  0  0  0
  150.8600  142.0411  156.1509 C   0  0  0  0  0  0  0  0  0  0  0  0
  148.5606  139.1251  154.0612 S   0  0  0  0  0  0  0  0  0  0  0  0
  144.5243  137.6425  152.5718 N   0  0  0  0  0  0  0  0  0  0  0  0
  144.0226  136.3261  152.1701 C   0  0  1  0  0  0  0  0  0  0  0  0
  145.0301  135.7320  151.1589 C   0  0  0  0  0  0  0  0  0  0  0  0
  144.4296  134.6476  150.2474 C   0  0  0  0  0  0  0  0  0  0  0  0
  143.9788  133.3689  150.9699 C   0  0  0  0  0  0  0  0  0  0  0  0
  142.8519  133.6001  151.9909 C   0  0  0  0  0  0  0  0  0  0  0  0
  143.3476  134.1778  153.2333 N   0  0  0  0  0  0  0  0  0  0  0  0
  143.9137  135.3838  153.3919 C   0  0  0  0  0  0  0  0  0  0  0  0
  144.3440  135.7287  154.4923 O   0  0  0  0  0  0  0  0  0  0  0  0
  145.1308  139.7998  153.1003 H   0  0  0  0  0  0  0  0  0  0  0  0
  151.1605  140.3097  154.7630 H   0  0  0  0  0  0  0  0  0  0  0  0
  149.9681  140.6346  157.6320 H   0  0  0  0  0  0  0  0  0  0  0  0
  151.7274  140.2876  157.2216 H   0  0  0  0  0  0  0  0  0  0  0  0
  151.8479  142.4394  155.9295 H   0  0  0  0  0  0  0  0  0  0  0  0
  150.0935  142.7856  156.3558 H   0  0  0  0  0  0  0  0  0  0  0  0
  143.9412  138.4348  152.3466 H   0  0  0  0  0  0  0  0  0  0  0  0
  143.0445  136.4466  151.7008 H   0  0  0  0  0  0  0  0  0  0  0  0
  145.3914  136.5294  150.5073 H   0  0  0  0  0  0  0  0  0  0  0  0
  145.9165  135.3491  151.6682 H   0  0  0  0  0  0  0  0  0  0  0  0
  143.5886  135.0664  149.6933 H   0  0  0  0  0  0  0  0  0  0  0  0
  145.1724  134.3759  149.4966 H   0  0  0  0  0  0  0  0  0  0  0  0
  143.6234  132.6636  150.2180 H   0  0  0  0  0  0  0  0  0  0  0  0
  144.8308  132.8870  151.4515 H   0  0  0  0  0  0  0  0  0  0  0  0
  142.0572  134.2181  151.5705 H   0  0  0  0  0  0  0  0  0  0  0  0
  142.3949  132.6428  152.2426 H   0  0  0  0  0  0  0  0  0  0  0  0
  143.2816  133.5921  154.0533 H   0  0  0  0  0  0  0  0  0  0  0  0
  1  2  2  0  0  0  0
  2  3  1  0  0  0  0
  2 12  1  0  0  0  0
  3  4  1  0  0  0  0
  3 21  1  0  0  0  0
  4 11  1  0  0  0  0
  4  5  2  0  0  0  0
  5  6  1  0  0  0  0
  6  7  2  0  0  0  0
  7  8  1  0  0  0  0
  7 11  1  0  0  0  0
  8 10  1  0  0  0  0
  8  9  1  0  0  0  0
  8 22  1  0  0  0  0
  9 10  1  0  0  0  0
  9 23  1  0  0  0  0
  9 24  1  0  0  0  0
 10 25  1  0  0  0  0
 10 26  1  0  0  0  0
 12 13  1  0  0  0  0
 12 27  1  0  0  0  0
 13 19  1  0  0  0  0
 13 14  1  0  0  0  0
 13 28  1  0  0  0  0
 14 15  1  0  0  0  0
 14 29  1  0  0  0  0
 14 30  1  0  0  0  0
 15 16  1  0  0  0  0
 15 31  1  0  0  0  0
 15 32  1  0  0  0  0
 16 17  1  0  0  0  0
 16 33  1  0  0  0  0
 16 34  1  0  0  0  0
 17 18  1  0  0  0  0
 17 35  1  0  0  0  0
 17 36  1  0  0  0  0
 18 19  1  0  0  0  0
 18 37  1  0  0  0  0
 19 20  2  0  0  0  0
M  END
> <s_m_source_file>
AV-unprocessed.smi

> <i_m_source_file_index>
1997

> <i_lp_mmshare_version>
43012

> <i_f3d_flags>
0

> <s_epik_input>
W0NIMl0xW0NIMl1bQ0hdMWMoczIpbm5jMltOSF1DKD1PKVtOSF1bQ0BASF0zW0NIMl1bQ0gyXVtDSDJdW0NIMl1bTkhdQzM9Tw==

> <s_epik_cmdline>
J2VwaWtfcHl0aG9uJywgJy1waCcsICc3LjAnLCAnLXRuJywgJzgnLCAnLW1hJywgJzIwMCcsICctbWV0YWxfYmluZGluZycsICctaW1hZScsICc8aW5maWxlLm1hZT4nLCAnLW9tYWUnLCAnPG91dGZpbGUubWFlPic=

> <r_lp_tautomer_probability>
1

> <r_epik_Ionization_Penalty>
0.000421558

> <r_epik_Ionization_Penalty_Charging>
0

> <r_epik_Ionization_Penalty_Neutral>
0.000421558

> <r_epik_State_Penalty>
-0

> <r_epik_Charging_Adjusted_Penalty>
0

> <i_epik_Tot_Q>
0

> <i_epik_Tot_abs_Q>
0

> <r_epik_Metal_State_Penalty>
0.200761

> <b_epik_Metal_Only>
0

> <s_lp_Force_Field>
OPLS_2005

> <r_lp_Energy>
8.5849

> <b_lp_Chiralities_Consistent>
1

> <s_lp_Variant>
AV-unprocessed.smi:1997-2

> <Gold.Version>
5.8.1

> <Gold.Id.Protein>
6NUR|6NUR_protein|mol2

> <Gold.PLP.Fitness>
38.2216

> <Gold.PLP.PLP>
-29.9314

> <Gold.PLP.part.hbond>
-4.0000

> <Gold.PLP.part.metal>
0.0000

> <Gold.PLP.part.buried>
-3.2805

> <Gold.PLP.part.nonpolar>
-23.7709

> <Gold.PLP.part.repulsive>
0.7370

> <Gold.PLP.ligand.clash>
0.0000

> <Gold.PLP.ligand.torsion>
0.2270

> <Gold.PLP.Chemscore.Hbond>
2.8725

> <Gold.PLP.Chemscore.CHOScore>
0.0000

> <Gold.PLP.Chemscore.Metal>
0.0000

> <Gold.Chemscore.Hbonds>
donor molecule, donor type, donor heavy atom, donor atom, acceptor molecule, acceptor atom, score
      L1  H     3    21       P1 10175  1.00
      L1  H    12    27       P1 10175  0.98
      L1  H    18    37       P1 10957  0.83

> <Gold.PLP.Chemscore.Internal.Correction>
0.1265

> <Gold.Rescore>
     Score         DG    S(hbond)    S(metal)    S(lipo)     H(rot)  DE(clash)    DE(int)     intcor
     14.29     -18.52       2.78        0.00      60.29       1.29       0.11       4.12       ----

> <Gold.Chemscore.Fitness>
14.2886

> <Gold.Chemscore.DG>
-18.5175

> <Gold.Chemscore.ZeroCoef>
-5.4800

> <Gold.Chemscore.Hbond>
2.7773

> <Gold.Chemscore.Metal>
0.0000

> <Gold.Chemscore.Lipo>
60.2884

> <Gold.Chemscore.Internal_Hbond>
0.0000

> <Gold.Chemscore.DEClash>
0.1078

> <Gold.Chemscore.DEInternal>
4.1211

> <Gold.Chemscore.Rot>
1.2860

> <Gold.Chemscore.Internal.Correction>
   9.000000E+99

> <Gold.Chemscore.Hbonds>
donor molecule, donor type, donor heavy atom, donor atom, acceptor molecule, acceptor atom, score
      L1  H     3    21       P1 10175  1.00
      L1  H    12    27       P1 10175  0.86
      L1  H    18    37       P1 10957  0.78

> <Gold.Chemscore.Hbond.Weighted>
-9.2760

> <Gold.Chemscore.Metal.Weighted>
-0.0000

> <Gold.Chemscore.Lipo.Weighted>
-7.0537

> <Gold.Chemscore.Internal_Hbond.Weighted>
0.0000

> <Gold.Chemscore.DEClash.Weighted>
0.1078

> <Gold.Chemscore.DEInternal.Weighted>
4.1211

> <Gold.Chemscore.Rot.Weighted>
3.2923

> <Gold.Chemscore.Internal.Correction.Weighted>
   9.000000E+99

> <Gold.Protein.RotatedTorsions>
[ 6907 6896 6895 6894 ] final  169.36 input  -60.11 | X-H torsion
[ 7974 7965 7964 7962 ] final  -48.62 input  175.53 | X-H torsion
[ 8008 7997 7996 7995 ] final   25.09 input   59.86 | X-H torsion
[ 10167 10162 10161 10158 ] final  161.00 input  -65.29 | X-H torsion
[ 10718 10713 10712 10709 ] final   91.31 input   66.30 | X-H torsion
[ 10763 10752 10751 10750 ] final   81.39 input  -60.55 | X-H torsion
[ 11005 11000 10999 10996 ] final   74.80 input  -57.11 | X-H torsion

> <Gold.Protein.ActiveResidues>
 VAL166  LYS551  ARG553  GLY616  TRP617  ASP618  TYR619  PRO620  LYS621  CYS622 
 ASP623  PHE694  ASN695  SER759  ASP760  ASP761  ALA762  ILE779  LEU786  VAL792 
 PHE793  MET794  SER795  GLU796  ALA797  LYS798  CYS799  TRP800  GLU811  SER814 

> <Gold.Protein.RotatedAtoms>
  151.8331  133.3412  159.3619 H   0  0  0  0  0  0  0  0  0  0  0  0  # atno 6907 bound_to 6896
  150.7258  134.5463  159.5782 H   0  0  0  0  0  0  0  0  0  0  0  0  # atno 6908 bound_to 6896
  152.2921  134.7710  160.0427 H   0  0  0  0  0  0  0  0  0  0  0  0  # atno 6909 bound_to 6896
  145.9492  140.7588  142.9513 H   0  0  0  0  0  0  0  0  0  0  0  0  # atno 7974 bound_to 7965
  155.0063  140.3131  155.4847 H   0  0  0  0  0  0  0  0  0  0  0  0  # atno 8008 bound_to 7997
  156.2916  140.2222  156.5117 H   0  0  0  0  0  0  0  0  0  0  0  0  # atno 8009 bound_to 7997
  154.7574  140.0461  157.0932 H   0  0  0  0  0  0  0  0  0  0  0  0  # atno 8010 bound_to 7997
  139.4845  144.4579  151.8743 H   0  0  0  0  0  0  0  0  0  0  0  0  # atno 10167 bound_to 10162
  157.6960  131.0403  150.3710 H   0  0  0  0  0  0  0  0  0  0  0  0  # atno 10718 bound_to 10713
  153.1113  135.4767  154.9040 H   0  0  0  0  0  0  0  0  0  0  0  0  # atno 10763 bound_to 10752
  154.7483  135.3099  154.8606 H   0  0  0  0  0  0  0  0  0  0  0  0  # atno 10764 bound_to 10752
  153.9194  135.6856  153.4802 H   0  0  0  0  0  0  0  0  0  0  0  0  # atno 10765 bound_to 10752
  139.9374  134.7464  156.1192 H   0  0  0  0  0  0  0  0  0  0  0  0  # atno 11005 bound_to 11000
  144.6792  140.2407  143.7344 LP  0  0  0  0  0  0  0  0  0  0  0  0  # atno 17320 bound_to 7965
  145.8194  139.2037  143.1947 LP  0  0  0  0  0  0  0  0  0  0  0  0  # atno 17321 bound_to 7965
  140.4040  144.2456  150.5891 LP  0  0  0  0  0  0  0  0  0  0  0  0  # atno 17342 bound_to 10162
  140.5030  143.2312  151.8650 LP  0  0  0  0  0  0  0  0  0  0  0  0  # atno 17343 bound_to 10162
  156.4135  130.3939  149.6875 LP  0  0  0  0  0  0  0  0  0  0  0  0  # atno 17370 bound_to 10713
  156.4151  130.7741  151.2756 LP  0  0  0  0  0  0  0  0  0  0  0  0  # atno 17371 bound_to 10713
  141.0993  133.6683  156.2718 LP  0  0  0  0  0  0  0  0  0  0  0  0  # atno 17394 bound_to 11000
  140.6041  134.5525  157.5522 LP  0  0  0  0  0  0  0  0  0  0  0  0  # atno 17395 bound_to 11000

$$$$
