AV-unprocessed.smi:1082|AV-procd|sdf|4713|dock1
  -GOLD-   22720 3233D 1   1.00000     0.00000
 Structure written by MMmdl.
 49 51  0  0  0  0  0  0  0  0  3 V2000
  145.8497  137.4934  153.2477 O   0  0  0  0  0  0  0  0  0  0  0  0
  145.0883  138.4603  153.2481 C   0  0  0  0  0  0  0  0  0  0  0  0
  143.8090  138.3925  152.8571 N   0  0  0  0  0  0  0  0  0  0  0  0
  143.1587  137.1792  152.3808 C   0  0  0  0  0  0  0  0  0  0  0  0
  143.1229  136.1171  153.4911 C   0  0  0  0  0  0  0  0  0  0  0  0
  143.0954  134.7368  152.9513 N   0  3  0  0  0  0  0  0  0  0  0  0
  141.8439  134.3917  152.2335 C   0  0  0  0  0  0  0  0  0  0  0  0
  142.2536  133.7502  150.9029 C   0  0  0  0  0  0  0  0  0  0  0  0
  143.6940  133.3091  151.1302 C   0  0  0  0  0  0  0  0  0  0  0  0
  144.2293  134.3877  152.0665 C   0  0  0  0  0  0  0  0  0  0  0  0
  145.4215  139.7097  153.6127 N   0  0  0  0  0  0  0  0  0  0  0  0
  146.6889  140.1887  154.0504 C   0  0  0  0  0  0  0  0  0  0  0  0
  147.8381  139.3601  154.1173 C   0  0  0  0  0  0  0  0  0  0  0  0
  149.0578  139.8937  154.5790 C   0  0  0  0  0  0  0  0  0  0  0  0
  149.1099  141.2434  154.9740 C   0  0  0  0  0  0  0  0  0  0  0  0
  147.9956  142.0020  154.9118 N   0  3  0  0  0  0  0  0  0  0  0  0
  146.7981  141.5361  154.4789 C   0  0  0  0  0  0  0  0  0  0  0  0
  145.7010  142.4147  154.4514 N   0  0  0  0  0  0  0  0  0  0  0  0
  145.2782  142.9103  155.7582 C   0  0  0  0  0  0  0  0  0  0  0  0
  144.8180  144.3508  155.5369 C   0  0  0  0  0  0  0  0  0  0  0  0
  145.7064  144.8113  154.3887 C   0  0  0  0  0  0  0  0  0  0  0  0
  145.8499  143.5466  153.5410 C   0  0  0  0  0  0  0  0  0  0  0  0
  143.2519  139.2340  152.8848 H   0  0  0  0  0  0  0  0  0  0  0  0
  142.1481  137.4278  152.0530 H   0  0  0  0  0  0  0  0  0  0  0  0
  143.6961  136.7956  151.5118 H   0  0  0  0  0  0  0  0  0  0  0  0
  144.0128  136.2271  154.1129 H   0  0  0  0  0  0  0  0  0  0  0  0
  142.2620  136.2725  154.1436 H   0  0  0  0  0  0  0  0  0  0  0  0
  141.2822  133.6849  152.8450 H   0  0  0  0  0  0  0  0  0  0  0  0
  141.2048  135.2597  152.0637 H   0  0  0  0  0  0  0  0  0  0  0  0
  141.5997  132.9282  150.6101 H   0  0  0  0  0  0  0  0  0  0  0  0
  142.2228  134.4990  150.1102 H   0  0  0  0  0  0  0  0  0  0  0  0
  143.7125  132.3383  151.6274 H   0  0  0  0  0  0  0  0  0  0  0  0
  144.2658  133.2276  150.2054 H   0  0  0  0  0  0  0  0  0  0  0  0
  144.5279  135.2592  151.4813 H   0  0  0  0  0  0  0  0  0  0  0  0
  145.0964  134.0510  152.6355 H   0  0  0  0  0  0  0  0  0  0  0  0
  144.7155  140.4176  153.4732 H   0  0  0  0  0  0  0  0  0  0  0  0
  147.8023  138.3189  153.8347 H   0  0  0  0  0  0  0  0  0  0  0  0
  149.9405  139.2733  154.6332 H   0  0  0  0  0  0  0  0  0  0  0  0
  150.0001  141.7340  155.3403 H   0  0  0  0  0  0  0  0  0  0  0  0
  144.4744  142.2947  156.1628 H   0  0  0  0  0  0  0  0  0  0  0  0
  146.1016  142.8881  156.4737 H   0  0  0  0  0  0  0  0  0  0  0  0
  143.7726  144.3651  155.2246 H   0  0  0  0  0  0  0  0  0  0  0  0
  144.9143  144.9707  156.4289 H   0  0  0  0  0  0  0  0  0  0  0  0
  145.2879  145.6505  153.8327 H   0  0  0  0  0  0  0  0  0  0  0  0
  146.6817  145.1125  154.7741 H   0  0  0  0  0  0  0  0  0  0  0  0
  146.7935  143.5362  152.9933 H   0  0  0  0  0  0  0  0  0  0  0  0
  145.0465  143.4940  152.8057 H   0  0  0  0  0  0  0  0  0  0  0  0
  143.1416  134.1059  153.7391 H   0  0  0  0  0  0  0  0  0  0  0  0
  148.0581  142.9763  155.2077 H   0  0  0  0  0  0  0  0  0  0  0  0
  1  2  2  0  0  0  0
  2  3  1  0  0  0  0
  2 11  1  0  0  0  0
  3  4  1  0  0  0  0
  3 23  1  0  0  0  0
  4  5  1  0  0  0  0
  4 24  1  0  0  0  0
  4 25  1  0  0  0  0
  5  6  1  0  0  0  0
  5 26  1  0  0  0  0
  5 27  1  0  0  0  0
  6 10  1  0  0  0  0
  6  7  1  0  0  0  0
  6 48  1  0  0  0  0
  7  8  1  0  0  0  0
  7 28  1  0  0  0  0
  7 29  1  0  0  0  0
  8  9  1  0  0  0  0
  8 30  1  0  0  0  0
  8 31  1  0  0  0  0
  9 10  1  0  0  0  0
  9 32  1  0  0  0  0
  9 33  1  0  0  0  0
 10 34  1  0  0  0  0
 10 35  1  0  0  0  0
 11 12  1  0  0  0  0
 11 36  1  0  0  0  0
 12 17  1  0  0  0  0
 12 13  2  0  0  0  0
 13 14  1  0  0  0  0
 13 37  1  0  0  0  0
 14 15  2  0  0  0  0
 14 38  1  0  0  0  0
 15 16  1  0  0  0  0
 15 39  1  0  0  0  0
 16 17  2  0  0  0  0
 16 49  1  0  0  0  0
 17 18  1  0  0  0  0
 18 22  1  0  0  0  0
 18 19  1  0  0  0  0
 19 20  1  0  0  0  0
 19 40  1  0  0  0  0
 19 41  1  0  0  0  0
 20 21  1  0  0  0  0
 20 42  1  0  0  0  0
 20 43  1  0  0  0  0
 21 22  1  0  0  0  0
 21 44  1  0  0  0  0
 21 45  1  0  0  0  0
 22 46  1  0  0  0  0
 22 47  1  0  0  0  0
M  CHG  1   6   1
M  CHG  1  16   1
M  END
> <s_m_source_file>
AV-unprocessed.smi

> <i_m_source_file_index>
1082

> <i_lp_mmshare_version>
43012

> <i_f3d_flags>
0

> <s_epik_input>
W0NIMl0xW0NIMl1bQ0gyXVtDSDJdTjFbQ0gyXVtDSDJdW05IXUMoPU8pW05IXWMyW2NIXVtjSF1bY0hdbmMyTjNbQ0gyXVtDSDJdW0NIMl1bQ0gyXTM=

> <s_epik_cmdline>
J2VwaWtfcHl0aG9uJywgJy1waCcsICc3LjAnLCAnLXRuJywgJzgnLCAnLW1hJywgJzIwMCcsICctbWV0YWxfYmluZGluZycsICctaW1hZScsICc8aW5maWxlLm1hZT4nLCAnLW9tYWUnLCAnPG91dGZpbGUubWFlPic=

> <r_lp_tautomer_probability>
0.999994

> <r_epik_Ionization_Penalty>
1.21588

> <r_epik_Ionization_Penalty_Charging>
1.21586

> <r_epik_Ionization_Penalty_Neutral>
1.99004e-05

> <r_epik_State_Penalty>
1.28011

> <r_epik_Charging_Adjusted_Penalty>
2.49596

> <i_epik_Tot_Q>
2

> <i_epik_Tot_abs_Q>
2

> <r_epik_Metal_State_Penalty>
1.35385

> <b_epik_Metal_Only>
0

> <s_lp_Force_Field>
OPLS_2005

> <r_lp_Energy>
65.6653

> <b_lp_Chiralities_Consistent>
1

> <s_lp_Variant>
AV-unprocessed.smi:1082-2

> <Gold.Version>
5.8.1

> <Gold.Id.Protein>
6NUR|6NUR_protein|mol2

> <Gold.PLP.Fitness>
43.8858

> <Gold.PLP.PLP>
-32.1939

> <Gold.PLP.part.hbond>
-4.0000

> <Gold.PLP.part.metal>
0.0000

> <Gold.PLP.part.buried>
-5.7298

> <Gold.PLP.part.nonpolar>
-25.8164

> <Gold.PLP.part.repulsive>
4.4209

> <Gold.PLP.ligand.clash>
0.0000

> <Gold.PLP.ligand.torsion>
0.2113

> <Gold.PLP.Chemscore.Hbond>
4.0000

> <Gold.PLP.Chemscore.CHOScore>
0.0000

> <Gold.PLP.Chemscore.Metal>
0.0000

> <Gold.Chemscore.Hbonds>
donor molecule, donor type, donor heavy atom, donor atom, acceptor molecule, acceptor atom, score
      L1  H     3    23       P1 10175  0.27
      L1  H    11    36       P1 10175  0.45
      L1  H    16    49       P1  8028  2.00

> <Gold.PLP.Chemscore.Internal.Correction>
0.1146

> <Gold.Rescore>
     Score         DG    S(hbond)    S(metal)    S(lipo)     H(rot)  DE(clash)    DE(int)     intcor
     14.00     -19.49       2.81        0.00      75.38       1.63       3.59       1.89       ----

> <Gold.Chemscore.Fitness>
14.0047

> <Gold.Chemscore.DG>
-19.4903

> <Gold.Chemscore.ZeroCoef>
-5.4800

> <Gold.Chemscore.Hbond>
2.8051

> <Gold.Chemscore.Metal>
0.0000

> <Gold.Chemscore.Lipo>
75.3823

> <Gold.Chemscore.Internal_Hbond>
0.0000

> <Gold.Chemscore.DEClash>
3.5942

> <Gold.Chemscore.DEInternal>
1.8914

> <Gold.Chemscore.Rot>
1.6323

> <Gold.Chemscore.Internal.Correction>
   9.000000E+99

> <Gold.Chemscore.Hbonds>
donor molecule, donor type, donor heavy atom, donor atom, acceptor molecule, acceptor atom, score
      L1  H     3    23       P1 10175  0.26
      L1  H    11    36       P1 10175  0.45
      L1  H    16    49       P1  8028  0.91

> <Gold.Chemscore.Hbond.Weighted>
-9.3692

> <Gold.Chemscore.Metal.Weighted>
-0.0000

> <Gold.Chemscore.Lipo.Weighted>
-8.8197

> <Gold.Chemscore.Internal_Hbond.Weighted>
0.0000

> <Gold.Chemscore.DEClash.Weighted>
3.5942

> <Gold.Chemscore.DEInternal.Weighted>
1.8914

> <Gold.Chemscore.Rot.Weighted>
4.1786

> <Gold.Chemscore.Internal.Correction.Weighted>
   9.000000E+99

> <Gold.Protein.RotatedTorsions>
[ 6907 6896 6895 6894 ] final -169.19 input  -60.11 | X-H torsion
[ 7974 7965 7964 7962 ] final  -15.13 input  175.53 | X-H torsion
[ 8008 7997 7996 7995 ] final  -38.89 input   59.86 | X-H torsion
[ 10167 10162 10161 10158 ] final  164.79 input  -65.29 | X-H torsion
[ 10718 10713 10712 10709 ] final  -27.29 input   66.30 | X-H torsion
[ 10763 10752 10751 10750 ] final  168.94 input  -60.55 | X-H torsion
[ 11005 11000 10999 10996 ] final   -9.71 input  -57.11 | X-H torsion

> <Gold.Protein.ActiveResidues>
 VAL166  LYS551  ARG553  GLY616  TRP617  ASP618  TYR619  PRO620  LYS621  CYS622 
 ASP623  PHE694  ASN695  SER759  ASP760  ASP761  ALA762  ILE779  LEU786  VAL792 
 PHE793  MET794  SER795  GLU796  ALA797  LYS798  CYS799  TRP800  GLU811  SER814 

> <Gold.Protein.RotatedAtoms>
  151.4876  133.3532  159.2847 H   0  0  0  0  0  0  0  0  0  0  0  0  # atno 6907 bound_to 6896
  150.8856  134.8255  159.7267 H   0  0  0  0  0  0  0  0  0  0  0  0  # atno 6908 bound_to 6896
  152.4790  134.4779  159.9708 H   0  0  0  0  0  0  0  0  0  0  0  0  # atno 6909 bound_to 6896
  146.2045  140.3448  142.8412 H   0  0  0  0  0  0  0  0  0  0  0  0  # atno 7974 bound_to 7965
  154.4030  140.1566  156.2774 H   0  0  0  0  0  0  0  0  0  0  0  0  # atno 8008 bound_to 7997
  155.8900  140.3439  155.5927 H   0  0  0  0  0  0  0  0  0  0  0  0  # atno 8009 bound_to 7997
  155.7569  140.0812  157.2165 H   0  0  0  0  0  0  0  0  0  0  0  0  # atno 8010 bound_to 7997
  139.4895  144.4199  151.9199 H   0  0  0  0  0  0  0  0  0  0  0  0  # atno 10167 bound_to 10162
  156.4400  130.4462  149.7059 H   0  0  0  0  0  0  0  0  0  0  0  0  # atno 10718 bound_to 10713
  154.3759  135.2753  155.2239 H   0  0  0  0  0  0  0  0  0  0  0  0  # atno 10763 bound_to 10752
  154.4367  135.5964  153.6106 H   0  0  0  0  0  0  0  0  0  0  0  0  # atno 10764 bound_to 10752
  152.9836  135.6008  154.3996 H   0  0  0  0  0  0  0  0  0  0  0  0  # atno 10765 bound_to 10752
  140.7370  133.8701  155.8938 H   0  0  0  0  0  0  0  0  0  0  0  0  # atno 11005 bound_to 11000
  144.8760  140.7337  143.6016 LP  0  0  0  0  0  0  0  0  0  0  0  0  # atno 17320 bound_to 7965
  145.3368  139.1743  143.4507 LP  0  0  0  0  0  0  0  0  0  0  0  0  # atno 17321 bound_to 7965
  140.3642  144.2935  150.5929 LP  0  0  0  0  0  0  0  0  0  0  0  0  # atno 17342 bound_to 10162
  140.5376  143.2230  151.8138 LP  0  0  0  0  0  0  0  0  0  0  0  0  # atno 17343 bound_to 10162
  156.3927  130.7635  151.2637 LP  0  0  0  0  0  0  0  0  0  0  0  0  # atno 17370 bound_to 10713
  157.7506  131.0263  150.3956 LP  0  0  0  0  0  0  0  0  0  0  0  0  # atno 17371 bound_to 10713
  140.9870  134.1329  157.4443 LP  0  0  0  0  0  0  0  0  0  0  0  0  # atno 17394 bound_to 11000
  139.8814  135.0028  156.6152 LP  0  0  0  0  0  0  0  0  0  0  0  0  # atno 17395 bound_to 11000

$$$$
