AV-unprocessed.smi:1352|AV-procd|sdf|5531|dock4
  -GOLD-   22720 5123D 1   1.00000     0.00000
 Structure written by MMmdl.
 47 48  0  0  0  0  0  0  0  0  2 V2000
  153.8831  141.6160  159.9809 C   0  0  0  0  0  0  0  0  0  0  0  0
  152.3825  141.8951  160.1761 C   0  0  1  0  0  0  0  0  0  0  0  0
  152.0857  143.3653  160.5247 C   0  0  0  0  0  0  0  0  0  0  0  0
  152.2391  144.2832  159.2988 C   0  0  2  0  0  0  0  0  0  0  0  0
  151.8777  145.7358  159.6399 C   0  0  0  0  0  0  0  0  0  0  0  0
  151.3928  143.7533  158.1250 C   0  0  0  0  0  0  0  0  0  0  0  0
  151.7427  142.3476  157.7951 N   0  3  2  0  0  0  0  0  0  0  0  0
  151.0609  141.8718  156.5651 C   0  0  0  0  0  0  0  0  0  0  0  0
  149.6459  141.3323  156.8511 C   0  0  0  0  0  0  0  0  0  0  0  0
  148.6815  142.4134  157.0160 N   0  0  0  0  0  0  0  0  0  0  0  0
  147.5063  142.3041  157.6540 C   0  0  0  0  0  0  0  0  0  0  0  0
  147.1070  141.2492  158.1488 O   0  0  0  0  0  0  0  0  0  0  0  0
  146.6526  143.5790  157.7184 C   0  0  0  0  0  0  0  0  0  0  0  0
  146.2555  143.9456  159.0882 N   0  0  0  0  0  0  0  0  0  0  0  0
  146.8928  145.0626  159.6642 C   0  0  0  0  0  0  0  0  0  0  0  0
  146.6030  145.4835  160.9056 C   0  0  0  0  0  0  0  0  0  0  0  0
  145.6073  144.7572  161.6574 C   0  0  0  0  0  0  0  0  0  0  0  0
  144.9893  143.6893  161.1149 C   0  0  0  0  0  0  0  0  0  0  0  0
  145.3006  143.2278  159.7570 C   0  0  0  0  0  0  0  0  0  0  0  0
  144.7380  142.2564  159.2511 O   0  0  0  0  0  0  0  0  0  0  0  0
  151.5436  141.4474  158.9628 C   0  0  0  0  0  0  0  0  0  0  0  0
  154.2911  142.1511  159.1236 H   0  0  0  0  0  0  0  0  0  0  0  0
  154.0637  140.5528  159.8195 H   0  0  0  0  0  0  0  0  0  0  0  0
  154.4546  141.9137  160.8604 H   0  0  0  0  0  0  0  0  0  0  0  0
  152.0693  141.2920  161.0293 H   0  0  0  0  0  0  0  0  0  0  0  0
  151.0655  143.4402  160.9040 H   0  0  0  0  0  0  0  0  0  0  0  0
  152.7353  143.6999  161.3347 H   0  0  0  0  0  0  0  0  0  0  0  0
  153.2854  144.2761  158.9920 H   0  0  0  0  0  0  0  0  0  0  0  0
  150.8363  145.8245  159.9502 H   0  0  0  0  0  0  0  0  0  0  0  0
  152.0259  146.3899  158.7802 H   0  0  0  0  0  0  0  0  0  0  0  0
  152.5000  146.1144  160.4515 H   0  0  0  0  0  0  0  0  0  0  0  0
  150.3291  143.8177  158.3606 H   0  0  0  0  0  0  0  0  0  0  0  0
  151.5625  144.3848  157.2517 H   0  0  0  0  0  0  0  0  0  0  0  0
  151.0303  142.6722  155.8242 H   0  0  0  0  0  0  0  0  0  0  0  0
  151.6502  141.0674  156.1229 H   0  0  0  0  0  0  0  0  0  0  0  0
  149.3221  140.6640  156.0511 H   0  0  0  0  0  0  0  0  0  0  0  0
  149.6302  140.7460  157.7688 H   0  0  0  0  0  0  0  0  0  0  0  0
  148.9324  143.3146  156.6349 H   0  0  0  0  0  0  0  0  0  0  0  0
  147.1963  144.4042  157.2544 H   0  0  0  0  0  0  0  0  0  0  0  0
  145.7725  143.4296  157.0917 H   0  0  0  0  0  0  0  0  0  0  0  0
  147.6202  145.5542  159.0347 H   0  0  0  0  0  0  0  0  0  0  0  0
  147.0990  146.3444  161.3293 H   0  0  0  0  0  0  0  0  0  0  0  0
  145.3560  145.0727  162.6594 H   0  0  0  0  0  0  0  0  0  0  0  0
  144.2465  143.1586  161.6918 H   0  0  0  0  0  0  0  0  0  0  0  0
  151.8037  140.4208  158.7078 H   0  0  0  0  0  0  0  0  0  0  0  0
  150.4852  141.4401  159.2286 H   0  0  0  0  0  0  0  0  0  0  0  0
  152.7314  142.3485  157.5881 H   0  0  0  0  0  0  0  0  0  0  0  0
  1  2  1  0  0  0  0
  1 22  1  0  0  0  0
  1 23  1  0  0  0  0
  1 24  1  0  0  0  0
  2 21  1  0  0  0  0
  2  3  1  0  0  0  0
  2 25  1  0  0  0  0
  3  4  1  0  0  0  0
  3 26  1  0  0  0  0
  3 27  1  0  0  0  0
  4  5  1  0  0  0  0
  4  6  1  0  0  0  0
  4 28  1  0  0  0  0
  5 29  1  0  0  0  0
  5 30  1  0  0  0  0
  5 31  1  0  0  0  0
  6  7  1  0  0  0  0
  6 32  1  0  0  0  0
  6 33  1  0  0  0  0
  7  8  1  0  0  0  0
  7 21  1  0  0  0  0
  7 47  1  0  0  0  0
  8  9  1  0  0  0  0
  8 34  1  0  0  0  0
  8 35  1  0  0  0  0
  9 10  1  0  0  0  0
  9 36  1  0  0  0  0
  9 37  1  0  0  0  0
 10 11  1  0  0  0  0
 10 38  1  0  0  0  0
 11 12  2  0  0  0  0
 11 13  1  0  0  0  0
 13 14  1  0  0  0  0
 13 39  1  0  0  0  0
 13 40  1  0  0  0  0
 14 19  1  0  0  0  0
 14 15  1  0  0  0  0
 15 16  2  0  0  0  0
 15 41  1  0  0  0  0
 16 17  1  0  0  0  0
 16 42  1  0  0  0  0
 17 18  2  0  0  0  0
 17 43  1  0  0  0  0
 18 19  1  0  0  0  0
 18 44  1  0  0  0  0
 19 20  2  0  0  0  0
 21 45  1  0  0  0  0
 21 46  1  0  0  0  0
M  CHG  1   7   1
M  END
> <s_m_source_file>
AV-unprocessed.smi

> <i_m_source_file_index>
1352

> <i_lp_mmshare_version>
43012

> <i_f3d_flags>
0

> <s_epik_input>
W0NIM11bQ0BASF0xW0NIMl1bQ0BASF0oW0NIM10pW0NIMl1OKFtDSDJdMSlbQ0gyXVtDSDJdW05IXUMoPU8pW0NIMl1uMltjSF1bY0hdW2NIXVtjSF1jMj1P

> <s_epik_cmdline>
J2VwaWtfcHl0aG9uJywgJy1waCcsICc3LjAnLCAnLXRuJywgJzgnLCAnLW1hJywgJzIwMCcsICctbWV0YWxfYmluZGluZycsICctaW1hZScsICc8aW5maWxlLm1hZT4nLCAnLW9tYWUnLCAnPG91dGZpbGUubWFlPic=

> <r_lp_tautomer_probability>
1

> <r_epik_Ionization_Penalty>
0.00156146

> <r_epik_Ionization_Penalty_Charging>
0.00156138

> <r_epik_Ionization_Penalty_Neutral>
8.12891e-08

> <r_epik_State_Penalty>
0.00104868

> <r_epik_Charging_Adjusted_Penalty>
0.00261006

> <i_epik_Tot_Q>
1

> <i_epik_Tot_abs_Q>
1

> <r_epik_Metal_State_Penalty>
-0

> <b_epik_Metal_Only>
0

> <s_lp_Force_Field>
OPLS_2005

> <r_lp_Energy>
27.867

> <b_lp_Chiralities_Consistent>
1

> <s_lp_Variant>
AV-unprocessed.smi:1352-4

> <Gold.Version>
5.8.1

> <Gold.Id.Protein>
6NUR|6NUR_protein|mol2

> <Gold.PLP.Fitness>
49.7694

> <Gold.PLP.PLP>
-44.9887

> <Gold.PLP.part.hbond>
-2.0000

> <Gold.PLP.part.metal>
0.0000

> <Gold.PLP.part.buried>
-4.9578

> <Gold.PLP.part.nonpolar>
-37.6413

> <Gold.PLP.part.repulsive>
0.0812

> <Gold.PLP.ligand.clash>
0.0000

> <Gold.PLP.ligand.torsion>
0.6282

> <Gold.PLP.Chemscore.Hbond>
1.0000

> <Gold.PLP.Chemscore.CHOScore>
1.0000

> <Gold.PLP.Chemscore.Metal>
0.0000

> <Gold.Chemscore.Hbonds>
donor molecule, donor type, donor heavy atom, donor atom, acceptor molecule, acceptor atom, score
      L1  H    10    38       P1  8028  1.00
      L1  C    15    41       P1  8029  0.45

> <Gold.PLP.Chemscore.Internal.Correction>
0.0371

> <Gold.Rescore>
     Score         DG    S(hbond)    S(metal)    S(lipo)     H(rot)  DE(clash)    DE(int)     intcor
     14.71     -16.96       0.82        0.00     114.67       1.83       0.11       2.13       ----

> <Gold.Chemscore.Fitness>
14.7097

> <Gold.Chemscore.DG>
-16.9552

> <Gold.Chemscore.ZeroCoef>
-5.4800

> <Gold.Chemscore.Hbond>
0.8237

> <Gold.Chemscore.Metal>
0.0000

> <Gold.Chemscore.Lipo>
114.6679

> <Gold.Chemscore.Internal_Hbond>
0.0000

> <Gold.Chemscore.DEClash>
0.1118

> <Gold.Chemscore.DEInternal>
2.1336

> <Gold.Chemscore.Rot>
1.8329

> <Gold.Chemscore.Internal.Correction>
   9.000000E+99

> <Gold.Chemscore.Hbonds>
donor molecule, donor type, donor heavy atom, donor atom, acceptor molecule, acceptor atom, score
      L1  H    10    38       P1  8028  0.92

> <Gold.Chemscore.Hbond.Weighted>
-2.7512

> <Gold.Chemscore.Metal.Weighted>
-0.0000

> <Gold.Chemscore.Lipo.Weighted>
-13.4161

> <Gold.Chemscore.Internal_Hbond.Weighted>
0.0000

> <Gold.Chemscore.DEClash.Weighted>
0.1118

> <Gold.Chemscore.DEInternal.Weighted>
2.1336

> <Gold.Chemscore.Rot.Weighted>
4.6922

> <Gold.Chemscore.Internal.Correction.Weighted>
   9.000000E+99

> <Gold.Protein.RotatedTorsions>
[ 6907 6896 6895 6894 ] final  -95.49 input  -60.11 | X-H torsion
[ 7974 7965 7964 7962 ] final  106.26 input  175.53 | X-H torsion
[ 8008 7997 7996 7995 ] final  118.70 input   59.86 | X-H torsion
[ 10167 10162 10161 10158 ] final  -58.04 input  -65.29 | X-H torsion
[ 10718 10713 10712 10709 ] final  -54.77 input   66.30 | X-H torsion
[ 10763 10752 10751 10750 ] final  -77.73 input  -60.55 | X-H torsion
[ 11005 11000 10999 10996 ] final  -90.93 input  -57.11 | X-H torsion

> <Gold.Protein.ActiveResidues>
 VAL166  LYS551  ARG553  GLY616  TRP617  ASP618  TYR619  PRO620  LYS621  CYS622 
 ASP623  PHE694  ASN695  SER759  ASP760  ASP761  ALA762  ILE779  LEU786  VAL792 
 PHE793  MET794  SER795  GLU796  ALA797  LYS798  CYS799  TRP800  GLU811  SER814 

> <Gold.Protein.RotatedAtoms>
  150.6965  134.1649  159.4190 H   0  0  0  0  0  0  0  0  0  0  0  0  # atno 6907 bound_to 6896
  151.9629  135.0112  160.0558 H   0  0  0  0  0  0  0  0  0  0  0  0  # atno 6908 bound_to 6896
  152.1911  133.4738  159.5045 H   0  0  0  0  0  0  0  0  0  0  0  0  # atno 6909 bound_to 6896
  145.3089  139.2546  143.3773 H   0  0  0  0  0  0  0  0  0  0  0  0  # atno 7974 bound_to 7965
  156.2560  140.2869  156.0876 H   0  0  0  0  0  0  0  0  0  0  0  0  # atno 8008 bound_to 7997
  155.1498  140.0397  157.2836 H   0  0  0  0  0  0  0  0  0  0  0  0  # atno 8009 bound_to 7997
  154.6469  140.2535  155.7264 H   0  0  0  0  0  0  0  0  0  0  0  0  # atno 8010 bound_to 7997
  140.6221  143.2424  151.5454 H   0  0  0  0  0  0  0  0  0  0  0  0  # atno 10167 bound_to 10162
  156.1423  130.4154  150.0082 H   0  0  0  0  0  0  0  0  0  0  0  0  # atno 10718 bound_to 10713
  154.5167  135.5754  153.6648 H   0  0  0  0  0  0  0  0  0  0  0  0  # atno 10763 bound_to 10752
  152.9908  135.6172  154.2808 H   0  0  0  0  0  0  0  0  0  0  0  0  # atno 10764 bound_to 10752
  154.2726  135.2853  155.2711 H   0  0  0  0  0  0  0  0  0  0  0  0  # atno 10765 bound_to 10752
  141.1555  133.7723  156.9807 H   0  0  0  0  0  0  0  0  0  0  0  0  # atno 11005 bound_to 11000
  146.3125  140.3621  142.8666 LP  0  0  0  0  0  0  0  0  0  0  0  0  # atno 17320 bound_to 7965
  144.9032  140.7667  143.5854 LP  0  0  0  0  0  0  0  0  0  0  0  0  # atno 17321 bound_to 7965
  139.5448  144.2551  152.1421 LP  0  0  0  0  0  0  0  0  0  0  0  0  # atno 17342 bound_to 10162
  140.1773  144.4878  150.6547 LP  0  0  0  0  0  0  0  0  0  0  0  0  # atno 17343 bound_to 10162
  156.7963  130.9274  151.3646 LP  0  0  0  0  0  0  0  0  0  0  0  0  # atno 17370 bound_to 10713
  157.6587  130.8947  149.9783 LP  0  0  0  0  0  0  0  0  0  0  0  0  # atno 17371 bound_to 10713
  140.1068  134.9502  157.2006 LP  0  0  0  0  0  0  0  0  0  0  0  0  # atno 17394 bound_to 11000
  140.3246  134.2878  155.7239 LP  0  0  0  0  0  0  0  0  0  0  0  0  # atno 17395 bound_to 11000

$$$$
