AV-unprocessed.smi:1645|AV-procd|sdf|6603|dock2
  -GOLD-   22720 7303D 1   1.00000     0.00000
 Structure written by MMmdl.
 55 58  0  0  0  0  0  0  0  0  2 V2000
  149.1272  135.1970  156.2053 O   0  0  0  0  0  0  0  0  0  0  0  0
  149.1874  135.5302  155.0221 C   0  0  0  0  0  0  0  0  0  0  0  0
  149.5858  136.7303  154.5677 N   0  0  0  0  0  0  0  0  0  0  0  0
  150.0591  137.8472  155.3085 C   0  0  0  0  0  0  0  0  0  0  0  0
  150.3762  137.8177  156.6865 C   0  0  0  0  0  0  0  0  0  0  0  0
  150.8575  138.9896  157.3006 C   0  0  0  0  0  0  0  0  0  0  0  0
  151.0198  140.1620  156.5258 C   0  0  0  0  0  0  0  0  0  0  0  0
  151.5043  141.3454  157.1239 N   0  0  0  0  0  0  0  0  0  0  0  0
  150.7935  142.5701  156.7506 C   0  0  0  0  0  0  0  0  0  0  0  0
  151.6148  143.8206  157.1086 C   0  0  0  0  0  0  0  0  0  0  0  0
  152.0266  143.8063  158.5882 C   0  0  0  0  0  0  0  0  0  0  0  0
  152.7695  142.5025  158.9142 C   0  0  0  0  0  0  0  0  0  0  0  0
  151.9293  141.2742  158.5244 C   0  0  0  0  0  0  0  0  0  0  0  0
  150.7207  140.1845  155.2038 N   0  0  0  0  0  0  0  0  0  0  0  0
  150.2614  139.0589  154.6188 C   0  0  0  0  0  0  0  0  0  0  0  0
  148.8421  134.7186  154.0128 N   0  0  0  0  0  0  0  0  0  0  0  0
  148.3540  133.3511  154.1758 C   0  0  1  0  0  0  0  0  0  0  0  0
  147.1491  133.2433  155.1203 C   0  0  0  0  0  0  0  0  0  0  0  0
  146.3254  132.0578  154.5859 C   0  0  0  0  0  0  0  0  0  0  0  0
  147.0385  131.5693  153.3843 N   0  3  1  0  0  0  0  0  0  0  0  0
  146.2197  130.8527  152.3733 C   0  0  0  0  0  0  0  0  0  0  0  0
  145.4054  131.8072  151.4839 C   0  0  0  0  0  0  0  0  0  0  0  0
  146.3144  132.8655  150.8508 C   0  0  0  0  0  0  0  0  0  0  0  0
  147.0487  133.6376  151.9520 C   0  0  0  0  0  0  0  0  0  0  0  0
  147.8581  132.6919  152.8768 C   0  0  1  0  0  0  0  0  0  0  0  0
  149.5006  136.8798  153.5729 H   0  0  0  0  0  0  0  0  0  0  0  0
  150.2731  136.9245  157.2822 H   0  0  0  0  0  0  0  0  0  0  0  0
  151.0871  138.9790  158.3556 H   0  0  0  0  0  0  0  0  0  0  0  0
  150.5598  142.5936  155.6870 H   0  0  0  0  0  0  0  0  0  0  0  0
  149.8392  142.5906  157.2786 H   0  0  0  0  0  0  0  0  0  0  0  0
  152.5063  143.8627  156.4812 H   0  0  0  0  0  0  0  0  0  0  0  0
  151.0389  144.7201  156.8894 H   0  0  0  0  0  0  0  0  0  0  0  0
  152.6579  144.6663  158.8132 H   0  0  0  0  0  0  0  0  0  0  0  0
  151.1406  143.8935  159.2183 H   0  0  0  0  0  0  0  0  0  0  0  0
  153.7180  142.4796  158.3760 H   0  0  0  0  0  0  0  0  0  0  0  0
  153.0140  142.4654  159.9759 H   0  0  0  0  0  0  0  0  0  0  0  0
  151.0475  141.2077  159.1631 H   0  0  0  0  0  0  0  0  0  0  0  0
  152.5193  140.3725  158.6929 H   0  0  0  0  0  0  0  0  0  0  0  0
  150.0451  139.1318  153.5629 H   0  0  0  0  0  0  0  0  0  0  0  0
  148.9154  135.0714  153.0695 H   0  0  0  0  0  0  0  0  0  0  0  0
  149.1580  132.7386  154.5897 H   0  0  0  0  0  0  0  0  0  0  0  0
  147.4619  133.0939  156.1542 H   0  0  0  0  0  0  0  0  0  0  0  0
  146.5452  134.1517  155.0883 H   0  0  0  0  0  0  0  0  0  0  0  0
  146.2392  131.2565  155.3201 H   0  0  0  0  0  0  0  0  0  0  0  0
  145.3171  132.3889  154.3348 H   0  0  0  0  0  0  0  0  0  0  0  0
  146.8980  130.2724  151.7465 H   0  0  0  0  0  0  0  0  0  0  0  0
  145.5663  130.1340  152.8694 H   0  0  0  0  0  0  0  0  0  0  0  0
  144.8959  131.2408  150.7039 H   0  0  0  0  0  0  0  0  0  0  0  0
  144.6242  132.2935  152.0688 H   0  0  0  0  0  0  0  0  0  0  0  0
  147.0349  132.3903  150.1838 H   0  0  0  0  0  0  0  0  0  0  0  0
  145.7253  133.5508  150.2407 H   0  0  0  0  0  0  0  0  0  0  0  0
  147.7105  134.3744  151.4959 H   0  0  0  0  0  0  0  0  0  0  0  0
  146.3187  134.2018  152.5340 H   0  0  0  0  0  0  0  0  0  0  0  0
  148.6984  132.2846  152.3123 H   0  0  0  0  0  0  0  0  0  0  0  0
  147.7019  130.8941  153.7373 H   0  0  0  0  0  0  0  0  0  0  0  0
  1  2  2  0  0  0  0
  2  3  1  0  0  0  0
  2 16  1  0  0  0  0
  3  4  1  0  0  0  0
  3 26  1  0  0  0  0
  4 15  1  0  0  0  0
  4  5  2  0  0  0  0
  5  6  1  0  0  0  0
  5 27  1  0  0  0  0
  6  7  2  0  0  0  0
  6 28  1  0  0  0  0
  7  8  1  0  0  0  0
  7 14  1  0  0  0  0
  8 13  1  0  0  0  0
  8  9  1  0  0  0  0
  9 10  1  0  0  0  0
  9 29  1  0  0  0  0
  9 30  1  0  0  0  0
 10 11  1  0  0  0  0
 10 31  1  0  0  0  0
 10 32  1  0  0  0  0
 11 12  1  0  0  0  0
 11 33  1  0  0  0  0
 11 34  1  0  0  0  0
 12 13  1  0  0  0  0
 12 35  1  0  0  0  0
 12 36  1  0  0  0  0
 13 37  1  0  0  0  0
 13 38  1  0  0  0  0
 14 15  2  0  0  0  0
 15 39  1  0  0  0  0
 16 17  1  0  0  0  0
 16 40  1  0  0  0  0
 17 25  1  0  0  0  0
 17 18  1  0  0  0  0
 17 41  1  0  0  0  0
 18 19  1  0  0  0  0
 18 42  1  0  0  0  0
 18 43  1  0  0  0  0
 19 20  1  0  0  0  0
 19 44  1  0  0  0  0
 19 45  1  0  0  0  0
 20 25  1  0  0  0  0
 20 21  1  0  0  0  0
 20 55  1  0  0  0  0
 21 22  1  0  0  0  0
 21 46  1  0  0  0  0
 21 47  1  0  0  0  0
 22 23  1  0  0  0  0
 22 48  1  0  0  0  0
 22 49  1  0  0  0  0
 23 24  1  0  0  0  0
 23 50  1  0  0  0  0
 23 51  1  0  0  0  0
 24 25  1  0  0  0  0
 24 52  1  0  0  0  0
 24 53  1  0  0  0  0
 25 54  1  0  0  0  0
M  CHG  1  20   1
M  END
> <s_m_source_file>
AV-unprocessed.smi

> <i_m_source_file_index>
1645

> <i_lp_mmshare_version>
43012

> <i_f3d_flags>
0

> <s_epik_input>
W0NIMl0xW0NIMl1bQ0gyXVtDSDJdW0NASF0oTjEyKVtDQEBIXShbQ0gyXVtDSDJdMilbTkhdQyg9TylbTkhdYzNbY0hdW2NIXWMobltjSF0zKU40W0NIMl1bQ0gyXVtDSDJdW0NIMl1bQ0gyXTQ=

> <s_epik_cmdline>
J2VwaWtfcHl0aG9uJywgJy1waCcsICc3LjAnLCAnLXRuJywgJzgnLCAnLW1hJywgJzIwMCcsICctbWV0YWxfYmluZGluZycsICctaW1hZScsICc8aW5maWxlLm1hZT4nLCAnLW9tYWUnLCAnPG91dGZpbGUubWFlPic=

> <r_lp_tautomer_probability>
1

> <r_epik_Ionization_Penalty>
0.0808019

> <r_epik_Ionization_Penalty_Charging>
0.000974069

> <r_epik_Ionization_Penalty_Neutral>
0.0798278

> <r_epik_State_Penalty>
0.0653665

> <r_epik_Charging_Adjusted_Penalty>
0.0663406

> <i_epik_Tot_Q>
1

> <i_epik_Tot_abs_Q>
1

> <r_epik_Metal_State_Penalty>
0.0585673

> <b_epik_Metal_Only>
0

> <s_lp_Force_Field>
OPLS_2005

> <r_lp_Energy>
52.8365

> <b_lp_Chiralities_Consistent>
1

> <s_lp_Variant>
AV-unprocessed.smi:1645-4

> <Gold.Version>
5.8.1

> <Gold.Id.Protein>
6NUR|6NUR_protein|mol2

> <Gold.PLP.Fitness>
49.0146

> <Gold.PLP.PLP>
-38.4720

> <Gold.PLP.part.hbond>
-3.0000

> <Gold.PLP.part.metal>
0.0000

> <Gold.PLP.part.buried>
-2.2050

> <Gold.PLP.part.nonpolar>
-32.9001

> <Gold.PLP.part.repulsive>
0.1148

> <Gold.PLP.ligand.clash>
0.0000

> <Gold.PLP.ligand.torsion>
0.2948

> <Gold.PLP.Chemscore.Hbond>
2.7354

> <Gold.PLP.Chemscore.CHOScore>
0.8368

> <Gold.PLP.Chemscore.Metal>
0.0000

> <Gold.Chemscore.Hbonds>
donor molecule, donor type, donor heavy atom, donor atom, acceptor molecule, acceptor atom, score
      L1  H     3    26       P1  7948  0.99
      L1  H    16    40       P1  7948  1.00
      P1  H  7989  7998       L1    14  0.66
      L1  C    15    39       P1  7957  0.83

> <Gold.PLP.Chemscore.Internal.Correction>
0.4154

> <Gold.Rescore>
     Score         DG    S(hbond)    S(metal)    S(lipo)     H(rot)  DE(clash)    DE(int)     intcor
     19.80     -21.61       1.72        0.00     114.58       1.17       0.39       1.42       ----

> <Gold.Chemscore.Fitness>
19.8035

> <Gold.Chemscore.DG>
-21.6138

> <Gold.Chemscore.ZeroCoef>
-5.4800

> <Gold.Chemscore.Hbond>
1.7157

> <Gold.Chemscore.Metal>
0.0000

> <Gold.Chemscore.Lipo>
114.5848

> <Gold.Chemscore.Internal_Hbond>
0.0000

> <Gold.Chemscore.DEClash>
0.3917

> <Gold.Chemscore.DEInternal>
1.4185

> <Gold.Chemscore.Rot>
1.1731

> <Gold.Chemscore.Internal.Correction>
   9.000000E+99

> <Gold.Chemscore.Hbonds>
donor molecule, donor type, donor heavy atom, donor atom, acceptor molecule, acceptor atom, score
      L1  H     3    26       P1  7948  0.81
      L1  H    16    40       P1  7948  0.25
      P1  H  7989  7998       L1    14  0.07

> <Gold.Chemscore.Hbond.Weighted>
-5.7306

> <Gold.Chemscore.Metal.Weighted>
-0.0000

> <Gold.Chemscore.Lipo.Weighted>
-13.4064

> <Gold.Chemscore.Internal_Hbond.Weighted>
0.0000

> <Gold.Chemscore.DEClash.Weighted>
0.3917

> <Gold.Chemscore.DEInternal.Weighted>
1.4185

> <Gold.Chemscore.Rot.Weighted>
3.0032

> <Gold.Chemscore.Internal.Correction.Weighted>
   9.000000E+99

> <Gold.Protein.RotatedTorsions>
[ 6907 6896 6895 6894 ] final   48.20 input  -60.11 | X-H torsion
[ 7974 7965 7964 7962 ] final  -26.88 input  175.53 | X-H torsion
[ 8008 7997 7996 7995 ] final -121.78 input   59.86 | X-H torsion
[ 10167 10162 10161 10158 ] final  129.58 input  -65.29 | X-H torsion
[ 10718 10713 10712 10709 ] final  171.07 input   66.30 | X-H torsion
[ 10763 10752 10751 10750 ] final   57.10 input  -60.55 | X-H torsion
[ 11005 11000 10999 10996 ] final  136.44 input  -57.11 | X-H torsion

> <Gold.Protein.ActiveResidues>
 VAL166  LYS551  ARG553  GLY616  TRP617  ASP618  TYR619  PRO620  LYS621  CYS622 
 ASP623  PHE694  ASN695  SER759  ASP760  ASP761  ALA762  ILE779  LEU786  VAL792 
 PHE793  MET794  SER795  GLU796  ALA797  LYS798  CYS799  TRP800  GLU811  SER814 

> <Gold.Protein.RotatedAtoms>
  152.2768  134.7872  160.0403 H   0  0  0  0  0  0  0  0  0  0  0  0  # atno 6907 bound_to 6896
  151.8466  133.3427  159.3668 H   0  0  0  0  0  0  0  0  0  0  0  0  # atno 6908 bound_to 6896
  150.7173  134.5268  159.5725 H   0  0  0  0  0  0  0  0  0  0  0  0  # atno 6909 bound_to 6896
  146.1395  140.5078  142.8658 H   0  0  0  0  0  0  0  0  0  0  0  0  # atno 7974 bound_to 7965
  155.1535  140.0404  157.2826 H   0  0  0  0  0  0  0  0  0  0  0  0  # atno 8008 bound_to 7997
  154.6387  140.2541  155.7321 H   0  0  0  0  0  0  0  0  0  0  0  0  # atno 8009 bound_to 7997
  156.2521  140.2860  156.0771 H   0  0  0  0  0  0  0  0  0  0  0  0  # atno 8010 bound_to 7997
  139.5471  144.6782  151.4440 H   0  0  0  0  0  0  0  0  0  0  0  0  # atno 10167 bound_to 10162
  156.9989  131.0170  151.2836 H   0  0  0  0  0  0  0  0  0  0  0  0  # atno 10718 bound_to 10713
  152.9843  135.5653  154.5336 H   0  0  0  0  0  0  0  0  0  0  0  0  # atno 10763 bound_to 10752
  154.4803  135.2788  155.1578 H   0  0  0  0  0  0  0  0  0  0  0  0  # atno 10764 bound_to 10752
  154.3089  135.6292  153.5510 H   0  0  0  0  0  0  0  0  0  0  0  0  # atno 10765 bound_to 10752
  140.0046  134.9464  157.0147 H   0  0  0  0  0  0  0  0  0  0  0  0  # atno 11005 bound_to 11000
  144.7777  140.5774  143.6627 LP  0  0  0  0  0  0  0  0  0  0  0  0  # atno 17320 bound_to 7965
  145.5078  139.1480  143.3621 LP  0  0  0  0  0  0  0  0  0  0  0  0  # atno 17321 bound_to 7965
  140.6722  143.8268  150.7014 LP  0  0  0  0  0  0  0  0  0  0  0  0  # atno 17342 bound_to 10162
  140.1696  143.4206  152.2010 LP  0  0  0  0  0  0  0  0  0  0  0  0  # atno 17343 bound_to 10162
  157.5404  130.8116  149.8022 LP  0  0  0  0  0  0  0  0  0  0  0  0  # atno 17370 bound_to 10713
  156.0178  130.3807  150.2055 LP  0  0  0  0  0  0  0  0  0  0  0  0  # atno 17371 bound_to 10713
  140.4665  134.1430  155.7197 LP  0  0  0  0  0  0  0  0  0  0  0  0  # atno 17394 bound_to 11000
  141.1667  133.8688  157.1693 LP  0  0  0  0  0  0  0  0  0  0  0  0  # atno 17395 bound_to 11000

$$$$
