AV-unprocessed.smi:803|AV-procd|sdf|3793|dock5
  -GOLD-   22720 1233D 1   1.00000     0.00000
 Structure written by MMmdl.
 37 38  0  0  0  0  0  0  0  0  1 V2000
  151.7469  141.7808  157.6142 C   0  0  0  0  0  0  0  0  0  0  0  0
  151.1072  141.6862  156.2235 C   0  0  0  0  0  0  0  0  0  0  0  0
  151.2308  140.3554  155.6614 N   0  0  0  0  0  0  0  0  0  0  0  0
  150.2235  139.4647  155.3467 C   0  0  0  0  0  0  0  0  0  0  0  0
  150.8516  138.3569  154.8519 C   0  0  0  0  0  0  0  0  0  0  0  0
  150.2937  137.1449  154.3730 N   0  0  0  0  0  0  0  0  0  0  0  0
  150.1391  135.9951  155.0496 C   0  0  0  0  0  0  0  0  0  0  0  0
  150.4820  135.8095  156.2176 O   0  0  0  0  0  0  0  0  0  0  0  0
  149.5630  135.0561  154.2854 N   0  0  0  0  0  0  0  0  0  0  0  0
  149.2636  133.6911  154.7074 C   0  0  0  0  0  0  0  0  0  0  0  0
  150.5175  133.0267  155.3121 C   0  0  0  0  0  0  0  0  0  0  0  0
  150.2507  131.5604  155.6886 C   0  0  0  0  0  0  0  0  0  0  0  0
  149.7273  130.7609  154.4850 C   0  0  0  0  0  0  0  0  0  0  0  0
  148.4736  131.4170  153.8861 C   0  0  0  0  0  0  0  0  0  0  0  0
  148.7393  132.8825  153.5056 C   0  0  0  0  0  0  0  0  0  0  0  0
  152.2400  138.6465  154.8958 C   0  0  0  0  0  0  0  0  0  0  0  0
  152.4618  139.8550  155.3902 N   0  0  0  0  0  0  0  0  0  0  0  0
  151.6593  142.7916  158.0128 H   0  0  0  0  0  0  0  0  0  0  0  0
  152.8070  141.5277  157.5773 H   0  0  0  0  0  0  0  0  0  0  0  0
  151.2644  141.1035  158.3195 H   0  0  0  0  0  0  0  0  0  0  0  0
  150.0495  141.9483  156.2719 H   0  0  0  0  0  0  0  0  0  0  0  0
  151.5794  142.3973  155.5447 H   0  0  0  0  0  0  0  0  0  0  0  0
  149.1805  139.7004  155.4988 H   0  0  0  0  0  0  0  0  0  0  0  0
  149.9834  137.1535  153.4124 H   0  0  0  0  0  0  0  0  0  0  0  0
  149.3164  135.3013  153.3376 H   0  0  0  0  0  0  0  0  0  0  0  0
  148.4781  133.7128  155.4655 H   0  0  0  0  0  0  0  0  0  0  0  0
  151.3405  133.0712  154.5971 H   0  0  0  0  0  0  0  0  0  0  0  0
  150.8461  133.5764  156.1952 H   0  0  0  0  0  0  0  0  0  0  0  0
  151.1638  131.1024  156.0699 H   0  0  0  0  0  0  0  0  0  0  0  0
  149.5222  131.5192  156.4994 H   0  0  0  0  0  0  0  0  0  0  0  0
  150.5052  130.6963  153.7233 H   0  0  0  0  0  0  0  0  0  0  0  0
  149.5037  129.7372  154.7868 H   0  0  0  0  0  0  0  0  0  0  0  0
  148.1453  130.8589  153.0090 H   0  0  0  0  0  0  0  0  0  0  0  0
  147.6558  131.3687  154.6065 H   0  0  0  0  0  0  0  0  0  0  0  0
  147.8227  133.3330  153.1232 H   0  0  0  0  0  0  0  0  0  0  0  0
  149.4641  132.9170  152.6906 H   0  0  0  0  0  0  0  0  0  0  0  0
  153.0764  138.0338  154.5940 H   0  0  0  0  0  0  0  0  0  0  0  0
  1  2  1  0  0  0  0
  1 18  1  0  0  0  0
  1 19  1  0  0  0  0
  1 20  1  0  0  0  0
  2  3  1  0  0  0  0
  2 21  1  0  0  0  0
  2 22  1  0  0  0  0
  3 17  1  0  0  0  0
  3  4  1  0  0  0  0
  4  5  2  0  0  0  0
  4 23  1  0  0  0  0
  5  6  1  0  0  0  0
  5 16  1  0  0  0  0
  6  7  1  0  0  0  0
  6 24  1  0  0  0  0
  7  8  2  0  0  0  0
  7  9  1  0  0  0  0
  9 10  1  0  0  0  0
  9 25  1  0  0  0  0
 10 15  1  0  0  0  0
 10 11  1  0  0  0  0
 10 26  1  0  0  0  0
 11 12  1  0  0  0  0
 11 27  1  0  0  0  0
 11 28  1  0  0  0  0
 12 13  1  0  0  0  0
 12 29  1  0  0  0  0
 12 30  1  0  0  0  0
 13 14  1  0  0  0  0
 13 31  1  0  0  0  0
 13 32  1  0  0  0  0
 14 15  1  0  0  0  0
 14 33  1  0  0  0  0
 14 34  1  0  0  0  0
 15 35  1  0  0  0  0
 15 36  1  0  0  0  0
 16 17  2  0  0  0  0
 16 37  1  0  0  0  0
M  END
> <s_m_source_file>
AV-unprocessed.smi

> <i_m_source_file_index>
803

> <i_lp_mmshare_version>
43012

> <i_f3d_flags>
0

> <s_epik_input>
W0NIM11bQ0gyXW4xW2NIXWMoW2NIXW4xKVtOSF1DKD1PKVtOSF1bQ0hdMltDSDJdW0NIMl1bQ0gyXVtDSDJdW0NIMl0y

> <s_epik_cmdline>
J2VwaWtfcHl0aG9uJywgJy1waCcsICc3LjAnLCAnLXRuJywgJzgnLCAnLW1hJywgJzIwMCcsICctbWV0YWxfYmluZGluZycsICctaW1hZScsICc8aW5maWxlLm1hZT4nLCAnLW9tYWUnLCAnPG91dGZpbGUubWFlPic=

> <r_lp_tautomer_probability>
1

> <r_epik_Ionization_Penalty>
0.000191435

> <r_epik_Ionization_Penalty_Charging>
0

> <r_epik_Ionization_Penalty_Neutral>
0.000191435

> <r_epik_State_Penalty>
-0

> <r_epik_Charging_Adjusted_Penalty>
0

> <i_epik_Tot_Q>
0

> <i_epik_Tot_abs_Q>
0

> <r_epik_Metal_State_Penalty>
-0

> <b_epik_Metal_Only>
0

> <s_lp_Force_Field>
OPLS_2005

> <r_lp_Energy>
12.5011

> <b_lp_Chiralities_Consistent>
1

> <s_lp_Variant>
AV-unprocessed.smi:803-1

> <Gold.Version>
5.8.1

> <Gold.Id.Protein>
6NUR|6NUR_protein|mol2

> <Gold.PLP.Fitness>
40.5359

> <Gold.PLP.PLP>
-34.1502

> <Gold.PLP.part.hbond>
-4.1102

> <Gold.PLP.part.metal>
0.0000

> <Gold.PLP.part.buried>
-3.3349

> <Gold.PLP.part.nonpolar>
-26.4788

> <Gold.PLP.part.repulsive>
0.1132

> <Gold.PLP.ligand.clash>
0.0000

> <Gold.PLP.ligand.torsion>
0.8026

> <Gold.PLP.Chemscore.Hbond>
2.6625

> <Gold.PLP.Chemscore.CHOScore>
0.0000

> <Gold.PLP.Chemscore.Metal>
0.0000

> <Gold.Chemscore.Hbonds>
donor molecule, donor type, donor heavy atom, donor atom, acceptor molecule, acceptor atom, score
      L1  H     6    24       P1  7948  0.98
      L1  H     9    25       P1  7948  0.85
      P1  H  7997  8009       L1    17  0.94

> <Gold.PLP.Chemscore.Internal.Correction>
0.0034

> <Gold.Rescore>
     Score         DG    S(hbond)    S(metal)    S(lipo)     H(rot)  DE(clash)    DE(int)     intcor
     16.12     -18.21       2.45        0.00      64.31       1.17       0.18       1.91       ----

> <Gold.Chemscore.Fitness>
16.1194

> <Gold.Chemscore.DG>
-18.2146

> <Gold.Chemscore.ZeroCoef>
-5.4800

> <Gold.Chemscore.Hbond>
2.4541

> <Gold.Chemscore.Metal>
0.0000

> <Gold.Chemscore.Lipo>
64.3125

> <Gold.Chemscore.Internal_Hbond>
0.0000

> <Gold.Chemscore.DEClash>
0.1826

> <Gold.Chemscore.DEInternal>
1.9127

> <Gold.Chemscore.Rot>
1.1667

> <Gold.Chemscore.Internal.Correction>
   9.000000E+99

> <Gold.Chemscore.Hbonds>
donor molecule, donor type, donor heavy atom, donor atom, acceptor molecule, acceptor atom, score
      L1  H     6    24       P1  7948  0.26
      L1  H     9    25       P1  7948  0.15
      P1  H  7997  8009       L1    17  0.82

> <Gold.Chemscore.Hbond.Weighted>
-8.1967

> <Gold.Chemscore.Metal.Weighted>
-0.0000

> <Gold.Chemscore.Lipo.Weighted>
-7.5246

> <Gold.Chemscore.Internal_Hbond.Weighted>
0.0000

> <Gold.Chemscore.DEClash.Weighted>
0.1826

> <Gold.Chemscore.DEInternal.Weighted>
1.9127

> <Gold.Chemscore.Rot.Weighted>
2.9867

> <Gold.Chemscore.Internal.Correction.Weighted>
   9.000000E+99

> <Gold.Protein.RotatedTorsions>
[ 6907 6896 6895 6894 ] final -135.95 input  -60.11 | X-H torsion
[ 7974 7965 7964 7962 ] final   90.68 input  175.53 | X-H torsion
[ 8008 7997 7996 7995 ] final -149.14 input   59.86 | X-H torsion
[ 10167 10162 10161 10158 ] final  -96.33 input  -65.29 | X-H torsion
[ 10718 10713 10712 10709 ] final   37.75 input   66.30 | X-H torsion
[ 10763 10752 10751 10750 ] final   46.87 input  -60.55 | X-H torsion
[ 11005 11000 10999 10996 ] final  -20.38 input  -57.11 | X-H torsion

> <Gold.Protein.ActiveResidues>
 VAL166  LYS551  ARG553  GLY616  TRP617  ASP618  TYR619  PRO620  LYS621  CYS622 
 ASP623  PHE694  ASN695  SER759  ASP760  ASP761  ALA762  ILE779  LEU786  VAL792 
 PHE793  MET794  SER795  GLU796  ALA797  LYS798  CYS799  TRP800  GLU811  SER814 

> <Gold.Protein.RotatedAtoms>
  151.0041  133.6028  159.2690 H   0  0  0  0  0  0  0  0  0  0  0  0  # atno 6907 bound_to 6896
  151.3203  135.0816  159.9313 H   0  0  0  0  0  0  0  0  0  0  0  0  # atno 6908 bound_to 6896
  152.5282  133.9689  159.7807 H   0  0  0  0  0  0  0  0  0  0  0  0  # atno 6909 bound_to 6896
  145.5158  139.2278  143.2699 H   0  0  0  0  0  0  0  0  0  0  0  0  # atno 7974 bound_to 7965
  155.6028  140.0664  157.2728 H   0  0  0  0  0  0  0  0  0  0  0  0  # atno 8008 bound_to 7997
  154.4274  140.1815  156.1238 H   0  0  0  0  0  0  0  0  0  0  0  0  # atno 8009 bound_to 7997
  156.0146  140.3323  155.6979 H   0  0  0  0  0  0  0  0  0  0  0  0  # atno 8010 bound_to 7997
  140.2949  143.3198  152.0308 H   0  0  0  0  0  0  0  0  0  0  0  0  # atno 10167 bound_to 10162
  157.3507  130.7596  149.6976 H   0  0  0  0  0  0  0  0  0  0  0  0  # atno 10718 bound_to 10713
  152.9806  135.5994  154.3670 H   0  0  0  0  0  0  0  0  0  0  0  0  # atno 10763 bound_to 10752
  154.3347  135.2768  155.2455 H   0  0  0  0  0  0  0  0  0  0  0  0  # atno 10764 bound_to 10752
  154.4564  135.5977  153.6281 H   0  0  0  0  0  0  0  0  0  0  0  0  # atno 10765 bound_to 10752
  140.8459  133.7892  155.9911 H   0  0  0  0  0  0  0  0  0  0  0  0  # atno 11005 bound_to 11000
  146.2138  140.5967  142.9048 LP  0  0  0  0  0  0  0  0  0  0  0  0  # atno 17320 bound_to 7965
  144.7703  140.5622  143.6675 LP  0  0  0  0  0  0  0  0  0  0  0  0  # atno 17321 bound_to 7965
  139.4929  144.6498  151.6700 LP  0  0  0  0  0  0  0  0  0  0  0  0  # atno 17342 bound_to 10162
  140.5700  144.0124  150.6212 LP  0  0  0  0  0  0  0  0  0  0  0  0  # atno 17343 bound_to 10162
  155.9721  130.4141  150.4117 LP  0  0  0  0  0  0  0  0  0  0  0  0  # atno 17370 bound_to 10713
  157.2180  131.0476  151.2562 LP  0  0  0  0  0  0  0  0  0  0  0  0  # atno 17371 bound_to 10713
  140.8844  134.2571  157.5127 LP  0  0  0  0  0  0  0  0  0  0  0  0  # atno 17394 bound_to 11000
  139.8703  134.9631  156.4451 LP  0  0  0  0  0  0  0  0  0  0  0  0  # atno 17395 bound_to 11000

$$$$
