AV-unprocessed.smi:3171|AV-procd|sdf|12112|dock1
  -GOLD-   2272017553D 1   1.00000     0.00000
 Structure written by MMmdl.
 33 34  0  0  0  0  0  0  0  0  1 V2000
  151.6178  142.7562  158.0653 C   0  0  0  0  0  0  0  0  0  0  0  0
  152.4423  141.9527  159.0552 C   0  0  0  0  0  0  0  0  0  0  0  0
  152.8210  140.7303  158.6221 N   0  0  0  0  0  0  0  0  0  0  0  0
  153.5518  139.9333  159.4027 N   0  0  0  0  0  0  0  0  0  0  0  0
  153.9283  140.3257  160.6440 C   0  0  0  0  0  0  0  0  0  0  0  0
  154.7003  139.4293  161.4072 N   0  0  0  0  0  0  0  0  0  0  0  0
  154.6116  137.9871  161.2111 C   0  0  0  0  0  0  0  0  0  0  0  0
  154.9033  137.2031  162.5008 C   0  0  1  0  0  0  0  0  0  0  0  0
  153.7406  137.2026  163.4886 C   0  0  0  0  0  0  0  0  0  0  0  0
  154.0583  135.9849  164.3269 C   0  0  0  0  0  0  0  0  0  0  0  0
  154.6370  135.0200  163.2929 C   0  0  0  0  0  0  0  0  0  0  0  0
  155.1071  135.8235  162.2123 O   0  0  0  0  0  0  0  0  0  0  0  0
  153.5679  141.5973  161.1615 C   0  0  0  0  0  0  0  0  0  0  0  0
  153.9798  142.0188  162.4989 C   0  0  0  0  0  0  0  0  0  0  0  0
  154.3062  142.3527  163.5578 N   0  0  0  0  0  0  0  0  0  0  0  0
  152.7904  142.4477  160.3354 C   0  0  0  0  0  0  0  0  0  0  0  0
  152.3564  143.8328  160.8086 C   0  0  0  0  0  0  0  0  0  0  0  0
  152.1135  143.6987  157.8316 H   0  0  0  0  0  0  0  0  0  0  0  0
  150.6317  142.9719  158.4770 H   0  0  0  0  0  0  0  0  0  0  0  0
  151.4759  142.2141  157.1294 H   0  0  0  0  0  0  0  0  0  0  0  0
  155.1083  139.7593  162.2702 H   0  0  0  0  0  0  0  0  0  0  0  0
  153.6247  137.7292  160.8251 H   0  0  0  0  0  0  0  0  0  0  0  0
  155.3230  137.7008  160.4359 H   0  0  0  0  0  0  0  0  0  0  0  0
  155.7931  137.5874  163.0023 H   0  0  0  0  0  0  0  0  0  0  0  0
  153.6790  138.1206  164.0738 H   0  0  0  0  0  0  0  0  0  0  0  0
  152.7925  137.0618  162.9678 H   0  0  0  0  0  0  0  0  0  0  0  0
  154.8157  136.2346  165.0714 H   0  0  0  0  0  0  0  0  0  0  0  0
  153.1886  135.5826  164.8470 H   0  0  0  0  0  0  0  0  0  0  0  0
  155.4400  134.4115  163.7093 H   0  0  0  0  0  0  0  0  0  0  0  0
  153.8651  134.3490  162.9150 H   0  0  0  0  0  0  0  0  0  0  0  0
  151.8243  143.7606  161.7577 H   0  0  0  0  0  0  0  0  0  0  0  0
  151.6944  144.3404  160.1094 H   0  0  0  0  0  0  0  0  0  0  0  0
  153.2299  144.4687  160.9549 H   0  0  0  0  0  0  0  0  0  0  0  0
  1  2  1  0  0  0  0
  1 18  1  0  0  0  0
  1 19  1  0  0  0  0
  1 20  1  0  0  0  0
  2 16  1  0  0  0  0
  2  3  2  0  0  0  0
  3  4  1  0  0  0  0
  4  5  2  0  0  0  0
  5  6  1  0  0  0  0
  5 13  1  0  0  0  0
  6  7  1  0  0  0  0
  6 21  1  0  0  0  0
  7  8  1  0  0  0  0
  7 22  1  0  0  0  0
  7 23  1  0  0  0  0
  8 12  1  0  0  0  0
  8  9  1  0  0  0  0
  8 24  1  0  0  0  0
  9 10  1  0  0  0  0
  9 25  1  0  0  0  0
  9 26  1  0  0  0  0
 10 11  1  0  0  0  0
 10 27  1  0  0  0  0
 10 28  1  0  0  0  0
 11 12  1  0  0  0  0
 11 29  1  0  0  0  0
 11 30  1  0  0  0  0
 13 14  1  0  0  0  0
 13 16  2  0  0  0  0
 14 15  3  0  0  0  0
 16 17  1  0  0  0  0
 17 31  1  0  0  0  0
 17 32  1  0  0  0  0
 17 33  1  0  0  0  0
M  END
> <s_m_source_file>
AV-unprocessed.smi

> <i_m_source_file_index>
3171

> <i_lp_mmshare_version>
43012

> <i_f3d_flags>
0

> <s_epik_input>
W0NIM11jMW5uYyhjKEMjTiljMVtDSDNdKVtOSF1bQ0gyXVtDQEBIXTJbQ0gyXVtDSDJdW0NIMl1PMg==

> <s_epik_cmdline>
J2VwaWtfcHl0aG9uJywgJy1waCcsICc3LjAnLCAnLXRuJywgJzgnLCAnLW1hJywgJzIwMCcsICctbWV0YWxfYmluZGluZycsICctaW1hZScsICc8aW5maWxlLm1hZT4nLCAnLW9tYWUnLCAnPG91dGZpbGUubWFlPic=

> <r_lp_tautomer_probability>
1

> <r_epik_Ionization_Penalty>
0.00108228

> <r_epik_Ionization_Penalty_Charging>
0

> <r_epik_Ionization_Penalty_Neutral>
0.00108228

> <r_epik_State_Penalty>
-0

> <r_epik_Charging_Adjusted_Penalty>
0

> <i_epik_Tot_Q>
0

> <i_epik_Tot_abs_Q>
0

> <r_epik_Metal_State_Penalty>
-0

> <b_epik_Metal_Only>
0

> <s_lp_Force_Field>
OPLS_2005

> <r_lp_Energy>
28.3967

> <b_lp_Chiralities_Consistent>
1

> <s_lp_Variant>
AV-unprocessed.smi:3171-2

> <Gold.Version>
5.8.1

> <Gold.Id.Protein>
6NUR|6NUR_protein|mol2

> <Gold.PLP.Fitness>
35.1156

> <Gold.PLP.PLP>
-36.0187

> <Gold.PLP.part.hbond>
-1.1612

> <Gold.PLP.part.metal>
0.0000

> <Gold.PLP.part.buried>
-3.3816

> <Gold.PLP.part.nonpolar>
-30.6692

> <Gold.PLP.part.repulsive>
0.0287

> <Gold.PLP.ligand.clash>
0.0000

> <Gold.PLP.ligand.torsion>
0.4562

> <Gold.PLP.Chemscore.Hbond>
0.0000

> <Gold.PLP.Chemscore.CHOScore>
0.0000

> <Gold.PLP.Chemscore.Metal>
0.0000

> <Gold.PLP.Chemscore.Internal.Correction>
0.0092

> <Gold.Rescore>
     Score         DG    S(hbond)    S(metal)    S(lipo)     H(rot)  DE(clash)    DE(int)     intcor
     12.81     -13.38       0.00        0.00      94.15       1.22       0.04       0.53       ----

> <Gold.Chemscore.Fitness>
12.8112

> <Gold.Chemscore.DG>
-13.3779

> <Gold.Chemscore.ZeroCoef>
-5.4800

> <Gold.Chemscore.Hbond>
0.0000

> <Gold.Chemscore.Metal>
0.0000

> <Gold.Chemscore.Lipo>
94.1546

> <Gold.Chemscore.Internal_Hbond>
0.0000

> <Gold.Chemscore.DEClash>
0.0376

> <Gold.Chemscore.DEInternal>
0.5291

> <Gold.Chemscore.Rot>
1.2181

> <Gold.Chemscore.Internal.Correction>
   9.000000E+99

> <Gold.Chemscore.Hbond.Weighted>
-0.0000

> <Gold.Chemscore.Metal.Weighted>
-0.0000

> <Gold.Chemscore.Lipo.Weighted>
-11.0161

> <Gold.Chemscore.Internal_Hbond.Weighted>
0.0000

> <Gold.Chemscore.DEClash.Weighted>
0.0376

> <Gold.Chemscore.DEInternal.Weighted>
0.5291

> <Gold.Chemscore.Rot.Weighted>
3.1182

> <Gold.Chemscore.Internal.Correction.Weighted>
   9.000000E+99

> <Gold.Protein.RotatedTorsions>
[ 6907 6896 6895 6894 ] final  110.41 input  -60.11 | X-H torsion
[ 7974 7965 7964 7962 ] final  176.52 input  175.53 | X-H torsion
[ 8008 7997 7996 7995 ] final  151.49 input   59.86 | X-H torsion
[ 10167 10162 10161 10158 ] final  112.77 input  -65.29 | X-H torsion
[ 10718 10713 10712 10709 ] final  -55.12 input   66.30 | X-H torsion
[ 10763 10752 10751 10750 ] final  119.02 input  -60.55 | X-H torsion
[ 11005 11000 10999 10996 ] final -160.78 input  -57.11 | X-H torsion

> <Gold.Protein.ActiveResidues>
 VAL166  LYS551  ARG553  GLY616  TRP617  ASP618  TYR619  PRO620  LYS621  CYS622 
 ASP623  PHE694  ASN695  SER759  ASP760  ASP761  ALA762  ILE779  LEU786  VAL792 
 PHE793  MET794  SER795  GLU796  ALA797  LYS798  CYS799  TRP800  GLU811  SER814 

> <Gold.Protein.RotatedAtoms>
  152.5021  133.8804  159.7343 H   0  0  0  0  0  0  0  0  0  0  0  0  # atno 6907 bound_to 6896
  150.9268  133.6806  159.2826 H   0  0  0  0  0  0  0  0  0  0  0  0  # atno 6908 bound_to 6896
  151.4164  135.0996  159.9653 H   0  0  0  0  0  0  0  0  0  0  0  0  # atno 6909 bound_to 6896
  144.7183  140.0110  143.6440 H   0  0  0  0  0  0  0  0  0  0  0  0  # atno 7974 bound_to 7965
  156.2671  140.2046  156.6185 H   0  0  0  0  0  0  0  0  0  0  0  0  # atno 8008 bound_to 7997
  154.6776  140.0543  157.0256 H   0  0  0  0  0  0  0  0  0  0  0  0  # atno 8009 bound_to 7997
  155.1047  140.3209  155.4540 H   0  0  0  0  0  0  0  0  0  0  0  0  # atno 8010 bound_to 7997
  139.6511  144.7128  151.2047 H   0  0  0  0  0  0  0  0  0  0  0  0  # atno 10167 bound_to 10162
  156.1394  130.4155  150.0129 H   0  0  0  0  0  0  0  0  0  0  0  0  # atno 10718 bound_to 10713
  153.5766  135.3492  155.2858 H   0  0  0  0  0  0  0  0  0  0  0  0  # atno 10763 bound_to 10752
  154.8674  135.4172  154.2666 H   0  0  0  0  0  0  0  0  0  0  0  0  # atno 10764 bound_to 10752
  153.3444  135.7051  153.6910 H   0  0  0  0  0  0  0  0  0  0  0  0  # atno 10765 bound_to 10752
  140.6277  134.4684  157.5228 H   0  0  0  0  0  0  0  0  0  0  0  0  # atno 11005 bound_to 11000
  146.0258  139.3291  143.0785 LP  0  0  0  0  0  0  0  0  0  0  0  0  # atno 17320 bound_to 7965
  145.8512  140.9527  143.0748 LP  0  0  0  0  0  0  0  0  0  0  0  0  # atno 17321 bound_to 7965
  140.7538  143.6149  150.8569 LP  0  0  0  0  0  0  0  0  0  0  0  0  # atno 17342 bound_to 10162
  139.9797  143.5964  152.2947 LP  0  0  0  0  0  0  0  0  0  0  0  0  # atno 17343 bound_to 10162
  156.8018  130.9293  151.3646 LP  0  0  0  0  0  0  0  0  0  0  0  0  # atno 17370 bound_to 10713
  157.6562  130.8926  149.9734 LP  0  0  0  0  0  0  0  0  0  0  0  0  # atno 17371 bound_to 10713
  139.9128  134.8309  156.1469 LP  0  0  0  0  0  0  0  0  0  0  0  0  # atno 17394 bound_to 11000
  141.0697  133.6802  156.2116 LP  0  0  0  0  0  0  0  0  0  0  0  0  # atno 17395 bound_to 11000

$$$$
