AV-unprocessed.smi:484|AV-procd|sdf|2687|dock9
  -GOLD-   2262023113D 1   1.00000     0.00000
 Structure written by MMmdl.
 46 48  0  0  0  0  0  0  0  0  1 V2000
  152.1959  145.6993  160.2098 C   0  0  0  0  0  0  0  0  0  0  0  0
  152.1652  144.3459  160.9282 C   0  0  0  0  0  0  0  0  0  0  0  0
  152.2172  143.1807  159.9582 C   0  0  0  0  0  0  0  0  0  0  0  0
  152.9670  142.0299  160.2721 C   0  0  0  0  0  0  0  0  0  0  0  0
  153.0192  140.9523  159.3676 C   0  0  0  0  0  0  0  0  0  0  0  0
  152.3263  141.0038  158.1410 C   0  0  0  0  0  0  0  0  0  0  0  0
  152.4323  139.9042  157.3174 O   0  0  0  0  0  0  0  0  0  0  0  0
  151.7737  139.9393  156.0573 C   0  0  0  0  0  0  0  0  0  0  0  0
  152.2412  138.7605  155.1890 C   0  0  2  0  0  0  0  0  0  0  0  0
  153.6044  138.9388  154.8601 O   0  0  0  0  0  0  0  0  0  0  0  0
  151.3754  138.5369  153.9320 C   0  0  0  0  0  0  0  0  0  0  0  0
  149.9556  138.7382  154.1869 N   0  0  0  0  0  0  0  0  0  0  0  0
  149.0087  137.8004  154.4418 C   0  0  0  0  0  0  0  0  0  0  0  0
  149.3290  136.3385  154.5085 C   0  0  0  0  0  0  0  0  0  0  0  0
  148.5471  135.5689  153.6205 O   0  0  0  0  0  0  0  0  0  0  0  0
  147.7727  138.2612  154.6369 N   0  0  0  0  0  0  0  0  0  0  0  0
  147.9327  139.6264  154.5006 C   0  0  0  0  0  0  0  0  0  0  0  0
  146.9901  140.6752  154.5962 C   0  0  0  0  0  0  0  0  0  0  0  0
  147.3925  142.0150  154.4177 C   0  0  0  0  0  0  0  0  0  0  0  0
  148.7401  142.3249  154.1417 C   0  0  0  0  0  0  0  0  0  0  0  0
  149.6952  141.2950  154.0421 C   0  0  0  0  0  0  0  0  0  0  0  0
  149.2885  139.9590  154.2207 C   0  0  0  0  0  0  0  0  0  0  0  0
  151.5736  142.1646  157.8305 C   0  0  0  0  0  0  0  0  0  0  0  0
  151.5217  143.2437  158.7343 C   0  0  0  0  0  0  0  0  0  0  0  0
  152.1567  146.5203  160.9259 H   0  0  0  0  0  0  0  0  0  0  0  0
  151.3464  145.8055  159.5344 H   0  0  0  0  0  0  0  0  0  0  0  0
  153.1078  145.8129  159.6226 H   0  0  0  0  0  0  0  0  0  0  0  0
  153.0054  144.2741  161.6196 H   0  0  0  0  0  0  0  0  0  0  0  0
  151.2620  144.2703  161.5350 H   0  0  0  0  0  0  0  0  0  0  0  0
  153.5062  141.9709  161.2064 H   0  0  0  0  0  0  0  0  0  0  0  0
  153.5981  140.0756  159.6184 H   0  0  0  0  0  0  0  0  0  0  0  0
  150.6894  139.9130  156.1796 H   0  0  0  0  0  0  0  0  0  0  0  0
  152.0280  140.8705  155.5484 H   0  0  0  0  0  0  0  0  0  0  0  0
  152.2001  137.8634  155.8069 H   0  0  0  0  0  0  0  0  0  0  0  0
  153.6588  139.5234  154.1196 H   0  0  0  0  0  0  0  0  0  0  0  0
  151.6906  139.2070  153.1322 H   0  0  0  0  0  0  0  0  0  0  0  0
  151.5137  137.5262  153.5468 H   0  0  0  0  0  0  0  0  0  0  0  0
  150.3813  136.1884  154.2643 H   0  0  0  0  0  0  0  0  0  0  0  0
  149.1888  135.9727  155.5253 H   0  0  0  0  0  0  0  0  0  0  0  0
  148.4768  136.0353  152.8019 H   0  0  0  0  0  0  0  0  0  0  0  0
  145.9557  140.4477  154.8070 H   0  0  0  0  0  0  0  0  0  0  0  0
  146.6636  142.8088  154.4929 H   0  0  0  0  0  0  0  0  0  0  0  0
  149.0400  143.3536  154.0065 H   0  0  0  0  0  0  0  0  0  0  0  0
  150.7275  141.5290  153.8290 H   0  0  0  0  0  0  0  0  0  0  0  0
  151.0273  142.2535  156.9040 H   0  0  0  0  0  0  0  0  0  0  0  0
  150.9456  144.1224  158.4830 H   0  0  0  0  0  0  0  0  0  0  0  0
  1  2  1  0  0  0  0
  1 25  1  0  0  0  0
  1 26  1  0  0  0  0
  1 27  1  0  0  0  0
  2  3  1  0  0  0  0
  2 28  1  0  0  0  0
  2 29  1  0  0  0  0
  3 24  1  0  0  0  0
  3  4  2  0  0  0  0
  4  5  1  0  0  0  0
  4 30  1  0  0  0  0
  5  6  2  0  0  0  0
  5 31  1  0  0  0  0
  6  7  1  0  0  0  0
  6 23  1  0  0  0  0
  7  8  1  0  0  0  0
  8  9  1  0  0  0  0
  8 32  1  0  0  0  0
  8 33  1  0  0  0  0
  9 10  1  0  0  0  0
  9 11  1  0  0  0  0
  9 34  1  0  0  0  0
 10 35  1  0  0  0  0
 11 12  1  0  0  0  0
 11 36  1  0  0  0  0
 11 37  1  0  0  0  0
 12 22  1  0  0  0  0
 12 13  1  0  0  0  0
 13 14  1  0  0  0  0
 13 16  2  0  0  0  0
 14 15  1  0  0  0  0
 14 38  1  0  0  0  0
 14 39  1  0  0  0  0
 15 40  1  0  0  0  0
 16 17  1  0  0  0  0
 17 22  2  0  0  0  0
 17 18  1  0  0  0  0
 18 19  2  0  0  0  0
 18 41  1  0  0  0  0
 19 20  1  0  0  0  0
 19 42  1  0  0  0  0
 20 21  2  0  0  0  0
 20 43  1  0  0  0  0
 21 22  1  0  0  0  0
 21 44  1  0  0  0  0
 23 24  2  0  0  0  0
 23 45  1  0  0  0  0
 24 46  1  0  0  0  0
M  END
> <s_m_source_file>
AV-unprocessed.smi

> <i_m_source_file_index>
484

> <i_lp_mmshare_version>
43012

> <i_f3d_flags>
0

> <s_epik_input>
W0NIM11bQ0gyXWMxW2NIXVtjSF1jKFtjSF1bY0hdMSlPW0NIMl1bQ0BIXShbT0hdKVtDSDJdbihjKG4yKVtDSDJdW09IXSljKGMyMylbY0hdW2NIXVtjSF1bY0hdMw==

> <s_epik_cmdline>
J2VwaWtfcHl0aG9uJywgJy1waCcsICc3LjAnLCAnLXRuJywgJzgnLCAnLW1hJywgJzIwMCcsICctbWV0YWxfYmluZGluZycsICctaW1hZScsICc8aW5maWxlLm1hZT4nLCAnLW9tYWUnLCAnPG91dGZpbGUubWFlPic=

> <r_lp_tautomer_probability>
1

> <r_epik_Ionization_Penalty>
0.0555463

> <r_epik_Ionization_Penalty_Charging>
0

> <r_epik_Ionization_Penalty_Neutral>
0.0555463

> <r_epik_State_Penalty>
0.0477854

> <r_epik_Charging_Adjusted_Penalty>
0.0477854

> <i_epik_Tot_Q>
0

> <i_epik_Tot_abs_Q>
0

> <r_epik_Metal_State_Penalty>
4.97632e-05

> <b_epik_Metal_Only>
0

> <s_lp_Force_Field>
OPLS_2005

> <r_lp_Energy>
15.7427

> <b_lp_Chiralities_Consistent>
1

> <s_lp_Variant>
AV-unprocessed.smi:484-1

> <Gold.Version>
5.8.1

> <Gold.Id.Protein>
6NUR|6NUR_protein|mol2

> <Gold.PLP.Fitness>
54.5481

> <Gold.PLP.PLP>
-50.2685

> <Gold.PLP.part.hbond>
-2.9990

> <Gold.PLP.part.metal>
0.0000

> <Gold.PLP.part.buried>
-5.9333

> <Gold.PLP.part.nonpolar>
-41.7726

> <Gold.PLP.part.repulsive>
0.0665

> <Gold.PLP.ligand.clash>
0.0000

> <Gold.PLP.ligand.torsion>
0.8856

> <Gold.PLP.Chemscore.Hbond>
2.0000

> <Gold.PLP.Chemscore.CHOScore>
0.0000

> <Gold.PLP.Chemscore.Metal>
0.0000

> <Gold.Chemscore.Hbonds>
donor molecule, donor type, donor heavy atom, donor atom, acceptor molecule, acceptor atom, score
      P1  H  7997  8009       L1     7  0.78

> <Gold.PLP.Chemscore.Internal.Correction>
0.0507

> <Gold.Rescore>
     Score         DG    S(hbond)    S(metal)    S(lipo)     H(rot)  DE(clash)    DE(int)     intcor
     16.76     -17.94       1.10        0.00     142.56       3.08       0.28       0.91       ----

> <Gold.Chemscore.Fitness>
16.7581

> <Gold.Chemscore.DG>
-17.9420

> <Gold.Chemscore.ZeroCoef>
-5.4800

> <Gold.Chemscore.Hbond>
1.0968

> <Gold.Chemscore.Metal>
0.0000

> <Gold.Chemscore.Lipo>
142.5568

> <Gold.Chemscore.Internal_Hbond>
0.0000

> <Gold.Chemscore.DEClash>
0.2769

> <Gold.Chemscore.DEInternal>
0.9070

> <Gold.Chemscore.Rot>
3.0783

> <Gold.Chemscore.Internal.Correction>
   9.000000E+99

> <Gold.Chemscore.Hbonds>
donor molecule, donor type, donor heavy atom, donor atom, acceptor molecule, acceptor atom, score
      L1  H    15    40       P1  7948  0.01
      P1  H  7997  8009       L1     7  0.07

> <Gold.Chemscore.Hbond.Weighted>
-3.6634

> <Gold.Chemscore.Metal.Weighted>
-0.0000

> <Gold.Chemscore.Lipo.Weighted>
-16.6791

> <Gold.Chemscore.Internal_Hbond.Weighted>
0.0000

> <Gold.Chemscore.DEClash.Weighted>
0.2769

> <Gold.Chemscore.DEInternal.Weighted>
0.9070

> <Gold.Chemscore.Rot.Weighted>
7.8805

> <Gold.Chemscore.Internal.Correction.Weighted>
   9.000000E+99

> <Gold.Protein.RotatedTorsions>
[ 6907 6896 6895 6894 ] final   -6.54 input  -60.11 | X-H torsion
[ 7974 7965 7964 7962 ] final  -68.27 input  175.53 | X-H torsion
[ 8008 7997 7996 7995 ] final  166.98 input   59.86 | X-H torsion
[ 10167 10162 10161 10158 ] final -110.93 input  -65.29 | X-H torsion
[ 10718 10713 10712 10709 ] final   43.56 input   66.30 | X-H torsion
[ 10763 10752 10751 10750 ] final   80.50 input  -60.55 | X-H torsion
[ 11005 11000 10999 10996 ] final  101.02 input  -57.11 | X-H torsion

> <Gold.Protein.ActiveResidues>
 VAL166  LYS551  ARG553  GLY616  TRP617  ASP618  TYR619  PRO620  LYS621  CYS622 
 ASP623  PHE694  ASN695  SER759  ASP760  ASP761  ALA762  ILE779  LEU786  VAL792 
 PHE793  MET794  SER795  GLU796  ALA797  LYS798  CYS799  TRP800  GLU811  SER814 

> <Gold.Protein.RotatedAtoms>
  151.4638  135.1040  159.9732 H   0  0  0  0  0  0  0  0  0  0  0  0  # atno 6907 bound_to 6896
  152.4842  133.8328  159.7122 H   0  0  0  0  0  0  0  0  0  0  0  0  # atno 6908 bound_to 6896
  150.8939  133.7147  159.2924 H   0  0  0  0  0  0  0  0  0  0  0  0  # atno 6909 bound_to 6896
  145.7186  140.9048  143.0642 H   0  0  0  0  0  0  0  0  0  0  0  0  # atno 7974 bound_to 7965
  156.1673  140.1629  156.8509 H   0  0  0  0  0  0  0  0  0  0  0  0  # atno 8008 bound_to 7997
  154.5220  140.0776  156.8225 H   0  0  0  0  0  0  0  0  0  0  0  0  # atno 8009 bound_to 7997
  155.3585  140.3394  155.4242 H   0  0  0  0  0  0  0  0  0  0  0  0  # atno 8010 bound_to 7997
  140.1391  143.4295  152.1575 H   0  0  0  0  0  0  0  0  0  0  0  0  # atno 10167 bound_to 10162
  157.4172  130.7948  149.7483 H   0  0  0  0  0  0  0  0  0  0  0  0  # atno 10718 bound_to 10713
  153.1039  135.4800  154.8916 H   0  0  0  0  0  0  0  0  0  0  0  0  # atno 10763 bound_to 10752
  154.7409  135.3082  154.8732 H   0  0  0  0  0  0  0  0  0  0  0  0  # atno 10764 bound_to 10752
  153.9341  135.6841  153.4798 H   0  0  0  0  0  0  0  0  0  0  0  0  # atno 10765 bound_to 10752
  139.8772  134.9165  156.4843 H   0  0  0  0  0  0  0  0  0  0  0  0  # atno 11005 bound_to 11000
  144.6922  139.9172  143.7466 LP  0  0  0  0  0  0  0  0  0  0  0  0  # atno 17320 bound_to 7965
  146.0646  139.3638  143.0560 LP  0  0  0  0  0  0  0  0  0  0  0  0  # atno 17321 bound_to 7965
  139.5481  144.7315  151.4520 LP  0  0  0  0  0  0  0  0  0  0  0  0  # atno 17342 bound_to 10162
  140.6771  143.8164  150.7073 LP  0  0  0  0  0  0  0  0  0  0  0  0  # atno 17343 bound_to 10162
  155.9869  130.3971  150.3191 LP  0  0  0  0  0  0  0  0  0  0  0  0  # atno 17370 bound_to 10713
  157.1335  131.0278  151.2959 LP  0  0  0  0  0  0  0  0  0  0  0  0  # atno 17371 bound_to 10713
  140.8704  133.7992  155.9359 LP  0  0  0  0  0  0  0  0  0  0  0  0  # atno 17394 bound_to 11000
  140.8958  134.2439  157.5069 LP  0  0  0  0  0  0  0  0  0  0  0  0  # atno 17395 bound_to 11000

$$$$
