AV-unprocessed.smi:2451|AV-procd|sdf|9678|dock2
  -GOLD-   2272013313D 1   1.00000     0.00000
 Structure written by MMmdl.
 37 38  0  0  0  0  0  0  0  0  2 V2000
  152.9188  143.2368  162.3179 C   0  0  0  0  0  0  0  0  0  0  0  0
  152.1916  143.1197  160.9669 C   0  0  1  0  0  0  0  0  0  0  0  0
  152.2234  144.4631  160.1945 C   0  0  0  0  0  0  0  0  0  0  0  0
  151.4245  144.3360  158.8786 C   0  0  0  0  0  0  0  0  0  0  0  0
  151.8593  143.1271  158.0114 C   0  0  0  0  0  0  0  0  0  0  0  0
  151.8314  141.7898  158.7893 C   0  0  1  0  0  0  0  0  0  0  0  0
  152.2826  140.6889  157.9489 N   0  5  0  0  0  0  0  0  0  0  0  0
  151.9892  139.1611  158.4044 S   0  0  0  0  0  0  0  0  0  0  0  0
  152.8671  138.7169  159.4994 O   0  0  0  0  0  0  0  0  0  0  0  0
  150.5506  138.8828  158.5478 O   0  0  0  0  0  0  0  0  0  0  0  0
  152.5436  138.2483  156.9016 C   0  0  0  0  0  0  0  0  0  0  0  0
  151.6391  138.5609  155.7431 C   0  0  0  0  0  0  0  0  0  0  0  0
  151.1095  137.6680  154.7705 C   0  0  0  0  0  0  0  0  0  0  0  0
  150.3570  138.4777  153.9699 C   0  0  0  0  0  0  0  0  0  0  0  0
  150.4056  139.7600  154.4108 O   0  0  0  0  0  0  0  0  0  0  0  0
  151.2236  139.8027  155.5457 N   0  0  0  0  0  0  0  0  0  0  0  0
  152.6853  141.9139  160.0945 C   0  0  1  0  0  0  0  0  0  0  0  0
  154.2181  141.9650  159.8432 C   0  0  0  0  0  0  0  0  0  0  0  0
  153.9561  143.5486  162.1973 H   0  0  0  0  0  0  0  0  0  0  0  0
  152.9105  142.2870  162.8533 H   0  0  0  0  0  0  0  0  0  0  0  0
  152.4329  143.9760  162.9553 H   0  0  0  0  0  0  0  0  0  0  0  0
  151.1472  142.9336  161.2304 H   0  0  0  0  0  0  0  0  0  0  0  0
  151.8039  145.2632  160.8051 H   0  0  0  0  0  0  0  0  0  0  0  0
  153.2529  144.7482  159.9755 H   0  0  0  0  0  0  0  0  0  0  0  0
  150.3606  144.2595  159.1120 H   0  0  0  0  0  0  0  0  0  0  0  0
  151.5327  145.2538  158.3001 H   0  0  0  0  0  0  0  0  0  0  0  0
  151.2061  143.0589  157.1405 H   0  0  0  0  0  0  0  0  0  0  0  0
  152.8615  143.3099  157.6216 H   0  0  0  0  0  0  0  0  0  0  0  0
  150.7981  141.6348  159.1038 H   0  0  0  0  0  0  0  0  0  0  0  0
  153.5693  138.5438  156.6831 H   0  0  0  0  0  0  0  0  0  0  0  0
  152.5470  137.1825  157.1314 H   0  0  0  0  0  0  0  0  0  0  0  0
  151.2641  136.6037  154.6748 H   0  0  0  0  0  0  0  0  0  0  0  0
  149.7540  138.2997  153.0919 H   0  0  0  0  0  0  0  0  0  0  0  0
  152.5026  141.0070  160.6731 H   0  0  0  0  0  0  0  0  0  0  0  0
  154.5260  142.8586  159.2992 H   0  0  0  0  0  0  0  0  0  0  0  0
  154.5807  141.1000  159.2855 H   0  0  0  0  0  0  0  0  0  0  0  0
  154.7711  141.9543  160.7815 H   0  0  0  0  0  0  0  0  0  0  0  0
  1  2  1  0  0  0  0
  1 19  1  0  0  0  0
  1 20  1  0  0  0  0
  1 21  1  0  0  0  0
  2 17  1  0  0  0  0
  2  3  1  0  0  0  0
  2 22  1  0  0  0  0
  3  4  1  0  0  0  0
  3 23  1  0  0  0  0
  3 24  1  0  0  0  0
  4  5  1  0  0  0  0
  4 25  1  0  0  0  0
  4 26  1  0  0  0  0
  5  6  1  0  0  0  0
  5 27  1  0  0  0  0
  5 28  1  0  0  0  0
  6  7  1  0  0  0  0
  6 17  1  0  0  0  0
  6 29  1  0  0  0  0
  7  8  1  0  0  0  0
  8  9  2  0  0  0  0
  8 10  2  0  0  0  0
  8 11  1  0  0  0  0
 11 12  1  0  0  0  0
 11 30  1  0  0  0  0
 11 31  1  0  0  0  0
 12 16  2  0  0  0  0
 12 13  1  0  0  0  0
 13 14  2  0  0  0  0
 13 32  1  0  0  0  0
 14 15  1  0  0  0  0
 14 33  1  0  0  0  0
 15 16  1  0  0  0  0
 17 18  1  0  0  0  0
 17 34  1  0  0  0  0
 18 35  1  0  0  0  0
 18 36  1  0  0  0  0
 18 37  1  0  0  0  0
M  CHG  1   7  -1
M  END
> <s_m_source_file>
AV-unprocessed.smi

> <i_m_source_file_index>
2451

> <i_lp_mmshare_version>
43012

> <i_f3d_flags>
0

> <s_epik_input>
W0NIM11bQ0BASF0xW0NIMl1bQ0gyXVtDSDJdW0NASF0oW0NASF0xW0NIM10pW05IXVMoPU8pKD1PKVtDSDJdYzJbY0hdW2NIXW9uMg==

> <s_epik_cmdline>
J2VwaWtfcHl0aG9uJywgJy1waCcsICc3LjAnLCAnLXRuJywgJzgnLCAnLW1hJywgJzIwMCcsICctbWV0YWxfYmluZGluZycsICctaW1hZScsICc8aW5maWxlLm1hZT4nLCAnLW9tYWUnLCAnPG91dGZpbGUubWFlPic=

> <r_lp_tautomer_probability>
1

> <r_epik_Ionization_Penalty>
5.22693

> <r_epik_Ionization_Penalty_Charging>
5.22693

> <r_epik_Ionization_Penalty_Neutral>
2.67702e-10

> <r_epik_State_Penalty>
5.22685

> <r_epik_Charging_Adjusted_Penalty>
10.4538

> <i_epik_Tot_Q>
-1

> <i_epik_Tot_abs_Q>
1

> <r_epik_Metal_State_Penalty>
1.28716

> <b_epik_Metal_Only>
1

> <s_lp_Force_Field>
OPLS_2005

> <r_lp_Energy>
14.5661

> <b_lp_Chiralities_Consistent>
1

> <s_lp_Variant>
AV-unprocessed.smi:2451-10

> <Gold.Version>
5.8.1

> <Gold.Id.Protein>
6NUR|6NUR_protein|mol2

> <Gold.PLP.Fitness>
45.2952

> <Gold.PLP.PLP>
-38.4031

> <Gold.PLP.part.hbond>
-1.8123

> <Gold.PLP.part.metal>
0.0000

> <Gold.PLP.part.buried>
-6.3048

> <Gold.PLP.part.nonpolar>
-29.7691

> <Gold.PLP.part.repulsive>
0.1487

> <Gold.PLP.ligand.clash>
0.0000

> <Gold.PLP.ligand.torsion>
1.1181

> <Gold.PLP.Chemscore.Hbond>
0.8494

> <Gold.PLP.Chemscore.CHOScore>
1.8598

> <Gold.PLP.Chemscore.Metal>
0.0000

> <Gold.Chemscore.Hbonds>
donor molecule, donor type, donor heavy atom, donor atom, acceptor molecule, acceptor atom, score
      P1  H  7989  7998       L1    15  0.50
      L1  C    14    33       P1  7948  1.00
      L1  C    14    33       P1  7957  0.73

> <Gold.PLP.Chemscore.Internal.Correction>
1.0009

> <Gold.Rescore>
     Score         DG    S(hbond)    S(metal)    S(lipo)     H(rot)  DE(clash)    DE(int)     intcor
     15.11     -17.99       0.70        0.00     117.46       1.40       0.28       2.61       ----

> <Gold.Chemscore.Fitness>
15.1126

> <Gold.Chemscore.DG>
-17.9935

> <Gold.Chemscore.ZeroCoef>
-5.4800

> <Gold.Chemscore.Hbond>
0.7037

> <Gold.Chemscore.Metal>
0.0000

> <Gold.Chemscore.Lipo>
117.4649

> <Gold.Chemscore.Internal_Hbond>
0.0000

> <Gold.Chemscore.DEClash>
0.2756

> <Gold.Chemscore.DEInternal>
2.6054

> <Gold.Chemscore.Rot>
1.3986

> <Gold.Chemscore.Internal.Correction>
   9.000000E+99

> <Gold.Chemscore.Hbonds>
donor molecule, donor type, donor heavy atom, donor atom, acceptor molecule, acceptor atom, score
      P1  H  7989  7998       L1    15  0.02

> <Gold.Chemscore.Hbond.Weighted>
-2.3505

> <Gold.Chemscore.Metal.Weighted>
-0.0000

> <Gold.Chemscore.Lipo.Weighted>
-13.7434

> <Gold.Chemscore.Internal_Hbond.Weighted>
0.0000

> <Gold.Chemscore.DEClash.Weighted>
0.2756

> <Gold.Chemscore.DEInternal.Weighted>
2.6054

> <Gold.Chemscore.Rot.Weighted>
3.5804

> <Gold.Chemscore.Internal.Correction.Weighted>
   9.000000E+99

> <Gold.Protein.RotatedTorsions>
[ 6907 6896 6895 6894 ] final -145.97 input  -60.11 | X-H torsion
[ 7974 7965 7964 7962 ] final  -45.16 input  175.53 | X-H torsion
[ 8008 7997 7996 7995 ] final  171.81 input   59.86 | X-H torsion
[ 10167 10162 10161 10158 ] final  153.47 input  -65.29 | X-H torsion
[ 10718 10713 10712 10709 ] final   27.50 input   66.30 | X-H torsion
[ 10763 10752 10751 10750 ] final   17.98 input  -60.55 | X-H torsion
[ 11005 11000 10999 10996 ] final  122.28 input  -57.11 | X-H torsion

> <Gold.Protein.ActiveResidues>
 VAL166  LYS551  ARG553  GLY616  TRP617  ASP618  TYR619  PRO620  LYS621  CYS622 
 ASP623  PHE694  ASN695  SER759  ASP760  ASP761  ALA762  ILE779  LEU786  VAL792 
 PHE793  MET794  SER795  GLU796  ALA797  LYS798  CYS799  TRP800  GLU811  SER814 

> <Gold.Protein.RotatedAtoms>
  151.1352  133.5009  159.2597 H   0  0  0  0  0  0  0  0  0  0  0  0  # atno 6907 bound_to 6896
  151.1714  135.0319  159.8763 H   0  0  0  0  0  0  0  0  0  0  0  0  # atno 6908 bound_to 6896
  152.5461  134.1215  159.8454 H   0  0  0  0  0  0  0  0  0  0  0  0  # atno 6909 bound_to 6896
  145.9849  140.7244  142.9345 H   0  0  0  0  0  0  0  0  0  0  0  0  # atno 7974 bound_to 7965
  156.1235  140.1502  156.9170 H   0  0  0  0  0  0  0  0  0  0  0  0  # atno 8008 bound_to 7997
  154.4854  140.0867  156.7514 H   0  0  0  0  0  0  0  0  0  0  0  0  # atno 8009 bound_to 7997
  155.4385  140.3430  155.4289 H   0  0  0  0  0  0  0  0  0  0  0  0  # atno 8010 bound_to 7997
  139.4827  144.5270  151.7785 H   0  0  0  0  0  0  0  0  0  0  0  0  # atno 10167 bound_to 10162
  157.2210  130.6978  149.6270 H   0  0  0  0  0  0  0  0  0  0  0  0  # atno 10718 bound_to 10713
  153.1290  135.6736  153.9210 H   0  0  0  0  0  0  0  0  0  0  0  0  # atno 10763 bound_to 10752
  153.8702  135.3070  155.3443 H   0  0  0  0  0  0  0  0  0  0  0  0  # atno 10764 bound_to 10752
  154.7690  135.4949  153.9692 H   0  0  0  0  0  0  0  0  0  0  0  0  # atno 10765 bound_to 10752
  139.9261  134.9641  156.8085 H   0  0  0  0  0  0  0  0  0  0  0  0  # atno 11005 bound_to 11000
  144.6872  140.2970  143.7269 LP  0  0  0  0  0  0  0  0  0  0  0  0  # atno 17320 bound_to 7965
  145.7716  139.1859  143.2209 LP  0  0  0  0  0  0  0  0  0  0  0  0  # atno 17321 bound_to 7965
  140.4791  144.1475  150.5929 LP  0  0  0  0  0  0  0  0  0  0  0  0  # atno 17342 bound_to 10162
  140.4297  143.2573  151.9611 LP  0  0  0  0  0  0  0  0  0  0  0  0  # atno 17343 bound_to 10162
  155.9682  130.4520  150.5757 LP  0  0  0  0  0  0  0  0  0  0  0  0  # atno 17370 bound_to 10713
  157.3576  131.0744  151.1662 LP  0  0  0  0  0  0  0  0  0  0  0  0  # atno 17371 bound_to 10713
  140.6331  133.9887  155.7671 LP  0  0  0  0  0  0  0  0  0  0  0  0  # atno 17394 bound_to 11000
  141.0820  134.0048  157.3371 LP  0  0  0  0  0  0  0  0  0  0  0  0  # atno 17395 bound_to 11000

$$$$
