AV-unprocessed.smi:2183|AV-procd|sdf|8865|dock8
  -GOLD-   2272012 63D 1   1.00000     0.00000
 Structure written by MMmdl.
 40 42  0  0  0  0  0  0  0  0  1 V2000
  150.9634  139.7539  154.4436 O   0  0  0  0  0  0  0  0  0  0  0  0
  150.4905  139.5239  155.7529 C   0  0  0  0  0  0  0  0  0  0  0  0
  151.0229  140.5108  156.7471 C   0  0  0  0  0  0  0  0  0  0  0  0
  150.7972  141.8191  156.6204 N   0  0  0  0  0  0  0  0  0  0  0  0
  151.4283  142.3470  157.7292 C   0  0  0  0  0  0  0  0  0  0  0  0
  151.5456  143.6850  158.1689 C   0  0  0  0  0  0  0  0  0  0  0  0
  152.2427  143.9872  159.3572 C   0  0  0  0  0  0  0  0  0  0  0  0
  152.8302  142.9583  160.1212 C   0  0  0  0  0  0  0  0  0  0  0  0
  152.7264  141.6186  159.6998 C   0  0  0  0  0  0  0  0  0  0  0  0
  152.0321  141.3224  158.5112 C   0  0  0  0  0  0  0  0  0  0  0  0
  151.7559  140.1408  157.8295 N   0  0  0  0  0  0  0  0  0  0  0  0
  152.1690  138.8047  158.2421 C   0  0  0  0  0  0  0  0  0  0  0  0
  151.1770  138.1496  159.2250 C   0  0  2  0  0  0  0  0  0  0  0  0
  151.7411  136.9738  159.7691 O   0  0  0  0  0  0  0  0  0  0  0  0
  149.8458  137.7839  158.5535 C   0  0  0  0  0  0  0  0  0  0  0  0
  148.8325  137.7249  159.5485 O   0  0  0  0  0  0  0  0  0  0  0  0
  148.4843  136.4913  160.0542 C   0  0  0  0  0  0  0  0  0  0  0  0
  148.6290  135.3844  159.1926 C   0  0  0  0  0  0  0  0  0  0  0  0
  148.2961  134.0861  159.6241 C   0  0  0  0  0  0  0  0  0  0  0  0
  147.8128  133.8819  160.9300 C   0  0  0  0  0  0  0  0  0  0  0  0
  147.4042  132.2926  161.4622 Cl  0  0  0  0  0  0  0  0  0  0  0  0
  147.6635  134.9775  161.8007 C   0  0  0  0  0  0  0  0  0  0  0  0
  147.9967  136.2760  161.3683 C   0  0  0  0  0  0  0  0  0  0  0  0
  150.5322  139.1505  153.8582 H   0  0  0  0  0  0  0  0  0  0  0  0
  149.4014  139.5796  155.7395 H   0  0  0  0  0  0  0  0  0  0  0  0
  150.7427  138.5103  156.0646 H   0  0  0  0  0  0  0  0  0  0  0  0
  151.0969  144.4799  157.5921 H   0  0  0  0  0  0  0  0  0  0  0  0
  152.3257  145.0133  159.6845 H   0  0  0  0  0  0  0  0  0  0  0  0
  153.3605  143.1979  161.0312 H   0  0  0  0  0  0  0  0  0  0  0  0
  153.1746  140.8287  160.2839 H   0  0  0  0  0  0  0  0  0  0  0  0
  152.2585  138.1948  157.3425 H   0  0  0  0  0  0  0  0  0  0  0  0
  153.1647  138.8393  158.6818 H   0  0  0  0  0  0  0  0  0  0  0  0
  150.9764  138.8266  160.0557 H   0  0  0  0  0  0  0  0  0  0  0  0
  152.3387  137.2194  160.4591 H   0  0  0  0  0  0  0  0  0  0  0  0
  149.5972  138.5220  157.7890 H   0  0  0  0  0  0  0  0  0  0  0  0
  149.9336  136.8096  158.0692 H   0  0  0  0  0  0  0  0  0  0  0  0
  148.9995  135.5326  158.1887 H   0  0  0  0  0  0  0  0  0  0  0  0
  148.4123  133.2491  158.9515 H   0  0  0  0  0  0  0  0  0  0  0  0
  147.2927  134.8240  162.8034 H   0  0  0  0  0  0  0  0  0  0  0  0
  147.8683  137.0905  162.0647 H   0  0  0  0  0  0  0  0  0  0  0  0
  1  2  1  0  0  0  0
  1 24  1  0  0  0  0
  2  3  1  0  0  0  0
  2 25  1  0  0  0  0
  2 26  1  0  0  0  0
  3 11  1  0  0  0  0
  3  4  2  0  0  0  0
  4  5  1  0  0  0  0
  5 10  2  0  0  0  0
  5  6  1  0  0  0  0
  6  7  2  0  0  0  0
  6 27  1  0  0  0  0
  7  8  1  0  0  0  0
  7 28  1  0  0  0  0
  8  9  2  0  0  0  0
  8 29  1  0  0  0  0
  9 10  1  0  0  0  0
  9 30  1  0  0  0  0
 10 11  1  0  0  0  0
 11 12  1  0  0  0  0
 12 13  1  0  0  0  0
 12 31  1  0  0  0  0
 12 32  1  0  0  0  0
 13 14  1  0  0  0  0
 13 15  1  0  0  0  0
 13 33  1  0  0  0  0
 14 34  1  0  0  0  0
 15 16  1  0  0  0  0
 15 35  1  0  0  0  0
 15 36  1  0  0  0  0
 16 17  1  0  0  0  0
 17 23  1  0  0  0  0
 17 18  2  0  0  0  0
 18 19  1  0  0  0  0
 18 37  1  0  0  0  0
 19 20  2  0  0  0  0
 19 38  1  0  0  0  0
 20 21  1  0  0  0  0
 20 22  1  0  0  0  0
 22 23  2  0  0  0  0
 22 39  1  0  0  0  0
 23 40  1  0  0  0  0
M  END
> <s_m_source_file>
AV-unprocessed.smi

> <i_m_source_file_index>
2183

> <i_lp_mmshare_version>
43012

> <i_f3d_flags>
0

> <s_epik_input>
W2NIXTFbY0hdW2NIXVtjSF1jKGMxMiluKGMobjIpW0NIMl1bT0hdKVtDSDJdW0NASF0oW09IXSlbQ0gyXU9jM1tjSF1bY0hdYyhDbClbY0hdW2NIXTM=

> <s_epik_cmdline>
J2VwaWtfcHl0aG9uJywgJy1waCcsICc3LjAnLCAnLXRuJywgJzgnLCAnLW1hJywgJzIwMCcsICctbWV0YWxfYmluZGluZycsICctaW1hZScsICc8aW5maWxlLm1hZT4nLCAnLW9tYWUnLCAnPG91dGZpbGUubWFlPic=

> <r_lp_tautomer_probability>
1

> <r_epik_Ionization_Penalty>
0.0586933

> <r_epik_Ionization_Penalty_Charging>
0

> <r_epik_Ionization_Penalty_Neutral>
0.0586933

> <r_epik_State_Penalty>
0.0507031

> <r_epik_Charging_Adjusted_Penalty>
0.0507031

> <i_epik_Tot_Q>
0

> <i_epik_Tot_abs_Q>
0

> <r_epik_Metal_State_Penalty>
5.29335e-05

> <b_epik_Metal_Only>
0

> <s_lp_Force_Field>
OPLS_2005

> <r_lp_Energy>
13.44

> <b_lp_Chiralities_Consistent>
1

> <s_lp_Variant>
AV-unprocessed.smi:2183-1

> <Gold.Version>
5.8.1

> <Gold.Id.Protein>
6NUR|6NUR_protein|mol2

> <Gold.PLP.Fitness>
49.5937

> <Gold.PLP.PLP>
-46.0515

> <Gold.PLP.part.hbond>
-4.0000

> <Gold.PLP.part.metal>
0.0000

> <Gold.PLP.part.buried>
-5.5120

> <Gold.PLP.part.nonpolar>
-37.6517

> <Gold.PLP.part.repulsive>
0.0850

> <Gold.PLP.ligand.clash>
0.0000

> <Gold.PLP.ligand.torsion>
1.2971

> <Gold.PLP.Chemscore.Hbond>
2.0227

> <Gold.PLP.Chemscore.CHOScore>
0.0000

> <Gold.PLP.Chemscore.Metal>
0.0000

> <Gold.Chemscore.Hbonds>
donor molecule, donor type, donor heavy atom, donor atom, acceptor molecule, acceptor atom, score
      P1  H  6896  6907       L1    14  1.00
      P1  H  7989  7998       L1     1  1.00

> <Gold.PLP.Chemscore.Internal.Correction>
0.0684

> <Gold.Rescore>
     Score         DG    S(hbond)    S(metal)    S(lipo)     H(rot)  DE(clash)    DE(int)     intcor
     17.14     -18.71       1.82        0.00     127.61       3.04       0.23       1.34       ----

> <Gold.Chemscore.Fitness>
17.1368

> <Gold.Chemscore.DG>
-18.7052

> <Gold.Chemscore.ZeroCoef>
-5.4800

> <Gold.Chemscore.Hbond>
1.8163

> <Gold.Chemscore.Metal>
0.0000

> <Gold.Chemscore.Lipo>
127.6086

> <Gold.Chemscore.Internal_Hbond>
0.0000

> <Gold.Chemscore.DEClash>
0.2315

> <Gold.Chemscore.DEInternal>
1.3369

> <Gold.Chemscore.Rot>
3.0358

> <Gold.Chemscore.Internal.Correction>
   9.000000E+99

> <Gold.Chemscore.Hbonds>
donor molecule, donor type, donor heavy atom, donor atom, acceptor molecule, acceptor atom, score
      P1  H  6896  6907       L1    14  0.60
      P1  H  7989  7998       L1     1  0.49

> <Gold.Chemscore.Hbond.Weighted>
-6.0666

> <Gold.Chemscore.Metal.Weighted>
-0.0000

> <Gold.Chemscore.Lipo.Weighted>
-14.9302

> <Gold.Chemscore.Internal_Hbond.Weighted>
0.0000

> <Gold.Chemscore.DEClash.Weighted>
0.2315

> <Gold.Chemscore.DEInternal.Weighted>
1.3369

> <Gold.Chemscore.Rot.Weighted>
7.7716

> <Gold.Chemscore.Internal.Correction.Weighted>
   9.000000E+99

> <Gold.Protein.RotatedTorsions>
[ 6907 6896 6895 6894 ] final  -10.11 input  -60.11 | X-H torsion
[ 7974 7965 7964 7962 ] final  159.95 input  175.53 | X-H torsion
[ 8008 7997 7996 7995 ] final   47.50 input   59.86 | X-H torsion
[ 10167 10162 10161 10158 ] final  112.33 input  -65.29 | X-H torsion
[ 10718 10713 10712 10709 ] final   51.60 input   66.30 | X-H torsion
[ 10763 10752 10751 10750 ] final    0.35 input  -60.55 | X-H torsion
[ 11005 11000 10999 10996 ] final  -19.34 input  -57.11 | X-H torsion

> <Gold.Protein.ActiveResidues>
 VAL166  LYS551  ARG553  GLY616  TRP617  ASP618  TYR619  PRO620  LYS621  CYS622 
 ASP623  PHE694  ASN695  SER759  ASP760  ASP761  ALA762  ILE779  LEU786  VAL792 
 PHE793  MET794  SER795  GLU796  ALA797  LYS798  CYS799  TRP800  GLU811  SER814 

> <Gold.Protein.RotatedAtoms>
  151.4072  135.0980  159.9573 H   0  0  0  0  0  0  0  0  0  0  0  0  # atno 6907 bound_to 6896
  152.5031  133.8832  159.7367 H   0  0  0  0  0  0  0  0  0  0  0  0  # atno 6908 bound_to 6896
  150.9319  133.6700  159.2837 H   0  0  0  0  0  0  0  0  0  0  0  0  # atno 6909 bound_to 6896
  144.7763  139.7689  143.6277 H   0  0  0  0  0  0  0  0  0  0  0  0  # atno 7974 bound_to 7965
  155.3700  140.3423  155.4243 H   0  0  0  0  0  0  0  0  0  0  0  0  # atno 8008 bound_to 7997
  156.1667  140.1618  156.8552 H   0  0  0  0  0  0  0  0  0  0  0  0  # atno 8009 bound_to 7997
  154.5192  140.0771  156.8123 H   0  0  0  0  0  0  0  0  0  0  0  0  # atno 8010 bound_to 7997
  139.6544  144.7129  151.1986 H   0  0  0  0  0  0  0  0  0  0  0  0  # atno 10167 bound_to 10162
  157.4996  130.8429  149.8301 H   0  0  0  0  0  0  0  0  0  0  0  0  # atno 10718 bound_to 10713
  153.3218  135.6969  153.7024 H   0  0  0  0  0  0  0  0  0  0  0  0  # atno 10763 bound_to 10752
  153.5861  135.3488  155.2894 H   0  0  0  0  0  0  0  0  0  0  0  0  # atno 10764 bound_to 10752
  154.8599  135.4306  154.2384 H   0  0  0  0  0  0  0  0  0  0  0  0  # atno 10765 bound_to 10752
  140.8357  133.7963  155.9806 H   0  0  0  0  0  0  0  0  0  0  0  0  # atno 11005 bound_to 11000
  146.1944  139.5201  142.9784 LP  0  0  0  0  0  0  0  0  0  0  0  0  # atno 17320 bound_to 7965
  145.6178  141.0328  143.1931 LP  0  0  0  0  0  0  0  0  0  0  0  0  # atno 17321 bound_to 7965
  140.7552  143.6097  150.8618 LP  0  0  0  0  0  0  0  0  0  0  0  0  # atno 17342 bound_to 10162
  139.9748  143.6016  152.2962 LP  0  0  0  0  0  0  0  0  0  0  0  0  # atno 17343 bound_to 10162
  156.0221  130.3792  150.1930 LP  0  0  0  0  0  0  0  0  0  0  0  0  # atno 17370 bound_to 10713
  157.0120  130.9953  151.3363 LP  0  0  0  0  0  0  0  0  0  0  0  0  # atno 17371 bound_to 10713
  140.8949  134.2449  157.5074 LP  0  0  0  0  0  0  0  0  0  0  0  0  # atno 17394 bound_to 11000
  139.8704  134.9679  156.4614 LP  0  0  0  0  0  0  0  0  0  0  0  0  # atno 17395 bound_to 11000

$$$$
