AV-unprocessed.smi:589|AV-procd|sdf|3006|dock5
  -GOLD-   2262023513D 1   1.00000     0.00000
 Structure written by MMmdl.
 40 41  0  0  0  0  0  0  0  0  1 V2000
  151.7506  144.7462  159.8129 C   0  0  0  0  0  0  0  0  0  0  0  0
  152.1737  143.3010  159.6545 C   0  0  0  0  0  0  0  0  0  0  0  0
  153.1508  142.7349  160.4929 C   0  0  0  0  0  0  0  0  0  0  0  0
  153.5105  141.3849  160.3048 C   0  0  0  0  0  0  0  0  0  0  0  0
  154.6005  140.7991  161.1910 C   0  0  0  0  0  0  0  0  0  0  0  0
  152.8587  140.6371  159.2829 C   0  0  0  0  0  0  0  0  0  0  0  0
  153.1972  139.1891  159.0272 C   0  0  0  0  0  0  0  0  0  0  0  0
  153.1844  138.3873  160.0959 N   0  0  0  0  0  0  0  0  0  0  0  0
  153.4347  138.7758  157.8938 O   0  0  0  0  0  0  0  0  0  0  0  0
  151.8952  141.3137  158.4796 C   0  0  0  0  0  0  0  0  0  0  0  0
  151.2096  140.6437  157.4519 N   0  0  0  0  0  0  0  0  0  0  0  0
  150.4656  141.5072  156.5467 C   0  0  0  0  0  0  0  0  0  0  0  0
  149.9741  140.6894  155.3394 C   0  0  2  0  0  0  0  0  0  0  0  0
  149.0946  141.5229  154.4020 C   0  0  0  0  0  0  0  0  0  0  0  0
  149.2053  139.5771  155.8012 O   0  0  0  0  0  0  0  0  0  0  0  0
  149.8911  138.7034  156.7039 C   0  0  1  0  0  0  0  0  0  0  0  0
  150.9689  137.8665  155.9923 C   0  0  0  0  0  0  0  0  0  0  0  0
  150.4316  139.5008  157.9075 C   0  0  0  0  0  0  0  0  0  0  0  0
  151.5629  142.6124  158.6717 N   0  0  0  0  0  0  0  0  0  0  0  0
  152.3302  145.2463  160.5892 H   0  0  0  0  0  0  0  0  0  0  0  0
  150.6963  144.8039  160.0847 H   0  0  0  0  0  0  0  0  0  0  0  0
  151.8955  145.2886  158.8782 H   0  0  0  0  0  0  0  0  0  0  0  0
  153.6225  143.3297  161.2615 H   0  0  0  0  0  0  0  0  0  0  0  0
  155.3320  140.2475  160.5995 H   0  0  0  0  0  0  0  0  0  0  0  0
  154.1707  140.1269  161.9337 H   0  0  0  0  0  0  0  0  0  0  0  0
  155.1387  141.5839  161.7236 H   0  0  0  0  0  0  0  0  0  0  0  0
  153.4050  137.4075  159.9940 H   0  0  0  0  0  0  0  0  0  0  0  0
  152.9566  138.7673  161.0033 H   0  0  0  0  0  0  0  0  0  0  0  0
  149.6173  141.9480  157.0722 H   0  0  0  0  0  0  0  0  0  0  0  0
  151.1034  142.3268  156.2131 H   0  0  0  0  0  0  0  0  0  0  0  0
  150.8309  140.3311  154.7680 H   0  0  0  0  0  0  0  0  0  0  0  0
  149.6424  142.3804  154.0104 H   0  0  0  0  0  0  0  0  0  0  0  0
  148.2103  141.8970  154.9187 H   0  0  0  0  0  0  0  0  0  0  0  0
  148.7579  140.9279  153.5527 H   0  0  0  0  0  0  0  0  0  0  0  0
  149.1434  138.0034  157.0776 H   0  0  0  0  0  0  0  0  0  0  0  0
  151.3899  137.1240  156.6705 H   0  0  0  0  0  0  0  0  0  0  0  0
  151.7961  138.4772  155.6310 H   0  0  0  0  0  0  0  0  0  0  0  0
  150.5478  137.3337  155.1395 H   0  0  0  0  0  0  0  0  0  0  0  0
  151.0409  138.8605  158.5467 H   0  0  0  0  0  0  0  0  0  0  0  0
  149.5982  139.8577  158.5144 H   0  0  0  0  0  0  0  0  0  0  0  0
  1  2  1  0  0  0  0
  1 20  1  0  0  0  0
  1 21  1  0  0  0  0
  1 22  1  0  0  0  0
  2 19  1  0  0  0  0
  2  3  2  0  0  0  0
  3  4  1  0  0  0  0
  3 23  1  0  0  0  0
  4  5  1  0  0  0  0
  4  6  2  0  0  0  0
  5 24  1  0  0  0  0
  5 25  1  0  0  0  0
  5 26  1  0  0  0  0
  6  7  1  0  0  0  0
  6 10  1  0  0  0  0
  7  8  1  0  0  0  0
  7  9  2  0  0  0  0
  8 27  1  0  0  0  0
  8 28  1  0  0  0  0
 10 11  1  0  0  0  0
 10 19  2  0  0  0  0
 11 18  1  0  0  0  0
 11 12  1  0  0  0  0
 12 13  1  0  0  0  0
 12 29  1  0  0  0  0
 12 30  1  0  0  0  0
 13 14  1  0  0  0  0
 13 15  1  0  0  0  0
 13 31  1  0  0  0  0
 14 32  1  0  0  0  0
 14 33  1  0  0  0  0
 14 34  1  0  0  0  0
 15 16  1  0  0  0  0
 16 17  1  0  0  0  0
 16 18  1  0  0  0  0
 16 35  1  0  0  0  0
 17 36  1  0  0  0  0
 17 37  1  0  0  0  0
 17 38  1  0  0  0  0
 18 39  1  0  0  0  0
 18 40  1  0  0  0  0
M  END
> <s_m_source_file>
AV-unprocessed.smi

> <i_m_source_file_index>
589

> <i_lp_mmshare_version>
43012

> <i_f3d_flags>
0

> <s_epik_input>
W0NIM11jMVtjSF1jKFtDSDNdKWMoQyg9TylbTkgyXSljKG4xKU4yW0NIMl1bQ0BASF0oW0NIM10pT1tDQEBIXShbQ0gzXSlbQ0gyXTI=

> <s_epik_cmdline>
J2VwaWtfcHl0aG9uJywgJy1waCcsICc3LjAnLCAnLXRuJywgJzgnLCAnLW1hJywgJzIwMCcsICctbWV0YWxfYmluZGluZycsICctaW1hZScsICc8aW5maWxlLm1hZT4nLCAnLW9tYWUnLCAnPG91dGZpbGUubWFlPic=

> <r_lp_tautomer_probability>
1

> <r_epik_Ionization_Penalty>
0.000626871

> <r_epik_Ionization_Penalty_Charging>
0

> <r_epik_Ionization_Penalty_Neutral>
0.000626871

> <r_epik_State_Penalty>
0.000395665

> <r_epik_Charging_Adjusted_Penalty>
0.000395665

> <i_epik_Tot_Q>
0

> <i_epik_Tot_abs_Q>
0

> <r_epik_Metal_State_Penalty>
-0

> <b_epik_Metal_Only>
0

> <s_lp_Force_Field>
OPLS_2005

> <r_lp_Energy>
27.5489

> <b_lp_Chiralities_Consistent>
1

> <s_lp_Variant>
AV-unprocessed.smi:589-2

> <Gold.Version>
5.8.1

> <Gold.Id.Protein>
6NUR|6NUR_protein|mol2

> <Gold.PLP.Fitness>
36.4989

> <Gold.PLP.PLP>
-35.1484

> <Gold.PLP.part.hbond>
-1.0000

> <Gold.PLP.part.metal>
0.0000

> <Gold.PLP.part.buried>
-3.5779

> <Gold.PLP.part.nonpolar>
-30.9600

> <Gold.PLP.part.repulsive>
0.1114

> <Gold.PLP.ligand.clash>
0.0040

> <Gold.PLP.ligand.torsion>
0.9942

> <Gold.PLP.Chemscore.Hbond>
1.0000

> <Gold.PLP.Chemscore.CHOScore>
0.0000

> <Gold.PLP.Chemscore.Metal>
0.0000

> <Gold.Chemscore.Hbonds>
donor molecule, donor type, donor heavy atom, donor atom, acceptor molecule, acceptor atom, score
      P1  H  7997  8009       L1     9  1.00

> <Gold.PLP.Chemscore.Internal.Correction>
0.3429

> <Gold.Rescore>
     Score         DG    S(hbond)    S(metal)    S(lipo)     H(rot)  DE(clash)    DE(int)     intcor
     14.83     -17.25       0.97        0.00      94.89       1.00       0.01       2.41       ----

> <Gold.Chemscore.Fitness>
14.8274

> <Gold.Chemscore.DG>
-17.2530

> <Gold.Chemscore.ZeroCoef>
-5.4800

> <Gold.Chemscore.Hbond>
0.9673

> <Gold.Chemscore.Metal>
0.0000

> <Gold.Chemscore.Lipo>
94.8906

> <Gold.Chemscore.Internal_Hbond>
0.0000

> <Gold.Chemscore.DEClash>
0.0121

> <Gold.Chemscore.DEInternal>
2.4135

> <Gold.Chemscore.Rot>
1.0000

> <Gold.Chemscore.Internal.Correction>
   9.000000E+99

> <Gold.Chemscore.Hbonds>
donor molecule, donor type, donor heavy atom, donor atom, acceptor molecule, acceptor atom, score
      P1  H  7997  8009       L1     9  0.65

> <Gold.Chemscore.Hbond.Weighted>
-3.2308

> <Gold.Chemscore.Metal.Weighted>
-0.0000

> <Gold.Chemscore.Lipo.Weighted>
-11.1022

> <Gold.Chemscore.Internal_Hbond.Weighted>
0.0000

> <Gold.Chemscore.DEClash.Weighted>
0.0121

> <Gold.Chemscore.DEInternal.Weighted>
2.4135

> <Gold.Chemscore.Rot.Weighted>
2.5600

> <Gold.Chemscore.Internal.Correction.Weighted>
   9.000000E+99

> <Gold.Protein.RotatedTorsions>
[ 6907 6896 6895 6894 ] final  104.66 input  -60.11 | X-H torsion
[ 7974 7965 7964 7962 ] final  133.69 input  175.53 | X-H torsion
[ 8008 7997 7996 7995 ] final  150.39 input   59.86 | X-H torsion
[ 10167 10162 10161 10158 ] final -110.54 input  -65.29 | X-H torsion
[ 10718 10713 10712 10709 ] final   69.85 input   66.30 | X-H torsion
[ 10763 10752 10751 10750 ] final -138.12 input  -60.55 | X-H torsion
[ 11005 11000 10999 10996 ] final  -30.18 input  -57.11 | X-H torsion

> <Gold.Protein.ActiveResidues>
 VAL166  LYS551  ARG553  GLY616  TRP617  ASP618  TYR619  PRO620  LYS621  CYS622 
 ASP623  PHE694  ASN695  SER759  ASP760  ASP761  ALA762  ILE779  LEU786  VAL792 
 PHE793  MET794  SER795  GLU796  ALA797  LYS798  CYS799  TRP800  GLU811  SER814 

> <Gold.Protein.RotatedAtoms>
  152.5257  133.9644  159.7731 H   0  0  0  0  0  0  0  0  0  0  0  0  # atno 6907 bound_to 6896
  150.9928  133.6124  159.2713 H   0  0  0  0  0  0  0  0  0  0  0  0  # atno 6908 bound_to 6896
  151.3261  135.0836  159.9376 H   0  0  0  0  0  0  0  0  0  0  0  0  # atno 6909 bound_to 6896
  144.9840  139.4475  143.5372 H   0  0  0  0  0  0  0  0  0  0  0  0  # atno 7974 bound_to 7965
  156.2718  140.2076  156.6009 H   0  0  0  0  0  0  0  0  0  0  0  0  # atno 8008 bound_to 7997
  154.6907  140.0530  157.0384 H   0  0  0  0  0  0  0  0  0  0  0  0  # atno 8009 bound_to 7997
  155.0870  140.3192  155.4587 H   0  0  0  0  0  0  0  0  0  0  0  0  # atno 8010 bound_to 7997
  140.1433  143.4260  152.1546 H   0  0  0  0  0  0  0  0  0  0  0  0  # atno 10167 bound_to 10162
  157.6368  130.9447  150.0570 H   0  0  0  0  0  0  0  0  0  0  0  0  # atno 10718 bound_to 10713
  154.8645  135.3621  154.5334 H   0  0  0  0  0  0  0  0  0  0  0  0  # atno 10763 bound_to 10752
  153.5959  135.7014  153.5409 H   0  0  0  0  0  0  0  0  0  0  0  0  # atno 10764 bound_to 10752
  153.3333  135.4118  155.1475 H   0  0  0  0  0  0  0  0  0  0  0  0  # atno 10765 bound_to 10752
  140.9360  133.7308  156.1006 H   0  0  0  0  0  0  0  0  0  0  0  0  # atno 11005 bound_to 11000
  146.3415  139.9130  142.8777 LP  0  0  0  0  0  0  0  0  0  0  0  0  # atno 17320 bound_to 7965
  145.2380  140.9998  143.3952 LP  0  0  0  0  0  0  0  0  0  0  0  0  # atno 17321 bound_to 7965
  139.5461  144.7299  151.4579 LP  0  0  0  0  0  0  0  0  0  0  0  0  # atno 17342 bound_to 10162
  140.6747  143.8216  150.7043 LP  0  0  0  0  0  0  0  0  0  0  0  0  # atno 17343 bound_to 10162
  156.1614  130.3644  149.9294 LP  0  0  0  0  0  0  0  0  0  0  0  0  # atno 17370 bound_to 10713
  156.7291  130.9036  151.3624 LP  0  0  0  0  0  0  0  0  0  0  0  0  # atno 17371 bound_to 10713
  140.7798  134.3738  157.5490 LP  0  0  0  0  0  0  0  0  0  0  0  0  # atno 17394 bound_to 11000
  139.8808  134.9074  156.2945 LP  0  0  0  0  0  0  0  0  0  0  0  0  # atno 17395 bound_to 11000

$$$$
