AV-unprocessed.smi:160|AV-procd|sdf|1372|dock4
  -GOLD-   2262019 93D 1   1.00000     0.00000
 Structure written by MMmdl.
 28 29  0  0  0  0  0  0  0  0  2 V2000
  154.4210  136.2362  156.8271 N   0  5  0  0  0  0  0  0  0  0  0  0
  154.1245  137.5497  156.9361 C   0  0  0  0  0  0  0  0  0  0  0  0
  154.6570  138.3549  157.6993 O   0  0  0  0  0  0  0  0  0  0  0  0
  153.0284  138.0230  156.0106 C   0  0  0  0  0  0  0  0  0  0  0  0
  152.4181  137.1528  155.1496 N   0  0  0  0  0  0  0  0  0  0  0  0
  151.5681  137.9890  154.5685 C   0  0  0  0  0  0  0  0  0  0  0  0
  151.6325  139.2431  155.0294 N   0  0  0  0  0  0  0  0  0  0  0  0
  150.8906  140.4825  154.6374 C   0  0  1  0  0  0  0  0  0  0  0  0
  149.8836  140.1192  153.7410 O   0  0  0  0  0  0  0  0  0  0  0  0
  148.6699  139.9102  154.4543 C   0  0  2  0  0  0  0  0  0  0  0  0
  147.4565  139.9056  153.5070 C   0  0  0  0  0  0  0  0  0  0  0  0
  147.6256  138.9262  152.5043 O   0  0  0  0  0  0  0  0  0  0  0  0
  148.7117  141.0536  155.4761 C   0  0  2  0  0  0  0  0  0  0  0  0
  148.2693  142.2654  154.8852 O   0  0  0  0  0  0  0  0  0  0  0  0
  150.1900  141.0936  155.8675 C   0  0  2  0  0  0  0  0  0  0  0  0
  150.6419  142.3985  156.1794 O   0  0  0  0  0  0  0  0  0  0  0  0
  152.6029  139.2899  155.9737 N   0  0  0  0  0  0  0  0  0  0  0  0
  151.6401  141.1196  154.1659 H   0  0  0  0  0  0  0  0  0  0  0  0
  148.7267  138.9630  154.9947 H   0  0  0  0  0  0  0  0  0  0  0  0
  148.0764  140.8471  156.3381 H   0  0  0  0  0  0  0  0  0  0  0  0
  150.3471  140.4520  156.7362 H   0  0  0  0  0  0  0  0  0  0  0  0
  154.9094  135.7798  157.6066 H   0  0  0  0  0  0  0  0  0  0  0  0
  150.8858  137.6784  153.7909 H   0  0  0  0  0  0  0  0  0  0  0  0
  146.5502  139.6538  154.0590 H   0  0  0  0  0  0  0  0  0  0  0  0
  147.3009  140.8852  153.0537 H   0  0  0  0  0  0  0  0  0  0  0  0
  148.2718  139.2363  151.8882 H   0  0  0  0  0  0  0  0  0  0  0  0
  148.6484  142.9847  155.3674 H   0  0  0  0  0  0  0  0  0  0  0  0
  149.9668  143.0130  155.9332 H   0  0  0  0  0  0  0  0  0  0  0  0
  1  2  1  0  0  0  0
  1 22  1  0  0  0  0
  2  3  2  0  0  0  0
  2  4  1  0  0  0  0
  4 17  2  0  0  0  0
  4  5  1  0  0  0  0
  5  6  2  0  0  0  0
  6  7  1  0  0  0  0
  6 23  1  0  0  0  0
  7  8  1  0  0  0  0
  7 17  1  0  0  0  0
  8 18  1  0  0  0  0
  8 15  1  0  0  0  0
  8  9  1  0  0  0  0
  9 10  1  0  0  0  0
 10 19  1  0  0  0  0
 10 11  1  0  0  0  0
 10 13  1  0  0  0  0
 11 12  1  0  0  0  0
 11 24  1  0  0  0  0
 11 25  1  0  0  0  0
 12 26  1  0  0  0  0
 13 20  1  0  0  0  0
 13 14  1  0  0  0  0
 13 15  1  0  0  0  0
 14 27  1  0  0  0  0
 15 21  1  0  0  0  0
 15 16  1  0  0  0  0
 16 28  1  0  0  0  0
M  CHG  1   1  -1
M  END
> <s_m_source_file>
AV-unprocessed.smi

> <i_m_source_file_index>
160

> <i_lp_mmshare_version>
43012

> <i_f3d_flags>
0

> <s_epik_input>
W05IMl1DKD1PKWMxbltjSF1uKG4xKVtDQEBIXTJPW0NASF0oW0NIMl1bT0hdKVtDQEBIXShbT0hdKVtDQEhdMltPSF0=

> <s_epik_cmdline>
J2VwaWtfcHl0aG9uJywgJy1waCcsICc3LjAnLCAnLXRuJywgJzgnLCAnLW1hJywgJzIwMCcsICctbWV0YWxfYmluZGluZycsICctaW1hZScsICc8aW5maWxlLm1hZT4nLCAnLW9tYWUnLCAnPG91dGZpbGUubWFlPic=

> <r_lp_tautomer_probability>
1

> <r_epik_Ionization_Penalty>
6.6993

> <r_epik_Ionization_Penalty_Charging>
6.6993

> <r_epik_Ionization_Penalty_Neutral>
6.01698e-06

> <r_epik_State_Penalty>
6.69929

> <r_epik_Charging_Adjusted_Penalty>
13.3986

> <i_epik_Tot_Q>
-1

> <i_epik_Tot_abs_Q>
1

> <r_epik_Metal_State_Penalty>
2.62798

> <b_epik_Metal_Only>
1

> <s_epik_Chemistry_Notes>
This compound contains an acetal/aminal-like group ( X-CH(R)-Y where X, Y are N, S, or O) that may be acid/base labile, releasing an aldehyde.

> <s_lp_Force_Field>
OPLS_2005

> <r_lp_Energy>
45.7221

> <b_lp_Chiralities_Consistent>
1

> <s_lp_Variant>
AV-unprocessed.smi:160-30

> <Gold.Version>
5.8.1

> <Gold.Id.Protein>
6NUR|6NUR_protein|mol2

> <Gold.PLP.Fitness>
44.6942

> <Gold.PLP.PLP>
-23.7385

> <Gold.PLP.part.hbond>
-8.9076

> <Gold.PLP.part.metal>
0.0000

> <Gold.PLP.part.buried>
0.4711

> <Gold.PLP.part.nonpolar>
-17.6011

> <Gold.PLP.part.repulsive>
3.4639

> <Gold.PLP.ligand.clash>
0.0000

> <Gold.PLP.ligand.torsion>
0.0759

> <Gold.PLP.Chemscore.Hbond>
6.8820

> <Gold.PLP.Chemscore.CHOScore>
0.1436

> <Gold.PLP.Chemscore.Metal>
0.0000

> <Gold.Chemscore.Hbonds>
donor molecule, donor type, donor heavy atom, donor atom, acceptor molecule, acceptor atom, score
      L1  H    12    26       P1  7957  1.00
      L1  H    14    27       P1  8028  1.00
      L1  H    16    28       P1  8028  0.98
      P1  H  7997  8008       L1    17  0.85
      P1  H  7997  8010       L1     3  0.46
      P1  H 10752 10764       L1     5  0.56
      P1  H 10752 10765       L1     1  2.00
      L1  C     6    23       P1  7949  0.16

> <Gold.PLP.Chemscore.Internal.Correction>
0.0307

> <Gold.Rescore>
     Score         DG    S(hbond)    S(metal)    S(lipo)     H(rot)  DE(clash)    DE(int)     intcor
     11.85     -15.37       5.17        0.00      25.34       4.04       3.48       0.04       ----

> <Gold.Chemscore.Fitness>
11.8514

> <Gold.Chemscore.DG>
-15.3724

> <Gold.Chemscore.ZeroCoef>
-5.4800

> <Gold.Chemscore.Hbond>
5.1707

> <Gold.Chemscore.Metal>
0.0000

> <Gold.Chemscore.Lipo>
25.3444

> <Gold.Chemscore.Internal_Hbond>
0.0000

> <Gold.Chemscore.DEClash>
3.4777

> <Gold.Chemscore.DEInternal>
0.0433

> <Gold.Chemscore.Rot>
4.0403

> <Gold.Chemscore.Internal.Correction>
   9.000000E+99

> <Gold.Chemscore.Hbonds>
donor molecule, donor type, donor heavy atom, donor atom, acceptor molecule, acceptor atom, score
      L1  H    12    26       P1  7957  0.99
      L1  H    14    27       P1  8028  0.95
      L1  H    16    28       P1  8028  0.92
      P1  H  7997  8008       L1    17  0.13
      P1  H  7997  8010       L1     3  0.46
      P1  H 10752 10764       L1     5  0.55
      P1  H 10752 10765       L1     1  0.90

> <Gold.Chemscore.Hbond.Weighted>
-17.2702

> <Gold.Chemscore.Metal.Weighted>
-0.0000

> <Gold.Chemscore.Lipo.Weighted>
-2.9653

> <Gold.Chemscore.Internal_Hbond.Weighted>
0.0000

> <Gold.Chemscore.DEClash.Weighted>
3.4777

> <Gold.Chemscore.DEInternal.Weighted>
0.0433

> <Gold.Chemscore.Rot.Weighted>
10.3431

> <Gold.Chemscore.Internal.Correction.Weighted>
   9.000000E+99

> <Gold.Protein.RotatedTorsions>
[ 6907 6896 6895 6894 ] final   -0.38 input  -60.11 | X-H torsion
[ 7974 7965 7964 7962 ] final   -1.10 input  175.53 | X-H torsion
[ 8008 7997 7996 7995 ] final  -19.97 input   59.86 | X-H torsion
[ 10167 10162 10161 10158 ] final   12.28 input  -65.29 | X-H torsion
[ 10718 10713 10712 10709 ] final  -32.53 input   66.30 | X-H torsion
[ 10763 10752 10751 10750 ] final  -78.34 input  -60.55 | X-H torsion
[ 11005 11000 10999 10996 ] final  -81.15 input  -57.11 | X-H torsion

> <Gold.Protein.ActiveResidues>
 VAL166  LYS551  ARG553  GLY616  TRP617  ASP618  TYR619  PRO620  LYS621  CYS622 
 ASP623  PHE694  ASN695  SER759  ASP760  ASP761  ALA762  ILE779  LEU786  VAL792 
 PHE793  MET794  SER795  GLU796  ALA797  LYS798  CYS799  TRP800  GLU811  SER814 

> <Gold.Protein.RotatedAtoms>
  151.5631  135.1065  159.9977 H   0  0  0  0  0  0  0  0  0  0  0  0  # atno 6907 bound_to 6896
  152.4437  133.7491  159.6695 H   0  0  0  0  0  0  0  0  0  0  0  0  # atno 6908 bound_to 6896
  150.8348  133.7964  159.3108 H   0  0  0  0  0  0  0  0  0  0  0  0  # atno 6909 bound_to 6896
  146.2420  140.1369  142.8336 H   0  0  0  0  0  0  0  0  0  0  0  0  # atno 7974 bound_to 7965
  154.4801  140.2074  155.9785 H   0  0  0  0  0  0  0  0  0  0  0  0  # atno 8008 bound_to 7997
  156.1151  140.3222  155.8097 H   0  0  0  0  0  0  0  0  0  0  0  0  # atno 8009 bound_to 7997
  155.4567  140.0521  157.2986 H   0  0  0  0  0  0  0  0  0  0  0  0  # atno 8010 bound_to 7997
  140.6078  143.8471  150.7032 H   0  0  0  0  0  0  0  0  0  0  0  0  # atno 10167 bound_to 10162
  156.3737  130.4344  149.7524 H   0  0  0  0  0  0  0  0  0  0  0  0  # atno 10718 bound_to 10713
  154.5246  135.5733  153.6709 H   0  0  0  0  0  0  0  0  0  0  0  0  # atno 10763 bound_to 10752
  152.9925  135.6190  154.2709 H   0  0  0  0  0  0  0  0  0  0  0  0  # atno 10764 bound_to 10752
  154.2632  135.2855  155.2749 H   0  0  0  0  0  0  0  0  0  0  0  0  # atno 10765 bound_to 10752
  141.1667  133.7183  156.8380 H   0  0  0  0  0  0  0  0  0  0  0  0  # atno 11005 bound_to 11000
  145.0279  140.8847  143.5127 LP  0  0  0  0  0  0  0  0  0  0  0  0  # atno 17320 bound_to 7965
  145.1429  139.2561  143.5481 LP  0  0  0  0  0  0  0  0  0  0  0  0  # atno 17321 bound_to 7965
  140.2033  143.3942  152.1775 LP  0  0  0  0  0  0  0  0  0  0  0  0  # atno 17342 bound_to 10162
  139.5338  144.7188  151.4964 LP  0  0  0  0  0  0  0  0  0  0  0  0  # atno 17343 bound_to 10162
  156.4641  130.7966  151.2985 LP  0  0  0  0  0  0  0  0  0  0  0  0  # atno 17370 bound_to 10713
  157.7486  131.0056  150.3121 LP  0  0  0  0  0  0  0  0  0  0  0  0  # atno 17371 bound_to 10713
  140.2003  134.8901  157.3162 LP  0  0  0  0  0  0  0  0  0  0  0  0  # atno 17394 bound_to 11000
  140.2194  134.4042  155.7573 LP  0  0  0  0  0  0  0  0  0  0  0  0  # atno 17395 bound_to 11000

$$$$
