AV-unprocessed.smi:1629|AV-procd|sdf|6523|dock9
  -GOLD-   22720 7203D 1   1.00000     0.00000
 Structure written by MMmdl.
 43 44  0  0  0  0  0  0  0  0  2 V2000
  146.7040  138.1308  152.3783 C   0  0  0  0  0  0  0  0  0  0  0  0
  146.7565  138.5155  154.1735 S   0  0  0  0  0  0  0  0  0  0  0  0
  146.6072  139.9763  154.2742 O   0  0  0  0  0  0  0  0  0  0  0  0
  145.7076  137.6880  154.7910 O   0  0  0  0  0  0  0  0  0  0  0  0
  148.2528  138.0098  154.5422 N   0  5  0  0  0  0  0  0  0  0  0  0
  149.3377  138.9739  154.6565 C   0  0  0  0  0  0  0  0  0  0  0  0
  150.7177  138.2627  154.6878 C   0  0  0  0  0  0  0  0  0  0  0  0
  151.8900  139.2154  155.0510 C   0  0  0  0  0  0  0  0  0  0  0  0
  151.6455  139.8799  156.3510 N   0  0  0  0  0  0  0  0  0  0  0  0
  152.3373  139.6992  157.5037 C   0  0  0  0  0  0  0  0  0  0  0  0
  153.2945  138.9311  157.6069 O   0  0  0  0  0  0  0  0  0  0  0  0
  151.8991  140.4339  158.5370 N   0  0  0  0  0  0  0  0  0  0  0  0
  152.4635  140.4180  159.8807 C   0  0  0  0  0  0  0  0  0  0  0  0
  153.4561  141.5753  160.0844 C   0  0  0  0  0  0  0  0  0  0  0  0
  152.8018  142.9461  160.0395 C   0  0  0  0  0  0  0  0  0  0  0  0
  152.4047  143.5955  161.2286 C   0  0  0  0  0  0  0  0  0  0  0  0
  151.8181  144.8721  161.1319 C   0  0  0  0  0  0  0  0  0  0  0  0
  151.6506  145.4466  159.8572 C   0  0  0  0  0  0  0  0  0  0  0  0
  152.0806  144.7168  158.7311 C   0  0  0  0  0  0  0  0  0  0  0  0
  152.6462  143.4931  158.8131 N   0  0  0  0  0  0  0  0  0  0  0  0
  150.4163  140.6912  156.2771 C   0  0  0  0  0  0  0  0  0  0  0  0
  149.1836  139.7982  155.9616 C   0  0  0  0  0  0  0  0  0  0  0  0
  145.7338  138.4203  151.9759 H   0  0  0  0  0  0  0  0  0  0  0  0
  146.8544  137.0619  152.2308 H   0  0  0  0  0  0  0  0  0  0  0  0
  147.4901  138.6839  151.8652 H   0  0  0  0  0  0  0  0  0  0  0  0
  149.3381  139.6786  153.8239 H   0  0  0  0  0  0  0  0  0  0  0  0
  150.6947  137.4487  155.4144 H   0  0  0  0  0  0  0  0  0  0  0  0
  150.9191  137.8009  153.7212 H   0  0  0  0  0  0  0  0  0  0  0  0
  152.8224  138.6525  155.0198 H   0  0  0  0  0  0  0  0  0  0  0  0
  152.0102  139.9834  154.2838 H   0  0  0  0  0  0  0  0  0  0  0  0
  151.1105  141.0446  158.3800 H   0  0  0  0  0  0  0  0  0  0  0  0
  151.6482  140.4970  160.6011 H   0  0  0  0  0  0  0  0  0  0  0  0
  152.9637  139.4664  160.0668 H   0  0  0  0  0  0  0  0  0  0  0  0
  153.9679  141.4562  161.0402 H   0  0  0  0  0  0  0  0  0  0  0  0
  154.2328  141.5284  159.3199 H   0  0  0  0  0  0  0  0  0  0  0  0
  152.5513  143.1309  162.1928 H   0  0  0  0  0  0  0  0  0  0  0  0
  151.5037  145.4011  162.0196 H   0  0  0  0  0  0  0  0  0  0  0  0
  151.2041  146.4235  159.7447 H   0  0  0  0  0  0  0  0  0  0  0  0
  151.9683  145.1272  157.7386 H   0  0  0  0  0  0  0  0  0  0  0  0
  150.2286  141.2371  157.2025 H   0  0  0  0  0  0  0  0  0  0  0  0
  150.5430  141.4614  155.5136 H   0  0  0  0  0  0  0  0  0  0  0  0
  148.2899  140.4201  155.8993 H   0  0  0  0  0  0  0  0  0  0  0  0
  149.0243  139.1230  156.8043 H   0  0  0  0  0  0  0  0  0  0  0  0
  1  2  1  0  0  0  0
  1 23  1  0  0  0  0
  1 24  1  0  0  0  0
  1 25  1  0  0  0  0
  2  3  2  0  0  0  0
  2  4  2  0  0  0  0
  2  5  1  0  0  0  0
  5  6  1  0  0  0  0
  6 22  1  0  0  0  0
  6  7  1  0  0  0  0
  6 26  1  0  0  0  0
  7  8  1  0  0  0  0
  7 27  1  0  0  0  0
  7 28  1  0  0  0  0
  8  9  1  0  0  0  0
  8 29  1  0  0  0  0
  8 30  1  0  0  0  0
  9 10  1  0  0  0  0
  9 21  1  0  0  0  0
 10 11  2  0  0  0  0
 10 12  1  0  0  0  0
 12 13  1  0  0  0  0
 12 31  1  0  0  0  0
 13 14  1  0  0  0  0
 13 32  1  0  0  0  0
 13 33  1  0  0  0  0
 14 15  1  0  0  0  0
 14 34  1  0  0  0  0
 14 35  1  0  0  0  0
 15 20  1  0  0  0  0
 15 16  2  0  0  0  0
 16 17  1  0  0  0  0
 16 36  1  0  0  0  0
 17 18  2  0  0  0  0
 17 37  1  0  0  0  0
 18 19  1  0  0  0  0
 18 38  1  0  0  0  0
 19 20  2  0  0  0  0
 19 39  1  0  0  0  0
 21 22  1  0  0  0  0
 21 40  1  0  0  0  0
 21 41  1  0  0  0  0
 22 42  1  0  0  0  0
 22 43  1  0  0  0  0
M  CHG  1   5  -1
M  END
> <s_m_source_file>
AV-unprocessed.smi

> <i_m_source_file_index>
1629

> <i_lp_mmshare_version>
43012

> <i_f3d_flags>
0

> <s_epik_input>
W0NIM11TKD1PKSg9TylbTkhdW0NIXTFbQ0gyXVtDSDJdTihbQ0gyXVtDSDJdMSlDKD1PKVtOSF1bQ0gyXVtDSDJdYzJbY0hdW2NIXVtjSF1bY0hdbjI=

> <s_epik_cmdline>
J2VwaWtfcHl0aG9uJywgJy1waCcsICc3LjAnLCAnLXRuJywgJzgnLCAnLW1hJywgJzIwMCcsICctbWV0YWxfYmluZGluZycsICctaW1hZScsICc8aW5maWxlLm1hZT4nLCAnLW9tYWUnLCAnPG91dGZpbGUubWFlPic=

> <r_epik_Ionization_Penalty>
6.75298

> <r_epik_Ionization_Penalty_Charging>
6.70803

> <r_epik_Ionization_Penalty_Neutral>
0.0449518

> <r_epik_State_Penalty>
6.74601

> <r_epik_Charging_Adjusted_Penalty>
13.454

> <i_epik_Tot_Q>
-1

> <i_epik_Tot_abs_Q>
1

> <r_epik_Metal_State_Penalty>
2.70902

> <b_epik_Metal_Only>
1

> <s_lp_Force_Field>
OPLS_2005

> <r_lp_Energy>
26.8071

> <b_lp_Chiralities_Consistent>
1

> <s_lp_Variant>
AV-unprocessed.smi:1629-3

> <Gold.Version>
5.8.1

> <Gold.Id.Protein>
6NUR|6NUR_protein|mol2

> <Gold.PLP.Fitness>
47.1321

> <Gold.PLP.PLP>
-46.7395

> <Gold.PLP.part.hbond>
-1.0000

> <Gold.PLP.part.metal>
0.0000

> <Gold.PLP.part.buried>
-2.0348

> <Gold.PLP.part.nonpolar>
-45.1320

> <Gold.PLP.part.repulsive>
0.5439

> <Gold.PLP.ligand.clash>
1.2595

> <Gold.PLP.ligand.torsion>
1.1702

> <Gold.PLP.Chemscore.Hbond>
1.0000

> <Gold.PLP.Chemscore.CHOScore>
0.0000

> <Gold.PLP.Chemscore.Metal>
0.0000

> <Gold.Chemscore.Hbonds>
donor molecule, donor type, donor heavy atom, donor atom, acceptor molecule, acceptor atom, score
      P1  H  7997  8008       L1    11  0.80

> <Gold.PLP.Chemscore.Internal.Correction>
0.9925

> <Gold.Rescore>
     Score         DG    S(hbond)    S(metal)    S(lipo)     H(rot)  DE(clash)    DE(int)     intcor
     14.38     -16.04       0.26        0.00     119.76       1.68       0.44       1.23       ----

> <Gold.Chemscore.Fitness>
14.3759

> <Gold.Chemscore.DG>
-16.0399

> <Gold.Chemscore.ZeroCoef>
-5.4800

> <Gold.Chemscore.Hbond>
0.2553

> <Gold.Chemscore.Metal>
0.0000

> <Gold.Chemscore.Lipo>
119.7557

> <Gold.Chemscore.Internal_Hbond>
0.0000

> <Gold.Chemscore.DEClash>
0.4363

> <Gold.Chemscore.DEInternal>
1.2278

> <Gold.Chemscore.Rot>
1.6813

> <Gold.Chemscore.Internal.Correction>
   9.000000E+99

> <Gold.Chemscore.Hbonds>
donor molecule, donor type, donor heavy atom, donor atom, acceptor molecule, acceptor atom, score
      P1  H  7997  8008       L1    11  0.12

> <Gold.Chemscore.Hbond.Weighted>
-0.8528

> <Gold.Chemscore.Metal.Weighted>
-0.0000

> <Gold.Chemscore.Lipo.Weighted>
-14.0114

> <Gold.Chemscore.Internal_Hbond.Weighted>
0.0000

> <Gold.Chemscore.DEClash.Weighted>
0.4363

> <Gold.Chemscore.DEInternal.Weighted>
1.2278

> <Gold.Chemscore.Rot.Weighted>
4.3042

> <Gold.Chemscore.Internal.Correction.Weighted>
   9.000000E+99

> <Gold.Protein.RotatedTorsions>
[ 6907 6896 6895 6894 ] final  160.70 input  -60.11 | X-H torsion
[ 7974 7965 7964 7962 ] final  161.09 input  175.53 | X-H torsion
[ 8008 7997 7996 7995 ] final  -75.98 input   59.86 | X-H torsion
[ 10167 10162 10161 10158 ] final  -71.39 input  -65.29 | X-H torsion
[ 10718 10713 10712 10709 ] final   85.73 input   66.30 | X-H torsion
[ 10763 10752 10751 10750 ] final  106.16 input  -60.55 | X-H torsion
[ 11005 11000 10999 10996 ] final  101.34 input  -57.11 | X-H torsion

> <Gold.Protein.ActiveResidues>
 VAL166  LYS551  ARG553  GLY616  TRP617  ASP618  TYR619  PRO620  LYS621  CYS622 
 ASP623  PHE694  ASN695  SER759  ASP760  ASP761  ALA762  ILE779  LEU786  VAL792 
 PHE793  MET794  SER795  GLU796  ALA797  LYS798  CYS799  TRP800  GLU811  SER814 

> <Gold.Protein.RotatedAtoms>
  151.9666  133.3712  159.4055 H   0  0  0  0  0  0  0  0  0  0  0  0  # atno 6907 bound_to 6896
  150.6955  134.4184  159.5203 H   0  0  0  0  0  0  0  0  0  0  0  0  # atno 6908 bound_to 6896
  152.1881  134.8696  160.0571 H   0  0  0  0  0  0  0  0  0  0  0  0  # atno 6909 bound_to 6896
  144.7703  139.7849  143.6299 H   0  0  0  0  0  0  0  0  0  0  0  0  # atno 7974 bound_to 7965
  154.5464  140.0735  156.8596 H   0  0  0  0  0  0  0  0  0  0  0  0  # atno 8008 bound_to 7997
  155.3078  140.3388  155.4227 H   0  0  0  0  0  0  0  0  0  0  0  0  # atno 8009 bound_to 7997
  156.1922  140.1690  156.8055 H   0  0  0  0  0  0  0  0  0  0  0  0  # atno 8010 bound_to 7997
  140.5276  143.2324  151.7319 H   0  0  0  0  0  0  0  0  0  0  0  0  # atno 10167 bound_to 10162
  157.6919  131.0187  150.2866 H   0  0  0  0  0  0  0  0  0  0  0  0  # atno 10718 bound_to 10713
  153.3892  135.3886  155.1911 H   0  0  0  0  0  0  0  0  0  0  0  0  # atno 10763 bound_to 10752
  154.8717  135.3744  154.4759 H   0  0  0  0  0  0  0  0  0  0  0  0  # atno 10764 bound_to 10752
  153.5244  135.7086  153.5776 H   0  0  0  0  0  0  0  0  0  0  0  0  # atno 10765 bound_to 10752
  139.8773  134.9179  156.4892 H   0  0  0  0  0  0  0  0  0  0  0  0  # atno 11005 bound_to 11000
  146.1844  139.5053  142.9845 LP  0  0  0  0  0  0  0  0  0  0  0  0  # atno 17320 bound_to 7965
  145.6343  141.0297  143.1846 LP  0  0  0  0  0  0  0  0  0  0  0  0  # atno 17321 bound_to 7965
  139.4943  144.4162  152.0028 LP  0  0  0  0  0  0  0  0  0  0  0  0  # atno 17342 bound_to 10162
  140.3262  144.3370  150.5998 LP  0  0  0  0  0  0  0  0  0  0  0  0  # atno 17343 bound_to 10162
  156.3404  130.3814  149.7414 LP  0  0  0  0  0  0  0  0  0  0  0  0  # atno 17370 bound_to 10713
  156.4925  130.8091  151.3100 LP  0  0  0  0  0  0  0  0  0  0  0  0  # atno 17371 bound_to 10713
  140.8670  133.8016  155.9325 LP  0  0  0  0  0  0  0  0  0  0  0  0  # atno 17394 bound_to 11000
  140.8991  134.2401  157.5052 LP  0  0  0  0  0  0  0  0  0  0  0  0  # atno 17395 bound_to 11000

$$$$
