AV-unprocessed.smi:1673|AV-procd|sdf|6711|dock5
  -GOLD-   22720 7453D 1   1.00000     0.00000
 Structure written by MMmdl.
 39 40  0  0  0  0  0  0  0  0  1 V2000
  152.0172  137.2406  157.5706 C   0  0  0  0  0  0  0  0  0  0  0  0
  152.8123  137.2482  158.8468 C   0  0  0  0  0  0  0  0  0  0  0  0
  153.3431  136.1141  159.2800 N   0  0  0  0  0  0  0  0  0  0  0  0
  153.9602  136.4002  160.5076 O   0  0  0  0  0  0  0  0  0  0  0  0
  153.7870  137.7176  160.7903 C   0  0  0  0  0  0  0  0  0  0  0  0
  154.3605  138.2176  162.0730 C   0  0  0  0  0  0  0  0  0  0  0  0
  153.0982  138.2992  159.7674 C   0  0  0  0  0  0  0  0  0  0  0  0
  152.7083  139.6612  159.7317 N   0  0  0  0  0  0  0  0  0  0  0  0
  152.6492  140.4541  158.6513 C   0  0  0  0  0  0  0  0  0  0  0  0
  152.9941  140.1235  157.5172 O   0  0  0  0  0  0  0  0  0  0  0  0
  152.1779  141.6690  158.9662 N   0  0  0  0  0  0  0  0  0  0  0  0
  151.9721  142.7822  158.0374 C   0  0  2  0  0  0  0  0  0  0  0  0
  152.7708  144.0120  158.5136 C   0  0  0  0  0  0  0  0  0  0  0  0
  152.1841  144.6268  159.7964 C   0  0  0  0  0  0  0  0  0  0  0  0
  150.6966  144.9670  159.6206 C   0  0  0  0  0  0  0  0  0  0  0  0
  149.8903  143.7399  159.1659 C   0  0  0  0  0  0  0  0  0  0  0  0
  150.4690  143.1280  157.8732 C   0  0  2  0  0  0  0  0  0  0  0  0
  149.6227  141.9412  157.3812 C   0  0  0  0  0  0  0  0  0  0  0  0
  151.2040  137.9654  157.6063 H   0  0  0  0  0  0  0  0  0  0  0  0
  151.5711  136.2632  157.3842 H   0  0  0  0  0  0  0  0  0  0  0  0
  152.6480  137.4836  156.7155 H   0  0  0  0  0  0  0  0  0  0  0  0
  154.0595  139.2478  162.2626 H   0  0  0  0  0  0  0  0  0  0  0  0
  155.4494  138.1838  162.0466 H   0  0  0  0  0  0  0  0  0  0  0  0
  154.0227  137.6080  162.9110 H   0  0  0  0  0  0  0  0  0  0  0  0
  152.5225  140.0928  160.6252 H   0  0  0  0  0  0  0  0  0  0  0  0
  151.9271  141.8394  159.9289 H   0  0  0  0  0  0  0  0  0  0  0  0
  152.3649  142.5058  157.0573 H   0  0  0  0  0  0  0  0  0  0  0  0
  153.8166  143.7454  158.6712 H   0  0  0  0  0  0  0  0  0  0  0  0
  152.7677  144.7665  157.7258 H   0  0  0  0  0  0  0  0  0  0  0  0
  152.3051  143.9329  160.6290 H   0  0  0  0  0  0  0  0  0  0  0  0
  152.7405  145.5256  160.0638 H   0  0  0  0  0  0  0  0  0  0  0  0
  150.2912  145.3526  160.5563 H   0  0  0  0  0  0  0  0  0  0  0  0
  150.5893  145.7659  158.8858 H   0  0  0  0  0  0  0  0  0  0  0  0
  149.8820  142.9927  159.9606 H   0  0  0  0  0  0  0  0  0  0  0  0
  148.8509  144.0285  159.0074 H   0  0  0  0  0  0  0  0  0  0  0  0
  150.4042  143.8948  157.0995 H   0  0  0  0  0  0  0  0  0  0  0  0
  149.5665  141.1469  158.1257 H   0  0  0  0  0  0  0  0  0  0  0  0
  150.0392  141.5143  156.4684 H   0  0  0  0  0  0  0  0  0  0  0  0
  148.6022  142.2552  157.1610 H   0  0  0  0  0  0  0  0  0  0  0  0
  1  2  1  0  0  0  0
  1 19  1  0  0  0  0
  1 20  1  0  0  0  0
  1 21  1  0  0  0  0
  2  7  1  0  0  0  0
  2  3  2  0  0  0  0
  3  4  1  0  0  0  0
  4  5  1  0  0  0  0
  5  6  1  0  0  0  0
  5  7  2  0  0  0  0
  6 22  1  0  0  0  0
  6 23  1  0  0  0  0
  6 24  1  0  0  0  0
  7  8  1  0  0  0  0
  8  9  1  0  0  0  0
  8 25  1  0  0  0  0
  9 10  2  0  0  0  0
  9 11  1  0  0  0  0
 11 12  1  0  0  0  0
 11 26  1  0  0  0  0
 12 17  1  0  0  0  0
 12 13  1  0  0  0  0
 12 27  1  0  0  0  0
 13 14  1  0  0  0  0
 13 28  1  0  0  0  0
 13 29  1  0  0  0  0
 14 15  1  0  0  0  0
 14 30  1  0  0  0  0
 14 31  1  0  0  0  0
 15 16  1  0  0  0  0
 15 32  1  0  0  0  0
 15 33  1  0  0  0  0
 16 17  1  0  0  0  0
 16 34  1  0  0  0  0
 16 35  1  0  0  0  0
 17 18  1  0  0  0  0
 17 36  1  0  0  0  0
 18 37  1  0  0  0  0
 18 38  1  0  0  0  0
 18 39  1  0  0  0  0
M  END
> <s_m_source_file>
AV-unprocessed.smi

> <i_m_source_file_index>
1673

> <i_lp_mmshare_version>
43012

> <i_f3d_flags>
0

> <s_epik_input>
W0NIM11jMW5vYyhbQ0gzXSljMVtOSF1DKD1PKVtOSF1bQ0BASF0yW0NIMl1bQ0gyXVtDSDJdW0NIMl1bQ0BIXTJbQ0gzXQ==

> <s_epik_cmdline>
J2VwaWtfcHl0aG9uJywgJy1waCcsICc3LjAnLCAnLXRuJywgJzgnLCAnLW1hJywgJzIwMCcsICctbWV0YWxfYmluZGluZycsICctaW1hZScsICc8aW5maWxlLm1hZT4nLCAnLW9tYWUnLCAnPG91dGZpbGUubWFlPic=

> <r_lp_tautomer_probability>
1

> <r_epik_Ionization_Penalty>
4.01865e-05

> <r_epik_Ionization_Penalty_Charging>
0

> <r_epik_Ionization_Penalty_Neutral>
4.01865e-05

> <r_epik_State_Penalty>
-0

> <r_epik_Charging_Adjusted_Penalty>
0

> <i_epik_Tot_Q>
0

> <i_epik_Tot_abs_Q>
0

> <r_epik_Metal_State_Penalty>
-0

> <b_epik_Metal_Only>
0

> <s_lp_Force_Field>
OPLS_2005

> <r_lp_Energy>
11.4641

> <b_lp_Chiralities_Consistent>
1

> <s_lp_Variant>
AV-unprocessed.smi:1673-3

> <Gold.Version>
5.8.1

> <Gold.Id.Protein>
6NUR|6NUR_protein|mol2

> <Gold.PLP.Fitness>
33.8652

> <Gold.PLP.PLP>
-28.2291

> <Gold.PLP.part.hbond>
-2.0000

> <Gold.PLP.part.metal>
0.0000

> <Gold.PLP.part.buried>
-2.4220

> <Gold.PLP.part.nonpolar>
-23.6132

> <Gold.PLP.part.repulsive>
0.2236

> <Gold.PLP.ligand.clash>
0.0000

> <Gold.PLP.ligand.torsion>
0.3031

> <Gold.PLP.Chemscore.Hbond>
2.0000

> <Gold.PLP.Chemscore.CHOScore>
0.0000

> <Gold.PLP.Chemscore.Metal>
0.0000

> <Gold.Chemscore.Hbonds>
donor molecule, donor type, donor heavy atom, donor atom, acceptor molecule, acceptor atom, score
      P1  H  6896  6908       L1     3  0.65
      P1  H  7997  8010       L1    10  1.00

> <Gold.PLP.Chemscore.Internal.Correction>
0.2424

> <Gold.Rescore>
     Score         DG    S(hbond)    S(metal)    S(lipo)     H(rot)  DE(clash)    DE(int)     intcor
     19.54     -20.27       1.87        0.00      94.92       1.00       0.34       0.39       ----

> <Gold.Chemscore.Fitness>
19.5423

> <Gold.Chemscore.DG>
-20.2706

> <Gold.Chemscore.ZeroCoef>
-5.4800

> <Gold.Chemscore.Hbond>
1.8697

> <Gold.Chemscore.Metal>
0.0000

> <Gold.Chemscore.Lipo>
94.9213

> <Gold.Chemscore.Internal_Hbond>
0.0000

> <Gold.Chemscore.DEClash>
0.3419

> <Gold.Chemscore.DEInternal>
0.3863

> <Gold.Chemscore.Rot>
1.0000

> <Gold.Chemscore.Internal.Correction>
   9.000000E+99

> <Gold.Chemscore.Hbonds>
donor molecule, donor type, donor heavy atom, donor atom, acceptor molecule, acceptor atom, score
      P1  H  6896  6908       L1     3  0.05
      P1  H  7997  8010       L1    10  0.95

> <Gold.Chemscore.Hbond.Weighted>
-6.2448

> <Gold.Chemscore.Metal.Weighted>
-0.0000

> <Gold.Chemscore.Lipo.Weighted>
-11.1058

> <Gold.Chemscore.Internal_Hbond.Weighted>
0.0000

> <Gold.Chemscore.DEClash.Weighted>
0.3419

> <Gold.Chemscore.DEInternal.Weighted>
0.3863

> <Gold.Chemscore.Rot.Weighted>
2.5600

> <Gold.Chemscore.Internal.Correction.Weighted>
   9.000000E+99

> <Gold.Protein.RotatedTorsions>
[ 6907 6896 6895 6894 ] final  -79.50 input  -60.11 | X-H torsion
[ 7974 7965 7964 7962 ] final  164.95 input  175.53 | X-H torsion
[ 8008 7997 7996 7995 ] final   53.79 input   59.86 | X-H torsion
[ 10167 10162 10161 10158 ] final  115.66 input  -65.29 | X-H torsion
[ 10718 10713 10712 10709 ] final  -93.69 input   66.30 | X-H torsion
[ 10763 10752 10751 10750 ] final  166.95 input  -60.55 | X-H torsion
[ 11005 11000 10999 10996 ] final  128.86 input  -57.11 | X-H torsion

> <Gold.Protein.ActiveResidues>
 VAL166  LYS551  ARG553  GLY616  TRP617  ASP618  TYR619  PRO620  LYS621  CYS622 
 ASP623  PHE694  ASN695  SER759  ASP760  ASP761  ALA762  ILE779  LEU786  VAL792 
 PHE793  MET794  SER795  GLU796  ALA797  LYS798  CYS799  TRP800  GLU811  SER814 

> <Gold.Protein.RotatedAtoms>
  150.6948  134.4111  159.5161 H   0  0  0  0  0  0  0  0  0  0  0  0  # atno 6907 bound_to 6896
  152.1869  134.8703  160.0530 H   0  0  0  0  0  0  0  0  0  0  0  0  # atno 6908 bound_to 6896
  151.9672  133.3679  159.4094 H   0  0  0  0  0  0  0  0  0  0  0  0  # atno 6909 bound_to 6896
  144.7523  139.8400  143.6362 H   0  0  0  0  0  0  0  0  0  0  0  0  # atno 7974 bound_to 7965
  155.4741  140.3466  155.4330 H   0  0  0  0  0  0  0  0  0  0  0  0  # atno 8008 bound_to 7997
  156.1081  140.1453  156.9404 H   0  0  0  0  0  0  0  0  0  0  0  0  # atno 8009 bound_to 7997
  154.4738  140.0892  156.7190 H   0  0  0  0  0  0  0  0  0  0  0  0  # atno 8010 bound_to 7997
  139.6302  144.7114  151.2449 H   0  0  0  0  0  0  0  0  0  0  0  0  # atno 10167 bound_to 10162
  156.0016  130.5037  150.5814 H   0  0  0  0  0  0  0  0  0  0  0  0  # atno 10718 bound_to 10713
  154.3466  135.2753  155.2394 H   0  0  0  0  0  0  0  0  0  0  0  0  # atno 10763 bound_to 10752
  154.4642  135.5899  153.6280 H   0  0  0  0  0  0  0  0  0  0  0  0  # atno 10764 bound_to 10752
  152.9853  135.6072  154.3672 H   0  0  0  0  0  0  0  0  0  0  0  0  # atno 10765 bound_to 10752
  139.9583  134.9608  156.9063 H   0  0  0  0  0  0  0  0  0  0  0  0  # atno 11005 bound_to 11000
  146.1489  139.4567  143.0061 LP  0  0  0  0  0  0  0  0  0  0  0  0  # atno 17320 bound_to 7965
  145.6900  141.0167  143.1560 LP  0  0  0  0  0  0  0  0  0  0  0  0  # atno 17321 bound_to 7965
  140.7434  143.6495  150.8262 LP  0  0  0  0  0  0  0  0  0  0  0  0  # atno 17342 bound_to 10162
  140.0118  143.5634  152.2836 LP  0  0  0  0  0  0  0  0  0  0  0  0  # atno 17343 bound_to 10162
  157.3693  131.0763  151.1571 LP  0  0  0  0  0  0  0  0  0  0  0  0  # atno 17370 bound_to 10713
  157.2330  130.6534  149.5857 LP  0  0  0  0  0  0  0  0  0  0  0  0  # atno 17371 bound_to 10713
  140.5557  134.0583  155.7383 LP  0  0  0  0  0  0  0  0  0  0  0  0  # atno 17394 bound_to 11000
  141.1258  133.9386  157.2639 LP  0  0  0  0  0  0  0  0  0  0  0  0  # atno 17395 bound_to 11000

$$$$
