AV-unprocessed.smi:2959|AV-procd|sdf|11309|dock8
  -GOLD-   2272016203D 1   1.00000     0.00000
 Structure written by MMmdl.
 45 47  0  0  0  0  0  0  0  0  1 V2000
  154.9088  135.4287  162.1243 C   0  0  0  0  0  0  0  0  0  0  0  0
  154.2918  136.4937  161.2231 C   0  0  0  0  0  0  0  0  0  0  0  0
  153.7892  136.1727  160.1471 O   0  0  0  0  0  0  0  0  0  0  0  0
  154.3311  137.7552  161.6735 N   0  0  0  0  0  0  0  0  0  0  0  0
  153.8007  138.9100  160.9591 C   0  0  0  0  0  0  0  0  0  0  0  0
  154.1976  140.2372  161.6336 C   0  0  0  0  0  0  0  0  0  0  0  0
  153.5303  141.4443  161.0326 C   0  0  0  0  0  0  0  0  0  0  0  0
  153.3004  141.5171  159.7202 N   0  0  0  0  0  0  0  0  0  0  0  0
  152.7039  142.7529  159.5788 C   0  0  0  0  0  0  0  0  0  0  0  0
  152.2400  143.4219  158.4236 C   0  0  0  0  0  0  0  0  0  0  0  0
  151.6537  144.7002  158.5263 C   0  0  0  0  0  0  0  0  0  0  0  0
  151.5219  145.3257  159.7831 C   0  0  0  0  0  0  0  0  0  0  0  0
  151.9762  144.6748  160.9463 C   0  0  0  0  0  0  0  0  0  0  0  0
  152.5625  143.3990  160.8384 C   0  0  0  0  0  0  0  0  0  0  0  0
  153.0932  142.5045  161.7642 N   0  0  0  0  0  0  0  0  0  0  0  0
  153.1282  142.7158  163.2062 C   0  0  0  0  0  0  0  0  0  0  0  0
  154.4449  142.2516  163.8452 C   0  0  0  0  0  0  0  0  0  0  0  0
  154.8710  143.2031  164.8094 O   0  0  0  0  0  0  0  0  0  0  0  0
  154.8390  142.8439  166.1396 C   0  0  0  0  0  0  0  0  0  0  0  0
  155.0273  141.4785  166.4386 C   0  0  0  0  0  0  0  0  0  0  0  0
  155.0240  141.0243  167.7711 C   0  0  0  0  0  0  0  0  0  0  0  0
  154.8288  141.9369  168.8238 C   0  0  0  0  0  0  0  0  0  0  0  0
  154.6363  143.3018  168.5403 C   0  0  0  0  0  0  0  0  0  0  0  0
  154.6406  143.7559  167.2068 C   0  0  0  0  0  0  0  0  0  0  0  0
  155.5989  134.8057  161.5553 H   0  0  0  0  0  0  0  0  0  0  0  0
  154.1288  134.7888  162.5372 H   0  0  0  0  0  0  0  0  0  0  0  0
  155.4582  135.8759  162.9539 H   0  0  0  0  0  0  0  0  0  0  0  0
  154.7579  137.9282  162.5725 H   0  0  0  0  0  0  0  0  0  0  0  0
  154.1851  138.8937  159.9379 H   0  0  0  0  0  0  0  0  0  0  0  0
  152.7147  138.8350  160.8900 H   0  0  0  0  0  0  0  0  0  0  0  0
  153.9458  140.1975  162.6937 H   0  0  0  0  0  0  0  0  0  0  0  0
  155.2798  140.3364  161.5885 H   0  0  0  0  0  0  0  0  0  0  0  0
  152.3358  142.9502  157.4568 H   0  0  0  0  0  0  0  0  0  0  0  0
  151.3029  145.2028  157.6368 H   0  0  0  0  0  0  0  0  0  0  0  0
  151.0710  146.3046  159.8538 H   0  0  0  0  0  0  0  0  0  0  0  0
  151.8753  145.1524  161.9095 H   0  0  0  0  0  0  0  0  0  0  0  0
  153.0015  143.7832  163.3895 H   0  0  0  0  0  0  0  0  0  0  0  0
  152.2692  142.2380  163.6761 H   0  0  0  0  0  0  0  0  0  0  0  0
  154.3078  141.2703  164.3023 H   0  0  0  0  0  0  0  0  0  0  0  0
  155.2047  142.1565  163.0679 H   0  0  0  0  0  0  0  0  0  0  0  0
  155.1811  140.7713  165.6367 H   0  0  0  0  0  0  0  0  0  0  0  0
  155.1728  139.9760  167.9843 H   0  0  0  0  0  0  0  0  0  0  0  0
  154.8268  141.5908  169.8469 H   0  0  0  0  0  0  0  0  0  0  0  0
  154.4865  144.0034  169.3476 H   0  0  0  0  0  0  0  0  0  0  0  0
  154.4945  144.8104  167.0296 H   0  0  0  0  0  0  0  0  0  0  0  0
  1  2  1  0  0  0  0
  1 25  1  0  0  0  0
  1 26  1  0  0  0  0
  1 27  1  0  0  0  0
  2  3  2  0  0  0  0
  2  4  1  0  0  0  0
  4  5  1  0  0  0  0
  4 28  1  0  0  0  0
  5  6  1  0  0  0  0
  5 29  1  0  0  0  0
  5 30  1  0  0  0  0
  6  7  1  0  0  0  0
  6 31  1  0  0  0  0
  6 32  1  0  0  0  0
  7 15  1  0  0  0  0
  7  8  2  0  0  0  0
  8  9  1  0  0  0  0
  9 14  2  0  0  0  0
  9 10  1  0  0  0  0
 10 11  2  0  0  0  0
 10 33  1  0  0  0  0
 11 12  1  0  0  0  0
 11 34  1  0  0  0  0
 12 13  2  0  0  0  0
 12 35  1  0  0  0  0
 13 14  1  0  0  0  0
 13 36  1  0  0  0  0
 14 15  1  0  0  0  0
 15 16  1  0  0  0  0
 16 17  1  0  0  0  0
 16 37  1  0  0  0  0
 16 38  1  0  0  0  0
 17 18  1  0  0  0  0
 17 39  1  0  0  0  0
 17 40  1  0  0  0  0
 18 19  1  0  0  0  0
 19 24  1  0  0  0  0
 19 20  2  0  0  0  0
 20 21  1  0  0  0  0
 20 41  1  0  0  0  0
 21 22  2  0  0  0  0
 21 42  1  0  0  0  0
 22 23  1  0  0  0  0
 22 43  1  0  0  0  0
 23 24  2  0  0  0  0
 23 44  1  0  0  0  0
 24 45  1  0  0  0  0
M  END
> <s_m_source_file>
AV-unprocessed.smi

> <i_m_source_file_index>
2959

> <i_lp_mmshare_version>
43012

> <i_f3d_flags>
0

> <s_epik_input>
W0NIM11DKD1PKVtOSF1bQ0gyXVtDSDJdYyhuMSluKGMoYzEyKVtjSF1bY0hdW2NIXVtjSF0yKVtDSDJdW0NIMl1PYzNbY0hdW2NIXVtjSF1bY0hdW2NIXTM=

> <s_epik_cmdline>
J2VwaWtfcHl0aG9uJywgJy1waCcsICc3LjAnLCAnLXRuJywgJzgnLCAnLW1hJywgJzIwMCcsICctbWV0YWxfYmluZGluZycsICctaW1hZScsICc8aW5maWxlLm1hZT4nLCAnLW9tYWUnLCAnPG91dGZpbGUubWFlPic=

> <r_lp_tautomer_probability>
1

> <r_epik_Ionization_Penalty>
0.11099

> <r_epik_Ionization_Penalty_Charging>
0

> <r_epik_Ionization_Penalty_Neutral>
0.11099

> <r_epik_State_Penalty>
0.100724

> <r_epik_Charging_Adjusted_Penalty>
0.100724

> <i_epik_Tot_Q>
0

> <i_epik_Tot_abs_Q>
0

> <r_epik_Metal_State_Penalty>
0.0847

> <b_epik_Metal_Only>
0

> <s_lp_Force_Field>
OPLS_2005

> <r_lp_Energy>
14.3457

> <b_lp_Chiralities_Consistent>
1

> <s_lp_Variant>
AV-unprocessed.smi:2959-1

> <Gold.Version>
5.8.1

> <Gold.Id.Protein>
6NUR|6NUR_protein|mol2

> <Gold.PLP.Fitness>
61.5540

> <Gold.PLP.PLP>
-61.8754

> <Gold.PLP.part.hbond>
-2.0000

> <Gold.PLP.part.metal>
0.0000

> <Gold.PLP.part.buried>
-5.4750

> <Gold.PLP.part.nonpolar>
-53.1360

> <Gold.PLP.part.repulsive>
0.0036

> <Gold.PLP.ligand.clash>
0.0000

> <Gold.PLP.ligand.torsion>
1.6760

> <Gold.PLP.Chemscore.Hbond>
1.0000

> <Gold.PLP.Chemscore.CHOScore>
0.0000

> <Gold.PLP.Chemscore.Metal>
0.0000

> <Gold.Chemscore.Hbonds>
donor molecule, donor type, donor heavy atom, donor atom, acceptor molecule, acceptor atom, score
      P1  H  6896  6909       L1     3  1.00

> <Gold.PLP.Chemscore.Internal.Correction>
0.0306

> <Gold.Rescore>
     Score         DG    S(hbond)    S(metal)    S(lipo)     H(rot)  DE(clash)    DE(int)     intcor
     18.91     -21.81       1.00        0.00     157.76       2.14       1.60       1.31       ----

> <Gold.Chemscore.Fitness>
18.9057

> <Gold.Chemscore.DG>
-21.8103

> <Gold.Chemscore.ZeroCoef>
-5.4800

> <Gold.Chemscore.Hbond>
0.9998

> <Gold.Chemscore.Metal>
0.0000

> <Gold.Chemscore.Lipo>
157.7618

> <Gold.Chemscore.Internal_Hbond>
0.0000

> <Gold.Chemscore.DEClash>
1.5952

> <Gold.Chemscore.DEInternal>
1.3094

> <Gold.Chemscore.Rot>
2.1356

> <Gold.Chemscore.Internal.Correction>
   9.000000E+99

> <Gold.Chemscore.Hbonds>
donor molecule, donor type, donor heavy atom, donor atom, acceptor molecule, acceptor atom, score
      P1  H  6896  6909       L1     3  0.95

> <Gold.Chemscore.Hbond.Weighted>
-3.3393

> <Gold.Chemscore.Metal.Weighted>
-0.0000

> <Gold.Chemscore.Lipo.Weighted>
-18.4581

> <Gold.Chemscore.Internal_Hbond.Weighted>
0.0000

> <Gold.Chemscore.DEClash.Weighted>
1.5952

> <Gold.Chemscore.DEInternal.Weighted>
1.3094

> <Gold.Chemscore.Rot.Weighted>
5.4671

> <Gold.Chemscore.Internal.Correction.Weighted>
   9.000000E+99

> <Gold.Protein.RotatedTorsions>
[ 6907 6896 6895 6894 ] final  176.94 input  -60.11 | X-H torsion
[ 7974 7965 7964 7962 ] final -178.39 input  175.53 | X-H torsion
[ 8008 7997 7996 7995 ] final -126.47 input   59.86 | X-H torsion
[ 10167 10162 10161 10158 ] final  -90.29 input  -65.29 | X-H torsion
[ 10718 10713 10712 10709 ] final  -41.63 input   66.30 | X-H torsion
[ 10763 10752 10751 10750 ] final -142.37 input  -60.55 | X-H torsion
[ 11005 11000 10999 10996 ] final  -99.66 input  -57.11 | X-H torsion

> <Gold.Protein.ActiveResidues>
 VAL166  LYS551  ARG553  GLY616  TRP617  ASP618  TYR619  PRO620  LYS621  CYS622 
 ASP623  PHE694  ASN695  SER759  ASP760  ASP761  ALA762  ILE779  LEU786  VAL792 
 PHE793  MET794  SER795  GLU796  ALA797  LYS798  CYS799  TRP800  GLU811  SER814 

> <Gold.Protein.RotatedAtoms>
  151.7121  133.3312  159.3293 H   0  0  0  0  0  0  0  0  0  0  0  0  # atno 6907 bound_to 6896
  150.7689  134.6523  159.6304 H   0  0  0  0  0  0  0  0  0  0  0  0  # atno 6908 bound_to 6896
  152.3705  134.6743  160.0229 H   0  0  0  0  0  0  0  0  0  0  0  0  # atno 6909 bound_to 6896
  144.7131  140.0876  143.6423 H   0  0  0  0  0  0  0  0  0  0  0  0  # atno 7974 bound_to 7965
  155.2302  140.0425  157.2961 H   0  0  0  0  0  0  0  0  0  0  0  0  # atno 8008 bound_to 7997
  154.5893  140.2422  155.7913 H   0  0  0  0  0  0  0  0  0  0  0  0  # atno 8009 bound_to 7997
  156.2248  140.2958  156.0049 H   0  0  0  0  0  0  0  0  0  0  0  0  # atno 8010 bound_to 7997
  140.3563  143.2865  151.9667 H   0  0  0  0  0  0  0  0  0  0  0  0  # atno 10167 bound_to 10162
  156.2682  130.4204  149.8466 H   0  0  0  0  0  0  0  0  0  0  0  0  # atno 10718 bound_to 10713
  154.8511  135.3498  154.6016 H   0  0  0  0  0  0  0  0  0  0  0  0  # atno 10763 bound_to 10752
  153.6625  135.6989  153.5177 H   0  0  0  0  0  0  0  0  0  0  0  0  # atno 10764 bound_to 10752
  153.2806  135.4265  155.1032 H   0  0  0  0  0  0  0  0  0  0  0  0  # atno 10765 bound_to 10752
  141.1300  133.8339  157.1001 H   0  0  0  0  0  0  0  0  0  0  0  0  # atno 11005 bound_to 11000
  145.9648  139.2826  143.1134 LP  0  0  0  0  0  0  0  0  0  0  0  0  # atno 17320 bound_to 7965
  145.9181  140.9134  143.0419 LP  0  0  0  0  0  0  0  0  0  0  0  0  # atno 17321 bound_to 7965
  139.4819  144.6032  151.7569 LP  0  0  0  0  0  0  0  0  0  0  0  0  # atno 17342 bound_to 10162
  140.5170  144.0938  150.6011 LP  0  0  0  0  0  0  0  0  0  0  0  0  # atno 17343 bound_to 10162
  156.5957  130.8525  151.3419 LP  0  0  0  0  0  0  0  0  0  0  0  0  # atno 17370 bound_to 10713
  157.7275  130.9643  150.1701 LP  0  0  0  0  0  0  0  0  0  0  0  0  # atno 17371 bound_to 10713
  140.0338  134.9888  157.0832 LP  0  0  0  0  0  0  0  0  0  0  0  0  # atno 17394 bound_to 11000
  140.4242  134.1848  155.7165 LP  0  0  0  0  0  0  0  0  0  0  0  0  # atno 17395 bound_to 11000

$$$$
