AV-unprocessed.smi:1982|AV-procd|sdf|8021|dock3
  -GOLD-   2272010213D 1   1.00000     0.00000
 Structure written by MMmdl.
 36 37  0  0  0  0  0  0  0  0  1 V2000
  152.1984  144.3860  158.0063 C   0  0  0  0  0  0  0  0  0  0  0  0
  152.7378  143.8711  159.3511 C   0  0  1  0  0  0  0  0  0  0  0  0
  151.9231  144.4166  160.5410 C   0  0  0  0  0  0  0  0  0  0  0  0
  152.5329  143.9847  161.8835 C   0  0  0  0  0  0  0  0  0  0  0  0
  152.6948  142.4597  161.9649 C   0  0  0  0  0  0  0  0  0  0  0  0
  153.5101  141.9182  160.7746 C   0  0  1  0  0  0  0  0  0  0  0  0
  153.6592  140.4710  160.8985 N   0  0  0  0  0  0  0  0  0  0  0  0
  153.9507  139.6282  159.8955 C   0  0  0  0  0  0  0  0  0  0  0  0
  154.1838  139.9942  158.7439 O   0  0  0  0  0  0  0  0  0  0  0  0
  153.9621  138.1399  160.2425 C   0  0  0  0  0  0  0  0  0  0  0  0
  153.6800  137.3375  159.0670 N   0  0  0  0  0  0  0  0  0  0  0  0
  154.3503  137.1942  157.9218 C   0  0  0  0  0  0  0  0  0  0  0  0
  153.7278  136.3718  157.0913 N   0  0  0  0  0  0  0  0  0  0  0  0
  152.5997  135.9992  157.8033 N   0  0  0  0  0  0  0  0  0  0  0  0
  152.5657  136.5692  158.9764 N   0  0  0  0  0  0  0  0  0  0  0  0
  152.8792  142.3266  159.4141 C   0  0  1  0  0  0  0  0  0  0  0  0
  151.5667  141.5698  159.0988 C   0  0  0  0  0  0  0  0  0  0  0  0
  151.1526  144.1172  157.8582 H   0  0  0  0  0  0  0  0  0  0  0  0
  152.7720  143.9829  157.1715 H   0  0  0  0  0  0  0  0  0  0  0  0
  152.2636  145.4732  157.9537 H   0  0  0  0  0  0  0  0  0  0  0  0
  153.7451  144.2801  159.4456 H   0  0  0  0  0  0  0  0  0  0  0  0
  151.8852  145.5056  160.4971 H   0  0  0  0  0  0  0  0  0  0  0  0
  150.8899  144.0744  160.4786 H   0  0  0  0  0  0  0  0  0  0  0  0
  153.5065  144.4603  162.0102 H   0  0  0  0  0  0  0  0  0  0  0  0
  151.9092  144.3369  162.7056 H   0  0  0  0  0  0  0  0  0  0  0  0
  153.1858  142.1982  162.9030 H   0  0  0  0  0  0  0  0  0  0  0  0
  151.7113  141.9892  161.9945 H   0  0  0  0  0  0  0  0  0  0  0  0
  154.5055  142.3633  160.8366 H   0  0  0  0  0  0  0  0  0  0  0  0
  153.4834  140.0751  161.8108 H   0  0  0  0  0  0  0  0  0  0  0  0
  154.9374  137.8525  160.6373 H   0  0  0  0  0  0  0  0  0  0  0  0
  153.2231  137.9283  161.0167 H   0  0  0  0  0  0  0  0  0  0  0  0
  155.2815  137.6930  157.6968 H   0  0  0  0  0  0  0  0  0  0  0  0
  153.5869  142.0424  158.6338 H   0  0  0  0  0  0  0  0  0  0  0  0
  150.7782  141.7993  159.8148 H   0  0  0  0  0  0  0  0  0  0  0  0
  151.7124  140.4894  159.1081 H   0  0  0  0  0  0  0  0  0  0  0  0
  151.1920  141.8168  158.1063 H   0  0  0  0  0  0  0  0  0  0  0  0
  1  2  1  0  0  0  0
  1 18  1  0  0  0  0
  1 19  1  0  0  0  0
  1 20  1  0  0  0  0
  2 16  1  0  0  0  0
  2  3  1  0  0  0  0
  2 21  1  0  0  0  0
  3  4  1  0  0  0  0
  3 22  1  0  0  0  0
  3 23  1  0  0  0  0
  4  5  1  0  0  0  0
  4 24  1  0  0  0  0
  4 25  1  0  0  0  0
  5  6  1  0  0  0  0
  5 26  1  0  0  0  0
  5 27  1  0  0  0  0
  6  7  1  0  0  0  0
  6 16  1  0  0  0  0
  6 28  1  0  0  0  0
  7  8  1  0  0  0  0
  7 29  1  0  0  0  0
  8  9  2  0  0  0  0
  8 10  1  0  0  0  0
 10 11  1  0  0  0  0
 10 30  1  0  0  0  0
 10 31  1  0  0  0  0
 11 15  1  0  0  0  0
 11 12  1  0  0  0  0
 12 13  2  0  0  0  0
 12 32  1  0  0  0  0
 13 14  1  0  0  0  0
 14 15  2  0  0  0  0
 16 17  1  0  0  0  0
 16 33  1  0  0  0  0
 17 34  1  0  0  0  0
 17 35  1  0  0  0  0
 17 36  1  0  0  0  0
M  END
> <s_m_source_file>
AV-unprocessed.smi

> <i_m_source_file_index>
1982

> <i_lp_mmshare_version>
43012

> <i_f3d_flags>
0

> <s_epik_input>
W0NIM11bQ0BASF0xW0NIMl1bQ0gyXVtDSDJdW0NASF0oW0NASF0xW0NIM10pW05IXUMoPU8pW0NIMl1uMltjSF1ubm4y

> <s_epik_cmdline>
J2VwaWtfcHl0aG9uJywgJy1waCcsICc3LjAnLCAnLXRuJywgJzgnLCAnLW1hJywgJzIwMCcsICctbWV0YWxfYmluZGluZycsICctaW1hZScsICc8aW5maWxlLm1hZT4nLCAnLW9tYWUnLCAnPG91dGZpbGUubWFlPic=

> <r_lp_tautomer_probability>
1

> <r_epik_Ionization_Penalty>
5.03816e-07

> <r_epik_Ionization_Penalty_Charging>
0

> <r_epik_Ionization_Penalty_Neutral>
5.03816e-07

> <r_epik_State_Penalty>
-0

> <r_epik_Charging_Adjusted_Penalty>
0

> <i_epik_Tot_Q>
0

> <i_epik_Tot_abs_Q>
0

> <r_epik_Metal_State_Penalty>
-0

> <b_epik_Metal_Only>
0

> <s_lp_Force_Field>
OPLS_2005

> <r_lp_Energy>
14.9892

> <b_lp_Chiralities_Consistent>
1

> <s_lp_Variant>
AV-unprocessed.smi:1982-2

> <Gold.Version>
5.8.1

> <Gold.Id.Protein>
6NUR|6NUR_protein|mol2

> <Gold.PLP.Fitness>
46.2346

> <Gold.PLP.PLP>
-39.0833

> <Gold.PLP.part.hbond>
-4.0000

> <Gold.PLP.part.metal>
0.0000

> <Gold.PLP.part.buried>
-3.5686

> <Gold.PLP.part.nonpolar>
-30.7479

> <Gold.PLP.part.repulsive>
0.0511

> <Gold.PLP.ligand.clash>
0.0000

> <Gold.PLP.ligand.torsion>
0.6914

> <Gold.PLP.Chemscore.Hbond>
2.8400

> <Gold.PLP.Chemscore.CHOScore>
0.0000

> <Gold.PLP.Chemscore.Metal>
0.0000

> <Gold.Chemscore.Hbonds>
donor molecule, donor type, donor heavy atom, donor atom, acceptor molecule, acceptor atom, score
      P1  H  6896  6907       L1    15  0.81
      P1  H  7997  8008       L1     9  0.99
      P1  H 10752 10763       L1    13  1.00

> <Gold.PLP.Chemscore.Internal.Correction>
0.0140

> <Gold.Rescore>
     Score         DG    S(hbond)    S(metal)    S(lipo)     H(rot)  DE(clash)    DE(int)     intcor
     16.41     -18.80       2.06        0.00      96.91       1.91       0.12       2.27       ----

> <Gold.Chemscore.Fitness>
16.4134

> <Gold.Chemscore.DG>
-18.8047

> <Gold.Chemscore.ZeroCoef>
-5.4800

> <Gold.Chemscore.Hbond>
2.0553

> <Gold.Chemscore.Metal>
0.0000

> <Gold.Chemscore.Lipo>
96.9141

> <Gold.Chemscore.Internal_Hbond>
0.0000

> <Gold.Chemscore.DEClash>
0.1176

> <Gold.Chemscore.DEInternal>
2.2737

> <Gold.Chemscore.Rot>
1.9058

> <Gold.Chemscore.Internal.Correction>
   9.000000E+99

> <Gold.Chemscore.Hbonds>
donor molecule, donor type, donor heavy atom, donor atom, acceptor molecule, acceptor atom, score
      P1  H  6896  6907       L1    15  0.18
      P1  H  7997  8008       L1     9  0.94
      P1  H 10752 10763       L1    13  0.45

> <Gold.Chemscore.Hbond.Weighted>
-6.8646

> <Gold.Chemscore.Metal.Weighted>
-0.0000

> <Gold.Chemscore.Lipo.Weighted>
-11.3390

> <Gold.Chemscore.Internal_Hbond.Weighted>
0.0000

> <Gold.Chemscore.DEClash.Weighted>
0.1176

> <Gold.Chemscore.DEInternal.Weighted>
2.2737

> <Gold.Chemscore.Rot.Weighted>
4.8788

> <Gold.Chemscore.Internal.Correction.Weighted>
   9.000000E+99

> <Gold.Protein.RotatedTorsions>
[ 6907 6896 6895 6894 ] final   18.83 input  -60.11 | X-H torsion
[ 7974 7965 7964 7962 ] final   78.16 input  175.53 | X-H torsion
[ 8008 7997 7996 7995 ] final -116.58 input   59.86 | X-H torsion
[ 10167 10162 10161 10158 ] final   69.73 input  -65.29 | X-H torsion
[ 10718 10713 10712 10709 ] final -175.93 input   66.30 | X-H torsion
[ 10763 10752 10751 10750 ] final  119.26 input  -60.55 | X-H torsion
[ 11005 11000 10999 10996 ] final   26.00 input  -57.11 | X-H torsion

> <Gold.Protein.ActiveResidues>
 VAL166  LYS551  ARG553  GLY616  TRP617  ASP618  TYR619  PRO620  LYS621  CYS622 
 ASP623  PHE694  ASN695  SER759  ASP760  ASP761  ALA762  ILE779  LEU786  VAL792 
 PHE793  MET794  SER795  GLU796  ALA797  LYS798  CYS799  TRP800  GLU811  SER814 

> <Gold.Protein.RotatedAtoms>
  151.8714  135.0488  160.0479 H   0  0  0  0  0  0  0  0  0  0  0  0  # atno 6907 bound_to 6896
  152.2585  133.5272  159.5376 H   0  0  0  0  0  0  0  0  0  0  0  0  # atno 6908 bound_to 6896
  150.7108  134.0779  159.3930 H   0  0  0  0  0  0  0  0  0  0  0  0  # atno 6909 bound_to 6896
  145.6807  139.2523  143.1816 H   0  0  0  0  0  0  0  0  0  0  0  0  # atno 7974 bound_to 7965
  155.0701  140.0393  157.2606 H   0  0  0  0  0  0  0  0  0  0  0  0  # atno 8008 bound_to 7997
  154.6989  140.2669  155.6714 H   0  0  0  0  0  0  0  0  0  0  0  0  # atno 8009 bound_to 7997
  156.2754  140.2744  156.1593 H   0  0  0  0  0  0  0  0  0  0  0  0  # atno 8010 bound_to 7997
  140.0646  144.5204  150.7270 H   0  0  0  0  0  0  0  0  0  0  0  0  # atno 10167 bound_to 10162
  156.8072  130.9573  151.3117 H   0  0  0  0  0  0  0  0  0  0  0  0  # atno 10718 bound_to 10713
  153.5803  135.3485  155.2872 H   0  0  0  0  0  0  0  0  0  0  0  0  # atno 10763 bound_to 10752
  154.8669  135.4180  154.2628 H   0  0  0  0  0  0  0  0  0  0  0  0  # atno 10764 bound_to 10752
  153.3412  135.7050  153.6935 H   0  0  0  0  0  0  0  0  0  0  0  0  # atno 10765 bound_to 10752
  140.3418  134.2325  155.7689 H   0  0  0  0  0  0  0  0  0  0  0  0  # atno 11005 bound_to 11000
  146.0967  140.7593  142.9569 LP  0  0  0  0  0  0  0  0  0  0  0  0  # atno 17320 bound_to 7965
  144.7027  140.3722  143.7143 LP  0  0  0  0  0  0  0  0  0  0  0  0  # atno 17321 bound_to 7965
  140.7155  143.2541  151.4446 LP  0  0  0  0  0  0  0  0  0  0  0  0  # atno 17342 bound_to 10162
  139.5873  144.1576  152.2045 LP  0  0  0  0  0  0  0  0  0  0  0  0  # atno 17343 bound_to 10162
  157.6524  130.8896  149.9660 LP  0  0  0  0  0  0  0  0  0  0  0  0  # atno 17370 bound_to 10713
  156.1066  130.3652  150.0123 LP  0  0  0  0  0  0  0  0  0  0  0  0  # atno 17371 bound_to 10713
  141.2036  133.7907  157.0329 LP  0  0  0  0  0  0  0  0  0  0  0  0  # atno 17394 bound_to 11000
  140.0775  134.9667  157.1569 LP  0  0  0  0  0  0  0  0  0  0  0  0  # atno 17395 bound_to 11000

$$$$
