AV-unprocessed.smi:1917|AV-procd|sdf|7768|dock7
  -GOLD-   22720 9513D 1   1.00000     0.00000
 Structure written by MMmdl.
 44 45  0  0  0  0  0  0  0  0  1 V2000
  143.9309  145.3095  154.1615 C   0  0  0  0  0  0  0  0  0  0  0  0
  144.3746  144.3586  155.2770 C   0  0  0  0  0  0  0  0  0  0  0  0
  143.9153  144.5351  156.4062 O   0  0  0  0  0  0  0  0  0  0  0  0
  145.2485  143.3614  154.9950 N   0  0  0  0  0  0  0  0  0  0  0  0
  145.7352  143.1899  153.6228 C   0  0  0  0  0  0  0  0  0  0  0  0
  145.7445  142.3896  155.9825 C   0  0  0  0  0  0  0  0  0  0  0  0
  146.7172  141.3717  155.3726 C   0  0  0  0  0  0  0  0  0  0  0  0
  146.3614  140.2146  155.1465 O   0  0  0  0  0  0  0  0  0  0  0  0
  147.9532  141.8227  155.1093 N   0  0  0  0  0  0  0  0  0  0  0  0
  149.0116  141.0413  154.4761 C   0  0  0  0  0  0  0  0  0  0  0  0
  150.1942  140.7007  155.3777 C   0  0  0  0  0  0  0  0  0  0  0  0
  150.9316  139.5265  155.1328 C   0  0  0  0  0  0  0  0  0  0  0  0
  152.0180  139.2270  155.9744 C   0  0  0  0  0  0  0  0  0  0  0  0
  152.3923  140.0108  157.0064 N   0  0  0  0  0  0  0  0  0  0  0  0
  151.6947  141.1445  157.2587 C   0  0  0  0  0  0  0  0  0  0  0  0
  152.1468  141.9391  158.3360 N   0  0  0  0  0  0  0  0  0  0  0  0
  151.6557  143.3097  158.4540 C   0  0  0  0  0  0  0  0  0  0  0  0
  152.5114  144.1054  159.4537 C   0  0  0  0  0  0  0  0  0  0  0  0
  152.5572  143.4196  160.7000 O   0  0  0  0  0  0  0  0  0  0  0  0
  153.1640  142.1380  160.5734 C   0  0  0  0  0  0  0  0  0  0  0  0
  152.3384  141.2604  159.6168 C   0  0  0  0  0  0  0  0  0  0  0  0
  150.5786  141.5163  156.4673 C   0  0  0  0  0  0  0  0  0  0  0  0
  144.7892  145.7643  153.6671 H   0  0  0  0  0  0  0  0  0  0  0  0
  143.3187  146.1156  154.5671 H   0  0  0  0  0  0  0  0  0  0  0  0
  143.3339  144.7801  153.4187 H   0  0  0  0  0  0  0  0  0  0  0  0
  146.3162  144.0585  153.3095 H   0  0  0  0  0  0  0  0  0  0  0  0
  144.9017  143.0662  152.9294 H   0  0  0  0  0  0  0  0  0  0  0  0
  146.3725  142.3111  153.5185 H   0  0  0  0  0  0  0  0  0  0  0  0
  146.2469  142.9288  156.7873 H   0  0  0  0  0  0  0  0  0  0  0  0
  144.9342  141.8511  156.4733 H   0  0  0  0  0  0  0  0  0  0  0  0
  148.1669  142.7840  155.3320 H   0  0  0  0  0  0  0  0  0  0  0  0
  148.5747  140.1076  154.1215 H   0  0  0  0  0  0  0  0  0  0  0  0
  149.3731  141.5678  153.5910 H   0  0  0  0  0  0  0  0  0  0  0  0
  150.6735  138.8678  154.3165 H   0  0  0  0  0  0  0  0  0  0  0  0
  152.6045  138.3346  155.8135 H   0  0  0  0  0  0  0  0  0  0  0  0
  151.6915  143.8094  157.4855 H   0  0  0  0  0  0  0  0  0  0  0  0
  150.6152  143.2935  158.7807 H   0  0  0  0  0  0  0  0  0  0  0  0
  153.5219  144.2531  159.0691 H   0  0  0  0  0  0  0  0  0  0  0  0
  152.0828  145.0959  159.6076 H   0  0  0  0  0  0  0  0  0  0  0  0
  154.1898  142.2430  160.2159 H   0  0  0  0  0  0  0  0  0  0  0  0
  153.2170  141.6715  161.5571 H   0  0  0  0  0  0  0  0  0  0  0  0
  151.3605  141.0507  160.0519 H   0  0  0  0  0  0  0  0  0  0  0  0
  152.8448  140.3030  159.4940 H   0  0  0  0  0  0  0  0  0  0  0  0
  150.0178  142.4113  156.6858 H   0  0  0  0  0  0  0  0  0  0  0  0
  1  2  1  0  0  0  0
  1 23  1  0  0  0  0
  1 24  1  0  0  0  0
  1 25  1  0  0  0  0
  2  3  2  0  0  0  0
  2  4  1  0  0  0  0
  4  5  1  0  0  0  0
  4  6  1  0  0  0  0
  5 26  1  0  0  0  0
  5 27  1  0  0  0  0
  5 28  1  0  0  0  0
  6  7  1  0  0  0  0
  6 29  1  0  0  0  0
  6 30  1  0  0  0  0
  7  8  2  0  0  0  0
  7  9  1  0  0  0  0
  9 10  1  0  0  0  0
  9 31  1  0  0  0  0
 10 11  1  0  0  0  0
 10 32  1  0  0  0  0
 10 33  1  0  0  0  0
 11 22  1  0  0  0  0
 11 12  2  0  0  0  0
 12 13  1  0  0  0  0
 12 34  1  0  0  0  0
 13 14  2  0  0  0  0
 13 35  1  0  0  0  0
 14 15  1  0  0  0  0
 15 16  1  0  0  0  0
 15 22  2  0  0  0  0
 16 21  1  0  0  0  0
 16 17  1  0  0  0  0
 17 18  1  0  0  0  0
 17 36  1  0  0  0  0
 17 37  1  0  0  0  0
 18 19  1  0  0  0  0
 18 38  1  0  0  0  0
 18 39  1  0  0  0  0
 19 20  1  0  0  0  0
 20 21  1  0  0  0  0
 20 40  1  0  0  0  0
 20 41  1  0  0  0  0
 21 42  1  0  0  0  0
 21 43  1  0  0  0  0
 22 44  1  0  0  0  0
M  END
> <s_m_source_file>
AV-unprocessed.smi

> <i_m_source_file_index>
1917

> <i_lp_mmshare_version>
43012

> <i_f3d_flags>
0

> <s_epik_input>
W0NIM11DKD1PKU4oW0NIM10pW0NIMl1DKD1PKVtOSF1bQ0gyXWMxW2NIXVtjSF1uYyhbY0hdMSlOMltDSDJdW0NIMl1PW0NIMl1bQ0gyXTI=

> <s_epik_cmdline>
J2VwaWtfcHl0aG9uJywgJy1waCcsICc3LjAnLCAnLXRuJywgJzgnLCAnLW1hJywgJzIwMCcsICctbWV0YWxfYmluZGluZycsICctaW1hZScsICc8aW5maWxlLm1hZT4nLCAnLW9tYWUnLCAnPG91dGZpbGUubWFlPic=

> <r_lp_tautomer_probability>
1

> <r_epik_Ionization_Penalty>
0.00469141

> <r_epik_Ionization_Penalty_Charging>
0

> <r_epik_Ionization_Penalty_Neutral>
0.00469141

> <r_epik_State_Penalty>
0.00339539

> <r_epik_Charging_Adjusted_Penalty>
0.00339539

> <i_epik_Tot_Q>
0

> <i_epik_Tot_abs_Q>
0

> <r_epik_Metal_State_Penalty>
-0

> <b_epik_Metal_Only>
0

> <s_lp_Force_Field>
OPLS_2005

> <r_lp_Energy>
17.0747

> <b_lp_Chiralities_Consistent>
1

> <s_lp_Variant>
AV-unprocessed.smi:1917-1

> <Gold.Version>
5.8.1

> <Gold.Id.Protein>
6NUR|6NUR_protein|mol2

> <Gold.PLP.Fitness>
48.4935

> <Gold.PLP.PLP>
-45.2203

> <Gold.PLP.part.hbond>
-2.0000

> <Gold.PLP.part.metal>
0.0000

> <Gold.PLP.part.buried>
-5.5013

> <Gold.PLP.part.nonpolar>
-37.5826

> <Gold.PLP.part.repulsive>
0.2910

> <Gold.PLP.ligand.clash>
1.5345

> <Gold.PLP.ligand.torsion>
0.8411

> <Gold.PLP.Chemscore.Hbond>
1.9913

> <Gold.PLP.Chemscore.CHOScore>
0.0000

> <Gold.PLP.Chemscore.Metal>
0.0000

> <Gold.Chemscore.Hbonds>
donor molecule, donor type, donor heavy atom, donor atom, acceptor molecule, acceptor atom, score
      L1  H     9    31       P1  8028  0.89
      P1  H  7997  8008       L1    14  0.90

> <Gold.PLP.Chemscore.Internal.Correction>
0.5161

> <Gold.Rescore>
     Score         DG    S(hbond)    S(metal)    S(lipo)     H(rot)  DE(clash)    DE(int)     intcor
     15.89     -16.98       1.63        0.00      95.49       2.00       0.13       0.96       ----

> <Gold.Chemscore.Fitness>
15.8872

> <Gold.Chemscore.DG>
-16.9757

> <Gold.Chemscore.ZeroCoef>
-5.4800

> <Gold.Chemscore.Hbond>
1.6262

> <Gold.Chemscore.Metal>
0.0000

> <Gold.Chemscore.Lipo>
95.4940

> <Gold.Chemscore.Internal_Hbond>
0.0000

> <Gold.Chemscore.DEClash>
0.1261

> <Gold.Chemscore.DEInternal>
0.9624

> <Gold.Chemscore.Rot>
1.9956

> <Gold.Chemscore.Internal.Correction>
   9.000000E+99

> <Gold.Chemscore.Hbonds>
donor molecule, donor type, donor heavy atom, donor atom, acceptor molecule, acceptor atom, score
      L1  H     9    31       P1  8028  0.84
      P1  H  7997  8008       L1    14  0.17

> <Gold.Chemscore.Hbond.Weighted>
-5.4316

> <Gold.Chemscore.Metal.Weighted>
-0.0000

> <Gold.Chemscore.Lipo.Weighted>
-11.1728

> <Gold.Chemscore.Internal_Hbond.Weighted>
0.0000

> <Gold.Chemscore.DEClash.Weighted>
0.1261

> <Gold.Chemscore.DEInternal.Weighted>
0.9624

> <Gold.Chemscore.Rot.Weighted>
5.1087

> <Gold.Chemscore.Internal.Correction.Weighted>
   9.000000E+99

> <Gold.Protein.RotatedTorsions>
[ 6907 6896 6895 6894 ] final   77.32 input  -60.11 | X-H torsion
[ 7974 7965 7964 7962 ] final  154.97 input  175.53 | X-H torsion
[ 8008 7997 7996 7995 ] final  -57.83 input   59.86 | X-H torsion
[ 10167 10162 10161 10158 ] final  -30.79 input  -65.29 | X-H torsion
[ 10718 10713 10712 10709 ] final   72.96 input   66.30 | X-H torsion
[ 10763 10752 10751 10750 ] final  134.39 input  -60.55 | X-H torsion
[ 11005 11000 10999 10996 ] final   31.90 input  -57.11 | X-H torsion

> <Gold.Protein.ActiveResidues>
 VAL166  LYS551  ARG553  GLY616  TRP617  ASP618  TYR619  PRO620  LYS621  CYS622 
 ASP623  PHE694  ASN695  SER759  ASP760  ASP761  ALA762  ILE779  LEU786  VAL792 
 PHE793  MET794  SER795  GLU796  ALA797  LYS798  CYS799  TRP800  GLU811  SER814 

> <Gold.Protein.RotatedAtoms>
  152.5112  134.3834  159.9358 H   0  0  0  0  0  0  0  0  0  0  0  0  # atno 6907 bound_to 6896
  151.3792  133.3821  159.2716 H   0  0  0  0  0  0  0  0  0  0  0  0  # atno 6908 bound_to 6896
  150.9518  134.8937  159.7735 H   0  0  0  0  0  0  0  0  0  0  0  0  # atno 6909 bound_to 6896
  144.8054  139.7005  143.6164 H   0  0  0  0  0  0  0  0  0  0  0  0  # atno 7974 bound_to 7965
  154.4284  140.1098  156.5859 H   0  0  0  0  0  0  0  0  0  0  0  0  # atno 8008 bound_to 7997
  155.6063  140.3494  155.4590 H   0  0  0  0  0  0  0  0  0  0  0  0  # atno 8009 bound_to 7997
  156.0134  140.1224  157.0420 H   0  0  0  0  0  0  0  0  0  0  0  0  # atno 8010 bound_to 7997
  140.7245  143.3821  151.1582 H   0  0  0  0  0  0  0  0  0  0  0  0  # atno 10167 bound_to 10162
  157.6526  130.9605  150.1002 H   0  0  0  0  0  0  0  0  0  0  0  0  # atno 10718 bound_to 10713
  153.8227  135.3114  155.3412 H   0  0  0  0  0  0  0  0  0  0  0  0  # atno 10763 bound_to 10752
  154.8006  135.4729  154.0269 H   0  0  0  0  0  0  0  0  0  0  0  0  # atno 10764 bound_to 10752
  153.1683  135.6873  153.8733 H   0  0  0  0  0  0  0  0  0  0  0  0  # atno 10765 bound_to 10752
  140.2791  134.2994  155.7806 H   0  0  0  0  0  0  0  0  0  0  0  0  # atno 11005 bound_to 11000
  146.2345  139.5877  142.9533 LP  0  0  0  0  0  0  0  0  0  0  0  0  # atno 17320 bound_to 7965
  145.5450  141.0418  143.2309 LP  0  0  0  0  0  0  0  0  0  0  0  0  # atno 17321 bound_to 7965
  139.7412  143.8922  152.3050 LP  0  0  0  0  0  0  0  0  0  0  0  0  # atno 17342 bound_to 10162
  139.8744  144.7051  150.8950 LP  0  0  0  0  0  0  0  0  0  0  0  0  # atno 17343 bound_to 10162
  156.1927  130.3655  149.8889 LP  0  0  0  0  0  0  0  0  0  0  0  0  # atno 17370 bound_to 10713
  156.6813  130.8859  151.3576 LP  0  0  0  0  0  0  0  0  0  0  0  0  # atno 17371 bound_to 10713
  141.2165  133.7514  156.9452 LP  0  0  0  0  0  0  0  0  0  0  0  0  # atno 17394 bound_to 11000
  140.1301  134.9361  157.2324 LP  0  0  0  0  0  0  0  0  0  0  0  0  # atno 17395 bound_to 11000

$$$$
