AV-unprocessed.smi:322|AV-procd|sdf|2338|dock3
  -GOLD-   2262022253D 1   1.00000     0.00000
 Structure written by MMmdl.
 44 46  0  0  0  0  0  0  0  0  2 V2000
  149.4944  141.4348  154.0987 O   0  0  0  0  0  0  0  0  0  0  0  0
  150.0182  140.6162  155.1234 C   0  0  0  0  0  0  0  0  0  0  0  0
  150.6670  141.3923  156.2250 C   0  0  0  0  0  0  0  0  0  0  0  0
  150.5963  142.7411  156.4152 N   0  3  0  0  0  0  0  0  0  0  0  0
  151.3211  143.0987  157.5522 C   0  0  0  0  0  0  0  0  0  0  0  0
  151.5388  144.3408  158.1402 C   0  0  0  0  0  0  0  0  0  0  0  0
  152.3351  144.3589  159.3041 C   0  0  0  0  0  0  0  0  0  0  0  0
  152.8803  143.1736  159.8391 C   0  0  0  0  0  0  0  0  0  0  0  0
  152.6516  141.9200  159.2342 C   0  0  0  0  0  0  0  0  0  0  0  0
  151.8621  141.9103  158.0841 C   0  0  0  0  0  0  0  0  0  0  0  0
  151.4324  140.8842  157.2332 N   0  0  0  0  0  0  0  0  0  0  0  0
  151.8234  139.4937  157.5148 C   0  0  0  0  0  0  0  0  0  0  0  0
  150.6385  138.6172  157.9707 C   0  0  1  0  0  0  0  0  0  0  0  0
  150.0215  137.9552  156.8852 O   0  0  0  0  0  0  0  0  0  0  0  0
  151.0209  137.5849  159.0428 C   0  0  0  0  0  0  0  0  0  0  0  0
  149.9973  136.6055  159.1610 O   0  0  0  0  0  0  0  0  0  0  0  0
  148.7264  137.1406  159.5015 C   0  0  0  0  0  0  0  0  0  0  0  0
  147.8736  136.1777  160.3093 C   0  0  0  0  0  0  0  0  0  0  0  0
  147.5063  136.4981  161.6335 C   0  0  0  0  0  0  0  0  0  0  0  0
  146.7202  135.6043  162.3863 C   0  0  0  0  0  0  0  0  0  0  0  0
  146.3041  134.3834  161.8199 C   0  0  0  0  0  0  0  0  0  0  0  0
  145.3393  133.2887  162.7403 Cl  0  0  0  0  0  0  0  0  0  0  0  0
  146.6775  134.0561  160.5018 C   0  0  0  0  0  0  0  0  0  0  0  0
  147.4632  134.9501  159.7486 C   0  0  0  0  0  0  0  0  0  0  0  0
  148.5712  141.2515  154.0094 H   0  0  0  0  0  0  0  0  0  0  0  0
  149.2132  140.0115  155.5411 H   0  0  0  0  0  0  0  0  0  0  0  0
  150.7458  139.9316  154.6872 H   0  0  0  0  0  0  0  0  0  0  0  0
  151.1228  145.2501  157.7314 H   0  0  0  0  0  0  0  0  0  0  0  0
  152.5324  145.3006  159.7958 H   0  0  0  0  0  0  0  0  0  0  0  0
  153.4871  143.2263  160.7315 H   0  0  0  0  0  0  0  0  0  0  0  0
  153.0788  141.0196  159.6508 H   0  0  0  0  0  0  0  0  0  0  0  0
  152.3141  139.0785  156.6345 H   0  0  0  0  0  0  0  0  0  0  0  0
  152.5840  139.5212  158.2961 H   0  0  0  0  0  0  0  0  0  0  0  0
  149.8728  139.2663  158.3969 H   0  0  0  0  0  0  0  0  0  0  0  0
  150.3150  137.0573  156.8765 H   0  0  0  0  0  0  0  0  0  0  0  0
  151.9541  137.1047  158.7458 H   0  0  0  0  0  0  0  0  0  0  0  0
  151.2038  138.0697  160.0030 H   0  0  0  0  0  0  0  0  0  0  0  0
  148.8422  138.0917  160.0238 H   0  0  0  0  0  0  0  0  0  0  0  0
  148.1952  137.3586  158.5750 H   0  0  0  0  0  0  0  0  0  0  0  0
  147.8236  137.4324  162.0736 H   0  0  0  0  0  0  0  0  0  0  0  0
  146.4376  135.8566  163.3978 H   0  0  0  0  0  0  0  0  0  0  0  0
  146.3623  133.1192  160.0669 H   0  0  0  0  0  0  0  0  0  0  0  0
  147.7460  134.6909  158.7389 H   0  0  0  0  0  0  0  0  0  0  0  0
  150.0863  143.3666  155.8047 H   0  0  0  0  0  0  0  0  0  0  0  0
  1  2  1  0  0  0  0
  1 25  1  0  0  0  0
  2  3  1  0  0  0  0
  2 26  1  0  0  0  0
  2 27  1  0  0  0  0
  3 11  1  0  0  0  0
  3  4  2  0  0  0  0
  4  5  1  0  0  0  0
  4 44  1  0  0  0  0
  5 10  2  0  0  0  0
  5  6  1  0  0  0  0
  6  7  2  0  0  0  0
  6 28  1  0  0  0  0
  7  8  1  0  0  0  0
  7 29  1  0  0  0  0
  8  9  2  0  0  0  0
  8 30  1  0  0  0  0
  9 10  1  0  0  0  0
  9 31  1  0  0  0  0
 10 11  1  0  0  0  0
 11 12  1  0  0  0  0
 12 13  1  0  0  0  0
 12 32  1  0  0  0  0
 12 33  1  0  0  0  0
 13 14  1  0  0  0  0
 13 15  1  0  0  0  0
 13 34  1  0  0  0  0
 14 35  1  0  0  0  0
 15 16  1  0  0  0  0
 15 36  1  0  0  0  0
 15 37  1  0  0  0  0
 16 17  1  0  0  0  0
 17 18  1  0  0  0  0
 17 38  1  0  0  0  0
 17 39  1  0  0  0  0
 18 24  1  0  0  0  0
 18 19  2  0  0  0  0
 19 20  1  0  0  0  0
 19 40  1  0  0  0  0
 20 21  2  0  0  0  0
 20 41  1  0  0  0  0
 21 22  1  0  0  0  0
 21 23  1  0  0  0  0
 23 24  2  0  0  0  0
 23 42  1  0  0  0  0
 24 43  1  0  0  0  0
M  CHG  1   4   1
M  END
> <s_m_source_file>
AV-unprocessed.smi

> <i_m_source_file_index>
322

> <i_lp_mmshare_version>
43012

> <i_f3d_flags>
0

> <s_epik_input>
W2NIXTFbY0hdW2NIXVtjSF1jKGMxMiluKGMobjIpW0NIMl1bT0hdKVtDSDJdW0NASF0oW09IXSlbQ0gyXU9bQ0gyXWMzW2NIXVtjSF1jKENsKVtjSF1bY0hdMw==

> <s_epik_cmdline>
J2VwaWtfcHl0aG9uJywgJy1waCcsICc3LjAnLCAnLXRuJywgJzgnLCAnLW1hJywgJzIwMCcsICctbWV0YWxfYmluZGluZycsICctaW1hZScsICc8aW5maWxlLm1hZT4nLCAnLW9tYWUnLCAnPG91dGZpbGUubWFlPic=

> <r_epik_Ionization_Penalty>
1.34314

> <r_epik_Ionization_Penalty_Charging>
1.34228

> <r_epik_Ionization_Penalty_Neutral>
0.000856898

> <r_epik_State_Penalty>
1.41963

> <r_epik_Charging_Adjusted_Penalty>
2.76191

> <i_epik_Tot_Q>
1

> <i_epik_Tot_abs_Q>
1

> <r_epik_Metal_State_Penalty>
5.45585

> <b_epik_Metal_Only>
0

> <s_lp_Force_Field>
OPLS_2005

> <r_lp_Energy>
18.1593

> <b_lp_Chiralities_Consistent>
1

> <s_lp_Variant>
AV-unprocessed.smi:322-4

> <Gold.Version>
5.8.1

> <Gold.Id.Protein>
6NUR|6NUR_protein|mol2

> <Gold.PLP.Fitness>
62.3407

> <Gold.PLP.PLP>
-53.5567

> <Gold.PLP.part.hbond>
-4.4822

> <Gold.PLP.part.metal>
0.0000

> <Gold.PLP.part.buried>
-3.9236

> <Gold.PLP.part.nonpolar>
-45.4530

> <Gold.PLP.part.repulsive>
0.0902

> <Gold.PLP.ligand.clash>
0.0000

> <Gold.PLP.ligand.torsion>
1.0123

> <Gold.PLP.Chemscore.Hbond>
3.5440

> <Gold.PLP.Chemscore.CHOScore>
0.0000

> <Gold.PLP.Chemscore.Metal>
0.0000

> <Gold.Chemscore.Hbonds>
donor molecule, donor type, donor heavy atom, donor atom, acceptor molecule, acceptor atom, score
      L1  H     4    44       P1  8028  1.92
      P1  H  6896  6908       L1    16  1.00
      P1  H  8011  8017       L1     1  0.62

> <Gold.PLP.Chemscore.Internal.Correction>
0.1767

> <Gold.Rescore>
     Score         DG    S(hbond)    S(metal)    S(lipo)     H(rot)  DE(clash)    DE(int)     intcor
     19.59     -20.77       2.23        0.00     137.95       3.24       0.24       0.93       ----

> <Gold.Chemscore.Fitness>
19.5945

> <Gold.Chemscore.DG>
-20.7706

> <Gold.Chemscore.ZeroCoef>
-5.4800

> <Gold.Chemscore.Hbond>
2.2275

> <Gold.Chemscore.Metal>
0.0000

> <Gold.Chemscore.Lipo>
137.9542

> <Gold.Chemscore.Internal_Hbond>
0.0000

> <Gold.Chemscore.DEClash>
0.2430

> <Gold.Chemscore.DEInternal>
0.9330

> <Gold.Chemscore.Rot>
3.2383

> <Gold.Chemscore.Internal.Correction>
   9.000000E+99

> <Gold.Chemscore.Hbonds>
donor molecule, donor type, donor heavy atom, donor atom, acceptor molecule, acceptor atom, score
      L1  H     4    44       P1  8028  0.92
      P1  H  6896  6908       L1    16  0.66
      P1  H  8011  8017       L1     1  0.14

> <Gold.Chemscore.Hbond.Weighted>
-7.4400

> <Gold.Chemscore.Metal.Weighted>
-0.0000

> <Gold.Chemscore.Lipo.Weighted>
-16.1406

> <Gold.Chemscore.Internal_Hbond.Weighted>
0.0000

> <Gold.Chemscore.DEClash.Weighted>
0.2430

> <Gold.Chemscore.DEInternal.Weighted>
0.9330

> <Gold.Chemscore.Rot.Weighted>
8.2901

> <Gold.Chemscore.Internal.Correction.Weighted>
   9.000000E+99

> <Gold.Protein.RotatedTorsions>
[ 6907 6896 6895 6894 ] final -172.50 input  -60.11 | X-H torsion
[ 7974 7965 7964 7962 ] final  -25.06 input  175.53 | X-H torsion
[ 8008 7997 7996 7995 ] final  -89.39 input   59.86 | X-H torsion
[ 10167 10162 10161 10158 ] final  157.11 input  -65.29 | X-H torsion
[ 10718 10713 10712 10709 ] final   29.11 input   66.30 | X-H torsion
[ 10763 10752 10751 10750 ] final  -82.81 input  -60.55 | X-H torsion
[ 11005 11000 10999 10996 ] final  122.02 input  -57.11 | X-H torsion

> <Gold.Protein.ActiveResidues>
 VAL166  LYS551  ARG553  GLY616  TRP617  ASP618  TYR619  PRO620  LYS621  CYS622 
 ASP623  PHE694  ASN695  SER759  ASP760  ASP761  ALA762  ILE779  LEU786  VAL792 
 PHE793  MET794  SER795  GLU796  ALA797  LYS798  CYS799  TRP800  GLU811  SER814 

> <Gold.Protein.RotatedAtoms>
  151.5410  133.3433  159.2935 H   0  0  0  0  0  0  0  0  0  0  0  0  # atno 6907 bound_to 6896
  150.8535  134.7870  159.7039 H   0  0  0  0  0  0  0  0  0  0  0  0  # atno 6908 bound_to 6896
  152.4575  134.5267  159.9850 H   0  0  0  0  0  0  0  0  0  0  0  0  # atno 6909 bound_to 6896
  146.1515  140.4835  142.8609 H   0  0  0  0  0  0  0  0  0  0  0  0  # atno 7974 bound_to 7965
  154.6860  140.0542  157.0315 H   0  0  0  0  0  0  0  0  0  0  0  0  # atno 8008 bound_to 7997
  155.0883  140.3216  155.4562 H   0  0  0  0  0  0  0  0  0  0  0  0  # atno 8009 bound_to 7997
  156.2711  140.2052  156.6011 H   0  0  0  0  0  0  0  0  0  0  0  0  # atno 8010 bound_to 7997
  139.4822  144.4947  151.8257 H   0  0  0  0  0  0  0  0  0  0  0  0  # atno 10167 bound_to 10162
  157.2422  130.7075  149.6364 H   0  0  0  0  0  0  0  0  0  0  0  0  # atno 10718 bound_to 10713
  154.5803  135.5578  153.7178 H   0  0  0  0  0  0  0  0  0  0  0  0  # atno 10763 bound_to 10752
  153.0079  135.6318  154.1992 H   0  0  0  0  0  0  0  0  0  0  0  0  # atno 10764 bound_to 10752
  154.1933  135.2881  155.2995 H   0  0  0  0  0  0  0  0  0  0  0  0  # atno 10765 bound_to 10752
  139.9250  134.9640  156.8046 H   0  0  0  0  0  0  0  0  0  0  0  0  # atno 11005 bound_to 11000
  144.7910  140.6032  143.6541 LP  0  0  0  0  0  0  0  0  0  0  0  0  # atno 17320 bound_to 7965
  145.4811  139.1495  143.3761 LP  0  0  0  0  0  0  0  0  0  0  0  0  # atno 17321 bound_to 7965
  140.4434  144.1955  150.5892 LP  0  0  0  0  0  0  0  0  0  0  0  0  # atno 17342 bound_to 10162
  140.4659  143.2431  151.9156 LP  0  0  0  0  0  0  0  0  0  0  0  0  # atno 17343 bound_to 10162
  155.9669  130.4454  150.5501 LP  0  0  0  0  0  0  0  0  0  0  0  0  # atno 17370 bound_to 10713
  157.3366  131.0709  151.1820 LP  0  0  0  0  0  0  0  0  0  0  0  0  # atno 17371 bound_to 10713
  140.6362  133.9860  155.7685 LP  0  0  0  0  0  0  0  0  0  0  0  0  # atno 17394 bound_to 11000
  141.0801  134.0075  157.3398 LP  0  0  0  0  0  0  0  0  0  0  0  0  # atno 17395 bound_to 11000

$$$$
