AV-unprocessed.smi:1918|AV-procd|sdf|7769|dock10
  -GOLD-   22720 9513D 1   1.00000     0.00000
 Structure written by MMmdl.
 35 37  0  0  0  0  0  0  0  0  1 V2000
  151.3847  139.4344  156.2729 C   0  0  0  0  0  0  0  0  0  0  0  0
  151.5539  140.6712  157.0968 C   0  0  0  0  0  0  0  0  0  0  0  0
  151.2069  141.8774  156.6466 N   0  0  0  0  0  0  0  0  0  0  0  0
  151.5302  142.7014  157.7074 C   0  0  0  0  0  0  0  0  0  0  0  0
  151.4032  144.1012  157.8563 C   0  0  0  0  0  0  0  0  0  0  0  0
  151.8087  144.7317  159.0511 C   0  0  0  0  0  0  0  0  0  0  0  0
  152.3453  143.9737  160.1122 C   0  0  0  0  0  0  0  0  0  0  0  0
  152.4794  142.5778  159.9851 C   0  0  0  0  0  0  0  0  0  0  0  0
  152.0734  141.9537  158.7904 C   0  0  0  0  0  0  0  0  0  0  0  0
  152.0703  140.6343  158.3501 N   0  0  0  0  0  0  0  0  0  0  0  0
  152.5304  139.4777  159.1063 C   0  0  0  0  0  0  0  0  0  0  0  0
  153.7321  139.8031  160.0151 C   0  0  2  0  0  0  0  0  0  0  0  0
  154.8899  140.0119  159.2282 O   0  0  0  0  0  0  0  0  0  0  0  0
  153.9308  138.7227  161.0698 C   0  0  0  0  0  0  0  0  0  0  0  0
  153.3945  137.4291  160.8791 C   0  0  0  0  0  0  0  0  0  0  0  0
  153.5705  136.4333  161.8590 C   0  0  0  0  0  0  0  0  0  0  0  0
  154.2800  136.7244  163.0393 C   0  0  0  0  0  0  0  0  0  0  0  0
  154.4490  135.7672  163.9819 F   0  0  0  0  0  0  0  0  0  0  0  0
  154.8105  138.0128  163.2399 C   0  0  0  0  0  0  0  0  0  0  0  0
  154.6355  139.0106  162.2611 C   0  0  0  0  0  0  0  0  0  0  0  0
  155.1452  140.2475  162.4755 F   0  0  0  0  0  0  0  0  0  0  0  0
  151.0335  139.6862  155.2717 H   0  0  0  0  0  0  0  0  0  0  0  0
  150.6546  138.7704  156.7359 H   0  0  0  0  0  0  0  0  0  0  0  0
  152.3341  138.9070  156.1795 H   0  0  0  0  0  0  0  0  0  0  0  0
  150.9931  144.6905  157.0495 H   0  0  0  0  0  0  0  0  0  0  0  0
  151.7080  145.8024  159.1537 H   0  0  0  0  0  0  0  0  0  0  0  0
  152.6545  144.4644  161.0235 H   0  0  0  0  0  0  0  0  0  0  0  0
  152.8905  141.9935  160.7950 H   0  0  0  0  0  0  0  0  0  0  0  0
  151.6950  139.1232  159.7113 H   0  0  0  0  0  0  0  0  0  0  0  0
  152.7741  138.6645  158.4227 H   0  0  0  0  0  0  0  0  0  0  0  0
  153.5416  140.7486  160.5236 H   0  0  0  0  0  0  0  0  0  0  0  0
  155.6497  139.8184  159.7557 H   0  0  0  0  0  0  0  0  0  0  0  0
  152.8421  137.1953  159.9807 H   0  0  0  0  0  0  0  0  0  0  0  0
  153.1593  135.4463  161.7060 H   0  0  0  0  0  0  0  0  0  0  0  0
  155.3511  138.2375  164.1475 H   0  0  0  0  0  0  0  0  0  0  0  0
  1  2  1  0  0  0  0
  1 22  1  0  0  0  0
  1 23  1  0  0  0  0
  1 24  1  0  0  0  0
  2 10  1  0  0  0  0
  2  3  2  0  0  0  0
  3  4  1  0  0  0  0
  4  9  2  0  0  0  0
  4  5  1  0  0  0  0
  5  6  2  0  0  0  0
  5 25  1  0  0  0  0
  6  7  1  0  0  0  0
  6 26  1  0  0  0  0
  7  8  2  0  0  0  0
  7 27  1  0  0  0  0
  8  9  1  0  0  0  0
  8 28  1  0  0  0  0
  9 10  1  0  0  0  0
 10 11  1  0  0  0  0
 11 12  1  0  0  0  0
 11 29  1  0  0  0  0
 11 30  1  0  0  0  0
 12 13  1  0  0  0  0
 12 14  1  0  0  0  0
 12 31  1  0  0  0  0
 13 32  1  0  0  0  0
 14 20  1  0  0  0  0
 14 15  2  0  0  0  0
 15 16  1  0  0  0  0
 15 33  1  0  0  0  0
 16 17  2  0  0  0  0
 16 34  1  0  0  0  0
 17 18  1  0  0  0  0
 17 19  1  0  0  0  0
 19 20  2  0  0  0  0
 19 35  1  0  0  0  0
 20 21  1  0  0  0  0
M  END
> <s_m_source_file>
AV-unprocessed.smi

> <i_m_source_file_index>
1918

> <i_lp_mmshare_version>
43012

> <i_f3d_flags>
0

> <s_epik_input>
W2NIXTFbY0hdW2NIXVtjSF1jKGMxMiluKGMobjIpW0NIM10pW0NIMl1bQ0BIXShbT0hdKWMzW2NIXVtjSF1jKEYpW2NIXWMzRg==

> <s_epik_cmdline>
J2VwaWtfcHl0aG9uJywgJy1waCcsICc3LjAnLCAnLXRuJywgJzgnLCAnLW1hJywgJzIwMCcsICctbWV0YWxfYmluZGluZycsICctaW1hZScsICc8aW5maWxlLm1hZT4nLCAnLW9tYWUnLCAnPG91dGZpbGUubWFlPic=

> <r_epik_Ionization_Penalty>
0.129663

> <r_epik_Ionization_Penalty_Charging>
0

> <r_epik_Ionization_Penalty_Neutral>
0.129663

> <r_epik_State_Penalty>
0.119073

> <r_epik_Charging_Adjusted_Penalty>
0.119073

> <i_epik_Tot_Q>
0

> <i_epik_Tot_abs_Q>
0

> <r_epik_Metal_State_Penalty>
0.000131867

> <b_epik_Metal_Only>
0

> <s_lp_Force_Field>
OPLS_2005

> <r_lp_Energy>
11.5863

> <b_lp_Chiralities_Consistent>
1

> <s_lp_Variant>
AV-unprocessed.smi:1918-1

> <Gold.Version>
5.8.1

> <Gold.Id.Protein>
6NUR|6NUR_protein|mol2

> <Gold.PLP.Fitness>
46.4475

> <Gold.PLP.PLP>
-45.4140

> <Gold.PLP.part.hbond>
-1.0000

> <Gold.PLP.part.metal>
0.0000

> <Gold.PLP.part.buried>
-2.4452

> <Gold.PLP.part.nonpolar>
-41.7791

> <Gold.PLP.part.repulsive>
0.0605

> <Gold.PLP.ligand.clash>
0.0000

> <Gold.PLP.ligand.torsion>
0.9961

> <Gold.PLP.Chemscore.Hbond>
1.0000

> <Gold.PLP.Chemscore.CHOScore>
0.0000

> <Gold.PLP.Chemscore.Metal>
0.0000

> <Gold.Chemscore.Hbonds>
donor molecule, donor type, donor heavy atom, donor atom, acceptor molecule, acceptor atom, score
      P1  H  7997  8008       L1    13  0.98

> <Gold.PLP.Chemscore.Internal.Correction>
0.0256

> <Gold.Rescore>
     Score         DG    S(hbond)    S(metal)    S(lipo)     H(rot)  DE(clash)    DE(int)     intcor
     17.22     -17.97       0.88        0.00     122.79       1.88       0.11       0.64       ----

> <Gold.Chemscore.Fitness>
17.2192

> <Gold.Chemscore.DG>
-17.9693

> <Gold.Chemscore.ZeroCoef>
-5.4800

> <Gold.Chemscore.Hbond>
0.8818

> <Gold.Chemscore.Metal>
0.0000

> <Gold.Chemscore.Lipo>
122.7932

> <Gold.Chemscore.Internal_Hbond>
0.0000

> <Gold.Chemscore.DEClash>
0.1101

> <Gold.Chemscore.DEInternal>
0.6401

> <Gold.Chemscore.Rot>
1.8839

> <Gold.Chemscore.Internal.Correction>
   9.000000E+99

> <Gold.Chemscore.Hbonds>
donor molecule, donor type, donor heavy atom, donor atom, acceptor molecule, acceptor atom, score
      P1  H  7997  8008       L1    13  0.73

> <Gold.Chemscore.Hbond.Weighted>
-2.9452

> <Gold.Chemscore.Metal.Weighted>
-0.0000

> <Gold.Chemscore.Lipo.Weighted>
-14.3668

> <Gold.Chemscore.Internal_Hbond.Weighted>
0.0000

> <Gold.Chemscore.DEClash.Weighted>
0.1101

> <Gold.Chemscore.DEInternal.Weighted>
0.6401

> <Gold.Chemscore.Rot.Weighted>
4.8227

> <Gold.Chemscore.Internal.Correction.Weighted>
   9.000000E+99

> <Gold.Protein.RotatedTorsions>
[ 6907 6896 6895 6894 ] final   74.62 input  -60.11 | X-H torsion
[ 7974 7965 7964 7962 ] final -174.31 input  175.53 | X-H torsion
[ 8008 7997 7996 7995 ] final -134.73 input   59.86 | X-H torsion
[ 10167 10162 10161 10158 ] final   48.38 input  -65.29 | X-H torsion
[ 10718 10713 10712 10709 ] final  170.98 input   66.30 | X-H torsion
[ 10763 10752 10751 10750 ] final  150.46 input  -60.55 | X-H torsion
[ 11005 11000 10999 10996 ] final -134.59 input  -57.11 | X-H torsion

> <Gold.Protein.ActiveResidues>
 VAL166  LYS551  ARG553  GLY616  TRP617  ASP618  TYR619  PRO620  LYS621  CYS622 
 ASP623  PHE694  ASN695  SER759  ASP760  ASP761  ALA762  ILE779  LEU786  VAL792 
 PHE793  MET794  SER795  GLU796  ALA797  LYS798  CYS799  TRP800  GLU811  SER814 

> <Gold.Protein.RotatedAtoms>
  152.4985  134.4243  159.9490 H   0  0  0  0  0  0  0  0  0  0  0  0  # atno 6907 bound_to 6896
  151.4218  133.3690  159.2765 H   0  0  0  0  0  0  0  0  0  0  0  0  # atno 6908 bound_to 6896
  150.9217  134.8657  159.7553 H   0  0  0  0  0  0  0  0  0  0  0  0  # atno 6909 bound_to 6896
  144.7132  140.1491  143.6385 H   0  0  0  0  0  0  0  0  0  0  0  0  # atno 7974 bound_to 7965
  155.3669  140.0486  157.3046 H   0  0  0  0  0  0  0  0  0  0  0  0  # atno 8008 bound_to 7997
  154.5149  140.2205  155.9048 H   0  0  0  0  0  0  0  0  0  0  0  0  # atno 8009 bound_to 7997
  156.1625  140.3113  155.8838 H   0  0  0  0  0  0  0  0  0  0  0  0  # atno 8010 bound_to 7997
  140.2939  144.3014  150.6234 H   0  0  0  0  0  0  0  0  0  0  0  0  # atno 10167 bound_to 10162
  157.0003  131.0174  151.2832 H   0  0  0  0  0  0  0  0  0  0  0  0  # atno 10718 bound_to 10713
  154.0878  135.2854  155.3277 H   0  0  0  0  0  0  0  0  0  0  0  0  # atno 10763 bound_to 10752
  154.6640  135.5324  153.8057 H   0  0  0  0  0  0  0  0  0  0  0  0  # atno 10764 bound_to 10752
  153.0424  135.6541  154.1049 H   0  0  0  0  0  0  0  0  0  0  0  0  # atno 10765 bound_to 10752
  140.8976  134.1731  157.4483 H   0  0  0  0  0  0  0  0  0  0  0  0  # atno 11005 bound_to 11000
  145.9133  139.2500  143.1425 LP  0  0  0  0  0  0  0  0  0  0  0  0  # atno 17320 bound_to 7965
  145.9694  140.8772  143.0170 LP  0  0  0  0  0  0  0  0  0  0  0  0  # atno 17321 bound_to 7965
  140.5709  143.2181  151.7600 LP  0  0  0  0  0  0  0  0  0  0  0  0  # atno 17342 bound_to 10162
  139.4931  144.4218  151.9969 LP  0  0  0  0  0  0  0  0  0  0  0  0  # atno 17343 bound_to 10162
  157.5395  130.8110  149.8012 LP  0  0  0  0  0  0  0  0  0  0  0  0  # atno 17370 bound_to 10713
  156.0174  130.3808  150.2069 LP  0  0  0  0  0  0  0  0  0  0  0  0  # atno 17371 bound_to 10713
  139.8738  134.9885  156.5414 LP  0  0  0  0  0  0  0  0  0  0  0  0  # atno 17394 bound_to 11000
  140.8269  133.8309  155.8948 LP  0  0  0  0  0  0  0  0  0  0  0  0  # atno 17395 bound_to 11000

$$$$
