AV-unprocessed.smi:1535|AV-procd|sdf|6183|dock3
  -GOLD-   22720 6343D 1   1.00000     0.00000
 Structure written by MMmdl.
 47 48  0  0  0  0  0  0  0  0  2 V2000
  152.8174  143.0639  161.4666 C   0  0  0  0  0  0  0  0  0  0  0  0
  152.2627  142.6970  160.1014 C   0  0  0  0  0  0  0  0  0  0  0  0
  152.7117  141.5141  159.4722 C   0  0  0  0  0  0  0  0  0  0  0  0
  152.2199  141.1374  158.2035 C   0  0  0  0  0  0  0  0  0  0  0  0
  152.5151  140.0388  157.4147 N   0  0  0  0  0  0  0  0  0  0  0  0
  151.7385  140.2510  156.3567 C   0  0  0  0  0  0  0  0  0  0  0  0
  150.9610  141.3510  156.3736 N   0  0  0  0  0  0  0  0  0  0  0  0
  150.0263  141.7803  155.3489 C   0  0  0  0  0  0  0  0  0  0  0  0
  149.2146  140.6082  154.7623 C   0  0  1  0  0  0  0  0  0  0  0  0
  150.0408  139.9208  153.8445 O   0  0  0  0  0  0  0  0  0  0  0  0
  148.7077  139.6075  155.8228 C   0  0  0  0  0  0  0  0  0  0  0  0
  147.8065  138.5887  155.2256 N   0  3  2  0  0  0  0  0  0  0  0  0
  146.7134  139.1974  154.4313 C   0  0  0  0  0  0  0  0  0  0  0  0
  147.2946  137.6040  156.2120 C   0  0  0  0  0  0  0  0  0  0  0  0
  146.3047  138.2326  157.2126 C   0  0  1  0  0  0  0  0  0  0  0  0
  144.8504  138.0003  156.7840 C   0  0  0  0  0  0  0  0  0  0  0  0
  146.5337  137.7327  158.5779 C   0  0  0  0  0  0  0  0  0  0  0  0
  146.7158  137.3438  159.6516 N   0  0  0  0  0  0  0  0  0  0  0  0
  151.2567  141.9815  157.5776 C   0  0  0  0  0  0  0  0  0  0  0  0
  150.8055  143.1631  158.1917 C   0  0  0  0  0  0  0  0  0  0  0  0
  151.3084  143.5257  159.4585 C   0  0  0  0  0  0  0  0  0  0  0  0
  150.8156  144.8044  160.1124 C   0  0  0  0  0  0  0  0  0  0  0  0
  153.5190  142.3108  161.8270 H   0  0  0  0  0  0  0  0  0  0  0  0
  152.0124  143.1471  162.1971 H   0  0  0  0  0  0  0  0  0  0  0  0
  153.3441  144.0173  161.4203 H   0  0  0  0  0  0  0  0  0  0  0  0
  153.4409  140.8842  159.9607 H   0  0  0  0  0  0  0  0  0  0  0  0
  151.7259  139.5602  155.5262 H   0  0  0  0  0  0  0  0  0  0  0  0
  149.3582  142.5226  155.7886 H   0  0  0  0  0  0  0  0  0  0  0  0
  150.5845  142.2881  154.5608 H   0  0  0  0  0  0  0  0  0  0  0  0
  148.3722  141.0149  154.2036 H   0  0  0  0  0  0  0  0  0  0  0  0
  149.6160  139.9088  153.0000 H   0  0  0  0  0  0  0  0  0  0  0  0
  149.5681  139.1415  156.3028 H   0  0  0  0  0  0  0  0  0  0  0  0
  148.1692  140.1160  156.6236 H   0  0  0  0  0  0  0  0  0  0  0  0
  146.0234  139.7466  155.0734 H   0  0  0  0  0  0  0  0  0  0  0  0
  146.1479  138.4293  153.9026 H   0  0  0  0  0  0  0  0  0  0  0  0
  147.1014  139.8880  153.6827 H   0  0  0  0  0  0  0  0  0  0  0  0
  146.8378  136.7637  155.6868 H   0  0  0  0  0  0  0  0  0  0  0  0
  148.1326  137.1944  156.7783 H   0  0  0  0  0  0  0  0  0  0  0  0
  146.4643  139.3090  157.2605 H   0  0  0  0  0  0  0  0  0  0  0  0
  144.1580  138.4729  157.4810 H   0  0  0  0  0  0  0  0  0  0  0  0
  144.6132  136.9365  156.7505 H   0  0  0  0  0  0  0  0  0  0  0  0
  144.6596  138.4174  155.7949 H   0  0  0  0  0  0  0  0  0  0  0  0
  150.0796  143.7874  157.6922 H   0  0  0  0  0  0  0  0  0  0  0  0
  150.1139  145.3355  159.4687 H   0  0  0  0  0  0  0  0  0  0  0  0
  151.6501  145.4747  160.3196 H   0  0  0  0  0  0  0  0  0  0  0  0
  150.3078  144.5823  161.0510 H   0  0  0  0  0  0  0  0  0  0  0  0
  148.3694  138.0596  154.5739 H   0  0  0  0  0  0  0  0  0  0  0  0
  1  2  1  0  0  0  0
  1 23  1  0  0  0  0
  1 24  1  0  0  0  0
  1 25  1  0  0  0  0
  2 21  1  0  0  0  0
  2  3  2  0  0  0  0
  3  4  1  0  0  0  0
  3 26  1  0  0  0  0
  4 19  2  0  0  0  0
  4  5  1  0  0  0  0
  5  6  2  0  0  0  0
  6  7  1  0  0  0  0
  6 27  1  0  0  0  0
  7  8  1  0  0  0  0
  7 19  1  0  0  0  0
  8  9  1  0  0  0  0
  8 28  1  0  0  0  0
  8 29  1  0  0  0  0
  9 10  1  0  0  0  0
  9 11  1  0  0  0  0
  9 30  1  0  0  0  0
 10 31  1  0  0  0  0
 11 12  1  0  0  0  0
 11 32  1  0  0  0  0
 11 33  1  0  0  0  0
 12 13  1  0  0  0  0
 12 14  1  0  0  0  0
 12 47  1  0  0  0  0
 13 34  1  0  0  0  0
 13 35  1  0  0  0  0
 13 36  1  0  0  0  0
 14 15  1  0  0  0  0
 14 37  1  0  0  0  0
 14 38  1  0  0  0  0
 15 16  1  0  0  0  0
 15 17  1  0  0  0  0
 15 39  1  0  0  0  0
 16 40  1  0  0  0  0
 16 41  1  0  0  0  0
 16 42  1  0  0  0  0
 17 18  3  0  0  0  0
 19 20  1  0  0  0  0
 20 21  2  0  0  0  0
 20 43  1  0  0  0  0
 21 22  1  0  0  0  0
 22 44  1  0  0  0  0
 22 45  1  0  0  0  0
 22 46  1  0  0  0  0
M  CHG  1  12   1
M  END
> <s_m_source_file>
AV-unprocessed.smi

> <i_m_source_file_index>
1535

> <i_lp_mmshare_version>
43012

> <i_f3d_flags>
0

> <s_epik_input>
W0NIM11jKFtjSF0xKWMoW0NIM10pW2NIXWMoYzEyKW4oW2NIXW4yKVtDSDJdW0NASF0oW09IXSlbQ0gyXU4oW0NIM10pW0NIMl1bQ0BIXShbQ0gzXSlDI04=

> <s_epik_cmdline>
J2VwaWtfcHl0aG9uJywgJy1waCcsICc3LjAnLCAnLXRuJywgJzgnLCAnLW1hJywgJzIwMCcsICctbWV0YWxfYmluZGluZycsICctaW1hZScsICc8aW5maWxlLm1hZT4nLCAnLW9tYWUnLCAnPG91dGZpbGUubWFlPic=

> <r_epik_Ionization_Penalty>
2.21058

> <r_epik_Ionization_Penalty_Charging>
2.12381

> <r_epik_Ionization_Penalty_Neutral>
0.0867699

> <r_epik_State_Penalty>
2.36208

> <r_epik_Charging_Adjusted_Penalty>
4.48589

> <i_epik_Tot_Q>
1

> <i_epik_Tot_abs_Q>
1

> <r_epik_Metal_State_Penalty>
2.2818

> <b_epik_Metal_Only>
0

> <s_lp_Force_Field>
OPLS_2005

> <r_lp_Energy>
13.4259

> <b_lp_Chiralities_Consistent>
1

> <s_lp_Variant>
AV-unprocessed.smi:1535-14

> <Gold.Version>
5.8.1

> <Gold.Id.Protein>
6NUR|6NUR_protein|mol2

> <Gold.PLP.Fitness>
47.1836

> <Gold.PLP.PLP>
-37.2577

> <Gold.PLP.part.hbond>
-4.0000

> <Gold.PLP.part.metal>
0.0000

> <Gold.PLP.part.buried>
-4.4315

> <Gold.PLP.part.nonpolar>
-27.9775

> <Gold.PLP.part.repulsive>
0.0000

> <Gold.PLP.ligand.clash>
0.0000

> <Gold.PLP.ligand.torsion>
1.0086

> <Gold.PLP.Chemscore.Hbond>
3.9280

> <Gold.PLP.Chemscore.CHOScore>
0.0000

> <Gold.PLP.Chemscore.Metal>
0.0000

> <Gold.Chemscore.Hbonds>
donor molecule, donor type, donor heavy atom, donor atom, acceptor molecule, acceptor atom, score
      L1  H    10    31       P1  7957  1.00
      P1  H  6934  6947       L1    18  0.71
      P1  H  7989  7998       L1    10  0.88
      P1  H  7997  8009       L1     5  1.00

> <Gold.PLP.Chemscore.Internal.Correction>
0.1591

> <Gold.Rescore>
     Score         DG    S(hbond)    S(metal)    S(lipo)     H(rot)  DE(clash)    DE(int)     intcor
     18.16     -20.25       3.04        0.00      96.46       2.60       0.13       1.96       ----

> <Gold.Chemscore.Fitness>
18.1561

> <Gold.Chemscore.DG>
-20.2538

> <Gold.Chemscore.ZeroCoef>
-5.4800

> <Gold.Chemscore.Hbond>
3.0396

> <Gold.Chemscore.Metal>
0.0000

> <Gold.Chemscore.Lipo>
96.4566

> <Gold.Chemscore.Internal_Hbond>
0.0000

> <Gold.Chemscore.DEClash>
0.1327

> <Gold.Chemscore.DEInternal>
1.9650

> <Gold.Chemscore.Rot>
2.6031

> <Gold.Chemscore.Internal.Correction>
   9.000000E+99

> <Gold.Chemscore.Hbonds>
donor molecule, donor type, donor heavy atom, donor atom, acceptor molecule, acceptor atom, score
      L1  H    10    31       P1  7957  0.97
      P1  H  6934  6947       L1    18  0.44
      P1  H  7989  7998       L1    10  0.25
      P1  H  7997  8009       L1     5  0.47

> <Gold.Chemscore.Hbond.Weighted>
-10.1524

> <Gold.Chemscore.Metal.Weighted>
-0.0000

> <Gold.Chemscore.Lipo.Weighted>
-11.2854

> <Gold.Chemscore.Internal_Hbond.Weighted>
0.0000

> <Gold.Chemscore.DEClash.Weighted>
0.1327

> <Gold.Chemscore.DEInternal.Weighted>
1.9650

> <Gold.Chemscore.Rot.Weighted>
6.6640

> <Gold.Chemscore.Internal.Correction.Weighted>
   9.000000E+99

> <Gold.Protein.RotatedTorsions>
[ 6907 6896 6895 6894 ] final  -90.70 input  -60.11 | X-H torsion
[ 7974 7965 7964 7962 ] final -119.58 input  175.53 | X-H torsion
[ 8008 7997 7996 7995 ] final  169.65 input   59.86 | X-H torsion
[ 10167 10162 10161 10158 ] final -172.37 input  -65.29 | X-H torsion
[ 10718 10713 10712 10709 ] final  -15.67 input   66.30 | X-H torsion
[ 10763 10752 10751 10750 ] final  170.77 input  -60.55 | X-H torsion
[ 11005 11000 10999 10996 ] final   41.52 input  -57.11 | X-H torsion

> <Gold.Protein.ActiveResidues>
 VAL166  LYS551  ARG553  GLY616  TRP617  ASP618  TYR619  PRO620  LYS621  CYS622 
 ASP623  PHE694  ASN695  SER759  ASP760  ASP761  ALA762  ILE779  LEU786  VAL792 
 PHE793  MET794  SER795  GLU796  ALA797  LYS798  CYS799  TRP800  GLU811  SER814 

> <Gold.Protein.RotatedAtoms>
  150.6884  134.2392  159.4465 H   0  0  0  0  0  0  0  0  0  0  0  0  # atno 6907 bound_to 6896
  152.0337  134.9750  160.0582 H   0  0  0  0  0  0  0  0  0  0  0  0  # atno 6908 bound_to 6896
  152.1279  133.4356  159.4744 H   0  0  0  0  0  0  0  0  0  0  0  0  # atno 6909 bound_to 6896
  145.0609  140.8289  143.4153 H   0  0  0  0  0  0  0  0  0  0  0  0  # atno 7974 bound_to 7965
  156.1438  140.1558  156.8879 H   0  0  0  0  0  0  0  0  0  0  0  0  # atno 8008 bound_to 7997
  154.5010  140.0825  156.7835 H   0  0  0  0  0  0  0  0  0  0  0  0  # atno 8009 bound_to 7997
  155.4029  140.3415  155.4260 H   0  0  0  0  0  0  0  0  0  0  0  0  # atno 8010 bound_to 7997
  139.5749  144.1557  152.1436 H   0  0  0  0  0  0  0  0  0  0  0  0  # atno 10167 bound_to 10162
  156.5985  130.4818  149.6249 H   0  0  0  0  0  0  0  0  0  0  0  0  # atno 10718 bound_to 10713
  154.4024  135.2755  155.2088 H   0  0  0  0  0  0  0  0  0  0  0  0  # atno 10763 bound_to 10752
  154.4108  135.6023  153.5955 H   0  0  0  0  0  0  0  0  0  0  0  0  # atno 10764 bound_to 10752
  152.9831  135.5949  154.4294 H   0  0  0  0  0  0  0  0  0  0  0  0  # atno 10765 bound_to 10752
  140.1826  134.4085  155.8191 H   0  0  0  0  0  0  0  0  0  0  0  0  # atno 11005 bound_to 11000
  145.1410  139.2572  143.5490 LP  0  0  0  0  0  0  0  0  0  0  0  0  # atno 17320 bound_to 7965
  146.3524  140.1087  142.8605 LP  0  0  0  0  0  0  0  0  0  0  0  0  # atno 17321 bound_to 7965
  140.1097  144.5468  150.6933 LP  0  0  0  0  0  0  0  0  0  0  0  0  # atno 17342 bound_to 10162
  140.7032  143.2449  151.4804 LP  0  0  0  0  0  0  0  0  0  0  0  0  # atno 17343 bound_to 10162
  156.2489  130.6895  151.1626 LP  0  0  0  0  0  0  0  0  0  0  0  0  # atno 17370 bound_to 10713
  157.7286  131.0631  150.5814 LP  0  0  0  0  0  0  0  0  0  0  0  0  # atno 17371 bound_to 10713
  141.2223  133.7008  156.7958 LP  0  0  0  0  0  0  0  0  0  0  0  0  # atno 17394 bound_to 11000
  140.2250  134.8729  157.3417 LP  0  0  0  0  0  0  0  0  0  0  0  0  # atno 17395 bound_to 11000

$$$$
