AV-unprocessed.smi:3195|AV-procd|sdf|12218|dock1
  -GOLD-   2272018 53D 1   1.00000     0.00000
 Structure written by MMmdl.
 29 30  0  0  0  0  0  0  0  0  2 V2000
  152.8928  138.9940  154.7419 C   0  0  0  0  0  0  0  0  0  0  0  0
  151.4916  139.3223  155.2838 C   0  0  2  0  0  0  0  0  0  0  0  0
  151.5729  140.4649  156.3268 C   0  0  0  0  0  0  0  0  0  0  0  0
  150.9123  141.4905  156.1376 O   0  0  0  0  0  0  0  0  0  0  0  0
  152.4093  140.1480  157.3967 N   0  0  0  0  0  0  0  0  0  0  0  0
  152.5266  140.8845  158.4680 C   0  0  0  0  0  0  0  0  0  0  0  0
  151.8258  142.0882  158.6588 N   0  0  0  0  0  0  0  0  0  0  0  0
  151.9576  142.8647  159.7903 C   0  0  0  0  0  0  0  0  0  0  0  0
  152.7706  142.5121  160.7874 C   0  0  0  0  0  0  0  0  0  0  0  0
  153.5292  141.2838  160.6703 C   0  0  0  0  0  0  0  0  0  0  0  0
  153.4371  140.4560  159.5451 C   0  0  0  0  0  0  0  0  0  0  0  0
  154.1138  139.4031  159.4865 O   0  5  0  0  0  0  0  0  0  0  0  0
  150.7489  138.0768  155.7948 C   0  0  0  0  0  0  0  0  0  0  0  0
  149.2827  138.4530  155.6618 C   0  0  0  0  0  0  0  0  0  0  0  0
  149.2792  139.4926  154.5375 C   0  0  0  0  0  0  0  0  0  0  0  0
  150.6488  139.7051  154.1972 O   0  0  0  0  0  0  0  0  0  0  0  0
  153.5425  138.6136  155.5307 H   0  0  0  0  0  0  0  0  0  0  0  0
  153.3708  139.8749  154.3112 H   0  0  0  0  0  0  0  0  0  0  0  0
  152.8444  138.2366  153.9591 H   0  0  0  0  0  0  0  0  0  0  0  0
  151.3577  143.7626  159.7966 H   0  0  0  0  0  0  0  0  0  0  0  0
  152.8624  143.1319  161.6669 H   0  0  0  0  0  0  0  0  0  0  0  0
  154.1848  141.0085  161.4838 H   0  0  0  0  0  0  0  0  0  0  0  0
  151.1883  142.4299  157.9551 H   0  0  0  0  0  0  0  0  0  0  0  0
  150.9610  137.2264  155.1453 H   0  0  0  0  0  0  0  0  0  0  0  0
  151.0175  137.7793  156.8090 H   0  0  0  0  0  0  0  0  0  0  0  0
  148.6558  137.5897  155.4368 H   0  0  0  0  0  0  0  0  0  0  0  0
  148.9189  138.9013  156.5870 H   0  0  0  0  0  0  0  0  0  0  0  0
  148.7297  139.1471  153.6616 H   0  0  0  0  0  0  0  0  0  0  0  0
  148.8291  140.4278  154.8729 H   0  0  0  0  0  0  0  0  0  0  0  0
  1  2  1  0  0  0  0
  1 17  1  0  0  0  0
  1 18  1  0  0  0  0
  1 19  1  0  0  0  0
  2 16  1  0  0  0  0
  2  3  1  0  0  0  0
  2 13  1  0  0  0  0
  3  4  2  0  0  0  0
  3  5  1  0  0  0  0
  5  6  2  0  0  0  0
  6 11  1  0  0  0  0
  6  7  1  0  0  0  0
  7 23  1  0  0  0  0
  7  8  1  0  0  0  0
  8 20  1  0  0  0  0
  8  9  2  0  0  0  0
  9 21  1  0  0  0  0
  9 10  1  0  0  0  0
 10 11  2  0  0  0  0
 10 22  1  0  0  0  0
 11 12  1  0  0  0  0
 13 14  1  0  0  0  0
 13 24  1  0  0  0  0
 13 25  1  0  0  0  0
 14 15  1  0  0  0  0
 14 26  1  0  0  0  0
 14 27  1  0  0  0  0
 15 16  1  0  0  0  0
 15 28  1  0  0  0  0
 15 29  1  0  0  0  0
M  CHG  1  12  -1
M  END
> <s_m_source_file>
AV-unprocessed.smi

> <i_m_source_file_index>
3195

> <i_lp_mmshare_version>
43012

> <i_f3d_flags>
0

> <s_epik_input>
TzFbQ0gyXVtDSDJdW0NIMl1bQ0BAXTEoW0NIM10pQyg9TylbTkhdYzJuW2NIXVtjSF1bY0hdYzJbT0hd

> <s_epik_cmdline>
J2VwaWtfcHl0aG9uJywgJy1waCcsICc3LjAnLCAnLXRuJywgJzgnLCAnLW1hJywgJzIwMCcsICctbWV0YWxfYmluZGluZycsICctaW1hZScsICc8aW5maWxlLm1hZT4nLCAnLW9tYWUnLCAnPG91dGZpbGUubWFlPic=

> <r_epik_Ionization_Penalty>
0.780444

> <r_epik_Ionization_Penalty_Charging>
0.780444

> <r_epik_Ionization_Penalty_Neutral>
6.55423e-13

> <r_epik_State_Penalty>
1.40445

> <r_epik_Charging_Adjusted_Penalty>
2.18489

> <i_epik_Tot_Q>
-1

> <i_epik_Tot_abs_Q>
1

> <r_epik_Metal_State_Penalty>
1.36467

> <b_epik_Metal_Only>
0

> <s_lp_Force_Field>
OPLS_2005

> <r_lp_Energy>
50.4107

> <b_lp_Chiralities_Consistent>
1

> <s_lp_Variant>
AV-unprocessed.smi:3195-6

> <Gold.Version>
5.8.1

> <Gold.Id.Protein>
6NUR|6NUR_protein|mol2

> <Gold.PLP.Fitness>
35.6157

> <Gold.PLP.PLP>
-29.7448

> <Gold.PLP.part.hbond>
-2.0000

> <Gold.PLP.part.metal>
0.0000

> <Gold.PLP.part.buried>
-3.4006

> <Gold.PLP.part.nonpolar>
-24.0063

> <Gold.PLP.part.repulsive>
0.2895

> <Gold.PLP.ligand.clash>
0.0000

> <Gold.PLP.ligand.torsion>
0.1065

> <Gold.PLP.Chemscore.Hbond>
2.0000

> <Gold.PLP.Chemscore.CHOScore>
0.0000

> <Gold.PLP.Chemscore.Metal>
0.0000

> <Gold.Chemscore.Hbonds>
donor molecule, donor type, donor heavy atom, donor atom, acceptor molecule, acceptor atom, score
      P1  H  7989  7998       L1    16  1.00
      P1  H  7997  8010       L1     5  0.83

> <Gold.PLP.Chemscore.Internal.Correction>
0.0838

> <Gold.Rescore>
     Score         DG    S(hbond)    S(metal)    S(lipo)     H(rot)  DE(clash)    DE(int)     intcor
     13.35     -14.87       1.17        0.00      68.72       1.00       0.03       1.49       ----

> <Gold.Chemscore.Fitness>
13.3487

> <Gold.Chemscore.DG>
-14.8678

> <Gold.Chemscore.ZeroCoef>
-5.4800

> <Gold.Chemscore.Hbond>
1.1698

> <Gold.Chemscore.Metal>
0.0000

> <Gold.Chemscore.Lipo>
68.7229

> <Gold.Chemscore.Internal_Hbond>
0.0000

> <Gold.Chemscore.DEClash>
0.0324

> <Gold.Chemscore.DEInternal>
1.4866

> <Gold.Chemscore.Rot>
1.0000

> <Gold.Chemscore.Internal.Correction>
   9.000000E+99

> <Gold.Chemscore.Hbonds>
donor molecule, donor type, donor heavy atom, donor atom, acceptor molecule, acceptor atom, score
      P1  H  7989  7998       L1    16  0.26
      P1  H  7997  8010       L1     5  0.18

> <Gold.Chemscore.Hbond.Weighted>
-3.9072

> <Gold.Chemscore.Metal.Weighted>
-0.0000

> <Gold.Chemscore.Lipo.Weighted>
-8.0406

> <Gold.Chemscore.Internal_Hbond.Weighted>
0.0000

> <Gold.Chemscore.DEClash.Weighted>
0.0324

> <Gold.Chemscore.DEInternal.Weighted>
1.4866

> <Gold.Chemscore.Rot.Weighted>
2.5600

> <Gold.Chemscore.Internal.Correction.Weighted>
   9.000000E+99

> <Gold.Protein.RotatedTorsions>
[ 6907 6896 6895 6894 ] final  165.68 input  -60.11 | X-H torsion
[ 7974 7965 7964 7962 ] final  -33.46 input  175.53 | X-H torsion
[ 8008 7997 7996 7995 ] final   56.97 input   59.86 | X-H torsion
[ 10167 10162 10161 10158 ] final  -59.14 input  -65.29 | X-H torsion
[ 10718 10713 10712 10709 ] final  -23.30 input   66.30 | X-H torsion
[ 10763 10752 10751 10750 ] final   32.19 input  -60.55 | X-H torsion
[ 11005 11000 10999 10996 ] final -155.65 input  -57.11 | X-H torsion

> <Gold.Protein.ActiveResidues>
 VAL166  LYS551  ARG553  GLY616  TRP617  ASP618  TYR619  PRO620  LYS621  CYS622 
 ASP623  PHE694  ASN695  SER759  ASP760  ASP761  ALA762  ILE779  LEU786  VAL792 
 PHE793  MET794  SER795  GLU796  ALA797  LYS798  CYS799  TRP800  GLU811  SER814 

> <Gold.Protein.RotatedAtoms>
  151.8906  133.3515  159.3796 H   0  0  0  0  0  0  0  0  0  0  0  0  # atno 6907 bound_to 6896
  150.7104  134.4927  159.5533 H   0  0  0  0  0  0  0  0  0  0  0  0  # atno 6908 bound_to 6896
  152.2497  134.8145  160.0499 H   0  0  0  0  0  0  0  0  0  0  0  0  # atno 6909 bound_to 6896
  146.0909  140.5919  142.8865 H   0  0  0  0  0  0  0  0  0  0  0  0  # atno 7974 bound_to 7965
  155.5262  140.3481  155.4417 H   0  0  0  0  0  0  0  0  0  0  0  0  # atno 8008 bound_to 7997
  156.0750  140.1372  156.9809 H   0  0  0  0  0  0  0  0  0  0  0  0  # atno 8009 bound_to 7997
  154.4548  140.0958  156.6701 H   0  0  0  0  0  0  0  0  0  0  0  0  # atno 8010 bound_to 7997
  140.6154  143.2400  151.5610 H   0  0  0  0  0  0  0  0  0  0  0  0  # atno 10167 bound_to 10162
  156.4929  130.4570  149.6745 H   0  0  0  0  0  0  0  0  0  0  0  0  # atno 10718 bound_to 10713
  153.0275  135.6419  154.1317 H   0  0  0  0  0  0  0  0  0  0  0  0  # atno 10763 bound_to 10752
  154.1044  135.2857  155.3246 H   0  0  0  0  0  0  0  0  0  0  0  0  # atno 10764 bound_to 10752
  154.6376  135.5471  153.7815 H   0  0  0  0  0  0  0  0  0  0  0  0  # atno 10765 bound_to 10752
  140.6842  134.4112  157.5224 H   0  0  0  0  0  0  0  0  0  0  0  0  # atno 11005 bound_to 11000
  144.7359  140.4807  143.6904 LP  0  0  0  0  0  0  0  0  0  0  0  0  # atno 17320 bound_to 7965
  145.6041  139.1506  143.3112 LP  0  0  0  0  0  0  0  0  0  0  0  0  # atno 17321 bound_to 7965
  139.5394  144.2689  152.1320 LP  0  0  0  0  0  0  0  0  0  0  0  0  # atno 17342 bound_to 10162
  140.1898  144.4763  150.6485 LP  0  0  0  0  0  0  0  0  0  0  0  0  # atno 17343 bound_to 10162
  156.3409  130.7381  151.2326 LP  0  0  0  0  0  0  0  0  0  0  0  0  # atno 17370 bound_to 10713
  157.7472  131.0404  150.4595 LP  0  0  0  0  0  0  0  0  0  0  0  0  # atno 17371 bound_to 10713
  139.8943  134.8711  156.2185 LP  0  0  0  0  0  0  0  0  0  0  0  0  # atno 17394 bound_to 11000
  141.0293  133.6997  156.1403 LP  0  0  0  0  0  0  0  0  0  0  0  0  # atno 17395 bound_to 11000

$$$$
