AV-unprocessed.smi:3250|AV-procd|sdf|12432|dock1
  -GOLD-   2272018323D 1   1.00000     0.00000
 Structure written by MMmdl.
 40 41  0  0  0  0  0  0  0  0  3 V2000
  146.8323  142.0321  153.9260 C   0  0  0  0  0  0  0  0  0  0  0  0
  147.1421  140.5526  154.1924 C   0  0  0  0  0  0  0  0  0  0  0  0
  148.5393  140.1915  153.8324 N   0  3  2  0  0  0  0  0  0  0  0  0
  148.8888  138.7644  154.0499 C   0  0  0  0  0  0  0  0  0  0  0  0
  149.1580  138.4696  155.5378 C   0  0  0  0  0  0  0  0  0  0  0  0
  150.1587  139.3533  156.0291 O   0  0  0  0  0  0  0  0  0  0  0  0
  149.7697  140.7204  155.9424 C   0  0  1  0  0  0  0  0  0  0  0  0
  150.8791  141.5769  156.5767 C   0  0  0  0  0  0  0  0  0  0  0  0
  150.3695  142.8229  157.1345 N   0  0  0  0  0  0  0  0  0  0  0  0
  150.7744  143.3593  158.3443 C   0  0  0  0  0  0  0  0  0  0  0  0
  150.2224  144.5204  158.7257 N   0  3  0  0  0  0  0  0  0  0  0  0
  150.5937  145.0896  159.8992 C   0  0  0  0  0  0  0  0  0  0  0  0
  151.5566  144.4702  160.7165 C   0  0  0  0  0  0  0  0  0  0  0  0
  152.0947  143.2570  160.2582 C   0  0  0  0  0  0  0  0  0  0  0  0
  153.0485  142.6046  161.0121 O   0  0  0  0  0  0  0  0  0  0  0  0
  153.5398  141.3529  160.5439 C   0  0  0  0  0  0  0  0  0  0  0  0
  151.6944  142.7205  159.0815 N   0  0  0  0  0  0  0  0  0  0  0  0
  149.5576  141.0728  154.4553 C   0  0  0  0  0  0  0  0  0  0  0  0
  145.8363  142.2856  154.2895 H   0  0  0  0  0  0  0  0  0  0  0  0
  146.8571  142.2713  152.8634 H   0  0  0  0  0  0  0  0  0  0  0  0
  147.5438  142.6827  154.4354 H   0  0  0  0  0  0  0  0  0  0  0  0
  146.9921  140.3719  155.2575 H   0  0  0  0  0  0  0  0  0  0  0  0
  146.4266  139.9162  153.6718 H   0  0  0  0  0  0  0  0  0  0  0  0
  148.1170  138.1019  153.6602 H   0  0  0  0  0  0  0  0  0  0  0  0
  149.7910  138.5470  153.4764 H   0  0  0  0  0  0  0  0  0  0  0  0
  148.2496  138.5603  156.1346 H   0  0  0  0  0  0  0  0  0  0  0  0
  149.5080  137.4440  155.6562 H   0  0  0  0  0  0  0  0  0  0  0  0
  148.8365  140.8709  156.4869 H   0  0  0  0  0  0  0  0  0  0  0  0
  151.3801  141.0170  157.3668 H   0  0  0  0  0  0  0  0  0  0  0  0
  151.6429  141.8123  155.8345 H   0  0  0  0  0  0  0  0  0  0  0  0
  149.7362  143.3711  156.5704 H   0  0  0  0  0  0  0  0  0  0  0  0
  150.1093  146.0236  160.1442 H   0  0  0  0  0  0  0  0  0  0  0  0
  151.8680  144.9081  161.6536 H   0  0  0  0  0  0  0  0  0  0  0  0
  154.2861  140.9744  161.2421 H   0  0  0  0  0  0  0  0  0  0  0  0
  154.0186  141.4502  159.5682 H   0  0  0  0  0  0  0  0  0  0  0  0
  152.7424  140.6113  160.4784 H   0  0  0  0  0  0  0  0  0  0  0  0
  150.4959  140.9486  153.9126 H   0  0  0  0  0  0  0  0  0  0  0  0
  149.2754  142.1201  154.3400 H   0  0  0  0  0  0  0  0  0  0  0  0
  148.6038  140.3554  152.8374 H   0  0  0  0  0  0  0  0  0  0  0  0
  149.5239  144.9846  158.1444 H   0  0  0  0  0  0  0  0  0  0  0  0
  1  2  1  0  0  0  0
  1 19  1  0  0  0  0
  1 20  1  0  0  0  0
  1 21  1  0  0  0  0
  2  3  1  0  0  0  0
  2 22  1  0  0  0  0
  2 23  1  0  0  0  0
  3 18  1  0  0  0  0
  3  4  1  0  0  0  0
  3 39  1  0  0  0  0
  4  5  1  0  0  0  0
  4 24  1  0  0  0  0
  4 25  1  0  0  0  0
  5  6  1  0  0  0  0
  5 26  1  0  0  0  0
  5 27  1  0  0  0  0
  6  7  1  0  0  0  0
  7  8  1  0  0  0  0
  7 18  1  0  0  0  0
  7 28  1  0  0  0  0
  8  9  1  0  0  0  0
  8 29  1  0  0  0  0
  8 30  1  0  0  0  0
  9 10  1  0  0  0  0
  9 31  1  0  0  0  0
 10 17  1  0  0  0  0
 10 11  2  0  0  0  0
 11 12  1  0  0  0  0
 11 40  1  0  0  0  0
 12 13  2  0  0  0  0
 12 32  1  0  0  0  0
 13 14  1  0  0  0  0
 13 33  1  0  0  0  0
 14 15  1  0  0  0  0
 14 17  2  0  0  0  0
 15 16  1  0  0  0  0
 16 34  1  0  0  0  0
 16 35  1  0  0  0  0
 16 36  1  0  0  0  0
 18 37  1  0  0  0  0
 18 38  1  0  0  0  0
M  CHG  1   3   1
M  CHG  1  11   1
M  END
> <s_m_source_file>
AV-unprocessed.smi

> <i_m_source_file_index>
3250

> <i_lp_mmshare_version>
43012

> <i_f3d_flags>
0

> <s_epik_input>
W0NIM11bQ0gyXU4xW0NIMl1bQ0gyXU9bQ0BIXShbQ0gyXTEpW0NIMl1bTkhdYzJuW2NIXVtjSF1jKG4yKU9bQ0gzXQ==

> <s_epik_cmdline>
J2VwaWtfcHl0aG9uJywgJy1waCcsICc3LjAnLCAnLXRuJywgJzgnLCAnLW1hJywgJzIwMCcsICctbWV0YWxfYmluZGluZycsICctaW1hZScsICc8aW5maWxlLm1hZT4nLCAnLW9tYWUnLCAnPG91dGZpbGUubWFlPic=

> <r_lp_tautomer_probability>
0.999985

> <r_epik_Ionization_Penalty>
2.24691

> <r_epik_Ionization_Penalty_Charging>
2.24686

> <r_epik_Ionization_Penalty_Neutral>
4.52111e-05

> <r_epik_State_Penalty>
2.24709

> <r_epik_Charging_Adjusted_Penalty>
4.49395

> <i_epik_Tot_Q>
2

> <i_epik_Tot_abs_Q>
2

> <r_epik_Metal_State_Penalty>
2.26327

> <b_epik_Metal_Only>
0

> <s_lp_Force_Field>
OPLS_2005

> <r_lp_Energy>
19.5656

> <b_lp_Chiralities_Consistent>
1

> <s_lp_Variant>
AV-unprocessed.smi:3250-8

> <Gold.Version>
5.8.1

> <Gold.Id.Protein>
6NUR|6NUR_protein|mol2

> <Gold.PLP.Fitness>
48.8469

> <Gold.PLP.PLP>
-35.2331

> <Gold.PLP.part.hbond>
-3.3139

> <Gold.PLP.part.metal>
0.0000

> <Gold.PLP.part.buried>
-3.6806

> <Gold.PLP.part.nonpolar>
-29.0714

> <Gold.PLP.part.repulsive>
0.2970

> <Gold.PLP.ligand.clash>
0.0000

> <Gold.PLP.ligand.torsion>
0.4938

> <Gold.PLP.Chemscore.Hbond>
4.8564

> <Gold.PLP.Chemscore.CHOScore>
0.0000

> <Gold.PLP.Chemscore.Metal>
0.0000

> <Gold.Chemscore.Hbonds>
donor molecule, donor type, donor heavy atom, donor atom, acceptor molecule, acceptor atom, score
      L1  H     3    39       P1  7957  0.96
      L1  H     9    31       P1  8028  2.00
      L1  H    11    40       P1  8029  1.82

> <Gold.PLP.Chemscore.Internal.Correction>
0.0322

> <Gold.Rescore>
     Score         DG    S(hbond)    S(metal)    S(lipo)     H(rot)  DE(clash)    DE(int)     intcor
     17.26     -18.23       2.67        0.00      71.18       1.75       0.50       0.47       ----

> <Gold.Chemscore.Fitness>
17.2555

> <Gold.Chemscore.DG>
-18.2253

> <Gold.Chemscore.ZeroCoef>
-5.4800

> <Gold.Chemscore.Hbond>
2.6661

> <Gold.Chemscore.Metal>
0.0000

> <Gold.Chemscore.Lipo>
71.1810

> <Gold.Chemscore.Internal_Hbond>
0.0000

> <Gold.Chemscore.DEClash>
0.5021

> <Gold.Chemscore.DEInternal>
0.4677

> <Gold.Chemscore.Rot>
1.7530

> <Gold.Chemscore.Internal.Correction>
   9.000000E+99

> <Gold.Chemscore.Hbonds>
donor molecule, donor type, donor heavy atom, donor atom, acceptor molecule, acceptor atom, score
      L1  H     3    39       P1  7957  0.90
      L1  H     9    31       P1  8028  1.00
      L1  H    11    40       P1  8029  0.22

> <Gold.Chemscore.Hbond.Weighted>
-8.9048

> <Gold.Chemscore.Metal.Weighted>
-0.0000

> <Gold.Chemscore.Lipo.Weighted>
-8.3282

> <Gold.Chemscore.Internal_Hbond.Weighted>
0.0000

> <Gold.Chemscore.DEClash.Weighted>
0.5021

> <Gold.Chemscore.DEInternal.Weighted>
0.4677

> <Gold.Chemscore.Rot.Weighted>
4.4876

> <Gold.Chemscore.Internal.Correction.Weighted>
   9.000000E+99

> <Gold.Protein.RotatedTorsions>
[ 6907 6896 6895 6894 ] final   88.77 input  -60.11 | X-H torsion
[ 7974 7965 7964 7962 ] final   85.85 input  175.53 | X-H torsion
[ 8008 7997 7996 7995 ] final  129.81 input   59.86 | X-H torsion
[ 10167 10162 10161 10158 ] final   91.58 input  -65.29 | X-H torsion
[ 10718 10713 10712 10709 ] final   85.34 input   66.30 | X-H torsion
[ 10763 10752 10751 10750 ] final    0.35 input  -60.55 | X-H torsion
[ 11005 11000 10999 10996 ] final   22.87 input  -57.11 | X-H torsion

> <Gold.Protein.ActiveResidues>
 VAL166  LYS551  ARG553  GLY616  TRP617  ASP618  TYR619  PRO620  LYS621  CYS622 
 ASP623  PHE694  ASN695  SER759  ASP760  ASP761  ALA762  ILE779  LEU786  VAL792 
 PHE793  MET794  SER795  GLU796  ALA797  LYS798  CYS799  TRP800  GLU811  SER814 

> <Gold.Protein.RotatedAtoms>
  152.5429  134.2069  159.8734 H   0  0  0  0  0  0  0  0  0  0  0  0  # atno 6907 bound_to 6896
  151.2054  133.4579  159.2604 H   0  0  0  0  0  0  0  0  0  0  0  0  # atno 6908 bound_to 6896
  151.0948  134.9950  159.8476 H   0  0  0  0  0  0  0  0  0  0  0  0  # atno 6909 bound_to 6896
  145.5801  139.2324  143.2358 H   0  0  0  0  0  0  0  0  0  0  0  0  # atno 7974 bound_to 7965
  156.2943  140.2611  156.2659 H   0  0  0  0  0  0  0  0  0  0  0  0  # atno 8008 bound_to 7997
  154.9742  140.0390  157.2267 H   0  0  0  0  0  0  0  0  0  0  0  0  # atno 8009 bound_to 7997
  154.7830  140.2798  155.6054 H   0  0  0  0  0  0  0  0  0  0  0  0  # atno 8010 bound_to 7997
  139.8360  144.6664  150.9341 H   0  0  0  0  0  0  0  0  0  0  0  0  # atno 10167 bound_to 10162
  157.6913  131.0171  150.2808 H   0  0  0  0  0  0  0  0  0  0  0  0  # atno 10718 bound_to 10713
  153.3218  135.6969  153.7023 H   0  0  0  0  0  0  0  0  0  0  0  0  # atno 10763 bound_to 10752
  153.5860  135.3489  155.2894 H   0  0  0  0  0  0  0  0  0  0  0  0  # atno 10764 bound_to 10752
  154.8599  135.4306  154.2385 H   0  0  0  0  0  0  0  0  0  0  0  0  # atno 10765 bound_to 10752
  140.3758  134.1973  155.7665 H   0  0  0  0  0  0  0  0  0  0  0  0  # atno 11005 bound_to 11000
  146.1722  140.6627  142.9228 LP  0  0  0  0  0  0  0  0  0  0  0  0  # atno 17320 bound_to 7965
  144.7398  140.4910  143.6877 LP  0  0  0  0  0  0  0  0  0  0  0  0  # atno 17321 bound_to 7965
  140.7802  143.3956  151.1235 LP  0  0  0  0  0  0  0  0  0  0  0  0  # atno 17342 bound_to 10162
  139.7606  143.8640  152.3099 LP  0  0  0  0  0  0  0  0  0  0  0  0  # atno 17343 bound_to 10162
  156.3355  130.3807  149.7454 LP  0  0  0  0  0  0  0  0  0  0  0  0  # atno 17370 bound_to 10713
  156.4980  130.8115  151.3121 LP  0  0  0  0  0  0  0  0  0  0  0  0  # atno 17371 bound_to 10713
  141.1940  133.8139  157.0777 LP  0  0  0  0  0  0  0  0  0  0  0  0  # atno 17394 bound_to 11000
  140.0516  134.9802  157.1147 LP  0  0  0  0  0  0  0  0  0  0  0  0  # atno 17395 bound_to 11000

$$$$
