AV-unprocessed.smi:1834|AV-procd|sdf|7472|dock3
  -GOLD-   22720 9163D 1   1.00000     0.00000
 Structure written by MMmdl.
 46 47  0  0  0  0  0  0  0  0  2 V2000
  145.5560  137.3318  152.4032 C   0  0  0  0  0  0  0  0  0  0  0  0
  145.9546  137.9139  153.7675 C   0  0  0  0  0  0  0  0  0  0  0  0
  146.0256  139.3973  153.7587 N   0  3  2  0  0  0  0  0  0  0  0  0
  147.0347  139.9013  152.7929 C   0  0  0  0  0  0  0  0  0  0  0  0
  146.9907  141.4334  152.7001 C   0  0  0  0  0  0  0  0  0  0  0  0
  147.1994  142.0692  154.0793 C   0  0  0  0  0  0  0  0  0  0  0  0
  146.1702  141.5284  155.0879 C   0  0  2  0  0  0  0  0  0  0  0  0
  146.3944  142.1638  156.4781 C   0  0  0  0  0  0  0  0  0  0  0  0
  147.7793  142.5724  156.7005 N   0  0  0  0  0  0  0  0  0  0  0  0
  148.6543  141.9502  157.5045 C   0  0  0  0  0  0  0  0  0  0  0  0
  148.3690  140.9573  158.1745 O   0  0  0  0  0  0  0  0  0  0  0  0
  149.8526  142.5590  157.4826 N   0  0  0  0  0  0  0  0  0  0  0  0
  150.9716  142.2563  158.1930 C   0  0  0  0  0  0  0  0  0  0  0  0
  151.3409  141.0624  158.7503 C   0  0  0  0  0  0  0  0  0  0  0  0
  152.5929  141.3731  159.3563 C   0  0  0  0  0  0  0  0  0  0  0  0
  153.4970  140.4594  160.1295 C   0  0  0  0  0  0  0  0  0  0  0  0
  152.9464  142.6414  159.1806 N   0  0  0  0  0  0  0  0  0  0  0  0
  151.9452  143.1925  158.4611 N   0  0  0  0  0  0  0  0  0  0  0  0
  152.0085  144.5907  158.0826 C   0  0  0  0  0  0  0  0  0  0  0  0
  146.2224  139.9823  155.1124 C   0  0  0  0  0  0  0  0  0  0  0  0
  145.6157  136.2433  152.4211 H   0  0  0  0  0  0  0  0  0  0  0  0
  146.2208  137.6848  151.6143 H   0  0  0  0  0  0  0  0  0  0  0  0
  144.5346  137.5914  152.1264 H   0  0  0  0  0  0  0  0  0  0  0  0
  145.2692  137.5758  154.5460 H   0  0  0  0  0  0  0  0  0  0  0  0
  146.9352  137.5103  154.0238 H   0  0  0  0  0  0  0  0  0  0  0  0
  148.0292  139.5692  153.0956 H   0  0  0  0  0  0  0  0  0  0  0  0
  146.8458  139.4791  151.8050 H   0  0  0  0  0  0  0  0  0  0  0  0
  147.7558  141.7866  152.0081 H   0  0  0  0  0  0  0  0  0  0  0  0
  146.0312  141.7506  152.2892 H   0  0  0  0  0  0  0  0  0  0  0  0
  148.2107  141.8579  154.4299 H   0  0  0  0  0  0  0  0  0  0  0  0
  147.1182  143.1539  154.0001 H   0  0  0  0  0  0  0  0  0  0  0  0
  145.1785  141.8260  154.7428 H   0  0  0  0  0  0  0  0  0  0  0  0
  145.7135  143.0036  156.6283 H   0  0  0  0  0  0  0  0  0  0  0  0
  146.1484  141.4377  157.2535 H   0  0  0  0  0  0  0  0  0  0  0  0
  148.1006  143.3802  156.1868 H   0  0  0  0  0  0  0  0  0  0  0  0
  149.9356  143.3587  156.8724 H   0  0  0  0  0  0  0  0  0  0  0  0
  150.8214  140.1162  158.7389 H   0  0  0  0  0  0  0  0  0  0  0  0
  153.0859  139.4511  160.1829 H   0  0  0  0  0  0  0  0  0  0  0  0
  153.6349  140.8155  161.1507 H   0  0  0  0  0  0  0  0  0  0  0  0
  154.4800  140.3918  159.6628 H   0  0  0  0  0  0  0  0  0  0  0  0
  151.0762  145.0879  158.3530 H   0  0  0  0  0  0  0  0  0  0  0  0
  152.1565  144.6704  157.0054 H   0  0  0  0  0  0  0  0  0  0  0  0
  152.8343  145.0893  158.5922 H   0  0  0  0  0  0  0  0  0  0  0  0
  145.4436  139.6080  155.7736 H   0  0  0  0  0  0  0  0  0  0  0  0
  147.1753  139.6432  155.5222 H   0  0  0  0  0  0  0  0  0  0  0  0
  145.1302  139.7236  153.4242 H   0  0  0  0  0  0  0  0  0  0  0  0
  1  2  1  0  0  0  0
  1 21  1  0  0  0  0
  1 22  1  0  0  0  0
  1 23  1  0  0  0  0
  2  3  1  0  0  0  0
  2 24  1  0  0  0  0
  2 25  1  0  0  0  0
  3 20  1  0  0  0  0
  3  4  1  0  0  0  0
  3 46  1  0  0  0  0
  4  5  1  0  0  0  0
  4 26  1  0  0  0  0
  4 27  1  0  0  0  0
  5  6  1  0  0  0  0
  5 28  1  0  0  0  0
  5 29  1  0  0  0  0
  6  7  1  0  0  0  0
  6 30  1  0  0  0  0
  6 31  1  0  0  0  0
  7  8  1  0  0  0  0
  7 20  1  0  0  0  0
  7 32  1  0  0  0  0
  8  9  1  0  0  0  0
  8 33  1  0  0  0  0
  8 34  1  0  0  0  0
  9 10  1  0  0  0  0
  9 35  1  0  0  0  0
 10 11  2  0  0  0  0
 10 12  1  0  0  0  0
 12 13  1  0  0  0  0
 12 36  1  0  0  0  0
 13 18  1  0  0  0  0
 13 14  2  0  0  0  0
 14 15  1  0  0  0  0
 14 37  1  0  0  0  0
 15 16  1  0  0  0  0
 15 17  2  0  0  0  0
 16 38  1  0  0  0  0
 16 39  1  0  0  0  0
 16 40  1  0  0  0  0
 17 18  1  0  0  0  0
 18 19  1  0  0  0  0
 19 41  1  0  0  0  0
 19 42  1  0  0  0  0
 19 43  1  0  0  0  0
 20 44  1  0  0  0  0
 20 45  1  0  0  0  0
M  CHG  1   3   1
M  END
> <s_m_source_file>
AV-unprocessed.smi

> <i_m_source_file_index>
1834

> <i_lp_mmshare_version>
43012

> <i_f3d_flags>
0

> <s_epik_input>
W0NIM11bQ0gyXU4xW0NIMl1bQ0gyXVtDSDJdW0NASF0oW0NIMl0xKVtDSDJdW05IXUMoPU8pW05IXWMyW2NIXWMoW0NIM10pbm4yW0NIM10=

> <s_epik_cmdline>
J2VwaWtfcHl0aG9uJywgJy1waCcsICc3LjAnLCAnLXRuJywgJzgnLCAnLW1hJywgJzIwMCcsICctbWV0YWxfYmluZGluZycsICctaW1hZScsICc8aW5maWxlLm1hZT4nLCAnLW9tYWUnLCAnPG91dGZpbGUubWFlPic=

> <r_lp_tautomer_probability>
1

> <r_epik_Ionization_Penalty>
0.000466842

> <r_epik_Ionization_Penalty_Charging>
0.000378984

> <r_epik_Ionization_Penalty_Neutral>
8.78572e-05

> <r_epik_State_Penalty>
0.000231434

> <r_epik_Charging_Adjusted_Penalty>
0.000610418

> <i_epik_Tot_Q>
1

> <i_epik_Tot_abs_Q>
1

> <r_epik_Metal_State_Penalty>
-0

> <b_epik_Metal_Only>
0

> <s_lp_Force_Field>
OPLS_2005

> <r_lp_Energy>
19.5344

> <b_lp_Chiralities_Consistent>
1

> <s_lp_Variant>
AV-unprocessed.smi:1834-4

> <Gold.Version>
5.8.1

> <Gold.Id.Protein>
6NUR|6NUR_protein|mol2

> <Gold.PLP.Fitness>
42.3680

> <Gold.PLP.PLP>
-32.6587

> <Gold.PLP.part.hbond>
-3.8040

> <Gold.PLP.part.metal>
0.0000

> <Gold.PLP.part.buried>
-3.3271

> <Gold.PLP.part.nonpolar>
-24.9706

> <Gold.PLP.part.repulsive>
0.0598

> <Gold.PLP.ligand.clash>
0.6775

> <Gold.PLP.ligand.torsion>
0.6808

> <Gold.PLP.Chemscore.Hbond>
3.9040

> <Gold.PLP.Chemscore.CHOScore>
0.0000

> <Gold.PLP.Chemscore.Metal>
0.0000

> <Gold.Chemscore.Hbonds>
donor molecule, donor type, donor heavy atom, donor atom, acceptor molecule, acceptor atom, score
      L1  H     3    46       P1 10175  2.00
      L1  H     9    35       P1  8028  1.00
      L1  H    12    36       P1  8028  0.76

> <Gold.PLP.Chemscore.Internal.Correction>
0.0364

> <Gold.Rescore>
     Score         DG    S(hbond)    S(metal)    S(lipo)     H(rot)  DE(clash)    DE(int)     intcor
     16.57     -18.46       2.38        0.00      74.24       1.43       0.15       1.74       ----

> <Gold.Chemscore.Fitness>
16.5741

> <Gold.Chemscore.DG>
-18.4647

> <Gold.Chemscore.ZeroCoef>
-5.4800

> <Gold.Chemscore.Hbond>
2.3822

> <Gold.Chemscore.Metal>
0.0000

> <Gold.Chemscore.Lipo>
74.2444

> <Gold.Chemscore.Internal_Hbond>
0.0000

> <Gold.Chemscore.DEClash>
0.1494

> <Gold.Chemscore.DEInternal>
1.7412

> <Gold.Chemscore.Rot>
1.4291

> <Gold.Chemscore.Internal.Correction>
   9.000000E+99

> <Gold.Chemscore.Hbonds>
donor molecule, donor type, donor heavy atom, donor atom, acceptor molecule, acceptor atom, score
      L1  H     3    46       P1 10175  1.00
      L1  H     9    35       P1  8028  0.30
      L1  H    12    36       P1  8028  0.72

> <Gold.Chemscore.Hbond.Weighted>
-7.9565

> <Gold.Chemscore.Metal.Weighted>
-0.0000

> <Gold.Chemscore.Lipo.Weighted>
-8.6866

> <Gold.Chemscore.Internal_Hbond.Weighted>
0.0000

> <Gold.Chemscore.DEClash.Weighted>
0.1494

> <Gold.Chemscore.DEInternal.Weighted>
1.7412

> <Gold.Chemscore.Rot.Weighted>
3.6584

> <Gold.Chemscore.Internal.Correction.Weighted>
   9.000000E+99

> <Gold.Protein.RotatedTorsions>
[ 6907 6896 6895 6894 ] final  108.69 input  -60.11 | X-H torsion
[ 7974 7965 7964 7962 ] final   71.01 input  175.53 | X-H torsion
[ 8008 7997 7996 7995 ] final  -86.68 input   59.86 | X-H torsion
[ 10167 10162 10161 10158 ] final  -10.71 input  -65.29 | X-H torsion
[ 10718 10713 10712 10709 ] final -160.11 input   66.30 | X-H torsion
[ 10763 10752 10751 10750 ] final  144.82 input  -60.55 | X-H torsion
[ 11005 11000 10999 10996 ] final   60.47 input  -57.11 | X-H torsion

> <Gold.Protein.ActiveResidues>
 VAL166  LYS551  ARG553  GLY616  TRP617  ASP618  TYR619  PRO620  LYS621  CYS622 
 ASP623  PHE694  ASN695  SER759  ASP760  ASP761  ALA762  ILE779  LEU786  VAL792 
 PHE793  MET794  SER795  GLU796  ALA797  LYS798  CYS799  TRP800  GLU811  SER814 

> <Gold.Protein.RotatedAtoms>
  152.5101  133.9053  159.7460 H   0  0  0  0  0  0  0  0  0  0  0  0  # atno 6907 bound_to 6896
  150.9459  133.6595  159.2788 H   0  0  0  0  0  0  0  0  0  0  0  0  # atno 6908 bound_to 6896
  151.3891  135.0958  159.9573 H   0  0  0  0  0  0  0  0  0  0  0  0  # atno 6909 bound_to 6896
  145.7711  139.2843  143.1320 H   0  0  0  0  0  0  0  0  0  0  0  0  # atno 7974 bound_to 7965
  154.6546  140.0575  156.9994 H   0  0  0  0  0  0  0  0  0  0  0  0  # atno 8008 bound_to 7997
  155.1319  140.3257  155.4453 H   0  0  0  0  0  0  0  0  0  0  0  0  # atno 8009 bound_to 7997
  156.2591  140.1979  156.6438 H   0  0  0  0  0  0  0  0  0  0  0  0  # atno 8010 bound_to 7997
  140.7121  143.5718  150.9084 H   0  0  0  0  0  0  0  0  0  0  0  0  # atno 10167 bound_to 10162
  156.5775  130.8715  151.2855 H   0  0  0  0  0  0  0  0  0  0  0  0  # atno 10718 bound_to 10713
  153.9951  135.2928  155.3408 H   0  0  0  0  0  0  0  0  0  0  0  0  # atno 10763 bound_to 10752
  154.7192  135.5116  153.8788 H   0  0  0  0  0  0  0  0  0  0  0  0  # atno 10764 bound_to 10752
  153.0791  135.6673  154.0199 H   0  0  0  0  0  0  0  0  0  0  0  0  # atno 10765 bound_to 10752
  140.0230  134.6125  155.9613 H   0  0  0  0  0  0  0  0  0  0  0  0  # atno 11005 bound_to 11000
  146.0169  140.8384  142.9943 LP  0  0  0  0  0  0  0  0  0  0  0  0  # atno 17320 bound_to 7965
  144.6812  140.2571  143.7324 LP  0  0  0  0  0  0  0  0  0  0  0  0  # atno 17321 bound_to 7965
  139.9444  143.6345  152.3045 LP  0  0  0  0  0  0  0  0  0  0  0  0  # atno 17342 bound_to 10162
  139.6841  144.7653  151.1556 LP  0  0  0  0  0  0  0  0  0  0  0  0  # atno 17343 bound_to 10162
  157.7334  130.9730  150.1976 LP  0  0  0  0  0  0  0  0  0  0  0  0  # atno 17370 bound_to 10713
  156.2660  130.3716  149.8081 LP  0  0  0  0  0  0  0  0  0  0  0  0  # atno 17371 bound_to 10713
  141.1785  133.6543  156.4925 LP  0  0  0  0  0  0  0  0  0  0  0  0  # atno 17394 bound_to 11000
  140.4355  134.7063  157.4964 LP  0  0  0  0  0  0  0  0  0  0  0  0  # atno 17395 bound_to 11000

$$$$
