AV-unprocessed.smi:1430|AV-procd|sdf|5828|dock3
  -GOLD-   22720 5483D 1   1.00000     0.00000
 Structure written by MMmdl.
 47 48  0  0  0  0  0  0  0  0  2 V2000
  151.4021  142.9865  157.4055 C   0  0  0  0  0  0  0  0  0  0  0  0
  151.7033  141.6057  157.2356 O   0  0  0  0  0  0  0  0  0  0  0  0
  151.0133  140.8983  156.2729 C   0  0  0  0  0  0  0  0  0  0  0  0
  149.8405  141.4615  155.7332 C   0  0  0  0  0  0  0  0  0  0  0  0
  149.1356  140.7444  154.7486 C   0  0  0  0  0  0  0  0  0  0  0  0
  149.6198  139.4890  154.3279 C   0  0  0  0  0  0  0  0  0  0  0  0
  148.8715  138.7942  153.3373 N   0  0  0  0  0  0  0  0  0  0  0  0
  147.5958  138.9725  152.9520 C   0  0  0  0  0  0  0  0  0  0  0  0
  146.8136  139.8007  153.4165 O   0  0  0  0  0  0  0  0  0  0  0  0
  147.2605  138.1146  151.9779 N   0  0  0  0  0  0  0  0  0  0  0  0
  145.9495  138.0459  151.3422 C   0  0  0  0  0  0  0  0  0  0  0  0
  145.7488  136.7051  150.6101 C   0  0  0  0  0  0  0  0  0  0  0  0
  145.9800  135.5338  151.4968 N   0  3  1  0  0  0  0  0  0  0  0  0
  145.1874  135.5744  152.7501 C   0  0  0  0  0  0  0  0  0  0  0  0
  143.7195  135.1718  152.4989 C   0  0  2  0  0  0  0  0  0  0  0  0
  142.9051  135.1220  153.7963 C   0  0  0  0  0  0  0  0  0  0  0  0
  143.6914  133.8764  151.9094 O   0  0  0  0  0  0  0  0  0  0  0  0
  144.3517  133.8265  150.6491 C   0  0  2  0  0  0  0  0  0  0  0  0
  144.1905  132.4104  150.0859 C   0  0  0  0  0  0  0  0  0  0  0  0
  145.8354  134.2103  150.8379 C   0  0  0  0  0  0  0  0  0  0  0  0
  150.8032  139.0048  154.9392 C   0  0  0  0  0  0  0  0  0  0  0  0
  151.4845  139.6884  155.8832 N   0  0  0  0  0  0  0  0  0  0  0  0
  152.0267  143.3966  158.1988 H   0  0  0  0  0  0  0  0  0  0  0  0
  150.3606  143.1350  157.6945 H   0  0  0  0  0  0  0  0  0  0  0  0
  151.6062  143.5548  156.4970 H   0  0  0  0  0  0  0  0  0  0  0  0
  149.4883  142.4258  156.0687 H   0  0  0  0  0  0  0  0  0  0  0  0
  148.2329  141.1577  154.3220 H   0  0  0  0  0  0  0  0  0  0  0  0
  149.3661  138.0414  152.8814 H   0  0  0  0  0  0  0  0  0  0  0  0
  147.9599  137.4608  151.6568 H   0  0  0  0  0  0  0  0  0  0  0  0
  145.2049  138.1763  152.1262 H   0  0  0  0  0  0  0  0  0  0  0  0
  145.8237  138.8817  150.6517 H   0  0  0  0  0  0  0  0  0  0  0  0
  144.7211  136.6666  150.2463 H   0  0  0  0  0  0  0  0  0  0  0  0
  146.3849  136.6540  149.7265 H   0  0  0  0  0  0  0  0  0  0  0  0
  145.6389  134.8795  153.4598 H   0  0  0  0  0  0  0  0  0  0  0  0
  145.2489  136.5611  153.2105 H   0  0  0  0  0  0  0  0  0  0  0  0
  143.2441  135.8853  151.8238 H   0  0  0  0  0  0  0  0  0  0  0  0
  142.8809  136.0975  154.2827 H   0  0  0  0  0  0  0  0  0  0  0  0
  143.3280  134.4060  154.5016 H   0  0  0  0  0  0  0  0  0  0  0  0
  141.8749  134.8248  153.5983 H   0  0  0  0  0  0  0  0  0  0  0  0
  143.8656  134.5207  149.9624 H   0  0  0  0  0  0  0  0  0  0  0  0
  144.6728  132.3172  149.1126 H   0  0  0  0  0  0  0  0  0  0  0  0
  143.1371  132.1589  149.9594 H   0  0  0  0  0  0  0  0  0  0  0  0
  144.6314  131.6673  150.7510 H   0  0  0  0  0  0  0  0  0  0  0  0
  146.3654  134.1826  149.8868 H   0  0  0  0  0  0  0  0  0  0  0  0
  146.3205  133.4675  151.4728 H   0  0  0  0  0  0  0  0  0  0  0  0
  151.2301  138.0455  154.6966 H   0  0  0  0  0  0  0  0  0  0  0  0
  146.9460  135.6102  151.7824 H   0  0  0  0  0  0  0  0  0  0  0  0
  1  2  1  0  0  0  0
  1 23  1  0  0  0  0
  1 24  1  0  0  0  0
  1 25  1  0  0  0  0
  2  3  1  0  0  0  0
  3 22  1  0  0  0  0
  3  4  2  0  0  0  0
  4  5  1  0  0  0  0
  4 26  1  0  0  0  0
  5  6  2  0  0  0  0
  5 27  1  0  0  0  0
  6  7  1  0  0  0  0
  6 21  1  0  0  0  0
  7  8  1  0  0  0  0
  7 28  1  0  0  0  0
  8  9  2  0  0  0  0
  8 10  1  0  0  0  0
 10 11  1  0  0  0  0
 10 29  1  0  0  0  0
 11 12  1  0  0  0  0
 11 30  1  0  0  0  0
 11 31  1  0  0  0  0
 12 13  1  0  0  0  0
 12 32  1  0  0  0  0
 12 33  1  0  0  0  0
 13 20  1  0  0  0  0
 13 14  1  0  0  0  0
 13 47  1  0  0  0  0
 14 15  1  0  0  0  0
 14 34  1  0  0  0  0
 14 35  1  0  0  0  0
 15 16  1  0  0  0  0
 15 17  1  0  0  0  0
 15 36  1  0  0  0  0
 16 37  1  0  0  0  0
 16 38  1  0  0  0  0
 16 39  1  0  0  0  0
 17 18  1  0  0  0  0
 18 19  1  0  0  0  0
 18 20  1  0  0  0  0
 18 40  1  0  0  0  0
 19 41  1  0  0  0  0
 19 42  1  0  0  0  0
 19 43  1  0  0  0  0
 20 44  1  0  0  0  0
 20 45  1  0  0  0  0
 21 22  2  0  0  0  0
 21 46  1  0  0  0  0
M  CHG  1  13   1
M  END
> <s_m_source_file>
AV-unprocessed.smi

> <i_m_source_file_index>
1430

> <i_lp_mmshare_version>
43012

> <i_f3d_flags>
0

> <s_epik_input>
W0NIM11PYzFbY0hdW2NIXWMoW2NIXW4xKVtOSF1DKD1PKVtOSF1bQ0gyXVtDSDJdTjJbQ0gyXVtDQEBIXShbQ0gzXSlPW0NAQEhdKFtDSDNdKVtDSDJdMg==

> <s_epik_cmdline>
J2VwaWtfcHl0aG9uJywgJy1waCcsICc3LjAnLCAnLXRuJywgJzgnLCAnLW1hJywgJzIwMCcsICctbWV0YWxfYmluZGluZycsICctaW1hZScsICc8aW5maWxlLm1hZT4nLCAnLW9tYWUnLCAnPG91dGZpbGUubWFlPic=

> <r_lp_tautomer_probability>
1

> <r_epik_Ionization_Penalty>
0.602607

> <r_epik_Ionization_Penalty_Charging>
0.602531

> <r_epik_Ionization_Penalty_Neutral>
7.66983e-05

> <r_epik_State_Penalty>
0.617039

> <r_epik_Charging_Adjusted_Penalty>
1.21957

> <i_epik_Tot_Q>
1

> <i_epik_Tot_abs_Q>
1

> <r_epik_Metal_State_Penalty>
0.617043

> <b_epik_Metal_Only>
0

> <s_lp_Force_Field>
OPLS_2005

> <r_lp_Energy>
19.3268

> <b_lp_Chiralities_Consistent>
1

> <s_lp_Variant>
AV-unprocessed.smi:1430-7

> <Gold.Version>
5.8.1

> <Gold.Id.Protein>
6NUR|6NUR_protein|mol2

> <Gold.PLP.Fitness>
47.1457

> <Gold.PLP.PLP>
-36.8471

> <Gold.PLP.part.hbond>
-4.6836

> <Gold.PLP.part.metal>
0.0000

> <Gold.PLP.part.buried>
2.5214

> <Gold.PLP.part.nonpolar>
-36.1155

> <Gold.PLP.part.repulsive>
0.6183

> <Gold.PLP.ligand.clash>
0.0114

> <Gold.PLP.ligand.torsion>
0.4107

> <Gold.PLP.Chemscore.Hbond>
3.6760

> <Gold.PLP.Chemscore.CHOScore>
0.0000

> <Gold.PLP.Chemscore.Metal>
0.0000

> <Gold.Chemscore.Hbonds>
donor molecule, donor type, donor heavy atom, donor atom, acceptor molecule, acceptor atom, score
      L1  H     7    28       P1  7948  0.72
      L1  H    10    29       P1  7948  1.00
      L1  H    13    47       P1  7948  1.82

> <Gold.PLP.Chemscore.Internal.Correction>
0.1033

> <Gold.Rescore>
     Score         DG    S(hbond)    S(metal)    S(lipo)     H(rot)  DE(clash)    DE(int)     intcor
     14.71     -20.11       2.49        0.00      92.57       1.76       3.76       1.64       ----

> <Gold.Chemscore.Fitness>
14.7052

> <Gold.Chemscore.DG>
-20.1066

> <Gold.Chemscore.ZeroCoef>
-5.4800

> <Gold.Chemscore.Hbond>
2.4858

> <Gold.Chemscore.Metal>
0.0000

> <Gold.Chemscore.Lipo>
92.5737

> <Gold.Chemscore.Internal_Hbond>
0.0000

> <Gold.Chemscore.DEClash>
3.7601

> <Gold.Chemscore.DEInternal>
1.6413

> <Gold.Chemscore.Rot>
1.7606

> <Gold.Chemscore.Internal.Correction>
   9.000000E+99

> <Gold.Chemscore.Hbonds>
donor molecule, donor type, donor heavy atom, donor atom, acceptor molecule, acceptor atom, score
      L1  H     7    28       P1  7948  0.65
      L1  H    10    29       P1  7948  0.94
      L1  H    13    47       P1  7948  0.87

> <Gold.Chemscore.Hbond.Weighted>
-8.3026

> <Gold.Chemscore.Metal.Weighted>
-0.0000

> <Gold.Chemscore.Lipo.Weighted>
-10.8311

> <Gold.Chemscore.Internal_Hbond.Weighted>
0.0000

> <Gold.Chemscore.DEClash.Weighted>
3.7601

> <Gold.Chemscore.DEInternal.Weighted>
1.6413

> <Gold.Chemscore.Rot.Weighted>
4.5072

> <Gold.Chemscore.Internal.Correction.Weighted>
   9.000000E+99

> <Gold.Protein.RotatedTorsions>
[ 6907 6896 6895 6894 ] final  -52.37 input  -60.11 | X-H torsion
[ 7974 7965 7964 7962 ] final  116.35 input  175.53 | X-H torsion
[ 8008 7997 7996 7995 ] final    3.70 input   59.86 | X-H torsion
[ 10167 10162 10161 10158 ] final -159.25 input  -65.29 | X-H torsion
[ 10718 10713 10712 10709 ] final  158.17 input   66.30 | X-H torsion
[ 10763 10752 10751 10750 ] final  -95.02 input  -60.55 | X-H torsion
[ 11005 11000 10999 10996 ] final  167.41 input  -57.11 | X-H torsion

> <Gold.Protein.ActiveResidues>
 VAL166  LYS551  ARG553  GLY616  TRP617  ASP618  TYR619  PRO620  LYS621  CYS622 
 ASP623  PHE694  ASN695  SER759  ASP760  ASP761  ALA762  ILE779  LEU786  VAL792 
 PHE793  MET794  SER795  GLU796  ALA797  LYS798  CYS799  TRP800  GLU811  SER814 

> <Gold.Protein.RotatedAtoms>
  150.8524  134.7853  159.7018 H   0  0  0  0  0  0  0  0  0  0  0  0  # atno 6907 bound_to 6896
  152.4585  134.5234  159.9799 H   0  0  0  0  0  0  0  0  0  0  0  0  # atno 6908 bound_to 6896
  151.5353  133.3404  159.2961 H   0  0  0  0  0  0  0  0  0  0  0  0  # atno 6909 bound_to 6896
  145.1808  139.3051  143.4419 H   0  0  0  0  0  0  0  0  0  0  0  0  # atno 7974 bound_to 7965
  154.7069  140.2684  155.6666 H   0  0  0  0  0  0  0  0  0  0  0  0  # atno 8008 bound_to 7997
  156.2783  140.2761  156.1622 H   0  0  0  0  0  0  0  0  0  0  0  0  # atno 8009 bound_to 7997
  155.0688  140.0372  157.2591 H   0  0  0  0  0  0  0  0  0  0  0  0  # atno 8010 bound_to 7997
  139.6630  143.9880  152.2237 H   0  0  0  0  0  0  0  0  0  0  0  0  # atno 10167 bound_to 10162
  157.1815  131.0633  151.2129 H   0  0  0  0  0  0  0  0  0  0  0  0  # atno 10718 bound_to 10713
  154.7109  135.5136  153.8665 H   0  0  0  0  0  0  0  0  0  0  0  0  # atno 10763 bound_to 10752
  153.0780  135.6622  154.0114 H   0  0  0  0  0  0  0  0  0  0  0  0  # atno 10764 bound_to 10752
  153.9956  135.3015  155.3387 H   0  0  0  0  0  0  0  0  0  0  0  0  # atno 10765 bound_to 10752
  140.2765  134.7785  157.3721 H   0  0  0  0  0  0  0  0  0  0  0  0  # atno 11005 bound_to 11000
  146.3453  140.1986  142.8589 LP  0  0  0  0  0  0  0  0  0  0  0  0  # atno 17320 bound_to 7965
  145.0138  140.8737  143.5208 LP  0  0  0  0  0  0  0  0  0  0  0  0  # atno 17321 bound_to 7965
  139.9624  144.6549  150.8067 LP  0  0  0  0  0  0  0  0  0  0  0  0  # atno 17342 bound_to 10162
  140.7587  143.3114  151.2836 LP  0  0  0  0  0  0  0  0  0  0  0  0  # atno 17343 bound_to 10162
  157.3947  130.7301  149.6723 LP  0  0  0  0  0  0  0  0  0  0  0  0  # atno 17370 bound_to 10713
  155.9723  130.4137  150.4094 LP  0  0  0  0  0  0  0  0  0  0  0  0  # atno 17371 bound_to 10713
  140.1324  134.5078  155.8095 LP  0  0  0  0  0  0  0  0  0  0  0  0  # atno 17394 bound_to 11000
  141.2169  133.6794  156.7063 LP  0  0  0  0  0  0  0  0  0  0  0  0  # atno 17395 bound_to 11000

$$$$
