AV-unprocessed.smi:1399|AV-procd|sdf|5681|dock2
  -GOLD-   22720 5303D 1   1.00000     0.00000
 Structure written by MMmdl.
 37 38  0  0  0  0  0  0  0  0  1 V2000
  149.1573  142.3851  156.1170 N   0  0  0  0  0  0  0  0  0  0  0  0
  149.2192  141.5197  155.1017 C   0  0  0  0  0  0  0  0  0  0  0  0
  150.2013  140.8084  154.9019 O   0  0  0  0  0  0  0  0  0  0  0  0
  148.0037  141.4488  154.1702 C   0  0  0  0  0  0  0  0  0  0  0  0
  147.7959  140.1334  153.5208 N   0  0  0  0  0  0  0  0  0  0  0  0
  146.9220  140.2214  152.3412 C   0  0  0  0  0  0  0  0  0  0  0  0
  146.7893  138.8472  151.6606 C   0  0  0  0  0  0  0  0  0  0  0  0
  146.2470  137.7906  152.6370 C   0  0  0  0  0  0  0  0  0  0  0  0
  146.2476  136.4644  152.0268 N   0  0  0  0  0  0  0  0  0  0  0  0
  145.1569  135.7202  151.7953 C   0  0  0  0  0  0  0  0  0  0  0  0
  144.0134  136.0826  152.0724 O   0  0  0  0  0  0  0  0  0  0  0  0
  145.4788  134.5460  151.2282 N   0  0  0  0  0  0  0  0  0  0  0  0
  144.5968  133.5047  150.8443 C   0  0  0  0  0  0  0  0  0  0  0  0
  145.0066  132.2503  150.3161 C   0  0  0  0  0  0  0  0  0  0  0  0
  143.9657  131.4748  150.0486 N   0  0  0  0  0  0  0  0  0  0  0  0
  142.8952  132.2223  150.4002 N   0  0  0  0  0  0  0  0  0  0  0  0
  143.2311  133.4651  150.8899 C   0  0  0  0  0  0  0  0  0  0  0  0
  147.1202  137.7860  153.8992 C   0  0  0  0  0  0  0  0  0  0  0  0
  147.2320  139.1981  154.4999 C   0  0  0  0  0  0  0  0  0  0  0  0
  141.9518  131.8745  150.3016 H   0  0  0  0  0  0  0  0  0  0  0  0
  149.9318  142.4611  156.7601 H   0  0  0  0  0  0  0  0  0  0  0  0
  148.3329  142.9547  156.2407 H   0  0  0  0  0  0  0  0  0  0  0  0
  147.1260  141.7033  154.7662 H   0  0  0  0  0  0  0  0  0  0  0  0
  148.0948  142.2252  153.4080 H   0  0  0  0  0  0  0  0  0  0  0  0
  145.9384  140.5971  152.6286 H   0  0  0  0  0  0  0  0  0  0  0  0
  147.3243  140.9215  151.6091 H   0  0  0  0  0  0  0  0  0  0  0  0
  146.1322  138.9310  150.7944 H   0  0  0  0  0  0  0  0  0  0  0  0
  147.7637  138.5373  151.2794 H   0  0  0  0  0  0  0  0  0  0  0  0
  145.2275  138.0565  152.9240 H   0  0  0  0  0  0  0  0  0  0  0  0
  147.1459  136.0860  151.7642 H   0  0  0  0  0  0  0  0  0  0  0  0
  146.4589  134.3778  151.0545 H   0  0  0  0  0  0  0  0  0  0  0  0
  146.0043  131.8843  150.1227 H   0  0  0  0  0  0  0  0  0  0  0  0
  142.4885  134.1791  151.2137 H   0  0  0  0  0  0  0  0  0  0  0  0
  146.7027  137.1028  154.6397 H   0  0  0  0  0  0  0  0  0  0  0  0
  148.1184  137.4136  153.6629 H   0  0  0  0  0  0  0  0  0  0  0  0
  147.8736  139.1540  155.3811 H   0  0  0  0  0  0  0  0  0  0  0  0
  146.2533  139.5440  154.8376 H   0  0  0  0  0  0  0  0  0  0  0  0
  1  2  1  0  0  0  0
  1 21  1  0  0  0  0
  1 22  1  0  0  0  0
  2  3  2  0  0  0  0
  2  4  1  0  0  0  0
  4  5  1  0  0  0  0
  4 23  1  0  0  0  0
  4 24  1  0  0  0  0
  5 19  1  0  0  0  0
  5  6  1  0  0  0  0
  6  7  1  0  0  0  0
  6 25  1  0  0  0  0
  6 26  1  0  0  0  0
  7  8  1  0  0  0  0
  7 27  1  0  0  0  0
  7 28  1  0  0  0  0
  8  9  1  0  0  0  0
  8 18  1  0  0  0  0
  8 29  1  0  0  0  0
  9 10  1  0  0  0  0
  9 30  1  0  0  0  0
 10 11  2  0  0  0  0
 10 12  1  0  0  0  0
 12 13  1  0  0  0  0
 12 31  1  0  0  0  0
 13 17  2  0  0  0  0
 13 14  1  0  0  0  0
 14 15  2  0  0  0  0
 14 32  1  0  0  0  0
 15 16  1  0  0  0  0
 16 20  1  0  0  0  0
 16 17  1  0  0  0  0
 17 33  1  0  0  0  0
 18 19  1  0  0  0  0
 18 34  1  0  0  0  0
 18 35  1  0  0  0  0
 19 36  1  0  0  0  0
 19 37  1  0  0  0  0
M  END
> <s_m_source_file>
AV-unprocessed.smi

> <i_m_source_file_index>
1399

> <i_lp_mmshare_version>
43012

> <i_f3d_flags>
0

> <s_epik_input>
W05IMl1DKD1PKVtDSDJdTjFbQ0gyXVtDSDJdW0NIXShbQ0gyXVtDSDJdMSlbTkhdQyg9TylbTkhdYzJbY0hdbltuSF1bY0hdMg==

> <s_epik_cmdline>
J2VwaWtfcHl0aG9uJywgJy1waCcsICc3LjAnLCAnLXRuJywgJzgnLCAnLW1hJywgJzIwMCcsICctbWV0YWxfYmluZGluZycsICctaW1hZScsICc8aW5maWxlLm1hZT4nLCAnLW9tYWUnLCAnPG91dGZpbGUubWFlPic=

> <r_lp_tautomer_probability>
0.5

> <r_epik_Ionization_Penalty>
0.164786

> <r_epik_Ionization_Penalty_Charging>
0

> <r_epik_Ionization_Penalty_Neutral>
0.164786

> <r_epik_State_Penalty>
0.154069

> <r_epik_Charging_Adjusted_Penalty>
0.154069

> <i_epik_Tot_Q>
0

> <i_epik_Tot_abs_Q>
0

> <r_epik_Metal_State_Penalty>
0.171367

> <b_epik_Metal_Only>
0

> <s_lp_Force_Field>
OPLS_2005

> <r_lp_Energy>
13.9175

> <b_lp_Chiralities_Consistent>
1

> <s_lp_Variant>
AV-unprocessed.smi:1399-1

> <Gold.Version>
5.8.1

> <Gold.Id.Protein>
6NUR|6NUR_protein|mol2

> <Gold.PLP.Fitness>
38.9020

> <Gold.PLP.PLP>
-27.9256

> <Gold.PLP.part.hbond>
-5.7251

> <Gold.PLP.part.metal>
0.0000

> <Gold.PLP.part.buried>
1.2836

> <Gold.PLP.part.nonpolar>
-25.3476

> <Gold.PLP.part.repulsive>
1.6724

> <Gold.PLP.ligand.clash>
0.0000

> <Gold.PLP.ligand.torsion>
0.5242

> <Gold.PLP.Chemscore.Hbond>
3.5360

> <Gold.PLP.Chemscore.CHOScore>
0.4681

> <Gold.PLP.Chemscore.Metal>
0.0000

> <Gold.Chemscore.Hbonds>
donor molecule, donor type, donor heavy atom, donor atom, acceptor molecule, acceptor atom, score
      L1  H     1    22       P1  8028  0.11
      L1  H     9    30       P1  7948  0.98
      L1  H    16    20       P1 10952  0.91
      P1  H  7989  7998       L1     3  0.80
      P1  H 10785 10796       L1    15  0.70
      L1  C    17    33       P1 10186  0.49

> <Gold.PLP.Chemscore.Internal.Correction>
0.0125

> <Gold.Rescore>
     Score         DG    S(hbond)    S(metal)    S(lipo)     H(rot)  DE(clash)    DE(int)     intcor
     14.09     -18.09       3.08        0.00      64.98       2.06       2.38       1.61       ----

> <Gold.Chemscore.Fitness>
14.0938

> <Gold.Chemscore.DG>
-18.0915

> <Gold.Chemscore.ZeroCoef>
-5.4800

> <Gold.Chemscore.Hbond>
3.0800

> <Gold.Chemscore.Metal>
0.0000

> <Gold.Chemscore.Lipo>
64.9838

> <Gold.Chemscore.Internal_Hbond>
0.0000

> <Gold.Chemscore.DEClash>
2.3838

> <Gold.Chemscore.DEInternal>
1.6139

> <Gold.Chemscore.Rot>
2.0620

> <Gold.Chemscore.Internal.Correction>
   9.000000E+99

> <Gold.Chemscore.Hbonds>
donor molecule, donor type, donor heavy atom, donor atom, acceptor molecule, acceptor atom, score
      L1  H     1    22       P1  8028  0.10
      L1  H     9    30       P1  7948  0.93
      L1  H    16    20       P1 10952  0.50
      P1  H  7989  7998       L1     3  0.77
      P1  H 10785 10796       L1    15  0.30

> <Gold.Chemscore.Hbond.Weighted>
-10.2872

> <Gold.Chemscore.Metal.Weighted>
-0.0000

> <Gold.Chemscore.Lipo.Weighted>
-7.6031

> <Gold.Chemscore.Internal_Hbond.Weighted>
0.0000

> <Gold.Chemscore.DEClash.Weighted>
2.3838

> <Gold.Chemscore.DEInternal.Weighted>
1.6139

> <Gold.Chemscore.Rot.Weighted>
5.2788

> <Gold.Chemscore.Internal.Correction.Weighted>
   9.000000E+99

> <Gold.Protein.RotatedTorsions>
[ 6907 6896 6895 6894 ] final   -0.30 input  -60.11 | X-H torsion
[ 7974 7965 7964 7962 ] final   16.35 input  175.53 | X-H torsion
[ 8008 7997 7996 7995 ] final  -57.15 input   59.86 | X-H torsion
[ 10167 10162 10161 10158 ] final   26.52 input  -65.29 | X-H torsion
[ 10718 10713 10712 10709 ] final -169.14 input   66.30 | X-H torsion
[ 10763 10752 10751 10750 ] final  -91.88 input  -60.55 | X-H torsion
[ 11005 11000 10999 10996 ] final  -20.99 input  -57.11 | X-H torsion

> <Gold.Protein.ActiveResidues>
 VAL166  LYS551  ARG553  GLY616  TRP617  ASP618  TYR619  PRO620  LYS621  CYS622 
 ASP623  PHE694  ASN695  SER759  ASP760  ASP761  ALA762  ILE779  LEU786  VAL792 
 PHE793  MET794  SER795  GLU796  ALA797  LYS798  CYS799  TRP800  GLU811  SER814 

> <Gold.Protein.RotatedAtoms>
  151.5645  135.1064  159.9980 H   0  0  0  0  0  0  0  0  0  0  0  0  # atno 6907 bound_to 6896
  152.4430  133.7480  159.6688 H   0  0  0  0  0  0  0  0  0  0  0  0  # atno 6908 bound_to 6896
  150.8340  133.7976  159.3111 H   0  0  0  0  0  0  0  0  0  0  0  0  # atno 6909 bound_to 6896
  146.2252  139.8760  142.8579 H   0  0  0  0  0  0  0  0  0  0  0  0  # atno 7974 bound_to 7965
  154.4257  140.1113  156.5751 H   0  0  0  0  0  0  0  0  0  0  0  0  # atno 8008 bound_to 7997
  155.6171  140.3495  155.4621 H   0  0  0  0  0  0  0  0  0  0  0  0  # atno 8009 bound_to 7997
  156.0053  140.1208  157.0496 H   0  0  0  0  0  0  0  0  0  0  0  0  # atno 8010 bound_to 7997
  140.5015  144.0306  150.6335 H   0  0  0  0  0  0  0  0  0  0  0  0  # atno 10167 bound_to 10162
  156.7072  130.9219  151.3086 H   0  0  0  0  0  0  0  0  0  0  0  0  # atno 10718 bound_to 10713
  154.6805  135.5251  153.8257 H   0  0  0  0  0  0  0  0  0  0  0  0  # atno 10763 bound_to 10752
  153.0561  135.6551  154.0583 H   0  0  0  0  0  0  0  0  0  0  0  0  # atno 10764 bound_to 10752
  154.0470  135.2972  155.3326 H   0  0  0  0  0  0  0  0  0  0  0  0  # atno 10765 bound_to 10752
  140.8518  133.7851  155.9975 H   0  0  0  0  0  0  0  0  0  0  0  0  # atno 11005 bound_to 11000
  145.2560  141.0061  143.3853 LP  0  0  0  0  0  0  0  0  0  0  0  0  # atno 17320 bound_to 7965
  144.9336  139.4270  143.6483 LP  0  0  0  0  0  0  0  0  0  0  0  0  # atno 17321 bound_to 7965
  140.3604  143.2911  152.0390 LP  0  0  0  0  0  0  0  0  0  0  0  0  # atno 17342 bound_to 10162
  139.4873  144.6307  151.7075 LP  0  0  0  0  0  0  0  0  0  0  0  0  # atno 17343 bound_to 10162
  157.6950  130.9272  150.0619 LP  0  0  0  0  0  0  0  0  0  0  0  0  # atno 17370 bound_to 10713
  156.1686  130.3646  149.9196 LP  0  0  0  0  0  0  0  0  0  0  0  0  # atno 17371 bound_to 10713
  140.8781  134.2644  157.5158 LP  0  0  0  0  0  0  0  0  0  0  0  0  # atno 17394 bound_to 11000
  139.8704  134.9601  156.4354 LP  0  0  0  0  0  0  0  0  0  0  0  0  # atno 17395 bound_to 11000

$$$$
