AV-unprocessed.smi:1092|AV-procd|sdf|4737|dock10
  -GOLD-   22720 3273D 1   1.00000     0.00000
 Structure written by MMmdl.
 43 45  0  0  0  0  0  0  0  0  1 V2000
  148.1011  139.6935  156.0851 C   0  0  0  0  0  0  0  0  0  0  0  0
  148.6382  140.7080  155.0565 C   0  0  0  0  0  0  0  0  0  0  0  0
  147.7504  140.7114  153.8003 C   0  0  0  0  0  0  0  0  0  0  0  0
  148.5117  142.0028  155.6133 O   0  0  0  0  0  0  0  0  0  0  0  0
  150.1239  140.4950  154.6523 C   0  0  0  0  0  0  0  0  0  0  0  0
  151.0785  140.6748  155.7561 N   0  0  0  0  0  0  0  0  0  0  0  0
  150.8409  141.7875  156.5285 N   0  0  0  0  0  0  0  0  0  0  0  0
  151.5692  142.0702  157.5614 C   0  0  0  0  0  0  0  0  0  0  0  0
  151.2355  143.3189  158.2857 C   0  0  0  0  0  0  0  0  0  0  0  0
  152.1960  144.3536  158.3554 C   0  0  0  0  0  0  0  0  0  0  0  0
  151.8848  145.5412  159.0459 C   0  0  0  0  0  0  0  0  0  0  0  0
  150.6288  145.6899  159.6678 C   0  0  0  0  0  0  0  0  0  0  0  0
  149.6799  144.6500  159.6066 C   0  0  0  0  0  0  0  0  0  0  0  0
  149.9800  143.4582  158.9186 C   0  0  0  0  0  0  0  0  0  0  0  0
  152.6875  141.1136  157.8646 C   0  0  0  0  0  0  0  0  0  0  0  0
  153.5626  141.2601  159.0632 C   0  0  0  0  0  0  0  0  0  0  0  0
  154.8196  140.6115  159.0980 C   0  0  0  0  0  0  0  0  0  0  0  0
  155.6528  140.7308  160.2273 C   0  0  0  0  0  0  0  0  0  0  0  0
  155.2353  141.4912  161.3355 C   0  0  0  0  0  0  0  0  0  0  0  0
  153.9809  142.1288  161.3164 C   0  0  0  0  0  0  0  0  0  0  0  0
  153.1461  142.0104  160.1886 C   0  0  0  0  0  0  0  0  0  0  0  0
  152.9096  140.0965  157.1051 N   0  0  0  0  0  0  0  0  0  0  0  0
  152.1150  139.8172  155.9890 C   0  0  0  0  0  0  0  0  0  0  0  0
  152.3257  138.8449  155.2644 O   0  0  0  0  0  0  0  0  0  0  0  0
  148.1945  138.6718  155.7163 H   0  0  0  0  0  0  0  0  0  0  0  0
  147.0466  139.8693  156.3000 H   0  0  0  0  0  0  0  0  0  0  0  0
  148.6347  139.7554  157.0342 H   0  0  0  0  0  0  0  0  0  0  0  0
  147.7684  139.7401  153.3048 H   0  0  0  0  0  0  0  0  0  0  0  0
  148.0851  141.4556  153.0767 H   0  0  0  0  0  0  0  0  0  0  0  0
  146.7111  140.9341  154.0453 H   0  0  0  0  0  0  0  0  0  0  0  0
  148.1466  141.9228  156.4811 H   0  0  0  0  0  0  0  0  0  0  0  0
  150.2381  139.4961  154.2282 H   0  0  0  0  0  0  0  0  0  0  0  0
  150.3896  141.1641  153.8317 H   0  0  0  0  0  0  0  0  0  0  0  0
  153.1614  144.2545  157.8794 H   0  0  0  0  0  0  0  0  0  0  0  0
  152.6102  146.3394  159.0981 H   0  0  0  0  0  0  0  0  0  0  0  0
  150.3943  146.6019  160.1968 H   0  0  0  0  0  0  0  0  0  0  0  0
  148.7214  144.7657  160.0910 H   0  0  0  0  0  0  0  0  0  0  0  0
  149.2484  142.6638  158.8929 H   0  0  0  0  0  0  0  0  0  0  0  0
  155.1594  140.0247  158.2566 H   0  0  0  0  0  0  0  0  0  0  0  0
  156.6132  140.2368  160.2429 H   0  0  0  0  0  0  0  0  0  0  0  0
  155.8741  141.5807  162.2016 H   0  0  0  0  0  0  0  0  0  0  0  0
  153.6557  142.7059  162.1695 H   0  0  0  0  0  0  0  0  0  0  0  0
  152.1800  142.4934  160.2030 H   0  0  0  0  0  0  0  0  0  0  0  0
  1  2  1  0  0  0  0
  1 25  1  0  0  0  0
  1 26  1  0  0  0  0
  1 27  1  0  0  0  0
  2  3  1  0  0  0  0
  2  4  1  0  0  0  0
  2  5  1  0  0  0  0
  3 28  1  0  0  0  0
  3 29  1  0  0  0  0
  3 30  1  0  0  0  0
  4 31  1  0  0  0  0
  5  6  1  0  0  0  0
  5 32  1  0  0  0  0
  5 33  1  0  0  0  0
  6 23  1  0  0  0  0
  6  7  1  0  0  0  0
  7  8  2  0  0  0  0
  8  9  1  0  0  0  0
  8 15  1  0  0  0  0
  9 14  1  0  0  0  0
  9 10  2  0  0  0  0
 10 11  1  0  0  0  0
 10 34  1  0  0  0  0
 11 12  2  0  0  0  0
 11 35  1  0  0  0  0
 12 13  1  0  0  0  0
 12 36  1  0  0  0  0
 13 14  2  0  0  0  0
 13 37  1  0  0  0  0
 14 38  1  0  0  0  0
 15 16  1  0  0  0  0
 15 22  2  0  0  0  0
 16 21  1  0  0  0  0
 16 17  2  0  0  0  0
 17 18  1  0  0  0  0
 17 39  1  0  0  0  0
 18 19  2  0  0  0  0
 18 40  1  0  0  0  0
 19 20  1  0  0  0  0
 19 41  1  0  0  0  0
 20 21  2  0  0  0  0
 20 42  1  0  0  0  0
 21 43  1  0  0  0  0
 22 23  1  0  0  0  0
 23 24  2  0  0  0  0
M  END
> <s_m_source_file>
AV-unprocessed.smi

> <i_m_source_file_index>
1092

> <i_lp_mmshare_version>
43012

> <i_f3d_flags>
0

> <s_epik_input>
W2NIXTFbY0hdW2NIXVtjSF1bY0hdYzEtYyhubjJbQ0gyXUMoW0NIM10pKFtDSDNdKVtPSF0pYyhuYzI9TyktYzNbY0hdW2NIXVtjSF1bY0hdW2NIXTM=

> <s_epik_cmdline>
J2VwaWtfcHl0aG9uJywgJy1waCcsICc3LjAnLCAnLXRuJywgJzgnLCAnLW1hJywgJzIwMCcsICctbWV0YWxfYmluZGluZycsICctaW1hZScsICc8aW5maWxlLm1hZT4nLCAnLW9tYWUnLCAnPG91dGZpbGUubWFlPic=

> <r_lp_tautomer_probability>
1

> <r_epik_Ionization_Penalty>
4.51197e-08

> <r_epik_Ionization_Penalty_Charging>
4.64162e-09

> <r_epik_Ionization_Penalty_Neutral>
4.04781e-08

> <r_epik_State_Penalty>
-0

> <r_epik_Charging_Adjusted_Penalty>
4.64162e-09

> <i_epik_Tot_Q>
0

> <i_epik_Tot_abs_Q>
0

> <r_epik_Metal_State_Penalty>
-0

> <b_epik_Metal_Only>
0

> <s_lp_Force_Field>
OPLS_2005

> <r_lp_Energy>
39.3317

> <b_lp_Chiralities_Consistent>
1

> <s_lp_Variant>
AV-unprocessed.smi:1092-1

> <Gold.Version>
5.8.1

> <Gold.Id.Protein>
6NUR|6NUR_protein|mol2

> <Gold.PLP.Fitness>
51.9456

> <Gold.PLP.PLP>
-49.8622

> <Gold.PLP.part.hbond>
-1.7567

> <Gold.PLP.part.metal>
0.0000

> <Gold.PLP.part.buried>
-1.0918

> <Gold.PLP.part.nonpolar>
-45.8033

> <Gold.PLP.part.repulsive>
0.0749

> <Gold.PLP.ligand.clash>
0.0919

> <Gold.PLP.ligand.torsion>
1.5721

> <Gold.PLP.Chemscore.Hbond>
1.0000

> <Gold.PLP.Chemscore.CHOScore>
0.0000

> <Gold.PLP.Chemscore.Metal>
0.0000

> <Gold.Chemscore.Hbonds>
donor molecule, donor type, donor heavy atom, donor atom, acceptor molecule, acceptor atom, score
      P1  H  7997  8010       L1    22  1.00

> <Gold.PLP.Chemscore.Internal.Correction>
2.3194

> <Gold.Rescore>
     Score         DG    S(hbond)    S(metal)    S(lipo)     H(rot)  DE(clash)    DE(int)     intcor
     14.87     -18.98       0.03        0.00     149.35       1.59       0.19       3.92       ----

> <Gold.Chemscore.Fitness>
14.8726

> <Gold.Chemscore.DG>
-18.9828

> <Gold.Chemscore.ZeroCoef>
-5.4800

> <Gold.Chemscore.Hbond>
0.0312

> <Gold.Chemscore.Metal>
0.0000

> <Gold.Chemscore.Lipo>
149.3470

> <Gold.Chemscore.Internal_Hbond>
0.0000

> <Gold.Chemscore.DEClash>
0.1943

> <Gold.Chemscore.DEInternal>
3.9158

> <Gold.Chemscore.Rot>
1.5918

> <Gold.Chemscore.Internal.Correction>
   9.000000E+99

> <Gold.Chemscore.Hbonds>
donor molecule, donor type, donor heavy atom, donor atom, acceptor molecule, acceptor atom, score
      P1  H  7997  8010       L1    22  0.38

> <Gold.Chemscore.Hbond.Weighted>
-0.1041

> <Gold.Chemscore.Metal.Weighted>
-0.0000

> <Gold.Chemscore.Lipo.Weighted>
-17.4736

> <Gold.Chemscore.Internal_Hbond.Weighted>
0.0000

> <Gold.Chemscore.DEClash.Weighted>
0.1943

> <Gold.Chemscore.DEInternal.Weighted>
3.9158

> <Gold.Chemscore.Rot.Weighted>
4.0749

> <Gold.Chemscore.Internal.Correction.Weighted>
   9.000000E+99

> <Gold.Protein.RotatedTorsions>
[ 6907 6896 6895 6894 ] final  -56.11 input  -60.11 | X-H torsion
[ 7974 7965 7964 7962 ] final -129.20 input  175.53 | X-H torsion
[ 8008 7997 7996 7995 ] final   62.30 input   59.86 | X-H torsion
[ 10167 10162 10161 10158 ] final   32.29 input  -65.29 | X-H torsion
[ 10718 10713 10712 10709 ] final   60.90 input   66.30 | X-H torsion
[ 10763 10752 10751 10750 ] final  -66.65 input  -60.55 | X-H torsion
[ 11005 11000 10999 10996 ] final -129.50 input  -57.11 | X-H torsion

> <Gold.Protein.ActiveResidues>
 VAL166  LYS551  ARG553  GLY616  TRP617  ASP618  TYR619  PRO620  LYS621  CYS622 
 ASP623  PHE694  ASN695  SER759  ASP760  ASP761  ALA762  ILE779  LEU786  VAL792 
 PHE793  MET794  SER795  GLU796  ALA797  LYS798  CYS799  TRP800  GLU811  SER814 

> <Gold.Protein.RotatedAtoms>
  150.8195  134.7395  159.6759 H   0  0  0  0  0  0  0  0  0  0  0  0  # atno 6907 bound_to 6896
  152.4312  134.5771  159.9947 H   0  0  0  0  0  0  0  0  0  0  0  0  # atno 6908 bound_to 6896
  151.5959  133.3324  159.3073 H   0  0  0  0  0  0  0  0  0  0  0  0  # atno 6909 bound_to 6896
  144.9595  140.7432  143.4738 H   0  0  0  0  0  0  0  0  0  0  0  0  # atno 7974 bound_to 7965
  155.6121  140.3495  155.4625 H   0  0  0  0  0  0  0  0  0  0  0  0  # atno 8008 bound_to 7997
  156.0146  140.1240  157.0444 H   0  0  0  0  0  0  0  0  0  0  0  0  # atno 8009 bound_to 7997
  154.4293  140.1075  156.5864 H   0  0  0  0  0  0  0  0  0  0  0  0  # atno 8010 bound_to 7997
  140.4511  144.1046  150.6192 H   0  0  0  0  0  0  0  0  0  0  0  0  # atno 10167 bound_to 10162
  157.5788  130.8965  149.9394 H   0  0  0  0  0  0  0  0  0  0  0  0  # atno 10718 bound_to 10713
  154.3629  135.6112  153.5700 H   0  0  0  0  0  0  0  0  0  0  0  0  # atno 10763 bound_to 10752
  152.9793  135.5819  154.4612 H   0  0  0  0  0  0  0  0  0  0  0  0  # atno 10764 bound_to 10752
  154.4352  135.2849  155.1863 H   0  0  0  0  0  0  0  0  0  0  0  0  # atno 10765 bound_to 10752
  140.9426  134.1173  157.4137 H   0  0  0  0  0  0  0  0  0  0  0  0  # atno 11005 bound_to 11000
  145.2721  139.1950  143.4836 LP  0  0  0  0  0  0  0  0  0  0  0  0  # atno 17320 bound_to 7965
  146.3348  140.2669  142.8604 LP  0  0  0  0  0  0  0  0  0  0  0  0  # atno 17321 bound_to 7965
  140.4205  143.2614  151.9721 LP  0  0  0  0  0  0  0  0  0  0  0  0  # atno 17342 bound_to 10162
  139.4797  144.5835  151.7893 LP  0  0  0  0  0  0  0  0  0  0  0  0  # atno 17343 bound_to 10162
  156.0833  130.3670  150.0537 LP  0  0  0  0  0  0  0  0  0  0  0  0  # atno 17370 bound_to 10713
  156.8679  130.9514  151.3612 LP  0  0  0  0  0  0  0  0  0  0  0  0  # atno 17371 bound_to 10713
  139.8824  135.0041  156.6230 LP  0  0  0  0  0  0  0  0  0  0  0  0  # atno 17394 bound_to 11000
  140.7713  133.8736  155.8494 LP  0  0  0  0  0  0  0  0  0  0  0  0  # atno 17395 bound_to 11000

$$$$
