AV-unprocessed.smi:2227|AV-procd|sdf|9021|dock5
  -GOLD-   2272012223D 1   1.00000     0.00000
 Structure written by MMmdl.
 43 45  0  0  0  0  0  0  0  0  2 V2000
  145.8501  143.4367  153.7661 C   0  0  0  0  0  0  0  0  0  0  0  0
  145.7744  142.3745  154.8721 C   0  0  0  0  0  0  0  0  0  0  0  0
  146.4305  142.8648  156.1715 C   0  0  0  0  0  0  0  0  0  0  0  0
  146.3617  141.0689  154.4097 C   0  0  0  0  0  0  0  0  0  0  0  0
  145.6859  139.9162  154.3177 N   0  3  0  0  0  0  0  0  0  0  0  0
  146.5090  138.9065  153.9027 C   0  0  0  0  0  0  0  0  0  0  0  0
  147.7502  139.4623  153.7428 C   0  0  0  0  0  0  0  0  0  0  0  0
  147.6349  140.7910  154.0665 N   0  0  0  0  0  0  0  0  0  0  0  0
  148.7293  141.7733  154.0498 C   0  0  0  0  0  0  0  0  0  0  0  0
  149.8270  141.4176  155.0554 C   0  0  0  0  0  0  0  0  0  0  0  0
  150.4109  140.3374  154.9724 O   0  0  0  0  0  0  0  0  0  0  0  0
  150.0851  142.3315  156.0034 N   0  0  0  0  0  0  0  0  0  0  0  0
  151.0754  142.2005  157.0667 C   0  0  0  0  0  0  0  0  0  0  0  0
  150.7725  141.0123  157.9620 C   0  0  0  0  0  0  0  0  0  0  0  0
  151.8232  140.4155  158.8683 C   0  0  0  0  0  0  0  0  0  0  0  0
  151.3389  139.6450  157.6613 C   0  0  0  0  0  0  0  0  0  0  0  0
  151.2063  143.4679  157.8957 C   0  0  0  0  0  0  0  0  0  0  0  0
  152.3123  144.4651  157.6412 C   0  0  0  0  0  0  0  0  0  0  0  0
  152.3167  143.6380  158.9060 C   0  0  0  0  0  0  0  0  0  0  0  0
  145.3429  143.0996  152.8615 H   0  0  0  0  0  0  0  0  0  0  0  0
  146.8836  143.6627  153.5023 H   0  0  0  0  0  0  0  0  0  0  0  0
  145.3767  144.3668  154.0815 H   0  0  0  0  0  0  0  0  0  0  0  0
  144.7236  142.1922  155.0896 H   0  0  0  0  0  0  0  0  0  0  0  0
  146.3345  142.1211  156.9631 H   0  0  0  0  0  0  0  0  0  0  0  0
  145.9599  143.7828  156.5247 H   0  0  0  0  0  0  0  0  0  0  0  0
  147.4924  143.0702  156.0333 H   0  0  0  0  0  0  0  0  0  0  0  0
  146.1601  137.8940  153.7612 H   0  0  0  0  0  0  0  0  0  0  0  0
  148.6870  139.0193  153.4364 H   0  0  0  0  0  0  0  0  0  0  0  0
  149.1584  141.7879  153.0473 H   0  0  0  0  0  0  0  0  0  0  0  0
  148.3154  142.7663  154.2305 H   0  0  0  0  0  0  0  0  0  0  0  0
  149.5542  143.1904  155.9881 H   0  0  0  0  0  0  0  0  0  0  0  0
  152.0468  142.0077  156.6064 H   0  0  0  0  0  0  0  0  0  0  0  0
  149.7622  141.0246  158.3674 H   0  0  0  0  0  0  0  0  0  0  0  0
  152.8302  140.8252  158.8252 H   0  0  0  0  0  0  0  0  0  0  0  0
  151.5022  140.0694  159.8487 H   0  0  0  0  0  0  0  0  0  0  0  0
  150.6952  138.7854  157.8357 H   0  0  0  0  0  0  0  0  0  0  0  0
  152.0273  139.5499  156.8242 H   0  0  0  0  0  0  0  0  0  0  0  0
  150.2470  143.8944  158.1836 H   0  0  0  0  0  0  0  0  0  0  0  0
  153.0558  144.2220  156.8849 H   0  0  0  0  0  0  0  0  0  0  0  0
  152.0651  145.5210  157.7293 H   0  0  0  0  0  0  0  0  0  0  0  0
  152.0731  144.1424  159.8389 H   0  0  0  0  0  0  0  0  0  0  0  0
  153.0657  142.8526  158.9825 H   0  0  0  0  0  0  0  0  0  0  0  0
  144.7020  139.8102  154.5305 H   0  0  0  0  0  0  0  0  0  0  0  0
  1  2  1  0  0  0  0
  1 20  1  0  0  0  0
  1 21  1  0  0  0  0
  1 22  1  0  0  0  0
  2  3  1  0  0  0  0
  2  4  1  0  0  0  0
  2 23  1  0  0  0  0
  3 24  1  0  0  0  0
  3 25  1  0  0  0  0
  3 26  1  0  0  0  0
  4  8  1  0  0  0  0
  4  5  2  0  0  0  0
  5  6  1  0  0  0  0
  5 43  1  0  0  0  0
  6  7  2  0  0  0  0
  6 27  1  0  0  0  0
  7  8  1  0  0  0  0
  7 28  1  0  0  0  0
  8  9  1  0  0  0  0
  9 10  1  0  0  0  0
  9 29  1  0  0  0  0
  9 30  1  0  0  0  0
 10 11  2  0  0  0  0
 10 12  1  0  0  0  0
 12 13  1  0  0  0  0
 12 31  1  0  0  0  0
 13 14  1  0  0  0  0
 13 17  1  0  0  0  0
 13 32  1  0  0  0  0
 14 16  1  0  0  0  0
 14 15  1  0  0  0  0
 14 33  1  0  0  0  0
 15 16  1  0  0  0  0
 15 34  1  0  0  0  0
 15 35  1  0  0  0  0
 16 36  1  0  0  0  0
 16 37  1  0  0  0  0
 17 19  1  0  0  0  0
 17 18  1  0  0  0  0
 17 38  1  0  0  0  0
 18 19  1  0  0  0  0
 18 39  1  0  0  0  0
 18 40  1  0  0  0  0
 19 41  1  0  0  0  0
 19 42  1  0  0  0  0
M  CHG  1   5   1
M  END
> <s_m_source_file>
AV-unprocessed.smi

> <i_m_source_file_index>
2227

> <i_lp_mmshare_version>
43012

> <i_f3d_flags>
0

> <s_epik_input>
W0NIM11bQ0hdKFtDSDNdKWMxbltjSF1bY0hdbjFbQ0gyXUMoPU8pW05IXVtDSF0oW0NIXTJbQ0gyXVtDSDJdMilbQ0hdM1tDSDJdW0NIMl0z

> <s_epik_cmdline>
J2VwaWtfcHl0aG9uJywgJy1waCcsICc3LjAnLCAnLXRuJywgJzgnLCAnLW1hJywgJzIwMCcsICctbWV0YWxfYmluZGluZycsICctaW1hZScsICc8aW5maWxlLm1hZT4nLCAnLW9tYWUnLCAnPG91dGZpbGUubWFlPic=

> <r_lp_tautomer_probability>
1

> <r_epik_Ionization_Penalty>
0.258813

> <r_epik_Ionization_Penalty_Charging>
0

> <r_epik_Ionization_Penalty_Neutral>
0.258813

> <r_epik_State_Penalty>
0.250457

> <r_epik_Charging_Adjusted_Penalty>
0.250457

> <i_epik_Tot_Q>
1

> <i_epik_Tot_abs_Q>
1

> <r_epik_Metal_State_Penalty>
0.539096

> <b_epik_Metal_Only>
0

> <s_lp_Force_Field>
OPLS_2005

> <r_lp_Energy>
28.4044

> <b_lp_Chiralities_Consistent>
1

> <s_lp_Variant>
AV-unprocessed.smi:2227-1

> <Gold.Version>
5.8.1

> <Gold.Id.Protein>
6NUR|6NUR_protein|mol2

> <Gold.PLP.Fitness>
47.1598

> <Gold.PLP.PLP>
-39.1793

> <Gold.PLP.part.hbond>
-3.0000

> <Gold.PLP.part.metal>
0.0000

> <Gold.PLP.part.buried>
-3.1178

> <Gold.PLP.part.nonpolar>
-33.7607

> <Gold.PLP.part.repulsive>
0.1762

> <Gold.PLP.ligand.clash>
0.0000

> <Gold.PLP.ligand.torsion>
1.1996

> <Gold.PLP.Chemscore.Hbond>
2.0000

> <Gold.PLP.Chemscore.CHOScore>
0.7342

> <Gold.PLP.Chemscore.Metal>
0.0000

> <Gold.Chemscore.Hbonds>
donor molecule, donor type, donor heavy atom, donor atom, acceptor molecule, acceptor atom, score
      L1  H     5    43       P1 10175  0.01
      L1  H    12    31       P1  8028  1.00
      P1  H  7989  7998       L1    11  0.80
      L1  C     7    28       P1  7957  0.45

> <Gold.PLP.Chemscore.Internal.Correction>
2.1770

> <Gold.Rescore>
     Score         DG    S(hbond)    S(metal)    S(lipo)     H(rot)  DE(clash)    DE(int)     intcor
     15.02     -16.78       1.53        0.00      90.94       1.74       0.23       1.54       ----

> <Gold.Chemscore.Fitness>
15.0172

> <Gold.Chemscore.DG>
-16.7840

> <Gold.Chemscore.ZeroCoef>
-5.4800

> <Gold.Chemscore.Hbond>
1.5317

> <Gold.Chemscore.Metal>
0.0000

> <Gold.Chemscore.Lipo>
90.9443

> <Gold.Chemscore.Internal_Hbond>
0.0000

> <Gold.Chemscore.DEClash>
0.2311

> <Gold.Chemscore.DEInternal>
1.5357

> <Gold.Chemscore.Rot>
1.7392

> <Gold.Chemscore.Internal.Correction>
   9.000000E+99

> <Gold.Chemscore.Hbonds>
donor molecule, donor type, donor heavy atom, donor atom, acceptor molecule, acceptor atom, score
      L1  H     5    43       P1 10175  0.01
      L1  H    12    31       P1  8028  1.00
      P1  H  7989  7998       L1    11  0.11

> <Gold.Chemscore.Hbond.Weighted>
-5.1159

> <Gold.Chemscore.Metal.Weighted>
-0.0000

> <Gold.Chemscore.Lipo.Weighted>
-10.6405

> <Gold.Chemscore.Internal_Hbond.Weighted>
0.0000

> <Gold.Chemscore.DEClash.Weighted>
0.2311

> <Gold.Chemscore.DEInternal.Weighted>
1.5357

> <Gold.Chemscore.Rot.Weighted>
4.4524

> <Gold.Chemscore.Internal.Correction.Weighted>
   9.000000E+99

> <Gold.Protein.RotatedTorsions>
[ 6907 6896 6895 6894 ] final  118.95 input  -60.11 | X-H torsion
[ 7974 7965 7964 7962 ] final   68.63 input  175.53 | X-H torsion
[ 8008 7997 7996 7995 ] final    5.63 input   59.86 | X-H torsion
[ 10167 10162 10161 10158 ] final  102.20 input  -65.29 | X-H torsion
[ 10718 10713 10712 10709 ] final   75.99 input   66.30 | X-H torsion
[ 10763 10752 10751 10750 ] final   26.82 input  -60.55 | X-H torsion
[ 11005 11000 10999 10996 ] final   70.77 input  -57.11 | X-H torsion

> <Gold.Protein.ActiveResidues>
 VAL166  LYS551  ARG553  GLY616  TRP617  ASP618  TYR619  PRO620  LYS621  CYS622 
 ASP623  PHE694  ASN695  SER759  ASP760  ASP761  ALA762  ILE779  LEU786  VAL792 
 PHE793  MET794  SER795  GLU796  ALA797  LYS798  CYS799  TRP800  GLU811  SER814 

> <Gold.Protein.RotatedAtoms>
  152.4507  133.7624  159.6753 H   0  0  0  0  0  0  0  0  0  0  0  0  # atno 6907 bound_to 6896
  150.8418  133.7913  159.3064 H   0  0  0  0  0  0  0  0  0  0  0  0  # atno 6908 bound_to 6896
  151.5536  135.1069  160.0007 H   0  0  0  0  0  0  0  0  0  0  0  0  # atno 6909 bound_to 6896
  145.8002  139.2978  143.1159 H   0  0  0  0  0  0  0  0  0  0  0  0  # atno 7974 bound_to 7965
  154.7308  140.2730  155.6458 H   0  0  0  0  0  0  0  0  0  0  0  0  # atno 8008 bound_to 7997
  156.2849  140.2716  156.1933 H   0  0  0  0  0  0  0  0  0  0  0  0  # atno 8009 bound_to 7997
  155.0384  140.0371  157.2490 H   0  0  0  0  0  0  0  0  0  0  0  0  # atno 8010 bound_to 7997
  139.7371  144.7021  151.0633 H   0  0  0  0  0  0  0  0  0  0  0  0  # atno 10167 bound_to 10162
  157.6656  130.9753  150.1433 H   0  0  0  0  0  0  0  0  0  0  0  0  # atno 10718 bound_to 10713
  153.0597  135.6551  154.0492 H   0  0  0  0  0  0  0  0  0  0  0  0  # atno 10763 bound_to 10752
  154.0163  135.2924  155.3388 H   0  0  0  0  0  0  0  0  0  0  0  0  # atno 10764 bound_to 10752
  154.6929  135.5275  153.8486 H   0  0  0  0  0  0  0  0  0  0  0  0  # atno 10765 bound_to 10752
  139.9580  134.7111  156.0710 H   0  0  0  0  0  0  0  0  0  0  0  0  # atno 11005 bound_to 11000
  145.9885  140.8622  143.0078 LP  0  0  0  0  0  0  0  0  0  0  0  0  # atno 17320 bound_to 7965
  144.6770  140.2182  143.7369 LP  0  0  0  0  0  0  0  0  0  0  0  0  # atno 17321 bound_to 7965
  140.7780  143.4971  150.9819 LP  0  0  0  0  0  0  0  0  0  0  0  0  # atno 17342 bound_to 10162
  139.8659  143.7254  152.3170 LP  0  0  0  0  0  0  0  0  0  0  0  0  # atno 17343 bound_to 10162
  156.2250  130.3677  149.8511 LP  0  0  0  0  0  0  0  0  0  0  0  0  # atno 17370 bound_to 10713
  156.6354  130.8683  151.3503 LP  0  0  0  0  0  0  0  0  0  0  0  0  # atno 17371 bound_to 10713
  141.1254  133.6601  156.3322 LP  0  0  0  0  0  0  0  0  0  0  0  0  # atno 17394 bound_to 11000
  140.5565  134.5976  157.5422 LP  0  0  0  0  0  0  0  0  0  0  0  0  # atno 17395 bound_to 11000

$$$$
