AV-unprocessed.smi:2812|AV-procd|sdf|10836|dock8
  -GOLD-   2272015273D 1   1.00000     0.00000
 Structure written by MMmdl.
 55 56  0  0  0  0  0  0  0  0  2 V2000
  147.1204  132.3241  160.3713 C   0  0  0  0  0  0  0  0  0  0  0  0
  147.2098  133.6515  161.1073 C   0  0  0  0  0  0  0  0  0  0  0  0
  146.9161  133.6926  162.5249 C   0  0  0  0  0  0  0  0  0  0  0  0
  146.9815  134.8603  163.1784 C   0  0  0  0  0  0  0  0  0  0  0  0
  147.3441  136.0486  162.5283 N   0  0  0  0  0  0  0  0  0  0  0  0
  147.4025  137.2716  163.3333 C   0  0  0  0  0  0  0  0  0  0  0  0
  147.6665  136.0859  161.2035 C   0  0  0  0  0  0  0  0  0  0  0  0
  148.0552  137.1317  160.6776 O   0  0  0  0  0  0  0  0  0  0  0  0
  147.5381  134.8044  160.4669 C   0  0  0  0  0  0  0  0  0  0  0  0
  147.8382  134.7606  159.0960 N   0  0  0  0  0  0  0  0  0  0  0  0
  146.9627  134.5298  158.1016 C   0  0  0  0  0  0  0  0  0  0  0  0
  145.7612  134.3081  158.2584 O   0  0  0  0  0  0  0  0  0  0  0  0
  147.5582  134.5616  156.9015 N   0  0  0  0  0  0  0  0  0  0  0  0
  146.8659  134.3771  155.6303 C   0  0  0  0  0  0  0  0  0  0  0  0
  147.7394  134.7944  154.4142 C   0  0  1  0  0  0  0  0  0  0  0  0
  149.2450  134.4971  154.6045 C   0  0  0  0  0  0  0  0  0  0  0  0
  149.5480  132.9932  154.5284 C   0  0  0  0  0  0  0  0  0  0  0  0
  149.0046  132.4127  153.2166 C   0  0  0  0  0  0  0  0  0  0  0  0
  147.5120  132.7355  153.0374 C   0  0  0  0  0  0  0  0  0  0  0  0
  147.2707  134.2012  153.1273 N   0  3  1  0  0  0  0  0  0  0  0  0
  145.8938  134.6077  152.7423 C   0  0  0  0  0  0  0  0  0  0  0  0
  145.4295  133.9512  151.4253 C   0  0  0  0  0  0  0  0  0  0  0  0
  144.5943  134.9186  150.5693 C   0  0  0  0  0  0  0  0  0  0  0  0
  144.6368  132.6672  151.7114 C   0  0  0  0  0  0  0  0  0  0  0  0
  146.7737  131.5293  161.0320 H   0  0  0  0  0  0  0  0  0  0  0  0
  148.0980  132.0369  159.9834 H   0  0  0  0  0  0  0  0  0  0  0  0
  146.4221  132.3928  159.5367 H   0  0  0  0  0  0  0  0  0  0  0  0
  146.6386  132.7935  163.0555 H   0  0  0  0  0  0  0  0  0  0  0  0
  146.7708  134.9532  164.2339 H   0  0  0  0  0  0  0  0  0  0  0  0
  146.7953  138.0595  162.8846 H   0  0  0  0  0  0  0  0  0  0  0  0
  148.4296  137.6320  163.4042 H   0  0  0  0  0  0  0  0  0  0  0  0
  147.0358  137.1240  164.3496 H   0  0  0  0  0  0  0  0  0  0  0  0
  148.8179  134.8050  158.8577 H   0  0  0  0  0  0  0  0  0  0  0  0
  148.5513  134.7407  156.8630 H   0  0  0  0  0  0  0  0  0  0  0  0
  146.5792  133.3283  155.5653 H   0  0  0  0  0  0  0  0  0  0  0  0
  145.9332  134.9421  155.6577 H   0  0  0  0  0  0  0  0  0  0  0  0
  147.6516  135.8759  154.2998 H   0  0  0  0  0  0  0  0  0  0  0  0
  149.8081  135.0090  153.8229 H   0  0  0  0  0  0  0  0  0  0  0  0
  149.6098  134.9069  155.5466 H   0  0  0  0  0  0  0  0  0  0  0  0
  150.6231  132.8238  154.5944 H   0  0  0  0  0  0  0  0  0  0  0  0
  149.1022  132.4756  155.3782 H   0  0  0  0  0  0  0  0  0  0  0  0
  149.5676  132.8227  152.3770 H   0  0  0  0  0  0  0  0  0  0  0  0
  149.1590  131.3336  153.1937 H   0  0  0  0  0  0  0  0  0  0  0  0
  147.1884  132.3619  152.0665 H   0  0  0  0  0  0  0  0  0  0  0  0
  146.9151  132.2078  153.7817 H   0  0  0  0  0  0  0  0  0  0  0  0
  145.2072  134.3679  153.5559 H   0  0  0  0  0  0  0  0  0  0  0  0
  145.8486  135.6907  152.6163 H   0  0  0  0  0  0  0  0  0  0  0  0
  146.3037  133.6601  150.8435 H   0  0  0  0  0  0  0  0  0  0  0  0
  143.6964  135.2421  151.0969 H   0  0  0  0  0  0  0  0  0  0  0  0
  144.2789  134.4456  149.6389 H   0  0  0  0  0  0  0  0  0  0  0  0
  145.1624  135.8099  150.3019 H   0  0  0  0  0  0  0  0  0  0  0  0
  143.7401  132.8758  152.2960 H   0  0  0  0  0  0  0  0  0  0  0  0
  145.2382  131.9491  152.2696 H   0  0  0  0  0  0  0  0  0  0  0  0
  144.3247  132.1828  150.7857 H   0  0  0  0  0  0  0  0  0  0  0  0
  147.8676  134.6176  152.4269 H   0  0  0  0  0  0  0  0  0  0  0  0
  1  2  1  0  0  0  0
  1 25  1  0  0  0  0
  1 26  1  0  0  0  0
  1 27  1  0  0  0  0
  2  9  2  0  0  0  0
  2  3  1  0  0  0  0
  3  4  2  0  0  0  0
  3 28  1  0  0  0  0
  4  5  1  0  0  0  0
  4 29  1  0  0  0  0
  5  6  1  0  0  0  0
  5  7  1  0  0  0  0
  6 30  1  0  0  0  0
  6 31  1  0  0  0  0
  6 32  1  0  0  0  0
  7  8  2  0  0  0  0
  7  9  1  0  0  0  0
  9 10  1  0  0  0  0
 10 11  1  0  0  0  0
 10 33  1  0  0  0  0
 11 12  2  0  0  0  0
 11 13  1  0  0  0  0
 13 14  1  0  0  0  0
 13 34  1  0  0  0  0
 14 15  1  0  0  0  0
 14 35  1  0  0  0  0
 14 36  1  0  0  0  0
 15 20  1  0  0  0  0
 15 16  1  0  0  0  0
 15 37  1  0  0  0  0
 16 17  1  0  0  0  0
 16 38  1  0  0  0  0
 16 39  1  0  0  0  0
 17 18  1  0  0  0  0
 17 40  1  0  0  0  0
 17 41  1  0  0  0  0
 18 19  1  0  0  0  0
 18 42  1  0  0  0  0
 18 43  1  0  0  0  0
 19 20  1  0  0  0  0
 19 44  1  0  0  0  0
 19 45  1  0  0  0  0
 20 21  1  0  0  0  0
 20 55  1  0  0  0  0
 21 22  1  0  0  0  0
 21 46  1  0  0  0  0
 21 47  1  0  0  0  0
 22 23  1  0  0  0  0
 22 24  1  0  0  0  0
 22 48  1  0  0  0  0
 23 49  1  0  0  0  0
 23 50  1  0  0  0  0
 23 51  1  0  0  0  0
 24 52  1  0  0  0  0
 24 53  1  0  0  0  0
 24 54  1  0  0  0  0
M  CHG  1  20   1
M  END
> <s_m_source_file>
AV-unprocessed.smi

> <i_m_source_file_index>
2812

> <i_lp_mmshare_version>
43012

> <i_f3d_flags>
0

> <s_epik_input>
W0NIM11jMVtjSF1bY0hdbihbQ0gzXSljKD1PKWMxW05IXUMoPU8pW05IXVtDSDJdW0NAQEhdMltDSDJdW0NIMl1bQ0gyXVtDSDJdTjJbQ0gyXVtDSF0oW0NIM10pW0NIM10=

> <s_epik_cmdline>
J2VwaWtfcHl0aG9uJywgJy1waCcsICc3LjAnLCAnLXRuJywgJzgnLCAnLW1hJywgJzIwMCcsICctbWV0YWxfYmluZGluZycsICctaW1hZScsICc8aW5maWxlLm1hZT4nLCAnLW9tYWUnLCAnPG91dGZpbGUubWFlPic=

> <r_lp_tautomer_probability>
1

> <r_epik_Ionization_Penalty>
0.0010902

> <r_epik_Ionization_Penalty_Charging>
0.00107091

> <r_epik_Ionization_Penalty_Neutral>
1.92854e-05

> <r_epik_State_Penalty>
0.000697184

> <r_epik_Charging_Adjusted_Penalty>
0.0017681

> <i_epik_Tot_Q>
1

> <i_epik_Tot_abs_Q>
1

> <r_epik_Metal_State_Penalty>
-0

> <b_epik_Metal_Only>
0

> <s_lp_Force_Field>
OPLS_2005

> <r_lp_Energy>
38.3811

> <b_lp_Chiralities_Consistent>
1

> <s_lp_Variant>
AV-unprocessed.smi:2812-4

> <Gold.Version>
5.8.1

> <Gold.Id.Protein>
6NUR|6NUR_protein|mol2

> <Gold.PLP.Fitness>
49.5762

> <Gold.PLP.PLP>
-41.2981

> <Gold.PLP.part.hbond>
-3.0000

> <Gold.PLP.part.metal>
0.0000

> <Gold.PLP.part.buried>
-0.4811

> <Gold.PLP.part.nonpolar>
-37.7575

> <Gold.PLP.part.repulsive>
0.0609

> <Gold.PLP.ligand.clash>
0.0000

> <Gold.PLP.ligand.torsion>
1.4946

> <Gold.PLP.Chemscore.Hbond>
3.5296

> <Gold.PLP.Chemscore.CHOScore>
0.0000

> <Gold.PLP.Chemscore.Metal>
0.0000

> <Gold.Chemscore.Hbonds>
donor molecule, donor type, donor heavy atom, donor atom, acceptor molecule, acceptor atom, score
      L1  H    20    55       P1  7948  1.95
      P1  H  6931  6943       L1     8  0.85
      P1  H  6934  6947       L1     8  0.64

> <Gold.PLP.Chemscore.Internal.Correction>
0.6786

> <Gold.Rescore>
     Score         DG    S(hbond)    S(metal)    S(lipo)     H(rot)  DE(clash)    DE(int)     intcor
     19.11     -20.77       2.51        0.00      92.30       1.52       0.31       1.35       ----

> <Gold.Chemscore.Fitness>
19.1091

> <Gold.Chemscore.DG>
-20.7662

> <Gold.Chemscore.ZeroCoef>
-5.4800

> <Gold.Chemscore.Hbond>
2.5051

> <Gold.Chemscore.Metal>
0.0000

> <Gold.Chemscore.Lipo>
92.3031

> <Gold.Chemscore.Internal_Hbond>
0.0000

> <Gold.Chemscore.DEClash>
0.3077

> <Gold.Chemscore.DEInternal>
1.3495

> <Gold.Chemscore.Rot>
1.5157

> <Gold.Chemscore.Internal.Correction>
   9.000000E+99

> <Gold.Chemscore.Hbonds>
donor molecule, donor type, donor heavy atom, donor atom, acceptor molecule, acceptor atom, score
      L1  H    20    55       P1  7948  0.55
      P1  H  6931  6943       L1     8  0.71
      P1  H  6934  6947       L1     8  0.61

> <Gold.Chemscore.Hbond.Weighted>
-8.3670

> <Gold.Chemscore.Metal.Weighted>
-0.0000

> <Gold.Chemscore.Lipo.Weighted>
-10.7995

> <Gold.Chemscore.Internal_Hbond.Weighted>
0.0000

> <Gold.Chemscore.DEClash.Weighted>
0.3077

> <Gold.Chemscore.DEInternal.Weighted>
1.3495

> <Gold.Chemscore.Rot.Weighted>
3.8803

> <Gold.Chemscore.Internal.Correction.Weighted>
   9.000000E+99

> <Gold.Protein.RotatedTorsions>
[ 6907 6896 6895 6894 ] final  -97.74 input  -60.11 | X-H torsion
[ 7974 7965 7964 7962 ] final   20.48 input  175.53 | X-H torsion
[ 8008 7997 7996 7995 ] final  143.68 input   59.86 | X-H torsion
[ 10167 10162 10161 10158 ] final -107.09 input  -65.29 | X-H torsion
[ 10718 10713 10712 10709 ] final  168.43 input   66.30 | X-H torsion
[ 10763 10752 10751 10750 ] final   75.21 input  -60.55 | X-H torsion
[ 11005 11000 10999 10996 ] final  149.30 input  -57.11 | X-H torsion

> <Gold.Protein.ActiveResidues>
 VAL166  LYS551  ARG553  GLY616  TRP617  ASP618  TYR619  PRO620  LYS621  CYS622 
 ASP623  PHE694  ASN695  SER759  ASP760  ASP761  ALA762  ILE779  LEU786  VAL792 
 PHE793  MET794  SER795  GLU796  ALA797  LYS798  CYS799  TRP800  GLU811  SER814 

> <Gold.Protein.RotatedAtoms>
  150.7025  134.1302  159.4066 H   0  0  0  0  0  0  0  0  0  0  0  0  # atno 6907 bound_to 6896
  151.9288  135.0263  160.0537 H   0  0  0  0  0  0  0  0  0  0  0  0  # atno 6908 bound_to 6896
  152.2193  133.4936  159.5190 H   0  0  0  0  0  0  0  0  0  0  0  0  # atno 6909 bound_to 6896
  146.2109  139.8163  142.8689 H   0  0  0  0  0  0  0  0  0  0  0  0  # atno 7974 bound_to 7965
  156.2925  140.2256  156.4930 H   0  0  0  0  0  0  0  0  0  0  0  0  # atno 8008 bound_to 7997
  154.7755  140.0464  157.1107 H   0  0  0  0  0  0  0  0  0  0  0  0  # atno 8009 bound_to 7997
  154.9822  140.3080  155.4945 H   0  0  0  0  0  0  0  0  0  0  0  0  # atno 8010 bound_to 7997
  140.1807  143.3969  152.1284 H   0  0  0  0  0  0  0  0  0  0  0  0  # atno 10167 bound_to 10162
  157.0372  131.0276  151.2725 H   0  0  0  0  0  0  0  0  0  0  0  0  # atno 10718 bound_to 10713
  153.0639  135.4997  154.8156 H   0  0  0  0  0  0  0  0  0  0  0  0  # atno 10763 bound_to 10752
  154.6924  135.2987  154.9462 H   0  0  0  0  0  0  0  0  0  0  0  0  # atno 10764 bound_to 10752
  154.0213  135.6741  153.4825 H   0  0  0  0  0  0  0  0  0  0  0  0  # atno 10765 bound_to 10752
  140.1033  134.8970  157.1828 H   0  0  0  0  0  0  0  0  0  0  0  0  # atno 11005 bound_to 11000
  145.3143  141.0228  143.3537 LP  0  0  0  0  0  0  0  0  0  0  0  0  # atno 17320 bound_to 7965
  144.8913  139.4771  143.6676 LP  0  0  0  0  0  0  0  0  0  0  0  0  # atno 17321 bound_to 7965
  139.5297  144.7145  151.5099 LP  0  0  0  0  0  0  0  0  0  0  0  0  # atno 17342 bound_to 10162
  140.6522  143.8674  150.6797 LP  0  0  0  0  0  0  0  0  0  0  0  0  # atno 17343 bound_to 10162
  157.5132  130.7951  149.7728 LP  0  0  0  0  0  0  0  0  0  0  0  0  # atno 17370 bound_to 10713
  156.0050  130.3860  150.2465 LP  0  0  0  0  0  0  0  0  0  0  0  0  # atno 17371 bound_to 10713
  140.3190  134.2937  155.7250 LP  0  0  0  0  0  0  0  0  0  0  0  0  # atno 17394 bound_to 11000
  141.2111  133.7698  156.9884 LP  0  0  0  0  0  0  0  0  0  0  0  0  # atno 17395 bound_to 11000

$$$$
