AV-unprocessed.smi:1084|AV-procd|sdf|4717|dock8
  -GOLD-   22720 3243D 1   1.00000     0.00000
 Structure written by MMmdl.
 52 54  0  0  0  0  0  0  0  0  1 V2000
  145.2051  136.4164  153.7587 C   0  0  0  0  0  0  0  0  0  0  0  0
  144.8154  136.5637  152.2656 C   0  0  1  0  0  0  0  0  0  0  0  0
  145.6495  137.7206  151.6416 C   0  0  0  0  0  0  0  0  0  0  0  0
  146.9744  137.8710  152.2381 N   0  0  0  0  0  0  0  0  0  0  0  0
  147.3069  138.7941  153.1515 C   0  0  0  0  0  0  0  0  0  0  0  0
  146.5163  139.6286  153.5914 O   0  0  0  0  0  0  0  0  0  0  0  0
  148.5911  138.6654  153.5262 N   0  0  0  0  0  0  0  0  0  0  0  0
  149.3254  139.4541  154.4525 C   0  0  0  0  0  0  0  0  0  0  0  0
  150.6632  139.0999  154.7095 C   0  0  0  0  0  0  0  0  0  0  0  0
  151.4228  139.8731  155.6075 C   0  0  0  0  0  0  0  0  0  0  0  0
  150.8270  141.0013  156.2265 C   0  0  0  0  0  0  0  0  0  0  0  0
  151.5289  141.8150  157.1463 N   0  0  0  0  0  0  0  0  0  0  0  0
  151.9625  141.1797  158.3913 C   0  0  0  0  0  0  0  0  0  0  0  0
  152.9958  142.0570  159.1180 C   0  0  0  0  0  0  0  0  0  0  0  0
  152.4681  143.3641  159.3119 O   0  0  0  0  0  0  0  0  0  0  0  0
  152.1911  144.0047  158.0722 C   0  0  0  0  0  0  0  0  0  0  0  0
  151.1235  143.2103  157.3007 C   0  0  0  0  0  0  0  0  0  0  0  0
  149.5428  141.3462  155.9647 N   0  0  0  0  0  0  0  0  0  0  0  0
  148.8166  140.6010  155.1052 C   0  0  0  0  0  0  0  0  0  0  0  0
  144.9275  135.2908  151.5155 N   0  0  0  0  0  0  0  0  0  0  0  0
  146.2483  134.6671  151.6594 C   0  0  0  0  0  0  0  0  0  0  0  0
  146.3643  133.3301  150.9070 C   0  0  0  0  0  0  0  0  0  0  0  0
  145.3543  132.4385  151.3574 O   0  0  0  0  0  0  0  0  0  0  0  0
  144.0509  132.9699  151.1653 C   0  0  0  0  0  0  0  0  0  0  0  0
  143.9174  134.3051  151.9184 C   0  0  0  0  0  0  0  0  0  0  0  0
  145.1685  137.3640  154.2944 H   0  0  0  0  0  0  0  0  0  0  0  0
  146.2148  136.0190  153.8650 H   0  0  0  0  0  0  0  0  0  0  0  0
  144.5251  135.7604  154.3005 H   0  0  0  0  0  0  0  0  0  0  0  0
  143.7690  136.8719  152.2408 H   0  0  0  0  0  0  0  0  0  0  0  0
  145.7772  137.5498  150.5723 H   0  0  0  0  0  0  0  0  0  0  0  0
  145.1524  138.6846  151.7409 H   0  0  0  0  0  0  0  0  0  0  0  0
  147.6847  137.2198  151.9373 H   0  0  0  0  0  0  0  0  0  0  0  0
  149.0899  137.8782  153.1384 H   0  0  0  0  0  0  0  0  0  0  0  0
  151.1072  138.2413  154.2271 H   0  0  0  0  0  0  0  0  0  0  0  0
  152.4471  139.5874  155.7919 H   0  0  0  0  0  0  0  0  0  0  0  0
  151.0903  141.0247  159.0277 H   0  0  0  0  0  0  0  0  0  0  0  0
  152.4057  140.2000  158.2130 H   0  0  0  0  0  0  0  0  0  0  0  0
  153.2373  141.6242  160.0888 H   0  0  0  0  0  0  0  0  0  0  0  0
  153.9280  142.1087  158.5531 H   0  0  0  0  0  0  0  0  0  0  0  0
  151.8362  145.0168  158.2668 H   0  0  0  0  0  0  0  0  0  0  0  0
  153.1063  144.0968  157.4853 H   0  0  0  0  0  0  0  0  0  0  0  0
  150.9836  143.6765  156.3251 H   0  0  0  0  0  0  0  0  0  0  0  0
  150.1697  143.2518  157.8281 H   0  0  0  0  0  0  0  0  0  0  0  0
  147.8144  140.9610  154.9336 H   0  0  0  0  0  0  0  0  0  0  0  0
  147.0262  135.3200  151.2678 H   0  0  0  0  0  0  0  0  0  0  0  0
  146.4690  134.5078  152.7159 H   0  0  0  0  0  0  0  0  0  0  0  0
  146.2735  133.4830  149.8305 H   0  0  0  0  0  0  0  0  0  0  0  0
  147.3410  132.8795  151.0842 H   0  0  0  0  0  0  0  0  0  0  0  0
  143.8580  133.1066  150.1000 H   0  0  0  0  0  0  0  0  0  0  0  0
  143.3168  132.2531  151.5335 H   0  0  0  0  0  0  0  0  0  0  0  0
  143.9846  134.1242  152.9923 H   0  0  0  0  0  0  0  0  0  0  0  0
  142.9140  134.6761  151.7212 H   0  0  0  0  0  0  0  0  0  0  0  0
  1  2  1  0  0  0  0
  1 26  1  0  0  0  0
  1 27  1  0  0  0  0
  1 28  1  0  0  0  0
  2  3  1  0  0  0  0
  2 20  1  0  0  0  0
  2 29  1  0  0  0  0
  3  4  1  0  0  0  0
  3 30  1  0  0  0  0
  3 31  1  0  0  0  0
  4  5  1  0  0  0  0
  4 32  1  0  0  0  0
  5  6  2  0  0  0  0
  5  7  1  0  0  0  0
  7  8  1  0  0  0  0
  7 33  1  0  0  0  0
  8 19  1  0  0  0  0
  8  9  2  0  0  0  0
  9 10  1  0  0  0  0
  9 34  1  0  0  0  0
 10 11  2  0  0  0  0
 10 35  1  0  0  0  0
 11 12  1  0  0  0  0
 11 18  1  0  0  0  0
 12 17  1  0  0  0  0
 12 13  1  0  0  0  0
 13 14  1  0  0  0  0
 13 36  1  0  0  0  0
 13 37  1  0  0  0  0
 14 15  1  0  0  0  0
 14 38  1  0  0  0  0
 14 39  1  0  0  0  0
 15 16  1  0  0  0  0
 16 17  1  0  0  0  0
 16 40  1  0  0  0  0
 16 41  1  0  0  0  0
 17 42  1  0  0  0  0
 17 43  1  0  0  0  0
 18 19  2  0  0  0  0
 19 44  1  0  0  0  0
 20 25  1  0  0  0  0
 20 21  1  0  0  0  0
 21 22  1  0  0  0  0
 21 45  1  0  0  0  0
 21 46  1  0  0  0  0
 22 23  1  0  0  0  0
 22 47  1  0  0  0  0
 22 48  1  0  0  0  0
 23 24  1  0  0  0  0
 24 25  1  0  0  0  0
 24 49  1  0  0  0  0
 24 50  1  0  0  0  0
 25 51  1  0  0  0  0
 25 52  1  0  0  0  0
M  END
> <s_m_source_file>
AV-unprocessed.smi

> <i_m_source_file_index>
1084

> <i_lp_mmshare_version>
43012

> <i_f3d_flags>
0

> <s_epik_input>
W0NIMl0xW0NIMl1PW0NIMl1bQ0gyXU4xW0NASF0oW0NIM10pW0NIMl1bTkhdQyg9TylbTkhdYzJbY0hdW2NIXWMobltjSF0yKU4zW0NIMl1bQ0gyXU9bQ0gyXVtDSDJdMw==

> <s_epik_cmdline>
J2VwaWtfcHl0aG9uJywgJy1waCcsICc3LjAnLCAnLXRuJywgJzgnLCAnLW1hJywgJzIwMCcsICctbWV0YWxfYmluZGluZycsICctaW1hZScsICc8aW5maWxlLm1hZT4nLCAnLW9tYWUnLCAnPG91dGZpbGUubWFlPic=

> <r_lp_tautomer_probability>
1

> <r_epik_Ionization_Penalty>
0.268053

> <r_epik_Ionization_Penalty_Charging>
0

> <r_epik_Ionization_Penalty_Neutral>
0.268053

> <r_epik_State_Penalty>
0.269834

> <r_epik_Charging_Adjusted_Penalty>
0.269834

> <i_epik_Tot_Q>
0

> <i_epik_Tot_abs_Q>
0

> <r_epik_Metal_State_Penalty>
0.268436

> <b_epik_Metal_Only>
0

> <s_lp_Force_Field>
OPLS_2005

> <r_lp_Energy>
45.5603

> <b_lp_Chiralities_Consistent>
1

> <s_lp_Variant>
AV-unprocessed.smi:1084-2

> <Gold.Version>
5.8.1

> <Gold.Id.Protein>
6NUR|6NUR_protein|mol2

> <Gold.PLP.Fitness>
45.6147

> <Gold.PLP.PLP>
-41.4054

> <Gold.PLP.part.hbond>
-3.0000

> <Gold.PLP.part.metal>
0.0000

> <Gold.PLP.part.buried>
-0.1705

> <Gold.PLP.part.nonpolar>
-39.3787

> <Gold.PLP.part.repulsive>
0.7456

> <Gold.PLP.ligand.clash>
0.0271

> <Gold.PLP.ligand.torsion>
1.0169

> <Gold.PLP.Chemscore.Hbond>
1.9120

> <Gold.PLP.Chemscore.CHOScore>
0.0000

> <Gold.PLP.Chemscore.Metal>
0.0000

> <Gold.Chemscore.Hbonds>
donor molecule, donor type, donor heavy atom, donor atom, acceptor molecule, acceptor atom, score
      L1  H     4    32       P1  7948  1.00
      L1  H     7    33       P1  7948  0.84

> <Gold.PLP.Chemscore.Internal.Correction>
0.5342

> <Gold.Rescore>
     Score         DG    S(hbond)    S(metal)    S(lipo)     H(rot)  DE(clash)    DE(int)     intcor
     16.04     -20.16       1.94        0.00     105.57       1.62       2.01       2.10       ----

> <Gold.Chemscore.Fitness>
16.0440

> <Gold.Chemscore.DG>
-20.1580

> <Gold.Chemscore.ZeroCoef>
-5.4800

> <Gold.Chemscore.Hbond>
1.9390

> <Gold.Chemscore.Metal>
0.0000

> <Gold.Chemscore.Lipo>
105.5724

> <Gold.Chemscore.Internal_Hbond>
0.0000

> <Gold.Chemscore.DEClash>
2.0118

> <Gold.Chemscore.DEInternal>
2.1022

> <Gold.Chemscore.Rot>
1.6211

> <Gold.Chemscore.Internal.Correction>
   9.000000E+99

> <Gold.Chemscore.Hbonds>
donor molecule, donor type, donor heavy atom, donor atom, acceptor molecule, acceptor atom, score
      L1  H     4    32       P1  7948  0.98
      L1  H     7    33       P1  7948  0.79

> <Gold.Chemscore.Hbond.Weighted>
-6.4761

> <Gold.Chemscore.Metal.Weighted>
-0.0000

> <Gold.Chemscore.Lipo.Weighted>
-12.3520

> <Gold.Chemscore.Internal_Hbond.Weighted>
0.0000

> <Gold.Chemscore.DEClash.Weighted>
2.0118

> <Gold.Chemscore.DEInternal.Weighted>
2.1022

> <Gold.Chemscore.Rot.Weighted>
4.1501

> <Gold.Chemscore.Internal.Correction.Weighted>
   9.000000E+99

> <Gold.Protein.RotatedTorsions>
[ 6907 6896 6895 6894 ] final   92.38 input  -60.11 | X-H torsion
[ 7974 7965 7964 7962 ] final  -42.45 input  175.53 | X-H torsion
[ 8008 7997 7996 7995 ] final  -97.41 input   59.86 | X-H torsion
[ 10167 10162 10161 10158 ] final  -20.47 input  -65.29 | X-H torsion
[ 10718 10713 10712 10709 ] final   79.61 input   66.30 | X-H torsion
[ 10763 10752 10751 10750 ] final  148.36 input  -60.55 | X-H torsion
[ 11005 11000 10999 10996 ] final  146.04 input  -57.11 | X-H torsion

> <Gold.Protein.ActiveResidues>
 VAL166  LYS551  ARG553  GLY616  TRP617  ASP618  TYR619  PRO620  LYS621  CYS622 
 ASP623  PHE694  ASN695  SER759  ASP760  ASP761  ALA762  ILE779  LEU786  VAL792 
 PHE793  MET794  SER795  GLU796  ALA797  LYS798  CYS799  TRP800  GLU811  SER814 

> <Gold.Protein.RotatedAtoms>
  152.5452  134.1512  159.8518 H   0  0  0  0  0  0  0  0  0  0  0  0  # atno 6907 bound_to 6896
  151.1538  133.4882  159.2602 H   0  0  0  0  0  0  0  0  0  0  0  0  # atno 6908 bound_to 6896
  151.1444  135.0206  159.8695 H   0  0  0  0  0  0  0  0  0  0  0  0  # atno 6909 bound_to 6896
  146.0115  140.6958  142.9222 H   0  0  0  0  0  0  0  0  0  0  0  0  # atno 7974 bound_to 7965
  154.7874  140.0463  157.1174 H   0  0  0  0  0  0  0  0  0  0  0  0  # atno 8008 bound_to 7997
  154.9632  140.3080  155.5001 H   0  0  0  0  0  0  0  0  0  0  0  0  # atno 8009 bound_to 7997
  156.2945  140.2267  156.4719 H   0  0  0  0  0  0  0  0  0  0  0  0  # atno 8010 bound_to 7997
  140.7276  143.4719  151.0235 H   0  0  0  0  0  0  0  0  0  0  0  0  # atno 10167 bound_to 10162
  157.6782  130.9922  150.1958 H   0  0  0  0  0  0  0  0  0  0  0  0  # atno 10718 bound_to 10713
  154.0535  135.2880  155.3336 H   0  0  0  0  0  0  0  0  0  0  0  0  # atno 10763 bound_to 10752
  154.6854  135.5247  153.8322 H   0  0  0  0  0  0  0  0  0  0  0  0  # atno 10764 bound_to 10752
  153.0551  135.6592  154.0729 H   0  0  0  0  0  0  0  0  0  0  0  0  # atno 10765 bound_to 10752
  140.0761  134.9124  157.1424 H   0  0  0  0  0  0  0  0  0  0  0  0  # atno 11005 bound_to 11000
  144.6955  140.3407  143.7200 LP  0  0  0  0  0  0  0  0  0  0  0  0  # atno 17320 bound_to 7965
  145.7335  139.1743  143.2417 LP  0  0  0  0  0  0  0  0  0  0  0  0  # atno 17321 bound_to 7965
  139.8412  143.7562  152.3180 LP  0  0  0  0  0  0  0  0  0  0  0  0  # atno 17342 bound_to 10162
  139.7711  144.7476  151.0223 LP  0  0  0  0  0  0  0  0  0  0  0  0  # atno 17343 bound_to 10162
  156.2660  130.3716  149.8081 LP  0  0  0  0  0  0  0  0  0  0  0  0  # atno 17370 bound_to 10713
  156.5812  130.8466  151.3383 LP  0  0  0  0  0  0  0  0  0  0  0  0  # atno 17371 bound_to 10713
  140.3556  134.2550  155.7193 LP  0  0  0  0  0  0  0  0  0  0  0  0  # atno 17394 bound_to 11000
  141.2030  133.7924  157.0363 LP  0  0  0  0  0  0  0  0  0  0  0  0  # atno 17395 bound_to 11000

$$$$
