AV-unprocessed.smi:2030|AV-procd|sdf|8227|dock2
  -GOLD-   2272010493D 1   1.00000     0.00000
 Structure written by MMmdl.
 35 36  0  0  0  0  0  0  0  0  3 V2000
  150.9864  141.5834  156.2078 C   0  0  0  0  0  0  0  0  0  0  0  0
  151.3050  140.1564  156.2383 N   0  0  0  0  0  0  0  0  0  0  0  0
  151.8531  139.7398  157.4336 N   0  0  0  0  0  0  0  0  0  0  0  0
  151.9869  138.4865  157.7392 C   0  0  0  0  0  0  0  0  0  0  0  0
  152.5560  138.1085  159.0672 C   0  0  0  0  0  0  0  0  0  0  0  0
  152.5027  136.9032  159.3405 O   0  0  0  0  0  0  0  0  0  0  0  0
  153.0680  139.0942  159.8632 N   0  5  0  0  0  0  0  0  0  0  0  0
  154.1398  140.0145  159.4837 C   0  0  0  0  0  0  0  0  0  0  0  0
  154.3239  141.0863  160.5800 C   0  0  0  0  0  0  0  0  0  0  0  0
  153.4858  142.3460  160.3831 C   0  0  0  0  0  0  0  0  0  0  0  0
  152.7514  142.9292  161.4411 C   0  0  0  0  0  0  0  0  0  0  0  0
  152.0020  144.0991  161.2016 C   0  0  0  0  0  0  0  0  0  0  0  0
  151.9934  144.6606  159.9082 C   0  0  0  0  0  0  0  0  0  0  0  0
  152.7365  144.0366  158.8856 C   0  0  0  0  0  0  0  0  0  0  0  0
  153.4434  142.9174  159.1549 N   0  3  0  0  0  0  0  0  0  0  0  0
  151.5285  137.4103  156.7720 C   0  0  0  0  0  0  0  0  0  0  0  0
  151.5542  137.8959  155.3102 C   0  0  0  0  0  0  0  0  0  0  0  0
  151.0825  139.3458  155.1722 C   0  0  0  0  0  0  0  0  0  0  0  0
  150.5562  139.7135  154.1218 O   0  0  0  0  0  0  0  0  0  0  0  0
  150.6380  141.9367  155.2366 H   0  0  0  0  0  0  0  0  0  0  0  0
  151.8680  142.1708  156.4678 H   0  0  0  0  0  0  0  0  0  0  0  0
  150.2083  141.8067  156.9385 H   0  0  0  0  0  0  0  0  0  0  0  0
  155.0902  139.4999  159.3353 H   0  0  0  0  0  0  0  0  0  0  0  0
  153.9190  140.5122  158.5392 H   0  0  0  0  0  0  0  0  0  0  0  0
  154.0696  140.6536  161.5483 H   0  0  0  0  0  0  0  0  0  0  0  0
  155.3757  141.3675  160.6482 H   0  0  0  0  0  0  0  0  0  0  0  0
  152.7769  142.4917  162.4287 H   0  0  0  0  0  0  0  0  0  0  0  0
  151.4427  144.5609  162.0019 H   0  0  0  0  0  0  0  0  0  0  0  0
  151.4277  145.5579  159.7045 H   0  0  0  0  0  0  0  0  0  0  0  0
  152.7899  144.3974  157.8690 H   0  0  0  0  0  0  0  0  0  0  0  0
  152.1636  136.5269  156.8462 H   0  0  0  0  0  0  0  0  0  0  0  0
  150.5214  137.0901  157.0413 H   0  0  0  0  0  0  0  0  0  0  0  0
  152.5738  137.8463  154.9264 H   0  0  0  0  0  0  0  0  0  0  0  0
  150.9493  137.2410  154.6821 H   0  0  0  0  0  0  0  0  0  0  0  0
  153.9801  142.4864  158.4021 H   0  0  0  0  0  0  0  0  0  0  0  0
  1  2  1  0  0  0  0
  1 20  1  0  0  0  0
  1 21  1  0  0  0  0
  1 22  1  0  0  0  0
  2 18  1  0  0  0  0
  2  3  1  0  0  0  0
  3  4  2  0  0  0  0
  4  5  1  0  0  0  0
  4 16  1  0  0  0  0
  5  6  2  0  0  0  0
  5  7  1  0  0  0  0
  7  8  1  0  0  0  0
  8  9  1  0  0  0  0
  8 23  1  0  0  0  0
  8 24  1  0  0  0  0
  9 10  1  0  0  0  0
  9 25  1  0  0  0  0
  9 26  1  0  0  0  0
 10 15  1  0  0  0  0
 10 11  2  0  0  0  0
 11 12  1  0  0  0  0
 11 27  1  0  0  0  0
 12 13  2  0  0  0  0
 12 28  1  0  0  0  0
 13 14  1  0  0  0  0
 13 29  1  0  0  0  0
 14 15  2  0  0  0  0
 14 30  1  0  0  0  0
 15 35  1  0  0  0  0
 16 17  1  0  0  0  0
 16 31  1  0  0  0  0
 16 32  1  0  0  0  0
 17 18  1  0  0  0  0
 17 33  1  0  0  0  0
 17 34  1  0  0  0  0
 18 19  2  0  0  0  0
M  CHG  1   7  -1
M  CHG  1  15   1
M  END
> <s_m_source_file>
AV-unprocessed.smi

> <i_m_source_file_index>
2030

> <i_lp_mmshare_version>
43012

> <i_f3d_flags>
0

> <s_epik_input>
Tz1DMVtDSDJdW0NIMl1DKD1OTjFbQ0gzXSlDKD1PKVtOSF1bQ0gyXVtDSDJdYzJbY0hdW2NIXVtjSF1bY0hdbjI=

> <s_epik_cmdline>
J2VwaWtfcHl0aG9uJywgJy1waCcsICc3LjAnLCAnLXRuJywgJzgnLCAnLW1hJywgJzIwMCcsICctbWV0YWxfYmluZGluZycsICctaW1hZScsICc8aW5maWxlLm1hZT4nLCAnLW9tYWUnLCAnPG91dGZpbGUubWFlPic=

> <r_epik_Ionization_Penalty>
6.31213

> <r_epik_Ionization_Penalty_Charging>
6.31213

> <r_epik_Ionization_Penalty_Neutral>
3.33061e-09

> <r_epik_State_Penalty>
7.27833

> <r_epik_Charging_Adjusted_Penalty>
13.5905

> <i_epik_Tot_Q>
0

> <i_epik_Tot_abs_Q>
2

> <r_epik_Metal_State_Penalty>
3.36613

> <b_epik_Metal_Only>
1

> <s_epik_Chemistry_Notes>
This compound has an imine and may undergo hydrolysis.

> <s_lp_Force_Field>
OPLS_2005

> <r_lp_Energy>
24.6461

> <b_lp_Chiralities_Consistent>
1

> <s_lp_Variant>
AV-unprocessed.smi:2030-4

> <Gold.Version>
5.8.1

> <Gold.Id.Protein>
6NUR|6NUR_protein|mol2

> <Gold.PLP.Fitness>
46.0148

> <Gold.PLP.PLP>
-41.8577

> <Gold.PLP.part.hbond>
-2.0000

> <Gold.PLP.part.metal>
0.0000

> <Gold.PLP.part.buried>
-5.3833

> <Gold.PLP.part.nonpolar>
-34.5035

> <Gold.PLP.part.repulsive>
0.2489

> <Gold.PLP.ligand.clash>
0.0000

> <Gold.PLP.ligand.torsion>
0.9365

> <Gold.PLP.Chemscore.Hbond>
1.9913

> <Gold.PLP.Chemscore.CHOScore>
0.0000

> <Gold.PLP.Chemscore.Metal>
0.0000

> <Gold.Chemscore.Hbonds>
donor molecule, donor type, donor heavy atom, donor atom, acceptor molecule, acceptor atom, score
      P1  H  6896  6908       L1     6  1.00
      P1  H  7989  7998       L1    19  1.00

> <Gold.PLP.Chemscore.Internal.Correction>
0.0562

> <Gold.Rescore>
     Score         DG    S(hbond)    S(metal)    S(lipo)     H(rot)  DE(clash)    DE(int)     intcor
     19.07     -20.10       1.97        0.00     101.12       1.49       0.01       1.02       ----

> <Gold.Chemscore.Fitness>
19.0655

> <Gold.Chemscore.DG>
-20.0961

> <Gold.Chemscore.ZeroCoef>
-5.4800

> <Gold.Chemscore.Hbond>
1.9724

> <Gold.Chemscore.Metal>
0.0000

> <Gold.Chemscore.Lipo>
101.1184

> <Gold.Chemscore.Internal_Hbond>
0.0000

> <Gold.Chemscore.DEClash>
0.0058

> <Gold.Chemscore.DEInternal>
1.0248

> <Gold.Chemscore.Rot>
1.4854

> <Gold.Chemscore.Internal.Correction>
   9.000000E+99

> <Gold.Chemscore.Hbonds>
donor molecule, donor type, donor heavy atom, donor atom, acceptor molecule, acceptor atom, score
      P1  H  6896  6908       L1     6  0.93
      P1  H  7989  7998       L1    19  0.50

> <Gold.Chemscore.Hbond.Weighted>
-6.5879

> <Gold.Chemscore.Metal.Weighted>
-0.0000

> <Gold.Chemscore.Lipo.Weighted>
-11.8309

> <Gold.Chemscore.Internal_Hbond.Weighted>
0.0000

> <Gold.Chemscore.DEClash.Weighted>
0.0058

> <Gold.Chemscore.DEInternal.Weighted>
1.0248

> <Gold.Chemscore.Rot.Weighted>
3.8026

> <Gold.Chemscore.Internal.Correction.Weighted>
   9.000000E+99

> <Gold.Protein.RotatedTorsions>
[ 6907 6896 6895 6894 ] final -101.28 input  -60.11 | X-H torsion
[ 7974 7965 7964 7962 ] final  -29.78 input  175.53 | X-H torsion
[ 8008 7997 7996 7995 ] final -142.68 input   59.86 | X-H torsion
[ 10167 10162 10161 10158 ] final  -65.41 input  -65.29 | X-H torsion
[ 10718 10713 10712 10709 ] final  -81.34 input   66.30 | X-H torsion
[ 10763 10752 10751 10750 ] final  -24.37 input  -60.55 | X-H torsion
[ 11005 11000 10999 10996 ] final   43.92 input  -57.11 | X-H torsion

> <Gold.Protein.ActiveResidues>
 VAL166  LYS551  ARG553  GLY616  TRP617  ASP618  TYR619  PRO620  LYS621  CYS622 
 ASP623  PHE694  ASN695  SER759  ASP760  ASP761  ALA762  ILE779  LEU786  VAL792 
 PHE793  MET794  SER795  GLU796  ALA797  LYS798  CYS799  TRP800  GLU811  SER814 

> <Gold.Protein.RotatedAtoms>
  150.7148  134.0759  159.3880 H   0  0  0  0  0  0  0  0  0  0  0  0  # atno 6907 bound_to 6896
  151.8742  135.0476  160.0491 H   0  0  0  0  0  0  0  0  0  0  0  0  # atno 6908 bound_to 6896
  152.2619  133.5269  159.5423 H   0  0  0  0  0  0  0  0  0  0  0  0  # atno 6909 bound_to 6896
  146.1191  140.5457  142.8743 H   0  0  0  0  0  0  0  0  0  0  0  0  # atno 7974 bound_to 7965
  155.4982  140.0573  157.2943 H   0  0  0  0  0  0  0  0  0  0  0  0  # atno 8008 bound_to 7997
  154.4597  140.1990  156.0229 H   0  0  0  0  0  0  0  0  0  0  0  0  # atno 8009 bound_to 7997
  156.0867  140.3239  155.7767 H   0  0  0  0  0  0  0  0  0  0  0  0  # atno 8010 bound_to 7997
  140.5731  143.2319  151.6497 H   0  0  0  0  0  0  0  0  0  0  0  0  # atno 10167 bound_to 10162
  156.0052  130.4601  150.3937 H   0  0  0  0  0  0  0  0  0  0  0  0  # atno 10718 bound_to 10713
  153.6828  135.6966  153.5113 H   0  0  0  0  0  0  0  0  0  0  0  0  # atno 10763 bound_to 10752
  153.2472  135.4286  155.0759 H   0  0  0  0  0  0  0  0  0  0  0  0  # atno 10764 bound_to 10752
  154.8395  135.3522  154.6370 H   0  0  0  0  0  0  0  0  0  0  0  0  # atno 10765 bound_to 10752
  140.1600  134.4354  155.8324 H   0  0  0  0  0  0  0  0  0  0  0  0  # atno 11005 bound_to 11000
  144.7580  140.5355  143.6755 LP  0  0  0  0  0  0  0  0  0  0  0  0  # atno 17320 bound_to 7965
  145.5504  139.1476  143.3397 LP  0  0  0  0  0  0  0  0  0  0  0  0  # atno 17321 bound_to 7965
  139.5128  144.3464  152.0693 LP  0  0  0  0  0  0  0  0  0  0  0  0  # atno 17342 bound_to 10162
  140.2604  144.4074  150.6188 LP  0  0  0  0  0  0  0  0  0  0  0  0  # atno 17343 bound_to 10162
  157.2010  131.0438  151.2650 LP  0  0  0  0  0  0  0  0  0  0  0  0  # atno 17370 bound_to 10713
  157.3975  130.7315  149.6742 LP  0  0  0  0  0  0  0  0  0  0  0  0  # atno 17371 bound_to 10713
  141.2208  133.6909  156.7576 LP  0  0  0  0  0  0  0  0  0  0  0  0  # atno 17394 bound_to 11000
  140.2502  134.8547  157.3659 LP  0  0  0  0  0  0  0  0  0  0  0  0  # atno 17395 bound_to 11000

$$$$
