AV-unprocessed.smi:2208|AV-procd|sdf|8945|dock4
  -GOLD-   2272012163D 1   1.00000     0.00000
 Structure written by MMmdl.
 35 36  0  0  0  0  0  0  0  0  1 V2000
  152.5794  139.8310  159.4000 C   0  0  0  0  0  0  0  0  0  0  0  0
  151.9286  138.6326  158.7710 C   0  0  0  0  0  0  0  0  0  0  0  0
  151.4005  137.7064  159.5526 N   0  0  0  0  0  0  0  0  0  0  0  0
  150.8719  136.7364  158.6962 O   0  0  0  0  0  0  0  0  0  0  0  0
  151.1024  137.1227  157.4161 C   0  0  0  0  0  0  0  0  0  0  0  0
  150.5966  136.2165  156.3456 C   0  0  0  0  0  0  0  0  0  0  0  0
  151.7687  138.3174  157.3896 C   0  0  0  0  0  0  0  0  0  0  0  0
  152.2065  139.1170  156.1877 C   0  0  0  0  0  0  0  0  0  0  0  0
  151.2731  140.3147  156.0178 C   0  0  0  0  0  0  0  0  0  0  0  0
  150.6374  140.4574  154.9738 O   0  0  0  0  0  0  0  0  0  0  0  0
  151.1763  141.1456  157.0668 N   0  0  0  0  0  0  0  0  0  0  0  0
  150.2205  142.2411  157.1897 C   0  0  0  0  0  0  0  0  0  0  0  0
  150.6731  143.2957  158.2200 C   0  0  2  0  0  0  0  0  0  0  0  0
  151.8683  144.1618  157.8015 C   0  0  0  0  0  0  0  0  0  0  0  0
  152.4950  144.4964  159.1358 C   0  0  0  0  0  0  0  0  0  0  0  0
  152.2967  143.1922  159.8988 C   0  0  0  0  0  0  0  0  0  0  0  0
  151.0411  142.6867  159.4572 O   0  0  0  0  0  0  0  0  0  0  0  0
  152.9956  140.5032  158.6504 H   0  0  0  0  0  0  0  0  0  0  0  0
  153.3926  139.5328  160.0622 H   0  0  0  0  0  0  0  0  0  0  0  0
  151.8619  140.4015  159.9901 H   0  0  0  0  0  0  0  0  0  0  0  0
  149.6328  135.7882  156.6220 H   0  0  0  0  0  0  0  0  0  0  0  0
  151.2949  135.3981  156.1715 H   0  0  0  0  0  0  0  0  0  0  0  0
  150.4658  136.7555  155.4070 H   0  0  0  0  0  0  0  0  0  0  0  0
  153.2333  139.4703  156.2846 H   0  0  0  0  0  0  0  0  0  0  0  0
  152.1807  138.5126  155.2800 H   0  0  0  0  0  0  0  0  0  0  0  0
  151.7469  140.9496  157.8762 H   0  0  0  0  0  0  0  0  0  0  0  0
  150.1242  142.7093  156.2100 H   0  0  0  0  0  0  0  0  0  0  0  0
  149.2299  141.8617  157.4454 H   0  0  0  0  0  0  0  0  0  0  0  0
  149.8320  143.9542  158.4413 H   0  0  0  0  0  0  0  0  0  0  0  0
  152.5835  143.6001  157.2009 H   0  0  0  0  0  0  0  0  0  0  0  0
  151.5736  145.0452  157.2348 H   0  0  0  0  0  0  0  0  0  0  0  0
  153.5422  144.7895  159.0570 H   0  0  0  0  0  0  0  0  0  0  0  0
  151.9450  145.3049  159.6190 H   0  0  0  0  0  0  0  0  0  0  0  0
  153.0739  142.4756  159.6325 H   0  0  0  0  0  0  0  0  0  0  0  0
  152.3169  143.3290  160.9800 H   0  0  0  0  0  0  0  0  0  0  0  0
  1  2  1  0  0  0  0
  1 18  1  0  0  0  0
  1 19  1  0  0  0  0
  1 20  1  0  0  0  0
  2  7  1  0  0  0  0
  2  3  2  0  0  0  0
  3  4  1  0  0  0  0
  4  5  1  0  0  0  0
  5  6  1  0  0  0  0
  5  7  2  0  0  0  0
  6 21  1  0  0  0  0
  6 22  1  0  0  0  0
  6 23  1  0  0  0  0
  7  8  1  0  0  0  0
  8  9  1  0  0  0  0
  8 24  1  0  0  0  0
  8 25  1  0  0  0  0
  9 10  2  0  0  0  0
  9 11  1  0  0  0  0
 11 12  1  0  0  0  0
 11 26  1  0  0  0  0
 12 13  1  0  0  0  0
 12 27  1  0  0  0  0
 12 28  1  0  0  0  0
 13 17  1  0  0  0  0
 13 14  1  0  0  0  0
 13 29  1  0  0  0  0
 14 15  1  0  0  0  0
 14 30  1  0  0  0  0
 14 31  1  0  0  0  0
 15 16  1  0  0  0  0
 15 32  1  0  0  0  0
 15 33  1  0  0  0  0
 16 17  1  0  0  0  0
 16 34  1  0  0  0  0
 16 35  1  0  0  0  0
M  END
> <s_m_source_file>
AV-unprocessed.smi

> <i_m_source_file_index>
2208

> <i_lp_mmshare_version>
43012

> <i_f3d_flags>
0

> <s_epik_input>
W0NIM11jMW5vYyhbQ0gzXSljMVtDSDJdQyg9TylbTkhdW0NIMl1bQ0BASF0yW0NIMl1bQ0gyXVtDSDJdTzI=

> <s_epik_cmdline>
J2VwaWtfcHl0aG9uJywgJy1waCcsICc3LjAnLCAnLXRuJywgJzgnLCAnLW1hJywgJzIwMCcsICctbWV0YWxfYmluZGluZycsICctaW1hZScsICc8aW5maWxlLm1hZT4nLCAnLW9tYWUnLCAnPG91dGZpbGUubWFlPic=

> <r_lp_tautomer_probability>
1

> <r_epik_Ionization_Penalty>
3.13901e-08

> <r_epik_Ionization_Penalty_Charging>
0

> <r_epik_Ionization_Penalty_Neutral>
3.13901e-08

> <r_epik_State_Penalty>
-0

> <r_epik_Charging_Adjusted_Penalty>
0

> <i_epik_Tot_Q>
0

> <i_epik_Tot_abs_Q>
0

> <r_epik_Metal_State_Penalty>
-0

> <b_epik_Metal_Only>
0

> <s_lp_Force_Field>
OPLS_2005

> <r_lp_Energy>
11.1183

> <b_lp_Chiralities_Consistent>
1

> <s_lp_Variant>
AV-unprocessed.smi:2208-1

> <Gold.Version>
5.8.1

> <Gold.Id.Protein>
6NUR|6NUR_protein|mol2

> <Gold.PLP.Fitness>
36.2680

> <Gold.PLP.PLP>
-31.1134

> <Gold.PLP.part.hbond>
-2.5085

> <Gold.PLP.part.metal>
0.0000

> <Gold.PLP.part.buried>
-4.7821

> <Gold.PLP.part.nonpolar>
-24.6176

> <Gold.PLP.part.repulsive>
0.1530

> <Gold.PLP.ligand.clash>
0.0000

> <Gold.PLP.ligand.torsion>
0.3892

> <Gold.PLP.Chemscore.Hbond>
1.9760

> <Gold.PLP.Chemscore.CHOScore>
0.0000

> <Gold.PLP.Chemscore.Metal>
0.0000

> <Gold.Chemscore.Hbonds>
donor molecule, donor type, donor heavy atom, donor atom, acceptor molecule, acceptor atom, score
      P1  H  6896  6907       L1     4  0.96
      P1  H  7989  7998       L1    10  1.00

> <Gold.PLP.Chemscore.Internal.Correction>
0.0049

> <Gold.Rescore>
     Score         DG    S(hbond)    S(metal)    S(lipo)     H(rot)  DE(clash)    DE(int)     intcor
     17.16     -17.69       1.85        0.00      85.64       1.56       0.01       0.51       ----

> <Gold.Chemscore.Fitness>
17.1605

> <Gold.Chemscore.DG>
-17.6865

> <Gold.Chemscore.ZeroCoef>
-5.4800

> <Gold.Chemscore.Hbond>
1.8465

> <Gold.Chemscore.Metal>
0.0000

> <Gold.Chemscore.Lipo>
85.6412

> <Gold.Chemscore.Internal_Hbond>
0.0000

> <Gold.Chemscore.DEClash>
0.0111

> <Gold.Chemscore.DEInternal>
0.5149

> <Gold.Chemscore.Rot>
1.5551

> <Gold.Chemscore.Internal.Correction>
   9.000000E+99

> <Gold.Chemscore.Hbonds>
donor molecule, donor type, donor heavy atom, donor atom, acceptor molecule, acceptor atom, score
      P1  H  6896  6907       L1     4  0.30
      P1  H  7989  7998       L1    10  0.89

> <Gold.Chemscore.Hbond.Weighted>
-6.1674

> <Gold.Chemscore.Metal.Weighted>
-0.0000

> <Gold.Chemscore.Lipo.Weighted>
-10.0200

> <Gold.Chemscore.Internal_Hbond.Weighted>
0.0000

> <Gold.Chemscore.DEClash.Weighted>
0.0111

> <Gold.Chemscore.DEInternal.Weighted>
0.5149

> <Gold.Chemscore.Rot.Weighted>
3.9809

> <Gold.Chemscore.Internal.Correction.Weighted>
   9.000000E+99

> <Gold.Protein.RotatedTorsions>
[ 6907 6896 6895 6894 ] final  -31.63 input  -60.11 | X-H torsion
[ 7974 7965 7964 7962 ] final -133.33 input  175.53 | X-H torsion
[ 8008 7997 7996 7995 ] final  -70.32 input   59.86 | X-H torsion
[ 10167 10162 10161 10158 ] final  -82.04 input  -65.29 | X-H torsion
[ 10718 10713 10712 10709 ] final    7.30 input   66.30 | X-H torsion
[ 10763 10752 10751 10750 ] final  -18.81 input  -60.55 | X-H torsion
[ 11005 11000 10999 10996 ] final    0.15 input  -57.11 | X-H torsion

> <Gold.Protein.ActiveResidues>
 VAL166  LYS551  ARG553  GLY616  TRP617  ASP618  TYR619  PRO620  LYS621  CYS622 
 ASP623  PHE694  ASN695  SER759  ASP760  ASP761  ALA762  ILE779  LEU786  VAL792 
 PHE793  MET794  SER795  GLU796  ALA797  LYS798  CYS799  TRP800  GLU811  SER814 

> <Gold.Protein.RotatedAtoms>
  151.0895  134.9908  159.8395 H   0  0  0  0  0  0  0  0  0  0  0  0  # atno 6907 bound_to 6896
  152.5428  134.2082  159.8749 H   0  0  0  0  0  0  0  0  0  0  0  0  # atno 6908 bound_to 6896
  151.2118  133.4508  159.2632 H   0  0  0  0  0  0  0  0  0  0  0  0  # atno 6909 bound_to 6896
  144.9203  140.7006  143.4969 H   0  0  0  0  0  0  0  0  0  0  0  0  # atno 7974 bound_to 7965
  154.5003  140.0836  156.7784 H   0  0  0  0  0  0  0  0  0  0  0  0  # atno 8008 bound_to 7997
  155.4018  140.3437  155.4239 H   0  0  0  0  0  0  0  0  0  0  0  0  # atno 8009 bound_to 7997
  156.1448  140.1540  156.8852 H   0  0  0  0  0  0  0  0  0  0  0  0  # atno 8010 bound_to 7997
  140.4356  143.2532  151.8698 H   0  0  0  0  0  0  0  0  0  0  0  0  # atno 10167 bound_to 10162
  156.9348  130.5839  149.5650 H   0  0  0  0  0  0  0  0  0  0  0  0  # atno 10718 bound_to 10713
  153.5950  135.7001  153.5407 H   0  0  0  0  0  0  0  0  0  0  0  0  # atno 10763 bound_to 10752
  153.3146  135.4091  155.1364 H   0  0  0  0  0  0  0  0  0  0  0  0  # atno 10764 bound_to 10752
  154.8593  135.3680  154.5483 H   0  0  0  0  0  0  0  0  0  0  0  0  # atno 10765 bound_to 10752
  140.6298  133.9586  155.8268 H   0  0  0  0  0  0  0  0  0  0  0  0  # atno 11005 bound_to 11000
  145.3307  139.1760  143.4538 LP  0  0  0  0  0  0  0  0  0  0  0  0  # atno 17320 bound_to 7965
  146.3201  140.3336  142.8642 LP  0  0  0  0  0  0  0  0  0  0  0  0  # atno 17321 bound_to 7965
  139.4787  144.5286  151.8699 LP  0  0  0  0  0  0  0  0  0  0  0  0  # atno 17342 bound_to 10162
  140.4377  144.2029  150.5890 LP  0  0  0  0  0  0  0  0  0  0  0  0  # atno 17343 bound_to 10162
  156.0431  130.5511  150.8817 LP  0  0  0  0  0  0  0  0  0  0  0  0  # atno 17370 bound_to 10713
  157.5823  131.0946  150.9251 LP  0  0  0  0  0  0  0  0  0  0  0  0  # atno 17371 bound_to 10713
  141.0684  134.0243  157.3562 LP  0  0  0  0  0  0  0  0  0  0  0  0  # atno 17394 bound_to 11000
  139.9121  135.0191  156.7732 LP  0  0  0  0  0  0  0  0  0  0  0  0  # atno 17395 bound_to 11000

$$$$
