AV-unprocessed.smi:1675|AV-procd|sdf|6715|dock1
  -GOLD-   22720 7463D 1   1.00000     0.00000
 Structure written by MMmdl.
 40 42  0  0  0  0  0  0  0  0  1 V2000
  144.9912  138.1428  152.3725 N   0  0  0  0  0  0  0  0  0  0  0  0
  146.2842  138.4362  152.2123 C   0  0  0  0  0  0  0  0  0  0  0  0
  146.7580  138.7494  151.1223 O   0  0  0  0  0  0  0  0  0  0  0  0
  147.1745  138.3675  153.4543 C   0  0  0  0  0  0  0  0  0  0  0  0
  147.5871  139.6941  153.8758 N   0  0  0  0  0  0  0  0  0  0  0  0
  148.7284  140.0521  154.5667 C   0  0  0  0  0  0  0  0  0  0  0  0
  148.6527  141.4065  154.7301 C   0  0  0  0  0  0  0  0  0  0  0  0
  149.5559  142.2871  155.3773 N   0  0  0  0  0  0  0  0  0  0  0  0
  150.7210  141.9745  155.9716 C   0  0  0  0  0  0  0  0  0  0  0  0
  151.1958  140.8394  156.0149 O   0  0  0  0  0  0  0  0  0  0  0  0
  151.4760  143.1443  156.6136 C   0  0  0  0  0  0  0  0  0  0  0  0
  151.6529  142.9989  158.1424 C   0  0  2  0  0  0  0  0  0  0  0  0
  150.4960  143.6020  158.9761 C   0  0  0  0  0  0  0  0  0  0  0  0
  151.2188  144.5760  159.9239 C   0  0  1  0  0  0  0  0  0  0  0  0
  152.0484  143.7803  160.9486 C   0  0  0  0  0  0  0  0  0  0  0  0
  153.2144  143.2433  160.0969 C   0  0  0  0  0  0  0  0  0  0  0  0
  152.8766  143.7704  158.6889 C   0  0  2  0  0  0  0  0  0  0  0  0
  152.2989  145.1451  159.0137 C   0  0  0  0  0  0  0  0  0  0  0  0
  147.4379  141.8034  154.1132 C   0  0  0  0  0  0  0  0  0  0  0  0
  146.7999  140.7638  153.5973 N   0  0  0  0  0  0  0  0  0  0  0  0
  144.3688  138.1675  151.5778 H   0  0  0  0  0  0  0  0  0  0  0  0
  144.6422  137.8894  153.2857 H   0  0  0  0  0  0  0  0  0  0  0  0
  146.6322  137.8931  154.2734 H   0  0  0  0  0  0  0  0  0  0  0  0
  148.0555  137.7545  153.2564 H   0  0  0  0  0  0  0  0  0  0  0  0
  149.4644  139.3234  154.8719 H   0  0  0  0  0  0  0  0  0  0  0  0
  149.2852  143.2596  155.3962 H   0  0  0  0  0  0  0  0  0  0  0  0
  152.4555  143.2071  156.1384 H   0  0  0  0  0  0  0  0  0  0  0  0
  150.9639  144.0795  156.3831 H   0  0  0  0  0  0  0  0  0  0  0  0
  151.7663  141.9389  158.3764 H   0  0  0  0  0  0  0  0  0  0  0  0
  149.7918  144.1484  158.3471 H   0  0  0  0  0  0  0  0  0  0  0  0
  149.9324  142.8388  159.5145 H   0  0  0  0  0  0  0  0  0  0  0  0
  150.5583  145.3170  160.3754 H   0  0  0  0  0  0  0  0  0  0  0  0
  152.4209  144.4317  161.7401 H   0  0  0  0  0  0  0  0  0  0  0  0
  151.4707  142.9815  161.4154 H   0  0  0  0  0  0  0  0  0  0  0  0
  154.1628  143.6545  160.4456 H   0  0  0  0  0  0  0  0  0  0  0  0
  153.2914  142.1561  160.1311 H   0  0  0  0  0  0  0  0  0  0  0  0
  153.7337  143.7777  158.0145 H   0  0  0  0  0  0  0  0  0  0  0  0
  151.9006  145.6713  158.1449 H   0  0  0  0  0  0  0  0  0  0  0  0
  153.0020  145.7984  159.5337 H   0  0  0  0  0  0  0  0  0  0  0  0
  147.0065  142.7895  154.0240 H   0  0  0  0  0  0  0  0  0  0  0  0
  1  2  1  0  0  0  0
  1 21  1  0  0  0  0
  1 22  1  0  0  0  0
  2  3  2  0  0  0  0
  2  4  1  0  0  0  0
  4  5  1  0  0  0  0
  4 23  1  0  0  0  0
  4 24  1  0  0  0  0
  5 20  1  0  0  0  0
  5  6  1  0  0  0  0
  6  7  2  0  0  0  0
  6 25  1  0  0  0  0
  7  8  1  0  0  0  0
  7 19  1  0  0  0  0
  8  9  1  0  0  0  0
  8 26  1  0  0  0  0
  9 10  2  0  0  0  0
  9 11  1  0  0  0  0
 11 12  1  0  0  0  0
 11 27  1  0  0  0  0
 11 28  1  0  0  0  0
 12 17  1  0  0  0  0
 12 13  1  0  0  0  0
 12 29  1  0  0  0  0
 13 14  1  0  0  0  0
 13 30  1  0  0  0  0
 13 31  1  0  0  0  0
 14 18  1  0  0  0  0
 14 15  1  0  0  0  0
 14 32  1  0  0  0  0
 15 16  1  0  0  0  0
 15 33  1  0  0  0  0
 15 34  1  0  0  0  0
 16 17  1  0  0  0  0
 16 35  1  0  0  0  0
 16 36  1  0  0  0  0
 17 18  1  0  0  0  0
 17 37  1  0  0  0  0
 18 38  1  0  0  0  0
 18 39  1  0  0  0  0
 19 20  2  0  0  0  0
 19 40  1  0  0  0  0
M  END
> <s_m_source_file>
AV-unprocessed.smi

> <i_m_source_file_index>
1675

> <i_lp_mmshare_version>
43012

> <i_f3d_flags>
0

> <s_epik_input>
W05IMl1DKD1PKVtDSDJdbjFbY0hdYyhbY0hdbjEpW05IXUMoPU8pW0NIMl1bQ0BIXShbQ0gyXVtDQEBIXTIzKVtDQEBIXShbQ0gyXTMpW0NIMl1bQ0gyXTI=

> <s_epik_cmdline>
J2VwaWtfcHl0aG9uJywgJy1waCcsICc3LjAnLCAnLXRuJywgJzgnLCAnLW1hJywgJzIwMCcsICctbWV0YWxfYmluZGluZycsICctaW1hZScsICc8aW5maWxlLm1hZT4nLCAnLW9tYWUnLCAnPG91dGZpbGUubWFlPic=

> <r_lp_tautomer_probability>
1

> <r_epik_Ionization_Penalty>
2.17494e-05

> <r_epik_Ionization_Penalty_Charging>
0

> <r_epik_Ionization_Penalty_Neutral>
2.17494e-05

> <r_epik_State_Penalty>
-0

> <r_epik_Charging_Adjusted_Penalty>
0

> <i_epik_Tot_Q>
0

> <i_epik_Tot_abs_Q>
0

> <r_epik_Metal_State_Penalty>
-0

> <b_epik_Metal_Only>
0

> <s_lp_Force_Field>
OPLS_2005

> <r_lp_Energy>
52.6068

> <b_lp_Chiralities_Consistent>
1

> <s_lp_Variant>
AV-unprocessed.smi:1675-1

> <Gold.Version>
5.8.1

> <Gold.Id.Protein>
6NUR|6NUR_protein|mol2

> <Gold.PLP.Fitness>
53.2984

> <Gold.PLP.PLP>
-45.9479

> <Gold.PLP.part.hbond>
-4.0000

> <Gold.PLP.part.metal>
0.0000

> <Gold.PLP.part.buried>
-7.6266

> <Gold.PLP.part.nonpolar>
-36.1678

> <Gold.PLP.part.repulsive>
1.2582

> <Gold.PLP.ligand.clash>
0.0000

> <Gold.PLP.ligand.torsion>
0.8052

> <Gold.PLP.Chemscore.Hbond>
2.9760

> <Gold.PLP.Chemscore.CHOScore>
0.0000

> <Gold.PLP.Chemscore.Metal>
0.0000

> <Gold.Chemscore.Hbonds>
donor molecule, donor type, donor heavy atom, donor atom, acceptor molecule, acceptor atom, score
      L1  H     1    21       P1 10171  1.00
      L1  H     8    26       P1  8028  1.00
      P1  H  7954  7966       L1     3  0.89

> <Gold.PLP.Chemscore.Internal.Correction>
0.0329

> <Gold.Rescore>
     Score         DG    S(hbond)    S(metal)    S(lipo)     H(rot)  DE(clash)    DE(int)     intcor
     20.06     -22.83       2.92        0.00     111.95       2.15       0.77       2.00       ----

> <Gold.Chemscore.Fitness>
20.0584

> <Gold.Chemscore.DG>
-22.8320

> <Gold.Chemscore.ZeroCoef>
-5.4800

> <Gold.Chemscore.Hbond>
2.9204

> <Gold.Chemscore.Metal>
0.0000

> <Gold.Chemscore.Lipo>
111.9489

> <Gold.Chemscore.Internal_Hbond>
0.0000

> <Gold.Chemscore.DEClash>
0.7726

> <Gold.Chemscore.DEInternal>
2.0010

> <Gold.Chemscore.Rot>
2.1486

> <Gold.Chemscore.Internal.Correction>
   9.000000E+99

> <Gold.Chemscore.Hbonds>
donor molecule, donor type, donor heavy atom, donor atom, acceptor molecule, acceptor atom, score
      L1  H     1    21       P1 10171  0.98
      L1  H     8    26       P1  8028  0.93
      P1  H  7954  7966       L1     3  0.82

> <Gold.Chemscore.Hbond.Weighted>
-9.7543

> <Gold.Chemscore.Metal.Weighted>
-0.0000

> <Gold.Chemscore.Lipo.Weighted>
-13.0980

> <Gold.Chemscore.Internal_Hbond.Weighted>
0.0000

> <Gold.Chemscore.DEClash.Weighted>
0.7726

> <Gold.Chemscore.DEInternal.Weighted>
2.0010

> <Gold.Chemscore.Rot.Weighted>
5.5004

> <Gold.Chemscore.Internal.Correction.Weighted>
   9.000000E+99

> <Gold.Protein.RotatedTorsions>
[ 6907 6896 6895 6894 ] final    5.64 input  -60.11 | X-H torsion
[ 7974 7965 7964 7962 ] final  136.80 input  175.53 | X-H torsion
[ 8008 7997 7996 7995 ] final  116.44 input   59.86 | X-H torsion
[ 10167 10162 10161 10158 ] final  -75.33 input  -65.29 | X-H torsion
[ 10718 10713 10712 10709 ] final  146.69 input   66.30 | X-H torsion
[ 10763 10752 10751 10750 ] final   70.99 input  -60.55 | X-H torsion
[ 11005 11000 10999 10996 ] final  -72.12 input  -57.11 | X-H torsion

> <Gold.Protein.ActiveResidues>
 VAL166  LYS551  ARG553  GLY616  TRP617  ASP618  TYR619  PRO620  LYS621  CYS622 
 ASP623  PHE694  ASN695  SER759  ASP760  ASP761  ALA762  ILE779  LEU786  VAL792 
 PHE793  MET794  SER795  GLU796  ALA797  LYS798  CYS799  TRP800  GLU811  SER814 

> <Gold.Protein.RotatedAtoms>
  151.6607  135.0989  160.0178 H   0  0  0  0  0  0  0  0  0  0  0  0  # atno 6907 bound_to 6896
  152.3948  133.6726  159.6275 H   0  0  0  0  0  0  0  0  0  0  0  0  # atno 6908 bound_to 6896
  150.7857  133.8810  159.3327 H   0  0  0  0  0  0  0  0  0  0  0  0  # atno 6909 bound_to 6896
  144.9530  139.4797  143.5517 H   0  0  0  0  0  0  0  0  0  0  0  0  # atno 7974 bound_to 7965
  156.2439  140.2917  156.0523 H   0  0  0  0  0  0  0  0  0  0  0  0  # atno 8008 bound_to 7997
  155.1867  140.0405  157.2910 H   0  0  0  0  0  0  0  0  0  0  0  0  # atno 8009 bound_to 7997
  154.6222  140.2479  155.7542 H   0  0  0  0  0  0  0  0  0  0  0  0  # atno 8010 bound_to 7997
  140.4952  143.2372  151.7843 H   0  0  0  0  0  0  0  0  0  0  0  0  # atno 10167 bound_to 10162
  157.3301  131.0919  151.1169 H   0  0  0  0  0  0  0  0  0  0  0  0  # atno 10718 bound_to 10713
  153.0373  135.5153  154.7525 H   0  0  0  0  0  0  0  0  0  0  0  0  # atno 10763 bound_to 10752
  154.6491  135.2922  155.0011 H   0  0  0  0  0  0  0  0  0  0  0  0  # atno 10764 bound_to 10752
  154.0902  135.6651  153.4904 H   0  0  0  0  0  0  0  0  0  0  0  0  # atno 10765 bound_to 10752
  141.1603  133.6837  156.7010 H   0  0  0  0  0  0  0  0  0  0  0  0  # atno 11005 bound_to 11000
  146.3327  139.8628  142.8853 LP  0  0  0  0  0  0  0  0  0  0  0  0  # atno 17320 bound_to 7965
  145.2815  141.0140  143.3714 LP  0  0  0  0  0  0  0  0  0  0  0  0  # atno 17321 bound_to 7965
  139.4859  144.4597  151.9556 LP  0  0  0  0  0  0  0  0  0  0  0  0  # atno 17342 bound_to 10162
  140.3684  144.2886  150.5923 LP  0  0  0  0  0  0  0  0  0  0  0  0  # atno 17343 bound_to 10162
  157.2421  130.6574  149.5894 LP  0  0  0  0  0  0  0  0  0  0  0  0  # atno 17370 bound_to 10713
  155.9695  130.4565  150.5928 LP  0  0  0  0  0  0  0  0  0  0  0  0  # atno 17371 bound_to 10713
  140.2958  134.8203  157.4056 LP  0  0  0  0  0  0  0  0  0  0  0  0  # atno 17394 bound_to 11000
  140.1305  134.5101  155.8109 LP  0  0  0  0  0  0  0  0  0  0  0  0  # atno 17395 bound_to 11000

$$$$
