AV-unprocessed.smi:235|AV-procd|sdf|1804|dock3
  -GOLD-   2262020383D 1   1.00000     0.00000
 Structure written by MMmdl.
 54 58  0  0  0  0  0  0  0  0  1 V2000
  140.9615  133.8534  153.8707 O   0  0  0  0  0  0  0  0  0  0  0  0
  141.7186  134.7619  153.5255 C   0  0  0  0  0  0  0  0  0  0  0  0
  141.3903  136.0606  153.5843 N   0  0  0  0  0  0  0  0  0  0  0  0
  140.1412  136.5797  154.0383 C   0  0  0  0  0  0  0  0  0  0  0  0
  139.8833  138.0585  153.8464 C   0  0  0  0  0  0  0  0  0  0  0  0
  140.1619  137.5212  155.2231 C   0  0  0  0  0  0  0  0  0  0  0  0
  143.1275  134.4436  152.9997 C   0  0  1  0  0  0  0  0  0  0  0  0
  143.0730  133.6134  151.7066 C   0  0  0  0  0  0  0  0  0  0  0  0
  144.3564  133.9947  150.9756 C   0  0  0  0  0  0  0  0  0  0  0  0
  144.5349  135.4707  151.3272 C   0  0  0  0  0  0  0  0  0  0  0  0
  143.8589  135.6512  152.6058 N   0  0  0  0  0  0  0  0  0  0  0  0
  144.3548  136.5356  153.5125 C   0  0  0  0  0  0  0  0  0  0  0  0
  143.9184  136.4864  154.7996 N   0  0  0  0  0  0  0  0  0  0  0  0
  144.3878  137.3440  155.7097 C   0  0  0  0  0  0  0  0  0  0  0  0
  145.2825  138.3199  155.5516 N   0  0  0  0  0  0  0  0  0  0  0  0
  145.7213  138.3819  154.2621 C   0  0  0  0  0  0  0  0  0  0  0  0
  145.3146  137.5383  153.1888 C   0  0  0  0  0  0  0  0  0  0  0  0
  145.9684  137.9177  152.0214 N   0  0  0  0  0  0  0  0  0  0  0  0
  146.7191  138.9212  152.3844 C   0  0  0  0  0  0  0  0  0  0  0  0
  146.6379  139.2621  153.7151 N   0  0  0  0  0  0  0  0  0  0  0  0
  147.3585  140.3319  154.3867 C   0  0  0  0  0  0  0  0  0  0  0  0
  148.8637  140.3815  154.0425 C   0  0  1  0  0  0  0  0  0  0  0  0
  149.1363  141.5661  153.3199 O   0  0  0  0  0  0  0  0  0  0  0  0
  149.7891  140.3375  155.2753 C   0  0  2  0  0  0  0  0  0  0  0  0
  149.6921  141.5622  156.1873 C   0  0  0  0  0  0  0  0  0  0  0  0
  151.0595  141.6300  156.8516 C   0  0  0  0  0  0  0  0  0  0  0  0
  151.9183  140.6552  156.0417 C   0  0  0  0  0  0  0  0  0  0  0  0
  151.1519  140.3731  154.8807 O   0  0  0  0  0  0  0  0  0  0  0  0
  142.0770  136.7338  153.2769 H   0  0  0  0  0  0  0  0  0  0  0  0
  139.2712  135.9286  153.9628 H   0  0  0  0  0  0  0  0  0  0  0  0
  140.6619  138.6535  153.3725 H   0  0  0  0  0  0  0  0  0  0  0  0
  138.8633  138.3644  153.6232 H   0  0  0  0  0  0  0  0  0  0  0  0
  139.3280  137.4680  155.9202 H   0  0  0  0  0  0  0  0  0  0  0  0
  141.1261  137.7589  155.6684 H   0  0  0  0  0  0  0  0  0  0  0  0
  143.7057  133.8994  153.7492 H   0  0  0  0  0  0  0  0  0  0  0  0
  143.0089  132.5424  151.9007 H   0  0  0  0  0  0  0  0  0  0  0  0
  142.2141  133.8916  151.0927 H   0  0  0  0  0  0  0  0  0  0  0  0
  145.1902  133.4167  151.3764 H   0  0  0  0  0  0  0  0  0  0  0  0
  144.3076  133.8159  149.9012 H   0  0  0  0  0  0  0  0  0  0  0  0
  145.5926  135.7362  151.3653 H   0  0  0  0  0  0  0  0  0  0  0  0
  144.0498  136.1040  150.5835 H   0  0  0  0  0  0  0  0  0  0  0  0
  143.9880  137.2326  156.7066 H   0  0  0  0  0  0  0  0  0  0  0  0
  147.3619  139.4405  151.6882 H   0  0  0  0  0  0  0  0  0  0  0  0
  146.8856  141.2779  154.1202 H   0  0  0  0  0  0  0  0  0  0  0  0
  147.2216  140.2199  155.4630 H   0  0  0  0  0  0  0  0  0  0  0  0
  149.0922  139.5371  153.3911 H   0  0  0  0  0  0  0  0  0  0  0  0
  149.4115  141.3296  152.4474 H   0  0  0  0  0  0  0  0  0  0  0  0
  149.6158  139.4326  155.8610 H   0  0  0  0  0  0  0  0  0  0  0  0
  149.5311  142.4646  155.5961 H   0  0  0  0  0  0  0  0  0  0  0  0
  148.8757  141.4829  156.9060 H   0  0  0  0  0  0  0  0  0  0  0  0
  151.4578  142.6445  156.8076 H   0  0  0  0  0  0  0  0  0  0  0  0
  151.0162  141.3306  157.8994 H   0  0  0  0  0  0  0  0  0  0  0  0
  152.8927  141.0690  155.7814 H   0  0  0  0  0  0  0  0  0  0  0  0
  152.0779  139.7307  156.5984 H   0  0  0  0  0  0  0  0  0  0  0  0
  1  2  2  0  0  0  0
  2  3  1  0  0  0  0
  2  7  1  0  0  0  0
  3  4  1  0  0  0  0
  3 29  1  0  0  0  0
  4  6  1  0  0  0  0
  4  5  1  0  0  0  0
  4 30  1  0  0  0  0
  5  6  1  0  0  0  0
  5 31  1  0  0  0  0
  5 32  1  0  0  0  0
  6 33  1  0  0  0  0
  6 34  1  0  0  0  0
  7 11  1  0  0  0  0
  7  8  1  0  0  0  0
  7 35  1  0  0  0  0
  8  9  1  0  0  0  0
  8 36  1  0  0  0  0
  8 37  1  0  0  0  0
  9 10  1  0  0  0  0
  9 38  1  0  0  0  0
  9 39  1  0  0  0  0
 10 11  1  0  0  0  0
 10 40  1  0  0  0  0
 10 41  1  0  0  0  0
 11 12  1  0  0  0  0
 12 17  1  0  0  0  0
 12 13  2  0  0  0  0
 13 14  1  0  0  0  0
 14 15  2  0  0  0  0
 14 42  1  0  0  0  0
 15 16  1  0  0  0  0
 16 20  1  0  0  0  0
 16 17  2  0  0  0  0
 17 18  1  0  0  0  0
 18 19  2  0  0  0  0
 19 20  1  0  0  0  0
 19 43  1  0  0  0  0
 20 21  1  0  0  0  0
 21 22  1  0  0  0  0
 21 44  1  0  0  0  0
 21 45  1  0  0  0  0
 22 23  1  0  0  0  0
 22 24  1  0  0  0  0
 22 46  1  0  0  0  0
 23 47  1  0  0  0  0
 24 28  1  0  0  0  0
 24 25  1  0  0  0  0
 24 48  1  0  0  0  0
 25 26  1  0  0  0  0
 25 49  1  0  0  0  0
 25 50  1  0  0  0  0
 26 27  1  0  0  0  0
 26 51  1  0  0  0  0
 26 52  1  0  0  0  0
 27 28  1  0  0  0  0
 27 53  1  0  0  0  0
 27 54  1  0  0  0  0
M  END
> <s_m_source_file>
AV-unprocessed.smi

> <i_m_source_file_index>
235

> <i_lp_mmshare_version>
43012

> <i_f3d_flags>
0

> <s_epik_input>
W0NIMl0xW0NIMl1bQ0hdMVtOSF1DKD1PKVtDQEBIXTJbQ0gyXVtDSDJdW0NIMl1OMmMobltjSF1uMyljKGMzNCluW2NIXW40W0NIMl1bQ0BIXShbT0hdKVtDQEBIXTVbQ0gyXVtDSDJdW0NIMl1PNQ==

> <s_epik_cmdline>
J2VwaWtfcHl0aG9uJywgJy1waCcsICc3LjAnLCAnLXRuJywgJzgnLCAnLW1hJywgJzIwMCcsICctbWV0YWxfYmluZGluZycsICctaW1hZScsICc8aW5maWxlLm1hZT4nLCAnLW9tYWUnLCAnPG91dGZpbGUubWFlPic=

> <r_lp_tautomer_probability>
1

> <r_epik_Ionization_Penalty>
0.000526714

> <r_epik_Ionization_Penalty_Charging>
0

> <r_epik_Ionization_Penalty_Neutral>
0.000526714

> <r_epik_State_Penalty>
0.000272704

> <r_epik_Charging_Adjusted_Penalty>
0.000272704

> <i_epik_Tot_Q>
0

> <i_epik_Tot_abs_Q>
0

> <r_epik_Metal_State_Penalty>
-0

> <b_epik_Metal_Only>
0

> <s_lp_Force_Field>
OPLS_2005

> <r_lp_Energy>
57.0845

> <b_lp_Chiralities_Consistent>
1

> <s_lp_Variant>
AV-unprocessed.smi:235-4

> <Gold.Version>
5.8.1

> <Gold.Id.Protein>
6NUR|6NUR_protein|mol2

> <Gold.PLP.Fitness>
53.3004

> <Gold.PLP.PLP>
-43.0293

> <Gold.PLP.part.hbond>
-5.3783

> <Gold.PLP.part.metal>
0.0000

> <Gold.PLP.part.buried>
-3.5021

> <Gold.PLP.part.nonpolar>
-35.6054

> <Gold.PLP.part.repulsive>
0.7946

> <Gold.PLP.ligand.clash>
0.0000

> <Gold.PLP.ligand.torsion>
1.0616

> <Gold.PLP.Chemscore.Hbond>
2.9845

> <Gold.PLP.Chemscore.CHOScore>
1.0000

> <Gold.PLP.Chemscore.Metal>
0.0000

> <Gold.Chemscore.Hbonds>
donor molecule, donor type, donor heavy atom, donor atom, acceptor molecule, acceptor atom, score
      L1  H    23    47       P1  7957  1.00
      P1  H  7989  7998       L1    28  1.00
      P1  H 10995 11001       L1     1  0.23
      P1  H 11000 11005       L1     1  1.00
      L1  C    19    43       P1  7957  1.00

> <Gold.PLP.Chemscore.Internal.Correction>
0.4407

> <Gold.Rescore>
     Score         DG    S(hbond)    S(metal)    S(lipo)     H(rot)  DE(clash)    DE(int)     intcor
     11.43     -16.92       2.57        0.00      82.95       2.68       0.61       4.89       ----

> <Gold.Chemscore.Fitness>
11.4297

> <Gold.Chemscore.DG>
-16.9224

> <Gold.Chemscore.ZeroCoef>
-5.4800

> <Gold.Chemscore.Hbond>
2.5713

> <Gold.Chemscore.Metal>
0.0000

> <Gold.Chemscore.Lipo>
82.9485

> <Gold.Chemscore.Internal_Hbond>
0.0000

> <Gold.Chemscore.DEClash>
0.6076

> <Gold.Chemscore.DEInternal>
4.8851

> <Gold.Chemscore.Rot>
2.6760

> <Gold.Chemscore.Internal.Correction>
   9.000000E+99

> <Gold.Chemscore.Hbonds>
donor molecule, donor type, donor heavy atom, donor atom, acceptor molecule, acceptor atom, score
      L1  H    23    47       P1  7957  0.94
      P1  H  7989  7998       L1    28  0.89
      P1  H 10995 11001       L1     1  0.22
      P1  H 11000 11005       L1     1  0.70

> <Gold.Chemscore.Hbond.Weighted>
-8.5881

> <Gold.Chemscore.Metal.Weighted>
-0.0000

> <Gold.Chemscore.Lipo.Weighted>
-9.7050

> <Gold.Chemscore.Internal_Hbond.Weighted>
0.0000

> <Gold.Chemscore.DEClash.Weighted>
0.6076

> <Gold.Chemscore.DEInternal.Weighted>
4.8851

> <Gold.Chemscore.Rot.Weighted>
6.8506

> <Gold.Chemscore.Internal.Correction.Weighted>
   9.000000E+99

> <Gold.Protein.RotatedTorsions>
[ 6907 6896 6895 6894 ] final  -38.45 input  -60.11 | X-H torsion
[ 7974 7965 7964 7962 ] final  122.31 input  175.53 | X-H torsion
[ 8008 7997 7996 7995 ] final  -50.34 input   59.86 | X-H torsion
[ 10167 10162 10161 10158 ] final -117.57 input  -65.29 | X-H torsion
[ 10718 10713 10712 10709 ] final -115.96 input   66.30 | X-H torsion
[ 10763 10752 10751 10750 ] final  153.97 input  -60.55 | X-H torsion
[ 11005 11000 10999 10996 ] final   18.08 input  -57.11 | X-H torsion

> <Gold.Protein.ActiveResidues>
 VAL166  LYS551  ARG553  GLY616  TRP617  ASP618  TYR619  PRO620  LYS621  CYS622 
 ASP623  PHE694  ASN695  SER759  ASP760  ASP761  ALA762  ILE779  LEU786  VAL792 
 PHE793  MET794  SER795  GLU796  ALA797  LYS798  CYS799  TRP800  GLU811  SER814 

> <Gold.Protein.RotatedAtoms>
  151.0022  134.9331  159.7960 H   0  0  0  0  0  0  0  0  0  0  0  0  # atno 6907 bound_to 6896
  152.5281  134.3139  159.9133 H   0  0  0  0  0  0  0  0  0  0  0  0  # atno 6908 bound_to 6896
  151.3144  133.4025  159.2684 H   0  0  0  0  0  0  0  0  0  0  0  0  # atno 6909 bound_to 6896
  145.1090  139.3466  143.4773 H   0  0  0  0  0  0  0  0  0  0  0  0  # atno 7974 bound_to 7965
  154.4060  140.1274  156.4650 H   0  0  0  0  0  0  0  0  0  0  0  0  # atno 8008 bound_to 7997
  155.7235  140.3492  155.5007 H   0  0  0  0  0  0  0  0  0  0  0  0  # atno 8009 bound_to 7997
  155.9193  140.1049  157.1210 H   0  0  0  0  0  0  0  0  0  0  0  0  # atno 8010 bound_to 7997
  140.0669  143.4914  152.2001 H   0  0  0  0  0  0  0  0  0  0  0  0  # atno 10167 bound_to 10162
  156.0931  130.6109  150.8973 H   0  0  0  0  0  0  0  0  0  0  0  0  # atno 10718 bound_to 10713
  154.1448  135.2818  155.3151 H   0  0  0  0  0  0  0  0  0  0  0  0  # atno 10763 bound_to 10752
  154.6260  135.5451  153.7631 H   0  0  0  0  0  0  0  0  0  0  0  0  # atno 10764 bound_to 10752
  153.0239  135.6451  154.1594 H   0  0  0  0  0  0  0  0  0  0  0  0  # atno 10765 bound_to 10752
  140.4288  134.1441  155.7679 H   0  0  0  0  0  0  0  0  0  0  0  0  # atno 11005 bound_to 11000
  146.3527  140.1001  142.8608 LP  0  0  0  0  0  0  0  0  0  0  0  0  # atno 17320 bound_to 7965
  145.0868  140.9258  143.4792 LP  0  0  0  0  0  0  0  0  0  0  0  0  # atno 17321 bound_to 7965
  139.5859  144.7531  151.3520 LP  0  0  0  0  0  0  0  0  0  0  0  0  # atno 17342 bound_to 10162
  140.7145  143.7304  150.7628 LP  0  0  0  0  0  0  0  0  0  0  0  0  # atno 17343 bound_to 10162
  157.6085  131.0937  150.8837 LP  0  0  0  0  0  0  0  0  0  0  0  0  # atno 17370 bound_to 10713
  156.8981  130.5237  149.5283 LP  0  0  0  0  0  0  0  0  0  0  0  0  # atno 17371 bound_to 10713
  141.1754  133.8525  157.1438 LP  0  0  0  0  0  0  0  0  0  0  0  0  # atno 17394 bound_to 11000
  140.0148  134.9972  157.0471 LP  0  0  0  0  0  0  0  0  0  0  0  0  # atno 17395 bound_to 11000

$$$$
