AV-unprocessed.smi:283|AV-procd|sdf|2126|dock9
  -GOLD-   2262021433D 1   1.00000     0.00000
 Structure written by MMmdl.
 48 51  0  0  0  0  0  0  0  0  1 V2000
  151.6916  143.8904  157.1346 C   0  0  0  0  0  0  0  0  0  0  0  0
  151.0223  142.8039  157.9957 C   0  0  1  0  0  0  0  0  0  0  0  0
  150.7979  141.5823  157.2236 N   0  0  0  0  0  0  0  0  0  0  0  0
  149.8689  141.5210  156.2438 C   0  0  0  0  0  0  0  0  0  0  0  0
  150.1846  141.0890  154.9946 N   0  0  0  0  0  0  0  0  0  0  0  0
  149.2455  141.0425  154.0446 C   0  0  0  0  0  0  0  0  0  0  0  0
  147.9558  141.3781  154.1282 N   0  0  0  0  0  0  0  0  0  0  0  0
  147.6377  141.8177  155.3800 C   0  0  0  0  0  0  0  0  0  0  0  0
  148.5282  141.9175  156.4841 C   0  0  0  0  0  0  0  0  0  0  0  0
  147.8472  142.3999  157.5944 N   0  0  0  0  0  0  0  0  0  0  0  0
  146.6252  142.5727  157.1657 C   0  0  0  0  0  0  0  0  0  0  0  0
  146.4135  142.2460  155.8426 N   0  0  0  0  0  0  0  0  0  0  0  0
  145.1556  142.3138  155.0384 C   0  0  2  0  0  0  0  0  0  0  0  0
  144.8710  143.6627  154.8012 O   0  0  0  0  0  0  0  0  0  0  0  0
  143.6451  144.0428  155.4240 C   0  0  2  0  0  0  0  0  0  0  0  0
  143.7536  145.4855  155.9416 C   0  0  0  0  0  0  0  0  0  0  0  0
  143.9404  146.3823  154.8676 O   0  0  0  0  0  0  0  0  0  0  0  0
  143.4260  142.9847  156.5078 C   0  0  1  0  0  0  0  0  0  0  0  0
  142.0718  142.8320  156.8870 O   0  0  0  0  0  0  0  0  0  0  0  0
  143.9981  141.7327  155.8594 C   0  0  1  0  0  0  0  0  0  0  0  0
  143.0729  141.0627  155.0225 O   0  0  0  0  0  0  0  0  0  0  0  0
  151.8467  142.5587  159.2585 C   0  0  0  0  0  0  0  0  0  0  0  0
  152.5028  141.3188  159.4453 C   0  0  0  0  0  0  0  0  0  0  0  0
  153.2724  141.0796  160.5994 C   0  0  0  0  0  0  0  0  0  0  0  0
  153.4009  142.0804  161.5787 C   0  0  0  0  0  0  0  0  0  0  0  0
  152.7639  143.3217  161.3985 C   0  0  0  0  0  0  0  0  0  0  0  0
  151.9926  143.5678  160.2448 C   0  0  0  0  0  0  0  0  0  0  0  0
  151.2498  145.1197  160.0706 Cl  0  0  0  0  0  0  0  0  0  0  0  0
  145.3847  141.7722  154.1194 H   0  0  0  0  0  0  0  0  0  0  0  0
  142.8665  143.9680  154.6624 H   0  0  0  0  0  0  0  0  0  0  0  0
  144.0163  143.2332  157.3910 H   0  0  0  0  0  0  0  0  0  0  0  0
  144.3604  141.0183  156.6004 H   0  0  0  0  0  0  0  0  0  0  0  0
  151.8135  144.8152  157.6991 H   0  0  0  0  0  0  0  0  0  0  0  0
  151.1030  144.1287  156.2489 H   0  0  0  0  0  0  0  0  0  0  0  0
  152.6800  143.5747  156.7992 H   0  0  0  0  0  0  0  0  0  0  0  0
  150.0430  143.1622  158.3101 H   0  0  0  0  0  0  0  0  0  0  0  0
  151.4378  140.8246  157.4139 H   0  0  0  0  0  0  0  0  0  0  0  0
  149.5751  140.6858  153.0800 H   0  0  0  0  0  0  0  0  0  0  0  0
  145.8431  142.9451  157.8108 H   0  0  0  0  0  0  0  0  0  0  0  0
  142.8671  145.7697  156.5089 H   0  0  0  0  0  0  0  0  0  0  0  0
  144.6083  145.5786  156.6118 H   0  0  0  0  0  0  0  0  0  0  0  0
  143.4308  147.1611  155.0339 H   0  0  0  0  0  0  0  0  0  0  0  0
  142.0209  142.1427  157.5320 H   0  0  0  0  0  0  0  0  0  0  0  0
  143.5399  140.7163  154.2774 H   0  0  0  0  0  0  0  0  0  0  0  0
  152.4257  140.5400  158.7012 H   0  0  0  0  0  0  0  0  0  0  0  0
  153.7663  140.1281  160.7316 H   0  0  0  0  0  0  0  0  0  0  0  0
  153.9916  141.8988  162.4644 H   0  0  0  0  0  0  0  0  0  0  0  0
  152.8709  144.0909  162.1492 H   0  0  0  0  0  0  0  0  0  0  0  0
  1  2  1  0  0  0  0
  1 33  1  0  0  0  0
  1 34  1  0  0  0  0
  1 35  1  0  0  0  0
  2  3  1  0  0  0  0
  2 22  1  0  0  0  0
  2 36  1  0  0  0  0
  3  4  1  0  0  0  0
  3 37  1  0  0  0  0
  4  9  1  0  0  0  0
  4  5  2  0  0  0  0
  5  6  1  0  0  0  0
  6  7  2  0  0  0  0
  6 38  1  0  0  0  0
  7  8  1  0  0  0  0
  8 12  1  0  0  0  0
  8  9  2  0  0  0  0
  9 10  1  0  0  0  0
 10 11  2  0  0  0  0
 11 12  1  0  0  0  0
 11 39  1  0  0  0  0
 12 13  1  0  0  0  0
 13 29  1  0  0  0  0
 13 20  1  0  0  0  0
 13 14  1  0  0  0  0
 14 15  1  0  0  0  0
 15 30  1  0  0  0  0
 15 16  1  0  0  0  0
 15 18  1  0  0  0  0
 16 17  1  0  0  0  0
 16 40  1  0  0  0  0
 16 41  1  0  0  0  0
 17 42  1  0  0  0  0
 18 31  1  0  0  0  0
 18 19  1  0  0  0  0
 18 20  1  0  0  0  0
 19 43  1  0  0  0  0
 20 32  1  0  0  0  0
 20 21  1  0  0  0  0
 21 44  1  0  0  0  0
 22 27  1  0  0  0  0
 22 23  2  0  0  0  0
 23 24  1  0  0  0  0
 23 45  1  0  0  0  0
 24 25  2  0  0  0  0
 24 46  1  0  0  0  0
 25 26  1  0  0  0  0
 25 47  1  0  0  0  0
 26 27  2  0  0  0  0
 26 48  1  0  0  0  0
 27 28  1  0  0  0  0
M  END
> <s_m_source_file>
AV-unprocessed.smi

> <i_m_source_file_index>
283

> <i_lp_mmshare_version>
43012

> <i_f3d_flags>
0

> <s_epik_input>
Q2xjMVtjSF1bY0hdW2NIXVtjSF1jMVtDQEhdKFtDSDNdKVtOSF1jKG5bY0hdbjIpYyhjMjMpbltjSF1uM1tDQEBIXTRPW0NASF0oW0NIMl1bT0hdKVtDQEBIXShbT0hdKVtDQEhdNFtPSF0=

> <s_epik_cmdline>
J2VwaWtfcHl0aG9uJywgJy1waCcsICc3LjAnLCAnLXRuJywgJzgnLCAnLW1hJywgJzIwMCcsICctbWV0YWxfYmluZGluZycsICctaW1hZScsICc8aW5maWxlLm1hZT4nLCAnLW9tYWUnLCAnPG91dGZpbGUubWFlPic=

> <r_lp_tautomer_probability>
1

> <r_epik_Ionization_Penalty>
0.000266407

> <r_epik_Ionization_Penalty_Charging>
0

> <r_epik_Ionization_Penalty_Neutral>
0.000266407

> <r_epik_State_Penalty>
-0

> <r_epik_Charging_Adjusted_Penalty>
0

> <i_epik_Tot_Q>
0

> <i_epik_Tot_abs_Q>
0

> <r_epik_Metal_State_Penalty>
-0

> <b_epik_Metal_Only>
0

> <s_epik_Chemistry_Notes>
This compound contains an acetal/aminal-like group ( X-CH(R)-Y where X, Y are N, S, or O) that may be acid/base labile, releasing an aldehyde.

> <s_lp_Force_Field>
OPLS_2005

> <r_lp_Energy>
43.9323

> <b_lp_Chiralities_Consistent>
1

> <s_lp_Variant>
AV-unprocessed.smi:283-2

> <Gold.Version>
5.8.1

> <Gold.Id.Protein>
6NUR|6NUR_protein|mol2

> <Gold.PLP.Fitness>
48.3827

> <Gold.PLP.PLP>
-43.7246

> <Gold.PLP.part.hbond>
-2.2874

> <Gold.PLP.part.metal>
0.0000

> <Gold.PLP.part.buried>
-2.8267

> <Gold.PLP.part.nonpolar>
-38.2027

> <Gold.PLP.part.repulsive>
0.6430

> <Gold.PLP.ligand.clash>
0.0000

> <Gold.PLP.ligand.torsion>
1.0635

> <Gold.PLP.Chemscore.Hbond>
1.2441

> <Gold.PLP.Chemscore.CHOScore>
1.0000

> <Gold.PLP.Chemscore.Metal>
0.0000

> <Gold.Chemscore.Hbonds>
donor molecule, donor type, donor heavy atom, donor atom, acceptor molecule, acceptor atom, score
      L1  H    21    44       P1 10175  0.96
      P1  H  7989  7998       L1     5  0.23
      L1  C     6    38       P1  7957  0.98

> <Gold.PLP.Chemscore.Internal.Correction>
0.0529

> <Gold.Rescore>
     Score         DG    S(hbond)    S(metal)    S(lipo)     H(rot)  DE(clash)    DE(int)     intcor
      9.70     -10.40       0.93        0.00     105.10       4.10       0.03       0.68       ----

> <Gold.Chemscore.Fitness>
9.6963

> <Gold.Chemscore.DG>
-10.4040

> <Gold.Chemscore.ZeroCoef>
-5.4800

> <Gold.Chemscore.Hbond>
0.9329

> <Gold.Chemscore.Metal>
0.0000

> <Gold.Chemscore.Lipo>
105.0960

> <Gold.Chemscore.Internal_Hbond>
0.0000

> <Gold.Chemscore.DEClash>
0.0291

> <Gold.Chemscore.DEInternal>
0.6786

> <Gold.Chemscore.Rot>
4.0968

> <Gold.Chemscore.Internal.Correction>
   9.000000E+99

> <Gold.Chemscore.Hbonds>
donor molecule, donor type, donor heavy atom, donor atom, acceptor molecule, acceptor atom, score
      L1  H    21    44       P1 10175  0.88
      P1  H  7989  7998       L1     5  0.01

> <Gold.Chemscore.Hbond.Weighted>
-3.1157

> <Gold.Chemscore.Metal.Weighted>
-0.0000

> <Gold.Chemscore.Lipo.Weighted>
-12.2962

> <Gold.Chemscore.Internal_Hbond.Weighted>
0.0000

> <Gold.Chemscore.DEClash.Weighted>
0.0291

> <Gold.Chemscore.DEInternal.Weighted>
0.6786

> <Gold.Chemscore.Rot.Weighted>
10.4879

> <Gold.Chemscore.Internal.Correction.Weighted>
   9.000000E+99

> <Gold.Protein.RotatedTorsions>
[ 6907 6896 6895 6894 ] final  116.09 input  -60.11 | X-H torsion
[ 7974 7965 7964 7962 ] final  -99.37 input  175.53 | X-H torsion
[ 8008 7997 7996 7995 ] final -167.62 input   59.86 | X-H torsion
[ 10167 10162 10161 10158 ] final  154.26 input  -65.29 | X-H torsion
[ 10718 10713 10712 10709 ] final  -78.95 input   66.30 | X-H torsion
[ 10763 10752 10751 10750 ] final   98.97 input  -60.55 | X-H torsion
[ 11005 11000 10999 10996 ] final  -58.10 input  -57.11 | X-H torsion

> <Gold.Protein.ActiveResidues>
 VAL166  LYS551  ARG553  GLY616  TRP617  ASP618  TYR619  PRO620  LYS621  CYS622 
 ASP623  PHE694  ASN695  SER759  ASP760  ASP761  ALA762  ILE779  LEU786  VAL792 
 PHE793  MET794  SER795  GLU796  ALA797  LYS798  CYS799  TRP800  GLU811  SER814 

> <Gold.Protein.RotatedAtoms>
  152.4700  133.8008  159.6951 H   0  0  0  0  0  0  0  0  0  0  0  0  # atno 6907 bound_to 6896
  150.8684  133.7531  159.2975 H   0  0  0  0  0  0  0  0  0  0  0  0  # atno 6908 bound_to 6896
  151.5074  135.1067  159.9897 H   0  0  0  0  0  0  0  0  0  0  0  0  # atno 6909 bound_to 6896
  145.3085  140.9394  143.2783 H   0  0  0  0  0  0  0  0  0  0  0  0  # atno 7974 bound_to 7965
  155.8802  140.1008  157.1490 H   0  0  0  0  0  0  0  0  0  0  0  0  # atno 8008 bound_to 7997
  154.4004  140.1330  156.4251 H   0  0  0  0  0  0  0  0  0  0  0  0  # atno 8009 bound_to 7997
  155.7651  140.3462  155.5220 H   0  0  0  0  0  0  0  0  0  0  0  0  # atno 8010 bound_to 7997
  139.4824  144.5202  151.7888 H   0  0  0  0  0  0  0  0  0  0  0  0  # atno 10167 bound_to 10162
  156.0104  130.4532  150.3574 H   0  0  0  0  0  0  0  0  0  0  0  0  # atno 10718 bound_to 10713
  153.2956  135.4129  155.1207 H   0  0  0  0  0  0  0  0  0  0  0  0  # atno 10763 bound_to 10752
  154.8534  135.3529  154.5921 H   0  0  0  0  0  0  0  0  0  0  0  0  # atno 10764 bound_to 10752
  153.6345  135.7059  153.5322 H   0  0  0  0  0  0  0  0  0  0  0  0  # atno 10765 bound_to 10752
  141.1193  133.6611  156.4869 H   0  0  0  0  0  0  0  0  0  0  0  0  # atno 11005 bound_to 11000
  144.9035  139.4619  143.6621 LP  0  0  0  0  0  0  0  0  0  0  0  0  # atno 17320 bound_to 7965
  146.3126  139.7803  142.9008 LP  0  0  0  0  0  0  0  0  0  0  0  0  # atno 17321 bound_to 7965
  140.4715  144.1580  150.5919 LP  0  0  0  0  0  0  0  0  0  0  0  0  # atno 17342 bound_to 10162
  140.4377  143.2540  151.9514 LP  0  0  0  0  0  0  0  0  0  0  0  0  # atno 17343 bound_to 10162
  157.1664  131.0358  151.2816 LP  0  0  0  0  0  0  0  0  0  0  0  0  # atno 17370 bound_to 10713
  157.4267  130.7467  149.6956 LP  0  0  0  0  0  0  0  0  0  0  0  0  # atno 17371 bound_to 10713
  140.4555  134.6889  157.5060 LP  0  0  0  0  0  0  0  0  0  0  0  0  # atno 17394 bound_to 11000
  140.0138  134.6651  155.9341 LP  0  0  0  0  0  0  0  0  0  0  0  0  # atno 17395 bound_to 11000

$$$$
