AV-unprocessed.smi:2344|AV-procd|sdf|9359|dock1
  -GOLD-   2272012583D 1   1.00000     0.00000
 Structure written by MMmdl.
 35 36  0  0  0  0  0  0  0  0  1 V2000
  146.4704  142.7420  155.5951 C   0  0  0  0  0  0  0  0  0  0  0  0
  146.5943  141.3769  154.9517 C   0  0  0  0  0  0  0  0  0  0  0  0
  147.2768  141.2122  153.7319 C   0  0  0  0  0  0  0  0  0  0  0  0
  147.3629  139.9236  153.1710 C   0  0  0  0  0  0  0  0  0  0  0  0
  146.7655  138.8317  153.8402 C   0  0  0  0  0  0  0  0  0  0  0  0
  146.9115  137.5770  153.1910 N   0  0  0  0  0  0  0  0  0  0  0  0
  146.1183  136.4951  153.2829 C   0  0  0  0  0  0  0  0  0  0  0  0
  145.0953  136.4159  153.9637 O   0  0  0  0  0  0  0  0  0  0  0  0
  146.5817  135.4887  152.5279 N   0  0  0  0  0  0  0  0  0  0  0  0
  145.9473  134.1814  152.4020 C   0  0  2  0  0  0  0  0  0  0  0  0
  146.6474  133.3517  151.3612 C   0  0  0  0  0  0  0  0  0  0  0  0
  145.8414  132.9869  150.3669 C   0  0  0  0  0  0  0  0  0  0  0  0
  144.4408  133.5185  150.5219 C   0  0  1  0  0  0  0  0  0  0  0  0
  143.3885  132.3990  150.4653 C   0  0  0  0  0  0  0  0  0  0  0  0
  143.1362  132.0345  149.1248 O   0  0  0  0  0  0  0  0  0  0  0  0
  144.4896  134.2688  151.8789 C   0  0  0  0  0  0  0  0  0  0  0  0
  146.1088  139.0008  155.0148 N   0  0  0  0  0  0  0  0  0  0  0  0
  146.0262  140.2362  155.5518 C   0  0  0  0  0  0  0  0  0  0  0  0
  145.9875  133.6489  153.3540 H   0  0  0  0  0  0  0  0  0  0  0  0
  144.2697  134.2270  149.7103 H   0  0  0  0  0  0  0  0  0  0  0  0
  147.3953  143.3076  155.4785 H   0  0  0  0  0  0  0  0  0  0  0  0
  146.2596  142.6536  156.6613 H   0  0  0  0  0  0  0  0  0  0  0  0
  145.6609  143.3047  155.1297 H   0  0  0  0  0  0  0  0  0  0  0  0
  147.7272  142.0571  153.2320 H   0  0  0  0  0  0  0  0  0  0  0  0
  147.8841  139.7800  152.2354 H   0  0  0  0  0  0  0  0  0  0  0  0
  147.7161  137.4922  152.5879 H   0  0  0  0  0  0  0  0  0  0  0  0
  147.4284  135.6373  151.9988 H   0  0  0  0  0  0  0  0  0  0  0  0
  147.6907  133.0847  151.4446 H   0  0  0  0  0  0  0  0  0  0  0  0
  146.1373  132.3885  149.5178 H   0  0  0  0  0  0  0  0  0  0  0  0
  143.7420  131.5173  151.0007 H   0  0  0  0  0  0  0  0  0  0  0  0
  142.4568  132.7132  150.9374 H   0  0  0  0  0  0  0  0  0  0  0  0
  142.4258  132.5649  148.7977 H   0  0  0  0  0  0  0  0  0  0  0  0
  143.8143  133.8137  152.6047 H   0  0  0  0  0  0  0  0  0  0  0  0
  144.1582  135.3007  151.7542 H   0  0  0  0  0  0  0  0  0  0  0  0
  145.4905  140.3134  156.4865 H   0  0  0  0  0  0  0  0  0  0  0  0
  1  2  1  0  0  0  0
  1 21  1  0  0  0  0
  1 22  1  0  0  0  0
  1 23  1  0  0  0  0
  2 18  1  0  0  0  0
  2  3  2  0  0  0  0
  3  4  1  0  0  0  0
  3 24  1  0  0  0  0
  4  5  2  0  0  0  0
  4 25  1  0  0  0  0
  5  6  1  0  0  0  0
  5 17  1  0  0  0  0
  6  7  1  0  0  0  0
  6 26  1  0  0  0  0
  7  8  2  0  0  0  0
  7  9  1  0  0  0  0
  9 10  1  0  0  0  0
  9 27  1  0  0  0  0
 10 19  1  0  0  0  0
 10 16  1  0  0  0  0
 10 11  1  0  0  0  0
 11 12  2  0  0  0  0
 11 28  1  0  0  0  0
 12 13  1  0  0  0  0
 12 29  1  0  0  0  0
 13 20  1  0  0  0  0
 13 14  1  0  0  0  0
 13 16  1  0  0  0  0
 14 15  1  0  0  0  0
 14 30  1  0  0  0  0
 14 31  1  0  0  0  0
 15 32  1  0  0  0  0
 16 33  1  0  0  0  0
 16 34  1  0  0  0  0
 17 18  2  0  0  0  0
 18 35  1  0  0  0  0
M  END
> <s_m_source_file>
AV-unprocessed.smi

> <i_m_source_file_index>
2344

> <i_lp_mmshare_version>
43012

> <i_f3d_flags>
0

> <s_epik_input>
W0NIM11jMVtjSF1bY0hdYyhuW2NIXTEpW05IXUMoPU8pW05IXVtDQEBIXTJbQ0hdPVtDSF1bQ0BASF0oW0NIMl0yKVtDSDJdW09IXQ==

> <s_epik_cmdline>
J2VwaWtfcHl0aG9uJywgJy1waCcsICc3LjAnLCAnLXRuJywgJzgnLCAnLW1hJywgJzIwMCcsICctbWV0YWxfYmluZGluZycsICctaW1hZScsICc8aW5maWxlLm1hZT4nLCAnLW9tYWUnLCAnPG91dGZpbGUubWFlPic=

> <r_lp_tautomer_probability>
1

> <r_epik_Ionization_Penalty>
5.7643e-05

> <r_epik_Ionization_Penalty_Charging>
0

> <r_epik_Ionization_Penalty_Neutral>
5.7643e-05

> <r_epik_State_Penalty>
-0

> <r_epik_Charging_Adjusted_Penalty>
0

> <i_epik_Tot_Q>
0

> <i_epik_Tot_abs_Q>
0

> <r_epik_Metal_State_Penalty>
-0

> <b_epik_Metal_Only>
0

> <s_lp_Force_Field>
OPLS_2005

> <r_lp_Energy>
17.7036

> <b_lp_Chiralities_Consistent>
1

> <s_lp_Variant>
AV-unprocessed.smi:2344-3

> <Gold.Version>
5.8.1

> <Gold.Id.Protein>
6NUR|6NUR_protein|mol2

> <Gold.PLP.Fitness>
38.7488

> <Gold.PLP.PLP>
-30.7689

> <Gold.PLP.part.hbond>
-4.0000

> <Gold.PLP.part.metal>
0.0000

> <Gold.PLP.part.buried>
-4.4988

> <Gold.PLP.part.nonpolar>
-22.7495

> <Gold.PLP.part.repulsive>
0.1932

> <Gold.PLP.ligand.clash>
0.0000

> <Gold.PLP.ligand.torsion>
0.3255

> <Gold.PLP.Chemscore.Hbond>
2.8720

> <Gold.PLP.Chemscore.CHOScore>
0.0000

> <Gold.PLP.Chemscore.Metal>
0.0000

> <Gold.Chemscore.Hbonds>
donor molecule, donor type, donor heavy atom, donor atom, acceptor molecule, acceptor atom, score
      L1  H     6    26       P1  7948  0.88
      L1  H     9    27       P1  7948  1.00
      P1  H 10785 10796       L1    15  1.00

> <Gold.PLP.Chemscore.Internal.Correction>
0.0149

> <Gold.Rescore>
     Score         DG    S(hbond)    S(metal)    S(lipo)     H(rot)  DE(clash)    DE(int)     intcor
     16.79     -20.13       3.59        0.00      62.48       1.82       0.76       2.58       ----

> <Gold.Chemscore.Fitness>
16.7941

> <Gold.Chemscore.DG>
-20.1335

> <Gold.Chemscore.ZeroCoef>
-5.4800

> <Gold.Chemscore.Hbond>
3.5925

> <Gold.Chemscore.Metal>
0.0000

> <Gold.Chemscore.Lipo>
62.4762

> <Gold.Chemscore.Internal_Hbond>
0.0000

> <Gold.Chemscore.DEClash>
0.7550

> <Gold.Chemscore.DEInternal>
2.5844

> <Gold.Chemscore.Rot>
1.8184

> <Gold.Chemscore.Internal.Correction>
   9.000000E+99

> <Gold.Chemscore.Hbonds>
donor molecule, donor type, donor heavy atom, donor atom, acceptor molecule, acceptor atom, score
      L1  H     6    26       P1  7948  0.86
      L1  H     9    27       P1  7948  0.96
      L1  H    15    32       P1 10186  0.05
      P1  H 10785 10796       L1    15  0.88

> <Gold.Chemscore.Hbond.Weighted>
-11.9988

> <Gold.Chemscore.Metal.Weighted>
-0.0000

> <Gold.Chemscore.Lipo.Weighted>
-7.3097

> <Gold.Chemscore.Internal_Hbond.Weighted>
0.0000

> <Gold.Chemscore.DEClash.Weighted>
0.7550

> <Gold.Chemscore.DEInternal.Weighted>
2.5844

> <Gold.Chemscore.Rot.Weighted>
4.6551

> <Gold.Chemscore.Internal.Correction.Weighted>
   9.000000E+99

> <Gold.Protein.RotatedTorsions>
[ 6907 6896 6895 6894 ] final  132.37 input  -60.11 | X-H torsion
[ 7974 7965 7964 7962 ] final  -28.81 input  175.53 | X-H torsion
[ 8008 7997 7996 7995 ] final  154.41 input   59.86 | X-H torsion
[ 10167 10162 10161 10158 ] final   63.18 input  -65.29 | X-H torsion
[ 10718 10713 10712 10709 ] final  177.25 input   66.30 | X-H torsion
[ 10763 10752 10751 10750 ] final  -65.32 input  -60.55 | X-H torsion
[ 11005 11000 10999 10996 ] final   80.06 input  -57.11 | X-H torsion

> <Gold.Protein.ActiveResidues>
 VAL166  LYS551  ARG553  GLY616  TRP617  ASP618  TYR619  PRO620  LYS621  CYS622 
 ASP623  PHE694  ASN695  SER759  ASP760  ASP761  ALA762  ILE779  LEU786  VAL792 
 PHE793  MET794  SER795  GLU796  ALA797  LYS798  CYS799  TRP800  GLU811  SER814 

> <Gold.Protein.RotatedAtoms>
  152.3331  133.5981  159.5823 H   0  0  0  0  0  0  0  0  0  0  0  0  # atno 6907 bound_to 6896
  150.7434  133.9837  159.3593 H   0  0  0  0  0  0  0  0  0  0  0  0  # atno 6908 bound_to 6896
  151.7710  135.0787  160.0411 H   0  0  0  0  0  0  0  0  0  0  0  0  # atno 6909 bound_to 6896
  146.1262  140.5331  142.8713 H   0  0  0  0  0  0  0  0  0  0  0  0  # atno 7974 bound_to 7965
  156.2533  140.1967  156.6641 H   0  0  0  0  0  0  0  0  0  0  0  0  # atno 8008 bound_to 7997
  154.6442  140.0580  156.9906 H   0  0  0  0  0  0  0  0  0  0  0  0  # atno 8009 bound_to 7997
  155.1516  140.3252  155.4432 H   0  0  0  0  0  0  0  0  0  0  0  0  # atno 8010 bound_to 7997
  140.1358  144.4600  150.6839 H   0  0  0  0  0  0  0  0  0  0  0  0  # atno 10167 bound_to 10162
  156.9081  130.9901  151.3025 H   0  0  0  0  0  0  0  0  0  0  0  0  # atno 10718 bound_to 10713
  154.3433  135.6152  153.5607 H   0  0  0  0  0  0  0  0  0  0  0  0  # atno 10763 bound_to 10752
  152.9803  135.5775  154.4827 H   0  0  0  0  0  0  0  0  0  0  0  0  # atno 10764 bound_to 10752
  154.4535  135.2853  155.1741 H   0  0  0  0  0  0  0  0  0  0  0  0  # atno 10765 bound_to 10752
  139.9149  134.7891  156.1860 H   0  0  0  0  0  0  0  0  0  0  0  0  # atno 11005 bound_to 11000
  144.7644  140.5497  143.6713 LP  0  0  0  0  0  0  0  0  0  0  0  0  # atno 17320 bound_to 7965
  145.5361  139.1475  143.3473 LP  0  0  0  0  0  0  0  0  0  0  0  0  # atno 17321 bound_to 7965
  140.6790  143.2318  151.5433 LP  0  0  0  0  0  0  0  0  0  0  0  0  # atno 17342 bound_to 10162
  139.5497  144.2429  152.1507 LP  0  0  0  0  0  0  0  0  0  0  0  0  # atno 17343 bound_to 10162
  157.5984  130.8495  149.8765 LP  0  0  0  0  0  0  0  0  0  0  0  0  # atno 17370 bound_to 10713
  156.0549  130.3710  150.1114 LP  0  0  0  0  0  0  0  0  0  0  0  0  # atno 17371 bound_to 10713
  141.0613  133.6840  156.1958 LP  0  0  0  0  0  0  0  0  0  0  0  0  # atno 17394 bound_to 11000
  140.6656  134.4922  157.5585 LP  0  0  0  0  0  0  0  0  0  0  0  0  # atno 17395 bound_to 11000

$$$$
