AV-unprocessed.smi:734|AV-procd|sdf|3531|dock10
  -GOLD-   22720 0523D 1   1.00000     0.00000
 Structure written by MMmdl.
 38 39  0  0  0  0  0  0  0  0  3 V2000
  152.3649  140.8102  159.3116 C   0  0  0  0  0  0  0  0  0  0  0  0
  151.9340  141.7078  158.1426 C   0  0  0  0  0  0  0  0  0  0  0  0
  150.8739  142.7460  158.5384 C   0  0  0  0  0  0  0  0  0  0  0  0
  151.5236  140.9130  156.9424 C   0  0  0  0  0  0  0  0  0  0  0  0
  152.3093  139.9957  156.3699 N   0  0  0  0  0  0  0  0  0  0  0  0
  151.7021  139.3917  155.2790 N   0  0  0  0  0  0  0  0  0  0  0  0
  150.4647  139.8504  155.0456 C   0  0  0  0  0  0  0  0  0  0  0  0
  149.7042  139.3905  154.0383 N   0  5  0  0  0  0  0  0  0  0  0  0
  148.3606  139.3438  154.1767 C   0  0  0  0  0  0  0  0  0  0  0  0
  147.6695  140.0984  154.8654 O   0  0  0  0  0  0  0  0  0  0  0  0
  147.7774  138.3667  153.4680 N   0  0  0  0  0  0  0  0  0  0  0  0
  146.3457  138.0977  153.4171 C   0  0  0  0  0  0  0  0  0  0  0  0
  146.0479  136.6056  153.6512 C   0  0  0  0  0  0  0  0  0  0  0  0
  146.2537  135.8007  152.4260 N   0  3  0  0  0  0  0  0  0  0  0  0
  145.2533  136.0656  151.3537 C   0  0  0  0  0  0  0  0  0  0  0  0
  144.9943  134.7021  150.7777 C   0  0  0  0  0  0  0  0  0  0  0  0
  145.5911  133.7525  151.4890 C   0  0  0  0  0  0  0  0  0  0  0  0
  146.3446  134.3296  152.6537 C   0  0  0  0  0  0  0  0  0  0  0  0
  149.9590  141.1112  156.1691 S   0  0  0  0  0  0  0  0  0  0  0  0
  153.1745  140.1424  159.0152 H   0  0  0  0  0  0  0  0  0  0  0  0
  151.5369  140.1940  159.6642 H   0  0  0  0  0  0  0  0  0  0  0  0
  152.7184  141.4048  160.1543 H   0  0  0  0  0  0  0  0  0  0  0  0
  152.8194  142.2726  157.8480 H   0  0  0  0  0  0  0  0  0  0  0  0
  150.6531  143.4162  157.7072 H   0  0  0  0  0  0  0  0  0  0  0  0
  151.2147  143.3568  159.3745 H   0  0  0  0  0  0  0  0  0  0  0  0
  149.9411  142.2661  158.8359 H   0  0  0  0  0  0  0  0  0  0  0  0
  148.3788  137.7672  152.9216 H   0  0  0  0  0  0  0  0  0  0  0  0
  145.8599  138.6994  154.1853 H   0  0  0  0  0  0  0  0  0  0  0  0
  145.9468  138.4363  152.4596 H   0  0  0  0  0  0  0  0  0  0  0  0
  146.6656  136.2021  154.4550 H   0  0  0  0  0  0  0  0  0  0  0  0
  145.0099  136.4990  153.9705 H   0  0  0  0  0  0  0  0  0  0  0  0
  144.3230  136.4763  151.7490 H   0  0  0  0  0  0  0  0  0  0  0  0
  145.6565  136.7476  150.6047 H   0  0  0  0  0  0  0  0  0  0  0  0
  144.3770  134.5433  149.9058 H   0  0  0  0  0  0  0  0  0  0  0  0
  145.5410  132.6915  151.2929 H   0  0  0  0  0  0  0  0  0  0  0  0
  147.3836  133.9992  152.6610 H   0  0  0  0  0  0  0  0  0  0  0  0
  145.8654  134.0238  153.5849 H   0  0  0  0  0  0  0  0  0  0  0  0
  147.1443  136.0778  152.0387 H   0  0  0  0  0  0  0  0  0  0  0  0
  1  2  1  0  0  0  0
  1 20  1  0  0  0  0
  1 21  1  0  0  0  0
  1 22  1  0  0  0  0
  2  3  1  0  0  0  0
  2  4  1  0  0  0  0
  2 23  1  0  0  0  0
  3 24  1  0  0  0  0
  3 25  1  0  0  0  0
  3 26  1  0  0  0  0
  4 19  1  0  0  0  0
  4  5  2  0  0  0  0
  5  6  1  0  0  0  0
  6  7  2  0  0  0  0
  7  8  1  0  0  0  0
  7 19  1  0  0  0  0
  8  9  1  0  0  0  0
  9 10  2  0  0  0  0
  9 11  1  0  0  0  0
 11 12  1  0  0  0  0
 11 27  1  0  0  0  0
 12 13  1  0  0  0  0
 12 28  1  0  0  0  0
 12 29  1  0  0  0  0
 13 14  1  0  0  0  0
 13 30  1  0  0  0  0
 13 31  1  0  0  0  0
 14 18  1  0  0  0  0
 14 15  1  0  0  0  0
 14 38  1  0  0  0  0
 15 16  1  0  0  0  0
 15 32  1  0  0  0  0
 15 33  1  0  0  0  0
 16 17  2  0  0  0  0
 16 34  1  0  0  0  0
 17 18  1  0  0  0  0
 17 35  1  0  0  0  0
 18 36  1  0  0  0  0
 18 37  1  0  0  0  0
M  CHG  1   8  -1
M  CHG  1  14   1
M  END
> <s_m_source_file>
AV-unprocessed.smi

> <i_m_source_file_index>
734

> <i_lp_mmshare_version>
43012

> <i_f3d_flags>
0

> <s_epik_input>
W0NIM11bQ0hdKFtDSDNdKWMxbm5jKHMxKVtOSF1DKD1PKVtOSF1bQ0gyXVtDSDJdTjJbQ0gyXVtDSF09W0NIXVtDSDJdMg==

> <s_epik_cmdline>
J2VwaWtfcHl0aG9uJywgJy1waCcsICc3LjAnLCAnLXRuJywgJzgnLCAnLW1hJywgJzIwMCcsICctbWV0YWxfYmluZGluZycsICctaW1hZScsICc8aW5maWxlLm1hZT4nLCAnLW9tYWUnLCAnPG91dGZpbGUubWFlPic=

> <r_lp_tautomer_probability>
1

> <r_epik_Ionization_Penalty>
3.04352

> <r_epik_Ionization_Penalty_Charging>
2.92732

> <r_epik_Ionization_Penalty_Neutral>
0.116198

> <r_epik_State_Penalty>
2.92347

> <r_epik_Charging_Adjusted_Penalty>
5.85079

> <i_epik_Tot_Q>
0

> <i_epik_Tot_abs_Q>
2

> <r_epik_Metal_State_Penalty>
0.448048

> <b_epik_Metal_Only>
1

> <s_lp_Force_Field>
OPLS_2005

> <r_lp_Energy>
6.61646

> <b_lp_Chiralities_Consistent>
1

> <s_lp_Variant>
AV-unprocessed.smi:734-2

> <Gold.Version>
5.8.1

> <Gold.Id.Protein>
6NUR|6NUR_protein|mol2

> <Gold.PLP.Fitness>
40.2743

> <Gold.PLP.PLP>
-29.4388

> <Gold.PLP.part.hbond>
-3.3863

> <Gold.PLP.part.metal>
0.0000

> <Gold.PLP.part.buried>
-4.2945

> <Gold.PLP.part.nonpolar>
-21.9853

> <Gold.PLP.part.repulsive>
0.7557

> <Gold.PLP.ligand.clash>
0.0000

> <Gold.PLP.ligand.torsion>
0.6701

> <Gold.PLP.Chemscore.Hbond>
4.0000

> <Gold.PLP.Chemscore.CHOScore>
0.0000

> <Gold.PLP.Chemscore.Metal>
0.0000

> <Gold.Chemscore.Hbonds>
donor molecule, donor type, donor heavy atom, donor atom, acceptor molecule, acceptor atom, score
      L1  H    11    27       P1  7948  1.00
      L1  H    14    38       P1  7948  2.00
      P1  H  7997  8008       L1     5  0.94

> <Gold.PLP.Chemscore.Internal.Correction>
0.1756

> <Gold.Rescore>
     Score         DG    S(hbond)    S(metal)    S(lipo)     H(rot)  DE(clash)    DE(int)     intcor
     16.13     -18.36       2.85        0.00      65.71       1.68       0.08       2.15       ----

> <Gold.Chemscore.Fitness>
16.1272

> <Gold.Chemscore.DG>
-18.3610

> <Gold.Chemscore.ZeroCoef>
-5.4800

> <Gold.Chemscore.Hbond>
2.8456

> <Gold.Chemscore.Metal>
0.0000

> <Gold.Chemscore.Lipo>
65.7057

> <Gold.Chemscore.Internal_Hbond>
0.0000

> <Gold.Chemscore.DEClash>
0.0811

> <Gold.Chemscore.DEInternal>
2.1527

> <Gold.Chemscore.Rot>
1.6839

> <Gold.Chemscore.Internal.Correction>
   9.000000E+99

> <Gold.Chemscore.Hbonds>
donor molecule, donor type, donor heavy atom, donor atom, acceptor molecule, acceptor atom, score
      L1  H    11    27       P1  7948  0.99
      L1  H    14    38       P1  7948  1.00
      P1  H  7997  8008       L1     5  0.86

> <Gold.Chemscore.Hbond.Weighted>
-9.5042

> <Gold.Chemscore.Metal.Weighted>
-0.0000

> <Gold.Chemscore.Lipo.Weighted>
-7.6876

> <Gold.Chemscore.Internal_Hbond.Weighted>
0.0000

> <Gold.Chemscore.DEClash.Weighted>
0.0811

> <Gold.Chemscore.DEInternal.Weighted>
2.1527

> <Gold.Chemscore.Rot.Weighted>
4.3108

> <Gold.Chemscore.Internal.Correction.Weighted>
   9.000000E+99

> <Gold.Protein.RotatedTorsions>
[ 6907 6896 6895 6894 ] final   52.52 input  -60.11 | X-H torsion
[ 7974 7965 7964 7962 ] final  111.63 input  175.53 | X-H torsion
[ 8008 7997 7996 7995 ] final  -55.98 input   59.86 | X-H torsion
[ 10167 10162 10161 10158 ] final  -38.73 input  -65.29 | X-H torsion
[ 10718 10713 10712 10709 ] final   16.86 input   66.30 | X-H torsion
[ 10763 10752 10751 10750 ] final   -7.48 input  -60.55 | X-H torsion
[ 11005 11000 10999 10996 ] final  -94.73 input  -57.11 | X-H torsion

> <Gold.Protein.ActiveResidues>
 VAL166  LYS551  ARG553  GLY616  TRP617  ASP618  TYR619  PRO620  LYS621  CYS622 
 ASP623  PHE694  ASN695  SER759  ASP760  ASP761  ALA762  ILE779  LEU786  VAL792 
 PHE793  MET794  SER795  GLU796  ALA797  LYS798  CYS799  TRP800  GLU811  SER814 

> <Gold.Protein.RotatedAtoms>
  152.3242  134.7342  160.0305 H   0  0  0  0  0  0  0  0  0  0  0  0  # atno 6907 bound_to 6896
  151.7780  133.3342  159.3471 H   0  0  0  0  0  0  0  0  0  0  0  0  # atno 6908 bound_to 6896
  150.7386  134.5888  159.6021 H   0  0  0  0  0  0  0  0  0  0  0  0  # atno 6909 bound_to 6896
  145.2398  139.2784  143.4124 H   0  0  0  0  0  0  0  0  0  0  0  0  # atno 7974 bound_to 7965
  154.4213  140.1140  156.5563 H   0  0  0  0  0  0  0  0  0  0  0  0  # atno 8008 bound_to 7997
  155.6357  140.3496  155.4679 H   0  0  0  0  0  0  0  0  0  0  0  0  # atno 8009 bound_to 7997
  155.9911  140.1180  157.0626 H   0  0  0  0  0  0  0  0  0  0  0  0  # atno 8010 bound_to 7997
  140.7084  143.3259  151.2682 H   0  0  0  0  0  0  0  0  0  0  0  0  # atno 10167 bound_to 10162
  157.0738  130.6359  149.5811 H   0  0  0  0  0  0  0  0  0  0  0  0  # atno 10718 bound_to 10713
  153.4269  135.7011  153.6257 H   0  0  0  0  0  0  0  0  0  0  0  0  # atno 10763 bound_to 10752
  153.4688  135.3719  155.2379 H   0  0  0  0  0  0  0  0  0  0  0  0  # atno 10764 bound_to 10752
  154.8724  135.4038  154.3646 H   0  0  0  0  0  0  0  0  0  0  0  0  # atno 10765 bound_to 10752
  141.1462  133.7976  157.0337 H   0  0  0  0  0  0  0  0  0  0  0  0  # atno 11005 bound_to 11000
  146.3331  140.2758  142.8608 LP  0  0  0  0  0  0  0  0  0  0  0  0  # atno 17320 bound_to 7965
  144.9600  140.8265  143.5519 LP  0  0  0  0  0  0  0  0  0  0  0  0  # atno 17321 bound_to 7965
  139.6726  143.9993  152.2762 LP  0  0  0  0  0  0  0  0  0  0  0  0  # atno 17342 bound_to 10162
  139.9596  144.6566  150.8092 LP  0  0  0  0  0  0  0  0  0  0  0  0  # atno 17343 bound_to 10162
  155.9943  130.5006  150.7413 LP  0  0  0  0  0  0  0  0  0  0  0  0  # atno 17370 bound_to 10713
  157.4856  131.0906  151.0486 LP  0  0  0  0  0  0  0  0  0  0  0  0  # atno 17371 bound_to 10713
  140.0737  134.9688  157.1510 LP  0  0  0  0  0  0  0  0  0  0  0  0  # atno 17394 bound_to 11000
  140.3674  134.2427  155.7181 LP  0  0  0  0  0  0  0  0  0  0  0  0  # atno 17395 bound_to 11000

$$$$
