AV-unprocessed.smi:2881|AV-procd|sdf|11059|dock6
  -GOLD-   2272015533D 1   1.00000     0.00000
 Structure written by MMmdl.
 40 42  0  0  0  0  0  0  0  0  1 V2000
  147.3596  140.3372  153.2775 C   0  0  0  0  0  0  0  0  0  0  0  0
  148.6430  139.8813  153.8842 C   0  0  0  0  0  0  0  0  0  0  0  0
  149.4757  140.4748  154.7903 C   0  0  0  0  0  0  0  0  0  0  0  0
  150.5385  139.5387  154.9609 C   0  0  0  0  0  0  0  0  0  0  0  0
  151.7520  139.6675  155.8414 C   0  0  0  0  0  0  0  0  0  0  0  0
  151.3368  140.1529  157.2301 C   0  0  0  0  0  0  0  0  0  0  0  0
  150.5054  139.5207  157.8815 O   0  0  0  0  0  0  0  0  0  0  0  0
  151.9225  141.2779  157.6691 N   0  0  0  0  0  0  0  0  0  0  0  0
  151.6240  141.9543  158.9317 C   0  0  2  0  0  0  0  0  0  0  0  0
  151.5475  143.4801  158.7078 C   0  0  1  0  0  0  0  0  0  0  0  0
  150.8577  144.1338  159.9190 C   0  0  0  0  0  0  0  0  0  0  0  0
  151.9281  144.0095  161.0201 C   0  0  0  0  0  0  0  0  0  0  0  0
  153.0894  143.3036  160.2921 C   0  0  2  0  0  0  0  0  0  0  0  0
  152.9940  143.9187  158.9016 C   0  0  0  0  0  0  0  0  0  0  0  0
  152.7138  141.8224  160.0396 C   0  0  2  0  0  0  0  0  0  0  0  0
  153.9317  140.9326  159.7020 C   0  0  0  0  0  0  0  0  0  0  0  0
  154.9498  141.1034  160.6659 O   0  0  0  0  0  0  0  0  0  0  0  0
  150.3729  138.4482  154.2241 N   0  0  0  0  0  0  0  0  0  0  0  0
  149.2166  138.6701  153.5719 N   0  0  0  0  0  0  0  0  0  0  0  0
  148.8355  137.9950  152.9242 H   0  0  0  0  0  0  0  0  0  0  0  0
  147.0259  141.2719  153.7289 H   0  0  0  0  0  0  0  0  0  0  0  0
  146.5749  139.5945  153.4234 H   0  0  0  0  0  0  0  0  0  0  0  0
  147.4755  140.5036  152.2062 H   0  0  0  0  0  0  0  0  0  0  0  0
  149.3498  141.4393  155.2598 H   0  0  0  0  0  0  0  0  0  0  0  0
  152.2571  138.7054  155.9336 H   0  0  0  0  0  0  0  0  0  0  0  0
  152.4794  140.3575  155.4103 H   0  0  0  0  0  0  0  0  0  0  0  0
  152.5946  141.7262  157.0630 H   0  0  0  0  0  0  0  0  0  0  0  0
  150.6624  141.5918  159.3008 H   0  0  0  0  0  0  0  0  0  0  0  0
  151.1022  143.7679  157.7544 H   0  0  0  0  0  0  0  0  0  0  0  0
  150.6349  145.1826  159.7192 H   0  0  0  0  0  0  0  0  0  0  0  0
  149.9236  143.6386  160.1862 H   0  0  0  0  0  0  0  0  0  0  0  0
  152.2324  144.9968  161.3697 H   0  0  0  0  0  0  0  0  0  0  0  0
  151.5743  143.4459  161.8841 H   0  0  0  0  0  0  0  0  0  0  0  0
  154.0503  143.4436  160.7881 H   0  0  0  0  0  0  0  0  0  0  0  0
  153.6832  143.4783  158.1797 H   0  0  0  0  0  0  0  0  0  0  0  0
  153.1216  145.0026  158.8976 H   0  0  0  0  0  0  0  0  0  0  0  0
  152.2508  141.4068  160.9362 H   0  0  0  0  0  0  0  0  0  0  0  0
  153.6495  139.8799  159.7069 H   0  0  0  0  0  0  0  0  0  0  0  0
  154.3331  141.1590  158.7142 H   0  0  0  0  0  0  0  0  0  0  0  0
  155.0174  142.0233  160.8719 H   0  0  0  0  0  0  0  0  0  0  0  0
  1  2  1  0  0  0  0
  1 21  1  0  0  0  0
  1 22  1  0  0  0  0
  1 23  1  0  0  0  0
  2 19  1  0  0  0  0
  2  3  2  0  0  0  0
  3  4  1  0  0  0  0
  3 24  1  0  0  0  0
  4  5  1  0  0  0  0
  4 18  2  0  0  0  0
  5  6  1  0  0  0  0
  5 25  1  0  0  0  0
  5 26  1  0  0  0  0
  6  7  2  0  0  0  0
  6  8  1  0  0  0  0
  8  9  1  0  0  0  0
  8 27  1  0  0  0  0
  9 15  1  0  0  0  0
  9 10  1  0  0  0  0
  9 28  1  0  0  0  0
 10 14  1  0  0  0  0
 10 11  1  0  0  0  0
 10 29  1  0  0  0  0
 11 12  1  0  0  0  0
 11 30  1  0  0  0  0
 11 31  1  0  0  0  0
 12 13  1  0  0  0  0
 12 32  1  0  0  0  0
 12 33  1  0  0  0  0
 13 14  1  0  0  0  0
 13 15  1  0  0  0  0
 13 34  1  0  0  0  0
 14 35  1  0  0  0  0
 14 36  1  0  0  0  0
 15 16  1  0  0  0  0
 15 37  1  0  0  0  0
 16 17  1  0  0  0  0
 16 38  1  0  0  0  0
 16 39  1  0  0  0  0
 17 40  1  0  0  0  0
 18 19  1  0  0  0  0
 19 20  1  0  0  0  0
M  END
> <s_m_source_file>
AV-unprocessed.smi

> <i_m_source_file_index>
2881

> <i_lp_mmshare_version>
43012

> <i_f3d_flags>
0

> <s_epik_input>
W0NIM11jMVtjSF1jKG5bbkhdMSlbQ0gyXUMoPU8pW05IXVtDQEhdKFtDQEBIXTIzKVtDQEhdKFtDSDJdW09IXSlbQ0BASF0oW0NIMl0zKVtDSDJdW0NIMl0y

> <s_epik_cmdline>
J2VwaWtfcHl0aG9uJywgJy1waCcsICc3LjAnLCAnLXRuJywgJzgnLCAnLW1hJywgJzIwMCcsICctbWV0YWxfYmluZGluZycsICctaW1hZScsICc8aW5maWxlLm1hZT4nLCAnLW9tYWUnLCAnPG91dGZpbGUubWFlPic=

> <r_lp_tautomer_probability>
0.5

> <r_epik_Ionization_Penalty>
9.4349e-05

> <r_epik_Ionization_Penalty_Charging>
0

> <r_epik_Ionization_Penalty_Neutral>
9.4349e-05

> <r_epik_State_Penalty>
0.41068

> <r_epik_Charging_Adjusted_Penalty>
0.41068

> <i_epik_Tot_Q>
0

> <i_epik_Tot_abs_Q>
0

> <r_epik_Metal_State_Penalty>
0.4107

> <b_epik_Metal_Only>
0

> <s_lp_Force_Field>
OPLS_2005

> <r_lp_Energy>
48.9716

> <b_lp_Chiralities_Consistent>
1

> <s_lp_Variant>
AV-unprocessed.smi:2881-5

> <Gold.Version>
5.8.1

> <Gold.Id.Protein>
6NUR|6NUR_protein|mol2

> <Gold.PLP.Fitness>
43.0596

> <Gold.PLP.PLP>
-40.8911

> <Gold.PLP.part.hbond>
-2.9562

> <Gold.PLP.part.metal>
0.0000

> <Gold.PLP.part.buried>
-2.1186

> <Gold.PLP.part.nonpolar>
-36.3936

> <Gold.PLP.part.repulsive>
0.3709

> <Gold.PLP.ligand.clash>
0.0000

> <Gold.PLP.ligand.torsion>
0.4094

> <Gold.PLP.Chemscore.Hbond>
0.9913

> <Gold.PLP.Chemscore.CHOScore>
0.0000

> <Gold.PLP.Chemscore.Metal>
0.0000

> <Gold.Chemscore.Hbonds>
donor molecule, donor type, donor heavy atom, donor atom, acceptor molecule, acceptor atom, score
      L1  H    19    20       P1  7948  0.99

> <Gold.PLP.Chemscore.Internal.Correction>
0.0135

> <Gold.Rescore>
     Score         DG    S(hbond)    S(metal)    S(lipo)     H(rot)  DE(clash)    DE(int)     intcor
     16.27     -16.75       0.97        0.00     118.36       2.28       0.06       0.41       ----

> <Gold.Chemscore.Fitness>
16.2750

> <Gold.Chemscore.DG>
-16.7459

> <Gold.Chemscore.ZeroCoef>
-5.4800

> <Gold.Chemscore.Hbond>
0.9709

> <Gold.Chemscore.Metal>
0.0000

> <Gold.Chemscore.Lipo>
118.3613

> <Gold.Chemscore.Internal_Hbond>
0.0000

> <Gold.Chemscore.DEClash>
0.0622

> <Gold.Chemscore.DEInternal>
0.4087

> <Gold.Chemscore.Rot>
2.2755

> <Gold.Chemscore.Internal.Correction>
   9.000000E+99

> <Gold.Chemscore.Hbonds>
donor molecule, donor type, donor heavy atom, donor atom, acceptor molecule, acceptor atom, score
      L1  H    19    20       P1  7948  0.88

> <Gold.Chemscore.Hbond.Weighted>
-3.2429

> <Gold.Chemscore.Metal.Weighted>
-0.0000

> <Gold.Chemscore.Lipo.Weighted>
-13.8483

> <Gold.Chemscore.Internal_Hbond.Weighted>
0.0000

> <Gold.Chemscore.DEClash.Weighted>
0.0622

> <Gold.Chemscore.DEInternal.Weighted>
0.4087

> <Gold.Chemscore.Rot.Weighted>
5.8252

> <Gold.Chemscore.Internal.Correction.Weighted>
   9.000000E+99

> <Gold.Protein.RotatedTorsions>
[ 6907 6896 6895 6894 ] final   63.40 input  -60.11 | X-H torsion
[ 7974 7965 7964 7962 ] final  -48.12 input  175.53 | X-H torsion
[ 8008 7997 7996 7995 ] final  117.13 input   59.86 | X-H torsion
[ 10167 10162 10161 10158 ] final  -30.42 input  -65.29 | X-H torsion
[ 10718 10713 10712 10709 ] final  -70.43 input   66.30 | X-H torsion
[ 10763 10752 10751 10750 ] final   51.64 input  -60.55 | X-H torsion
[ 11005 11000 10999 10996 ] final -123.91 input  -57.11 | X-H torsion

> <Gold.Protein.ActiveResidues>
 VAL166  LYS551  ARG553  GLY616  TRP617  ASP618  TYR619  PRO620  LYS621  CYS622 
 ASP623  PHE694  ASN695  SER759  ASP760  ASP761  ALA762  ILE779  LEU786  VAL792 
 PHE793  MET794  SER795  GLU796  ALA797  LYS798  CYS799  TRP800  GLU811  SER814 

> <Gold.Protein.RotatedAtoms>
  152.4250  134.5885  159.9967 H   0  0  0  0  0  0  0  0  0  0  0  0  # atno 6907 bound_to 6896
  151.6024  133.3349  159.3058 H   0  0  0  0  0  0  0  0  0  0  0  0  # atno 6908 bound_to 6896
  150.8139  134.7347  159.6778 H   0  0  0  0  0  0  0  0  0  0  0  0  # atno 6909 bound_to 6896
  145.9545  140.7540  142.9488 H   0  0  0  0  0  0  0  0  0  0  0  0  # atno 7974 bound_to 7965
  156.2477  140.2903  156.0631 H   0  0  0  0  0  0  0  0  0  0  0  0  # atno 8008 bound_to 7997
  155.1754  140.0403  157.2889 H   0  0  0  0  0  0  0  0  0  0  0  0  # atno 8009 bound_to 7997
  154.6296  140.2496  155.7456 H   0  0  0  0  0  0  0  0  0  0  0  0  # atno 8010 bound_to 7997
  140.7249  143.3850  151.1531 H   0  0  0  0  0  0  0  0  0  0  0  0  # atno 10167 bound_to 10162
  156.0408  130.4331  150.2294 H   0  0  0  0  0  0  0  0  0  0  0  0  # atno 10718 bound_to 10713
  152.9786  135.5839  154.4449 H   0  0  0  0  0  0  0  0  0  0  0  0  # atno 10763 bound_to 10752
  154.4045  135.2769  155.2077 H   0  0  0  0  0  0  0  0  0  0  0  0  # atno 10764 bound_to 10752
  154.3894  135.6129  153.5889 H   0  0  0  0  0  0  0  0  0  0  0  0  # atno 10765 bound_to 10752
  140.9882  134.0577  157.3686 H   0  0  0  0  0  0  0  0  0  0  0  0  # atno 11005 bound_to 11000
  144.6802  140.2489  143.7334 LP  0  0  0  0  0  0  0  0  0  0  0  0  # atno 17320 bound_to 7965
  145.8126  139.2009  143.1984 LP  0  0  0  0  0  0  0  0  0  0  0  0  # atno 17321 bound_to 7965
  139.7446  143.8872  152.3060 LP  0  0  0  0  0  0  0  0  0  0  0  0  # atno 17342 bound_to 10162
  139.8705  144.7071  150.8993 LP  0  0  0  0  0  0  0  0  0  0  0  0  # atno 17343 bound_to 10162
  157.0389  131.0029  151.3289 LP  0  0  0  0  0  0  0  0  0  0  0  0  # atno 17370 bound_to 10713
  157.5223  130.8006  149.7823 LP  0  0  0  0  0  0  0  0  0  0  0  0  # atno 17371 bound_to 10713
  139.8980  135.0153  156.7128 LP  0  0  0  0  0  0  0  0  0  0  0  0  # atno 17394 bound_to 11000
  140.7081  133.9247  155.8067 LP  0  0  0  0  0  0  0  0  0  0  0  0  # atno 17395 bound_to 11000

$$$$
