AV-unprocessed.smi:3259|AV-procd|sdf|12472|dock1
  -GOLD-   2272018373D 1   1.00000     0.00000
 Structure written by MMmdl.
 39 40  0  0  0  0  0  0  0  0  1 V2000
  152.2224  143.6660  161.5905 C   0  0  0  0  0  0  0  0  0  0  0  0
  151.5798  142.6797  160.7933 O   0  0  0  0  0  0  0  0  0  0  0  0
  152.1620  142.4202  159.5147 C   0  0  1  0  0  0  0  0  0  0  0  0
  153.6549  142.0923  159.6737 C   0  0  0  0  0  0  0  0  0  0  0  0
  151.3019  141.4665  158.6656 C   0  0  0  0  0  0  0  0  0  0  0  0
  151.5688  142.4093  157.4942 C   0  0  1  0  0  0  0  0  0  0  0  0
  150.4143  142.5481  156.6155 N   0  0  0  0  0  0  0  0  0  0  0  0
  150.1274  141.7217  155.5986 C   0  0  0  0  0  0  0  0  0  0  0  0
  150.7772  140.7077  155.3453 O   0  0  0  0  0  0  0  0  0  0  0  0
  148.9309  142.1052  154.7264 C   0  0  0  0  0  0  0  0  0  0  0  0
  148.1719  140.9314  154.3294 N   0  0  0  0  0  0  0  0  0  0  0  0
  148.6413  139.7408  153.8137 C   0  0  0  0  0  0  0  0  0  0  0  0
  147.5610  138.9314  153.6097 C   0  0  0  0  0  0  0  0  0  0  0  0
  146.4592  139.7252  154.0345 C   0  0  0  0  0  0  0  0  0  0  0  0
  146.8274  140.9210  154.4648 N   0  0  0  0  0  0  0  0  0  0  0  0
  151.7370  143.5546  158.5262 C   0  0  0  0  0  0  0  0  0  0  0  0
  150.4651  144.3436  158.9021 C   0  0  0  0  0  0  0  0  0  0  0  0
  152.7970  144.6072  158.1873 C   0  0  0  0  0  0  0  0  0  0  0  0
  151.7461  143.6964  162.5702 H   0  0  0  0  0  0  0  0  0  0  0  0
  152.1327  144.6615  161.1567 H   0  0  0  0  0  0  0  0  0  0  0  0
  153.2784  143.4432  161.7444 H   0  0  0  0  0  0  0  0  0  0  0  0
  154.1596  142.0193  158.7106 H   0  0  0  0  0  0  0  0  0  0  0  0
  153.8106  141.1365  160.1729 H   0  0  0  0  0  0  0  0  0  0  0  0
  154.1694  142.8580  160.2545 H   0  0  0  0  0  0  0  0  0  0  0  0
  151.7149  140.4648  158.5425 H   0  0  0  0  0  0  0  0  0  0  0  0
  150.2543  141.4313  158.9701 H   0  0  0  0  0  0  0  0  0  0  0  0
  152.4959  142.1600  156.9731 H   0  0  0  0  0  0  0  0  0  0  0  0
  149.8248  143.3555  156.7566 H   0  0  0  0  0  0  0  0  0  0  0  0
  148.2757  142.7933  155.2631 H   0  0  0  0  0  0  0  0  0  0  0  0
  149.2782  142.6231  153.8316 H   0  0  0  0  0  0  0  0  0  0  0  0
  149.6937  139.5699  153.6408 H   0  0  0  0  0  0  0  0  0  0  0  0
  147.5587  137.9253  153.2176 H   0  0  0  0  0  0  0  0  0  0  0  0
  145.4099  139.4693  154.0437 H   0  0  0  0  0  0  0  0  0  0  0  0
  150.1256  144.9775  158.0821 H   0  0  0  0  0  0  0  0  0  0  0  0
  150.6386  144.9945  159.7597 H   0  0  0  0  0  0  0  0  0  0  0  0
  149.6327  143.6895  159.1623 H   0  0  0  0  0  0  0  0  0  0  0  0
  152.4363  145.3126  157.4382 H   0  0  0  0  0  0  0  0  0  0  0  0
  153.7032  144.1587  157.7809 H   0  0  0  0  0  0  0  0  0  0  0  0
  153.0846  145.1815  159.0684 H   0  0  0  0  0  0  0  0  0  0  0  0
  1  2  1  0  0  0  0
  1 19  1  0  0  0  0
  1 20  1  0  0  0  0
  1 21  1  0  0  0  0
  2  3  1  0  0  0  0
  3 16  1  0  0  0  0
  3  4  1  0  0  0  0
  3  5  1  0  0  0  0
  4 22  1  0  0  0  0
  4 23  1  0  0  0  0
  4 24  1  0  0  0  0
  5  6  1  0  0  0  0
  5 25  1  0  0  0  0
  5 26  1  0  0  0  0
  6  7  1  0  0  0  0
  6 16  1  0  0  0  0
  6 27  1  0  0  0  0
  7  8  1  0  0  0  0
  7 28  1  0  0  0  0
  8  9  2  0  0  0  0
  8 10  1  0  0  0  0
 10 11  1  0  0  0  0
 10 29  1  0  0  0  0
 10 30  1  0  0  0  0
 11 15  1  0  0  0  0
 11 12  1  0  0  0  0
 12 13  2  0  0  0  0
 12 31  1  0  0  0  0
 13 14  1  0  0  0  0
 13 32  1  0  0  0  0
 14 15  2  0  0  0  0
 14 33  1  0  0  0  0
 16 17  1  0  0  0  0
 16 18  1  0  0  0  0
 17 34  1  0  0  0  0
 17 35  1  0  0  0  0
 17 36  1  0  0  0  0
 18 37  1  0  0  0  0
 18 38  1  0  0  0  0
 18 39  1  0  0  0  0
M  END
> <s_m_source_file>
AV-unprocessed.smi

> <i_m_source_file_index>
3259

> <i_lp_mmshare_version>
43012

> <i_f3d_flags>
0

> <s_epik_input>
W0NIM11PW0NAQF0xKFtDSDNdKVtDSDJdW0NASF0oQzEoW0NIM10pW0NIM10pW05IXUMoPU8pW0NIMl1uMltjSF1bY0hdW2NIXW4y

> <s_epik_cmdline>
J2VwaWtfcHl0aG9uJywgJy1waCcsICc3LjAnLCAnLXRuJywgJzgnLCAnLW1hJywgJzIwMCcsICctbWV0YWxfYmluZGluZycsICctaW1hZScsICc8aW5maWxlLm1hZT4nLCAnLW9tYWUnLCAnPG91dGZpbGUubWFlPic=

> <r_lp_tautomer_probability>
1

> <r_epik_Ionization_Penalty>
1.78399e-05

> <r_epik_Ionization_Penalty_Charging>
0

> <r_epik_Ionization_Penalty_Neutral>
1.78399e-05

> <r_epik_State_Penalty>
-0

> <r_epik_Charging_Adjusted_Penalty>
0

> <i_epik_Tot_Q>
0

> <i_epik_Tot_abs_Q>
0

> <r_epik_Metal_State_Penalty>
-0

> <b_epik_Metal_Only>
0

> <s_lp_Force_Field>
OPLS_2005

> <r_lp_Energy>
22.2184

> <b_lp_Chiralities_Consistent>
1

> <s_lp_Variant>
AV-unprocessed.smi:3259-1

> <Gold.Version>
5.8.1

> <Gold.Id.Protein>
6NUR|6NUR_protein|mol2

> <Gold.PLP.Fitness>
45.2823

> <Gold.PLP.PLP>
-37.4539

> <Gold.PLP.part.hbond>
-3.0000

> <Gold.PLP.part.metal>
0.0000

> <Gold.PLP.part.buried>
1.1108

> <Gold.PLP.part.nonpolar>
-35.1641

> <Gold.PLP.part.repulsive>
0.3124

> <Gold.PLP.ligand.clash>
0.0000

> <Gold.PLP.ligand.torsion>
0.7299

> <Gold.PLP.Chemscore.Hbond>
1.7898

> <Gold.PLP.Chemscore.CHOScore>
1.1794

> <Gold.PLP.Chemscore.Metal>
0.0000

> <Gold.Chemscore.Hbonds>
donor molecule, donor type, donor heavy atom, donor atom, acceptor molecule, acceptor atom, score
      L1  H     7    28       P1  8028  0.78
      P1  H  6933  6945       L1     2  0.09
      P1  H  7989  7998       L1     9  0.86
      L1  C    12    31       P1  7957  0.32
      L1  C    14    33       P1 10175  0.86

> <Gold.PLP.Chemscore.Internal.Correction>
0.3806

> <Gold.Rescore>
     Score         DG    S(hbond)    S(metal)    S(lipo)     H(rot)  DE(clash)    DE(int)     intcor
     16.81     -18.74       1.48        0.00     106.00       1.60       0.29       1.64       ----

> <Gold.Chemscore.Fitness>
16.8115

> <Gold.Chemscore.DG>
-18.7392

> <Gold.Chemscore.ZeroCoef>
-5.4800

> <Gold.Chemscore.Hbond>
1.4801

> <Gold.Chemscore.Metal>
0.0000

> <Gold.Chemscore.Lipo>
105.9983

> <Gold.Chemscore.Internal_Hbond>
0.0000

> <Gold.Chemscore.DEClash>
0.2868

> <Gold.Chemscore.DEInternal>
1.6410

> <Gold.Chemscore.Rot>
1.5962

> <Gold.Chemscore.Internal.Correction>
   9.000000E+99

> <Gold.Chemscore.Hbonds>
donor molecule, donor type, donor heavy atom, donor atom, acceptor molecule, acceptor atom, score
      L1  H     7    28       P1  8028  0.76
      P1  H  6933  6945       L1     2  0.04
      P1  H  7989  7998       L1     9  0.56

> <Gold.Chemscore.Hbond.Weighted>
-4.9436

> <Gold.Chemscore.Metal.Weighted>
-0.0000

> <Gold.Chemscore.Lipo.Weighted>
-12.4018

> <Gold.Chemscore.Internal_Hbond.Weighted>
0.0000

> <Gold.Chemscore.DEClash.Weighted>
0.2868

> <Gold.Chemscore.DEInternal.Weighted>
1.6410

> <Gold.Chemscore.Rot.Weighted>
4.0862

> <Gold.Chemscore.Internal.Correction.Weighted>
   9.000000E+99

> <Gold.Protein.RotatedTorsions>
[ 6907 6896 6895 6894 ] final   31.55 input  -60.11 | X-H torsion
[ 7974 7965 7964 7962 ] final  -60.64 input  175.53 | X-H torsion
[ 8008 7997 7996 7995 ] final  107.35 input   59.86 | X-H torsion
[ 10167 10162 10161 10158 ] final -133.56 input  -65.29 | X-H torsion
[ 10718 10713 10712 10709 ] final   10.40 input   66.30 | X-H torsion
[ 10763 10752 10751 10750 ] final  -10.81 input  -60.55 | X-H torsion
[ 11005 11000 10999 10996 ] final  134.02 input  -57.11 | X-H torsion

> <Gold.Protein.ActiveResidues>
 VAL166  LYS551  ARG553  GLY616  TRP617  ASP618  TYR619  PRO620  LYS621  CYS622 
 ASP623  PHE694  ASN695  SER759  ASP760  ASP761  ALA762  ILE779  LEU786  VAL792 
 PHE793  MET794  SER795  GLU796  ALA797  LYS798  CYS799  TRP800  GLU811  SER814 

> <Gold.Protein.RotatedAtoms>
  152.0618  134.9589  160.0574 H   0  0  0  0  0  0  0  0  0  0  0  0  # atno 6907 bound_to 6896
  152.0949  133.4215  159.4569 H   0  0  0  0  0  0  0  0  0  0  0  0  # atno 6908 bound_to 6896
  150.6838  134.2747  159.4646 H   0  0  0  0  0  0  0  0  0  0  0  0  # atno 6909 bound_to 6896
  145.8130  140.8587  143.0172 H   0  0  0  0  0  0  0  0  0  0  0  0  # atno 7974 bound_to 7965
  156.1817  140.3096  155.9162 H   0  0  0  0  0  0  0  0  0  0  0  0  # atno 8008 bound_to 7997
  155.3369  140.0463  157.3061 H   0  0  0  0  0  0  0  0  0  0  0  0  # atno 8009 bound_to 7997
  154.5350  140.2243  155.8748 H   0  0  0  0  0  0  0  0  0  0  0  0  # atno 8010 bound_to 7997
  139.8970  143.6654  152.2602 H   0  0  0  0  0  0  0  0  0  0  0  0  # atno 10167 bound_to 10162
  156.9804  130.6003  149.5676 H   0  0  0  0  0  0  0  0  0  0  0  0  # atno 10718 bound_to 10713
  153.4746  135.7017  153.5973 H   0  0  0  0  0  0  0  0  0  0  0  0  # atno 10763 bound_to 10752
  153.4213  135.3825  155.2113 H   0  0  0  0  0  0  0  0  0  0  0  0  # atno 10764 bound_to 10752
  154.8724  135.3928  154.4188 H   0  0  0  0  0  0  0  0  0  0  0  0  # atno 10765 bound_to 10752
  139.9888  134.9522  156.9808 H   0  0  0  0  0  0  0  0  0  0  0  0  # atno 11005 bound_to 11000
  144.6755  140.0423  143.7480 LP  0  0  0  0  0  0  0  0  0  0  0  0  # atno 17320 bound_to 7965
  145.9756  139.2903  143.1072 LP  0  0  0  0  0  0  0  0  0  0  0  0  # atno 17321 bound_to 7965
  139.7059  144.7628  151.1194 LP  0  0  0  0  0  0  0  0  0  0  0  0  # atno 17342 bound_to 10162
  140.7715  143.5395  150.9329 LP  0  0  0  0  0  0  0  0  0  0  0  0  # atno 17343 bound_to 10162
  156.0247  130.5341  150.8373 LP  0  0  0  0  0  0  0  0  0  0  0  0  # atno 17370 bound_to 10713
  157.5530  131.0944  150.9668 LP  0  0  0  0  0  0  0  0  0  0  0  0  # atno 17371 bound_to 10713
  140.4949  134.1156  155.7239 LP  0  0  0  0  0  0  0  0  0  0  0  0  # atno 17394 bound_to 11000
  141.1548  133.8902  157.2005 LP  0  0  0  0  0  0  0  0  0  0  0  0  # atno 17395 bound_to 11000

$$$$
