AV-unprocessed.smi:1044|AV-procd|sdf|4543|dock6
  -GOLD-   22720 2573D 1   1.00000     0.00000
 Structure written by MMmdl.
 45 46  0  0  0  0  0  0  0  0  1 V2000
  146.1434  132.8124  150.3277 C   0  0  0  0  0  0  0  0  0  0  0  0
  146.0669  132.4497  151.8128 C   0  0  0  0  0  0  0  0  0  0  0  0
  147.1827  133.0295  152.4817 O   0  0  0  0  0  0  0  0  0  0  0  0
  147.9639  132.2260  153.2905 C   0  0  0  0  0  0  0  0  0  0  0  0
  147.7014  130.8954  153.3248 N   0  0  0  0  0  0  0  0  0  0  0  0
  148.4665  130.1090  154.1090 C   0  0  0  0  0  0  0  0  0  0  0  0
  149.5286  130.6005  154.8894 C   0  0  0  0  0  0  0  0  0  0  0  0
  149.8025  131.9806  154.8565 C   0  0  0  0  0  0  0  0  0  0  0  0
  148.9992  132.8216  154.0483 C   0  0  0  0  0  0  0  0  0  0  0  0
  149.1979  134.2248  153.9223 N   0  0  0  0  0  0  0  0  0  0  0  0
  149.6974  135.0904  154.8208 C   0  0  0  0  0  0  0  0  0  0  0  0
  150.0554  134.8068  155.9637 O   0  0  0  0  0  0  0  0  0  0  0  0
  149.7431  136.3326  154.3188 N   0  0  0  0  0  0  0  0  0  0  0  0
  150.2296  137.5103  155.0302 C   0  0  1  0  0  0  0  0  0  0  0  0
  151.5905  137.2055  155.6717 C   0  0  0  0  0  0  0  0  0  0  0  0
  152.1112  138.4529  156.3939 C   0  0  0  0  0  0  0  0  0  0  0  0
  152.1943  139.6562  155.4390 C   0  0  0  0  0  0  0  0  0  0  0  0
  150.9092  139.8997  154.7518 N   0  0  0  0  0  0  0  0  0  0  0  0
  149.8598  141.1786  155.2919 S   0  0  0  0  0  0  0  0  0  0  0  0
  150.9696  142.3019  156.2344 C   0  0  0  0  0  0  0  0  0  0  0  0
  149.3781  141.8985  154.1031 O   0  0  0  0  0  0  0  0  0  0  0  0
  148.8911  140.5969  156.2335 O   0  0  0  0  0  0  0  0  0  0  0  0
  150.3373  138.7184  154.0743 C   0  0  0  0  0  0  0  0  0  0  0  0
  145.3037  132.3852  149.7793 H   0  0  0  0  0  0  0  0  0  0  0  0
  147.0627  132.4349  149.8790 H   0  0  0  0  0  0  0  0  0  0  0  0
  146.1197  133.8933  150.1871 H   0  0  0  0  0  0  0  0  0  0  0  0
  145.1325  132.8257  152.2328 H   0  0  0  0  0  0  0  0  0  0  0  0
  146.0771  131.3644  151.9256 H   0  0  0  0  0  0  0  0  0  0  0  0
  148.2286  129.0556  154.1095 H   0  0  0  0  0  0  0  0  0  0  0  0
  150.1231  129.9337  155.4962 H   0  0  0  0  0  0  0  0  0  0  0  0
  150.6288  132.3593  155.4376 H   0  0  0  0  0  0  0  0  0  0  0  0
  148.8687  134.6268  153.0566 H   0  0  0  0  0  0  0  0  0  0  0  0
  149.4206  136.4748  153.3728 H   0  0  0  0  0  0  0  0  0  0  0  0
  149.5282  137.7423  155.8318 H   0  0  0  0  0  0  0  0  0  0  0  0
  151.5022  136.3778  156.3762 H   0  0  0  0  0  0  0  0  0  0  0  0
  152.3064  136.8954  154.9091 H   0  0  0  0  0  0  0  0  0  0  0  0
  151.4624  138.6870  157.2369 H   0  0  0  0  0  0  0  0  0  0  0  0
  153.0959  138.2500  156.8158 H   0  0  0  0  0  0  0  0  0  0  0  0
  152.5133  140.5473  155.9791 H   0  0  0  0  0  0  0  0  0  0  0  0
  152.9569  139.4676  154.6827 H   0  0  0  0  0  0  0  0  0  0  0  0
  150.3928  143.1555  156.5890 H   0  0  0  0  0  0  0  0  0  0  0  0
  151.7716  142.6594  155.5911 H   0  0  0  0  0  0  0  0  0  0  0  0
  151.3846  141.7770  157.0936 H   0  0  0  0  0  0  0  0  0  0  0  0
  150.9790  138.4655  153.2293 H   0  0  0  0  0  0  0  0  0  0  0  0
  149.3619  138.9648  153.6546 H   0  0  0  0  0  0  0  0  0  0  0  0
  1  2  1  0  0  0  0
  1 24  1  0  0  0  0
  1 25  1  0  0  0  0
  1 26  1  0  0  0  0
  2  3  1  0  0  0  0
  2 27  1  0  0  0  0
  2 28  1  0  0  0  0
  3  4  1  0  0  0  0
  4  9  1  0  0  0  0
  4  5  2  0  0  0  0
  5  6  1  0  0  0  0
  6  7  2  0  0  0  0
  6 29  1  0  0  0  0
  7  8  1  0  0  0  0
  7 30  1  0  0  0  0
  8  9  2  0  0  0  0
  8 31  1  0  0  0  0
  9 10  1  0  0  0  0
 10 11  1  0  0  0  0
 10 32  1  0  0  0  0
 11 12  2  0  0  0  0
 11 13  1  0  0  0  0
 13 14  1  0  0  0  0
 13 33  1  0  0  0  0
 14 23  1  0  0  0  0
 14 15  1  0  0  0  0
 14 34  1  0  0  0  0
 15 16  1  0  0  0  0
 15 35  1  0  0  0  0
 15 36  1  0  0  0  0
 16 17  1  0  0  0  0
 16 37  1  0  0  0  0
 16 38  1  0  0  0  0
 17 18  1  0  0  0  0
 17 39  1  0  0  0  0
 17 40  1  0  0  0  0
 18 19  1  0  0  0  0
 18 23  1  0  0  0  0
 19 20  1  0  0  0  0
 19 21  2  0  0  0  0
 19 22  2  0  0  0  0
 20 41  1  0  0  0  0
 20 42  1  0  0  0  0
 20 43  1  0  0  0  0
 23 44  1  0  0  0  0
 23 45  1  0  0  0  0
M  END
> <s_m_source_file>
AV-unprocessed.smi

> <i_m_source_file_index>
1044

> <i_lp_mmshare_version>
43012

> <i_f3d_flags>
0

> <s_epik_input>
W0NIM11bQ0gyXU9jMW5bY0hdW2NIXVtjSF1jMVtOSF1DKD1PKVtOSF1bQ0BASF0yW0NIMl1bQ0gyXVtDSDJdTihbQ0gyXTIpUyg9TykoPU8pW0NIM10=

> <s_epik_cmdline>
J2VwaWtfcHl0aG9uJywgJy1waCcsICc3LjAnLCAnLXRuJywgJzgnLCAnLW1hJywgJzIwMCcsICctbWV0YWxfYmluZGluZycsICctaW1hZScsICc8aW5maWxlLm1hZT4nLCAnLW9tYWUnLCAnPG91dGZpbGUubWFlPic=

> <r_lp_tautomer_probability>
1

> <r_epik_Ionization_Penalty>
0.000106941

> <r_epik_Ionization_Penalty_Charging>
0

> <r_epik_Ionization_Penalty_Neutral>
0.000106941

> <r_epik_State_Penalty>
-0

> <r_epik_Charging_Adjusted_Penalty>
0

> <i_epik_Tot_Q>
0

> <i_epik_Tot_abs_Q>
0

> <r_epik_Metal_State_Penalty>
-0

> <b_epik_Metal_Only>
0

> <s_lp_Force_Field>
OPLS_2005

> <r_lp_Energy>
2.58549

> <b_lp_Chiralities_Consistent>
1

> <s_lp_Variant>
AV-unprocessed.smi:1044-2

> <Gold.Version>
5.8.1

> <Gold.Id.Protein>
6NUR|6NUR_protein|mol2

> <Gold.PLP.Fitness>
42.6761

> <Gold.PLP.PLP>
-38.0286

> <Gold.PLP.part.hbond>
-4.2483

> <Gold.PLP.part.metal>
0.0000

> <Gold.PLP.part.buried>
0.2866

> <Gold.PLP.part.nonpolar>
-34.5688

> <Gold.PLP.part.repulsive>
0.5760

> <Gold.PLP.ligand.clash>
0.0000

> <Gold.PLP.ligand.torsion>
1.8772

> <Gold.PLP.Chemscore.Hbond>
2.1024

> <Gold.PLP.Chemscore.CHOScore>
0.0000

> <Gold.PLP.Chemscore.Metal>
0.0000

> <Gold.Chemscore.Hbonds>
donor molecule, donor type, donor heavy atom, donor atom, acceptor molecule, acceptor atom, score
      L1  H    10    32       P1  7948  0.67
      L1  H    13    33       P1  7948  1.00
      P1  H  8011  8017       L1    21  0.45

> <Gold.PLP.Chemscore.Internal.Correction>
2.0947

> <Gold.Rescore>
     Score         DG    S(hbond)    S(metal)    S(lipo)     H(rot)  DE(clash)    DE(int)     intcor
     10.73     -14.77       1.42        0.00      70.77       1.45       0.13       3.90       ----

> <Gold.Chemscore.Fitness>
10.7289

> <Gold.Chemscore.DG>
-14.7677

> <Gold.Chemscore.ZeroCoef>
-5.4800

> <Gold.Chemscore.Hbond>
1.4166

> <Gold.Chemscore.Metal>
0.0000

> <Gold.Chemscore.Lipo>
70.7749

> <Gold.Chemscore.Internal_Hbond>
0.0000

> <Gold.Chemscore.DEClash>
0.1341

> <Gold.Chemscore.DEInternal>
3.9048

> <Gold.Chemscore.Rot>
1.4549

> <Gold.Chemscore.Internal.Correction>
   9.000000E+99

> <Gold.Chemscore.Hbonds>
donor molecule, donor type, donor heavy atom, donor atom, acceptor molecule, acceptor atom, score
      L1  H    10    32       P1  7948  0.08
      L1  H    13    33       P1  7948  0.76
      P1  H  8011  8017       L1    21  0.44

> <Gold.Chemscore.Hbond.Weighted>
-4.7315

> <Gold.Chemscore.Metal.Weighted>
-0.0000

> <Gold.Chemscore.Lipo.Weighted>
-8.2807

> <Gold.Chemscore.Internal_Hbond.Weighted>
0.0000

> <Gold.Chemscore.DEClash.Weighted>
0.1341

> <Gold.Chemscore.DEInternal.Weighted>
3.9048

> <Gold.Chemscore.Rot.Weighted>
3.7244

> <Gold.Chemscore.Internal.Correction.Weighted>
   9.000000E+99

> <Gold.Protein.RotatedTorsions>
[ 6907 6896 6895 6894 ] final  151.86 input  -60.11 | X-H torsion
[ 7974 7965 7964 7962 ] final   80.81 input  175.53 | X-H torsion
[ 8008 7997 7996 7995 ] final  -78.43 input   59.86 | X-H torsion
[ 10167 10162 10161 10158 ] final  -99.18 input  -65.29 | X-H torsion
[ 10718 10713 10712 10709 ] final  -31.29 input   66.30 | X-H torsion
[ 10763 10752 10751 10750 ] final   -7.42 input  -60.55 | X-H torsion
[ 11005 11000 10999 10996 ] final  -23.62 input  -57.11 | X-H torsion

> <Gold.Protein.ActiveResidues>
 VAL166  LYS551  ARG553  GLY616  TRP617  ASP618  TYR619  PRO620  LYS621  CYS622 
 ASP623  PHE694  ASN695  SER759  ASP760  ASP761  ALA762  ILE779  LEU786  VAL792 
 PHE793  MET794  SER795  GLU796  ALA797  LYS798  CYS799  TRP800  GLU811  SER814 

> <Gold.Protein.RotatedAtoms>
  152.0947  133.4218  159.4559 H   0  0  0  0  0  0  0  0  0  0  0  0  # atno 6907 bound_to 6896
  150.6863  134.2830  159.4644 H   0  0  0  0  0  0  0  0  0  0  0  0  # atno 6908 bound_to 6896
  152.0685  134.9548  160.0625 H   0  0  0  0  0  0  0  0  0  0  0  0  # atno 6909 bound_to 6896
  145.6463  139.2437  143.2002 H   0  0  0  0  0  0  0  0  0  0  0  0  # atno 7974 bound_to 7965
  154.5688  140.0694  156.8933 H   0  0  0  0  0  0  0  0  0  0  0  0  # atno 8008 bound_to 7997
  155.2672  140.3362  155.4250 H   0  0  0  0  0  0  0  0  0  0  0  0  # atno 8009 bound_to 7997
  156.2102  140.1756  156.7697 H   0  0  0  0  0  0  0  0  0  0  0  0  # atno 8010 bound_to 7997
  140.2651  143.3381  152.0588 H   0  0  0  0  0  0  0  0  0  0  0  0  # atno 10167 bound_to 10162
  156.3891  130.4369  149.7408 H   0  0  0  0  0  0  0  0  0  0  0  0  # atno 10718 bound_to 10713
  153.4261  135.7011  153.6261 H   0  0  0  0  0  0  0  0  0  0  0  0  # atno 10763 bound_to 10752
  153.4696  135.3718  155.2383 H   0  0  0  0  0  0  0  0  0  0  0  0  # atno 10764 bound_to 10752
  154.8724  135.4039  154.3637 H   0  0  0  0  0  0  0  0  0  0  0  0  # atno 10765 bound_to 10752
  140.8769  133.7681  156.0254 H   0  0  0  0  0  0  0  0  0  0  0  0  # atno 11005 bound_to 11000
  146.1240  140.7272  142.9444 LP  0  0  0  0  0  0  0  0  0  0  0  0  # atno 17320 bound_to 7965
  144.7139  140.4139  143.7059 LP  0  0  0  0  0  0  0  0  0  0  0  0  # atno 17321 bound_to 7965
  139.5005  144.6693  151.6281 LP  0  0  0  0  0  0  0  0  0  0  0  0  # atno 17342 bound_to 10162
  140.5935  143.9738  150.6339 LP  0  0  0  0  0  0  0  0  0  0  0  0  # atno 17343 bound_to 10162
  156.4469  130.7888  151.2909 LP  0  0  0  0  0  0  0  0  0  0  0  0  # atno 17370 bound_to 10713
  157.7498  131.0107  150.3318 LP  0  0  0  0  0  0  0  0  0  0  0  0  # atno 17371 bound_to 10713
  140.8507  134.2957  157.5276 LP  0  0  0  0  0  0  0  0  0  0  0  0  # atno 17394 bound_to 11000
  139.8716  134.9466  156.3944 LP  0  0  0  0  0  0  0  0  0  0  0  0  # atno 17395 bound_to 11000

$$$$
