AV-unprocessed.smi:2411|AV-procd|sdf|9530|dock10
  -GOLD-   2272013163D 1   1.00000     0.00000
 Structure written by MMmdl.
 41 43  0  0  0  0  0  0  0  0  1 V2000
  146.6595  142.3365  153.7598 C   0  0  0  0  0  0  0  0  0  0  0  0
  147.2488  141.9070  155.0208 N   0  0  0  0  0  0  0  0  0  0  0  0
  146.3313  141.7824  156.1467 C   0  0  0  0  0  0  0  0  0  0  0  0
  148.2027  140.8794  154.8731 C   0  0  0  0  0  0  0  0  0  0  0  0
  147.7888  139.6975  154.3543 N   0  0  0  0  0  0  0  0  0  0  0  0
  148.7014  138.7373  154.1976 C   0  0  0  0  0  0  0  0  0  0  0  0
  149.9960  138.8107  154.5057 N   0  0  0  0  0  0  0  0  0  0  0  0
  150.4308  139.9770  155.0261 C   0  0  0  0  0  0  0  0  0  0  0  0
  149.5624  141.0771  155.2310 C   0  0  0  0  0  0  0  0  0  0  0  0
  149.9833  142.2983  155.8255 N   0  0  0  0  0  0  0  0  0  0  0  0
  150.9912  142.4827  156.6927 C   0  0  0  0  0  0  0  0  0  0  0  0
  151.6976  141.5885  157.1582 O   0  0  0  0  0  0  0  0  0  0  0  0
  151.1574  143.7833  156.9690 N   0  0  0  0  0  0  0  0  0  0  0  0
  152.2024  144.3421  157.8236 C   0  0  0  0  0  0  0  0  0  0  0  0
  151.9701  144.3111  159.3341 C   0  0  0  0  0  0  0  0  0  0  0  0
  152.9273  143.3793  160.0700 C   0  0  0  0  0  0  0  0  0  0  0  0
  152.6567  141.8940  160.1032 C   0  0  0  0  0  0  0  0  0  0  0  0
  152.6195  142.6929  161.3852 C   0  0  0  0  0  0  0  0  0  0  0  0
  151.5802  145.5851  160.0636 C   0  0  0  0  0  0  0  0  0  0  0  0
  150.5468  144.5138  159.8387 C   0  0  0  0  0  0  0  0  0  0  0  0
  147.4178  142.6414  153.0390 H   0  0  0  0  0  0  0  0  0  0  0  0
  145.9949  143.1857  153.9207 H   0  0  0  0  0  0  0  0  0  0  0  0
  146.0755  141.5282  153.3180 H   0  0  0  0  0  0  0  0  0  0  0  0
  146.8660  141.5090  157.0571 H   0  0  0  0  0  0  0  0  0  0  0  0
  145.5718  141.0251  155.9482 H   0  0  0  0  0  0  0  0  0  0  0  0
  145.8260  142.7311  156.3283 H   0  0  0  0  0  0  0  0  0  0  0  0
  148.3545  137.8030  153.7822 H   0  0  0  0  0  0  0  0  0  0  0  0
  151.4741  140.0065  155.3004 H   0  0  0  0  0  0  0  0  0  0  0  0
  149.5492  143.1324  155.4577 H   0  0  0  0  0  0  0  0  0  0  0  0
  150.5283  144.4431  156.5355 H   0  0  0  0  0  0  0  0  0  0  0  0
  153.1139  143.7814  157.6160 H   0  0  0  0  0  0  0  0  0  0  0  0
  152.4182  145.3702  157.5278 H   0  0  0  0  0  0  0  0  0  0  0  0
  153.9739  143.6537  159.9512 H   0  0  0  0  0  0  0  0  0  0  0  0
  151.7065  141.5432  159.7048 H   0  0  0  0  0  0  0  0  0  0  0  0
  153.5023  141.2271  159.9480 H   0  0  0  0  0  0  0  0  0  0  0  0
  153.4458  142.5568  162.0798 H   0  0  0  0  0  0  0  0  0  0  0  0
  151.6513  142.8430  161.8547 H   0  0  0  0  0  0  0  0  0  0  0  0
  151.9444  145.7168  161.0805 H   0  0  0  0  0  0  0  0  0  0  0  0
  151.4798  146.5055  159.4934 H   0  0  0  0  0  0  0  0  0  0  0  0
  149.7647  144.7278  159.1134 H   0  0  0  0  0  0  0  0  0  0  0  0
  150.2063  143.9572  160.7071 H   0  0  0  0  0  0  0  0  0  0  0  0
  1  2  1  0  0  0  0
  1 21  1  0  0  0  0
  1 22  1  0  0  0  0
  1 23  1  0  0  0  0
  2  3  1  0  0  0  0
  2  4  1  0  0  0  0
  3 24  1  0  0  0  0
  3 25  1  0  0  0  0
  3 26  1  0  0  0  0
  4  9  1  0  0  0  0
  4  5  2  0  0  0  0
  5  6  1  0  0  0  0
  6  7  2  0  0  0  0
  6 27  1  0  0  0  0
  7  8  1  0  0  0  0
  8  9  2  0  0  0  0
  8 28  1  0  0  0  0
  9 10  1  0  0  0  0
 10 11  1  0  0  0  0
 10 29  1  0  0  0  0
 11 12  2  0  0  0  0
 11 13  1  0  0  0  0
 13 14  1  0  0  0  0
 13 30  1  0  0  0  0
 14 15  1  0  0  0  0
 14 31  1  0  0  0  0
 14 32  1  0  0  0  0
 15 20  1  0  0  0  0
 15 16  1  0  0  0  0
 15 19  1  0  0  0  0
 16 18  1  0  0  0  0
 16 17  1  0  0  0  0
 16 33  1  0  0  0  0
 17 18  1  0  0  0  0
 17 34  1  0  0  0  0
 17 35  1  0  0  0  0
 18 36  1  0  0  0  0
 18 37  1  0  0  0  0
 19 20  1  0  0  0  0
 19 38  1  0  0  0  0
 19 39  1  0  0  0  0
 20 40  1  0  0  0  0
 20 41  1  0  0  0  0
M  END
> <s_m_source_file>
AV-unprocessed.smi

> <i_m_source_file_index>
2411

> <i_lp_mmshare_version>
43012

> <i_f3d_flags>
0

> <s_epik_input>
W0NIM11OKFtDSDNdKWMxbltjSF1uW2NIXWMxW05IXUMoPU8pW05IXVtDSDJdQzIoW0NIMl1bQ0gyXTIpW0NIXTNbQ0gyXVtDSDJdMw==

> <s_epik_cmdline>
J2VwaWtfcHl0aG9uJywgJy1waCcsICc3LjAnLCAnLXRuJywgJzgnLCAnLW1hJywgJzIwMCcsICctbWV0YWxfYmluZGluZycsICctaW1hZScsICc8aW5maWxlLm1hZT4nLCAnLW9tYWUnLCAnPG91dGZpbGUubWFlPic=

> <r_lp_tautomer_probability>
1

> <r_epik_Ionization_Penalty>
0.0183431

> <r_epik_Ionization_Penalty_Charging>
0

> <r_epik_Ionization_Penalty_Neutral>
0.0183431

> <r_epik_State_Penalty>
0.013978

> <r_epik_Charging_Adjusted_Penalty>
0.013978

> <i_epik_Tot_Q>
0

> <i_epik_Tot_abs_Q>
0

> <r_epik_Metal_State_Penalty>
0.0135734

> <b_epik_Metal_Only>
0

> <s_lp_Force_Field>
OPLS_2005

> <r_lp_Energy>
29.7017

> <b_lp_Chiralities_Consistent>
1

> <s_lp_Variant>
AV-unprocessed.smi:2411-1

> <Gold.Version>
5.8.1

> <Gold.Id.Protein>
6NUR|6NUR_protein|mol2

> <Gold.PLP.Fitness>
53.3946

> <Gold.PLP.PLP>
-46.1917

> <Gold.PLP.part.hbond>
-2.0000

> <Gold.PLP.part.metal>
0.0000

> <Gold.PLP.part.buried>
-5.1721

> <Gold.PLP.part.nonpolar>
-39.2755

> <Gold.PLP.part.repulsive>
0.6051

> <Gold.PLP.ligand.clash>
0.0000

> <Gold.PLP.ligand.torsion>
2.3120

> <Gold.PLP.Chemscore.Hbond>
1.9920

> <Gold.PLP.Chemscore.CHOScore>
0.9985

> <Gold.PLP.Chemscore.Metal>
0.0000

> <Gold.Chemscore.Hbonds>
donor molecule, donor type, donor heavy atom, donor atom, acceptor molecule, acceptor atom, score
      L1  H    10    29       P1  8028  1.00
      L1  H    13    30       P1  8028  0.98
      L1  C     6    27       P1  7948  0.97

> <Gold.PLP.Chemscore.Internal.Correction>
2.8553

> <Gold.Rescore>
     Score         DG    S(hbond)    S(metal)    S(lipo)     H(rot)  DE(clash)    DE(int)     intcor
     16.11     -19.63       1.92        0.00     102.73       1.68       0.05       3.48       ----

> <Gold.Chemscore.Fitness>
16.1059

> <Gold.Chemscore.DG>
-19.6349

> <Gold.Chemscore.ZeroCoef>
-5.4800

> <Gold.Chemscore.Hbond>
1.9238

> <Gold.Chemscore.Metal>
0.0000

> <Gold.Chemscore.Lipo>
102.7282

> <Gold.Chemscore.Internal_Hbond>
0.0000

> <Gold.Chemscore.DEClash>
0.0529

> <Gold.Chemscore.DEInternal>
3.4760

> <Gold.Chemscore.Rot>
1.6757

> <Gold.Chemscore.Internal.Correction>
   9.000000E+99

> <Gold.Chemscore.Hbonds>
donor molecule, donor type, donor heavy atom, donor atom, acceptor molecule, acceptor atom, score
      L1  H    10    29       P1  8028  0.96
      L1  H    13    30       P1  8028  0.93

> <Gold.Chemscore.Hbond.Weighted>
-6.4254

> <Gold.Chemscore.Metal.Weighted>
-0.0000

> <Gold.Chemscore.Lipo.Weighted>
-12.0192

> <Gold.Chemscore.Internal_Hbond.Weighted>
0.0000

> <Gold.Chemscore.DEClash.Weighted>
0.0529

> <Gold.Chemscore.DEInternal.Weighted>
3.4760

> <Gold.Chemscore.Rot.Weighted>
4.2897

> <Gold.Chemscore.Internal.Correction.Weighted>
   9.000000E+99

> <Gold.Protein.RotatedTorsions>
[ 6907 6896 6895 6894 ] final -124.46 input  -60.11 | X-H torsion
[ 7974 7965 7964 7962 ] final  153.71 input  175.53 | X-H torsion
[ 8008 7997 7996 7995 ] final   -2.02 input   59.86 | X-H torsion
[ 10167 10162 10161 10158 ] final  -70.64 input  -65.29 | X-H torsion
[ 10718 10713 10712 10709 ] final   62.53 input   66.30 | X-H torsion
[ 10763 10752 10751 10750 ] final  -35.78 input  -60.55 | X-H torsion
[ 11005 11000 10999 10996 ] final  105.71 input  -57.11 | X-H torsion

> <Gold.Protein.ActiveResidues>
 VAL166  LYS551  ARG553  GLY616  TRP617  ASP618  TYR619  PRO620  LYS621  CYS622 
 ASP623  PHE694  ASN695  SER759  ASP760  ASP761  ALA762  ILE779  LEU786  VAL792 
 PHE793  MET794  SER795  GLU796  ALA797  LYS798  CYS799  TRP800  GLU811  SER814 

> <Gold.Protein.RotatedAtoms>
  150.8771  133.7424  159.2943 H   0  0  0  0  0  0  0  0  0  0  0  0  # atno 6907 bound_to 6896
  151.5017  135.1060  159.9840 H   0  0  0  0  0  0  0  0  0  0  0  0  # atno 6908 bound_to 6896
  152.4735  133.8038  159.7022 H   0  0  0  0  0  0  0  0  0  0  0  0  # atno 6909 bound_to 6896
  144.8136  139.6837  143.6131 H   0  0  0  0  0  0  0  0  0  0  0  0  # atno 7974 bound_to 7965
  154.6403  140.2545  155.7330 H   0  0  0  0  0  0  0  0  0  0  0  0  # atno 8008 bound_to 7997
  156.2525  140.2889  156.0714 H   0  0  0  0  0  0  0  0  0  0  0  0  # atno 8009 bound_to 7997
  155.1607  140.0384  157.2832 H   0  0  0  0  0  0  0  0  0  0  0  0  # atno 8010 bound_to 7997
  140.5336  143.2319  151.7217 H   0  0  0  0  0  0  0  0  0  0  0  0  # atno 10167 bound_to 10162
  157.5907  130.9055  149.9600 H   0  0  0  0  0  0  0  0  0  0  0  0  # atno 10718 bound_to 10713
  153.8688  135.6833  153.4776 H   0  0  0  0  0  0  0  0  0  0  0  0  # atno 10763 bound_to 10752
  153.1299  135.4702  154.9330 H   0  0  0  0  0  0  0  0  0  0  0  0  # atno 10764 bound_to 10752
  154.7724  135.3242  154.8113 H   0  0  0  0  0  0  0  0  0  0  0  0  # atno 10765 bound_to 10752
  139.8805  134.9345  156.5555 H   0  0  0  0  0  0  0  0  0  0  0  0  # atno 11005 bound_to 11000
  146.2437  139.6054  142.9474 LP  0  0  0  0  0  0  0  0  0  0  0  0  # atno 17320 bound_to 7965
  145.5266  141.0429  143.2406 LP  0  0  0  0  0  0  0  0  0  0  0  0  # atno 17321 bound_to 7965
  139.4963  144.4076  152.0115 LP  0  0  0  0  0  0  0  0  0  0  0  0  # atno 17342 bound_to 10162
  140.3180  144.3461  150.6017 LP  0  0  0  0  0  0  0  0  0  0  0  0  # atno 17343 bound_to 10162
  156.0962  130.3659  150.0302 LP  0  0  0  0  0  0  0  0  0  0  0  0  # atno 17370 bound_to 10713
  156.8426  130.9431  151.3631 LP  0  0  0  0  0  0  0  0  0  0  0  0  # atno 17371 bound_to 10713
  140.8208  133.8355  155.8894 LP  0  0  0  0  0  0  0  0  0  0  0  0  # atno 17394 bound_to 11000
  140.9420  134.1889  157.4791 LP  0  0  0  0  0  0  0  0  0  0  0  0  # atno 17395 bound_to 11000

$$$$
