AV-unprocessed.smi:774|AV-procd|sdf|3694|dock1
  -GOLD-   22720 1113D 1   1.00000     0.00000
 Structure written by MMmdl.
 37 38  0  0  0  0  0  0  0  0  1 V2000
  151.0802  142.0999  156.2499 C   0  0  0  0  0  0  0  0  0  0  0  0
  150.6332  140.8179  155.5429 C   0  0  0  0  0  0  0  0  0  0  0  0
  149.3166  141.1477  154.3393 S   0  0  0  0  0  0  0  0  0  0  0  0
  148.5257  139.5144  154.2584 C   0  0  1  0  0  0  0  0  0  0  0  0
  147.7239  139.1707  155.5128 C   0  0  0  0  0  0  0  0  0  0  0  0
  146.7634  138.0704  155.0598 C   0  0  0  0  0  0  0  0  0  0  0  0
  146.4897  138.3323  153.5669 C   0  0  2  0  0  0  0  0  0  0  0  0
  146.6525  137.1086  152.7856 N   0  0  0  0  0  0  0  0  0  0  0  0
  145.6594  136.2786  152.4366 C   0  0  0  0  0  0  0  0  0  0  0  0
  144.4795  136.4667  152.7333 O   0  0  0  0  0  0  0  0  0  0  0  0
  146.1205  135.2454  151.7112 N   0  0  0  0  0  0  0  0  0  0  0  0
  145.3936  134.1345  151.2060 C   0  0  0  0  0  0  0  0  0  0  0  0
  145.9458  133.1509  150.3506 C   0  0  0  0  0  0  0  0  0  0  0  0
  145.1191  132.1071  149.8928 C   0  0  0  0  0  0  0  0  0  0  0  0
  143.7713  132.0883  150.3011 C   0  0  0  0  0  0  0  0  0  0  0  0
  143.2282  133.0268  151.1048 N   0  0  0  0  0  0  0  0  0  0  0  0
  144.0265  134.0257  151.5383 C   0  0  0  0  0  0  0  0  0  0  0  0
  147.4952  139.4157  153.1301 C   0  0  0  0  0  0  0  0  0  0  0  0
  151.8696  141.8898  156.9718 H   0  0  0  0  0  0  0  0  0  0  0  0
  150.2515  142.5609  156.7876 H   0  0  0  0  0  0  0  0  0  0  0  0
  151.4658  142.8293  155.5372 H   0  0  0  0  0  0  0  0  0  0  0  0
  151.4787  140.3602  155.0286 H   0  0  0  0  0  0  0  0  0  0  0  0
  150.2741  140.0982  156.2782 H   0  0  0  0  0  0  0  0  0  0  0  0
  149.2937  138.7558  154.1009 H   0  0  0  0  0  0  0  0  0  0  0  0
  148.3535  138.8523  156.3439 H   0  0  0  0  0  0  0  0  0  0  0  0
  147.1537  140.0411  155.8408 H   0  0  0  0  0  0  0  0  0  0  0  0
  147.2437  137.1005  155.1999 H   0  0  0  0  0  0  0  0  0  0  0  0
  145.8471  138.0627  155.6509 H   0  0  0  0  0  0  0  0  0  0  0  0
  145.4738  138.7149  153.4509 H   0  0  0  0  0  0  0  0  0  0  0  0
  147.5904  136.8780  152.4924 H   0  0  0  0  0  0  0  0  0  0  0  0
  147.0962  135.2798  151.4539 H   0  0  0  0  0  0  0  0  0  0  0  0
  146.9746  133.1861  150.0268 H   0  0  0  0  0  0  0  0  0  0  0  0
  145.5089  131.3410  149.2389 H   0  0  0  0  0  0  0  0  0  0  0  0
  143.1101  131.3020  149.9678 H   0  0  0  0  0  0  0  0  0  0  0  0
  143.5575  134.7607  152.1763 H   0  0  0  0  0  0  0  0  0  0  0  0
  146.9667  140.3649  153.0296 H   0  0  0  0  0  0  0  0  0  0  0  0
  147.9633  139.2103  152.1664 H   0  0  0  0  0  0  0  0  0  0  0  0
  1  2  1  0  0  0  0
  1 19  1  0  0  0  0
  1 20  1  0  0  0  0
  1 21  1  0  0  0  0
  2  3  1  0  0  0  0
  2 22  1  0  0  0  0
  2 23  1  0  0  0  0
  3  4  1  0  0  0  0
  4 18  1  0  0  0  0
  4  5  1  0  0  0  0
  4 24  1  0  0  0  0
  5  6  1  0  0  0  0
  5 25  1  0  0  0  0
  5 26  1  0  0  0  0
  6  7  1  0  0  0  0
  6 27  1  0  0  0  0
  6 28  1  0  0  0  0
  7  8  1  0  0  0  0
  7 18  1  0  0  0  0
  7 29  1  0  0  0  0
  8  9  1  0  0  0  0
  8 30  1  0  0  0  0
  9 10  2  0  0  0  0
  9 11  1  0  0  0  0
 11 12  1  0  0  0  0
 11 31  1  0  0  0  0
 12 17  1  0  0  0  0
 12 13  2  0  0  0  0
 13 14  1  0  0  0  0
 13 32  1  0  0  0  0
 14 15  2  0  0  0  0
 14 33  1  0  0  0  0
 15 16  1  0  0  0  0
 15 34  1  0  0  0  0
 16 17  2  0  0  0  0
 17 35  1  0  0  0  0
 18 36  1  0  0  0  0
 18 37  1  0  0  0  0
M  END
> <s_m_source_file>
AV-unprocessed.smi

> <i_m_source_file_index>
774

> <i_lp_mmshare_version>
43012

> <i_f3d_flags>
0

> <s_epik_input>
W0NIM11bQ0gyXVNbQ0BASF0xW0NIMl1bQ0gyXVtDQEhdKFtDSDJdMSlbTkhdQyg9TylbTkhdYzJbY0hdW2NIXVtjSF1uW2NIXTI=

> <s_epik_cmdline>
J2VwaWtfcHl0aG9uJywgJy1waCcsICc3LjAnLCAnLXRuJywgJzgnLCAnLW1hJywgJzIwMCcsICctbWV0YWxfYmluZGluZycsICctaW1hZScsICc8aW5maWxlLm1hZT4nLCAnLW9tYWUnLCAnPG91dGZpbGUubWFlPic=

> <r_epik_Ionization_Penalty>
0.00485718

> <r_epik_Ionization_Penalty_Charging>
0

> <r_epik_Ionization_Penalty_Neutral>
0.00485718

> <r_epik_State_Penalty>
0.00349461

> <r_epik_Charging_Adjusted_Penalty>
0.00349461

> <i_epik_Tot_Q>
0

> <i_epik_Tot_abs_Q>
0

> <r_epik_Metal_State_Penalty>
-0

> <b_epik_Metal_Only>
0

> <s_lp_Force_Field>
OPLS_2005

> <r_lp_Energy>
19.7013

> <b_lp_Chiralities_Consistent>
1

> <s_lp_Variant>
AV-unprocessed.smi:774-4

> <Gold.Version>
5.8.1

> <Gold.Id.Protein>
6NUR|6NUR_protein|mol2

> <Gold.PLP.Fitness>
37.8114

> <Gold.PLP.PLP>
-30.4366

> <Gold.PLP.part.hbond>
-2.0000

> <Gold.PLP.part.metal>
0.0000

> <Gold.PLP.part.buried>
-3.6685

> <Gold.PLP.part.nonpolar>
-25.4154

> <Gold.PLP.part.repulsive>
0.9634

> <Gold.PLP.ligand.clash>
0.0000

> <Gold.PLP.ligand.torsion>
0.5518

> <Gold.PLP.Chemscore.Hbond>
1.8424

> <Gold.PLP.Chemscore.CHOScore>
0.9745

> <Gold.PLP.Chemscore.Metal>
0.0000

> <Gold.Chemscore.Hbonds>
donor molecule, donor type, donor heavy atom, donor atom, acceptor molecule, acceptor atom, score
      L1  H     8    30       P1  7948  1.00
      L1  H    11    31       P1  7948  0.80
      L1  C    15    34       P1 10952  1.00

> <Gold.PLP.Chemscore.Internal.Correction>
0.0278

> <Gold.Rescore>
     Score         DG    S(hbond)    S(metal)    S(lipo)     H(rot)  DE(clash)    DE(int)     intcor
     15.95     -18.01       1.93        0.00      80.45       1.30       0.04       2.03       ----

> <Gold.Chemscore.Fitness>
15.9473

> <Gold.Chemscore.DG>
-18.0142

> <Gold.Chemscore.ZeroCoef>
-5.4800

> <Gold.Chemscore.Hbond>
1.9341

> <Gold.Chemscore.Metal>
0.0000

> <Gold.Chemscore.Lipo>
80.4498

> <Gold.Chemscore.Internal_Hbond>
0.0000

> <Gold.Chemscore.DEClash>
0.0415

> <Gold.Chemscore.DEInternal>
2.0254

> <Gold.Chemscore.Rot>
1.3041

> <Gold.Chemscore.Internal.Correction>
   9.000000E+99

> <Gold.Chemscore.Hbonds>
donor molecule, donor type, donor heavy atom, donor atom, acceptor molecule, acceptor atom, score
      L1  H     8    30       P1  7948  0.99
      L1  H    11    31       P1  7948  0.71

> <Gold.Chemscore.Hbond.Weighted>
-6.4600

> <Gold.Chemscore.Metal.Weighted>
-0.0000

> <Gold.Chemscore.Lipo.Weighted>
-9.4126

> <Gold.Chemscore.Internal_Hbond.Weighted>
0.0000

> <Gold.Chemscore.DEClash.Weighted>
0.0415

> <Gold.Chemscore.DEInternal.Weighted>
2.0254

> <Gold.Chemscore.Rot.Weighted>
3.3384

> <Gold.Chemscore.Internal.Correction.Weighted>
   9.000000E+99

> <Gold.Protein.RotatedTorsions>
[ 6907 6896 6895 6894 ] final   18.19 input  -60.11 | X-H torsion
[ 7974 7965 7964 7962 ] final -127.46 input  175.53 | X-H torsion
[ 8008 7997 7996 7995 ] final   39.47 input   59.86 | X-H torsion
[ 10167 10162 10161 10158 ] final   44.84 input  -65.29 | X-H torsion
[ 10718 10713 10712 10709 ] final  -14.85 input   66.30 | X-H torsion
[ 10763 10752 10751 10750 ] final  103.68 input  -60.55 | X-H torsion
[ 11005 11000 10999 10996 ] final  108.26 input  -57.11 | X-H torsion

> <Gold.Protein.ActiveResidues>
 VAL166  LYS551  ARG553  GLY616  TRP617  ASP618  TYR619  PRO620  LYS621  CYS622 
 ASP623  PHE694  ASN695  SER759  ASP760  ASP761  ALA762  ILE779  LEU786  VAL792 
 PHE793  MET794  SER795  GLU796  ALA797  LYS798  CYS799  TRP800  GLU811  SER814 

> <Gold.Protein.RotatedAtoms>
  151.8615  135.0522  160.0469 H   0  0  0  0  0  0  0  0  0  0  0  0  # atno 6907 bound_to 6896
  152.2659  133.5334  159.5418 H   0  0  0  0  0  0  0  0  0  0  0  0  # atno 6908 bound_to 6896
  150.7133  134.0681  159.3897 H   0  0  0  0  0  0  0  0  0  0  0  0  # atno 6909 bound_to 6896
  144.9768  140.7601  143.4636 H   0  0  0  0  0  0  0  0  0  0  0  0  # atno 7974 bound_to 7965
  155.2371  140.3342  155.4296 H   0  0  0  0  0  0  0  0  0  0  0  0  # atno 8008 bound_to 7997
  156.2271  140.1834  156.7381 H   0  0  0  0  0  0  0  0  0  0  0  0  # atno 8009 bound_to 7997
  154.5917  140.0637  156.9232 H   0  0  0  0  0  0  0  0  0  0  0  0  # atno 8010 bound_to 7997
  140.3302  144.2598  150.6169 H   0  0  0  0  0  0  0  0  0  0  0  0  # atno 10167 bound_to 10162
  156.6101  130.4847  149.6205 H   0  0  0  0  0  0  0  0  0  0  0  0  # atno 10718 bound_to 10713
  153.3558  135.3968  155.1681 H   0  0  0  0  0  0  0  0  0  0  0  0  # atno 10763 bound_to 10752
  154.8670  135.3667  154.5163 H   0  0  0  0  0  0  0  0  0  0  0  0  # atno 10764 bound_to 10752
  153.5618  135.7081  153.5604 H   0  0  0  0  0  0  0  0  0  0  0  0  # atno 10765 bound_to 10752
  139.8841  134.9425  156.5945 H   0  0  0  0  0  0  0  0  0  0  0  0  # atno 11005 bound_to 11000
  145.2478  139.2044  143.4958 LP  0  0  0  0  0  0  0  0  0  0  0  0  # atno 17320 bound_to 7965
  146.3397  140.2385  142.8595 LP  0  0  0  0  0  0  0  0  0  0  0  0  # atno 17321 bound_to 7965
  140.5404  143.2225  151.8094 LP  0  0  0  0  0  0  0  0  0  0  0  0  # atno 17342 bound_to 10162
  139.4858  144.4607  151.9544 LP  0  0  0  0  0  0  0  0  0  0  0  0  # atno 17343 bound_to 10162
  156.2397  130.6844  151.1544 LP  0  0  0  0  0  0  0  0  0  0  0  0  # atno 17370 bound_to 10713
  157.7256  131.0652  150.5944 LP  0  0  0  0  0  0  0  0  0  0  0  0  # atno 17371 bound_to 10713
  140.7930  133.8566  155.8662 LP  0  0  0  0  0  0  0  0  0  0  0  0  # atno 17394 bound_to 11000
  140.9660  134.1593  157.4615 LP  0  0  0  0  0  0  0  0  0  0  0  0  # atno 17395 bound_to 11000

$$$$
