AV-unprocessed.smi:2022|AV-procd|sdf|8188|dock5
  -GOLD-   2272010443D 1   1.00000     0.00000
 Structure written by MMmdl.
 34 35  0  0  0  0  0  0  0  0  1 V2000
  136.4027  137.6734  154.0014 C   0  0  0  0  0  0  0  0  0  0  0  0
  137.7975  137.1490  154.0131 C   0  0  0  0  0  0  0  0  0  0  0  0
  138.8336  137.2422  153.1270 C   0  0  0  0  0  0  0  0  0  0  0  0
  139.8713  136.5168  153.7706 C   0  0  0  0  0  0  0  0  0  0  0  0
  141.1452  136.3764  153.1637 N   0  0  0  0  0  0  0  0  0  0  0  0
  141.8943  135.2638  153.0807 C   0  0  0  0  0  0  0  0  0  0  0  0
  141.5798  134.1610  153.5296 O   0  0  0  0  0  0  0  0  0  0  0  0
  143.0478  135.5011  152.4390 N   0  0  0  0  0  0  0  0  0  0  0  0
  144.1122  134.5239  152.2045 C   0  0  1  0  0  0  0  0  0  0  0  0
  143.7383  133.6000  151.0234 C   0  0  0  0  0  0  0  0  0  0  0  0
  144.4716  132.2487  151.0299 C   0  0  0  0  0  0  0  0  0  0  0  0
  145.9990  132.3392  150.8931 C   0  0  0  0  0  0  0  0  0  0  0  0
  146.6862  133.0329  152.0818 C   0  0  0  0  0  0  0  0  0  0  0  0
  146.5912  134.4858  152.0117 N   0  0  0  0  0  0  0  0  0  0  0  0
  145.4738  135.2273  152.0498 C   0  0  0  0  0  0  0  0  0  0  0  0
  145.5345  136.4530  151.9538 O   0  0  0  0  0  0  0  0  0  0  0  0
  139.5010  136.0223  154.9421 N   0  0  0  0  0  0  0  0  0  0  0  0
  138.1702  136.4258  155.1038 O   0  0  0  0  0  0  0  0  0  0  0  0
  136.1602  138.1137  153.0340 H   0  0  0  0  0  0  0  0  0  0  0  0
  136.2737  138.4415  154.7641 H   0  0  0  0  0  0  0  0  0  0  0  0
  135.6868  136.8752  154.1983 H   0  0  0  0  0  0  0  0  0  0  0  0
  138.8449  137.7501  152.1741 H   0  0  0  0  0  0  0  0  0  0  0  0
  141.5298  137.2144  152.7535 H   0  0  0  0  0  0  0  0  0  0  0  0
  143.2236  136.4391  152.1092 H   0  0  0  0  0  0  0  0  0  0  0  0
  144.1855  133.9156  153.1081 H   0  0  0  0  0  0  0  0  0  0  0  0
  142.6693  133.3858  151.0523 H   0  0  0  0  0  0  0  0  0  0  0  0
  143.9085  134.1146  150.0765 H   0  0  0  0  0  0  0  0  0  0  0  0
  144.2199  131.7041  151.9407 H   0  0  0  0  0  0  0  0  0  0  0  0
  144.0865  131.6444  150.2081 H   0  0  0  0  0  0  0  0  0  0  0  0
  146.3895  131.3238  150.8180 H   0  0  0  0  0  0  0  0  0  0  0  0
  146.2690  132.8317  149.9580 H   0  0  0  0  0  0  0  0  0  0  0  0
  146.2933  132.6698  153.0326 H   0  0  0  0  0  0  0  0  0  0  0  0
  147.7474  132.7835  152.0748 H   0  0  0  0  0  0  0  0  0  0  0  0
  147.4645  134.9823  151.9097 H   0  0  0  0  0  0  0  0  0  0  0  0
  1  2  1  0  0  0  0
  1 19  1  0  0  0  0
  1 20  1  0  0  0  0
  1 21  1  0  0  0  0
  2 18  1  0  0  0  0
  2  3  2  0  0  0  0
  3  4  1  0  0  0  0
  3 22  1  0  0  0  0
  4  5  1  0  0  0  0
  4 17  2  0  0  0  0
  5  6  1  0  0  0  0
  5 23  1  0  0  0  0
  6  7  2  0  0  0  0
  6  8  1  0  0  0  0
  8  9  1  0  0  0  0
  8 24  1  0  0  0  0
  9 15  1  0  0  0  0
  9 10  1  0  0  0  0
  9 25  1  0  0  0  0
 10 11  1  0  0  0  0
 10 26  1  0  0  0  0
 10 27  1  0  0  0  0
 11 12  1  0  0  0  0
 11 28  1  0  0  0  0
 11 29  1  0  0  0  0
 12 13  1  0  0  0  0
 12 30  1  0  0  0  0
 12 31  1  0  0  0  0
 13 14  1  0  0  0  0
 13 32  1  0  0  0  0
 13 33  1  0  0  0  0
 14 15  1  0  0  0  0
 14 34  1  0  0  0  0
 15 16  2  0  0  0  0
 17 18  1  0  0  0  0
M  END
> <s_m_source_file>
AV-unprocessed.smi

> <i_m_source_file_index>
2022

> <i_lp_mmshare_version>
43012

> <i_f3d_flags>
0

> <s_epik_input>
W0NIM11jMVtjSF1jKG5vMSlbTkhdQyg9TylbTkhdW0NAQEhdMltDSDJdW0NIMl1bQ0gyXVtDSDJdW05IXUMyPU8=

> <s_epik_cmdline>
J2VwaWtfcHl0aG9uJywgJy1waCcsICc3LjAnLCAnLXRuJywgJzgnLCAnLW1hJywgJzIwMCcsICctbWV0YWxfYmluZGluZycsICctaW1hZScsICc8aW5maWxlLm1hZT4nLCAnLW9tYWUnLCAnPG91dGZpbGUubWFlPic=

> <r_lp_tautomer_probability>
1

> <r_epik_Ionization_Penalty>
2.27343e-05

> <r_epik_Ionization_Penalty_Charging>
0

> <r_epik_Ionization_Penalty_Neutral>
2.27343e-05

> <r_epik_State_Penalty>
-0

> <r_epik_Charging_Adjusted_Penalty>
0

> <i_epik_Tot_Q>
0

> <i_epik_Tot_abs_Q>
0

> <r_epik_Metal_State_Penalty>
-0

> <b_epik_Metal_Only>
0

> <s_lp_Force_Field>
OPLS_2005

> <r_lp_Energy>
7.86792

> <b_lp_Chiralities_Consistent>
1

> <s_lp_Variant>
AV-unprocessed.smi:2022-2

> <Gold.Version>
5.8.1

> <Gold.Id.Protein>
6NUR|6NUR_protein|mol2

> <Gold.PLP.Fitness>
35.2068

> <Gold.PLP.PLP>
-30.5173

> <Gold.PLP.part.hbond>
-2.9535

> <Gold.PLP.part.metal>
0.0000

> <Gold.PLP.part.buried>
-7.3720

> <Gold.PLP.part.nonpolar>
-23.6486

> <Gold.PLP.part.repulsive>
2.6578

> <Gold.PLP.ligand.clash>
0.0000

> <Gold.PLP.ligand.torsion>
0.6690

> <Gold.PLP.Chemscore.Hbond>
2.0000

> <Gold.PLP.Chemscore.CHOScore>
0.0000

> <Gold.PLP.Chemscore.Metal>
0.0000

> <Gold.Chemscore.Hbonds>
donor molecule, donor type, donor heavy atom, donor atom, acceptor molecule, acceptor atom, score
      L1  H    14    34       P1  7948  1.00
      P1  H 11000 11005       L1    17  1.00

> <Gold.PLP.Chemscore.Internal.Correction>
0.0275

> <Gold.Rescore>
     Score         DG    S(hbond)    S(metal)    S(lipo)     H(rot)  DE(clash)    DE(int)     intcor
     14.46     -15.23       1.71        0.00      56.41       1.00       0.12       0.65       ----

> <Gold.Chemscore.Fitness>
14.4598

> <Gold.Chemscore.DG>
-15.2285

> <Gold.Chemscore.ZeroCoef>
-5.4800

> <Gold.Chemscore.Hbond>
1.7091

> <Gold.Chemscore.Metal>
0.0000

> <Gold.Chemscore.Lipo>
56.4097

> <Gold.Chemscore.Internal_Hbond>
0.0000

> <Gold.Chemscore.DEClash>
0.1178

> <Gold.Chemscore.DEInternal>
0.6509

> <Gold.Chemscore.Rot>
1.0000

> <Gold.Chemscore.Internal.Correction>
   9.000000E+99

> <Gold.Chemscore.Hbonds>
donor molecule, donor type, donor heavy atom, donor atom, acceptor molecule, acceptor atom, score
      L1  H    14    34       P1  7948  0.88
      P1  H 11000 11005       L1    17  0.82

> <Gold.Chemscore.Hbond.Weighted>
-5.7086

> <Gold.Chemscore.Metal.Weighted>
-0.0000

> <Gold.Chemscore.Lipo.Weighted>
-6.5999

> <Gold.Chemscore.Internal_Hbond.Weighted>
0.0000

> <Gold.Chemscore.DEClash.Weighted>
0.1178

> <Gold.Chemscore.DEInternal.Weighted>
0.6509

> <Gold.Chemscore.Rot.Weighted>
2.5600

> <Gold.Chemscore.Internal.Correction.Weighted>
   9.000000E+99

> <Gold.Protein.RotatedTorsions>
[ 6907 6896 6895 6894 ] final  -30.27 input  -60.11 | X-H torsion
[ 7974 7965 7964 7962 ] final  148.46 input  175.53 | X-H torsion
[ 8008 7997 7996 7995 ] final   72.26 input   59.86 | X-H torsion
[ 10167 10162 10161 10158 ] final  159.97 input  -65.29 | X-H torsion
[ 10718 10713 10712 10709 ] final   11.73 input   66.30 | X-H torsion
[ 10763 10752 10751 10750 ] final -113.61 input  -60.55 | X-H torsion
[ 11005 11000 10999 10996 ] final   70.93 input  -57.11 | X-H torsion

> <Gold.Protein.ActiveResidues>
 VAL166  LYS551  ARG553  GLY616  TRP617  ASP618  TYR619  PRO620  LYS621  CYS622 
 ASP623  PHE694  ASN695  SER759  ASP760  ASP761  ALA762  ILE779  LEU786  VAL792 
 PHE793  MET794  SER795  GLU796  ALA797  LYS798  CYS799  TRP800  GLU811  SER814 

> <Gold.Protein.RotatedAtoms>
  151.1078  135.0009  159.8479 H   0  0  0  0  0  0  0  0  0  0  0  0  # atno 6907 bound_to 6896
  152.5441  134.1873  159.8669 H   0  0  0  0  0  0  0  0  0  0  0  0  # atno 6908 bound_to 6896
  151.1921  133.4617  159.2628 H   0  0  0  0  0  0  0  0  0  0  0  0  # atno 6909 bound_to 6896
  144.8512  139.6157  143.5973 H   0  0  0  0  0  0  0  0  0  0  0  0  # atno 7974 bound_to 7965
  155.7662  140.3485  155.5223 H   0  0  0  0  0  0  0  0  0  0  0  0  # atno 8008 bound_to 7997
  155.8866  140.1011  157.1469 H   0  0  0  0  0  0  0  0  0  0  0  0  # atno 8009 bound_to 7997
  154.4029  140.1312  156.4250 H   0  0  0  0  0  0  0  0  0  0  0  0  # atno 8010 bound_to 7997
  139.4836  144.4678  151.8617 H   0  0  0  0  0  0  0  0  0  0  0  0  # atno 10167 bound_to 10162
  156.9998  130.6075  149.5695 H   0  0  0  0  0  0  0  0  0  0  0  0  # atno 10718 bound_to 10713
  154.8403  135.4448  154.1375 H   0  0  0  0  0  0  0  0  0  0  0  0  # atno 10763 bound_to 10752
  153.2569  135.6932  153.7625 H   0  0  0  0  0  0  0  0  0  0  0  0  # atno 10764 bound_to 10752
  153.6916  135.3386  155.3179 H   0  0  0  0  0  0  0  0  0  0  0  0  # atno 10765 bound_to 10752
  139.9571  134.7125  156.0729 H   0  0  0  0  0  0  0  0  0  0  0  0  # atno 11005 bound_to 11000
  146.2786  139.6818  142.9245 LP  0  0  0  0  0  0  0  0  0  0  0  0  # atno 17320 bound_to 7965
  145.4496  141.0427  143.2812 LP  0  0  0  0  0  0  0  0  0  0  0  0  # atno 17321 bound_to 7965
  140.4145  144.2325  150.5888 LP  0  0  0  0  0  0  0  0  0  0  0  0  # atno 17342 bound_to 10162
  140.4934  143.2340  151.8785 LP  0  0  0  0  0  0  0  0  0  0  0  0  # atno 17343 bound_to 10162
  156.0175  130.5270  150.8179 LP  0  0  0  0  0  0  0  0  0  0  0  0  # atno 17370 bound_to 10713
  157.5398  131.0940  150.9842 LP  0  0  0  0  0  0  0  0  0  0  0  0  # atno 17371 bound_to 10713
  141.1244  133.6603  156.3297 LP  0  0  0  0  0  0  0  0  0  0  0  0  # atno 17394 bound_to 11000
  140.5585  134.5958  157.5427 LP  0  0  0  0  0  0  0  0  0  0  0  0  # atno 17395 bound_to 11000

$$$$
