AV-unprocessed.smi:2694|AV-procd|sdf|10405|dock9
  -GOLD-   2272014443D 1   1.00000     0.00000
 Structure written by MMmdl.
 42 44  0  0  0  0  0  0  0  0  1 V2000
  150.8463  140.0072  155.1624 O   0  0  0  0  0  0  0  0  0  0  0  0
  150.8778  140.5821  156.2503 C   0  0  0  0  0  0  0  0  0  0  0  0
  151.1853  142.0065  156.3802 C   0  0  0  0  0  0  0  0  0  0  0  0
  151.2144  142.6022  157.5968 C   0  0  0  0  0  0  0  0  0  0  0  0
  151.5663  144.0722  157.7810 C   0  0  0  0  0  0  0  0  0  0  0  0
  152.7086  144.3918  158.7606 C   0  0  0  0  0  0  0  0  0  0  0  0
  151.8833  145.5931  159.2344 C   0  0  0  0  0  0  0  0  0  0  0  0
  150.6392  144.8605  158.7209 C   0  0  0  0  0  0  0  0  0  0  0  0
  150.9495  141.8653  158.7562 N   0  0  0  0  0  0  0  0  0  0  0  0
  150.6701  140.6043  158.6679 C   0  0  0  0  0  0  0  0  0  0  0  0
  150.6345  139.9364  157.4276 N   0  0  0  0  0  0  0  0  0  0  0  0
  150.3279  138.4953  157.4588 C   0  0  0  0  0  0  0  0  0  0  0  0
  150.0149  137.9666  158.8792 C   0  0  2  0  0  0  0  0  0  0  0  0
  151.0322  137.0557  159.2410 O   0  0  0  0  0  0  0  0  0  0  0  0
  148.6558  137.2539  159.0035 C   0  0  0  0  0  0  0  0  0  0  0  0
  148.2964  137.1943  160.3776 O   0  0  0  0  0  0  0  0  0  0  0  0
  147.8012  136.0120  160.8849 C   0  0  0  0  0  0  0  0  0  0  0  0
  147.7340  134.8014  160.1496 C   0  0  0  0  0  0  0  0  0  0  0  0
  147.1980  133.6383  160.7360 C   0  0  0  0  0  0  0  0  0  0  0  0
  146.7268  133.6678  162.0611 C   0  0  0  0  0  0  0  0  0  0  0  0
  146.7983  134.8610  162.8024 C   0  0  0  0  0  0  0  0  0  0  0  0
  147.3361  136.0246  162.2189 C   0  0  0  0  0  0  0  0  0  0  0  0
  147.4254  137.4720  163.1558 Cl  0  0  0  0  0  0  0  0  0  0  0  0
  151.3974  142.5778  155.4884 H   0  0  0  0  0  0  0  0  0  0  0  0
  151.6990  144.5792  156.8235 H   0  0  0  0  0  0  0  0  0  0  0  0
  152.8395  143.6459  159.5458 H   0  0  0  0  0  0  0  0  0  0  0  0
  153.6567  144.6483  158.2874 H   0  0  0  0  0  0  0  0  0  0  0  0
  151.9011  145.7637  160.3112 H   0  0  0  0  0  0  0  0  0  0  0  0
  152.1004  146.5040  158.6744 H   0  0  0  0  0  0  0  0  0  0  0  0
  149.9100  145.4952  158.2170 H   0  0  0  0  0  0  0  0  0  0  0  0
  150.1721  144.2428  159.4905 H   0  0  0  0  0  0  0  0  0  0  0  0
  150.4576  139.9863  159.5417 H   0  0  0  0  0  0  0  0  0  0  0  0
  149.4961  138.2584  156.7921 H   0  0  0  0  0  0  0  0  0  0  0  0
  151.1738  137.9431  157.0444 H   0  0  0  0  0  0  0  0  0  0  0  0
  150.0575  138.7839  159.6003 H   0  0  0  0  0  0  0  0  0  0  0  0
  151.7029  137.0719  158.5755 H   0  0  0  0  0  0  0  0  0  0  0  0
  147.9116  137.7846  158.4078 H   0  0  0  0  0  0  0  0  0  0  0  0
  148.7245  136.2327  158.6248 H   0  0  0  0  0  0  0  0  0  0  0  0
  148.0899  134.7368  159.1329 H   0  0  0  0  0  0  0  0  0  0  0  0
  147.1489  132.7217  160.1671 H   0  0  0  0  0  0  0  0  0  0  0  0
  146.3151  132.7758  162.5096 H   0  0  0  0  0  0  0  0  0  0  0  0
  146.4409  134.8832  163.8215 H   0  0  0  0  0  0  0  0  0  0  0  0
  1  2  2  0  0  0  0
  2 11  1  0  0  0  0
  2  3  1  0  0  0  0
  3  4  2  0  0  0  0
  3 24  1  0  0  0  0
  4  5  1  0  0  0  0
  4  9  1  0  0  0  0
  5  8  1  0  0  0  0
  5  6  1  0  0  0  0
  5 25  1  0  0  0  0
  6  7  1  0  0  0  0
  6 26  1  0  0  0  0
  6 27  1  0  0  0  0
  7  8  1  0  0  0  0
  7 28  1  0  0  0  0
  7 29  1  0  0  0  0
  8 30  1  0  0  0  0
  8 31  1  0  0  0  0
  9 10  2  0  0  0  0
 10 11  1  0  0  0  0
 10 32  1  0  0  0  0
 11 12  1  0  0  0  0
 12 13  1  0  0  0  0
 12 33  1  0  0  0  0
 12 34  1  0  0  0  0
 13 14  1  0  0  0  0
 13 15  1  0  0  0  0
 13 35  1  0  0  0  0
 14 36  1  0  0  0  0
 15 16  1  0  0  0  0
 15 37  1  0  0  0  0
 15 38  1  0  0  0  0
 16 17  1  0  0  0  0
 17 22  1  0  0  0  0
 17 18  2  0  0  0  0
 18 19  1  0  0  0  0
 18 39  1  0  0  0  0
 19 20  2  0  0  0  0
 19 40  1  0  0  0  0
 20 21  1  0  0  0  0
 20 41  1  0  0  0  0
 21 22  2  0  0  0  0
 21 42  1  0  0  0  0
 22 23  1  0  0  0  0
M  END
> <s_m_source_file>
AV-unprocessed.smi

> <i_m_source_file_index>
2694

> <i_lp_mmshare_version>
43012

> <i_f3d_flags>
0

> <s_epik_input>
W0NIMl0xW0NIMl1bQ0gyXVtDSF0xYyhbY0hdYzI9TyluW2NIXW4yW0NIMl1bQ0BIXShbT0hdKVtDSDJdT2MzW2NIXVtjSF1bY0hdW2NIXWMzQ2w=

> <s_epik_cmdline>
J2VwaWtfcHl0aG9uJywgJy1waCcsICc3LjAnLCAnLXRuJywgJzgnLCAnLW1hJywgJzIwMCcsICctbWV0YWxfYmluZGluZycsICctaW1hZScsICc8aW5maWxlLm1hZT4nLCAnLW9tYWUnLCAnPG91dGZpbGUubWFlPic=

> <r_lp_tautomer_probability>
1

> <r_epik_Ionization_Penalty>
1.78212e-05

> <r_epik_Ionization_Penalty_Charging>
5.61663e-08

> <r_epik_Ionization_Penalty_Neutral>
1.7765e-05

> <r_epik_State_Penalty>
-0

> <r_epik_Charging_Adjusted_Penalty>
5.61663e-08

> <i_epik_Tot_Q>
0

> <i_epik_Tot_abs_Q>
0

> <r_epik_Metal_State_Penalty>
-0

> <b_epik_Metal_Only>
0

> <s_lp_Force_Field>
OPLS_2005

> <r_lp_Energy>
26.4785

> <b_lp_Chiralities_Consistent>
1

> <s_lp_Variant>
AV-unprocessed.smi:2694-1

> <Gold.Version>
5.8.1

> <Gold.Id.Protein>
6NUR|6NUR_protein|mol2

> <Gold.PLP.Fitness>
58.2213

> <Gold.PLP.PLP>
-53.0695

> <Gold.PLP.part.hbond>
-4.0000

> <Gold.PLP.part.metal>
0.0000

> <Gold.PLP.part.buried>
-3.7344

> <Gold.PLP.part.nonpolar>
-46.0306

> <Gold.PLP.part.repulsive>
0.0564

> <Gold.PLP.ligand.clash>
0.8669

> <Gold.PLP.ligand.torsion>
1.4447

> <Gold.PLP.Chemscore.Hbond>
2.8355

> <Gold.PLP.Chemscore.CHOScore>
0.0000

> <Gold.PLP.Chemscore.Metal>
0.0000

> <Gold.Chemscore.Hbonds>
donor molecule, donor type, donor heavy atom, donor atom, acceptor molecule, acceptor atom, score
      P1  H  6896  6907       L1    14  0.93
      P1  H  6931  6943       L1    16  0.70
      P1  H  6934  6947       L1    16  0.35
      P1  H  7989  7998       L1     1  0.99

> <Gold.PLP.Chemscore.Internal.Correction>
0.4016

> <Gold.Rescore>
     Score         DG    S(hbond)    S(metal)    S(lipo)     H(rot)  DE(clash)    DE(int)     intcor
     21.15     -22.90       2.42        0.00     132.78       2.42       0.44       1.31       ----

> <Gold.Chemscore.Fitness>
21.1534

> <Gold.Chemscore.DG>
-22.9024

> <Gold.Chemscore.ZeroCoef>
-5.4800

> <Gold.Chemscore.Hbond>
2.4234

> <Gold.Chemscore.Metal>
0.0000

> <Gold.Chemscore.Lipo>
132.7753

> <Gold.Chemscore.Internal_Hbond>
0.0000

> <Gold.Chemscore.DEClash>
0.4361

> <Gold.Chemscore.DEInternal>
1.3128

> <Gold.Chemscore.Rot>
2.4245

> <Gold.Chemscore.Internal.Correction>
   9.000000E+99

> <Gold.Chemscore.Hbonds>
donor molecule, donor type, donor heavy atom, donor atom, acceptor molecule, acceptor atom, score
      P1  H  6896  6907       L1    14  0.20
      P1  H  6931  6943       L1    16  0.48
      P1  H  6934  6947       L1    16  0.24
      P1  H  7989  7998       L1     1  0.91

> <Gold.Chemscore.Hbond.Weighted>
-8.0943

> <Gold.Chemscore.Metal.Weighted>
-0.0000

> <Gold.Chemscore.Lipo.Weighted>
-15.5347

> <Gold.Chemscore.Internal_Hbond.Weighted>
0.0000

> <Gold.Chemscore.DEClash.Weighted>
0.4361

> <Gold.Chemscore.DEInternal.Weighted>
1.3128

> <Gold.Chemscore.Rot.Weighted>
6.2066

> <Gold.Chemscore.Internal.Correction.Weighted>
   9.000000E+99

> <Gold.Protein.RotatedTorsions>
[ 6907 6896 6895 6894 ] final  -17.22 input  -60.11 | X-H torsion
[ 7974 7965 7964 7962 ] final  -78.00 input  175.53 | X-H torsion
[ 8008 7997 7996 7995 ] final  -46.62 input   59.86 | X-H torsion
[ 10167 10162 10161 10158 ] final  -59.72 input  -65.29 | X-H torsion
[ 10718 10713 10712 10709 ] final -153.07 input   66.30 | X-H torsion
[ 10763 10752 10751 10750 ] final   91.68 input  -60.55 | X-H torsion
[ 11005 11000 10999 10996 ] final  -78.49 input  -57.11 | X-H torsion

> <Gold.Protein.ActiveResidues>
 VAL166  LYS551  ARG553  GLY616  TRP617  ASP618  TYR619  PRO620  LYS621  CYS622 
 ASP623  PHE694  ASN695  SER759  ASP760  ASP761  ALA762  ILE779  LEU786  VAL792 
 PHE793  MET794  SER795  GLU796  ALA797  LYS798  CYS799  TRP800  GLU811  SER814 

> <Gold.Protein.RotatedAtoms>
  151.2967  135.0757  159.9223 H   0  0  0  0  0  0  0  0  0  0  0  0  # atno 6907 bound_to 6896
  152.5306  133.9875  159.7846 H   0  0  0  0  0  0  0  0  0  0  0  0  # atno 6908 bound_to 6896
  151.0155  133.5874  159.2708 H   0  0  0  0  0  0  0  0  0  0  0  0  # atno 6909 bound_to 6896
  145.5923  140.9427  143.1286 H   0  0  0  0  0  0  0  0  0  0  0  0  # atno 7974 bound_to 7965
  154.4009  140.1367  156.4042 H   0  0  0  0  0  0  0  0  0  0  0  0  # atno 8008 bound_to 7997
  155.7795  140.3482  155.5269 H   0  0  0  0  0  0  0  0  0  0  0  0  # atno 8009 bound_to 7997
  155.8687  140.0968  157.1555 H   0  0  0  0  0  0  0  0  0  0  0  0  # atno 8010 bound_to 7997
  140.6117  143.2389  151.5694 H   0  0  0  0  0  0  0  0  0  0  0  0  # atno 10167 bound_to 10162
  156.4809  130.8302  151.2529 H   0  0  0  0  0  0  0  0  0  0  0  0  # atno 10718 bound_to 10713
  153.2109  135.4389  155.0378 H   0  0  0  0  0  0  0  0  0  0  0  0  # atno 10763 bound_to 10752
  154.8199  135.3333  154.7071 H   0  0  0  0  0  0  0  0  0  0  0  0  # atno 10764 bound_to 10752
  153.7509  135.6998  153.5002 H   0  0  0  0  0  0  0  0  0  0  0  0  # atno 10765 bound_to 10752
  141.1665  133.7065  156.7979 H   0  0  0  0  0  0  0  0  0  0  0  0  # atno 11005 bound_to 11000
  144.7346  139.7624  143.7334 LP  0  0  0  0  0  0  0  0  0  0  0  0  # atno 17320 bound_to 7965
  146.1638  139.4762  142.9971 LP  0  0  0  0  0  0  0  0  0  0  0  0  # atno 17321 bound_to 7965
  139.5366  144.2763  152.1265 LP  0  0  0  0  0  0  0  0  0  0  0  0  # atno 17342 bound_to 10162
  140.1964  144.4701  150.6453 LP  0  0  0  0  0  0  0  0  0  0  0  0  # atno 17343 bound_to 10162
  157.7483  131.0045  150.3079 LP  0  0  0  0  0  0  0  0  0  0  0  0  # atno 17370 bound_to 10713
  156.3523  130.3833  149.7319 LP  0  0  0  0  0  0  0  0  0  0  0  0  # atno 17371 bound_to 10713
  140.2278  134.8709  157.3444 LP  0  0  0  0  0  0  0  0  0  0  0  0  # atno 17394 bound_to 11000
  140.1922  134.4357  155.7709 LP  0  0  0  0  0  0  0  0  0  0  0  0  # atno 17395 bound_to 11000

$$$$
