AV-unprocessed.smi:1667|AV-procd|sdf|6678|dock2
  -GOLD-   22720 7393D 1   1.00000     0.00000
 Structure written by MMmdl.
 46 48  0  0  0  0  0  0  0  0  2 V2000
  152.3271  137.4358  158.6905 C   0  0  0  0  0  0  0  0  0  0  0  0
  152.4381  138.0799  157.3130 C   0  0  0  0  0  0  0  0  0  0  0  0
  153.0601  139.1323  157.1732 O   0  0  0  0  0  0  0  0  0  0  0  0
  151.8236  137.4337  156.3079 N   0  0  0  0  0  0  0  0  0  0  0  0
  151.7621  137.8434  154.9050 C   0  0  2  0  0  0  0  0  0  0  0  0
  153.1020  138.4385  154.4306 C   0  0  0  0  0  0  0  0  0  0  0  0
  150.5922  138.7423  154.6078 C   0  0  0  0  0  0  0  0  0  0  0  0
  149.5608  138.4639  153.7586 N   0  3  0  0  0  0  0  0  0  0  0  0
  148.6698  139.5353  153.7221 C   0  0  0  0  0  0  0  0  0  0  0  0
  147.4825  139.7093  153.0177 C   0  0  0  0  0  0  0  0  0  0  0  0
  146.8061  140.9316  153.2109 C   0  0  0  0  0  0  0  0  0  0  0  0
  147.3138  141.9228  154.0760 C   0  0  0  0  0  0  0  0  0  0  0  0
  148.5200  141.7349  154.7829 C   0  0  0  0  0  0  0  0  0  0  0  0
  149.1837  140.5244  154.5839 C   0  0  0  0  0  0  0  0  0  0  0  0
  150.3778  140.0018  155.0941 N   0  0  0  0  0  0  0  0  0  0  0  0
  151.1695  140.8219  156.0266 C   0  0  0  0  0  0  0  0  0  0  0  0
  150.7746  140.6266  157.5062 C   0  0  2  0  0  0  0  0  0  0  0  0
  149.3799  140.7914  157.6648 O   0  0  0  0  0  0  0  0  0  0  0  0
  151.5662  141.5547  158.4131 C   0  0  0  0  0  0  0  0  0  0  0  0
  152.3613  141.0317  159.4570 C   0  0  0  0  0  0  0  0  0  0  0  0
  153.0871  141.8971  160.2983 C   0  0  0  0  0  0  0  0  0  0  0  0
  153.0211  143.2899  160.1019 C   0  0  0  0  0  0  0  0  0  0  0  0
  152.2271  143.8170  159.0653 C   0  0  0  0  0  0  0  0  0  0  0  0
  152.1603  145.1561  158.8778 F   0  0  0  0  0  0  0  0  0  0  0  0
  151.5012  142.9519  158.2237 C   0  0  0  0  0  0  0  0  0  0  0  0
  151.6146  136.9258  154.3360 H   0  0  0  0  0  0  0  0  0  0  0  0
  151.2909  137.1781  158.9114 H   0  0  0  0  0  0  0  0  0  0  0  0
  152.6808  138.1160  159.4659 H   0  0  0  0  0  0  0  0  0  0  0  0
  152.9265  136.5263  158.7326 H   0  0  0  0  0  0  0  0  0  0  0  0
  151.3374  136.5798  156.5411 H   0  0  0  0  0  0  0  0  0  0  0  0
  153.0821  138.6382  153.3589 H   0  0  0  0  0  0  0  0  0  0  0  0
  153.9234  137.7466  154.6183 H   0  0  0  0  0  0  0  0  0  0  0  0
  153.3392  139.3747  154.9366 H   0  0  0  0  0  0  0  0  0  0  0  0
  147.0920  138.9506  152.3554 H   0  0  0  0  0  0  0  0  0  0  0  0
  145.8790  141.1122  152.6862 H   0  0  0  0  0  0  0  0  0  0  0  0
  146.7672  142.8465  154.1996 H   0  0  0  0  0  0  0  0  0  0  0  0
  148.8997  142.5003  155.4431 H   0  0  0  0  0  0  0  0  0  0  0  0
  152.2234  140.5855  155.8741 H   0  0  0  0  0  0  0  0  0  0  0  0
  151.0486  141.8665  155.7411 H   0  0  0  0  0  0  0  0  0  0  0  0
  150.9922  139.5999  157.8010 H   0  0  0  0  0  0  0  0  0  0  0  0
  149.0946  141.4899  157.0955 H   0  0  0  0  0  0  0  0  0  0  0  0
  152.4150  139.9646  159.6171 H   0  0  0  0  0  0  0  0  0  0  0  0
  153.6940  141.4927  161.0948 H   0  0  0  0  0  0  0  0  0  0  0  0
  153.5777  143.9536  160.7472 H   0  0  0  0  0  0  0  0  0  0  0  0
  150.8938  143.3669  157.4327 H   0  0  0  0  0  0  0  0  0  0  0  0
  149.4804  137.5993  153.2392 H   0  0  0  0  0  0  0  0  0  0  0  0
  1  2  1  0  0  0  0
  1 27  1  0  0  0  0
  1 28  1  0  0  0  0
  1 29  1  0  0  0  0
  2  3  2  0  0  0  0
  2  4  1  0  0  0  0
  4  5  1  0  0  0  0
  4 30  1  0  0  0  0
  5 26  1  0  0  0  0
  5  6  1  0  0  0  0
  5  7  1  0  0  0  0
  6 31  1  0  0  0  0
  6 32  1  0  0  0  0
  6 33  1  0  0  0  0
  7 15  1  0  0  0  0
  7  8  2  0  0  0  0
  8  9  1  0  0  0  0
  8 46  1  0  0  0  0
  9 14  2  0  0  0  0
  9 10  1  0  0  0  0
 10 11  2  0  0  0  0
 10 34  1  0  0  0  0
 11 12  1  0  0  0  0
 11 35  1  0  0  0  0
 12 13  2  0  0  0  0
 12 36  1  0  0  0  0
 13 14  1  0  0  0  0
 13 37  1  0  0  0  0
 14 15  1  0  0  0  0
 15 16  1  0  0  0  0
 16 17  1  0  0  0  0
 16 38  1  0  0  0  0
 16 39  1  0  0  0  0
 17 18  1  0  0  0  0
 17 19  1  0  0  0  0
 17 40  1  0  0  0  0
 18 41  1  0  0  0  0
 19 25  1  0  0  0  0
 19 20  2  0  0  0  0
 20 21  1  0  0  0  0
 20 42  1  0  0  0  0
 21 22  2  0  0  0  0
 21 43  1  0  0  0  0
 22 23  1  0  0  0  0
 22 44  1  0  0  0  0
 23 24  1  0  0  0  0
 23 25  2  0  0  0  0
 25 45  1  0  0  0  0
M  CHG  1   8   1
M  END
> <s_m_source_file>
AV-unprocessed.smi

> <i_m_source_file_index>
1667

> <i_lp_mmshare_version>
43012

> <i_f3d_flags>
0

> <s_epik_input>
W0NIM11DKD1PKVtOSF1bQ0BASF0oW0NIM10pYyhuMSluKGMoYzEyKVtjSF1bY0hdW2NIXVtjSF0yKVtDSDJdW0NASF0oW09IXSljM1tjSF1bY0hdW2NIXWMoRilbY0hdMw==

> <s_epik_cmdline>
J2VwaWtfcHl0aG9uJywgJy1waCcsICc3LjAnLCAnLXRuJywgJzgnLCAnLW1hJywgJzIwMCcsICctbWV0YWxfYmluZGluZycsICctaW1hZScsICc8aW5maWxlLm1hZT4nLCAnLW9tYWUnLCAnPG91dGZpbGUubWFlPic=

> <r_epik_Ionization_Penalty>
0.950383

> <r_epik_Ionization_Penalty_Charging>
0.950379

> <r_epik_Ionization_Penalty_Neutral>
3.60962e-06

> <r_epik_State_Penalty>
0.994584

> <r_epik_Charging_Adjusted_Penalty>
1.94496

> <i_epik_Tot_Q>
1

> <i_epik_Tot_abs_Q>
1

> <r_epik_Metal_State_Penalty>
1.10485

> <b_epik_Metal_Only>
0

> <s_lp_Force_Field>
OPLS_2005

> <r_lp_Energy>
9.34024

> <b_lp_Chiralities_Consistent>
1

> <s_lp_Variant>
AV-unprocessed.smi:1667-6

> <Gold.Version>
5.8.1

> <Gold.Id.Protein>
6NUR|6NUR_protein|mol2

> <Gold.PLP.Fitness>
63.0626

> <Gold.PLP.PLP>
-55.5065

> <Gold.PLP.part.hbond>
-3.0000

> <Gold.PLP.part.metal>
0.0000

> <Gold.PLP.part.buried>
-0.3471

> <Gold.PLP.part.nonpolar>
-52.9812

> <Gold.PLP.part.repulsive>
0.1572

> <Gold.PLP.ligand.clash>
0.0000

> <Gold.PLP.ligand.torsion>
0.7926

> <Gold.PLP.Chemscore.Hbond>
3.0000

> <Gold.PLP.Chemscore.CHOScore>
0.0000

> <Gold.PLP.Chemscore.Metal>
0.0000

> <Gold.Chemscore.Hbonds>
donor molecule, donor type, donor heavy atom, donor atom, acceptor molecule, acceptor atom, score
      L1  H     8    46       P1  7948  2.00
      P1  H  7997  8009       L1     3  1.00

> <Gold.PLP.Chemscore.Internal.Correction>
0.1413

> <Gold.Rescore>
     Score         DG    S(hbond)    S(metal)    S(lipo)     H(rot)  DE(clash)    DE(int)     intcor
     18.48     -21.06       1.91        0.00     133.95       2.53       0.13       2.44       ----

> <Gold.Chemscore.Fitness>
18.4848

> <Gold.Chemscore.DG>
-21.0564

> <Gold.Chemscore.ZeroCoef>
-5.4800

> <Gold.Chemscore.Hbond>
1.9130

> <Gold.Chemscore.Metal>
0.0000

> <Gold.Chemscore.Lipo>
133.9529

> <Gold.Chemscore.Internal_Hbond>
0.0000

> <Gold.Chemscore.DEClash>
0.1336

> <Gold.Chemscore.DEInternal>
2.4380

> <Gold.Chemscore.Rot>
2.5335

> <Gold.Chemscore.Internal.Correction>
   9.000000E+99

> <Gold.Chemscore.Hbonds>
donor molecule, donor type, donor heavy atom, donor atom, acceptor molecule, acceptor atom, score
      L1  H     8    46       P1  7948  0.89
      P1  H  7997  8009       L1     3  1.00

> <Gold.Chemscore.Hbond.Weighted>
-6.3895

> <Gold.Chemscore.Metal.Weighted>
-0.0000

> <Gold.Chemscore.Lipo.Weighted>
-15.6725

> <Gold.Chemscore.Internal_Hbond.Weighted>
0.0000

> <Gold.Chemscore.DEClash.Weighted>
0.1336

> <Gold.Chemscore.DEInternal.Weighted>
2.4380

> <Gold.Chemscore.Rot.Weighted>
6.4856

> <Gold.Chemscore.Internal.Correction.Weighted>
   9.000000E+99

> <Gold.Protein.RotatedTorsions>
[ 6907 6896 6895 6894 ] final   28.74 input  -60.11 | X-H torsion
[ 7974 7965 7964 7962 ] final  -83.82 input  175.53 | X-H torsion
[ 8008 7997 7996 7995 ] final  164.29 input   59.86 | X-H torsion
[ 10167 10162 10161 10158 ] final    5.31 input  -65.29 | X-H torsion
[ 10718 10713 10712 10709 ] final  153.64 input   66.30 | X-H torsion
[ 10763 10752 10751 10750 ] final    9.92 input  -60.55 | X-H torsion
[ 11005 11000 10999 10996 ] final   32.29 input  -57.11 | X-H torsion

> <Gold.Protein.ActiveResidues>
 VAL166  LYS551  ARG553  GLY616  TRP617  ASP618  TYR619  PRO620  LYS621  CYS622 
 ASP623  PHE694  ASN695  SER759  ASP760  ASP761  ALA762  ILE779  LEU786  VAL792 
 PHE793  MET794  SER795  GLU796  ALA797  LYS798  CYS799  TRP800  GLU811  SER814 

> <Gold.Protein.RotatedAtoms>
  152.0213  134.9821  160.0570 H   0  0  0  0  0  0  0  0  0  0  0  0  # atno 6907 bound_to 6896
  152.1334  133.4416  159.4740 H   0  0  0  0  0  0  0  0  0  0  0  0  # atno 6908 bound_to 6896
  150.6858  134.2311  159.4478 H   0  0  0  0  0  0  0  0  0  0  0  0  # atno 6909 bound_to 6896
  145.5148  140.9537  143.1687 H   0  0  0  0  0  0  0  0  0  0  0  0  # atno 7974 bound_to 7965
  156.1891  140.1700  156.8127 H   0  0  0  0  0  0  0  0  0  0  0  0  # atno 8008 bound_to 7997
  154.5450  140.0729  156.8605 H   0  0  0  0  0  0  0  0  0  0  0  0  # atno 8009 bound_to 7997
  155.3140  140.3369  155.4245 H   0  0  0  0  0  0  0  0  0  0  0  0  # atno 8010 bound_to 7997
  140.6488  143.7595  150.7542 H   0  0  0  0  0  0  0  0  0  0  0  0  # atno 10167 bound_to 10162
  157.2421  131.0761  151.1786 H   0  0  0  0  0  0  0  0  0  0  0  0  # atno 10718 bound_to 10713
  153.2088  135.6866  153.8139 H   0  0  0  0  0  0  0  0  0  0  0  0  # atno 10763 bound_to 10752
  153.7379  135.3242  155.3299 H   0  0  0  0  0  0  0  0  0  0  0  0  # atno 10764 bound_to 10752
  154.8211  135.4651  154.0886 H   0  0  0  0  0  0  0  0  0  0  0  0  # atno 10765 bound_to 10752
  140.2750  134.3038  155.7816 H   0  0  0  0  0  0  0  0  0  0  0  0  # atno 11005 bound_to 11000
  144.7707  139.6740  143.7196 LP  0  0  0  0  0  0  0  0  0  0  0  0  # atno 17320 bound_to 7965
  146.2143  139.5522  142.9660 LP  0  0  0  0  0  0  0  0  0  0  0  0  # atno 17321 bound_to 7965
  140.1242  143.4585  152.2295 LP  0  0  0  0  0  0  0  0  0  0  0  0  # atno 17342 bound_to 10162
  139.5701  144.7458  151.3913 LP  0  0  0  0  0  0  0  0  0  0  0  0  # atno 17343 bound_to 10162
  157.3368  130.7013  149.6357 LP  0  0  0  0  0  0  0  0  0  0  0  0  # atno 17370 bound_to 10713
  155.9669  130.4291  150.4819 LP  0  0  0  0  0  0  0  0  0  0  0  0  # atno 17371 bound_to 10713
  141.2171  133.7490  156.9394 LP  0  0  0  0  0  0  0  0  0  0  0  0  # atno 17394 bound_to 11000
  140.1337  134.9339  157.2372 LP  0  0  0  0  0  0  0  0  0  0  0  0  # atno 17395 bound_to 11000

$$$$
