AV-unprocessed.smi:3274|AV-procd|sdf|12529|dock6
  -GOLD-   2272018443D 1   1.00000     0.00000
 Structure written by MMmdl.
 43 44  0  0  0  0  0  0  0  0  2 V2000
  151.3036  140.8398  156.8054 C   0  0  0  0  0  0  0  0  0  0  0  0
  151.7368  141.5873  158.0560 C   0  0  0  0  0  0  0  0  0  0  0  0
  152.4565  140.9695  159.0135 C   0  0  0  0  0  0  0  0  0  0  0  0
  152.9786  141.6383  160.2734 C   0  0  0  0  0  0  0  0  0  0  0  0
  152.4525  143.0712  160.4598 C   0  0  0  0  0  0  0  0  0  0  0  0
  152.3380  143.8078  159.1142 C   0  0  2  0  0  0  0  0  0  0  0  0
  152.0446  145.3069  159.2975 C   0  0  0  0  0  0  0  0  0  0  0  0
  151.3580  143.0711  158.1578 C   0  0  2  0  0  0  0  0  0  0  0  0
  149.8690  143.2621  158.5475 C   0  0  0  0  0  0  0  0  0  0  0  0
  148.9428  142.6473  157.5733 N   0  3  0  0  0  0  0  0  0  0  0  0
  147.6931  142.0984  158.1434 C   0  0  1  0  0  0  0  0  0  0  0  0
  146.8927  143.2372  158.7979 C   0  0  0  0  0  0  0  0  0  0  0  0
  146.8850  141.3472  157.0604 C   0  0  0  0  0  0  0  0  0  0  0  0
  147.5926  141.2395  155.7976 N   0  0  0  0  0  0  0  0  0  0  0  0
  147.8069  142.1463  154.8429 C   0  0  0  0  0  0  0  0  0  0  0  0
  148.5026  141.6849  153.8133 N   0  0  0  0  0  0  0  0  0  0  0  0
  148.6928  140.3959  154.2248 C   0  0  0  0  0  0  0  0  0  0  0  0
  148.1670  140.0775  155.4080 N   0  0  0  0  0  0  0  0  0  0  0  0
  151.5447  141.4157  155.9117 H   0  0  0  0  0  0  0  0  0  0  0  0
  150.2345  140.6346  156.8124 H   0  0  0  0  0  0  0  0  0  0  0  0
  151.8148  139.8796  156.7272 H   0  0  0  0  0  0  0  0  0  0  0  0
  152.7228  139.9292  158.8939 H   0  0  0  0  0  0  0  0  0  0  0  0
  152.7245  141.0289  161.1411 H   0  0  0  0  0  0  0  0  0  0  0  0
  154.0669  141.6532  160.2073 H   0  0  0  0  0  0  0  0  0  0  0  0
  151.4787  143.0439  160.9491 H   0  0  0  0  0  0  0  0  0  0  0  0
  153.1137  143.6123  161.1377 H   0  0  0  0  0  0  0  0  0  0  0  0
  153.3228  143.7595  158.6455 H   0  0  0  0  0  0  0  0  0  0  0  0
  151.1485  145.4794  159.8932 H   0  0  0  0  0  0  0  0  0  0  0  0
  151.9161  145.8048  158.3362 H   0  0  0  0  0  0  0  0  0  0  0  0
  152.8696  145.7997  159.8128 H   0  0  0  0  0  0  0  0  0  0  0  0
  151.5040  143.5093  157.1691 H   0  0  0  0  0  0  0  0  0  0  0  0
  149.6943  142.8469  159.5394 H   0  0  0  0  0  0  0  0  0  0  0  0
  149.6106  144.3188  158.5981 H   0  0  0  0  0  0  0  0  0  0  0  0
  148.6940  143.3629  156.9052 H   0  0  0  0  0  0  0  0  0  0  0  0
  147.9620  141.3973  158.9352 H   0  0  0  0  0  0  0  0  0  0  0  0
  146.0157  142.8607  159.3252 H   0  0  0  0  0  0  0  0  0  0  0  0
  146.5500  143.9590  158.0558 H   0  0  0  0  0  0  0  0  0  0  0  0
  147.4991  143.7734  159.5286 H   0  0  0  0  0  0  0  0  0  0  0  0
  146.6365  140.3428  157.4078 H   0  0  0  0  0  0  0  0  0  0  0  0
  145.9369  141.8476  156.8636 H   0  0  0  0  0  0  0  0  0  0  0  0
  147.4495  143.1639  154.9029 H   0  0  0  0  0  0  0  0  0  0  0  0
  149.2349  139.6710  153.6356 H   0  0  0  0  0  0  0  0  0  0  0  0
  149.4233  141.9071  157.0818 H   0  0  0  0  0  0  0  0  0  0  0  0
  1  2  1  0  0  0  0
  1 19  1  0  0  0  0
  1 20  1  0  0  0  0
  1 21  1  0  0  0  0
  2  8  1  0  0  0  0
  2  3  2  0  0  0  0
  3  4  1  0  0  0  0
  3 22  1  0  0  0  0
  4  5  1  0  0  0  0
  4 23  1  0  0  0  0
  4 24  1  0  0  0  0
  5  6  1  0  0  0  0
  5 25  1  0  0  0  0
  5 26  1  0  0  0  0
  6  7  1  0  0  0  0
  6  8  1  0  0  0  0
  6 27  1  0  0  0  0
  7 28  1  0  0  0  0
  7 29  1  0  0  0  0
  7 30  1  0  0  0  0
  8  9  1  0  0  0  0
  8 31  1  0  0  0  0
  9 10  1  0  0  0  0
  9 32  1  0  0  0  0
  9 33  1  0  0  0  0
 10 11  1  0  0  0  0
 10 34  1  0  0  0  0
 10 43  1  0  0  0  0
 11 12  1  0  0  0  0
 11 13  1  0  0  0  0
 11 35  1  0  0  0  0
 12 36  1  0  0  0  0
 12 37  1  0  0  0  0
 12 38  1  0  0  0  0
 13 14  1  0  0  0  0
 13 39  1  0  0  0  0
 13 40  1  0  0  0  0
 14 18  1  0  0  0  0
 14 15  1  0  0  0  0
 15 16  2  0  0  0  0
 15 41  1  0  0  0  0
 16 17  1  0  0  0  0
 17 18  2  0  0  0  0
 17 42  1  0  0  0  0
M  CHG  1  10   1
M  END
> <s_m_source_file>
AV-unprocessed.smi

> <i_m_source_file_index>
3274

> <i_lp_mmshare_version>
43012

> <i_f3d_flags>
0

> <s_epik_input>
W0NIM11DMT1bQ0hdW0NIMl1bQ0gyXVtDQEBIXShbQ0gzXSlbQ0BIXTFbQ0gyXVtOSF1bQ0BIXShbQ0gzXSlbQ0gyXW4yW2NIXW5bY0hdbjI=

> <s_epik_cmdline>
J2VwaWtfcHl0aG9uJywgJy1waCcsICc3LjAnLCAnLXRuJywgJzgnLCAnLW1hJywgJzIwMCcsICctbWV0YWxfYmluZGluZycsICctaW1hZScsICc8aW5maWxlLm1hZT4nLCAnLW9tYWUnLCAnPG91dGZpbGUubWFlPic=

> <r_lp_tautomer_probability>
1

> <r_epik_Ionization_Penalty>
0.0017527

> <r_epik_Ionization_Penalty_Charging>
0.00175191

> <r_epik_Ionization_Penalty_Neutral>
7.94565e-07

> <r_epik_State_Penalty>
0.00118605

> <r_epik_Charging_Adjusted_Penalty>
0.00293796

> <i_epik_Tot_Q>
1

> <i_epik_Tot_abs_Q>
1

> <r_epik_Metal_State_Penalty>
-0

> <b_epik_Metal_Only>
0

> <s_lp_Force_Field>
OPLS_2005

> <r_lp_Energy>
19.123

> <b_lp_Chiralities_Consistent>
1

> <s_lp_Variant>
AV-unprocessed.smi:3274-8

> <Gold.Version>
5.8.1

> <Gold.Id.Protein>
6NUR|6NUR_protein|mol2

> <Gold.PLP.Fitness>
46.3991

> <Gold.PLP.PLP>
-36.1809

> <Gold.PLP.part.hbond>
-2.0000

> <Gold.PLP.part.metal>
0.0000

> <Gold.PLP.part.buried>
-2.7127

> <Gold.PLP.part.nonpolar>
-32.5356

> <Gold.PLP.part.repulsive>
0.2757

> <Gold.PLP.ligand.clash>
0.0220

> <Gold.PLP.ligand.torsion>
1.1670

> <Gold.PLP.Chemscore.Hbond>
2.6720

> <Gold.PLP.Chemscore.CHOScore>
1.4997

> <Gold.PLP.Chemscore.Metal>
0.0000

> <Gold.Chemscore.Hbonds>
donor molecule, donor type, donor heavy atom, donor atom, acceptor molecule, acceptor atom, score
      L1  H    10    34       P1  8028  2.00
      P1  H  8011  8017       L1    16  0.50
      L1  C    15    41       P1  8028  0.78
      L1  C    17    42       P1  7957  0.82

> <Gold.PLP.Chemscore.Internal.Correction>
0.0590

> <Gold.Rescore>
     Score         DG    S(hbond)    S(metal)    S(lipo)     H(rot)  DE(clash)    DE(int)     intcor
     13.34     -15.28       1.52        0.00      92.11       2.36       0.66       1.28       ----

> <Gold.Chemscore.Fitness>
13.3414

> <Gold.Chemscore.DG>
-15.2833

> <Gold.Chemscore.ZeroCoef>
-5.4800

> <Gold.Chemscore.Hbond>
1.5186

> <Gold.Chemscore.Metal>
0.0000

> <Gold.Chemscore.Lipo>
92.1084

> <Gold.Chemscore.Internal_Hbond>
0.0000

> <Gold.Chemscore.DEClash>
0.6581

> <Gold.Chemscore.DEInternal>
1.2839

> <Gold.Chemscore.Rot>
2.3615

> <Gold.Chemscore.Internal.Correction>
   9.000000E+99

> <Gold.Chemscore.Hbonds>
donor molecule, donor type, donor heavy atom, donor atom, acceptor molecule, acceptor atom, score
      L1  H    10    34       P1  8028  0.50
      P1  H  8011  8017       L1    16  0.47

> <Gold.Chemscore.Hbond.Weighted>
-5.0721

> <Gold.Chemscore.Metal.Weighted>
-0.0000

> <Gold.Chemscore.Lipo.Weighted>
-10.7767

> <Gold.Chemscore.Internal_Hbond.Weighted>
0.0000

> <Gold.Chemscore.DEClash.Weighted>
0.6581

> <Gold.Chemscore.DEInternal.Weighted>
1.2839

> <Gold.Chemscore.Rot.Weighted>
6.0454

> <Gold.Chemscore.Internal.Correction.Weighted>
   9.000000E+99

> <Gold.Protein.RotatedTorsions>
[ 6907 6896 6895 6894 ] final  -23.03 input  -60.11 | X-H torsion
[ 7974 7965 7964 7962 ] final  -35.33 input  175.53 | X-H torsion
[ 8008 7997 7996 7995 ] final   36.01 input   59.86 | X-H torsion
[ 10167 10162 10161 10158 ] final -130.80 input  -65.29 | X-H torsion
[ 10718 10713 10712 10709 ] final   77.22 input   66.30 | X-H torsion
[ 10763 10752 10751 10750 ] final   59.53 input  -60.55 | X-H torsion
[ 11005 11000 10999 10996 ] final  -44.63 input  -57.11 | X-H torsion

> <Gold.Protein.ActiveResidues>
 VAL166  LYS551  ARG553  GLY616  TRP617  ASP618  TYR619  PRO620  LYS621  CYS622 
 ASP623  PHE694  ASN695  SER759  ASP760  ASP761  ALA762  ILE779  LEU786  VAL792 
 PHE793  MET794  SER795  GLU796  ALA797  LYS798  CYS799  TRP800  GLU811  SER814 

> <Gold.Protein.RotatedAtoms>
  151.2100  135.0477  159.8906 H   0  0  0  0  0  0  0  0  0  0  0  0  # atno 6907 bound_to 6896
  152.5425  134.0756  159.8223 H   0  0  0  0  0  0  0  0  0  0  0  0  # atno 6908 bound_to 6896
  151.0907  133.5270  159.2647 H   0  0  0  0  0  0  0  0  0  0  0  0  # atno 6909 bound_to 6896
  146.0755  140.6146  142.8932 H   0  0  0  0  0  0  0  0  0  0  0  0  # atno 7974 bound_to 7965
  155.1804  140.3299  155.4376 H   0  0  0  0  0  0  0  0  0  0  0  0  # atno 8008 bound_to 7997
  156.2478  140.1928  156.6853 H   0  0  0  0  0  0  0  0  0  0  0  0  # atno 8009 bound_to 7997
  154.6275  140.0587  156.9677 H   0  0  0  0  0  0  0  0  0  0  0  0  # atno 8010 bound_to 7997
  139.9256  143.6332  152.2543 H   0  0  0  0  0  0  0  0  0  0  0  0  # atno 10167 bound_to 10162
  157.6702  130.9811  150.1610 H   0  0  0  0  0  0  0  0  0  0  0  0  # atno 10718 bound_to 10713
  152.9897  135.5568  154.5728 H   0  0  0  0  0  0  0  0  0  0  0  0  # atno 10763 bound_to 10752
  154.5125  135.2803  155.1333 H   0  0  0  0  0  0  0  0  0  0  0  0  # atno 10764 bound_to 10752
  154.2719  135.6361  153.5366 H   0  0  0  0  0  0  0  0  0  0  0  0  # atno 10765 bound_to 10752
  141.0463  133.6760  156.2900 H   0  0  0  0  0  0  0  0  0  0  0  0  # atno 11005 bound_to 11000
  144.7259  140.4523  143.6973 LP  0  0  0  0  0  0  0  0  0  0  0  0  # atno 17320 bound_to 7965
  145.6313  139.1537  143.2967 LP  0  0  0  0  0  0  0  0  0  0  0  0  # atno 17321 bound_to 7965
  139.6825  144.7654  151.1583 LP  0  0  0  0  0  0  0  0  0  0  0  0  # atno 17342 bound_to 10162
  140.7651  143.5704  150.9002 LP  0  0  0  0  0  0  0  0  0  0  0  0  # atno 17343 bound_to 10162
  156.2387  130.3689  149.8362 LP  0  0  0  0  0  0  0  0  0  0  0  0  # atno 17370 bound_to 10713
  156.6168  130.8610  151.3467 LP  0  0  0  0  0  0  0  0  0  0  0  0  # atno 17371 bound_to 10713
  140.6140  134.5430  157.5538 LP  0  0  0  0  0  0  0  0  0  0  0  0  # atno 17394 bound_to 11000
  139.9315  134.7956  156.0919 LP  0  0  0  0  0  0  0  0  0  0  0  0  # atno 17395 bound_to 11000

$$$$
