AV-unprocessed.smi:189|AV-procd|sdf|1489|dock5
  -GOLD-   2262019303D 1   1.00000     0.00000
 Structure written by MMmdl.
 53 57  0  0  0  0  0  0  0  0  1 V2000
  147.8652  132.0654  160.0216 C   0  0  0  0  0  0  0  0  0  0  0  0
  147.6445  133.1546  161.0895 C   0  0  2  0  0  0  0  0  0  0  0  0
  146.2517  133.1685  161.7307 C   0  0  0  0  0  0  0  0  0  0  0  0
  146.1877  134.5545  162.3890 C   0  0  2  0  0  0  0  0  0  0  0  0
  144.8382  135.2803  162.2485 C   0  0  0  0  0  0  0  0  0  0  0  0
  144.8869  136.7101  162.8305 C   0  0  0  0  0  0  0  0  0  0  0  0
  146.2334  137.4355  162.6024 C   0  0  0  0  0  0  0  0  0  0  0  0
  147.0360  136.8275  161.4430 C   0  0  0  0  0  0  0  0  0  0  0  0
  147.3550  135.3422  161.7513 C   0  0  2  0  0  0  0  0  0  0  0  0
  147.8918  134.5303  160.6548 N   0  0  0  0  0  0  0  0  0  0  0  0
  147.5268  134.8582  159.3894 C   0  0  0  0  0  0  0  0  0  0  0  0
  146.2381  134.7322  158.9733 N   0  0  0  0  0  0  0  0  0  0  0  0
  145.9046  135.0583  157.7211 C   0  0  0  0  0  0  0  0  0  0  0  0
  146.6871  135.5148  156.7407 N   0  0  0  0  0  0  0  0  0  0  0  0
  147.9805  135.6389  157.1564 C   0  0  0  0  0  0  0  0  0  0  0  0
  148.4783  135.3422  158.4554 C   0  0  0  0  0  0  0  0  0  0  0  0
  149.8412  135.6008  158.5169 N   0  0  0  0  0  0  0  0  0  0  0  0
  150.1356  136.0214  157.3170 C   0  0  0  0  0  0  0  0  0  0  0  0
  149.0813  136.0610  156.4315 N   0  0  0  0  0  0  0  0  0  0  0  0
  149.1320  136.4667  155.0356 C   0  0  0  0  0  0  0  0  0  0  0  0
  149.9009  137.7902  154.8110 C   0  0  2  0  0  0  0  0  0  0  0  0
  149.3917  138.4285  153.6528 O   0  0  0  0  0  0  0  0  0  0  0  0
  151.4082  137.6177  154.6419 C   0  0  0  0  0  0  0  0  0  0  0  0
  151.9670  138.8979  155.2464 C   0  0  0  0  0  0  0  0  0  0  0  0
  151.1260  139.0983  156.3692 O   0  0  0  0  0  0  0  0  0  0  0  0
  149.7912  138.7705  155.9960 C   0  0  0  0  0  0  0  0  0  0  0  0
  147.7754  131.0723  160.4621 H   0  0  0  0  0  0  0  0  0  0  0  0
  148.8609  132.1426  159.5837 H   0  0  0  0  0  0  0  0  0  0  0  0
  147.1372  132.1267  159.2124 H   0  0  0  0  0  0  0  0  0  0  0  0
  148.3711  132.9654  161.8816 H   0  0  0  0  0  0  0  0  0  0  0  0
  145.4780  133.0646  160.9693 H   0  0  0  0  0  0  0  0  0  0  0  0
  146.1168  132.3586  162.4480 H   0  0  0  0  0  0  0  0  0  0  0  0
  146.4022  134.4428  163.4530 H   0  0  0  0  0  0  0  0  0  0  0  0
  144.5721  135.3386  161.1925 H   0  0  0  0  0  0  0  0  0  0  0  0
  144.0440  134.7075  162.7279 H   0  0  0  0  0  0  0  0  0  0  0  0
  144.0765  137.2922  162.3904 H   0  0  0  0  0  0  0  0  0  0  0  0
  144.6833  136.6782  163.9014 H   0  0  0  0  0  0  0  0  0  0  0  0
  146.0587  138.4978  162.4292 H   0  0  0  0  0  0  0  0  0  0  0  0
  146.8340  137.3731  163.5110 H   0  0  0  0  0  0  0  0  0  0  0  0
  146.4448  136.9418  160.5347 H   0  0  0  0  0  0  0  0  0  0  0  0
  147.9603  137.3826  161.2819 H   0  0  0  0  0  0  0  0  0  0  0  0
  148.1551  135.3593  162.4932 H   0  0  0  0  0  0  0  0  0  0  0  0
  144.8624  134.9328  157.4677 H   0  0  0  0  0  0  0  0  0  0  0  0
  151.1399  136.3077  157.0408 H   0  0  0  0  0  0  0  0  0  0  0  0
  149.5830  135.6610  154.4550 H   0  0  0  0  0  0  0  0  0  0  0  0
  148.1063  136.5650  154.6772 H   0  0  0  0  0  0  0  0  0  0  0  0
  149.2403  137.7723  152.9900 H   0  0  0  0  0  0  0  0  0  0  0  0
  151.7603  136.7711  155.2326 H   0  0  0  0  0  0  0  0  0  0  0  0
  151.7211  137.4555  153.6094 H   0  0  0  0  0  0  0  0  0  0  0  0
  153.0140  138.8065  155.5362 H   0  0  0  0  0  0  0  0  0  0  0  0
  151.8682  139.7364  154.5549 H   0  0  0  0  0  0  0  0  0  0  0  0
  149.2544  139.6817  155.7268 H   0  0  0  0  0  0  0  0  0  0  0  0
  149.2783  138.3323  156.8528 H   0  0  0  0  0  0  0  0  0  0  0  0
  1  2  1  0  0  0  0
  1 27  1  0  0  0  0
  1 28  1  0  0  0  0
  1 29  1  0  0  0  0
  2 10  1  0  0  0  0
  2  3  1  0  0  0  0
  2 30  1  0  0  0  0
  3  4  1  0  0  0  0
  3 31  1  0  0  0  0
  3 32  1  0  0  0  0
  4  9  1  0  0  0  0
  4  5  1  0  0  0  0
  4 33  1  0  0  0  0
  5  6  1  0  0  0  0
  5 34  1  0  0  0  0
  5 35  1  0  0  0  0
  6  7  1  0  0  0  0
  6 36  1  0  0  0  0
  6 37  1  0  0  0  0
  7  8  1  0  0  0  0
  7 38  1  0  0  0  0
  7 39  1  0  0  0  0
  8  9  1  0  0  0  0
  8 40  1  0  0  0  0
  8 41  1  0  0  0  0
  9 10  1  0  0  0  0
  9 42  1  0  0  0  0
 10 11  1  0  0  0  0
 11 16  1  0  0  0  0
 11 12  2  0  0  0  0
 12 13  1  0  0  0  0
 13 14  2  0  0  0  0
 13 43  1  0  0  0  0
 14 15  1  0  0  0  0
 15 19  1  0  0  0  0
 15 16  2  0  0  0  0
 16 17  1  0  0  0  0
 17 18  2  0  0  0  0
 18 19  1  0  0  0  0
 18 44  1  0  0  0  0
 19 20  1  0  0  0  0
 20 21  1  0  0  0  0
 20 45  1  0  0  0  0
 20 46  1  0  0  0  0
 21 26  1  0  0  0  0
 21 22  1  0  0  0  0
 21 23  1  0  0  0  0
 22 47  1  0  0  0  0
 23 24  1  0  0  0  0
 23 48  1  0  0  0  0
 23 49  1  0  0  0  0
 24 25  1  0  0  0  0
 24 50  1  0  0  0  0
 24 51  1  0  0  0  0
 25 26  1  0  0  0  0
 26 52  1  0  0  0  0
 26 53  1  0  0  0  0
M  END
> <s_m_source_file>
AV-unprocessed.smi

> <i_m_source_file_index>
189

> <i_lp_mmshare_version>
43012

> <i_f3d_flags>
0

> <s_epik_input>
W0NIMl0xW0NIMl1bQ0gyXVtDSDJdW0NASF0oW0NASF0xMilOKFtDQEhdKFtDSDNdKVtDSDJdMiljKG5bY0hdbjMpYyhjMzQpbltjSF1uNFtDSDJdW0NAQF01KFtPSF0pW0NIMl1bQ0gyXU9bQ0gyXTU=

> <s_epik_cmdline>
J2VwaWtfcHl0aG9uJywgJy1waCcsICc3LjAnLCAnLXRuJywgJzgnLCAnLW1hJywgJzIwMCcsICctbWV0YWxfYmluZGluZycsICctaW1hZScsICc8aW5maWxlLm1hZT4nLCAnLW9tYWUnLCAnPG91dGZpbGUubWFlPic=

> <r_lp_tautomer_probability>
1

> <r_epik_Ionization_Penalty>
0.00594261

> <r_epik_Ionization_Penalty_Charging>
0

> <r_epik_Ionization_Penalty_Neutral>
0.00594261

> <r_epik_State_Penalty>
0.00429776

> <r_epik_Charging_Adjusted_Penalty>
0.00429776

> <i_epik_Tot_Q>
0

> <i_epik_Tot_abs_Q>
0

> <r_epik_Metal_State_Penalty>
-0

> <b_epik_Metal_Only>
0

> <s_lp_Force_Field>
OPLS_2005

> <r_lp_Energy>
67.2452

> <b_lp_Chiralities_Consistent>
1

> <s_lp_Variant>
AV-unprocessed.smi:189-15

> <Gold.Version>
5.8.1

> <Gold.Id.Protein>
6NUR|6NUR_protein|mol2

> <Gold.PLP.Fitness>
38.3921

> <Gold.PLP.PLP>
-33.6956

> <Gold.PLP.part.hbond>
-3.0000

> <Gold.PLP.part.metal>
0.0000

> <Gold.PLP.part.buried>
-3.9747

> <Gold.PLP.part.nonpolar>
-26.5370

> <Gold.PLP.part.repulsive>
0.0000

> <Gold.PLP.ligand.clash>
0.0000

> <Gold.PLP.ligand.torsion>
0.6654

> <Gold.PLP.Chemscore.Hbond>
2.0000

> <Gold.PLP.Chemscore.CHOScore>
0.0000

> <Gold.PLP.Chemscore.Metal>
0.0000

> <Gold.Chemscore.Hbonds>
donor molecule, donor type, donor heavy atom, donor atom, acceptor molecule, acceptor atom, score
      L1  H    22    47       P1  7948  1.00
      P1  H  6896  6908       L1    17  1.00

> <Gold.PLP.Chemscore.Internal.Correction>
0.0272

> <Gold.Rescore>
     Score         DG    S(hbond)    S(metal)    S(lipo)     H(rot)  DE(clash)    DE(int)     intcor
     16.53     -17.17       1.95        0.00      88.73       2.03       0.01       0.63       ----

> <Gold.Chemscore.Fitness>
16.5341

> <Gold.Chemscore.DG>
-17.1749

> <Gold.Chemscore.ZeroCoef>
-5.4800

> <Gold.Chemscore.Hbond>
1.9491

> <Gold.Chemscore.Metal>
0.0000

> <Gold.Chemscore.Lipo>
88.7263

> <Gold.Chemscore.Internal_Hbond>
0.0000

> <Gold.Chemscore.DEClash>
0.0149

> <Gold.Chemscore.DEInternal>
0.6259

> <Gold.Chemscore.Rot>
2.0297

> <Gold.Chemscore.Internal.Correction>
   9.000000E+99

> <Gold.Chemscore.Hbonds>
donor molecule, donor type, donor heavy atom, donor atom, acceptor molecule, acceptor atom, score
      L1  H    22    47       P1  7948  0.98
      P1  H  6896  6908       L1    17  0.92

> <Gold.Chemscore.Hbond.Weighted>
-6.5099

> <Gold.Chemscore.Metal.Weighted>
-0.0000

> <Gold.Chemscore.Lipo.Weighted>
-10.3810

> <Gold.Chemscore.Internal_Hbond.Weighted>
0.0000

> <Gold.Chemscore.DEClash.Weighted>
0.0149

> <Gold.Chemscore.DEInternal.Weighted>
0.6259

> <Gold.Chemscore.Rot.Weighted>
5.1960

> <Gold.Chemscore.Internal.Correction.Weighted>
   9.000000E+99

> <Gold.Protein.RotatedTorsions>
[ 6907 6896 6895 6894 ] final  175.08 input  -60.11 | X-H torsion
[ 7974 7965 7964 7962 ] final  -33.20 input  175.53 | X-H torsion
[ 8008 7997 7996 7995 ] final  -62.73 input   59.86 | X-H torsion
[ 10167 10162 10161 10158 ] final  -52.93 input  -65.29 | X-H torsion
[ 10718 10713 10712 10709 ] final  -33.13 input   66.30 | X-H torsion
[ 10763 10752 10751 10750 ] final   77.82 input  -60.55 | X-H torsion
[ 11005 11000 10999 10996 ] final -150.10 input  -57.11 | X-H torsion

> <Gold.Protein.ActiveResidues>
 VAL166  LYS551  ARG553  GLY616  TRP617  ASP618  TYR619  PRO620  LYS621  CYS622 
 ASP623  PHE694  ASN695  SER759  ASP760  ASP761  ALA762  ILE779  LEU786  VAL792 
 PHE793  MET794  SER795  GLU796  ALA797  LYS798  CYS799  TRP800  GLU811  SER814 

> <Gold.Protein.RotatedAtoms>
  151.7419  133.3322  159.3367 H   0  0  0  0  0  0  0  0  0  0  0  0  # atno 6907 bound_to 6896
  150.7570  134.6270  159.6175 H   0  0  0  0  0  0  0  0  0  0  0  0  # atno 6908 bound_to 6896
  152.3525  134.6988  160.0283 H   0  0  0  0  0  0  0  0  0  0  0  0  # atno 6909 bound_to 6896
  146.0929  140.5887  142.8856 H   0  0  0  0  0  0  0  0  0  0  0  0  # atno 7974 bound_to 7965
  154.4515  140.0990  156.6633 H   0  0  0  0  0  0  0  0  0  0  0  0  # atno 8008 bound_to 7997
  155.5269  140.3480  155.4400 H   0  0  0  0  0  0  0  0  0  0  0  0  # atno 8009 bound_to 7997
  156.0691  140.1345  156.9839 H   0  0  0  0  0  0  0  0  0  0  0  0  # atno 8010 bound_to 7997
  140.6512  143.2567  151.4719 H   0  0  0  0  0  0  0  0  0  0  0  0  # atno 10167 bound_to 10162
  156.3664  130.4332  149.7581 H   0  0  0  0  0  0  0  0  0  0  0  0  # atno 10718 bound_to 10713
  153.0827  135.4900  154.8536 H   0  0  0  0  0  0  0  0  0  0  0  0  # atno 10763 bound_to 10752
  154.7172  135.3032  154.9107 H   0  0  0  0  0  0  0  0  0  0  0  0  # atno 10764 bound_to 10752
  153.9783  135.6793  153.4802 H   0  0  0  0  0  0  0  0  0  0  0  0  # atno 10765 bound_to 10752
  140.7438  134.3484  157.5141 H   0  0  0  0  0  0  0  0  0  0  0  0  # atno 11005 bound_to 11000
  144.7373  140.4846  143.6894 LP  0  0  0  0  0  0  0  0  0  0  0  0  # atno 17320 bound_to 7965
  145.6004  139.1503  143.3132 LP  0  0  0  0  0  0  0  0  0  0  0  0  # atno 17321 bound_to 7965
  139.5727  144.1891  152.1859 LP  0  0  0  0  0  0  0  0  0  0  0  0  # atno 17342 bound_to 10162
  140.1192  144.5388  150.6874 LP  0  0  0  0  0  0  0  0  0  0  0  0  # atno 17343 bound_to 10162
  156.4725  130.8003  151.3020 LP  0  0  0  0  0  0  0  0  0  0  0  0  # atno 17370 bound_to 10713
  157.7479  131.0031  150.3026 LP  0  0  0  0  0  0  0  0  0  0  0  0  # atno 17371 bound_to 10713
  139.8801  134.9098  156.2999 LP  0  0  0  0  0  0  0  0  0  0  0  0  # atno 17394 bound_to 11000
  140.9813  133.7266  156.0676 LP  0  0  0  0  0  0  0  0  0  0  0  0  # atno 17395 bound_to 11000

$$$$
