AV-unprocessed.smi:1057|AV-procd|sdf|4651|dock6
  -GOLD-   22720 3163D 1   1.00000     0.00000
 Structure written by MMmdl.
 45 46  0  0  0  0  0  0  0  0  2 V2000
  153.1780  142.8073  162.4549 C   0  0  0  0  0  0  0  0  0  0  0  0
  153.1348  142.0968  161.4628 C   0  0  0  0  0  0  0  0  0  0  0  0
  153.0898  141.2310  160.2752 C   0  0  0  0  0  0  0  0  0  0  0  0
  152.9100  141.9979  159.0516 N   0  0  0  0  0  0  0  0  0  0  0  0
  151.8201  142.7247  158.7679 C   0  0  0  0  0  0  0  0  0  0  0  0
  150.8569  142.8195  159.5305 O   0  0  0  0  0  0  0  0  0  0  0  0
  151.8399  143.4690  157.4273 C   0  0  0  0  0  0  0  0  0  0  0  0
  150.6405  143.2313  156.6274 N   0  0  0  0  0  0  0  0  0  0  0  0
  150.3132  142.0629  156.0566 C   0  0  0  0  0  0  0  0  0  0  0  0
  151.0154  141.0539  156.1189 O   0  0  0  0  0  0  0  0  0  0  0  0
  149.1228  142.1385  155.4391 N   0  0  0  0  0  0  0  0  0  0  0  0
  148.4333  141.1104  154.7362 C   0  0  0  0  0  0  0  0  0  0  0  0
  149.0582  139.8975  154.3497 C   0  0  0  0  0  0  0  0  0  0  0  0
  148.3236  138.9315  153.6331 C   0  0  0  0  0  0  0  0  0  0  0  0
  146.9803  139.1950  153.3063 C   0  0  0  0  0  0  0  0  0  0  0  0
  146.4182  140.3650  153.6763 N   0  3  0  0  0  0  0  0  0  0  0  0
  147.0813  141.3246  154.3667 C   0  0  0  0  0  0  0  0  0  0  0  0
  146.3993  142.5060  154.6995 N   0  0  0  0  0  0  0  0  0  0  0  0
  145.8000  143.1735  153.5472 C   0  0  0  0  0  0  0  0  0  0  0  0
  145.2822  144.5690  153.9362 C   0  0  0  0  0  0  0  0  0  0  0  0
  144.3230  144.4855  155.1349 C   0  0  0  0  0  0  0  0  0  0  0  0
  144.9941  143.7461  156.3041 C   0  0  0  0  0  0  0  0  0  0  0  0
  145.5176  142.3707  155.8561 C   0  0  0  0  0  0  0  0  0  0  0  0
  153.2158  143.4244  163.3245 H   0  0  0  0  0  0  0  0  0  0  0  0
  154.0196  140.6621  160.2327 H   0  0  0  0  0  0  0  0  0  0  0  0
  152.2688  140.5235  160.3985 H   0  0  0  0  0  0  0  0  0  0  0  0
  153.6611  141.9728  158.3770 H   0  0  0  0  0  0  0  0  0  0  0  0
  151.9125  144.5384  157.6260 H   0  0  0  0  0  0  0  0  0  0  0  0
  152.7325  143.1949  156.8620 H   0  0  0  0  0  0  0  0  0  0  0  0
  150.0001  144.0060  156.5335 H   0  0  0  0  0  0  0  0  0  0  0  0
  148.6128  143.0013  155.5608 H   0  0  0  0  0  0  0  0  0  0  0  0
  150.0942  139.6977  154.5782 H   0  0  0  0  0  0  0  0  0  0  0  0
  148.7877  138.0031  153.3334 H   0  0  0  0  0  0  0  0  0  0  0  0
  146.3453  138.5137  152.7587 H   0  0  0  0  0  0  0  0  0  0  0  0
  146.5356  143.2605  152.7463 H   0  0  0  0  0  0  0  0  0  0  0  0
  144.9784  142.5672  153.1632 H   0  0  0  0  0  0  0  0  0  0  0  0
  146.1254  145.2135  154.1886 H   0  0  0  0  0  0  0  0  0  0  0  0
  144.7812  145.0329  153.0863 H   0  0  0  0  0  0  0  0  0  0  0  0
  144.0192  145.4854  155.4458 H   0  0  0  0  0  0  0  0  0  0  0  0
  143.4138  143.9592  154.8418 H   0  0  0  0  0  0  0  0  0  0  0  0
  145.8219  144.3446  156.6869 H   0  0  0  0  0  0  0  0  0  0  0  0
  144.2894  143.6285  157.1276 H   0  0  0  0  0  0  0  0  0  0  0  0
  144.6789  141.7210  155.6019 H   0  0  0  0  0  0  0  0  0  0  0  0
  146.0560  141.8932  156.6759 H   0  0  0  0  0  0  0  0  0  0  0  0
  145.4447  140.5345  153.4228 H   0  0  0  0  0  0  0  0  0  0  0  0
  1  2  3  0  0  0  0
  1 24  1  0  0  0  0
  2  3  1  0  0  0  0
  3  4  1  0  0  0  0
  3 25  1  0  0  0  0
  3 26  1  0  0  0  0
  4  5  1  0  0  0  0
  4 27  1  0  0  0  0
  5  6  2  0  0  0  0
  5  7  1  0  0  0  0
  7  8  1  0  0  0  0
  7 28  1  0  0  0  0
  7 29  1  0  0  0  0
  8  9  1  0  0  0  0
  8 30  1  0  0  0  0
  9 10  2  0  0  0  0
  9 11  1  0  0  0  0
 11 12  1  0  0  0  0
 11 31  1  0  0  0  0
 12 17  1  0  0  0  0
 12 13  2  0  0  0  0
 13 14  1  0  0  0  0
 13 32  1  0  0  0  0
 14 15  2  0  0  0  0
 14 33  1  0  0  0  0
 15 16  1  0  0  0  0
 15 34  1  0  0  0  0
 16 17  2  0  0  0  0
 16 45  1  0  0  0  0
 17 18  1  0  0  0  0
 18 23  1  0  0  0  0
 18 19  1  0  0  0  0
 19 20  1  0  0  0  0
 19 35  1  0  0  0  0
 19 36  1  0  0  0  0
 20 21  1  0  0  0  0
 20 37  1  0  0  0  0
 20 38  1  0  0  0  0
 21 22  1  0  0  0  0
 21 39  1  0  0  0  0
 21 40  1  0  0  0  0
 22 23  1  0  0  0  0
 22 41  1  0  0  0  0
 22 42  1  0  0  0  0
 23 43  1  0  0  0  0
 23 44  1  0  0  0  0
M  CHG  1  16   1
M  END
> <s_m_source_file>
AV-unprocessed.smi

> <i_m_source_file_index>
1057

> <i_lp_mmshare_version>
43012

> <i_f3d_flags>
0

> <s_epik_input>
W0NIXSNDW0NIMl1bTkhdQyg9TylbQ0gyXVtOSF1DKD1PKVtOSF1jMVtjSF1bY0hdW2NIXW5jMU4yW0NIMl1bQ0gyXVtDSDJdW0NIMl1bQ0gyXTI=

> <s_epik_cmdline>
J2VwaWtfcHl0aG9uJywgJy1waCcsICc3LjAnLCAnLXRuJywgJzgnLCAnLW1hJywgJzIwMCcsICctbWV0YWxfYmluZGluZycsICctaW1hZScsICc8aW5maWxlLm1hZT4nLCAnLW9tYWUnLCAnPG91dGZpbGUubWFlPic=

> <r_lp_tautomer_probability>
0.999994

> <r_epik_Ionization_Penalty>
0.641093

> <r_epik_Ionization_Penalty_Charging>
0.641074

> <r_epik_Ionization_Penalty_Neutral>
1.89753e-05

> <r_epik_State_Penalty>
0.658761

> <r_epik_Charging_Adjusted_Penalty>
1.29984

> <i_epik_Tot_Q>
1

> <i_epik_Tot_abs_Q>
1

> <r_epik_Metal_State_Penalty>
0.833895

> <b_epik_Metal_Only>
0

> <s_lp_Force_Field>
OPLS_2005

> <r_lp_Energy>
23.0781

> <b_lp_Chiralities_Consistent>
1

> <s_lp_Variant>
AV-unprocessed.smi:1057-2

> <Gold.Version>
5.8.1

> <Gold.Id.Protein>
6NUR|6NUR_protein|mol2

> <Gold.PLP.Fitness>
53.8022

> <Gold.PLP.PLP>
-43.0756

> <Gold.PLP.part.hbond>
-3.6253

> <Gold.PLP.part.metal>
0.0000

> <Gold.PLP.part.buried>
-7.1322

> <Gold.PLP.part.nonpolar>
-32.4827

> <Gold.PLP.part.repulsive>
0.5478

> <Gold.PLP.ligand.clash>
0.0000

> <Gold.PLP.ligand.torsion>
0.4527

> <Gold.PLP.Chemscore.Hbond>
3.8080

> <Gold.PLP.Chemscore.CHOScore>
0.0000

> <Gold.PLP.Chemscore.Metal>
0.0000

> <Gold.Chemscore.Hbonds>
donor molecule, donor type, donor heavy atom, donor atom, acceptor molecule, acceptor atom, score
      L1  H     8    30       P1  8028  0.98
      L1  H    11    31       P1  8028  0.83
      L1  H    16    45       P1 10175  2.00

> <Gold.PLP.Chemscore.Internal.Correction>
0.2081

> <Gold.Rescore>
     Score         DG    S(hbond)    S(metal)    S(lipo)     H(rot)  DE(clash)    DE(int)     intcor
     16.83     -21.35       2.85        0.00      93.93       1.82       1.60       2.93       ----

> <Gold.Chemscore.Fitness>
16.8272

> <Gold.Chemscore.DG>
-21.3503

> <Gold.Chemscore.ZeroCoef>
-5.4800

> <Gold.Chemscore.Hbond>
2.8532

> <Gold.Chemscore.Metal>
0.0000

> <Gold.Chemscore.Lipo>
93.9262

> <Gold.Chemscore.Internal_Hbond>
0.0000

> <Gold.Chemscore.DEClash>
1.5969

> <Gold.Chemscore.DEInternal>
2.9261

> <Gold.Chemscore.Rot>
1.8159

> <Gold.Chemscore.Internal.Correction>
   9.000000E+99

> <Gold.Chemscore.Hbonds>
donor molecule, donor type, donor heavy atom, donor atom, acceptor molecule, acceptor atom, score
      L1  H     8    30       P1  8028  0.90
      L1  H    11    31       P1  8028  0.81
      L1  H    16    45       P1 10175  0.92

> <Gold.Chemscore.Hbond.Weighted>
-9.5295

> <Gold.Chemscore.Metal.Weighted>
-0.0000

> <Gold.Chemscore.Lipo.Weighted>
-10.9894

> <Gold.Chemscore.Internal_Hbond.Weighted>
0.0000

> <Gold.Chemscore.DEClash.Weighted>
1.5969

> <Gold.Chemscore.DEInternal.Weighted>
2.9261

> <Gold.Chemscore.Rot.Weighted>
4.6486

> <Gold.Chemscore.Internal.Correction.Weighted>
   9.000000E+99

> <Gold.Protein.RotatedTorsions>
[ 6907 6896 6895 6894 ] final  -29.62 input  -60.11 | X-H torsion
[ 7974 7965 7964 7962 ] final   -1.62 input  175.53 | X-H torsion
[ 8008 7997 7996 7995 ] final -111.02 input   59.86 | X-H torsion
[ 10167 10162 10161 10158 ] final -149.62 input  -65.29 | X-H torsion
[ 10718 10713 10712 10709 ] final -112.52 input   66.30 | X-H torsion
[ 10763 10752 10751 10750 ] final  167.43 input  -60.55 | X-H torsion
[ 11005 11000 10999 10996 ] final -136.91 input  -57.11 | X-H torsion

> <Gold.Protein.ActiveResidues>
 VAL166  LYS551  ARG553  GLY616  TRP617  ASP618  TYR619  PRO620  LYS621  CYS622 
 ASP623  PHE694  ASN695  SER759  ASP760  ASP761  ALA762  ILE779  LEU786  VAL792 
 PHE793  MET794  SER795  GLU796  ALA797  LYS798  CYS799  TRP800  GLU811  SER814 

> <Gold.Protein.RotatedAtoms>
  151.1167  135.0057  159.8519 H   0  0  0  0  0  0  0  0  0  0  0  0  # atno 6907 bound_to 6896
  152.5446  134.1771  159.8630 H   0  0  0  0  0  0  0  0  0  0  0  0  # atno 6908 bound_to 6896
  151.1826  133.4671  159.2627 H   0  0  0  0  0  0  0  0  0  0  0  0  # atno 6909 bound_to 6896
  146.2415  140.1448  142.8335 H   0  0  0  0  0  0  0  0  0  0  0  0  # atno 7974 bound_to 7965
  154.9833  140.0396  157.2287 H   0  0  0  0  0  0  0  0  0  0  0  0  # atno 8008 bound_to 7997
  154.7694  140.2799  155.6127 H   0  0  0  0  0  0  0  0  0  0  0  0  # atno 8009 bound_to 7997
  156.2918  140.2613  156.2493 H   0  0  0  0  0  0  0  0  0  0  0  0  # atno 8010 bound_to 7997
  139.7426  143.8639  152.2566 H   0  0  0  0  0  0  0  0  0  0  0  0  # atno 10167 bound_to 10162
  156.0711  130.5924  150.8520 H   0  0  0  0  0  0  0  0  0  0  0  0  # atno 10718 bound_to 10713
  154.3537  135.2753  155.2358 H   0  0  0  0  0  0  0  0  0  0  0  0  # atno 10763 bound_to 10752
  154.4576  135.5915  153.6237 H   0  0  0  0  0  0  0  0  0  0  0  0  # atno 10764 bound_to 10752
  152.9848  135.6057  154.3751 H   0  0  0  0  0  0  0  0  0  0  0  0  # atno 10765 bound_to 10752
  140.8761  134.1990  157.4621 H   0  0  0  0  0  0  0  0  0  0  0  0  # atno 11005 bound_to 11000
  145.0216  140.8798  143.5163 LP  0  0  0  0  0  0  0  0  0  0  0  0  # atno 17320 bound_to 7965
  145.1498  139.2521  143.5447 LP  0  0  0  0  0  0  0  0  0  0  0  0  # atno 17321 bound_to 7965
  139.8594  144.7125  150.9118 LP  0  0  0  0  0  0  0  0  0  0  0  0  # atno 17342 bound_to 10162
  140.7788  143.3831  151.1442 LP  0  0  0  0  0  0  0  0  0  0  0  0  # atno 17343 bound_to 10162
  157.5782  131.0946  150.9313 LP  0  0  0  0  0  0  0  0  0  0  0  0  # atno 17370 bound_to 10713
  156.9514  130.5421  149.5282 LP  0  0  0  0  0  0  0  0  0  0  0  0  # atno 17371 bound_to 10713
  139.8716  134.9796  156.5044 LP  0  0  0  0  0  0  0  0  0  0  0  0  # atno 17394 bound_to 11000
  140.8516  133.8127  155.9174 LP  0  0  0  0  0  0  0  0  0  0  0  0  # atno 17395 bound_to 11000

$$$$
