AV-unprocessed.smi:1535|AV-procd|sdf|6173|dock6
  -GOLD-   22720 6323D 1   1.00000     0.00000
 Structure written by MMmdl.
 46 47  0  0  0  0  0  0  0  0  1 V2000
  152.8392  143.3751  162.2896 C   0  0  0  0  0  0  0  0  0  0  0  0
  152.4689  142.8499  160.9139 C   0  0  0  0  0  0  0  0  0  0  0  0
  152.7495  141.5023  160.5947 C   0  0  0  0  0  0  0  0  0  0  0  0
  152.4190  140.9742  159.3274 C   0  0  0  0  0  0  0  0  0  0  0  0
  152.5995  139.7033  158.8094 N   0  0  0  0  0  0  0  0  0  0  0  0
  152.0864  139.8363  157.5898 C   0  0  0  0  0  0  0  0  0  0  0  0
  151.5955  141.0448  157.2550 N   0  0  0  0  0  0  0  0  0  0  0  0
  150.9900  141.4177  155.9886 C   0  0  0  0  0  0  0  0  0  0  0  0
  149.5082  141.0054  155.9008 C   0  0  1  0  0  0  0  0  0  0  0  0
  148.7163  141.9765  156.5573 O   0  0  0  0  0  0  0  0  0  0  0  0
  149.0390  140.8932  154.4345 C   0  0  0  0  0  0  0  0  0  0  0  0
  149.1155  139.5561  153.8380 N   0  0  0  0  0  0  0  0  0  0  0  0
  150.3834  138.9284  154.1952 C   0  0  0  0  0  0  0  0  0  0  0  0
  147.9826  138.7086  154.2276 C   0  0  0  0  0  0  0  0  0  0  0  0
  146.6476  139.0247  153.5259 C   0  0  1  0  0  0  0  0  0  0  0  0
  146.7760  138.8828  152.0041 C   0  0  0  0  0  0  0  0  0  0  0  0
  145.5541  138.1794  154.0339 C   0  0  0  0  0  0  0  0  0  0  0  0
  144.6944  137.5154  154.4326 N   0  0  0  0  0  0  0  0  0  0  0  0
  151.7954  141.8380  158.3800 C   0  0  0  0  0  0  0  0  0  0  0  0
  151.5124  143.1810  158.6855 C   0  0  0  0  0  0  0  0  0  0  0  0
  151.8501  143.6927  159.9559 C   0  0  0  0  0  0  0  0  0  0  0  0
  151.5406  145.1446  160.2757 C   0  0  0  0  0  0  0  0  0  0  0  0
  153.2606  142.5884  162.9160 H   0  0  0  0  0  0  0  0  0  0  0  0
  151.9599  143.7709  162.7981 H   0  0  0  0  0  0  0  0  0  0  0  0
  153.5800  144.1708  162.2074 H   0  0  0  0  0  0  0  0  0  0  0  0
  153.2217  140.8601  161.3235 H   0  0  0  0  0  0  0  0  0  0  0  0
  152.0642  139.0068  156.8983 H   0  0  0  0  0  0  0  0  0  0  0  0
  151.1004  142.4938  155.8483 H   0  0  0  0  0  0  0  0  0  0  0  0
  151.5589  140.9407  155.1895 H   0  0  0  0  0  0  0  0  0  0  0  0
  149.3901  140.0593  156.4264 H   0  0  0  0  0  0  0  0  0  0  0  0
  149.0543  142.8332  156.3467 H   0  0  0  0  0  0  0  0  0  0  0  0
  148.0091  141.2513  154.3908 H   0  0  0  0  0  0  0  0  0  0  0  0
  149.6148  141.5866  153.8194 H   0  0  0  0  0  0  0  0  0  0  0  0
  150.5196  137.9818  153.6739 H   0  0  0  0  0  0  0  0  0  0  0  0
  150.4441  138.7421  155.2683 H   0  0  0  0  0  0  0  0  0  0  0  0
  151.2234  139.5649  153.9147 H   0  0  0  0  0  0  0  0  0  0  0  0
  148.2396  137.6616  154.0597 H   0  0  0  0  0  0  0  0  0  0  0  0
  147.8016  138.7998  155.2967 H   0  0  0  0  0  0  0  0  0  0  0  0
  146.3583  140.0546  153.7309 H   0  0  0  0  0  0  0  0  0  0  0  0
  145.8381  139.1347  151.5086 H   0  0  0  0  0  0  0  0  0  0  0  0
  147.0366  137.8618  151.7233 H   0  0  0  0  0  0  0  0  0  0  0  0
  147.5467  139.5459  151.6105 H   0  0  0  0  0  0  0  0  0  0  0  0
  151.0374  143.8111  157.9484 H   0  0  0  0  0  0  0  0  0  0  0  0
  151.1163  145.6604  159.4138 H   0  0  0  0  0  0  0  0  0  0  0  0
  152.4473  145.6746  160.5678 H   0  0  0  0  0  0  0  0  0  0  0  0
  150.8222  145.2093  161.0929 H   0  0  0  0  0  0  0  0  0  0  0  0
  1  2  1  0  0  0  0
  1 23  1  0  0  0  0
  1 24  1  0  0  0  0
  1 25  1  0  0  0  0
  2 21  1  0  0  0  0
  2  3  2  0  0  0  0
  3  4  1  0  0  0  0
  3 26  1  0  0  0  0
  4 19  2  0  0  0  0
  4  5  1  0  0  0  0
  5  6  2  0  0  0  0
  6  7  1  0  0  0  0
  6 27  1  0  0  0  0
  7  8  1  0  0  0  0
  7 19  1  0  0  0  0
  8  9  1  0  0  0  0
  8 28  1  0  0  0  0
  8 29  1  0  0  0  0
  9 10  1  0  0  0  0
  9 11  1  0  0  0  0
  9 30  1  0  0  0  0
 10 31  1  0  0  0  0
 11 12  1  0  0  0  0
 11 32  1  0  0  0  0
 11 33  1  0  0  0  0
 12 13  1  0  0  0  0
 12 14  1  0  0  0  0
 13 34  1  0  0  0  0
 13 35  1  0  0  0  0
 13 36  1  0  0  0  0
 14 15  1  0  0  0  0
 14 37  1  0  0  0  0
 14 38  1  0  0  0  0
 15 16  1  0  0  0  0
 15 17  1  0  0  0  0
 15 39  1  0  0  0  0
 16 40  1  0  0  0  0
 16 41  1  0  0  0  0
 16 42  1  0  0  0  0
 17 18  3  0  0  0  0
 19 20  1  0  0  0  0
 20 21  2  0  0  0  0
 20 43  1  0  0  0  0
 21 22  1  0  0  0  0
 22 44  1  0  0  0  0
 22 45  1  0  0  0  0
 22 46  1  0  0  0  0
M  END
> <s_m_source_file>
AV-unprocessed.smi

> <i_m_source_file_index>
1535

> <i_lp_mmshare_version>
43012

> <i_f3d_flags>
0

> <s_epik_input>
W0NIM11jKFtjSF0xKWMoW0NIM10pW2NIXWMoYzEyKW4oW2NIXW4yKVtDSDJdW0NASF0oW09IXSlbQ0gyXU4oW0NIM10pW0NIMl1bQ0BIXShbQ0gzXSlDI04=

> <s_epik_cmdline>
J2VwaWtfcHl0aG9uJywgJy1waCcsICc3LjAnLCAnLXRuJywgJzgnLCAnLW1hJywgJzIwMCcsICctbWV0YWxfYmluZGluZycsICctaW1hZScsICc8aW5maWxlLm1hZT4nLCAnLW9tYWUnLCAnPG91dGZpbGUubWFlPic=

> <r_epik_Ionization_Penalty>
0.098511

> <r_epik_Ionization_Penalty_Charging>
0

> <r_epik_Ionization_Penalty_Neutral>
0.098511

> <r_epik_State_Penalty>
0.0881608

> <r_epik_Charging_Adjusted_Penalty>
0.0881608

> <i_epik_Tot_Q>
0

> <i_epik_Tot_abs_Q>
0

> <r_epik_Metal_State_Penalty>
0.0128087

> <b_epik_Metal_Only>
0

> <s_lp_Force_Field>
OPLS_2005

> <r_lp_Energy>
24.0286

> <b_lp_Chiralities_Consistent>
1

> <s_lp_Variant>
AV-unprocessed.smi:1535-4

> <Gold.Version>
5.8.1

> <Gold.Id.Protein>
6NUR|6NUR_protein|mol2

> <Gold.PLP.Fitness>
46.9433

> <Gold.PLP.PLP>
-46.4477

> <Gold.PLP.part.hbond>
-1.0000

> <Gold.PLP.part.metal>
0.0000

> <Gold.PLP.part.buried>
-6.7261

> <Gold.PLP.part.nonpolar>
-39.7539

> <Gold.PLP.part.repulsive>
2.0102

> <Gold.PLP.ligand.clash>
0.0000

> <Gold.PLP.ligand.torsion>
1.2955

> <Gold.PLP.Chemscore.Hbond>
1.0000

> <Gold.PLP.Chemscore.CHOScore>
0.0000

> <Gold.PLP.Chemscore.Metal>
0.0000

> <Gold.Chemscore.Hbonds>
donor molecule, donor type, donor heavy atom, donor atom, acceptor molecule, acceptor atom, score
      L1  H    10    31       P1  8028  1.00

> <Gold.PLP.Chemscore.Internal.Correction>
0.0867

> <Gold.Rescore>
     Score         DG    S(hbond)    S(metal)    S(lipo)     H(rot)  DE(clash)    DE(int)     intcor
     15.31     -17.75       1.00        0.00     131.37       2.51       1.07       1.36       ----

> <Gold.Chemscore.Fitness>
15.3130

> <Gold.Chemscore.DG>
-17.7461

> <Gold.Chemscore.ZeroCoef>
-5.4800

> <Gold.Chemscore.Hbond>
0.9954

> <Gold.Chemscore.Metal>
0.0000

> <Gold.Chemscore.Lipo>
131.3721

> <Gold.Chemscore.Internal_Hbond>
0.0000

> <Gold.Chemscore.DEClash>
1.0683

> <Gold.Chemscore.DEInternal>
1.3649

> <Gold.Chemscore.Rot>
2.5113

> <Gold.Chemscore.Internal.Correction>
   9.000000E+99

> <Gold.Chemscore.Hbonds>
donor molecule, donor type, donor heavy atom, donor atom, acceptor molecule, acceptor atom, score
      L1  H    10    31       P1  8028  0.92

> <Gold.Chemscore.Hbond.Weighted>
-3.3245

> <Gold.Chemscore.Metal.Weighted>
-0.0000

> <Gold.Chemscore.Lipo.Weighted>
-15.3705

> <Gold.Chemscore.Internal_Hbond.Weighted>
0.0000

> <Gold.Chemscore.DEClash.Weighted>
1.0683

> <Gold.Chemscore.DEInternal.Weighted>
1.3649

> <Gold.Chemscore.Rot.Weighted>
6.4289

> <Gold.Chemscore.Internal.Correction.Weighted>
   9.000000E+99

> <Gold.Protein.RotatedTorsions>
[ 6907 6896 6895 6894 ] final   19.98 input  -60.11 | X-H torsion
[ 7974 7965 7964 7962 ] final  -53.62 input  175.53 | X-H torsion
[ 8008 7997 7996 7995 ] final -155.42 input   59.86 | X-H torsion
[ 10167 10162 10161 10158 ] final    0.56 input  -65.29 | X-H torsion
[ 10718 10713 10712 10709 ] final -102.80 input   66.30 | X-H torsion
[ 10763 10752 10751 10750 ] final  -13.88 input  -60.55 | X-H torsion
[ 11005 11000 10999 10996 ] final  -79.31 input  -57.11 | X-H torsion

> <Gold.Protein.ActiveResidues>
 VAL166  LYS551  ARG553  GLY616  TRP617  ASP618  TYR619  PRO620  LYS621  CYS622 
 ASP623  PHE694  ASN695  SER759  ASP760  ASP761  ALA762  ILE779  LEU786  VAL792 
 PHE793  MET794  SER795  GLU796  ALA797  LYS798  CYS799  TRP800  GLU811  SER814 

> <Gold.Protein.RotatedAtoms>
  151.8892  135.0423  160.0495 H   0  0  0  0  0  0  0  0  0  0  0  0  # atno 6907 bound_to 6896
  152.2450  133.5162  159.5300 H   0  0  0  0  0  0  0  0  0  0  0  0  # atno 6908 bound_to 6896
  150.7065  134.0954  159.3989 H   0  0  0  0  0  0  0  0  0  0  0  0  # atno 6909 bound_to 6896
  145.8948  140.8041  142.9773 H   0  0  0  0  0  0  0  0  0  0  0  0  # atno 7974 bound_to 7965
  155.7016  140.0767  157.2408 H   0  0  0  0  0  0  0  0  0  0  0  0  # atno 8008 bound_to 7997
  154.4072  140.1646  156.2250 H   0  0  0  0  0  0  0  0  0  0  0  0  # atno 8009 bound_to 7997
  155.9363  140.3387  155.6293 H   0  0  0  0  0  0  0  0  0  0  0  0  # atno 8010 bound_to 7997
  140.6723  143.7014  150.7949 H   0  0  0  0  0  0  0  0  0  0  0  0  # atno 10167 bound_to 10162
  156.0242  130.5437  150.7161 H   0  0  0  0  0  0  0  0  0  0  0  0  # atno 10718 bound_to 10713
  153.5199  135.7016  153.5737 H   0  0  0  0  0  0  0  0  0  0  0  0  # atno 10763 bound_to 10752
  153.3790  135.3925  155.1843 H   0  0  0  0  0  0  0  0  0  0  0  0  # atno 10764 bound_to 10752
  154.8695  135.3830  154.4687 H   0  0  0  0  0  0  0  0  0  0  0  0  # atno 10765 bound_to 10752
  141.1667  133.7100  156.8103 H   0  0  0  0  0  0  0  0  0  0  0  0  # atno 11005 bound_to 11000
  144.6732  140.1586  143.7424 LP  0  0  0  0  0  0  0  0  0  0  0  0  # atno 17320 bound_to 7965
  145.8863  139.2351  143.1575 LP  0  0  0  0  0  0  0  0  0  0  0  0  # atno 17321 bound_to 7965
  140.0701  143.5069  152.2584 LP  0  0  0  0  0  0  0  0  0  0  0  0  # atno 17342 bound_to 10162
  139.5997  144.7579  151.3200 LP  0  0  0  0  0  0  0  0  0  0  0  0  # atno 17343 bound_to 10162
  157.4788  131.0900  151.0560 LP  0  0  0  0  0  0  0  0  0  0  0  0  # atno 17370 bound_to 10713
  157.0999  130.5977  149.5458 LP  0  0  0  0  0  0  0  0  0  0  0  0  # atno 17371 bound_to 10713
  140.2193  134.8769  157.3359 LP  0  0  0  0  0  0  0  0  0  0  0  0  # atno 17394 bound_to 11000
  140.2005  134.4260  155.7665 LP  0  0  0  0  0  0  0  0  0  0  0  0  # atno 17395 bound_to 11000

$$$$
