AV-unprocessed.smi:3078|AV-procd|sdf|11736|dock9
  -GOLD-   2272017133D 1   1.00000     0.00000
 Structure written by MMmdl.
 24 24  0  0  0  0  0  0  0  0  3 V2000
  152.8016  138.2559  154.5140 C   0  0  0  0  0  0  0  0  0  0  0  0
  151.4364  138.7342  154.4643 N   0  0  0  0  0  0  0  0  0  0  0  0
  150.3135  138.0876  153.9957 C   0  0  0  0  0  0  0  0  0  0  0  0
  149.2517  138.9361  154.1560 C   0  0  0  0  0  0  0  0  0  0  0  0
  147.7985  138.7291  153.8098 C   0  0  1  0  0  0  0  0  0  0  0  0
  147.6507  138.6352  152.3461 N   0  3  0  0  0  0  0  0  0  0  0  0
  147.1946  137.4911  154.5020 C   0  0  0  0  0  0  0  0  0  0  0  0
  146.9386  136.3954  153.5481 N   0  3  0  0  0  0  0  0  0  0  0  0
  149.8445  140.0946  154.7361 C   0  0  0  0  0  0  0  0  0  0  0  0
  151.1472  139.9688  154.9222 N   0  0  0  0  0  0  0  0  0  0  0  0
  152.8898  137.3159  153.9682 H   0  0  0  0  0  0  0  0  0  0  0  0
  153.0972  138.0937  155.5509 H   0  0  0  0  0  0  0  0  0  0  0  0
  153.4690  138.9905  154.0620 H   0  0  0  0  0  0  0  0  0  0  0  0
  150.3645  137.0872  153.5912 H   0  0  0  0  0  0  0  0  0  0  0  0
  147.2187  139.6018  154.1143 H   0  0  0  0  0  0  0  0  0  0  0  0
  148.3403  139.2241  151.9003 H   0  0  0  0  0  0  0  0  0  0  0  0
  146.7267  138.9410  152.0755 H   0  0  0  0  0  0  0  0  0  0  0  0
  147.8777  137.1178  155.2658 H   0  0  0  0  0  0  0  0  0  0  0  0
  146.2623  137.7444  155.0082 H   0  0  0  0  0  0  0  0  0  0  0  0
  147.7700  136.2215  153.0010 H   0  0  0  0  0  0  0  0  0  0  0  0
  146.1805  136.6497  152.9305 H   0  0  0  0  0  0  0  0  0  0  0  0
  149.3674  141.0184  155.0289 H   0  0  0  0  0  0  0  0  0  0  0  0
  146.6903  135.5565  154.0538 H   0  0  0  0  0  0  0  0  0  0  0  0
  147.7890  137.6796  152.0492 H   0  0  0  0  0  0  0  0  0  0  0  0
  1  2  1  0  0  0  0
  1 11  1  0  0  0  0
  1 12  1  0  0  0  0
  1 13  1  0  0  0  0
  2 10  1  0  0  0  0
  2  3  1  0  0  0  0
  3  4  2  0  0  0  0
  3 14  1  0  0  0  0
  4  5  1  0  0  0  0
  4  9  1  0  0  0  0
  5  6  1  0  0  0  0
  5  7  1  0  0  0  0
  5 15  1  0  0  0  0
  6 16  1  0  0  0  0
  6 17  1  0  0  0  0
  6 24  1  0  0  0  0
  7  8  1  0  0  0  0
  7 18  1  0  0  0  0
  7 19  1  0  0  0  0
  8 20  1  0  0  0  0
  8 21  1  0  0  0  0
  8 23  1  0  0  0  0
  9 10  2  0  0  0  0
  9 22  1  0  0  0  0
M  CHG  1   6   1
M  CHG  1   8   1
M  END
> <s_m_source_file>
AV-unprocessed.smi

> <i_m_source_file_index>
3078

> <i_lp_mmshare_version>
43012

> <i_f3d_flags>
0

> <s_epik_input>
W0NIM11uMVtjSF1jKFtjSF1uMSlbQ0BIXShbTkgyXSlbQ0gyXVtOSDJd

> <s_epik_cmdline>
J2VwaWtfcHl0aG9uJywgJy1waCcsICc3LjAnLCAnLXRuJywgJzgnLCAnLW1hJywgJzIwMCcsICctbWV0YWxfYmluZGluZycsICctaW1hZScsICc8aW5maWxlLm1hZT4nLCAnLW9tYWUnLCAnPG91dGZpbGUubWFlPic=

> <r_lp_tautomer_probability>
1

> <r_epik_Ionization_Penalty>
2.39325

> <r_epik_Ionization_Penalty_Charging>
2.39325

> <r_epik_Ionization_Penalty_Neutral>
1.68997e-07

> <r_epik_State_Penalty>
1.77229

> <r_epik_Charging_Adjusted_Penalty>
4.16555

> <i_epik_Tot_Q>
2

> <i_epik_Tot_abs_Q>
2

> <r_epik_Metal_State_Penalty>
1.77233

> <b_epik_Metal_Only>
0

> <s_lp_Force_Field>
OPLS_2005

> <r_lp_Energy>
8.51806

> <b_lp_Chiralities_Consistent>
1

> <s_lp_Variant>
AV-unprocessed.smi:3078-6

> <Gold.Version>
5.8.1

> <Gold.Id.Protein>
6NUR|6NUR_protein|mol2

> <Gold.PLP.Fitness>
38.8020

> <Gold.PLP.PLP>
-20.2505

> <Gold.PLP.part.hbond>
-4.0000

> <Gold.PLP.part.metal>
0.0000

> <Gold.PLP.part.buried>
-2.1086

> <Gold.PLP.part.nonpolar>
-15.0324

> <Gold.PLP.part.repulsive>
0.1278

> <Gold.PLP.ligand.clash>
0.0000

> <Gold.PLP.ligand.torsion>
0.7188

> <Gold.PLP.Chemscore.Hbond>
5.6375

> <Gold.PLP.Chemscore.CHOScore>
1.0199

> <Gold.PLP.Chemscore.Metal>
0.0000

> <Gold.Chemscore.Hbonds>
donor molecule, donor type, donor heavy atom, donor atom, acceptor molecule, acceptor atom, score
      L1  H     6    16       P1  7957  1.00
      L1  H     6    24       P1  7948  1.92
      L1  H     8    20       P1  7948  2.00
      P1  H  7989  7998       L1    10  0.76
      L1  C     3    14       P1  7948  0.66
      L1  C     3    14       P1  7949  0.35

> <Gold.PLP.Chemscore.Internal.Correction>
0.0169

> <Gold.Rescore>
     Score         DG    S(hbond)    S(metal)    S(lipo)     H(rot)  DE(clash)    DE(int)     intcor
     15.45     -16.23       2.99        0.00      37.83       1.43       0.01       0.78       ----

> <Gold.Chemscore.Fitness>
15.4456

> <Gold.Chemscore.DG>
-16.2318

> <Gold.Chemscore.ZeroCoef>
-5.4800

> <Gold.Chemscore.Hbond>
2.9903

> <Gold.Chemscore.Metal>
0.0000

> <Gold.Chemscore.Lipo>
37.8293

> <Gold.Chemscore.Internal_Hbond>
0.0000

> <Gold.Chemscore.DEClash>
0.0069

> <Gold.Chemscore.DEInternal>
0.7793

> <Gold.Chemscore.Rot>
1.4304

> <Gold.Chemscore.Internal.Correction>
   9.000000E+99

> <Gold.Chemscore.Hbonds>
donor molecule, donor type, donor heavy atom, donor atom, acceptor molecule, acceptor atom, score
      L1  H     6    16       P1  7957  0.99
      L1  H     6    24       P1  7948  0.92
      L1  H     8    20       P1  7948  1.00
      P1  H  7989  7998       L1    10  0.03

> <Gold.Chemscore.Hbond.Weighted>
-9.9876

> <Gold.Chemscore.Metal.Weighted>
-0.0000

> <Gold.Chemscore.Lipo.Weighted>
-4.4260

> <Gold.Chemscore.Internal_Hbond.Weighted>
0.0000

> <Gold.Chemscore.DEClash.Weighted>
0.0069

> <Gold.Chemscore.DEInternal.Weighted>
0.7793

> <Gold.Chemscore.Rot.Weighted>
3.6618

> <Gold.Chemscore.Internal.Correction.Weighted>
   9.000000E+99

> <Gold.Protein.RotatedTorsions>
[ 6907 6896 6895 6894 ] final  101.57 input  -60.11 | X-H torsion
[ 7974 7965 7964 7962 ] final -119.94 input  175.53 | X-H torsion
[ 8008 7997 7996 7995 ] final  151.30 input   59.86 | X-H torsion
[ 10167 10162 10161 10158 ] final   -7.73 input  -65.29 | X-H torsion
[ 10718 10713 10712 10709 ] final  -70.01 input   66.30 | X-H torsion
[ 10763 10752 10751 10750 ] final   81.78 input  -60.55 | X-H torsion
[ 11005 11000 10999 10996 ] final  105.04 input  -57.11 | X-H torsion

> <Gold.Protein.ActiveResidues>
 VAL166  LYS551  ARG553  GLY616  TRP617  ASP618  TYR619  PRO620  LYS621  CYS622 
 ASP623  PHE694  ASN695  SER759  ASP760  ASP761  ALA762  ILE779  LEU786  VAL792 
 PHE793  MET794  SER795  GLU796  ALA797  LYS798  CYS799  TRP800  GLU811  SER814 

> <Gold.Protein.RotatedAtoms>
  152.5346  134.0105  159.7936 H   0  0  0  0  0  0  0  0  0  0  0  0  # atno 6907 bound_to 6896
  151.0308  133.5784  159.2668 H   0  0  0  0  0  0  0  0  0  0  0  0  # atno 6908 bound_to 6896
  151.2789  135.0715  159.9215 H   0  0  0  0  0  0  0  0  0  0  0  0  # atno 6909 bound_to 6896
  145.0569  140.8261  143.4176 H   0  0  0  0  0  0  0  0  0  0  0  0  # atno 7974 bound_to 7965
  156.2679  140.2051  156.6154 H   0  0  0  0  0  0  0  0  0  0  0  0  # atno 8008 bound_to 7997
  154.6798  140.0541  157.0278 H   0  0  0  0  0  0  0  0  0  0  0  0  # atno 8009 bound_to 7997
  155.1016  140.3206  155.4548 H   0  0  0  0  0  0  0  0  0  0  0  0  # atno 8010 bound_to 7997
  140.7038  143.6048  150.8762 H   0  0  0  0  0  0  0  0  0  0  0  0  # atno 10167 bound_to 10162
  156.0428  130.4323  150.2233 H   0  0  0  0  0  0  0  0  0  0  0  0  # atno 10718 bound_to 10713
  153.1146  135.4753  154.9093 H   0  0  0  0  0  0  0  0  0  0  0  0  # atno 10763 bound_to 10752
  154.7515  135.3107  154.8551 H   0  0  0  0  0  0  0  0  0  0  0  0  # atno 10764 bound_to 10752
  153.9131  135.6863  153.4804 H   0  0  0  0  0  0  0  0  0  0  0  0  # atno 10765 bound_to 10752
  139.8798  134.9322  156.5453 H   0  0  0  0  0  0  0  0  0  0  0  0  # atno 11005 bound_to 11000
  145.1457  139.2545  143.5467 LP  0  0  0  0  0  0  0  0  0  0  0  0  # atno 17320 bound_to 7965
  146.3522  140.1146  142.8602 LP  0  0  0  0  0  0  0  0  0  0  0  0  # atno 17321 bound_to 7965
  139.9772  143.5992  152.2955 LP  0  0  0  0  0  0  0  0  0  0  0  0  # atno 17342 bound_to 10162
  139.6599  144.7662  151.1982 LP  0  0  0  0  0  0  0  0  0  0  0  0  # atno 17343 bound_to 10162
  157.0326  131.0012  151.3307 LP  0  0  0  0  0  0  0  0  0  0  0  0  # atno 17370 bound_to 10713
  157.5266  130.8032  149.7869 LP  0  0  0  0  0  0  0  0  0  0  0  0  # atno 17371 bound_to 10713
  140.8280  133.8301  155.8957 LP  0  0  0  0  0  0  0  0  0  0  0  0  # atno 17394 bound_to 11000
  140.9356  134.1967  157.4834 LP  0  0  0  0  0  0  0  0  0  0  0  0  # atno 17395 bound_to 11000

$$$$
