AV-unprocessed.smi:3342|AV-procd|sdf|12888|dock10
  -GOLD-   2272019293D 1   1.00000     0.00000
 Structure written by MMmdl.
 42 43  0  0  0  0  0  0  0  0  2 V2000
  145.9438  135.0122  151.7322 C   0  0  0  0  0  0  0  0  0  0  0  0
  146.1528  133.7787  152.6207 C   0  0  1  0  0  0  0  0  0  0  0  0
  146.0580  132.4749  151.7986 C   0  0  0  0  0  0  0  0  0  0  0  0
  145.0295  132.5265  150.7545 N   0  0  0  0  0  0  0  0  0  0  0  0
  145.1731  132.2089  149.4280 C   0  0  0  0  0  0  0  0  0  0  0  0
  143.9455  132.3964  148.8467 C   0  0  0  0  0  0  0  0  0  0  0  0
  143.1074  132.8262  149.8404 N   0  3  0  0  0  0  0  0  0  0  0  0
  143.7695  132.9091  150.9988 C   0  0  0  0  0  0  0  0  0  0  0  0
  147.4517  133.8904  153.2833 N   0  0  0  0  0  0  0  0  0  0  0  0
  147.9558  133.0334  154.1888 C   0  0  0  0  0  0  0  0  0  0  0  0
  147.3531  132.0154  154.5331 O   0  0  0  0  0  0  0  0  0  0  0  0
  149.1905  133.3568  154.6489 N   0  0  0  0  0  0  0  0  0  0  0  0
  150.0405  134.4564  154.1615 C   0  0  0  0  0  0  0  0  0  0  0  0
  150.0044  135.6017  155.1897 C   0  0  0  0  0  0  0  0  0  0  0  0
  150.4553  135.1117  156.5864 C   0  0  0  0  0  0  0  0  0  0  0  0
  150.2897  136.2164  157.6387 C   0  0  0  0  0  0  0  0  0  0  0  0
  150.8985  137.3807  157.4003 N   0  0  0  0  0  0  0  0  0  0  0  0
  149.6221  136.0243  158.6531 O   0  0  0  0  0  0  0  0  0  0  0  0
  149.6856  133.8339  156.9966 C   0  0  0  0  0  0  0  0  0  0  0  0
  149.7361  132.7742  155.8809 C   0  0  0  0  0  0  0  0  0  0  0  0
  144.9697  134.9833  151.2431 H   0  0  0  0  0  0  0  0  0  0  0  0
  146.7049  135.0762  150.9536 H   0  0  0  0  0  0  0  0  0  0  0  0
  145.9891  135.9311  152.3180 H   0  0  0  0  0  0  0  0  0  0  0  0
  145.3575  133.7851  153.3683 H   0  0  0  0  0  0  0  0  0  0  0  0
  147.0090  132.2659  151.3064 H   0  0  0  0  0  0  0  0  0  0  0  0
  145.8439  131.6229  152.4457 H   0  0  0  0  0  0  0  0  0  0  0  0
  146.1111  131.8746  149.0089 H   0  0  0  0  0  0  0  0  0  0  0  0
  143.6140  132.2592  147.8276 H   0  0  0  0  0  0  0  0  0  0  0  0
  143.3634  133.2139  151.9469 H   0  0  0  0  0  0  0  0  0  0  0  0
  148.0116  134.6963  153.0450 H   0  0  0  0  0  0  0  0  0  0  0  0
  151.0630  134.0939  154.0456 H   0  0  0  0  0  0  0  0  0  0  0  0
  149.7579  134.8347  153.1793 H   0  0  0  0  0  0  0  0  0  0  0  0
  150.6476  136.4162  154.8542 H   0  0  0  0  0  0  0  0  0  0  0  0
  148.9919  136.0072  155.2361 H   0  0  0  0  0  0  0  0  0  0  0  0
  151.5139  134.8531  156.5202 H   0  0  0  0  0  0  0  0  0  0  0  0
  150.8168  138.1384  158.0626 H   0  0  0  0  0  0  0  0  0  0  0  0
  151.4378  137.4993  156.5550 H   0  0  0  0  0  0  0  0  0  0  0  0
  150.1073  133.4213  157.9140 H   0  0  0  0  0  0  0  0  0  0  0  0
  148.6431  134.0715  157.2162 H   0  0  0  0  0  0  0  0  0  0  0  0
  149.2035  131.8752  156.1940 H   0  0  0  0  0  0  0  0  0  0  0  0
  150.7662  132.4595  155.7082 H   0  0  0  0  0  0  0  0  0  0  0  0
  142.1268  133.0470  149.7195 H   0  0  0  0  0  0  0  0  0  0  0  0
  1  2  1  0  0  0  0
  1 21  1  0  0  0  0
  1 22  1  0  0  0  0
  1 23  1  0  0  0  0
  2  3  1  0  0  0  0
  2  9  1  0  0  0  0
  2 24  1  0  0  0  0
  3  4  1  0  0  0  0
  3 25  1  0  0  0  0
  3 26  1  0  0  0  0
  4  8  1  0  0  0  0
  4  5  1  0  0  0  0
  5  6  2  0  0  0  0
  5 27  1  0  0  0  0
  6  7  1  0  0  0  0
  6 28  1  0  0  0  0
  7  8  2  0  0  0  0
  7 42  1  0  0  0  0
  8 29  1  0  0  0  0
  9 10  1  0  0  0  0
  9 30  1  0  0  0  0
 10 11  2  0  0  0  0
 10 12  1  0  0  0  0
 12 20  1  0  0  0  0
 12 13  1  0  0  0  0
 13 14  1  0  0  0  0
 13 31  1  0  0  0  0
 13 32  1  0  0  0  0
 14 15  1  0  0  0  0
 14 33  1  0  0  0  0
 14 34  1  0  0  0  0
 15 16  1  0  0  0  0
 15 19  1  0  0  0  0
 15 35  1  0  0  0  0
 16 17  1  0  0  0  0
 16 18  2  0  0  0  0
 17 36  1  0  0  0  0
 17 37  1  0  0  0  0
 19 20  1  0  0  0  0
 19 38  1  0  0  0  0
 19 39  1  0  0  0  0
 20 40  1  0  0  0  0
 20 41  1  0  0  0  0
M  CHG  1   7   1
M  END
> <s_m_source_file>
AV-unprocessed.smi

> <i_m_source_file_index>
3342

> <i_lp_mmshare_version>
43012

> <i_f3d_flags>
0

> <s_epik_input>
W2NIXTFuW2NIXVtjSF1uMVtDSDJdW0NAQEhdKFtDSDNdKVtOSF1DKD1PKU4yW0NIMl1bQ0gyXVtDSF0oQyg9TylbTkgyXSlbQ0gyXVtDSDJdMg==

> <s_epik_cmdline>
J2VwaWtfcHl0aG9uJywgJy1waCcsICc3LjAnLCAnLXRuJywgJzgnLCAnLW1hJywgJzIwMCcsICctbWV0YWxfYmluZGluZycsICctaW1hZScsICc8aW5maWxlLm1hZT4nLCAnLW9tYWUnLCAnPG91dGZpbGUubWFlPic=

> <r_lp_tautomer_probability>
1

> <r_epik_Ionization_Penalty>
0.254015

> <r_epik_Ionization_Penalty_Charging>
0

> <r_epik_Ionization_Penalty_Neutral>
0.254015

> <r_epik_State_Penalty>
0.245417

> <r_epik_Charging_Adjusted_Penalty>
0.245417

> <i_epik_Tot_Q>
1

> <i_epik_Tot_abs_Q>
1

> <r_epik_Metal_State_Penalty>
0.535589

> <b_epik_Metal_Only>
0

> <s_lp_Force_Field>
OPLS_2005

> <r_lp_Energy>
31.4878

> <b_lp_Chiralities_Consistent>
1

> <s_lp_Variant>
AV-unprocessed.smi:3342-2

> <Gold.Version>
5.8.1

> <Gold.Id.Protein>
6NUR|6NUR_protein|mol2

> <Gold.PLP.Fitness>
40.2464

> <Gold.PLP.PLP>
-29.0407

> <Gold.PLP.part.hbond>
-3.0000

> <Gold.PLP.part.metal>
0.0000

> <Gold.PLP.part.buried>
-1.4504

> <Gold.PLP.part.nonpolar>
-23.8441

> <Gold.PLP.part.repulsive>
0.1673

> <Gold.PLP.ligand.clash>
0.0000

> <Gold.PLP.ligand.torsion>
0.4119

> <Gold.PLP.Chemscore.Hbond>
3.9840

> <Gold.PLP.Chemscore.CHOScore>
0.0000

> <Gold.PLP.Chemscore.Metal>
0.0000

> <Gold.Chemscore.Hbonds>
donor molecule, donor type, donor heavy atom, donor atom, acceptor molecule, acceptor atom, score
      L1  H     7    42       P1 10186  1.73
      L1  H     9    30       P1  7948  0.76
      P1  H  6896  6908       L1    18  1.00

> <Gold.PLP.Chemscore.Internal.Correction>
0.0775

> <Gold.Rescore>
     Score         DG    S(hbond)    S(metal)    S(lipo)     H(rot)  DE(clash)    DE(int)     intcor
     13.76     -15.72       2.68        0.00      62.16       2.34       0.27       1.70       ----

> <Gold.Chemscore.Fitness>
13.7593

> <Gold.Chemscore.DG>
-15.7222

> <Gold.Chemscore.ZeroCoef>
-5.4800

> <Gold.Chemscore.Hbond>
2.6828

> <Gold.Chemscore.Metal>
0.0000

> <Gold.Chemscore.Lipo>
62.1551

> <Gold.Chemscore.Internal_Hbond>
0.0000

> <Gold.Chemscore.DEClash>
0.2669

> <Gold.Chemscore.DEInternal>
1.6960

> <Gold.Chemscore.Rot>
2.3400

> <Gold.Chemscore.Internal.Correction>
   9.000000E+99

> <Gold.Chemscore.Hbonds>
donor molecule, donor type, donor heavy atom, donor atom, acceptor molecule, acceptor atom, score
      L1  H     7    42       P1 10186  0.85
      L1  H     9    30       P1  7948  0.65
      P1  H  6896  6908       L1    18  0.30

> <Gold.Chemscore.Hbond.Weighted>
-8.9604

> <Gold.Chemscore.Metal.Weighted>
-0.0000

> <Gold.Chemscore.Lipo.Weighted>
-7.2722

> <Gold.Chemscore.Internal_Hbond.Weighted>
0.0000

> <Gold.Chemscore.DEClash.Weighted>
0.2669

> <Gold.Chemscore.DEInternal.Weighted>
1.6960

> <Gold.Chemscore.Rot.Weighted>
5.9904

> <Gold.Chemscore.Internal.Correction.Weighted>
   9.000000E+99

> <Gold.Protein.RotatedTorsions>
[ 6907 6896 6895 6894 ] final -178.80 input  -60.11 | X-H torsion
[ 7974 7965 7964 7962 ] final  175.05 input  175.53 | X-H torsion
[ 8008 7997 7996 7995 ] final -178.23 input   59.86 | X-H torsion
[ 10167 10162 10161 10158 ] final  -47.90 input  -65.29 | X-H torsion
[ 10718 10713 10712 10709 ] final -127.94 input   66.30 | X-H torsion
[ 10763 10752 10751 10750 ] final -146.45 input  -60.55 | X-H torsion
[ 11005 11000 10999 10996 ] final   54.89 input  -57.11 | X-H torsion

> <Gold.Protein.ActiveResidues>
 VAL166  LYS551  ARG553  GLY616  TRP617  ASP618  TYR619  PRO620  LYS621  CYS622 
 ASP623  PHE694  ASN695  SER759  ASP760  ASP761  ALA762  ILE779  LEU786  VAL792 
 PHE793  MET794  SER795  GLU796  ALA797  LYS798  CYS799  TRP800  GLU811  SER814 

> <Gold.Protein.RotatedAtoms>
  151.6430  133.3325  159.3134 H   0  0  0  0  0  0  0  0  0  0  0  0  # atno 6907 bound_to 6896
  150.7998  134.7088  159.6601 H   0  0  0  0  0  0  0  0  0  0  0  0  # atno 6908 bound_to 6896
  152.4089  134.6163  160.0090 H   0  0  0  0  0  0  0  0  0  0  0  0  # atno 6909 bound_to 6896
  144.7209  139.9888  143.6439 H   0  0  0  0  0  0  0  0  0  0  0  0  # atno 7974 bound_to 7965
  156.0163  140.1251  157.0403 H   0  0  0  0  0  0  0  0  0  0  0  0  # atno 8008 bound_to 7997
  154.4294  140.1077  156.5970 H   0  0  0  0  0  0  0  0  0  0  0  0  # atno 8009 bound_to 7997
  155.6008  140.3470  155.4595 H   0  0  0  0  0  0  0  0  0  0  0  0  # atno 8010 bound_to 7997
  140.6755  143.2763  151.3993 H   0  0  0  0  0  0  0  0  0  0  0  0  # atno 10167 bound_to 10162
  156.1904  130.6791  151.0417 H   0  0  0  0  0  0  0  0  0  0  0  0  # atno 10718 bound_to 10713
  154.8335  135.3386  154.6663 H   0  0  0  0  0  0  0  0  0  0  0  0  # atno 10763 bound_to 10752
  153.7281  135.6954  153.5000 H   0  0  0  0  0  0  0  0  0  0  0  0  # atno 10764 bound_to 10752
  153.2332  135.4409  155.0570 H   0  0  0  0  0  0  0  0  0  0  0  0  # atno 10765 bound_to 10752
  140.0650  134.5549  155.9109 H   0  0  0  0  0  0  0  0  0  0  0  0  # atno 11005 bound_to 11000
  146.0428  139.3438  143.0687 LP  0  0  0  0  0  0  0  0  0  0  0  0  # atno 17320 bound_to 7965
  145.8313  140.9629  143.0847 LP  0  0  0  0  0  0  0  0  0  0  0  0  # atno 17321 bound_to 7965
  139.6045  144.1227  152.2234 LP  0  0  0  0  0  0  0  0  0  0  0  0  # atno 17342 bound_to 10162
  140.0621  144.5848  150.7255 LP  0  0  0  0  0  0  0  0  0  0  0  0  # atno 17343 bound_to 10162
  157.6925  131.0805  150.7065 LP  0  0  0  0  0  0  0  0  0  0  0  0  # atno 17370 bound_to 10713
  156.7121  130.4655  149.5544 LP  0  0  0  0  0  0  0  0  0  0  0  0  # atno 17371 bound_to 10713
  141.1989  133.6604  156.5815 LP  0  0  0  0  0  0  0  0  0  0  0  0  # atno 17394 bound_to 11000
  140.3713  134.7603  157.4600 LP  0  0  0  0  0  0  0  0  0  0  0  0  # atno 17395 bound_to 11000

$$$$
