AV-unprocessed.smi:3290|AV-procd|sdf|12616|dock1
  -GOLD-   2272018543D 1   1.00000     0.00000
 Structure written by MMmdl.
 43 44  0  0  0  0  0  0  0  0  2 V2000
  151.5888  145.8411  160.0750 C   0  0  0  0  0  0  0  0  0  0  0  0
  152.3396  144.4992  160.0650 C   0  0  1  0  0  0  0  0  0  0  0  0
  152.2820  143.8083  161.4439 C   0  0  0  0  0  0  0  0  0  0  0  0
  153.1243  142.5235  161.4694 C   0  0  0  0  0  0  0  0  0  0  0  0
  152.7262  141.5673  160.3364 C   0  0  0  0  0  0  0  0  0  0  0  0
  152.7987  142.2684  158.9695 C   0  0  0  0  0  0  0  0  0  0  0  0
  151.9219  143.5391  158.9131 C   0  0  1  0  0  0  0  0  0  0  0  0
  150.4180  143.1712  158.8756 C   0  0  0  0  0  0  0  0  0  0  0  0
  149.9269  142.9719  157.4976 N   0  3  0  0  0  0  0  0  0  0  0  0
  150.7876  142.1054  156.6678 C   0  0  0  0  0  0  0  0  0  0  0  0
  149.9531  141.2167  155.7293 C   0  0  1  0  0  0  0  0  0  0  0  0
  149.5287  141.9921  154.6252 O   0  0  0  0  0  0  0  0  0  0  0  0
  150.7388  139.9920  155.2878 C   0  0  0  0  0  0  0  0  0  0  0  0
  152.0940  139.8230  155.6467 C   0  0  0  0  0  0  0  0  0  0  0  0
  152.7665  138.6632  155.2123 C   0  0  0  0  0  0  0  0  0  0  0  0
  152.1793  137.7003  154.4704 N   0  0  0  0  0  0  0  0  0  0  0  0
  150.8829  137.8657  154.1318 C   0  0  0  0  0  0  0  0  0  0  0  0
  150.1204  138.9876  154.5143 C   0  0  0  0  0  0  0  0  0  0  0  0
  150.5465  145.7195  160.3692 H   0  0  0  0  0  0  0  0  0  0  0  0
  151.6137  146.3161  159.0941 H   0  0  0  0  0  0  0  0  0  0  0  0
  152.0442  146.5332  160.7842 H   0  0  0  0  0  0  0  0  0  0  0  0
  153.3870  144.7499  159.8877 H   0  0  0  0  0  0  0  0  0  0  0  0
  152.6462  144.4890  162.2144 H   0  0  0  0  0  0  0  0  0  0  0  0
  151.2506  143.5774  161.7102 H   0  0  0  0  0  0  0  0  0  0  0  0
  154.1801  142.7800  161.3732 H   0  0  0  0  0  0  0  0  0  0  0  0
  153.0151  142.0255  162.4333 H   0  0  0  0  0  0  0  0  0  0  0  0
  153.3833  140.6972  160.3407 H   0  0  0  0  0  0  0  0  0  0  0  0
  151.7180  141.1895  160.5094 H   0  0  0  0  0  0  0  0  0  0  0  0
  153.8359  142.5389  158.7657 H   0  0  0  0  0  0  0  0  0  0  0  0
  152.5139  141.5730  158.1792 H   0  0  0  0  0  0  0  0  0  0  0  0
  152.1568  144.0298  157.9670 H   0  0  0  0  0  0  0  0  0  0  0  0
  150.2522  142.2367  159.4132 H   0  0  0  0  0  0  0  0  0  0  0  0
  149.8155  143.9274  159.3784 H   0  0  0  0  0  0  0  0  0  0  0  0
  149.0073  142.5568  157.5442 H   0  0  0  0  0  0  0  0  0  0  0  0
  151.4842  142.7194  156.0946 H   0  0  0  0  0  0  0  0  0  0  0  0
  151.3850  141.4782  157.3311 H   0  0  0  0  0  0  0  0  0  0  0  0
  149.0573  140.8805  156.2538 H   0  0  0  0  0  0  0  0  0  0  0  0
  149.5487  142.9040  154.8747 H   0  0  0  0  0  0  0  0  0  0  0  0
  152.6108  140.5617  156.2420 H   0  0  0  0  0  0  0  0  0  0  0  0
  153.8031  138.5038  155.4699 H   0  0  0  0  0  0  0  0  0  0  0  0
  150.4382  137.0795  153.5398 H   0  0  0  0  0  0  0  0  0  0  0  0
  149.0851  139.0690  154.2177 H   0  0  0  0  0  0  0  0  0  0  0  0
  149.8513  143.8729  157.0467 H   0  0  0  0  0  0  0  0  0  0  0  0
  1  2  1  0  0  0  0
  1 19  1  0  0  0  0
  1 20  1  0  0  0  0
  1 21  1  0  0  0  0
  2  7  1  0  0  0  0
  2  3  1  0  0  0  0
  2 22  1  0  0  0  0
  3  4  1  0  0  0  0
  3 23  1  0  0  0  0
  3 24  1  0  0  0  0
  4  5  1  0  0  0  0
  4 25  1  0  0  0  0
  4 26  1  0  0  0  0
  5  6  1  0  0  0  0
  5 27  1  0  0  0  0
  5 28  1  0  0  0  0
  6  7  1  0  0  0  0
  6 29  1  0  0  0  0
  6 30  1  0  0  0  0
  7  8  1  0  0  0  0
  7 31  1  0  0  0  0
  8  9  1  0  0  0  0
  8 32  1  0  0  0  0
  8 33  1  0  0  0  0
  9 10  1  0  0  0  0
  9 34  1  0  0  0  0
  9 43  1  0  0  0  0
 10 11  1  0  0  0  0
 10 35  1  0  0  0  0
 10 36  1  0  0  0  0
 11 12  1  0  0  0  0
 11 13  1  0  0  0  0
 11 37  1  0  0  0  0
 12 38  1  0  0  0  0
 13 18  1  0  0  0  0
 13 14  2  0  0  0  0
 14 15  1  0  0  0  0
 14 39  1  0  0  0  0
 15 16  2  0  0  0  0
 15 40  1  0  0  0  0
 16 17  1  0  0  0  0
 17 18  2  0  0  0  0
 17 41  1  0  0  0  0
 18 42  1  0  0  0  0
M  CHG  1   9   1
M  END
> <s_m_source_file>
AV-unprocessed.smi

> <i_m_source_file_index>
3290

> <i_lp_mmshare_version>
43012

> <i_f3d_flags>
0

> <s_epik_input>
W0NIM11bQ0BASF0xW0NIMl1bQ0gyXVtDSDJdW0NIMl1bQ0BIXTFbQ0gyXVtOSF1bQ0gyXVtDQEhdKFtPSF0pYzJbY0hdW2NIXW5bY0hdW2NIXTI=

> <s_epik_cmdline>
J2VwaWtfcHl0aG9uJywgJy1waCcsICc3LjAnLCAnLXRuJywgJzgnLCAnLW1hJywgJzIwMCcsICctbWV0YWxfYmluZGluZycsICctaW1hZScsICc8aW5maWxlLm1hZT4nLCAnLW9tYWUnLCAnPG91dGZpbGUubWFlPic=

> <r_lp_tautomer_probability>
1

> <r_epik_Ionization_Penalty>
0.00420552

> <r_epik_Ionization_Penalty_Charging>
0.00207255

> <r_epik_Ionization_Penalty_Neutral>
0.00213297

> <r_epik_State_Penalty>
-0

> <r_epik_Charging_Adjusted_Penalty>
0.00207255

> <i_epik_Tot_Q>
1

> <i_epik_Tot_abs_Q>
1

> <r_epik_Metal_State_Penalty>
-0

> <b_epik_Metal_Only>
0

> <s_lp_Force_Field>
OPLS_2005

> <r_lp_Energy>
19.3007

> <b_lp_Chiralities_Consistent>
1

> <s_lp_Variant>
AV-unprocessed.smi:3290-6

> <Gold.Version>
5.8.1

> <Gold.Id.Protein>
6NUR|6NUR_protein|mol2

> <Gold.PLP.Fitness>
61.3515

> <Gold.PLP.PLP>
-50.5938

> <Gold.PLP.part.hbond>
-4.6941

> <Gold.PLP.part.metal>
0.0000

> <Gold.PLP.part.buried>
-0.9221

> <Gold.PLP.part.nonpolar>
-44.1001

> <Gold.PLP.part.repulsive>
0.1389

> <Gold.PLP.ligand.clash>
0.0000

> <Gold.PLP.ligand.torsion>
0.9093

> <Gold.PLP.Chemscore.Hbond>
3.1053

> <Gold.PLP.Chemscore.CHOScore>
1.0381

> <Gold.PLP.Chemscore.Metal>
0.0000

> <Gold.Chemscore.Hbonds>
donor molecule, donor type, donor heavy atom, donor atom, acceptor molecule, acceptor atom, score
      L1  H     9    43       P1  8028  1.63
      L1  H    12    38       P1  8028  0.89
      P1  H  8011  8017       L1    12  0.05
      P1  H 10752 10763       L1    16  0.47
      L1  C    17    41       P1  7948  0.61
      L1  C    17    41       P1  7949  0.41

> <Gold.PLP.Chemscore.Internal.Correction>
0.1462

> <Gold.Rescore>
     Score         DG    S(hbond)    S(metal)    S(lipo)     H(rot)  DE(clash)    DE(int)     intcor
     22.62     -23.83       2.14        0.00     140.60       2.05       0.19       1.01       ----

> <Gold.Chemscore.Fitness>
22.6213

> <Gold.Chemscore.DG>
-23.8270

> <Gold.Chemscore.ZeroCoef>
-5.4800

> <Gold.Chemscore.Hbond>
2.1390

> <Gold.Chemscore.Metal>
0.0000

> <Gold.Chemscore.Lipo>
140.6016

> <Gold.Chemscore.Internal_Hbond>
0.0000

> <Gold.Chemscore.DEClash>
0.1917

> <Gold.Chemscore.DEInternal>
1.0140

> <Gold.Chemscore.Rot>
2.0498

> <Gold.Chemscore.Internal.Correction>
   9.000000E+99

> <Gold.Chemscore.Hbonds>
donor molecule, donor type, donor heavy atom, donor atom, acceptor molecule, acceptor atom, score
      L1  H     9    43       P1  8028  0.75
      L1  H    12    38       P1  8028  0.85
      P1  H  8011  8017       L1    12  0.01
      P1  H 10752 10763       L1    16  0.44

> <Gold.Chemscore.Hbond.Weighted>
-7.1441

> <Gold.Chemscore.Metal.Weighted>
-0.0000

> <Gold.Chemscore.Lipo.Weighted>
-16.4504

> <Gold.Chemscore.Internal_Hbond.Weighted>
0.0000

> <Gold.Chemscore.DEClash.Weighted>
0.1917

> <Gold.Chemscore.DEInternal.Weighted>
1.0140

> <Gold.Chemscore.Rot.Weighted>
5.2475

> <Gold.Chemscore.Internal.Correction.Weighted>
   9.000000E+99

> <Gold.Protein.RotatedTorsions>
[ 6907 6896 6895 6894 ] final  -41.52 input  -60.11 | X-H torsion
[ 7974 7965 7964 7962 ] final   30.25 input  175.53 | X-H torsion
[ 8008 7997 7996 7995 ] final  -48.80 input   59.86 | X-H torsion
[ 10167 10162 10161 10158 ] final   18.37 input  -65.29 | X-H torsion
[ 10718 10713 10712 10709 ] final  -83.24 input   66.30 | X-H torsion
[ 10763 10752 10751 10750 ] final   40.95 input  -60.55 | X-H torsion
[ 11005 11000 10999 10996 ] final   -0.89 input  -57.11 | X-H torsion

> <Gold.Protein.ActiveResidues>
 VAL166  LYS551  ARG553  GLY616  TRP617  ASP618  TYR619  PRO620  LYS621  CYS622 
 ASP623  PHE694  ASN695  SER759  ASP760  ASP761  ALA762  ILE779  LEU786  VAL792 
 PHE793  MET794  SER795  GLU796  ALA797  LYS798  CYS799  TRP800  GLU811  SER814 

> <Gold.Protein.RotatedAtoms>
  150.9657  134.9038  159.7757 H   0  0  0  0  0  0  0  0  0  0  0  0  # atno 6907 bound_to 6896
  152.5172  134.3610  159.9295 H   0  0  0  0  0  0  0  0  0  0  0  0  # atno 6908 bound_to 6896
  151.3621  133.3845  159.2725 H   0  0  0  0  0  0  0  0  0  0  0  0  # atno 6909 bound_to 6896
  146.1623  139.6813  142.9025 H   0  0  0  0  0  0  0  0  0  0  0  0  # atno 7974 bound_to 7965
  154.4034  140.1312  156.4398 H   0  0  0  0  0  0  0  0  0  0  0  0  # atno 8008 bound_to 7997
  155.7470  140.3489  155.5111 H   0  0  0  0  0  0  0  0  0  0  0  0  # atno 8009 bound_to 7997
  155.8986  140.1015  157.1357 H   0  0  0  0  0  0  0  0  0  0  0  0  # atno 8010 bound_to 7997
  140.5658  143.9253  150.6675 H   0  0  0  0  0  0  0  0  0  0  0  0  # atno 10167 bound_to 10162
  156.0021  130.4659  150.4227 H   0  0  0  0  0  0  0  0  0  0  0  0  # atno 10718 bound_to 10713
  152.9922  135.6176  154.2708 H   0  0  0  0  0  0  0  0  0  0  0  0  # atno 10763 bound_to 10752
  154.2441  135.2787  155.2844 H   0  0  0  0  0  0  0  0  0  0  0  0  # atno 10764 bound_to 10752
  154.5344  135.5779  153.6844 H   0  0  0  0  0  0  0  0  0  0  0  0  # atno 10765 bound_to 10752
  140.6413  133.9487  155.8327 H   0  0  0  0  0  0  0  0  0  0  0  0  # atno 11005 bound_to 11000
  145.4557  141.0430  143.2779 LP  0  0  0  0  0  0  0  0  0  0  0  0  # atno 17320 bound_to 7965
  144.8044  139.6080  143.7057 LP  0  0  0  0  0  0  0  0  0  0  0  0  # atno 17321 bound_to 7965
  140.2716  143.3452  152.1233 LP  0  0  0  0  0  0  0  0  0  0  0  0  # atno 17342 bound_to 10162
  139.5092  144.6863  151.5878 LP  0  0  0  0  0  0  0  0  0  0  0  0  # atno 17343 bound_to 10162
  157.2282  131.0498  151.2508 LP  0  0  0  0  0  0  0  0  0  0  0  0  # atno 17370 bound_to 10713
  157.3736  130.7194  149.6582 LP  0  0  0  0  0  0  0  0  0  0  0  0  # atno 17371 bound_to 10713
  141.0605  134.0353  157.3665 LP  0  0  0  0  0  0  0  0  0  0  0  0  # atno 17394 bound_to 11000
  139.9079  135.0184  156.7567 LP  0  0  0  0  0  0  0  0  0  0  0  0  # atno 17395 bound_to 11000

$$$$
