AV-unprocessed.smi:856|AV-procd|sdf|3959|dock7
  -GOLD-   22720 1433D 1   1.00000     0.00000
 Structure written by MMmdl.
 42 44  0  0  0  0  0  0  0  0  1 V2000
  153.6521  141.7505  162.1900 C   0  0  0  0  0  0  0  0  0  0  0  0
  153.0033  141.7743  160.8658 N   0  0  0  0  0  0  0  0  0  0  0  0
  153.0977  140.6587  160.0758 C   0  0  0  0  0  0  0  0  0  0  0  0
  153.6915  139.6259  160.3875 O   0  0  0  0  0  0  0  0  0  0  0  0
  152.4139  140.7857  158.7832 C   0  0  0  0  0  0  0  0  0  0  0  0
  151.7511  141.9070  158.4063 C   0  0  0  0  0  0  0  0  0  0  0  0
  151.1913  141.7611  157.1416 N   0  0  0  0  0  0  0  0  0  0  0  0
  151.5559  140.5211  156.8158 C   0  0  0  0  0  0  0  0  0  0  0  0
  152.2874  139.8673  157.7406 N   0  0  0  0  0  0  0  0  0  0  0  0
  152.7970  138.5088  157.6210 C   0  0  0  0  0  0  0  0  0  0  0  0
  152.2255  137.5623  158.6959 C   0  0  2  0  0  0  0  0  0  0  0  0
  152.4166  136.2200  158.2940 O   0  0  0  0  0  0  0  0  0  0  0  0
  150.7222  137.7889  158.9131 C   0  0  0  0  0  0  0  0  0  0  0  0
  150.2296  136.7911  159.7981 O   0  0  0  0  0  0  0  0  0  0  0  0
  148.9635  136.2593  159.4308 C   0  0  0  0  0  0  0  0  0  0  0  0
  148.1911  135.9818  160.6806 C   0  0  0  0  0  0  0  0  0  0  0  0
  147.8038  134.8314  161.3107 C   0  0  0  0  0  0  0  0  0  0  0  0
  147.0780  135.2322  162.4663 C   0  0  0  0  0  0  0  0  0  0  0  0
  147.0773  136.5980  162.4555 C   0  0  0  0  0  0  0  0  0  0  0  0
  147.7534  137.0713  161.3734 O   0  0  0  0  0  0  0  0  0  0  0  0
  151.7186  143.0068  159.3021 N   0  0  0  0  0  0  0  0  0  0  0  0
  151.0091  144.2274  158.9088 C   0  0  0  0  0  0  0  0  0  0  0  0
  152.3363  142.9384  160.5257 C   0  0  0  0  0  0  0  0  0  0  0  0
  152.2929  143.8990  161.3000 O   0  0  0  0  0  0  0  0  0  0  0  0
  154.2085  140.8395  162.4127 H   0  0  0  0  0  0  0  0  0  0  0  0
  152.9060  141.8614  162.9786 H   0  0  0  0  0  0  0  0  0  0  0  0
  154.3630  142.5734  162.2833 H   0  0  0  0  0  0  0  0  0  0  0  0
  151.2793  140.0713  155.8735 H   0  0  0  0  0  0  0  0  0  0  0  0
  152.5304  138.1395  156.6298 H   0  0  0  0  0  0  0  0  0  0  0  0
  153.8856  138.5216  157.6476 H   0  0  0  0  0  0  0  0  0  0  0  0
  152.7601  137.7280  159.6324 H   0  0  0  0  0  0  0  0  0  0  0  0
  153.2701  136.1469  157.8945 H   0  0  0  0  0  0  0  0  0  0  0  0
  150.5615  138.7632  159.3769 H   0  0  0  0  0  0  0  0  0  0  0  0
  150.1904  137.7955  157.9602 H   0  0  0  0  0  0  0  0  0  0  0  0
  148.4349  137.0014  158.8324 H   0  0  0  0  0  0  0  0  0  0  0  0
  149.0690  135.3652  158.8144 H   0  0  0  0  0  0  0  0  0  0  0  0
  148.0150  133.8259  160.9782 H   0  0  0  0  0  0  0  0  0  0  0  0
  146.6146  134.6017  163.2109 H   0  0  0  0  0  0  0  0  0  0  0  0
  146.6643  137.3533  163.1078 H   0  0  0  0  0  0  0  0  0  0  0  0
  151.6907  145.0792  158.8990 H   0  0  0  0  0  0  0  0  0  0  0  0
  150.2022  144.4442  159.6105 H   0  0  0  0  0  0  0  0  0  0  0  0
  150.5655  144.1578  157.9156 H   0  0  0  0  0  0  0  0  0  0  0  0
  1  2  1  0  0  0  0
  1 25  1  0  0  0  0
  1 26  1  0  0  0  0
  1 27  1  0  0  0  0
  2 23  1  0  0  0  0
  2  3  1  0  0  0  0
  3  4  2  0  0  0  0
  3  5  1  0  0  0  0
  5  9  1  0  0  0  0
  5  6  2  0  0  0  0
  6  7  1  0  0  0  0
  6 21  1  0  0  0  0
  7  8  2  0  0  0  0
  8  9  1  0  0  0  0
  8 28  1  0  0  0  0
  9 10  1  0  0  0  0
 10 11  1  0  0  0  0
 10 29  1  0  0  0  0
 10 30  1  0  0  0  0
 11 12  1  0  0  0  0
 11 13  1  0  0  0  0
 11 31  1  0  0  0  0
 12 32  1  0  0  0  0
 13 14  1  0  0  0  0
 13 33  1  0  0  0  0
 13 34  1  0  0  0  0
 14 15  1  0  0  0  0
 15 16  1  0  0  0  0
 15 35  1  0  0  0  0
 15 36  1  0  0  0  0
 16 20  1  0  0  0  0
 16 17  2  0  0  0  0
 17 18  1  0  0  0  0
 17 37  1  0  0  0  0
 18 19  2  0  0  0  0
 18 38  1  0  0  0  0
 19 20  1  0  0  0  0
 19 39  1  0  0  0  0
 21 22  1  0  0  0  0
 21 23  1  0  0  0  0
 22 40  1  0  0  0  0
 22 41  1  0  0  0  0
 22 42  1  0  0  0  0
 23 24  2  0  0  0  0
M  END
> <s_m_source_file>
AV-unprocessed.smi

> <i_m_source_file_index>
856

> <i_lp_mmshare_version>
43012

> <i_f3d_flags>
0

> <s_epik_input>
Tz1jMW4oW0NIM10pYyg9TyluKFtDSDNdKWMoYzEyKW5bY0hdbjJbQ0gyXVtDQEhdKFtPSF0pW0NIMl1PW0NIMl1jM1tjSF1bY0hdW2NIXW8z

> <s_epik_cmdline>
J2VwaWtfcHl0aG9uJywgJy1waCcsICc3LjAnLCAnLXRuJywgJzgnLCAnLW1hJywgJzIwMCcsICctbWV0YWxfYmluZGluZycsICctaW1hZScsICc8aW5maWxlLm1hZT4nLCAnLW9tYWUnLCAnPG91dGZpbGUubWFlPic=

> <r_lp_tautomer_probability>
1

> <r_epik_Ionization_Penalty>
1.33189e-06

> <r_epik_Ionization_Penalty_Charging>
3.64616e-09

> <r_epik_Ionization_Penalty_Neutral>
1.32824e-06

> <r_epik_State_Penalty>
-0

> <r_epik_Charging_Adjusted_Penalty>
3.64616e-09

> <i_epik_Tot_Q>
0

> <i_epik_Tot_abs_Q>
0

> <r_epik_Metal_State_Penalty>
-0

> <b_epik_Metal_Only>
0

> <s_lp_Force_Field>
OPLS_2005

> <r_lp_Energy>
33.5677

> <b_lp_Chiralities_Consistent>
1

> <s_lp_Variant>
AV-unprocessed.smi:856-1

> <Gold.Version>
5.8.1

> <Gold.Id.Protein>
6NUR|6NUR_protein|mol2

> <Gold.PLP.Fitness>
58.1055

> <Gold.PLP.PLP>
-51.4524

> <Gold.PLP.part.hbond>
-4.1786

> <Gold.PLP.part.metal>
0.0000

> <Gold.PLP.part.buried>
-6.4788

> <Gold.PLP.part.nonpolar>
-40.9013

> <Gold.PLP.part.repulsive>
0.1641

> <Gold.PLP.ligand.clash>
0.0000

> <Gold.PLP.ligand.torsion>
0.8194

> <Gold.PLP.Chemscore.Hbond>
2.7433

> <Gold.PLP.Chemscore.CHOScore>
0.0000

> <Gold.PLP.Chemscore.Metal>
0.0000

> <Gold.Chemscore.Hbonds>
donor molecule, donor type, donor heavy atom, donor atom, acceptor molecule, acceptor atom, score
      P1  H  6896  6908       L1    14  0.70
      P1  H  6931  6943       L1    20  1.00
      P1  H  6934  6947       L1    20  0.72

> <Gold.PLP.Chemscore.Internal.Correction>
0.0621

> <Gold.Rescore>
     Score         DG    S(hbond)    S(metal)    S(lipo)     H(rot)  DE(clash)    DE(int)     intcor
     12.40     -14.12       2.32        0.00      76.62       3.16       0.00       1.71       ----

> <Gold.Chemscore.Fitness>
12.4029

> <Gold.Chemscore.DG>
-14.1150

> <Gold.Chemscore.ZeroCoef>
-5.4800

> <Gold.Chemscore.Hbond>
2.3234

> <Gold.Chemscore.Metal>
0.0000

> <Gold.Chemscore.Lipo>
76.6162

> <Gold.Chemscore.Internal_Hbond>
0.0000

> <Gold.Chemscore.DEClash>
0.0000

> <Gold.Chemscore.DEInternal>
1.7121

> <Gold.Chemscore.Rot>
3.1599

> <Gold.Chemscore.Internal.Correction>
   9.000000E+99

> <Gold.Chemscore.Hbonds>
donor molecule, donor type, donor heavy atom, donor atom, acceptor molecule, acceptor atom, score
      P1  H  6896  6908       L1    14  0.07
      P1  H  6931  6943       L1    20  0.67
      P1  H  6934  6947       L1    20  0.53

> <Gold.Chemscore.Hbond.Weighted>
-7.7602

> <Gold.Chemscore.Metal.Weighted>
-0.0000

> <Gold.Chemscore.Lipo.Weighted>
-8.9641

> <Gold.Chemscore.Internal_Hbond.Weighted>
0.0000

> <Gold.Chemscore.DEClash.Weighted>
0.0000

> <Gold.Chemscore.DEInternal.Weighted>
1.7121

> <Gold.Chemscore.Rot.Weighted>
8.0893

> <Gold.Chemscore.Internal.Correction.Weighted>
   9.000000E+99

> <Gold.Protein.RotatedTorsions>
[ 6907 6896 6895 6894 ] final -148.79 input  -60.11 | X-H torsion
[ 7974 7965 7964 7962 ] final  -17.57 input  175.53 | X-H torsion
[ 8008 7997 7996 7995 ] final  125.44 input   59.86 | X-H torsion
[ 10167 10162 10161 10158 ] final  -44.50 input  -65.29 | X-H torsion
[ 10718 10713 10712 10709 ] final   79.11 input   66.30 | X-H torsion
[ 10763 10752 10751 10750 ] final  -84.40 input  -60.55 | X-H torsion
[ 11005 11000 10999 10996 ] final  150.99 input  -57.11 | X-H torsion

> <Gold.Protein.ActiveResidues>
 VAL166  LYS551  ARG553  GLY616  TRP617  ASP618  TYR619  PRO620  LYS621  CYS622 
 ASP623  PHE694  ASN695  SER759  ASP760  ASP761  ALA762  ILE779  LEU786  VAL792 
 PHE793  MET794  SER795  GLU796  ALA797  LYS798  CYS799  TRP800  GLU811  SER814 

> <Gold.Protein.RotatedAtoms>
  151.1748  133.4761  159.2593 H   0  0  0  0  0  0  0  0  0  0  0  0  # atno 6907 bound_to 6896
  151.1319  135.0134  159.8596 H   0  0  0  0  0  0  0  0  0  0  0  0  # atno 6908 bound_to 6896
  152.5460  134.1650  159.8626 H   0  0  0  0  0  0  0  0  0  0  0  0  # atno 6909 bound_to 6896
  146.1935  140.3797  142.8449 H   0  0  0  0  0  0  0  0  0  0  0  0  # atno 7974 bound_to 7965
  156.2834  140.2716  156.1950 H   0  0  0  0  0  0  0  0  0  0  0  0  # atno 8008 bound_to 7997
  155.0419  140.0386  157.2530 H   0  0  0  0  0  0  0  0  0  0  0  0  # atno 8009 bound_to 7997
  154.7267  140.2698  155.6498 H   0  0  0  0  0  0  0  0  0  0  0  0  # atno 8010 bound_to 7997
  140.6894  143.2927  151.3505 H   0  0  0  0  0  0  0  0  0  0  0  0  # atno 10167 bound_to 10162
  157.6766  130.9899  150.1884 H   0  0  0  0  0  0  0  0  0  0  0  0  # atno 10718 bound_to 10713
  154.5990  135.5522  153.7355 H   0  0  0  0  0  0  0  0  0  0  0  0  # atno 10763 bound_to 10752
  153.0147  135.6362  154.1741 H   0  0  0  0  0  0  0  0  0  0  0  0  # atno 10764 bound_to 10752
  154.1681  135.2893  155.3069 H   0  0  0  0  0  0  0  0  0  0  0  0  # atno 10765 bound_to 10752
  140.1180  134.8882  157.2031 H   0  0  0  0  0  0  0  0  0  0  0  0  # atno 11005 bound_to 11000
  144.8533  140.7033  143.6154 LP  0  0  0  0  0  0  0  0  0  0  0  0  # atno 17320 bound_to 7965
  145.3719  139.1657  143.4327 LP  0  0  0  0  0  0  0  0  0  0  0  0  # atno 17321 bound_to 7965
  139.6282  144.0772  152.2453 LP  0  0  0  0  0  0  0  0  0  0  0  0  # atno 17342 bound_to 10162
  140.0238  144.6133  150.7544 LP  0  0  0  0  0  0  0  0  0  0  0  0  # atno 17343 bound_to 10162
  156.2601  130.3710  149.8140 LP  0  0  0  0  0  0  0  0  0  0  0  0  # atno 17370 bound_to 10713
  156.5888  130.8497  151.3402 LP  0  0  0  0  0  0  0  0  0  0  0  0  # atno 17371 bound_to 10713
  140.3003  134.3139  155.7291 LP  0  0  0  0  0  0  0  0  0  0  0  0  # atno 17394 bound_to 11000
  141.2145  133.7588  156.9631 LP  0  0  0  0  0  0  0  0  0  0  0  0  # atno 17395 bound_to 11000

$$$$
