AV-unprocessed.smi:1766|AV-procd|sdf|7138|dock3
  -GOLD-   22720 8373D 1   1.00000     0.00000
 Structure written by MMmdl.
 40 42  0  0  0  0  0  0  0  0  2 V2000
  149.9132  135.8767  154.6430 N   0  0  0  0  0  0  0  0  0  0  0  0
  151.0130  136.4724  155.1109 C   0  0  0  0  0  0  0  0  0  0  0  0
  151.6325  136.0320  156.0778 O   0  0  0  0  0  0  0  0  0  0  0  0
  151.4717  137.7442  154.3894 C   0  0  0  0  0  0  0  0  0  0  0  0
  150.3601  138.7424  154.2747 C   0  0  0  0  0  0  0  0  0  0  0  0
  149.2643  138.6247  153.4720 N   0  3  0  0  0  0  0  0  0  0  0  0
  148.4435  139.7422  153.6240 C   0  0  0  0  0  0  0  0  0  0  0  0
  147.2314  140.0681  153.0234 C   0  0  0  0  0  0  0  0  0  0  0  0
  146.6462  141.2935  153.4031 C   0  0  0  0  0  0  0  0  0  0  0  0
  147.2654  142.1420  154.3431 C   0  0  0  0  0  0  0  0  0  0  0  0
  148.4961  141.8023  154.9417 C   0  0  0  0  0  0  0  0  0  0  0  0
  149.0678  140.5867  154.5648 C   0  0  0  0  0  0  0  0  0  0  0  0
  150.2434  139.9260  154.9454 N   0  0  0  0  0  0  0  0  0  0  0  0
  151.1364  140.5405  155.9422 C   0  0  0  0  0  0  0  0  0  0  0  0
  150.4083  140.8957  157.2549 C   0  0  1  0  0  0  0  0  0  0  0  0
  149.5322  139.8344  157.5725 O   0  0  0  0  0  0  0  0  0  0  0  0
  151.3717  141.2101  158.3910 C   0  0  0  0  0  0  0  0  0  0  0  0
  151.3926  142.4905  158.9871 C   0  0  0  0  0  0  0  0  0  0  0  0
  152.2656  142.7599  160.0591 C   0  0  0  0  0  0  0  0  0  0  0  0
  153.1225  141.7518  160.5407 C   0  0  0  0  0  0  0  0  0  0  0  0
  153.9579  142.0091  161.5747 F   0  0  0  0  0  0  0  0  0  0  0  0
  153.1081  140.4746  159.9485 C   0  0  0  0  0  0  0  0  0  0  0  0
  152.2360  140.2047  158.8764 C   0  0  0  0  0  0  0  0  0  0  0  0
  149.5697  135.0388  155.0906 H   0  0  0  0  0  0  0  0  0  0  0  0
  149.4236  136.2647  153.8495 H   0  0  0  0  0  0  0  0  0  0  0  0
  152.3057  138.2011  154.9238 H   0  0  0  0  0  0  0  0  0  0  0  0
  151.8366  137.4797  153.3972 H   0  0  0  0  0  0  0  0  0  0  0  0
  146.7552  139.4194  152.3029 H   0  0  0  0  0  0  0  0  0  0  0  0
  145.7037  141.5883  152.9649 H   0  0  0  0  0  0  0  0  0  0  0  0
  146.7873  143.0731  154.6110 H   0  0  0  0  0  0  0  0  0  0  0  0
  148.9567  142.4617  155.6618 H   0  0  0  0  0  0  0  0  0  0  0  0
  151.9288  139.8181  156.1424 H   0  0  0  0  0  0  0  0  0  0  0  0
  151.6288  141.4110  155.5088 H   0  0  0  0  0  0  0  0  0  0  0  0
  149.7791  141.7702  157.0868 H   0  0  0  0  0  0  0  0  0  0  0  0
  149.0364  140.0737  158.3407 H   0  0  0  0  0  0  0  0  0  0  0  0
  150.7310  143.2673  158.6320 H   0  0  0  0  0  0  0  0  0  0  0  0
  152.2748  143.7392  160.5143 H   0  0  0  0  0  0  0  0  0  0  0  0
  153.7642  139.7003  160.3182 H   0  0  0  0  0  0  0  0  0  0  0  0
  152.2254  139.2194  158.4342 H   0  0  0  0  0  0  0  0  0  0  0  0
  149.0942  137.8361  152.8612 H   0  0  0  0  0  0  0  0  0  0  0  0
  1  2  1  0  0  0  0
  1 24  1  0  0  0  0
  1 25  1  0  0  0  0
  2  3  2  0  0  0  0
  2  4  1  0  0  0  0
  4  5  1  0  0  0  0
  4 26  1  0  0  0  0
  4 27  1  0  0  0  0
  5 13  1  0  0  0  0
  5  6  2  0  0  0  0
  6  7  1  0  0  0  0
  6 40  1  0  0  0  0
  7 12  2  0  0  0  0
  7  8  1  0  0  0  0
  8  9  2  0  0  0  0
  8 28  1  0  0  0  0
  9 10  1  0  0  0  0
  9 29  1  0  0  0  0
 10 11  2  0  0  0  0
 10 30  1  0  0  0  0
 11 12  1  0  0  0  0
 11 31  1  0  0  0  0
 12 13  1  0  0  0  0
 13 14  1  0  0  0  0
 14 15  1  0  0  0  0
 14 32  1  0  0  0  0
 14 33  1  0  0  0  0
 15 16  1  0  0  0  0
 15 17  1  0  0  0  0
 15 34  1  0  0  0  0
 16 35  1  0  0  0  0
 17 23  1  0  0  0  0
 17 18  2  0  0  0  0
 18 19  1  0  0  0  0
 18 36  1  0  0  0  0
 19 20  2  0  0  0  0
 19 37  1  0  0  0  0
 20 21  1  0  0  0  0
 20 22  1  0  0  0  0
 22 23  2  0  0  0  0
 22 38  1  0  0  0  0
 23 39  1  0  0  0  0
M  CHG  1   6   1
M  END
> <s_m_source_file>
AV-unprocessed.smi

> <i_m_source_file_index>
1766

> <i_lp_mmshare_version>
43012

> <i_f3d_flags>
0

> <s_epik_input>
W2NIXTFbY0hdW2NIXVtjSF1jKGMxMiluKGMobjIpW0NIMl1DKD1PKVtOSDJdKVtDSDJdW0NASF0oW09IXSljM1tjSF1bY0hdYyhGKVtjSF1bY0hdMw==

> <s_epik_cmdline>
J2VwaWtfcHl0aG9uJywgJy1waCcsICc3LjAnLCAnLXRuJywgJzgnLCAnLW1hJywgJzIwMCcsICctbWV0YWxfYmluZGluZycsICctaW1hZScsICc8aW5maWxlLm1hZT4nLCAnLW9tYWUnLCAnPG91dGZpbGUubWFlPic=

> <r_epik_Ionization_Penalty>
1.66646

> <r_epik_Ionization_Penalty_Charging>
1.66645

> <r_epik_Ionization_Penalty_Neutral>
2.12833e-06

> <r_epik_State_Penalty>
1.76975

> <r_epik_Charging_Adjusted_Penalty>
3.43621

> <i_epik_Tot_Q>
1

> <i_epik_Tot_abs_Q>
1

> <r_epik_Metal_State_Penalty>
1.80493

> <b_epik_Metal_Only>
0

> <s_lp_Force_Field>
OPLS_2005

> <r_lp_Energy>
15.5136

> <b_lp_Chiralities_Consistent>
1

> <s_lp_Variant>
AV-unprocessed.smi:1766-4

> <Gold.Version>
5.8.1

> <Gold.Id.Protein>
6NUR|6NUR_protein|mol2

> <Gold.PLP.Fitness>
59.1870

> <Gold.PLP.PLP>
-47.8290

> <Gold.PLP.part.hbond>
-4.0000

> <Gold.PLP.part.metal>
0.0000

> <Gold.PLP.part.buried>
2.4553

> <Gold.PLP.part.nonpolar>
-46.4803

> <Gold.PLP.part.repulsive>
0.1455

> <Gold.PLP.ligand.clash>
0.0000

> <Gold.PLP.ligand.torsion>
0.3368

> <Gold.PLP.Chemscore.Hbond>
3.9920

> <Gold.PLP.Chemscore.CHOScore>
0.0000

> <Gold.PLP.Chemscore.Metal>
0.0000

> <Gold.Chemscore.Hbonds>
donor molecule, donor type, donor heavy atom, donor atom, acceptor molecule, acceptor atom, score
      L1  H     1    25       P1  7948  0.99
      L1  H     6    40       P1  7948  2.00
      P1  H 10752 10765       L1     3  1.00

> <Gold.PLP.Chemscore.Internal.Correction>
0.0556

> <Gold.Rescore>
     Score         DG    S(hbond)    S(metal)    S(lipo)     H(rot)  DE(clash)    DE(int)     intcor
     17.16     -18.34       2.43        0.00     107.08       3.05       0.79       0.40       ----

> <Gold.Chemscore.Fitness>
17.1573

> <Gold.Chemscore.DG>
-18.3395

> <Gold.Chemscore.ZeroCoef>
-5.4800

> <Gold.Chemscore.Hbond>
2.4345

> <Gold.Chemscore.Metal>
0.0000

> <Gold.Chemscore.Lipo>
107.0820

> <Gold.Chemscore.Internal_Hbond>
0.0000

> <Gold.Chemscore.DEClash>
0.7864

> <Gold.Chemscore.DEInternal>
0.3959

> <Gold.Chemscore.Rot>
3.0470

> <Gold.Chemscore.Internal.Correction>
   9.000000E+99

> <Gold.Chemscore.Hbonds>
donor molecule, donor type, donor heavy atom, donor atom, acceptor molecule, acceptor atom, score
      L1  H     1    25       P1  7948  0.69
      L1  H     6    40       P1  7948  0.99
      P1  H 10752 10765       L1     3  0.24

> <Gold.Chemscore.Hbond.Weighted>
-8.1313

> <Gold.Chemscore.Metal.Weighted>
-0.0000

> <Gold.Chemscore.Lipo.Weighted>
-12.5286

> <Gold.Chemscore.Internal_Hbond.Weighted>
0.0000

> <Gold.Chemscore.DEClash.Weighted>
0.7864

> <Gold.Chemscore.DEInternal.Weighted>
0.3959

> <Gold.Chemscore.Rot.Weighted>
7.8004

> <Gold.Chemscore.Internal.Correction.Weighted>
   9.000000E+99

> <Gold.Protein.RotatedTorsions>
[ 6907 6896 6895 6894 ] final -129.98 input  -60.11 | X-H torsion
[ 7974 7965 7964 7962 ] final -110.98 input  175.53 | X-H torsion
[ 8008 7997 7996 7995 ] final   27.53 input   59.86 | X-H torsion
[ 10167 10162 10161 10158 ] final  132.68 input  -65.29 | X-H torsion
[ 10718 10713 10712 10709 ] final   -0.15 input   66.30 | X-H torsion
[ 10763 10752 10751 10750 ] final -136.78 input  -60.55 | X-H torsion
[ 11005 11000 10999 10996 ] final   83.73 input  -57.11 | X-H torsion

> <Gold.Protein.ActiveResidues>
 VAL166  LYS551  ARG553  GLY616  TRP617  ASP618  TYR619  PRO620  LYS621  CYS622 
 ASP623  PHE694  ASN695  SER759  ASP760  ASP761  ALA762  ILE779  LEU786  VAL792 
 PHE793  MET794  SER795  GLU796  ALA797  LYS798  CYS799  TRP800  GLU811  SER814 

> <Gold.Protein.RotatedAtoms>
  150.9347  133.6726  159.2803 H   0  0  0  0  0  0  0  0  0  0  0  0  # atno 6907 bound_to 6896
  151.4135  135.0987  159.9602 H   0  0  0  0  0  0  0  0  0  0  0  0  # atno 6908 bound_to 6896
  152.5042  133.8815  159.7403 H   0  0  0  0  0  0  0  0  0  0  0  0  # atno 6909 bound_to 6896
  145.1616  140.8881  143.3587 H   0  0  0  0  0  0  0  0  0  0  0  0  # atno 7974 bound_to 7965
  155.0443  140.3173  155.4713 H   0  0  0  0  0  0  0  0  0  0  0  0  # atno 8008 bound_to 7997
  156.2848  140.2157  156.5511 H   0  0  0  0  0  0  0  0  0  0  0  0  # atno 8009 bound_to 7997
  154.7263  140.0485  157.0674 H   0  0  0  0  0  0  0  0  0  0  0  0  # atno 8010 bound_to 7997
  139.5329  144.6651  151.4886 H   0  0  0  0  0  0  0  0  0  0  0  0  # atno 10167 bound_to 10162
  156.8246  130.5468  149.5693 H   0  0  0  0  0  0  0  0  0  0  0  0  # atno 10718 bound_to 10713
  154.8676  135.3662  154.5117 H   0  0  0  0  0  0  0  0  0  0  0  0  # atno 10763 bound_to 10752
  153.5752  135.7019  153.5492 H   0  0  0  0  0  0  0  0  0  0  0  0  # atno 10764 bound_to 10752
  153.3507  135.4073  155.1606 H   0  0  0  0  0  0  0  0  0  0  0  0  # atno 10765 bound_to 10752
  139.9022  134.8166  156.2350 H   0  0  0  0  0  0  0  0  0  0  0  0  # atno 11005 bound_to 11000
  145.0325  139.3328  143.6017 LP  0  0  0  0  0  0  0  0  0  0  0  0  # atno 17320 bound_to 7965
  146.3481  139.9668  142.8711 LP  0  0  0  0  0  0  0  0  0  0  0  0  # atno 17321 bound_to 7965
  140.6519  143.8679  150.6794 LP  0  0  0  0  0  0  0  0  0  0  0  0  # atno 17342 bound_to 10162
  140.2047  143.3931  152.1765 LP  0  0  0  0  0  0  0  0  0  0  0  0  # atno 17343 bound_to 10162
  156.0969  130.5939  150.9828 LP  0  0  0  0  0  0  0  0  0  0  0  0  # atno 17370 bound_to 10713
  157.6439  131.0906  150.8195 LP  0  0  0  0  0  0  0  0  0  0  0  0  # atno 17371 bound_to 10713
  141.0321  133.6983  156.1449 LP  0  0  0  0  0  0  0  0  0  0  0  0  # atno 17394 bound_to 11000
  140.7080  134.4492  157.5583 LP  0  0  0  0  0  0  0  0  0  0  0  0  # atno 17395 bound_to 11000

$$$$
