AV-unprocessed.smi:2433|AV-procd|sdf|9590|dock5
  -GOLD-   2272013223D 1   1.00000     0.00000
 Structure written by MMmdl.
 38 40  0  0  0  0  0  0  0  0  1 V2000
  151.4544  138.9694  158.0672 O   0  0  0  0  0  0  0  0  0  0  0  0
  151.3794  140.1745  157.8256 C   0  0  0  0  0  0  0  0  0  0  0  0
  152.1559  141.1754  158.5578 C   0  0  0  0  0  0  0  0  0  0  0  0
  152.0496  142.4921  158.2608 C   0  0  0  0  0  0  0  0  0  0  0  0
  152.8562  143.5369  159.0280 C   0  0  0  0  0  0  0  0  0  0  0  0
  152.4026  143.8147  160.4717 C   0  0  0  0  0  0  0  0  0  0  0  0
  151.7161  145.0975  159.9896 C   0  0  0  0  0  0  0  0  0  0  0  0
  152.5040  144.9914  158.6789 C   0  0  0  0  0  0  0  0  0  0  0  0
  151.1715  142.9238  157.2577 N   0  0  0  0  0  0  0  0  0  0  0  0
  150.4719  142.0586  156.5955 C   0  0  0  0  0  0  0  0  0  0  0  0
  150.5667  140.6778  156.8515 N   0  0  0  0  0  0  0  0  0  0  0  0
  149.7390  139.7977  156.0100 C   0  0  0  0  0  0  0  0  0  0  0  0
  149.3285  140.4652  154.6791 C   0  0  1  0  0  0  0  0  0  0  0  0
  149.0924  139.4557  153.7171 O   0  0  0  0  0  0  0  0  0  0  0  0
  148.1043  141.3476  154.8744 C   0  0  0  0  0  0  0  0  0  0  0  0
  147.5296  142.0056  153.7656 C   0  0  0  0  0  0  0  0  0  0  0  0
  146.4048  142.8361  153.9364 C   0  0  0  0  0  0  0  0  0  0  0  0
  145.8500  143.0165  155.2179 C   0  0  0  0  0  0  0  0  0  0  0  0
  144.7695  143.8156  155.3823 F   0  0  0  0  0  0  0  0  0  0  0  0
  146.4213  142.3672  156.3288 C   0  0  0  0  0  0  0  0  0  0  0  0
  147.5460  141.5368  156.1585 C   0  0  0  0  0  0  0  0  0  0  0  0
  152.8268  140.8499  159.3397 H   0  0  0  0  0  0  0  0  0  0  0  0
  153.9286  143.3457  158.9659 H   0  0  0  0  0  0  0  0  0  0  0  0
  151.7284  143.0745  160.9039 H   0  0  0  0  0  0  0  0  0  0  0  0
  153.2413  144.0198  161.1384 H   0  0  0  0  0  0  0  0  0  0  0  0
  150.6414  144.9751  159.8481 H   0  0  0  0  0  0  0  0  0  0  0  0
  151.9455  145.9828  160.5832 H   0  0  0  0  0  0  0  0  0  0  0  0
  153.3795  145.6419  158.6635 H   0  0  0  0  0  0  0  0  0  0  0  0
  151.8988  145.1165  157.7801 H   0  0  0  0  0  0  0  0  0  0  0  0
  149.7716  142.3437  155.8085 H   0  0  0  0  0  0  0  0  0  0  0  0
  150.2162  138.8334  155.8220 H   0  0  0  0  0  0  0  0  0  0  0  0
  148.8393  139.5470  156.5756 H   0  0  0  0  0  0  0  0  0  0  0  0
  150.1398  141.0905  154.3039 H   0  0  0  0  0  0  0  0  0  0  0  0
  149.5683  139.6754  152.9307 H   0  0  0  0  0  0  0  0  0  0  0  0
  147.9518  141.8787  152.7794 H   0  0  0  0  0  0  0  0  0  0  0  0
  145.9693  143.3365  153.0842 H   0  0  0  0  0  0  0  0  0  0  0  0
  145.9985  142.5077  157.3126 H   0  0  0  0  0  0  0  0  0  0  0  0
  147.9800  141.0487  157.0189 H   0  0  0  0  0  0  0  0  0  0  0  0
  1  2  2  0  0  0  0
  2 11  1  0  0  0  0
  2  3  1  0  0  0  0
  3  4  2  0  0  0  0
  3 22  1  0  0  0  0
  4  5  1  0  0  0  0
  4  9  1  0  0  0  0
  5  8  1  0  0  0  0
  5  6  1  0  0  0  0
  5 23  1  0  0  0  0
  6  7  1  0  0  0  0
  6 24  1  0  0  0  0
  6 25  1  0  0  0  0
  7  8  1  0  0  0  0
  7 26  1  0  0  0  0
  7 27  1  0  0  0  0
  8 28  1  0  0  0  0
  8 29  1  0  0  0  0
  9 10  2  0  0  0  0
 10 11  1  0  0  0  0
 10 30  1  0  0  0  0
 11 12  1  0  0  0  0
 12 13  1  0  0  0  0
 12 31  1  0  0  0  0
 12 32  1  0  0  0  0
 13 14  1  0  0  0  0
 13 15  1  0  0  0  0
 13 33  1  0  0  0  0
 14 34  1  0  0  0  0
 15 21  1  0  0  0  0
 15 16  2  0  0  0  0
 16 17  1  0  0  0  0
 16 35  1  0  0  0  0
 17 18  2  0  0  0  0
 17 36  1  0  0  0  0
 18 19  1  0  0  0  0
 18 20  1  0  0  0  0
 20 21  2  0  0  0  0
 20 37  1  0  0  0  0
 21 38  1  0  0  0  0
M  END
> <s_m_source_file>
AV-unprocessed.smi

> <i_m_source_file_index>
2433

> <i_lp_mmshare_version>
43012

> <i_f3d_flags>
0

> <s_epik_input>
W0NIMl0xW0NIMl1bQ0gyXVtDSF0xYyhbY0hdYzI9TyluW2NIXW4yW0NIMl1bQ0BIXShbT0hdKWMzW2NIXVtjSF1jKEYpW2NIXVtjSF0z

> <s_epik_cmdline>
J2VwaWtfcHl0aG9uJywgJy1waCcsICc3LjAnLCAnLXRuJywgJzgnLCAnLW1hJywgJzIwMCcsICctbWV0YWxfYmluZGluZycsICctaW1hZScsICc8aW5maWxlLm1hZT4nLCAnLW9tYWUnLCAnPG91dGZpbGUubWFlPic=

> <r_lp_tautomer_probability>
1

> <r_epik_Ionization_Penalty>
2.57762e-05

> <r_epik_Ionization_Penalty_Charging>
5.39435e-08

> <r_epik_Ionization_Penalty_Neutral>
2.57223e-05

> <r_epik_State_Penalty>
-0

> <r_epik_Charging_Adjusted_Penalty>
5.39435e-08

> <i_epik_Tot_Q>
0

> <i_epik_Tot_abs_Q>
0

> <r_epik_Metal_State_Penalty>
-0

> <b_epik_Metal_Only>
0

> <s_lp_Force_Field>
OPLS_2005

> <r_lp_Energy>
28.3662

> <b_lp_Chiralities_Consistent>
1

> <s_lp_Variant>
AV-unprocessed.smi:2433-2

> <Gold.Version>
5.8.1

> <Gold.Id.Protein>
6NUR|6NUR_protein|mol2

> <Gold.PLP.Fitness>
50.5937

> <Gold.PLP.PLP>
-46.6377

> <Gold.PLP.part.hbond>
-1.0000

> <Gold.PLP.part.metal>
0.0000

> <Gold.PLP.part.buried>
-8.0291

> <Gold.PLP.part.nonpolar>
-38.0497

> <Gold.PLP.part.repulsive>
0.1183

> <Gold.PLP.ligand.clash>
0.2866

> <Gold.PLP.ligand.torsion>
0.7940

> <Gold.PLP.Chemscore.Hbond>
1.0000

> <Gold.PLP.Chemscore.CHOScore>
0.8183

> <Gold.PLP.Chemscore.Metal>
0.0000

> <Gold.Chemscore.Hbonds>
donor molecule, donor type, donor heavy atom, donor atom, acceptor molecule, acceptor atom, score
      L1  H    14    34       P1  7957  1.00
      L1  C    10    30       P1  8028  0.80

> <Gold.PLP.Chemscore.Internal.Correction>
0.3758

> <Gold.Rescore>
     Score         DG    S(hbond)    S(metal)    S(lipo)     H(rot)  DE(clash)    DE(int)     intcor
     14.91     -15.79       0.98        0.00     107.05       2.14       0.03       0.85       ----

> <Gold.Chemscore.Fitness>
14.9112

> <Gold.Chemscore.DG>
-15.7912

> <Gold.Chemscore.ZeroCoef>
-5.4800

> <Gold.Chemscore.Hbond>
0.9752

> <Gold.Chemscore.Metal>
0.0000

> <Gold.Chemscore.Lipo>
107.0494

> <Gold.Chemscore.Internal_Hbond>
0.0000

> <Gold.Chemscore.DEClash>
0.0334

> <Gold.Chemscore.DEInternal>
0.8466

> <Gold.Chemscore.Rot>
2.1370

> <Gold.Chemscore.Internal.Correction>
   9.000000E+99

> <Gold.Chemscore.Hbonds>
donor molecule, donor type, donor heavy atom, donor atom, acceptor molecule, acceptor atom, score
      L1  H    14    34       P1  7957  0.95

> <Gold.Chemscore.Hbond.Weighted>
-3.2572

> <Gold.Chemscore.Metal.Weighted>
-0.0000

> <Gold.Chemscore.Lipo.Weighted>
-12.5248

> <Gold.Chemscore.Internal_Hbond.Weighted>
0.0000

> <Gold.Chemscore.DEClash.Weighted>
0.0334

> <Gold.Chemscore.DEInternal.Weighted>
0.8466

> <Gold.Chemscore.Rot.Weighted>
5.4707

> <Gold.Chemscore.Internal.Correction.Weighted>
   9.000000E+99

> <Gold.Protein.RotatedTorsions>
[ 6907 6896 6895 6894 ] final  -94.80 input  -60.11 | X-H torsion
[ 7974 7965 7964 7962 ] final  161.24 input  175.53 | X-H torsion
[ 8008 7997 7996 7995 ] final   20.39 input   59.86 | X-H torsion
[ 10167 10162 10161 10158 ] final -158.77 input  -65.29 | X-H torsion
[ 10718 10713 10712 10709 ] final   60.17 input   66.30 | X-H torsion
[ 10763 10752 10751 10750 ] final -179.09 input  -60.55 | X-H torsion
[ 11005 11000 10999 10996 ] final   72.20 input  -57.11 | X-H torsion

> <Gold.Protein.ActiveResidues>
 VAL166  LYS551  ARG553  GLY616  TRP617  ASP618  TYR619  PRO620  LYS621  CYS622 
 ASP623  PHE694  ASN695  SER759  ASP760  ASP761  ALA762  ILE779  LEU786  VAL792 
 PHE793  MET794  SER795  GLU796  ALA797  LYS798  CYS799  TRP800  GLU811  SER814 

> <Gold.Protein.RotatedAtoms>
  150.6949  134.1756  159.4228 H   0  0  0  0  0  0  0  0  0  0  0  0  # atno 6907 bound_to 6896
  151.9733  135.0063  160.0563 H   0  0  0  0  0  0  0  0  0  0  0  0  # atno 6908 bound_to 6896
  152.1822  133.4680  159.5001 H   0  0  0  0  0  0  0  0  0  0  0  0  # atno 6909 bound_to 6896
  144.7695  139.7871  143.6302 H   0  0  0  0  0  0  0  0  0  0  0  0  # atno 7974 bound_to 7965
  154.9349  140.3045  155.5149 H   0  0  0  0  0  0  0  0  0  0  0  0  # atno 8008 bound_to 7997
  156.3000  140.2347  156.4350 H   0  0  0  0  0  0  0  0  0  0  0  0  # atno 8009 bound_to 7997
  154.8201  140.0424  157.1393 H   0  0  0  0  0  0  0  0  0  0  0  0  # atno 8010 bound_to 7997
  139.6667  143.9817  152.2259 H   0  0  0  0  0  0  0  0  0  0  0  0  # atno 10167 bound_to 10162
  157.5733  130.8924  149.9303 H   0  0  0  0  0  0  0  0  0  0  0  0  # atno 10718 bound_to 10713
  154.5395  135.2805  155.1108 H   0  0  0  0  0  0  0  0  0  0  0  0  # atno 10763 bound_to 10752
  154.2597  135.6324  153.5274 H   0  0  0  0  0  0  0  0  0  0  0  0  # atno 10764 bound_to 10752
  152.9975  135.5602  154.5930 H   0  0  0  0  0  0  0  0  0  0  0  0  # atno 10765 bound_to 10752
  139.9503  134.7239  156.0879 H   0  0  0  0  0  0  0  0  0  0  0  0  # atno 11005 bound_to 11000
  146.1831  139.5033  142.9853 LP  0  0  0  0  0  0  0  0  0  0  0  0  # atno 17320 bound_to 7965
  145.6366  141.0293  143.1834 LP  0  0  0  0  0  0  0  0  0  0  0  0  # atno 17321 bound_to 7965
  139.9571  144.6582  150.8116 LP  0  0  0  0  0  0  0  0  0  0  0  0  # atno 17342 bound_to 10162
  140.7602  143.3146  151.2764 LP  0  0  0  0  0  0  0  0  0  0  0  0  # atno 17343 bound_to 10162
  156.0777  130.3677  150.0643 LP  0  0  0  0  0  0  0  0  0  0  0  0  # atno 17370 bound_to 10713
  156.8793  130.9551  151.3601 LP  0  0  0  0  0  0  0  0  0  0  0  0  # atno 17371 bound_to 10713
  141.1164  133.6626  156.3105 LP  0  0  0  0  0  0  0  0  0  0  0  0  # atno 17394 bound_to 11000
  140.5735  134.5816  157.5463 LP  0  0  0  0  0  0  0  0  0  0  0  0  # atno 17395 bound_to 11000

$$$$
