AV-unprocessed.smi:1244|AV-procd|sdf|5232|dock1
  -GOLD-   22720 4333D 1   1.00000     0.00000
 Structure written by MMmdl.
 56 58  0  0  0  0  0  0  0  0  3 V2000
  151.3997  141.7981  157.7290 C   0  0  0  0  0  0  0  0  0  0  0  0
  151.1490  141.3030  156.3002 C   0  0  1  0  0  0  0  0  0  0  0  0
  151.5220  139.8189  156.1268 C   0  0  0  0  0  0  0  0  0  0  0  0
  151.1943  139.3547  154.7560 N   0  3  1  0  0  0  0  0  0  0  0  0
  151.5697  137.9404  154.5085 C   0  0  0  0  0  0  0  0  0  0  0  0
  150.7969  136.9639  155.4158 C   0  0  0  0  0  0  0  0  0  0  0  0
  149.9668  136.0472  154.6423 N   0  0  0  0  0  0  0  0  0  0  0  0
  149.8827  134.7271  154.8613 C   0  0  0  0  0  0  0  0  0  0  0  0
  150.4716  134.1520  155.7767 O   0  0  0  0  0  0  0  0  0  0  0  0
  149.1007  134.1252  153.9495 N   0  0  0  0  0  0  0  0  0  0  0  0
  148.8450  132.7314  153.8137 C   0  0  0  0  0  0  0  0  0  0  0  0
  149.6153  131.7748  154.5235 C   0  0  0  0  0  0  0  0  0  0  0  0
  149.3589  130.4009  154.3557 C   0  0  0  0  0  0  0  0  0  0  0  0
  148.3319  130.0030  153.4828 C   0  0  0  0  0  0  0  0  0  0  0  0
  147.6035  130.9375  152.8376 N   0  3  0  0  0  0  0  0  0  0  0  0
  147.7921  132.2745  152.9683 C   0  0  0  0  0  0  0  0  0  0  0  0
  146.9445  133.1349  152.2343 N   0  0  0  0  0  0  0  0  0  0  0  0
  146.1215  132.6132  151.1493 C   0  0  0  0  0  0  0  0  0  0  0  0
  145.1203  133.7241  150.8440 C   0  0  0  0  0  0  0  0  0  0  0  0
  144.8659  134.3254  152.2233 C   0  0  0  0  0  0  0  0  0  0  0  0
  146.2151  134.1858  152.9365 C   0  0  0  0  0  0  0  0  0  0  0  0
  149.7698  139.6256  154.4495 C   0  0  0  0  0  0  0  0  0  0  0  0
  149.4424  141.1154  154.6683 C   0  0  1  0  0  0  0  0  0  0  0  0
  147.9583  141.4215  154.4388 C   0  0  0  0  0  0  0  0  0  0  0  0
  149.7662  141.4712  156.0078 O   0  0  0  0  0  0  0  0  0  0  0  0
  152.4494  141.6908  158.0037 H   0  0  0  0  0  0  0  0  0  0  0  0
  150.8057  141.2377  158.4515 H   0  0  0  0  0  0  0  0  0  0  0  0
  151.1372  142.8517  157.8282 H   0  0  0  0  0  0  0  0  0  0  0  0
  151.7389  141.9131  155.6135 H   0  0  0  0  0  0  0  0  0  0  0  0
  152.5850  139.6903  156.3279 H   0  0  0  0  0  0  0  0  0  0  0  0
  150.9839  139.2099  156.8555 H   0  0  0  0  0  0  0  0  0  0  0  0
  151.4213  137.7035  153.4539 H   0  0  0  0  0  0  0  0  0  0  0  0
  152.6353  137.8120  154.7047 H   0  0  0  0  0  0  0  0  0  0  0  0
  151.4986  136.3717  156.0038 H   0  0  0  0  0  0  0  0  0  0  0  0
  150.1669  137.4942  156.1306 H   0  0  0  0  0  0  0  0  0  0  0  0
  149.4494  136.4402  153.8694 H   0  0  0  0  0  0  0  0  0  0  0  0
  148.7616  134.7076  153.1981 H   0  0  0  0  0  0  0  0  0  0  0  0
  150.4008  132.0772  155.1997 H   0  0  0  0  0  0  0  0  0  0  0  0
  149.9439  129.6645  154.8870 H   0  0  0  0  0  0  0  0  0  0  0  0
  148.0669  128.9739  153.2874 H   0  0  0  0  0  0  0  0  0  0  0  0
  146.7255  132.3612  150.2769 H   0  0  0  0  0  0  0  0  0  0  0  0
  145.5880  131.7177  151.4709 H   0  0  0  0  0  0  0  0  0  0  0  0
  145.5763  134.4696  150.1911 H   0  0  0  0  0  0  0  0  0  0  0  0
  144.2132  133.3586  150.3619 H   0  0  0  0  0  0  0  0  0  0  0  0
  144.5146  135.3567  152.1802 H   0  0  0  0  0  0  0  0  0  0  0  0
  144.1115  133.7352  152.7454 H   0  0  0  0  0  0  0  0  0  0  0  0
  146.0826  133.9582  153.9950 H   0  0  0  0  0  0  0  0  0  0  0  0
  146.7764  135.1167  152.8549 H   0  0  0  0  0  0  0  0  0  0  0  0
  149.5578  139.3524  153.4148 H   0  0  0  0  0  0  0  0  0  0  0  0
  149.1361  139.0017  155.0825 H   0  0  0  0  0  0  0  0  0  0  0  0
  150.0323  141.7266  153.9827 H   0  0  0  0  0  0  0  0  0  0  0  0
  147.6612  141.1830  153.4173 H   0  0  0  0  0  0  0  0  0  0  0  0
  147.7480  142.4780  154.6072 H   0  0  0  0  0  0  0  0  0  0  0  0
  147.3261  140.8448  155.1145 H   0  0  0  0  0  0  0  0  0  0  0  0
  151.7336  139.9170  154.1131 H   0  0  0  0  0  0  0  0  0  0  0  0
  146.8595  130.6168  152.2176 H   0  0  0  0  0  0  0  0  0  0  0  0
  1  2  1  0  0  0  0
  1 26  1  0  0  0  0
  1 27  1  0  0  0  0
  1 28  1  0  0  0  0
  2 25  1  0  0  0  0
  2  3  1  0  0  0  0
  2 29  1  0  0  0  0
  3  4  1  0  0  0  0
  3 30  1  0  0  0  0
  3 31  1  0  0  0  0
  4  5  1  0  0  0  0
  4 22  1  0  0  0  0
  4 55  1  0  0  0  0
  5  6  1  0  0  0  0
  5 32  1  0  0  0  0
  5 33  1  0  0  0  0
  6  7  1  0  0  0  0
  6 34  1  0  0  0  0
  6 35  1  0  0  0  0
  7  8  1  0  0  0  0
  7 36  1  0  0  0  0
  8  9  2  0  0  0  0
  8 10  1  0  0  0  0
 10 11  1  0  0  0  0
 10 37  1  0  0  0  0
 11 16  1  0  0  0  0
 11 12  2  0  0  0  0
 12 13  1  0  0  0  0
 12 38  1  0  0  0  0
 13 14  2  0  0  0  0
 13 39  1  0  0  0  0
 14 15  1  0  0  0  0
 14 40  1  0  0  0  0
 15 16  2  0  0  0  0
 15 56  1  0  0  0  0
 16 17  1  0  0  0  0
 17 21  1  0  0  0  0
 17 18  1  0  0  0  0
 18 19  1  0  0  0  0
 18 41  1  0  0  0  0
 18 42  1  0  0  0  0
 19 20  1  0  0  0  0
 19 43  1  0  0  0  0
 19 44  1  0  0  0  0
 20 21  1  0  0  0  0
 20 45  1  0  0  0  0
 20 46  1  0  0  0  0
 21 47  1  0  0  0  0
 21 48  1  0  0  0  0
 22 23  1  0  0  0  0
 22 49  1  0  0  0  0
 22 50  1  0  0  0  0
 23 24  1  0  0  0  0
 23 25  1  0  0  0  0
 23 51  1  0  0  0  0
 24 52  1  0  0  0  0
 24 53  1  0  0  0  0
 24 54  1  0  0  0  0
M  CHG  1   4   1
M  CHG  1  15   1
M  END
> <s_m_source_file>
AV-unprocessed.smi

> <i_m_source_file_index>
1244

> <i_lp_mmshare_version>
43012

> <i_f3d_flags>
0

> <s_epik_input>
W0NIM11bQ0BASF0xW0NIMl1OKFtDSDJdW0NASF0oTzEpW0NIM10pW0NIMl1bQ0gyXVtOSF1DKD1PKVtOSF1jMltjSF1bY0hdW2NIXW5jMk4zW0NIMl1bQ0gyXVtDSDJdW0NIMl0z

> <s_epik_cmdline>
J2VwaWtfcHl0aG9uJywgJy1waCcsICc3LjAnLCAnLXRuJywgJzgnLCAnLW1hJywgJzIwMCcsICctbWV0YWxfYmluZGluZycsICctaW1hZScsICc8aW5maWxlLm1hZT4nLCAnLW9tYWUnLCAnPG91dGZpbGUubWFlPic=

> <r_lp_tautomer_probability>
0.999994

> <r_epik_Ionization_Penalty>
1.81601

> <r_epik_Ionization_Penalty_Charging>
1.81599

> <r_epik_Ionization_Penalty_Neutral>
2.01972e-05

> <r_epik_State_Penalty>
1.85672

> <r_epik_Charging_Adjusted_Penalty>
3.6727

> <i_epik_Tot_Q>
2

> <i_epik_Tot_abs_Q>
2

> <r_epik_Metal_State_Penalty>
1.93796

> <b_epik_Metal_Only>
0

> <s_lp_Force_Field>
OPLS_2005

> <r_lp_Energy>
51.4993

> <b_lp_Chiralities_Consistent>
1

> <s_lp_Variant>
AV-unprocessed.smi:1244-12

> <Gold.Version>
5.8.1

> <Gold.Id.Protein>
6NUR|6NUR_protein|mol2

> <Gold.PLP.Fitness>
51.3004

> <Gold.PLP.PLP>
-46.5725

> <Gold.PLP.part.hbond>
-3.0000

> <Gold.PLP.part.metal>
0.0000

> <Gold.PLP.part.buried>
-6.5385

> <Gold.PLP.part.nonpolar>
-39.1524

> <Gold.PLP.part.repulsive>
1.5403

> <Gold.PLP.ligand.clash>
0.0000

> <Gold.PLP.ligand.torsion>
0.7238

> <Gold.PLP.Chemscore.Hbond>
1.8960

> <Gold.PLP.Chemscore.CHOScore>
0.0000

> <Gold.PLP.Chemscore.Metal>
0.0000

> <Gold.Chemscore.Hbonds>
donor molecule, donor type, donor heavy atom, donor atom, acceptor molecule, acceptor atom, score
      L1  H     7    36       P1  7948  0.83
      L1  H    10    37       P1  7948  1.00

> <Gold.PLP.Chemscore.Internal.Correction>
0.4873

> <Gold.Rescore>
     Score         DG    S(hbond)    S(metal)    S(lipo)     H(rot)  DE(clash)    DE(int)     intcor
     14.04     -16.42       1.02        0.00     100.01       1.63       0.25       2.13       ----

> <Gold.Chemscore.Fitness>
14.0395

> <Gold.Chemscore.DG>
-16.4187

> <Gold.Chemscore.ZeroCoef>
-5.4800

> <Gold.Chemscore.Hbond>
1.0207

> <Gold.Chemscore.Metal>
0.0000

> <Gold.Chemscore.Lipo>
100.0054

> <Gold.Chemscore.Internal_Hbond>
0.0000

> <Gold.Chemscore.DEClash>
0.2452

> <Gold.Chemscore.DEInternal>
2.1340

> <Gold.Chemscore.Rot>
1.6293

> <Gold.Chemscore.Internal.Correction>
   9.000000E+99

> <Gold.Chemscore.Hbonds>
donor molecule, donor type, donor heavy atom, donor atom, acceptor molecule, acceptor atom, score
      L1  H     7    36       P1  7948  0.64
      L1  H    10    37       P1  7948  0.24

> <Gold.Chemscore.Hbond.Weighted>
-3.4090

> <Gold.Chemscore.Metal.Weighted>
-0.0000

> <Gold.Chemscore.Lipo.Weighted>
-11.7006

> <Gold.Chemscore.Internal_Hbond.Weighted>
0.0000

> <Gold.Chemscore.DEClash.Weighted>
0.2452

> <Gold.Chemscore.DEInternal.Weighted>
2.1340

> <Gold.Chemscore.Rot.Weighted>
4.1709

> <Gold.Chemscore.Internal.Correction.Weighted>
   9.000000E+99

> <Gold.Protein.RotatedTorsions>
[ 6907 6896 6895 6894 ] final  -91.76 input  -60.11 | X-H torsion
[ 7974 7965 7964 7962 ] final  151.89 input  175.53 | X-H torsion
[ 8008 7997 7996 7995 ] final  -66.31 input   59.86 | X-H torsion
[ 10167 10162 10161 10158 ] final  156.64 input  -65.29 | X-H torsion
[ 10718 10713 10712 10709 ] final  -90.33 input   66.30 | X-H torsion
[ 10763 10752 10751 10750 ] final    2.37 input  -60.55 | X-H torsion
[ 11005 11000 10999 10996 ] final  -97.27 input  -57.11 | X-H torsion

> <Gold.Protein.ActiveResidues>
 VAL166  LYS551  ARG553  GLY616  TRP617  ASP618  TYR619  PRO620  LYS621  CYS622 
 ASP623  PHE694  ASN695  SER759  ASP760  ASP761  ALA762  ILE779  LEU786  VAL792 
 PHE793  MET794  SER795  GLU796  ALA797  LYS798  CYS799  TRP800  GLU811  SER814 

> <Gold.Protein.RotatedAtoms>
  150.6897  134.2227  159.4402 H   0  0  0  0  0  0  0  0  0  0  0  0  # atno 6907 bound_to 6896
  152.0183  134.9835  160.0579 H   0  0  0  0  0  0  0  0  0  0  0  0  # atno 6908 bound_to 6896
  152.1422  133.4436  159.4809 H   0  0  0  0  0  0  0  0  0  0  0  0  # atno 6909 bound_to 6896
  144.8260  139.6597  143.6079 H   0  0  0  0  0  0  0  0  0  0  0  0  # atno 7974 bound_to 7965
  154.4726  140.0915  156.7183 H   0  0  0  0  0  0  0  0  0  0  0  0  # atno 8008 bound_to 7997
  155.4682  140.3463  155.4304 H   0  0  0  0  0  0  0  0  0  0  0  0  # atno 8009 bound_to 7997
  156.1064  140.1436  156.9386 H   0  0  0  0  0  0  0  0  0  0  0  0  # atno 8010 bound_to 7997
  139.4821  144.4990  151.8196 H   0  0  0  0  0  0  0  0  0  0  0  0  # atno 10167 bound_to 10162
  155.9987  130.4906  150.5307 H   0  0  0  0  0  0  0  0  0  0  0  0  # atno 10718 bound_to 10713
  153.2964  135.6952  153.7244 H   0  0  0  0  0  0  0  0  0  0  0  0  # atno 10763 bound_to 10752
  153.6176  135.3433  155.3000 H   0  0  0  0  0  0  0  0  0  0  0  0  # atno 10764 bound_to 10752
  154.8538  135.4378  154.2062 H   0  0  0  0  0  0  0  0  0  0  0  0  # atno 10765 bound_to 10752
  141.1384  133.8158  157.0683 H   0  0  0  0  0  0  0  0  0  0  0  0  # atno 11005 bound_to 11000
  146.2566  139.6315  142.9391 LP  0  0  0  0  0  0  0  0  0  0  0  0  # atno 17320 bound_to 7965
  145.4998  141.0437  143.2546 LP  0  0  0  0  0  0  0  0  0  0  0  0  # atno 17321 bound_to 7965
  140.4481  144.1893  150.5895 LP  0  0  0  0  0  0  0  0  0  0  0  0  # atno 17342 bound_to 10162
  140.4613  143.2448  151.9216 LP  0  0  0  0  0  0  0  0  0  0  0  0  # atno 17343 bound_to 10162
  157.3256  131.0690  151.1899 LP  0  0  0  0  0  0  0  0  0  0  0  0  # atno 17370 bound_to 10713
  157.2797  130.6744  149.6060 LP  0  0  0  0  0  0  0  0  0  0  0  0  # atno 17371 bound_to 10713
  140.0527  134.9797  157.1166 LP  0  0  0  0  0  0  0  0  0  0  0  0  # atno 17394 bound_to 11000
  140.3965  134.2128  155.7164 LP  0  0  0  0  0  0  0  0  0  0  0  0  # atno 17395 bound_to 11000

$$$$
