AV-unprocessed.smi:12|AV-procd|sdf|63|dock3
  -GOLD-   2262015183D 1   1.00000     0.00000
 Structure written by MMmdl.
 41 44  0  0  0  0  0  0  0  0  1 V2000
  146.2734  142.6672  155.0251 C   0  0  0  0  0  0  0  0  0  0  0  0
  147.1076  141.4074  154.8764 C   0  0  0  0  0  0  0  0  0  0  0  0
  148.4560  141.4561  154.7638 C   0  0  0  0  0  0  0  0  0  0  0  0
  149.1606  140.2919  154.6357 N   0  0  0  0  0  0  0  0  0  0  0  0
  148.4757  139.0579  154.6057 C   0  0  0  0  0  0  0  0  0  0  0  0
  147.1895  138.9282  154.7079 N   0  0  0  0  0  0  0  0  0  0  0  0
  146.4144  140.0946  154.8572 C   0  0  0  0  0  0  0  0  0  0  0  0
  145.1913  140.0213  154.9657 O   0  0  0  0  0  0  0  0  0  0  0  0
  149.3801  138.0539  154.4381 O   0  0  0  0  0  0  0  0  0  0  0  0
  150.7014  138.6021  154.3366 C   0  0  2  0  0  0  0  0  0  0  0  0
  151.5686  138.1737  155.5171 C   0  0  1  0  0  0  0  0  0  0  0  0
  152.5574  137.2518  155.1041 O   0  0  0  0  0  0  0  0  0  0  0  0
  152.1963  139.4863  155.9962 C   0  0  2  0  0  0  0  0  0  0  0  0
  152.5483  139.5143  157.4887 C   0  0  0  0  0  0  0  0  0  0  0  0
  152.6484  140.8612  157.9219 O   0  0  0  0  0  0  0  0  0  0  0  0
  153.0401  141.1403  159.1799 C   0  0  0  0  0  0  0  0  0  0  0  0
  153.5988  140.3256  159.9172 O   0  0  0  0  0  0  0  0  0  0  0  0
  152.7229  142.5394  159.5883 C   0  0  0  0  0  0  0  0  0  0  0  0
  152.7085  142.8743  160.9627 C   0  0  0  0  0  0  0  0  0  0  0  0
  152.4081  144.1860  161.3784 C   0  0  0  0  0  0  0  0  0  0  0  0
  152.1194  145.1796  160.4247 C   0  0  0  0  0  0  0  0  0  0  0  0
  152.1333  144.8601  159.0544 C   0  0  0  0  0  0  0  0  0  0  0  0
  152.4328  143.5486  158.6369 C   0  0  0  0  0  0  0  0  0  0  0  0
  151.1972  140.4543  155.7193 O   0  0  0  0  0  0  0  0  0  0  0  0
  150.6074  140.1309  154.5019 C   0  0  2  0  0  0  0  0  0  0  0  0
  146.9005  143.5593  155.0294 H   0  0  0  0  0  0  0  0  0  0  0  0
  145.7120  142.6454  155.9596 H   0  0  0  0  0  0  0  0  0  0  0  0
  145.5661  142.7563  154.2000 H   0  0  0  0  0  0  0  0  0  0  0  0
  148.9827  142.3992  154.7784 H   0  0  0  0  0  0  0  0  0  0  0  0
  151.1506  138.3769  153.3680 H   0  0  0  0  0  0  0  0  0  0  0  0
  150.9505  137.7369  156.3031 H   0  0  0  0  0  0  0  0  0  0  0  0
  153.3930  137.5382  155.4406 H   0  0  0  0  0  0  0  0  0  0  0  0
  153.0718  139.7368  155.3935 H   0  0  0  0  0  0  0  0  0  0  0  0
  151.7682  139.0098  158.0606 H   0  0  0  0  0  0  0  0  0  0  0  0
  153.4842  138.9848  157.6722 H   0  0  0  0  0  0  0  0  0  0  0  0
  152.9259  142.1282  161.7136 H   0  0  0  0  0  0  0  0  0  0  0  0
  152.3986  144.4294  162.4308 H   0  0  0  0  0  0  0  0  0  0  0  0
  151.8878  146.1852  160.7438 H   0  0  0  0  0  0  0  0  0  0  0  0
  151.9132  145.6220  158.3212 H   0  0  0  0  0  0  0  0  0  0  0  0
  152.4343  143.3379  157.5773 H   0  0  0  0  0  0  0  0  0  0  0  0
  150.9209  140.7285  153.6452 H   0  0  0  0  0  0  0  0  0  0  0  0
  1  2  1  0  0  0  0
  1 26  1  0  0  0  0
  1 27  1  0  0  0  0
  1 28  1  0  0  0  0
  2  7  1  0  0  0  0
  2  3  2  0  0  0  0
  3  4  1  0  0  0  0
  3 29  1  0  0  0  0
  4 25  1  0  0  0  0
  4  5  1  0  0  0  0
  5  6  2  0  0  0  0
  5  9  1  0  0  0  0
  6  7  1  0  0  0  0
  7  8  2  0  0  0  0
  9 10  1  0  0  0  0
 10 25  1  0  0  0  0
 10 11  1  0  0  0  0
 10 30  1  0  0  0  0
 11 12  1  0  0  0  0
 11 13  1  0  0  0  0
 11 31  1  0  0  0  0
 12 32  1  0  0  0  0
 13 14  1  0  0  0  0
 13 24  1  0  0  0  0
 13 33  1  0  0  0  0
 14 15  1  0  0  0  0
 14 34  1  0  0  0  0
 14 35  1  0  0  0  0
 15 16  1  0  0  0  0
 16 17  2  0  0  0  0
 16 18  1  0  0  0  0
 18 23  1  0  0  0  0
 18 19  2  0  0  0  0
 19 20  1  0  0  0  0
 19 36  1  0  0  0  0
 20 21  2  0  0  0  0
 20 37  1  0  0  0  0
 21 22  1  0  0  0  0
 21 38  1  0  0  0  0
 22 23  2  0  0  0  0
 22 39  1  0  0  0  0
 23 40  1  0  0  0  0
 24 25  1  0  0  0  0
 25 41  1  0  0  0  0
M  END
> <s_m_source_file>
AV-unprocessed.smi

> <i_m_source_file_index>
12

> <i_lp_mmshare_version>
43012

> <i_f3d_flags>
0

> <s_epik_input>
W0NIM11jKFtjSF0xKWMoPU8pbmMobjEyKU9bQ0BIXTNbQ0BASF0yT1tDQEBIXShbQ0BASF0zW09IXSlbQ0gyXU9DKD1PKWM0W2NIXVtjSF1bY0hdW2NIXVtjSF00

> <s_epik_cmdline>
J2VwaWtfcHl0aG9uJywgJy1waCcsICc3LjAnLCAnLXRuJywgJzgnLCAnLW1hJywgJzIwMCcsICctbWV0YWxfYmluZGluZycsICctaW1hZScsICc8aW5maWxlLm1hZT4nLCAnLW9tYWUnLCAnPG91dGZpbGUubWFlPic=

> <r_lp_tautomer_probability>
0.933681

> <r_epik_Ionization_Penalty>
0.00399549

> <r_epik_Ionization_Penalty_Charging>
3.09373e-09

> <r_epik_Ionization_Penalty_Neutral>
0.00399549

> <r_epik_State_Penalty>
0.00284953

> <r_epik_Charging_Adjusted_Penalty>
0.00284953

> <i_epik_Tot_Q>
0

> <i_epik_Tot_abs_Q>
0

> <r_epik_Metal_State_Penalty>
-0

> <b_epik_Metal_Only>
0

> <s_epik_Chemistry_Notes>
This compound has an ester and may undergo hydrolysis at high or low pH. This compound contains an acetal/aminal-like group ( X-CH(R)-Y where X, Y are N, S, or O) that may be acid/base labile, releasing an aldehyde.

> <s_lp_Force_Field>
OPLS_2005

> <r_lp_Energy>
41.0284

> <b_lp_Chiralities_Consistent>
1

> <s_lp_Variant>
AV-unprocessed.smi:12-3

> <Gold.Version>
5.8.1

> <Gold.Id.Protein>
6NUR|6NUR_protein|mol2

> <Gold.PLP.Fitness>
51.4471

> <Gold.PLP.PLP>
-47.5805

> <Gold.PLP.part.hbond>
-2.0307

> <Gold.PLP.part.metal>
0.0000

> <Gold.PLP.part.buried>
-2.9507

> <Gold.PLP.part.nonpolar>
-45.6012

> <Gold.PLP.part.repulsive>
2.6239

> <Gold.PLP.ligand.clash>
0.0000

> <Gold.PLP.ligand.torsion>
0.5367

> <Gold.PLP.Chemscore.Hbond>
0.6400

> <Gold.PLP.Chemscore.CHOScore>
1.0000

> <Gold.PLP.Chemscore.Metal>
0.0000

> <Gold.Chemscore.Hbonds>
donor molecule, donor type, donor heavy atom, donor atom, acceptor molecule, acceptor atom, score
      P1  H 10752 10765       L1    12  0.59
      L1  C     3    29       P1  8028  1.00

> <Gold.PLP.Chemscore.Internal.Correction>
0.0200

> <Gold.Rescore>
     Score         DG    S(hbond)    S(metal)    S(lipo)     H(rot)  DE(clash)    DE(int)     intcor
     14.64     -15.15       0.61        0.00     112.89       2.18       0.01       0.50       ----

> <Gold.Chemscore.Fitness>
14.6402

> <Gold.Chemscore.DG>
-15.1502

> <Gold.Chemscore.ZeroCoef>
-5.4800

> <Gold.Chemscore.Hbond>
0.6116

> <Gold.Chemscore.Metal>
0.0000

> <Gold.Chemscore.Lipo>
112.8917

> <Gold.Chemscore.Internal_Hbond>
0.0000

> <Gold.Chemscore.DEClash>
0.0115

> <Gold.Chemscore.DEInternal>
0.4985

> <Gold.Chemscore.Rot>
2.1800

> <Gold.Chemscore.Internal.Correction>
   9.000000E+99

> <Gold.Chemscore.Hbonds>
donor molecule, donor type, donor heavy atom, donor atom, acceptor molecule, acceptor atom, score
      P1  H 10752 10765       L1    12  0.18

> <Gold.Chemscore.Hbond.Weighted>
-2.0426

> <Gold.Chemscore.Metal.Weighted>
-0.0000

> <Gold.Chemscore.Lipo.Weighted>
-13.2083

> <Gold.Chemscore.Internal_Hbond.Weighted>
0.0000

> <Gold.Chemscore.DEClash.Weighted>
0.0115

> <Gold.Chemscore.DEInternal.Weighted>
0.4985

> <Gold.Chemscore.Rot.Weighted>
5.5807

> <Gold.Chemscore.Internal.Correction.Weighted>
   9.000000E+99

> <Gold.Protein.RotatedTorsions>
[ 6907 6896 6895 6894 ] final -172.65 input  -60.11 | X-H torsion
[ 7974 7965 7964 7962 ] final   20.16 input  175.53 | X-H torsion
[ 8008 7997 7996 7995 ] final  166.06 input   59.86 | X-H torsion
[ 10167 10162 10161 10158 ] final -105.91 input  -65.29 | X-H torsion
[ 10718 10713 10712 10709 ] final -103.47 input   66.30 | X-H torsion
[ 10763 10752 10751 10750 ] final  174.38 input  -60.55 | X-H torsion
[ 11005 11000 10999 10996 ] final -142.42 input  -57.11 | X-H torsion

> <Gold.Protein.ActiveResidues>
 VAL166  LYS551  ARG553  GLY616  TRP617  ASP618  TYR619  PRO620  LYS621  CYS622 
 ASP623  PHE694  ASN695  SER759  ASP760  ASP761  ALA762  ILE779  LEU786  VAL792 
 PHE793  MET794  SER795  GLU796  ALA797  LYS798  CYS799  TRP800  GLU811  SER814 

> <Gold.Protein.RotatedAtoms>
  151.5434  133.3429  159.2939 H   0  0  0  0  0  0  0  0  0  0  0  0  # atno 6907 bound_to 6896
  150.8522  134.7853  159.7028 H   0  0  0  0  0  0  0  0  0  0  0  0  # atno 6908 bound_to 6896
  152.4565  134.5288  159.9856 H   0  0  0  0  0  0  0  0  0  0  0  0  # atno 6909 bound_to 6896
  146.2122  139.8210  142.8680 H   0  0  0  0  0  0  0  0  0  0  0  0  # atno 7974 bound_to 7965
  156.1749  140.1653  156.8380 H   0  0  0  0  0  0  0  0  0  0  0  0  # atno 8008 bound_to 7997
  154.5297  140.0759  156.8356 H   0  0  0  0  0  0  0  0  0  0  0  0  # atno 8009 bound_to 7997
  155.3433  140.3386  155.4241 H   0  0  0  0  0  0  0  0  0  0  0  0  # atno 8010 bound_to 7997
  140.1934  143.3874  152.1188 H   0  0  0  0  0  0  0  0  0  0  0  0  # atno 10167 bound_to 10162
  156.0266  130.5468  150.7257 H   0  0  0  0  0  0  0  0  0  0  0  0  # atno 10718 bound_to 10713
  154.4531  135.2765  155.1766 H   0  0  0  0  0  0  0  0  0  0  0  0  # atno 10763 bound_to 10752
  154.3585  135.6134  153.5682 H   0  0  0  0  0  0  0  0  0  0  0  0  # atno 10764 bound_to 10752
  152.9848  135.5828  154.4880 H   0  0  0  0  0  0  0  0  0  0  0  0  # atno 10765 bound_to 10752
  140.8227  134.2611  157.4893 H   0  0  0  0  0  0  0  0  0  0  0  0  # atno 11005 bound_to 11000
  145.3097  141.0216  143.3562 LP  0  0  0  0  0  0  0  0  0  0  0  0  # atno 17320 bound_to 7965
  144.8945  139.4730  143.6662 LP  0  0  0  0  0  0  0  0  0  0  0  0  # atno 17321 bound_to 7965
  139.5246  144.7086  151.5276 LP  0  0  0  0  0  0  0  0  0  0  0  0  # atno 17342 bound_to 10162
  140.6440  143.8832  150.6719 LP  0  0  0  0  0  0  0  0  0  0  0  0  # atno 17343 bound_to 10162
  157.4862  131.0907  151.0480 LP  0  0  0  0  0  0  0  0  0  0  0  0  # atno 17370 bound_to 10713
  157.0900  130.5938  149.5437 LP  0  0  0  0  0  0  0  0  0  0  0  0  # atno 17371 bound_to 10713
  139.8708  134.9544  156.4175 LP  0  0  0  0  0  0  0  0  0  0  0  0  # atno 17394 bound_to 11000
  140.9082  133.7731  155.9760 LP  0  0  0  0  0  0  0  0  0  0  0  0  # atno 17395 bound_to 11000

$$$$
