AV-unprocessed.smi:1196|AV-procd|sdf|5006|dock9
  -GOLD-   22720 4 23D 1   1.00000     0.00000
 Structure written by MMmdl.
 36 37  0  0  0  0  0  0  0  0  2 V2000
  146.8894  133.6439  155.1228 C   0  0  0  0  0  0  0  0  0  0  0  0
  146.7141  134.6017  153.9368 C   0  0  2  0  0  0  0  0  0  0  0  0
  146.9643  133.8837  152.5932 C   0  0  0  0  0  0  0  0  0  0  0  0
  145.7345  133.4563  151.9485 N   0  0  0  0  0  0  0  0  0  0  0  0
  145.5697  132.5100  150.9591 C   0  0  0  0  0  0  0  0  0  0  0  0
  144.2339  132.4363  150.6859 C   0  0  0  0  0  0  0  0  0  0  0  0
  143.6551  133.3893  151.5701 C   0  0  0  0  0  0  0  0  0  0  0  0
  144.5563  134.0030  152.3194 N   0  0  0  0  0  0  0  0  0  0  0  0
  147.6259  135.7333  154.1022 N   0  0  0  0  0  0  0  0  0  0  0  0
  147.6630  136.5619  155.1581 C   0  0  0  0  0  0  0  0  0  0  0  0
  146.9383  136.4375  156.1456 O   0  0  0  0  0  0  0  0  0  0  0  0
  148.6679  137.7120  155.0852 C   0  0  0  0  0  0  0  0  0  0  0  0
  150.1039  137.2082  154.8512 C   0  0  0  0  0  0  0  0  0  0  0  0
  151.1356  138.3508  154.7741 C   0  0  1  0  0  0  0  0  0  0  0  0
  151.2278  139.0611  156.0317 N   0  0  0  0  0  0  0  0  0  0  0  0
  152.4712  139.0459  156.5077 C   0  0  0  0  0  0  0  0  0  0  0  0
  152.7693  139.6164  157.5547 O   0  0  0  0  0  0  0  0  0  0  0  0
  153.2731  138.3380  155.6889 N   0  5  0  0  0  0  0  0  0  0  0  0
  152.5785  137.8674  154.6304 C   0  0  0  0  0  0  0  0  0  0  0  0
  152.9475  137.1827  153.6775 O   0  0  0  0  0  0  0  0  0  0  0  0
  146.1999  132.8024  155.0523 H   0  0  0  0  0  0  0  0  0  0  0  0
  146.6944  134.1496  156.0690 H   0  0  0  0  0  0  0  0  0  0  0  0
  147.9024  133.2413  155.1624 H   0  0  0  0  0  0  0  0  0  0  0  0
  145.6805  134.9520  153.9566 H   0  0  0  0  0  0  0  0  0  0  0  0
  147.5219  134.5281  151.9112 H   0  0  0  0  0  0  0  0  0  0  0  0
  147.5795  132.9974  152.7537 H   0  0  0  0  0  0  0  0  0  0  0  0
  146.4066  131.9692  150.5421 H   0  0  0  0  0  0  0  0  0  0  0  0
  143.7440  131.7965  149.9673 H   0  0  0  0  0  0  0  0  0  0  0  0
  142.6144  133.6532  151.6877 H   0  0  0  0  0  0  0  0  0  0  0  0
  148.2575  135.9211  153.3372 H   0  0  0  0  0  0  0  0  0  0  0  0
  148.3703  138.3762  154.2732 H   0  0  0  0  0  0  0  0  0  0  0  0
  148.6208  138.3008  156.0024 H   0  0  0  0  0  0  0  0  0  0  0  0
  150.3835  136.5058  155.6390 H   0  0  0  0  0  0  0  0  0  0  0  0
  150.1364  136.6433  153.9182 H   0  0  0  0  0  0  0  0  0  0  0  0
  150.8995  139.0454  153.9667 H   0  0  0  0  0  0  0  0  0  0  0  0
  150.4470  139.5289  156.4676 H   0  0  0  0  0  0  0  0  0  0  0  0
  1  2  1  0  0  0  0
  1 21  1  0  0  0  0
  1 22  1  0  0  0  0
  1 23  1  0  0  0  0
  2  3  1  0  0  0  0
  2  9  1  0  0  0  0
  2 24  1  0  0  0  0
  3  4  1  0  0  0  0
  3 25  1  0  0  0  0
  3 26  1  0  0  0  0
  4  8  1  0  0  0  0
  4  5  1  0  0  0  0
  5  6  2  0  0  0  0
  5 27  1  0  0  0  0
  6  7  1  0  0  0  0
  6 28  1  0  0  0  0
  7  8  2  0  0  0  0
  7 29  1  0  0  0  0
  9 10  1  0  0  0  0
  9 30  1  0  0  0  0
 10 11  2  0  0  0  0
 10 12  1  0  0  0  0
 12 13  1  0  0  0  0
 12 31  1  0  0  0  0
 12 32  1  0  0  0  0
 13 14  1  0  0  0  0
 13 33  1  0  0  0  0
 13 34  1  0  0  0  0
 14 19  1  0  0  0  0
 14 15  1  0  0  0  0
 14 35  1  0  0  0  0
 15 16  1  0  0  0  0
 15 36  1  0  0  0  0
 16 17  2  0  0  0  0
 16 18  1  0  0  0  0
 18 19  1  0  0  0  0
 19 20  2  0  0  0  0
M  CHG  1  18  -1
M  END
> <s_m_source_file>
AV-unprocessed.smi

> <i_m_source_file_index>
1196

> <i_lp_mmshare_version>
43012

> <i_f3d_flags>
0

> <s_epik_input>
bjFbY0hdW2NIXVtjSF1uMVtDSDJdW0NAQEhdKFtDSDNdKVtOSF1DKD1PKVtDSDJdW0NIMl1bQ0BASF0yW05IXUMoPU8pW05IXUMyPU8=

> <s_epik_cmdline>
J2VwaWtfcHl0aG9uJywgJy1waCcsICc3LjAnLCAnLXRuJywgJzgnLCAnLW1hJywgJzIwMCcsICctbWV0YWxfYmluZGluZycsICctaW1hZScsICc8aW5maWxlLm1hZT4nLCAnLW9tYWUnLCAnPG91dGZpbGUubWFlPic=

> <r_lp_tautomer_probability>
1

> <r_epik_Ionization_Penalty>
2.57056

> <r_epik_Ionization_Penalty_Charging>
2.57023

> <r_epik_Ionization_Penalty_Neutral>
0.000331301

> <r_epik_State_Penalty>
2.56828

> <r_epik_Charging_Adjusted_Penalty>
5.13851

> <i_epik_Tot_Q>
-1

> <i_epik_Tot_abs_Q>
1

> <r_epik_Metal_State_Penalty>
0.444883

> <b_epik_Metal_Only>
1

> <s_lp_Force_Field>
OPLS_2005

> <r_lp_Energy>
7.37265

> <b_lp_Chiralities_Consistent>
1

> <s_lp_Variant>
AV-unprocessed.smi:1196-11

> <Gold.Version>
5.8.1

> <Gold.Id.Protein>
6NUR|6NUR_protein|mol2

> <Gold.PLP.Fitness>
42.8366

> <Gold.PLP.PLP>
-27.6721

> <Gold.PLP.part.hbond>
-2.9348

> <Gold.PLP.part.metal>
0.0000

> <Gold.PLP.part.buried>
-3.3786

> <Gold.PLP.part.nonpolar>
-21.1419

> <Gold.PLP.part.repulsive>
0.3211

> <Gold.PLP.ligand.clash>
0.0000

> <Gold.PLP.ligand.torsion>
0.8147

> <Gold.PLP.Chemscore.Hbond>
3.5600

> <Gold.PLP.Chemscore.CHOScore>
2.0000

> <Gold.PLP.Chemscore.Metal>
0.0000

> <Gold.Chemscore.Hbonds>
donor molecule, donor type, donor heavy atom, donor atom, acceptor molecule, acceptor atom, score
      L1  H     9    30       P1  7948  1.00
      P1  H  7997  8010       L1    17  0.05
      P1  H 10752 10765       L1    20  0.49
      L1  C     5    27       P1 10747  0.31
      L1  C     7    29       P1 10186  0.35

> <Gold.PLP.Chemscore.Internal.Correction>
0.1140

> <Gold.Rescore>
     Score         DG    S(hbond)    S(metal)    S(lipo)     H(rot)  DE(clash)    DE(int)     intcor
     10.28     -11.05       2.29        0.00      45.47       2.89       0.04       0.74       ----

> <Gold.Chemscore.Fitness>
10.2768

> <Gold.Chemscore.DG>
-11.0527

> <Gold.Chemscore.ZeroCoef>
-5.4800

> <Gold.Chemscore.Hbond>
2.2941

> <Gold.Chemscore.Metal>
0.0000

> <Gold.Chemscore.Lipo>
45.4746

> <Gold.Chemscore.Internal_Hbond>
0.0000

> <Gold.Chemscore.DEClash>
0.0402

> <Gold.Chemscore.DEInternal>
0.7357

> <Gold.Chemscore.Rot>
2.8946

> <Gold.Chemscore.Internal.Correction>
   9.000000E+99

> <Gold.Chemscore.Hbonds>
donor molecule, donor type, donor heavy atom, donor atom, acceptor molecule, acceptor atom, score
      L1  H     9    30       P1  7948  1.00
      P1  H 10752 10765       L1    20  0.32

> <Gold.Chemscore.Hbond.Weighted>
-7.6623

> <Gold.Chemscore.Metal.Weighted>
-0.0000

> <Gold.Chemscore.Lipo.Weighted>
-5.3205

> <Gold.Chemscore.Internal_Hbond.Weighted>
0.0000

> <Gold.Chemscore.DEClash.Weighted>
0.0402

> <Gold.Chemscore.DEInternal.Weighted>
0.7357

> <Gold.Chemscore.Rot.Weighted>
7.4101

> <Gold.Chemscore.Internal.Correction.Weighted>
   9.000000E+99

> <Gold.Protein.RotatedTorsions>
[ 6907 6896 6895 6894 ] final -125.47 input  -60.11 | X-H torsion
[ 7974 7965 7964 7962 ] final  -81.30 input  175.53 | X-H torsion
[ 8008 7997 7996 7995 ] final   73.09 input   59.86 | X-H torsion
[ 10167 10162 10161 10158 ] final  -47.78 input  -65.29 | X-H torsion
[ 10718 10713 10712 10709 ] final -176.81 input   66.30 | X-H torsion
[ 10763 10752 10751 10750 ] final  151.85 input  -60.55 | X-H torsion
[ 11005 11000 10999 10996 ] final  -97.43 input  -57.11 | X-H torsion

> <Gold.Protein.ActiveResidues>
 VAL166  LYS551  ARG553  GLY616  TRP617  ASP618  TYR619  PRO620  LYS621  CYS622 
 ASP623  PHE694  ASN695  SER759  ASP760  ASP761  ALA762  ILE779  LEU786  VAL792 
 PHE793  MET794  SER795  GLU796  ALA797  LYS798  CYS799  TRP800  GLU811  SER814 

> <Gold.Protein.RotatedAtoms>
  150.8871  133.7293  159.2915 H   0  0  0  0  0  0  0  0  0  0  0  0  # atno 6907 bound_to 6896
  151.4855  135.1053  159.9799 H   0  0  0  0  0  0  0  0  0  0  0  0  # atno 6908 bound_to 6896
  152.4797  133.8177  159.7092 H   0  0  0  0  0  0  0  0  0  0  0  0  # atno 6909 bound_to 6896
  145.5485  140.9500  143.1512 H   0  0  0  0  0  0  0  0  0  0  0  0  # atno 7974 bound_to 7965
  155.7786  140.3482  155.5285 H   0  0  0  0  0  0  0  0  0  0  0  0  # atno 8008 bound_to 7997
  155.8751  140.0993  157.1544 H   0  0  0  0  0  0  0  0  0  0  0  0  # atno 8009 bound_to 7997
  154.4020  140.1333  156.4114 H   0  0  0  0  0  0  0  0  0  0  0  0  # atno 8010 bound_to 7997
  140.6760  143.2769  151.3976 H   0  0  0  0  0  0  0  0  0  0  0  0  # atno 10167 bound_to 10162
  156.8201  130.9617  151.3112 H   0  0  0  0  0  0  0  0  0  0  0  0  # atno 10718 bound_to 10713
  154.1105  135.2839  155.3231 H   0  0  0  0  0  0  0  0  0  0  0  0  # atno 10763 bound_to 10752
  154.6493  135.5374  153.7886 H   0  0  0  0  0  0  0  0  0  0  0  0  # atno 10764 bound_to 10752
  153.0347  135.6506  154.1264 H   0  0  0  0  0  0  0  0  0  0  0  0  # atno 10765 bound_to 10752
  141.1379  133.8170  157.0705 H   0  0  0  0  0  0  0  0  0  0  0  0  # atno 11005 bound_to 11000
  144.7541  139.7119  143.7261 LP  0  0  0  0  0  0  0  0  0  0  0  0  # atno 17320 bound_to 7965
  146.1933  139.5185  142.9791 LP  0  0  0  0  0  0  0  0  0  0  0  0  # atno 17321 bound_to 7965
  139.6053  144.1211  152.2242 LP  0  0  0  0  0  0  0  0  0  0  0  0  # atno 17342 bound_to 10162
  140.0608  144.5858  150.7265 LP  0  0  0  0  0  0  0  0  0  0  0  0  # atno 17343 bound_to 10162
  157.6461  130.8845  149.9541 LP  0  0  0  0  0  0  0  0  0  0  0  0  # atno 17370 bound_to 10713
  156.0993  130.3657  150.0247 LP  0  0  0  0  0  0  0  0  0  0  0  0  # atno 17371 bound_to 10713
  140.0514  134.9803  157.1143 LP  0  0  0  0  0  0  0  0  0  0  0  0  # atno 17394 bound_to 11000
  140.3984  134.2109  155.7164 LP  0  0  0  0  0  0  0  0  0  0  0  0  # atno 17395 bound_to 11000

$$$$
