AV-unprocessed.smi:1295|AV-procd|sdf|5410|dock5
  -GOLD-   22720 4563D 1   1.00000     0.00000
 Structure written by MMmdl.
 42 43  0  0  0  0  0  0  0  0  2 V2000
  147.6154  141.4974  153.5916 C   0  0  0  0  0  0  0  0  0  0  0  0
  148.4342  141.0208  154.7720 C   0  0  0  0  0  0  0  0  0  0  0  0
  149.6285  140.6078  154.5779 N   0  0  0  0  0  0  0  0  0  0  0  0
  150.3945  140.1686  155.6709 C   0  0  0  0  0  0  0  0  0  0  0  0
  151.8048  139.7051  155.3482 C   0  0  0  0  0  0  0  0  0  0  0  0
  149.8850  140.1707  156.9363 C   0  0  0  0  0  0  0  0  0  0  0  0
  150.6830  139.7139  158.1572 C   0  0  0  0  0  0  0  0  0  0  0  0
  152.0064  140.4439  158.3958 C   0  0  0  0  0  0  0  0  0  0  0  0
  153.0741  139.9114  158.0935 O   0  0  0  0  0  0  0  0  0  0  0  0
  151.9144  141.6690  158.9359 N   0  0  0  0  0  0  0  0  0  0  0  0
  153.0251  142.5829  159.2080 C   0  0  1  0  0  0  0  0  0  0  0  0
  152.5192  144.0387  159.1589 C   0  0  0  0  0  0  0  0  0  0  0  0
  151.5979  144.3741  160.3451 C   0  0  0  0  0  0  0  0  0  0  0  0
  152.2866  144.0755  161.6853 C   0  0  0  0  0  0  0  0  0  0  0  0
  152.7778  142.6203  161.7505 C   0  0  0  0  0  0  0  0  0  0  0  0
  153.7074  142.2801  160.5670 C   0  0  1  0  0  0  0  0  0  0  0  0
  154.2471  140.8431  160.6662 C   0  0  0  0  0  0  0  0  0  0  0  0
  148.5014  140.6466  157.1160 C   0  0  0  0  0  0  0  0  0  0  0  0
  147.9871  140.6555  158.2337 O   0  0  0  0  0  0  0  0  0  0  0  0
  147.8279  141.0666  156.0071 N   0  5  0  0  0  0  0  0  0  0  0  0
  148.1075  141.2549  152.6488 H   0  0  0  0  0  0  0  0  0  0  0  0
  147.4804  142.5781  153.6403 H   0  0  0  0  0  0  0  0  0  0  0  0
  146.6326  141.0249  153.5940 H   0  0  0  0  0  0  0  0  0  0  0  0
  152.5391  140.3438  155.8392 H   0  0  0  0  0  0  0  0  0  0  0  0
  151.9953  139.7394  154.2749 H   0  0  0  0  0  0  0  0  0  0  0  0
  151.9585  138.6783  155.6799 H   0  0  0  0  0  0  0  0  0  0  0  0
  150.0481  139.8330  159.0359 H   0  0  0  0  0  0  0  0  0  0  0  0
  150.8897  138.6445  158.1119 H   0  0  0  0  0  0  0  0  0  0  0  0
  150.9903  142.0105  159.1564 H   0  0  0  0  0  0  0  0  0  0  0  0
  153.7749  142.4776  158.4221 H   0  0  0  0  0  0  0  0  0  0  0  0
  153.3751  144.7147  159.1714 H   0  0  0  0  0  0  0  0  0  0  0  0
  152.0006  144.2262  158.2177 H   0  0  0  0  0  0  0  0  0  0  0  0
  151.3074  145.4241  160.3032 H   0  0  0  0  0  0  0  0  0  0  0  0
  150.6745  143.7983  160.2716 H   0  0  0  0  0  0  0  0  0  0  0  0
  153.1310  144.7524  161.8206 H   0  0  0  0  0  0  0  0  0  0  0  0
  151.5990  144.2724  162.5082 H   0  0  0  0  0  0  0  0  0  0  0  0
  153.3020  142.4578  162.6929 H   0  0  0  0  0  0  0  0  0  0  0  0
  151.9210  141.9451  161.7572 H   0  0  0  0  0  0  0  0  0  0  0  0
  154.5728  142.9407  160.6396 H   0  0  0  0  0  0  0  0  0  0  0  0
  153.4423  140.1079  160.6644 H   0  0  0  0  0  0  0  0  0  0  0  0
  154.8166  140.7021  161.5851 H   0  0  0  0  0  0  0  0  0  0  0  0
  154.9091  140.6151  159.8304 H   0  0  0  0  0  0  0  0  0  0  0  0
  1  2  1  0  0  0  0
  1 21  1  0  0  0  0
  1 22  1  0  0  0  0
  1 23  1  0  0  0  0
  2 20  1  0  0  0  0
  2  3  2  0  0  0  0
  3  4  1  0  0  0  0
  4  5  1  0  0  0  0
  4  6  2  0  0  0  0
  5 24  1  0  0  0  0
  5 25  1  0  0  0  0
  5 26  1  0  0  0  0
  6  7  1  0  0  0  0
  6 18  1  0  0  0  0
  7  8  1  0  0  0  0
  7 27  1  0  0  0  0
  7 28  1  0  0  0  0
  8  9  2  0  0  0  0
  8 10  1  0  0  0  0
 10 11  1  0  0  0  0
 10 29  1  0  0  0  0
 11 16  1  0  0  0  0
 11 12  1  0  0  0  0
 11 30  1  0  0  0  0
 12 13  1  0  0  0  0
 12 31  1  0  0  0  0
 12 32  1  0  0  0  0
 13 14  1  0  0  0  0
 13 33  1  0  0  0  0
 13 34  1  0  0  0  0
 14 15  1  0  0  0  0
 14 35  1  0  0  0  0
 14 36  1  0  0  0  0
 15 16  1  0  0  0  0
 15 37  1  0  0  0  0
 15 38  1  0  0  0  0
 16 17  1  0  0  0  0
 16 39  1  0  0  0  0
 17 40  1  0  0  0  0
 17 41  1  0  0  0  0
 17 42  1  0  0  0  0
 18 19  2  0  0  0  0
 18 20  1  0  0  0  0
M  CHG  1  20  -1
M  END
> <s_m_source_file>
AV-unprocessed.smi

> <i_m_source_file_index>
1295

> <i_lp_mmshare_version>
43012

> <i_f3d_flags>
0

> <s_epik_input>
W0NIM11jMW5jKFtDSDNdKWMoYyg9TylbbkhdMSlbQ0gyXUMoPU8pW05IXVtDQEBIXTJbQ0gyXVtDSDJdW0NIMl1bQ0gyXVtDQEhdMltDSDNd

> <s_epik_cmdline>
J2VwaWtfcHl0aG9uJywgJy1waCcsICc3LjAnLCAnLXRuJywgJzgnLCAnLW1hJywgJzIwMCcsICctbWV0YWxfYmluZGluZycsICctaW1hZScsICc8aW5maWxlLm1hZT4nLCAnLW9tYWUnLCAnPG91dGZpbGUubWFlPic=

> <r_lp_tautomer_probability>
0.839158

> <r_epik_Ionization_Penalty>
6.67742

> <r_epik_Ionization_Penalty_Charging>
7.78154e-08

> <r_epik_Ionization_Penalty_Neutral>
6.67742

> <r_epik_State_Penalty>
4.51991

> <r_epik_Charging_Adjusted_Penalty>
4.51991

> <i_epik_Tot_Q>
-1

> <i_epik_Tot_abs_Q>
1

> <r_epik_Metal_State_Penalty>
0.853272

> <b_epik_Metal_Only>
1

> <s_lp_Force_Field>
OPLS_2005

> <r_lp_Energy>
15.7399

> <b_lp_Chiralities_Consistent>
1

> <s_lp_Variant>
AV-unprocessed.smi:1295-10

> <Gold.Version>
5.8.1

> <Gold.Id.Protein>
6NUR|6NUR_protein|mol2

> <Gold.PLP.Fitness>
47.7140

> <Gold.PLP.PLP>
-44.3377

> <Gold.PLP.part.hbond>
-3.0000

> <Gold.PLP.part.metal>
0.0000

> <Gold.PLP.part.buried>
-2.9594

> <Gold.PLP.part.nonpolar>
-36.9274

> <Gold.PLP.part.repulsive>
0.2709

> <Gold.PLP.ligand.clash>
0.0000

> <Gold.PLP.ligand.torsion>
0.6007

> <Gold.PLP.Chemscore.Hbond>
1.5234

> <Gold.PLP.Chemscore.CHOScore>
0.0000

> <Gold.PLP.Chemscore.Metal>
0.0000

> <Gold.Chemscore.Hbonds>
donor molecule, donor type, donor heavy atom, donor atom, acceptor molecule, acceptor atom, score
      P1  H  7989  7998       L1     3  0.10
      P1  H  7997  8010       L1     9  1.00

> <Gold.PLP.Chemscore.Internal.Correction>
0.0075

> <Gold.Rescore>
     Score         DG    S(hbond)    S(metal)    S(lipo)     H(rot)  DE(clash)    DE(int)     intcor
     18.05     -18.32       0.99        0.00     113.24       1.45       0.06       0.22       ----

> <Gold.Chemscore.Fitness>
18.0456

> <Gold.Chemscore.DG>
-18.3236

> <Gold.Chemscore.ZeroCoef>
-5.4800

> <Gold.Chemscore.Hbond>
0.9861

> <Gold.Chemscore.Metal>
0.0000

> <Gold.Chemscore.Lipo>
113.2422

> <Gold.Chemscore.Internal_Hbond>
0.0000

> <Gold.Chemscore.DEClash>
0.0550

> <Gold.Chemscore.DEInternal>
0.2230

> <Gold.Chemscore.Rot>
1.4450

> <Gold.Chemscore.Internal.Correction>
   9.000000E+99

> <Gold.Chemscore.Hbonds>
donor molecule, donor type, donor heavy atom, donor atom, acceptor molecule, acceptor atom, score
      P1  H  7997  8010       L1     9  0.98

> <Gold.Chemscore.Hbond.Weighted>
-3.2934

> <Gold.Chemscore.Metal.Weighted>
-0.0000

> <Gold.Chemscore.Lipo.Weighted>
-13.2493

> <Gold.Chemscore.Internal_Hbond.Weighted>
0.0000

> <Gold.Chemscore.DEClash.Weighted>
0.0550

> <Gold.Chemscore.DEInternal.Weighted>
0.2230

> <Gold.Chemscore.Rot.Weighted>
3.6992

> <Gold.Chemscore.Internal.Correction.Weighted>
   9.000000E+99

> <Gold.Protein.RotatedTorsions>
[ 6907 6896 6895 6894 ] final -149.17 input  -60.11 | X-H torsion
[ 7974 7965 7964 7962 ] final  -36.07 input  175.53 | X-H torsion
[ 8008 7997 7996 7995 ] final   42.89 input   59.86 | X-H torsion
[ 10167 10162 10161 10158 ] final  -55.39 input  -65.29 | X-H torsion
[ 10718 10713 10712 10709 ] final   13.45 input   66.30 | X-H torsion
[ 10763 10752 10751 10750 ] final  154.63 input  -60.55 | X-H torsion
[ 11005 11000 10999 10996 ] final  133.14 input  -57.11 | X-H torsion

> <Gold.Protein.ActiveResidues>
 VAL166  LYS551  ARG553  GLY616  TRP617  ASP618  TYR619  PRO620  LYS621  CYS622 
 ASP623  PHE694  ASN695  SER759  ASP760  ASP761  ALA762  ILE779  LEU786  VAL792 
 PHE793  MET794  SER795  GLU796  ALA797  LYS798  CYS799  TRP800  GLU811  SER814 

> <Gold.Protein.RotatedAtoms>
  151.1803  133.4729  159.2593 H   0  0  0  0  0  0  0  0  0  0  0  0  # atno 6907 bound_to 6896
  151.1266  135.0108  159.8573 H   0  0  0  0  0  0  0  0  0  0  0  0  # atno 6908 bound_to 6896
  152.5458  134.1709  159.8649 H   0  0  0  0  0  0  0  0  0  0  0  0  # atno 6909 bound_to 6896
  146.0692  140.6235  142.8960 H   0  0  0  0  0  0  0  0  0  0  0  0  # atno 7974 bound_to 7965
  155.2937  140.3380  155.4251 H   0  0  0  0  0  0  0  0  0  0  0  0  # atno 8008 bound_to 7997
  156.2034  140.1741  156.7891 H   0  0  0  0  0  0  0  0  0  0  0  0  # atno 8009 bound_to 7997
  154.5589  140.0691  156.8771 H   0  0  0  0  0  0  0  0  0  0  0  0  # atno 8010 bound_to 7997
  140.6377  143.2491  151.5073 H   0  0  0  0  0  0  0  0  0  0  0  0  # atno 10167 bound_to 10162
  157.0249  130.6169  149.5726 H   0  0  0  0  0  0  0  0  0  0  0  0  # atno 10718 bound_to 10713
  154.1554  135.2812  155.3123 H   0  0  0  0  0  0  0  0  0  0  0  0  # atno 10763 bound_to 10752
  154.6186  135.5475  153.7554 H   0  0  0  0  0  0  0  0  0  0  0  0  # atno 10764 bound_to 10752
  153.0208  135.6433  154.1697 H   0  0  0  0  0  0  0  0  0  0  0  0  # atno 10765 bound_to 10752
  139.9833  134.9540  156.9683 H   0  0  0  0  0  0  0  0  0  0  0  0  # atno 11005 bound_to 11000
  144.7221  140.4408  143.7000 LP  0  0  0  0  0  0  0  0  0  0  0  0  # atno 17320 bound_to 7965
  145.6421  139.1551  143.2909 LP  0  0  0  0  0  0  0  0  0  0  0  0  # atno 17321 bound_to 7965
  139.5587  144.2210  152.1656 LP  0  0  0  0  0  0  0  0  0  0  0  0  # atno 17342 bound_to 10162
  140.1472  144.5148  150.6709 LP  0  0  0  0  0  0  0  0  0  0  0  0  # atno 17343 bound_to 10162
  156.0089  130.5179  150.7924 LP  0  0  0  0  0  0  0  0  0  0  0  0  # atno 17370 bound_to 10713
  157.5222  131.0932  151.0064 LP  0  0  0  0  0  0  0  0  0  0  0  0  # atno 17371 bound_to 10713
  140.5052  134.1057  155.7258 LP  0  0  0  0  0  0  0  0  0  0  0  0  # atno 17394 bound_to 11000
  141.1502  133.8982  157.2116 LP  0  0  0  0  0  0  0  0  0  0  0  0  # atno 17395 bound_to 11000

$$$$
