AV-unprocessed.smi:3226|AV-procd|sdf|12315|dock9
  -GOLD-   2272018163D 1   1.00000     0.00000
 Structure written by MMmdl.
 41 43  0  0  0  0  0  0  0  0  2 V2000
  145.9804  143.1432  158.1676 C   0  0  0  0  0  0  0  0  0  0  0  0
  145.7626  142.0051  157.1641 C   0  0  0  0  0  0  0  0  0  0  0  0
  146.0066  142.4308  155.7490 C   0  0  0  0  0  0  0  0  0  0  0  0
  145.2869  143.3752  155.1314 N   0  0  0  0  0  0  0  0  0  0  0  0
  145.8341  143.4970  153.8700 N   0  0  0  0  0  0  0  0  0  0  0  0
  146.8366  142.6207  153.8543 C   0  0  0  0  0  0  0  0  0  0  0  0
  146.9977  141.9200  154.9877 N   0  0  0  0  0  0  0  0  0  0  0  0
  147.9891  140.8988  155.2819 C   0  0  0  0  0  0  0  0  0  0  0  0
  149.4159  141.4684  155.3401 C   0  0  0  0  0  0  0  0  0  0  0  0
  149.6024  142.3585  156.5039 N   0  3  0  0  0  0  0  0  0  0  0  0
  150.9961  142.4376  156.9823 C   0  0  0  0  0  0  0  0  0  0  0  0
  151.0523  142.6304  158.5095 C   0  0  2  0  0  0  0  0  0  0  0  0
  150.1613  143.8001  159.0295 C   0  0  0  0  0  0  0  0  0  0  0  0
  151.1477  144.6411  159.8725 C   0  0  2  0  0  0  0  0  0  0  0  0
  152.1427  145.2726  158.9227 C   0  0  0  0  0  0  0  0  0  0  0  0
  152.9201  144.2949  158.4550 C   0  0  0  0  0  0  0  0  0  0  0  0
  152.4465  143.0006  159.0859 C   0  0  1  0  0  0  0  0  0  0  0  0
  152.0149  143.5237  160.4614 C   0  0  0  0  0  0  0  0  0  0  0  0
  145.7948  142.8035  159.1866 H   0  0  0  0  0  0  0  0  0  0  0  0
  145.3083  143.9784  157.9674 H   0  0  0  0  0  0  0  0  0  0  0  0
  147.0031  143.5183  158.1228 H   0  0  0  0  0  0  0  0  0  0  0  0
  146.4041  141.1598  157.4113 H   0  0  0  0  0  0  0  0  0  0  0  0
  144.7378  141.6404  157.2445 H   0  0  0  0  0  0  0  0  0  0  0  0
  147.4690  142.4833  152.9894 H   0  0  0  0  0  0  0  0  0  0  0  0
  147.7302  140.4205  156.2277 H   0  0  0  0  0  0  0  0  0  0  0  0
  147.9259  140.1230  154.5185 H   0  0  0  0  0  0  0  0  0  0  0  0
  150.1292  140.6461  155.4089 H   0  0  0  0  0  0  0  0  0  0  0  0
  149.6470  142.0138  154.4242 H   0  0  0  0  0  0  0  0  0  0  0  0
  149.2966  143.2877  156.2518 H   0  0  0  0  0  0  0  0  0  0  0  0
  151.5375  141.5401  156.6813 H   0  0  0  0  0  0  0  0  0  0  0  0
  151.4865  143.2795  156.4917 H   0  0  0  0  0  0  0  0  0  0  0  0
  150.7151  141.7064  158.9831 H   0  0  0  0  0  0  0  0  0  0  0  0
  149.7202  144.3882  158.2231 H   0  0  0  0  0  0  0  0  0  0  0  0
  149.3455  143.4188  159.6451 H   0  0  0  0  0  0  0  0  0  0  0  0
  150.7057  145.3262  160.5962 H   0  0  0  0  0  0  0  0  0  0  0  0
  152.1718  146.3215  158.6669 H   0  0  0  0  0  0  0  0  0  0  0  0
  153.7207  144.3739  157.7343 H   0  0  0  0  0  0  0  0  0  0  0  0
  153.1888  142.2023  159.1084 H   0  0  0  0  0  0  0  0  0  0  0  0
  152.8496  143.9009  161.0561 H   0  0  0  0  0  0  0  0  0  0  0  0
  151.4571  142.7994  161.0587 H   0  0  0  0  0  0  0  0  0  0  0  0
  149.0253  142.0225  157.2616 H   0  0  0  0  0  0  0  0  0  0  0  0
  1  2  1  0  0  0  0
  1 19  1  0  0  0  0
  1 20  1  0  0  0  0
  1 21  1  0  0  0  0
  2  3  1  0  0  0  0
  2 22  1  0  0  0  0
  2 23  1  0  0  0  0
  3  7  1  0  0  0  0
  3  4  2  0  0  0  0
  4  5  1  0  0  0  0
  5  6  2  0  0  0  0
  6  7  1  0  0  0  0
  6 24  1  0  0  0  0
  7  8  1  0  0  0  0
  8  9  1  0  0  0  0
  8 25  1  0  0  0  0
  8 26  1  0  0  0  0
  9 10  1  0  0  0  0
  9 27  1  0  0  0  0
  9 28  1  0  0  0  0
 10 11  1  0  0  0  0
 10 29  1  0  0  0  0
 10 41  1  0  0  0  0
 11 12  1  0  0  0  0
 11 30  1  0  0  0  0
 11 31  1  0  0  0  0
 12 17  1  0  0  0  0
 12 13  1  0  0  0  0
 12 32  1  0  0  0  0
 13 14  1  0  0  0  0
 13 33  1  0  0  0  0
 13 34  1  0  0  0  0
 14 18  1  0  0  0  0
 14 15  1  0  0  0  0
 14 35  1  0  0  0  0
 15 16  2  0  0  0  0
 15 36  1  0  0  0  0
 16 17  1  0  0  0  0
 16 37  1  0  0  0  0
 17 18  1  0  0  0  0
 17 38  1  0  0  0  0
 18 39  1  0  0  0  0
 18 40  1  0  0  0  0
M  CHG  1  10   1
M  END
> <s_m_source_file>
AV-unprocessed.smi

> <i_m_source_file_index>
3226

> <i_lp_mmshare_version>
43012

> <i_f3d_flags>
0

> <s_epik_input>
W0NIM11bQ0gyXWMxbm5bY0hdbjFbQ0gyXVtDSDJdW05IXVtDSDJdW0NASF0oW0NIMl1bQ0BASF0yMylbQ0BASF0oW0NIMl0zKVtDSF09W0NIXTI=

> <s_epik_cmdline>
J2VwaWtfcHl0aG9uJywgJy1waCcsICc3LjAnLCAnLXRuJywgJzgnLCAnLW1hJywgJzIwMCcsICctbWV0YWxfYmluZGluZycsICctaW1hZScsICc8aW5maWxlLm1hZT4nLCAnLW9tYWUnLCAnPG91dGZpbGUubWFlPic=

> <r_lp_tautomer_probability>
1

> <r_epik_Ionization_Penalty>
0.00175008

> <r_epik_Ionization_Penalty_Charging>
0.00173932

> <r_epik_Ionization_Penalty_Neutral>
1.07546e-05

> <r_epik_State_Penalty>
-0

> <r_epik_Charging_Adjusted_Penalty>
0.00173932

> <i_epik_Tot_Q>
1

> <i_epik_Tot_abs_Q>
1

> <r_epik_Metal_State_Penalty>
-0

> <b_epik_Metal_Only>
0

> <s_lp_Force_Field>
OPLS_2005

> <r_lp_Energy>
64.9624

> <b_lp_Chiralities_Consistent>
1

> <s_lp_Variant>
AV-unprocessed.smi:3226-3

> <Gold.Version>
5.8.1

> <Gold.Id.Protein>
6NUR|6NUR_protein|mol2

> <Gold.PLP.Fitness>
45.3721

> <Gold.PLP.PLP>
-40.3191

> <Gold.PLP.part.hbond>
-1.0000

> <Gold.PLP.part.metal>
0.0000

> <Gold.PLP.part.buried>
-7.7206

> <Gold.PLP.part.nonpolar>
-33.1911

> <Gold.PLP.part.repulsive>
0.4680

> <Gold.PLP.ligand.clash>
0.0000

> <Gold.PLP.ligand.torsion>
0.5023

> <Gold.PLP.Chemscore.Hbond>
2.0000

> <Gold.PLP.Chemscore.CHOScore>
0.0000

> <Gold.PLP.Chemscore.Metal>
0.0000

> <Gold.Chemscore.Hbonds>
donor molecule, donor type, donor heavy atom, donor atom, acceptor molecule, acceptor atom, score
      L1  H    10    29       P1  8028  2.00

> <Gold.PLP.Chemscore.Internal.Correction>
0.0576

> <Gold.Rescore>
     Score         DG    S(hbond)    S(metal)    S(lipo)     H(rot)  DE(clash)    DE(int)     intcor
     15.20     -15.71       0.99        0.00     104.41       2.06       0.07       0.43       ----

> <Gold.Chemscore.Fitness>
15.2024

> <Gold.Chemscore.DG>
-15.7106

> <Gold.Chemscore.ZeroCoef>
-5.4800

> <Gold.Chemscore.Hbond>
0.9863

> <Gold.Chemscore.Metal>
0.0000

> <Gold.Chemscore.Lipo>
104.4089

> <Gold.Chemscore.Internal_Hbond>
0.0000

> <Gold.Chemscore.DEClash>
0.0734

> <Gold.Chemscore.DEInternal>
0.4348

> <Gold.Chemscore.Rot>
2.0623

> <Gold.Chemscore.Internal.Correction>
   9.000000E+99

> <Gold.Chemscore.Hbonds>
donor molecule, donor type, donor heavy atom, donor atom, acceptor molecule, acceptor atom, score
      L1  H    10    29       P1  8028  0.99

> <Gold.Chemscore.Hbond.Weighted>
-3.2944

> <Gold.Chemscore.Metal.Weighted>
-0.0000

> <Gold.Chemscore.Lipo.Weighted>
-12.2158

> <Gold.Chemscore.Internal_Hbond.Weighted>
0.0000

> <Gold.Chemscore.DEClash.Weighted>
0.0734

> <Gold.Chemscore.DEInternal.Weighted>
0.4348

> <Gold.Chemscore.Rot.Weighted>
5.2796

> <Gold.Chemscore.Internal.Correction.Weighted>
   9.000000E+99

> <Gold.Protein.RotatedTorsions>
[ 6907 6896 6895 6894 ] final   20.96 input  -60.11 | X-H torsion
[ 7974 7965 7964 7962 ] final   12.79 input  175.53 | X-H torsion
[ 8008 7997 7996 7995 ] final   -6.49 input   59.86 | X-H torsion
[ 10167 10162 10161 10158 ] final  -29.40 input  -65.29 | X-H torsion
[ 10718 10713 10712 10709 ] final   60.13 input   66.30 | X-H torsion
[ 10763 10752 10751 10750 ] final   86.67 input  -60.55 | X-H torsion
[ 11005 11000 10999 10996 ] final   80.05 input  -57.11 | X-H torsion

> <Gold.Protein.ActiveResidues>
 VAL166  LYS551  ARG553  GLY616  TRP617  ASP618  TYR619  PRO620  LYS621  CYS622 
 ASP623  PHE694  ASN695  SER759  ASP760  ASP761  ALA762  ILE779  LEU786  VAL792 
 PHE793  MET794  SER795  GLU796  ALA797  LYS798  CYS799  TRP800  GLU811  SER814 

> <Gold.Protein.RotatedAtoms>
  151.9044  135.0365  160.0508 H   0  0  0  0  0  0  0  0  0  0  0  0  # atno 6907 bound_to 6896
  152.2332  133.5070  159.5236 H   0  0  0  0  0  0  0  0  0  0  0  0  # atno 6908 bound_to 6896
  150.7031  134.1105  159.4041 H   0  0  0  0  0  0  0  0  0  0  0  0  # atno 6909 bound_to 6896
  146.2343  139.9284  142.8500 H   0  0  0  0  0  0  0  0  0  0  0  0  # atno 7974 bound_to 7965
  154.5933  140.2431  155.7891 H   0  0  0  0  0  0  0  0  0  0  0  0  # atno 8008 bound_to 7997
  156.2262  140.2982  156.0026 H   0  0  0  0  0  0  0  0  0  0  0  0  # atno 8009 bound_to 7997
  155.2337  140.0404  157.2956 H   0  0  0  0  0  0  0  0  0  0  0  0  # atno 8010 bound_to 7997
  140.7261  143.3931  151.1394 H   0  0  0  0  0  0  0  0  0  0  0  0  # atno 10167 bound_to 10162
  157.5729  130.8921  149.9297 H   0  0  0  0  0  0  0  0  0  0  0  0  # atno 10718 bound_to 10713
  153.1593  135.4572  154.9749 H   0  0  0  0  0  0  0  0  0  0  0  0  # atno 10763 bound_to 10752
  154.7885  135.3212  154.7833 H   0  0  0  0  0  0  0  0  0  0  0  0  # atno 10764 bound_to 10752
  153.8326  135.6937  153.4867 H   0  0  0  0  0  0  0  0  0  0  0  0  # atno 10765 bound_to 10752
  139.9149  134.7890  156.1858 H   0  0  0  0  0  0  0  0  0  0  0  0  # atno 11005 bound_to 11000
  145.2068  140.9878  143.4123 LP  0  0  0  0  0  0  0  0  0  0  0  0  # atno 17320 bound_to 7965
  144.9725  139.3865  143.6302 LP  0  0  0  0  0  0  0  0  0  0  0  0  # atno 17321 bound_to 7965
  139.7540  143.8736  152.3084 LP  0  0  0  0  0  0  0  0  0  0  0  0  # atno 17342 bound_to 10162
  139.8599  144.7122  150.9112 LP  0  0  0  0  0  0  0  0  0  0  0  0  # atno 17343 bound_to 10162
  156.0774  130.3677  150.0650 LP  0  0  0  0  0  0  0  0  0  0  0  0  # atno 17370 bound_to 10713
  156.8800  130.9553  151.3600 LP  0  0  0  0  0  0  0  0  0  0  0  0  # atno 17371 bound_to 10713
  141.0614  133.6840  156.1960 LP  0  0  0  0  0  0  0  0  0  0  0  0  # atno 17394 bound_to 11000
  140.6655  134.4923  157.5585 LP  0  0  0  0  0  0  0  0  0  0  0  0  # atno 17395 bound_to 11000

$$$$
