AV-unprocessed.smi:2541|AV-procd|sdf|9989|dock9
  -GOLD-   2272014 43D 1   1.00000     0.00000
 Structure written by MMmdl.
 38 39  0  0  0  0  0  0  0  0  1 V2000
  152.7736  139.2068  155.6779 O   0  0  0  0  0  0  0  0  0  0  0  0
  151.6199  139.1504  155.2485 C   0  0  0  0  0  0  0  0  0  0  0  0
  151.1105  137.9155  154.4935 C   0  0  0  0  0  0  0  0  0  0  0  0
  150.9644  136.7142  155.3926 C   0  0  0  0  0  0  0  0  0  0  0  0
  149.7872  135.9721  155.6898 C   0  0  0  0  0  0  0  0  0  0  0  0
  150.2275  135.0038  156.5451 C   0  0  0  0  0  0  0  0  0  0  0  0
  151.5624  135.1268  156.7555 O   0  0  0  0  0  0  0  0  0  0  0  0
  152.0249  136.2196  156.0133 N   0  0  0  0  0  0  0  0  0  0  0  0
  150.7303  140.1429  155.4064 N   0  0  0  0  0  0  0  0  0  0  0  0
  150.9929  141.4165  156.0708 C   0  0  0  0  0  0  0  0  0  0  0  0
  151.5226  141.2085  157.5082 C   0  0  2  0  0  0  0  0  0  0  0  0
  150.8319  140.0943  158.0439 O   0  0  0  0  0  0  0  0  0  0  0  0
  151.2940  142.4166  158.4587 C   0  0  0  0  0  0  0  0  0  0  0  0
  151.5335  143.7812  157.7661 C   0  0  0  0  0  0  0  0  0  0  0  0
  151.3310  144.9667  158.7241 C   0  0  0  0  0  0  0  0  0  0  0  0
  152.2244  144.8450  159.9648 C   0  0  0  0  0  0  0  0  0  0  0  0
  151.9840  143.5073  160.6754 C   0  0  0  0  0  0  0  0  0  0  0  0
  152.1938  142.3241  159.7175 C   0  0  0  0  0  0  0  0  0  0  0  0
  150.1494  138.1596  154.0400 H   0  0  0  0  0  0  0  0  0  0  0  0
  151.7932  137.6948  153.6714 H   0  0  0  0  0  0  0  0  0  0  0  0
  148.7795  136.1301  155.3355 H   0  0  0  0  0  0  0  0  0  0  0  0
  149.7375  134.1926  157.0631 H   0  0  0  0  0  0  0  0  0  0  0  0
  149.8056  140.0142  155.0221 H   0  0  0  0  0  0  0  0  0  0  0  0
  151.7416  141.9071  155.4523 H   0  0  0  0  0  0  0  0  0  0  0  0
  150.1193  142.0709  156.0648 H   0  0  0  0  0  0  0  0  0  0  0  0
  152.5876  140.9738  157.4761 H   0  0  0  0  0  0  0  0  0  0  0  0
  149.9248  140.3312  158.1634 H   0  0  0  0  0  0  0  0  0  0  0  0
  150.2539  142.3928  158.7882 H   0  0  0  0  0  0  0  0  0  0  0  0
  152.5433  143.8134  157.3545 H   0  0  0  0  0  0  0  0  0  0  0  0
  150.8525  143.9164  156.9278 H   0  0  0  0  0  0  0  0  0  0  0  0
  151.5425  145.9026  158.2060 H   0  0  0  0  0  0  0  0  0  0  0  0
  150.2852  145.0135  159.0303 H   0  0  0  0  0  0  0  0  0  0  0  0
  153.2723  144.9234  159.6725 H   0  0  0  0  0  0  0  0  0  0  0  0
  152.0294  145.6719  160.6484 H   0  0  0  0  0  0  0  0  0  0  0  0
  152.6550  143.4162  161.5300 H   0  0  0  0  0  0  0  0  0  0  0  0
  150.9692  143.4799  161.0741 H   0  0  0  0  0  0  0  0  0  0  0  0
  151.9991  141.4012  160.2639 H   0  0  0  0  0  0  0  0  0  0  0  0
  153.2416  142.2846  159.4168 H   0  0  0  0  0  0  0  0  0  0  0  0
  1  2  2  0  0  0  0
  2  3  1  0  0  0  0
  2  9  1  0  0  0  0
  3  4  1  0  0  0  0
  3 19  1  0  0  0  0
  3 20  1  0  0  0  0
  4  8  2  0  0  0  0
  4  5  1  0  0  0  0
  5  6  2  0  0  0  0
  5 21  1  0  0  0  0
  6  7  1  0  0  0  0
  6 22  1  0  0  0  0
  7  8  1  0  0  0  0
  9 10  1  0  0  0  0
  9 23  1  0  0  0  0
 10 11  1  0  0  0  0
 10 24  1  0  0  0  0
 10 25  1  0  0  0  0
 11 12  1  0  0  0  0
 11 13  1  0  0  0  0
 11 26  1  0  0  0  0
 12 27  1  0  0  0  0
 13 18  1  0  0  0  0
 13 14  1  0  0  0  0
 13 28  1  0  0  0  0
 14 15  1  0  0  0  0
 14 29  1  0  0  0  0
 14 30  1  0  0  0  0
 15 16  1  0  0  0  0
 15 31  1  0  0  0  0
 15 32  1  0  0  0  0
 16 17  1  0  0  0  0
 16 33  1  0  0  0  0
 16 34  1  0  0  0  0
 17 18  1  0  0  0  0
 17 35  1  0  0  0  0
 17 36  1  0  0  0  0
 18 37  1  0  0  0  0
 18 38  1  0  0  0  0
M  END
> <s_m_source_file>
AV-unprocessed.smi

> <i_m_source_file_index>
2541

> <i_lp_mmshare_version>
43012

> <i_f3d_flags>
0

> <s_epik_input>
bjFvW2NIXVtjSF1jMVtDSDJdQyg9TylbTkhdW0NIMl1bQ0BIXShbT0hdKVtDSF0yW0NIMl1bQ0gyXVtDSDJdW0NIMl1bQ0gyXTI=

> <s_epik_cmdline>
J2VwaWtfcHl0aG9uJywgJy1waCcsICc3LjAnLCAnLXRuJywgJzgnLCAnLW1hJywgJzIwMCcsICctbWV0YWxfYmluZGluZycsICctaW1hZScsICc8aW5maWxlLm1hZT4nLCAnLW9tYWUnLCAnPG91dGZpbGUubWFlPic=

> <r_lp_tautomer_probability>
1

> <r_epik_Ionization_Penalty>
2.3322e-07

> <r_epik_Ionization_Penalty_Charging>
0

> <r_epik_Ionization_Penalty_Neutral>
2.3322e-07

> <r_epik_State_Penalty>
-0

> <r_epik_Charging_Adjusted_Penalty>
0

> <i_epik_Tot_Q>
0

> <i_epik_Tot_abs_Q>
0

> <r_epik_Metal_State_Penalty>
-0

> <b_epik_Metal_Only>
0

> <s_lp_Force_Field>
OPLS_2005

> <r_lp_Energy>
14.1188

> <b_lp_Chiralities_Consistent>
1

> <s_lp_Variant>
AV-unprocessed.smi:2541-1

> <Gold.Version>
5.8.1

> <Gold.Id.Protein>
6NUR|6NUR_protein|mol2

> <Gold.PLP.Fitness>
44.5645

> <Gold.PLP.PLP>
-39.8996

> <Gold.PLP.part.hbond>
-2.8040

> <Gold.PLP.part.metal>
0.0000

> <Gold.PLP.part.buried>
-6.6690

> <Gold.PLP.part.nonpolar>
-31.1477

> <Gold.PLP.part.repulsive>
0.2220

> <Gold.PLP.ligand.clash>
0.0000

> <Gold.PLP.ligand.torsion>
0.6797

> <Gold.PLP.Chemscore.Hbond>
2.0000

> <Gold.PLP.Chemscore.CHOScore>
0.0000

> <Gold.PLP.Chemscore.Metal>
0.0000

> <Gold.Chemscore.Hbonds>
donor molecule, donor type, donor heavy atom, donor atom, acceptor molecule, acceptor atom, score
      P1  H  7997  8010       L1     1  1.00
      P1  H 10752 10764       L1     8  1.00

> <Gold.PLP.Chemscore.Internal.Correction>
0.0242

> <Gold.Rescore>
     Score         DG    S(hbond)    S(metal)    S(lipo)     H(rot)  DE(clash)    DE(int)     intcor
     15.01     -16.65       1.67        0.00     100.67       2.42       0.08       1.56       ----

> <Gold.Chemscore.Fitness>
15.0098

> <Gold.Chemscore.DG>
-16.6523

> <Gold.Chemscore.ZeroCoef>
-5.4800

> <Gold.Chemscore.Hbond>
1.6712

> <Gold.Chemscore.Metal>
0.0000

> <Gold.Chemscore.Lipo>
100.6718

> <Gold.Chemscore.Internal_Hbond>
0.0000

> <Gold.Chemscore.DEClash>
0.0815

> <Gold.Chemscore.DEInternal>
1.5610

> <Gold.Chemscore.Rot>
2.4172

> <Gold.Chemscore.Internal.Correction>
   9.000000E+99

> <Gold.Chemscore.Hbonds>
donor molecule, donor type, donor heavy atom, donor atom, acceptor molecule, acceptor atom, score
      P1  H  7997  8010       L1     1  1.00
      P1  H 10752 10764       L1     8  0.24

> <Gold.Chemscore.Hbond.Weighted>
-5.5817

> <Gold.Chemscore.Metal.Weighted>
-0.0000

> <Gold.Chemscore.Lipo.Weighted>
-11.7786

> <Gold.Chemscore.Internal_Hbond.Weighted>
0.0000

> <Gold.Chemscore.DEClash.Weighted>
0.0815

> <Gold.Chemscore.DEInternal.Weighted>
1.5610

> <Gold.Chemscore.Rot.Weighted>
6.1880

> <Gold.Chemscore.Internal.Correction.Weighted>
   9.000000E+99

> <Gold.Protein.RotatedTorsions>
[ 6907 6896 6895 6894 ] final -171.87 input  -60.11 | X-H torsion
[ 7974 7965 7964 7962 ] final  -29.89 input  175.53 | X-H torsion
[ 8008 7997 7996 7995 ] final   79.60 input   59.86 | X-H torsion
[ 10167 10162 10161 10158 ] final  -20.93 input  -65.29 | X-H torsion
[ 10718 10713 10712 10709 ] final  -30.57 input   66.30 | X-H torsion
[ 10763 10752 10751 10750 ] final  -51.78 input  -60.55 | X-H torsion
[ 11005 11000 10999 10996 ] final  -46.56 input  -57.11 | X-H torsion

> <Gold.Protein.ActiveResidues>
 VAL166  LYS551  ARG553  GLY616  TRP617  ASP618  TYR619  PRO620  LYS621  CYS622 
 ASP623  PHE694  ASN695  SER759  ASP760  ASP761  ALA762  ILE779  LEU786  VAL792 
 PHE793  MET794  SER795  GLU796  ALA797  LYS798  CYS799  TRP800  GLU811  SER814 

> <Gold.Protein.RotatedAtoms>
  151.5308  133.3449  159.2917 H   0  0  0  0  0  0  0  0  0  0  0  0  # atno 6907 bound_to 6896
  150.8594  134.7945  159.7082 H   0  0  0  0  0  0  0  0  0  0  0  0  # atno 6908 bound_to 6896
  152.4618  134.5175  159.9824 H   0  0  0  0  0  0  0  0  0  0  0  0  # atno 6909 bound_to 6896
  146.1184  140.5470  142.8746 H   0  0  0  0  0  0  0  0  0  0  0  0  # atno 7974 bound_to 7965
  155.8719  140.3448  155.5827 H   0  0  0  0  0  0  0  0  0  0  0  0  # atno 8008 bound_to 7997
  155.7817  140.0859  157.2075 H   0  0  0  0  0  0  0  0  0  0  0  0  # atno 8009 bound_to 7997
  154.4018  140.1499  156.3047 H   0  0  0  0  0  0  0  0  0  0  0  0  # atno 8010 bound_to 7997
  140.7279  143.4675  151.0293 H   0  0  0  0  0  0  0  0  0  0  0  0  # atno 10167 bound_to 10162
  156.3982  130.4385  149.7343 H   0  0  0  0  0  0  0  0  0  0  0  0  # atno 10718 bound_to 10713
  154.1320  135.6518  153.4924 H   0  0  0  0  0  0  0  0  0  0  0  0  # atno 10763 bound_to 10752
  153.0192  135.5295  154.6991 H   0  0  0  0  0  0  0  0  0  0  0  0  # atno 10764 bound_to 10752
  154.6228  135.2967  155.0276 H   0  0  0  0  0  0  0  0  0  0  0  0  # atno 10765 bound_to 10752
  141.0586  133.6717  156.3172 H   0  0  0  0  0  0  0  0  0  0  0  0  # atno 11005 bound_to 11000
  144.7574  140.5340  143.6759 LP  0  0  0  0  0  0  0  0  0  0  0  0  # atno 17320 bound_to 7965
  145.5519  139.1477  143.3389 LP  0  0  0  0  0  0  0  0  0  0  0  0  # atno 17321 bound_to 7965
  139.8365  143.7621  152.3180 LP  0  0  0  0  0  0  0  0  0  0  0  0  # atno 17342 bound_to 10162
  139.7755  144.7462  151.0163 LP  0  0  0  0  0  0  0  0  0  0  0  0  # atno 17343 bound_to 10162
  156.4369  130.7842  151.2863 LP  0  0  0  0  0  0  0  0  0  0  0  0  # atno 17370 bound_to 10713
  157.7502  131.0136  150.3433 LP  0  0  0  0  0  0  0  0  0  0  0  0  # atno 17371 bound_to 10713
  140.5913  134.5647  157.5500 LP  0  0  0  0  0  0  0  0  0  0  0  0  # atno 17394 bound_to 11000
  139.9412  134.7783  156.0673 LP  0  0  0  0  0  0  0  0  0  0  0  0  # atno 17395 bound_to 11000

$$$$
