AV-unprocessed.smi:20|AV-procd|sdf|119|dock5
  -GOLD-   2262015293D 1   1.00000     0.00000
 Structure written by MMmdl.
 57 61  0  0  0  0  0  0  0  0  1 V2000
  142.4853  136.7090  153.5959 O   0  0  0  0  0  0  0  0  0  0  0  0
  143.2096  136.0715  152.8353 C   0  0  0  0  0  0  0  0  0  0  0  0
  143.0290  134.5918  152.5387 C   0  0  0  0  0  0  0  0  0  0  0  0
  144.3653  134.1959  151.8746 C   0  0  2  0  0  0  0  0  0  0  0  0
  144.1692  133.1382  150.7639 C   0  0  0  0  0  0  0  0  0  0  0  0
  145.5142  132.6644  150.1891 C   0  0  0  0  0  0  0  0  0  0  0  0
  146.4381  132.1532  151.3036 C   0  0  0  0  0  0  0  0  0  0  0  0
  146.5892  133.1634  152.3478 N   0  0  0  0  0  0  0  0  0  0  0  0
  147.6582  132.9901  153.1645 C   0  0  0  0  0  0  0  0  0  0  0  0
  148.0792  134.0115  153.9574 N   0  0  0  0  0  0  0  0  0  0  0  0
  149.1264  133.8460  154.7705 C   0  0  0  0  0  0  0  0  0  0  0  0
  149.8881  132.7639  154.9399 N   0  0  0  0  0  0  0  0  0  0  0  0
  149.4803  131.7399  154.1374 C   0  0  0  0  0  0  0  0  0  0  0  0
  148.3806  131.7659  153.2337 C   0  0  0  0  0  0  0  0  0  0  0  0
  148.2678  130.5392  152.5901 N   0  0  0  0  0  0  0  0  0  0  0  0
  149.2390  129.8260  153.0906 C   0  0  0  0  0  0  0  0  0  0  0  0
  150.0337  130.4769  154.0078 N   0  0  0  0  0  0  0  0  0  0  0  0
  151.1736  129.9164  154.7139 C   0  0  0  0  0  0  0  0  0  0  0  0
  152.1581  130.9582  155.3172 C   0  0  1  0  0  0  0  0  0  0  0  0
  151.6744  131.3465  156.7357 C   0  0  0  0  0  0  0  0  0  0  0  0
  151.7225  130.2434  157.6172 O   0  0  0  0  0  0  0  0  0  0  0  0
  153.6398  130.4766  155.3479 C   0  0  1  0  0  0  0  0  0  0  0  0
  154.2766  130.1652  154.0010 C   0  0  0  0  0  0  0  0  0  0  0  0
  155.7670  130.2155  154.3124 C   0  0  0  0  0  0  0  0  0  0  0  0
  155.9112  131.1930  155.3328 O   0  0  0  0  0  0  0  0  0  0  0  0
  154.6346  131.5262  155.8657 C   0  0  0  0  0  0  0  0  0  0  0  0
  145.3401  133.6391  152.9457 C   0  0  0  0  0  0  0  0  0  0  0  0
  144.8843  135.5489  151.3258 C   0  0  0  0  0  0  0  0  0  0  0  0
  144.2482  136.5531  152.1561 N   0  0  0  0  0  0  0  0  0  0  0  0
  142.8147  134.0211  153.4432 H   0  0  0  0  0  0  0  0  0  0  0  0
  142.1870  134.4764  151.8548 H   0  0  0  0  0  0  0  0  0  0  0  0
  143.6351  132.2793  151.1725 H   0  0  0  0  0  0  0  0  0  0  0  0
  143.5423  133.5338  149.9640 H   0  0  0  0  0  0  0  0  0  0  0  0
  145.3495  131.8772  149.4530 H   0  0  0  0  0  0  0  0  0  0  0  0
  146.0004  133.4846  149.6596 H   0  0  0  0  0  0  0  0  0  0  0  0
  146.0183  131.2507  151.7497 H   0  0  0  0  0  0  0  0  0  0  0  0
  147.3999  131.8709  150.8764 H   0  0  0  0  0  0  0  0  0  0  0  0
  149.3931  134.7038  155.3702 H   0  0  0  0  0  0  0  0  0  0  0  0
  149.4134  128.8035  152.7889 H   0  0  0  0  0  0  0  0  0  0  0  0
  150.7659  129.2779  155.4979 H   0  0  0  0  0  0  0  0  0  0  0  0
  151.7113  129.2536  154.0348 H   0  0  0  0  0  0  0  0  0  0  0  0
  152.1221  131.8648  154.7124 H   0  0  0  0  0  0  0  0  0  0  0  0
  152.2773  132.1596  157.1412 H   0  0  0  0  0  0  0  0  0  0  0  0
  150.6407  131.6890  156.7285 H   0  0  0  0  0  0  0  0  0  0  0  0
  152.5077  130.3096  158.1388 H   0  0  0  0  0  0  0  0  0  0  0  0
  153.7167  129.5899  155.9795 H   0  0  0  0  0  0  0  0  0  0  0  0
  153.9961  129.1946  153.5964 H   0  0  0  0  0  0  0  0  0  0  0  0
  154.0204  130.9324  153.2686 H   0  0  0  0  0  0  0  0  0  0  0  0
  156.1065  129.2551  154.7020 H   0  0  0  0  0  0  0  0  0  0  0  0
  156.3687  130.4589  153.4362 H   0  0  0  0  0  0  0  0  0  0  0  0
  154.3687  132.5210  155.5051 H   0  0  0  0  0  0  0  0  0  0  0  0
  154.6743  131.5625  156.9545 H   0  0  0  0  0  0  0  0  0  0  0  0
  145.5526  134.4088  153.6895 H   0  0  0  0  0  0  0  0  0  0  0  0
  144.8734  132.8075  153.4755 H   0  0  0  0  0  0  0  0  0  0  0  0
  145.9704  135.6392  151.3608 H   0  0  0  0  0  0  0  0  0  0  0  0
  144.5705  135.7103  150.2936 H   0  0  0  0  0  0  0  0  0  0  0  0
  144.5608  137.5125  152.1940 H   0  0  0  0  0  0  0  0  0  0  0  0
  1  2  2  0  0  0  0
  2 29  1  0  0  0  0
  2  3  1  0  0  0  0
  3  4  1  0  0  0  0
  3 30  1  0  0  0  0
  3 31  1  0  0  0  0
  4 27  1  0  0  0  0
  4  5  1  0  0  0  0
  4 28  1  0  0  0  0
  5  6  1  0  0  0  0
  5 32  1  0  0  0  0
  5 33  1  0  0  0  0
  6  7  1  0  0  0  0
  6 34  1  0  0  0  0
  6 35  1  0  0  0  0
  7  8  1  0  0  0  0
  7 36  1  0  0  0  0
  7 37  1  0  0  0  0
  8  9  1  0  0  0  0
  8 27  1  0  0  0  0
  9 14  1  0  0  0  0
  9 10  2  0  0  0  0
 10 11  1  0  0  0  0
 11 12  2  0  0  0  0
 11 38  1  0  0  0  0
 12 13  1  0  0  0  0
 13 17  1  0  0  0  0
 13 14  2  0  0  0  0
 14 15  1  0  0  0  0
 15 16  2  0  0  0  0
 16 17  1  0  0  0  0
 16 39  1  0  0  0  0
 17 18  1  0  0  0  0
 18 19  1  0  0  0  0
 18 40  1  0  0  0  0
 18 41  1  0  0  0  0
 19 20  1  0  0  0  0
 19 22  1  0  0  0  0
 19 42  1  0  0  0  0
 20 21  1  0  0  0  0
 20 43  1  0  0  0  0
 20 44  1  0  0  0  0
 21 45  1  0  0  0  0
 22 26  1  0  0  0  0
 22 23  1  0  0  0  0
 22 46  1  0  0  0  0
 23 24  1  0  0  0  0
 23 47  1  0  0  0  0
 23 48  1  0  0  0  0
 24 25  1  0  0  0  0
 24 49  1  0  0  0  0
 24 50  1  0  0  0  0
 25 26  1  0  0  0  0
 26 51  1  0  0  0  0
 26 52  1  0  0  0  0
 27 53  1  0  0  0  0
 27 54  1  0  0  0  0
 28 29  1  0  0  0  0
 28 55  1  0  0  0  0
 28 56  1  0  0  0  0
 29 57  1  0  0  0  0
M  END
> <s_m_source_file>
AV-unprocessed.smi

> <i_m_source_file_index>
20

> <i_lp_mmshare_version>
43012

> <i_f3d_flags>
0

> <s_epik_input>
W0NIMl0xW05IXUMoPU8pW0NIMl1bQ0BAXTEyW0NIMl1bQ0gyXVtDSDJdTihbQ0gyXTIpYyhuW2NIXW4zKWMoYzM0KW5bY0hdbjRbQ0gyXVtDQEhdKFtDSDJdW09IXSlbQ0BASF01W0NIMl1bQ0gyXU9bQ0gyXTU=

> <s_epik_cmdline>
J2VwaWtfcHl0aG9uJywgJy1waCcsICc3LjAnLCAnLXRuJywgJzgnLCAnLW1hJywgJzIwMCcsICctbWV0YWxfYmluZGluZycsICctaW1hZScsICc8aW5maWxlLm1hZT4nLCAnLW9tYWUnLCAnPG91dGZpbGUubWFlPic=

> <r_lp_tautomer_probability>
1

> <r_epik_Ionization_Penalty>
0.0019697

> <r_epik_Ionization_Penalty_Charging>
0

> <r_epik_Ionization_Penalty_Neutral>
0.0019697

> <r_epik_State_Penalty>
0.00113613

> <r_epik_Charging_Adjusted_Penalty>
0.00113613

> <i_epik_Tot_Q>
0

> <i_epik_Tot_abs_Q>
0

> <r_epik_Metal_State_Penalty>
-0

> <b_epik_Metal_Only>
0

> <s_lp_Force_Field>
OPLS_2005

> <r_lp_Energy>
59.3743

> <b_lp_Chiralities_Consistent>
1

> <s_lp_Variant>
AV-unprocessed.smi:20-7

> <Gold.Version>
5.8.1

> <Gold.Id.Protein>
6NUR|6NUR_protein|mol2

> <Gold.PLP.Fitness>
45.5805

> <Gold.PLP.PLP>
-46.8260

> <Gold.PLP.part.hbond>
-1.0000

> <Gold.PLP.part.metal>
0.0000

> <Gold.PLP.part.buried>
-7.9355

> <Gold.PLP.part.nonpolar>
-40.6896

> <Gold.PLP.part.repulsive>
3.2103

> <Gold.PLP.ligand.clash>
0.0000

> <Gold.PLP.ligand.torsion>
0.9051

> <Gold.PLP.Chemscore.Hbond>
0.0203

> <Gold.PLP.Chemscore.CHOScore>
0.0000

> <Gold.PLP.Chemscore.Metal>
0.0000

> <Gold.PLP.Chemscore.Internal.Correction>
0.5039

> <Gold.Rescore>
     Score         DG    S(hbond)    S(metal)    S(lipo)     H(rot)  DE(clash)    DE(int)     intcor
      5.55     -10.37       0.43        0.00      89.58       2.74       0.21       4.60       ----

> <Gold.Chemscore.Fitness>
5.5540

> <Gold.Chemscore.DG>
-10.3675

> <Gold.Chemscore.ZeroCoef>
-5.4800

> <Gold.Chemscore.Hbond>
0.4265

> <Gold.Chemscore.Metal>
0.0000

> <Gold.Chemscore.Lipo>
89.5817

> <Gold.Chemscore.Internal_Hbond>
0.0000

> <Gold.Chemscore.DEClash>
0.2131

> <Gold.Chemscore.DEInternal>
4.6004

> <Gold.Chemscore.Rot>
2.7415

> <Gold.Chemscore.Internal.Correction>
   9.000000E+99

> <Gold.Chemscore.Hbond.Weighted>
-1.4246

> <Gold.Chemscore.Metal.Weighted>
-0.0000

> <Gold.Chemscore.Lipo.Weighted>
-10.4811

> <Gold.Chemscore.Internal_Hbond.Weighted>
0.0000

> <Gold.Chemscore.DEClash.Weighted>
0.2131

> <Gold.Chemscore.DEInternal.Weighted>
4.6004

> <Gold.Chemscore.Rot.Weighted>
7.0182

> <Gold.Chemscore.Internal.Correction.Weighted>
   9.000000E+99

> <Gold.Protein.RotatedTorsions>
[ 6907 6896 6895 6894 ] final  130.31 input  -60.11 | X-H torsion
[ 7974 7965 7964 7962 ] final -130.93 input  175.53 | X-H torsion
[ 8008 7997 7996 7995 ] final  -52.11 input   59.86 | X-H torsion
[ 10167 10162 10161 10158 ] final   54.26 input  -65.29 | X-H torsion
[ 10718 10713 10712 10709 ] final   -7.43 input   66.30 | X-H torsion
[ 10763 10752 10751 10750 ] final   -9.30 input  -60.55 | X-H torsion
[ 11005 11000 10999 10996 ] final   90.04 input  -57.11 | X-H torsion

> <Gold.Protein.ActiveResidues>
 VAL166  LYS551  ARG553  GLY616  TRP617  ASP618  TYR619  PRO620  LYS621  CYS622 
 ASP623  PHE694  ASN695  SER759  ASP760  ASP761  ALA762  ILE779  LEU786  VAL792 
 PHE793  MET794  SER795  GLU796  ALA797  LYS798  CYS799  TRP800  GLU811  SER814 

> <Gold.Protein.RotatedAtoms>
  152.3538  133.6212  159.5964 H   0  0  0  0  0  0  0  0  0  0  0  0  # atno 6907 bound_to 6896
  150.7555  133.9532  159.3501 H   0  0  0  0  0  0  0  0  0  0  0  0  # atno 6908 bound_to 6896
  151.7380  135.0861  160.0362 H   0  0  0  0  0  0  0  0  0  0  0  0  # atno 6909 bound_to 6896
  144.9428  140.7257  143.4836 H   0  0  0  0  0  0  0  0  0  0  0  0  # atno 7974 bound_to 7965
  154.4099  140.1231  156.4939 H   0  0  0  0  0  0  0  0  0  0  0  0  # atno 8008 bound_to 7997
  155.6963  140.3495  155.4895 H   0  0  0  0  0  0  0  0  0  0  0  0  # atno 8009 bound_to 7997
  155.9425  140.1089  157.1034 H   0  0  0  0  0  0  0  0  0  0  0  0  # atno 8010 bound_to 7997
  140.2321  144.3676  150.6411 H   0  0  0  0  0  0  0  0  0  0  0  0  # atno 10167 bound_to 10162
  156.7173  130.5140  149.5877 H   0  0  0  0  0  0  0  0  0  0  0  0  # atno 10718 bound_to 10713
  153.4528  135.7015  153.6098 H   0  0  0  0  0  0  0  0  0  0  0  0  # atno 10763 bound_to 10752
  153.4426  135.3777  155.2237 H   0  0  0  0  0  0  0  0  0  0  0  0  # atno 10764 bound_to 10752
  154.8728  135.3977  154.3943 H   0  0  0  0  0  0  0  0  0  0  0  0  # atno 10765 bound_to 10752
  139.8863  134.8589  156.3228 H   0  0  0  0  0  0  0  0  0  0  0  0  # atno 11005 bound_to 11000
  145.2965  139.1865  143.4712 LP  0  0  0  0  0  0  0  0  0  0  0  0  # atno 17320 bound_to 7965
  146.3292  140.2950  142.8617 LP  0  0  0  0  0  0  0  0  0  0  0  0  # atno 17321 bound_to 7965
  140.6177  143.2173  151.6757 LP  0  0  0  0  0  0  0  0  0  0  0  0  # atno 17342 bound_to 10162
  139.5106  144.3536  152.0629 LP  0  0  0  0  0  0  0  0  0  0  0  0  # atno 17343 bound_to 10162
  156.1619  130.6379  151.0729 LP  0  0  0  0  0  0  0  0  0  0  0  0  # atno 17370 bound_to 10713
  157.6912  131.0809  150.7102 LP  0  0  0  0  0  0  0  0  0  0  0  0  # atno 17371 bound_to 10713
  140.9775  133.7288  156.0624 LP  0  0  0  0  0  0  0  0  0  0  0  0  # atno 17394 bound_to 11000
  140.7792  134.3745  157.5491 LP  0  0  0  0  0  0  0  0  0  0  0  0  # atno 17395 bound_to 11000

$$$$
