AV-unprocessed.smi:612|AV-procd|sdf|3062|dock3
  -GOLD-   2262023583D 1   1.00000     0.00000
 Structure written by MMmdl.
 50 52  0  0  0  0  0  0  0  0  2 V2000
  154.2304  141.7151  160.2233 C   0  0  0  0  0  0  0  0  0  0  0  0
  153.1086  142.1623  159.3936 N   0  0  0  0  0  0  0  0  0  0  0  0
  152.6293  143.4673  159.5970 C   0  0  0  0  0  0  0  0  0  0  0  0
  151.6051  143.9589  158.8862 C   0  0  0  0  0  0  0  0  0  0  0  0
  150.9908  143.1127  157.8916 C   0  0  0  0  0  0  0  0  0  0  0  0
  151.4423  141.8517  157.6731 C   0  0  0  0  0  0  0  0  0  0  0  0
  150.9007  140.9563  156.7332 N   0  0  0  0  0  0  0  0  0  0  0  0
  149.6658  140.4248  156.6671 C   0  0  0  0  0  0  0  0  0  0  0  0
  148.7393  140.6532  157.4440 O   0  0  0  0  0  0  0  0  0  0  0  0
  149.5562  139.6077  155.6090 N   0  0  0  0  0  0  0  0  0  0  0  0
  148.3498  138.8901  155.2040 C   0  0  2  0  0  0  0  0  0  0  0  0
  148.5757  137.3740  155.2915 C   0  0  0  0  0  0  0  0  0  0  0  0
  147.3518  136.5991  154.7733 C   0  0  0  0  0  0  0  0  0  0  0  0
  147.0021  136.9878  153.3779 N   0  3  1  0  0  0  0  0  0  0  0  0
  145.8830  136.1786  152.8123 C   0  0  0  0  0  0  0  0  0  0  0  0
  146.1460  134.6653  152.8179 C   0  0  0  0  0  0  0  0  0  0  0  0
  145.1814  134.0821  151.7804 C   0  0  0  0  0  0  0  0  0  0  0  0
  144.8368  135.2303  150.8225 C   0  0  0  0  0  0  0  0  0  0  0  0
  145.6110  136.4524  151.3255 C   0  0  0  0  0  0  0  0  0  0  0  0
  146.7636  138.4551  153.2761 C   0  0  0  0  0  0  0  0  0  0  0  0
  147.9774  139.2632  153.7627 C   0  0  0  0  0  0  0  0  0  0  0  0
  152.5672  141.3175  158.4662 C   0  0  0  0  0  0  0  0  0  0  0  0
  153.0055  140.1746  158.3117 O   0  0  0  0  0  0  0  0  0  0  0  0
  154.5803  142.4863  160.9106 H   0  0  0  0  0  0  0  0  0  0  0  0
  155.0786  141.4276  159.6002 H   0  0  0  0  0  0  0  0  0  0  0  0
  153.9410  140.8515  160.8237 H   0  0  0  0  0  0  0  0  0  0  0  0
  153.1406  144.0375  160.3589 H   0  0  0  0  0  0  0  0  0  0  0  0
  151.2475  144.9643  159.0534 H   0  0  0  0  0  0  0  0  0  0  0  0
  150.1555  143.5237  157.3490 H   0  0  0  0  0  0  0  0  0  0  0  0
  151.5318  140.7114  155.9840 H   0  0  0  0  0  0  0  0  0  0  0  0
  150.3716  139.4847  155.0264 H   0  0  0  0  0  0  0  0  0  0  0  0
  147.5116  139.1512  155.8527 H   0  0  0  0  0  0  0  0  0  0  0  0
  149.4554  137.0925  154.7103 H   0  0  0  0  0  0  0  0  0  0  0  0
  148.7822  137.0866  156.3232 H   0  0  0  0  0  0  0  0  0  0  0  0
  147.5789  135.5352  154.8298 H   0  0  0  0  0  0  0  0  0  0  0  0
  146.4943  136.7741  155.4251 H   0  0  0  0  0  0  0  0  0  0  0  0
  144.9731  136.3804  153.3809 H   0  0  0  0  0  0  0  0  0  0  0  0
  147.1728  134.4640  152.5082 H   0  0  0  0  0  0  0  0  0  0  0  0
  145.9997  134.2120  153.7988 H   0  0  0  0  0  0  0  0  0  0  0  0
  145.6245  133.2333  151.2583 H   0  0  0  0  0  0  0  0  0  0  0  0
  144.2737  133.7257  152.2693 H   0  0  0  0  0  0  0  0  0  0  0  0
  145.0952  134.9933  149.7898 H   0  0  0  0  0  0  0  0  0  0  0  0
  143.7639  135.4255  150.8529 H   0  0  0  0  0  0  0  0  0  0  0  0
  145.0544  137.3750  151.1584 H   0  0  0  0  0  0  0  0  0  0  0  0
  146.5544  136.5297  150.7822 H   0  0  0  0  0  0  0  0  0  0  0  0
  146.5623  138.7411  152.2444 H   0  0  0  0  0  0  0  0  0  0  0  0
  145.8788  138.7212  153.8566 H   0  0  0  0  0  0  0  0  0  0  0  0
  147.7581  140.3297  153.6988 H   0  0  0  0  0  0  0  0  0  0  0  0
  148.8238  139.0808  153.0986 H   0  0  0  0  0  0  0  0  0  0  0  0
  147.8137  136.7876  152.8109 H   0  0  0  0  0  0  0  0  0  0  0  0
  1  2  1  0  0  0  0
  1 24  1  0  0  0  0
  1 25  1  0  0  0  0
  1 26  1  0  0  0  0
  2 22  1  0  0  0  0
  2  3  1  0  0  0  0
  3  4  2  0  0  0  0
  3 27  1  0  0  0  0
  4  5  1  0  0  0  0
  4 28  1  0  0  0  0
  5  6  2  0  0  0  0
  5 29  1  0  0  0  0
  6  7  1  0  0  0  0
  6 22  1  0  0  0  0
  7  8  1  0  0  0  0
  7 30  1  0  0  0  0
  8  9  2  0  0  0  0
  8 10  1  0  0  0  0
 10 11  1  0  0  0  0
 10 31  1  0  0  0  0
 11 21  1  0  0  0  0
 11 12  1  0  0  0  0
 11 32  1  0  0  0  0
 12 13  1  0  0  0  0
 12 33  1  0  0  0  0
 12 34  1  0  0  0  0
 13 14  1  0  0  0  0
 13 35  1  0  0  0  0
 13 36  1  0  0  0  0
 14 15  1  0  0  0  0
 14 20  1  0  0  0  0
 14 50  1  0  0  0  0
 15 19  1  0  0  0  0
 15 16  1  0  0  0  0
 15 37  1  0  0  0  0
 16 17  1  0  0  0  0
 16 38  1  0  0  0  0
 16 39  1  0  0  0  0
 17 18  1  0  0  0  0
 17 40  1  0  0  0  0
 17 41  1  0  0  0  0
 18 19  1  0  0  0  0
 18 42  1  0  0  0  0
 18 43  1  0  0  0  0
 19 44  1  0  0  0  0
 19 45  1  0  0  0  0
 20 21  1  0  0  0  0
 20 46  1  0  0  0  0
 20 47  1  0  0  0  0
 21 48  1  0  0  0  0
 21 49  1  0  0  0  0
 22 23  2  0  0  0  0
M  CHG  1  14   1
M  END
> <s_m_source_file>
AV-unprocessed.smi

> <i_m_source_file_index>
612

> <i_lp_mmshare_version>
43012

> <i_f3d_flags>
0

> <s_epik_input>
W0NIM11uMVtjSF1bY0hdW2NIXWMoYzE9TylbTkhdQyg9TylbTkhdW0NIXTJbQ0gyXVtDSDJdTihbQ0gyXVtDSDJdMilbQ0hdM1tDSDJdW0NIMl1bQ0gyXVtDSDJdMw==

> <s_epik_cmdline>
J2VwaWtfcHl0aG9uJywgJy1waCcsICc3LjAnLCAnLXRuJywgJzgnLCAnLW1hJywgJzIwMCcsICctbWV0YWxfYmluZGluZycsICctaW1hZScsICc8aW5maWxlLm1hZT4nLCAnLW9tYWUnLCAnPG91dGZpbGUubWFlPic=

> <r_lp_tautomer_probability>
1

> <r_epik_Ionization_Penalty>
0.00200366

> <r_epik_Ionization_Penalty_Charging>
0.00198522

> <r_epik_Ionization_Penalty_Neutral>
1.84356e-05

> <r_epik_State_Penalty>
0.00135242

> <r_epik_Charging_Adjusted_Penalty>
0.00333764

> <i_epik_Tot_Q>
1

> <i_epik_Tot_abs_Q>
1

> <r_epik_Metal_State_Penalty>
-0

> <b_epik_Metal_Only>
0

> <s_lp_Force_Field>
OPLS_2005

> <r_lp_Energy>
50.284

> <b_lp_Chiralities_Consistent>
1

> <s_lp_Variant>
AV-unprocessed.smi:612-1

> <Gold.Version>
5.8.1

> <Gold.Id.Protein>
6NUR|6NUR_protein|mol2

> <Gold.PLP.Fitness>
44.1131

> <Gold.PLP.PLP>
-36.3422

> <Gold.PLP.part.hbond>
-2.0000

> <Gold.PLP.part.metal>
0.0000

> <Gold.PLP.part.buried>
-3.2295

> <Gold.PLP.part.nonpolar>
-30.3713

> <Gold.PLP.part.repulsive>
0.1550

> <Gold.PLP.ligand.clash>
0.0000

> <Gold.PLP.ligand.torsion>
0.6199

> <Gold.PLP.Chemscore.Hbond>
2.9913

> <Gold.PLP.Chemscore.CHOScore>
0.0000

> <Gold.PLP.Chemscore.Metal>
0.0000

> <Gold.Chemscore.Hbonds>
donor molecule, donor type, donor heavy atom, donor atom, acceptor molecule, acceptor atom, score
      L1  H    14    50       P1  7948  2.00
      P1  H  7997  8009       L1    23  0.97

> <Gold.PLP.Chemscore.Internal.Correction>
0.0370

> <Gold.Rescore>
     Score         DG    S(hbond)    S(metal)    S(lipo)     H(rot)  DE(clash)    DE(int)     intcor
     18.81     -19.41       1.88        0.00      91.83       1.21       0.04       0.56       ----

> <Gold.Chemscore.Fitness>
18.8119

> <Gold.Chemscore.DG>
-19.4079

> <Gold.Chemscore.ZeroCoef>
-5.4800

> <Gold.Chemscore.Hbond>
1.8774

> <Gold.Chemscore.Metal>
0.0000

> <Gold.Chemscore.Lipo>
91.8262

> <Gold.Chemscore.Internal_Hbond>
0.0000

> <Gold.Chemscore.DEClash>
0.0407

> <Gold.Chemscore.DEInternal>
0.5554

> <Gold.Chemscore.Rot>
1.2056

> <Gold.Chemscore.Internal.Correction>
   9.000000E+99

> <Gold.Chemscore.Hbonds>
donor molecule, donor type, donor heavy atom, donor atom, acceptor molecule, acceptor atom, score
      L1  H    14    50       P1  7948  0.98
      P1  H  7997  8009       L1    23  0.76

> <Gold.Chemscore.Hbond.Weighted>
-6.2705

> <Gold.Chemscore.Metal.Weighted>
-0.0000

> <Gold.Chemscore.Lipo.Weighted>
-10.7437

> <Gold.Chemscore.Internal_Hbond.Weighted>
0.0000

> <Gold.Chemscore.DEClash.Weighted>
0.0407

> <Gold.Chemscore.DEInternal.Weighted>
0.5554

> <Gold.Chemscore.Rot.Weighted>
3.0862

> <Gold.Chemscore.Internal.Correction.Weighted>
   9.000000E+99

> <Gold.Protein.RotatedTorsions>
[ 6907 6896 6895 6894 ] final  160.90 input  -60.11 | X-H torsion
[ 7974 7965 7964 7962 ] final  -30.00 input  175.53 | X-H torsion
[ 8008 7997 7996 7995 ] final  157.05 input   59.86 | X-H torsion
[ 10167 10162 10161 10158 ] final -179.42 input  -65.29 | X-H torsion
[ 10718 10713 10712 10709 ] final   27.88 input   66.30 | X-H torsion
[ 10763 10752 10751 10750 ] final  -27.70 input  -60.55 | X-H torsion
[ 11005 11000 10999 10996 ] final   72.80 input  -57.11 | X-H torsion

> <Gold.Protein.ActiveResidues>
 VAL166  LYS551  ARG553  GLY616  TRP617  ASP618  TYR619  PRO620  LYS621  CYS622 
 ASP623  PHE694  ASN695  SER759  ASP760  ASP761  ALA762  ILE779  LEU786  VAL792 
 PHE793  MET794  SER795  GLU796  ALA797  LYS798  CYS799  TRP800  GLU811  SER814 

> <Gold.Protein.RotatedAtoms>
  151.9636  133.3703  159.4044 H   0  0  0  0  0  0  0  0  0  0  0  0  # atno 6907 bound_to 6896
  150.6960  134.4214  159.5216 H   0  0  0  0  0  0  0  0  0  0  0  0  # atno 6908 bound_to 6896
  152.1907  134.8674  160.0568 H   0  0  0  0  0  0  0  0  0  0  0  0  # atno 6909 bound_to 6896
  146.1175  140.5485  142.8750 H   0  0  0  0  0  0  0  0  0  0  0  0  # atno 7974 bound_to 7965
  156.2387  140.1896  156.7049 H   0  0  0  0  0  0  0  0  0  0  0  0  # atno 8008 bound_to 7997
  154.6155  140.0616  156.9575 H   0  0  0  0  0  0  0  0  0  0  0  0  # atno 8009 bound_to 7997
  155.1946  140.3287  155.4355 H   0  0  0  0  0  0  0  0  0  0  0  0  # atno 8010 bound_to 7997
  139.5387  144.2424  152.0849 H   0  0  0  0  0  0  0  0  0  0  0  0  # atno 10167 bound_to 10162
  157.2260  130.7001  149.6292 H   0  0  0  0  0  0  0  0  0  0  0  0  # atno 10718 bound_to 10713
  153.7363  135.6935  153.4977 H   0  0  0  0  0  0  0  0  0  0  0  0  # atno 10763 bound_to 10752
  153.2100  135.4406  155.0367 H   0  0  0  0  0  0  0  0  0  0  0  0  # atno 10764 bound_to 10752
  154.8236  135.3434  154.6891 H   0  0  0  0  0  0  0  0  0  0  0  0  # atno 10765 bound_to 10752
  139.9472  134.7291  156.0950 H   0  0  0  0  0  0  0  0  0  0  0  0  # atno 11005 bound_to 11000
  144.7566  140.5322  143.6764 LP  0  0  0  0  0  0  0  0  0  0  0  0  # atno 17320 bound_to 7965
  145.5536  139.1477  143.3380 LP  0  0  0  0  0  0  0  0  0  0  0  0  # atno 17321 bound_to 7965
  140.1899  144.4762  150.6484 LP  0  0  0  0  0  0  0  0  0  0  0  0  # atno 17342 bound_to 10162
  140.6606  143.2251  151.5864 LP  0  0  0  0  0  0  0  0  0  0  0  0  # atno 17343 bound_to 10162
  155.9678  130.4504  150.5696 LP  0  0  0  0  0  0  0  0  0  0  0  0  # atno 17370 bound_to 10713
  157.3527  131.0736  151.1700 LP  0  0  0  0  0  0  0  0  0  0  0  0  # atno 17371 bound_to 10713
  141.1126  133.6638  156.3015 LP  0  0  0  0  0  0  0  0  0  0  0  0  # atno 17394 bound_to 11000
  140.5805  134.5750  157.5478 LP  0  0  0  0  0  0  0  0  0  0  0  0  # atno 17395 bound_to 11000

$$$$
