AV-unprocessed.smi:2597|AV-procd|sdf|10173|dock8
  -GOLD-   2272014183D 1   1.00000     0.00000
 Structure written by MMmdl.
 31 32  0  0  0  0  0  0  0  0  2 V2000
  145.9425  136.0513  151.3579 N   0  3  0  0  0  0  0  0  0  0  0  0
  145.4142  134.7388  150.9400 C   0  0  2  0  0  0  0  0  0  0  0  0
  144.1194  134.3945  151.7042 C   0  0  0  0  0  0  0  0  0  0  0  0
  143.5603  133.0309  151.2678 C   0  0  0  0  0  0  0  0  0  0  0  0
  144.6024  131.9129  151.4267 C   0  0  0  0  0  0  0  0  0  0  0  0
  145.9037  132.2438  150.6718 C   0  0  0  0  0  0  0  0  0  0  0  0
  146.4951  133.6271  151.0311 C   0  0  2  0  0  0  0  0  0  0  0  0
  147.2352  133.6153  152.2941 N   0  0  0  0  0  0  0  0  0  0  0  0
  148.3821  132.9034  152.5851 C   0  0  0  0  0  0  0  0  0  0  0  0
  148.6690  133.2588  153.8723 C   0  0  0  0  0  0  0  0  0  0  0  0
  149.8050  132.8248  154.7472 C   0  0  0  0  0  0  0  0  0  0  0  0
  149.7403  131.4172  154.8260 O   0  0  0  0  0  0  0  0  0  0  0  0
  147.6975  134.1547  154.3120 N   0  0  0  0  0  0  0  0  0  0  0  0
  146.8431  134.3567  153.3604 N   0  0  0  0  0  0  0  0  0  0  0  0
  145.1461  134.8449  149.8879 H   0  0  0  0  0  0  0  0  0  0  0  0
  147.2380  133.8505  150.2636 H   0  0  0  0  0  0  0  0  0  0  0  0
  145.4506  136.3639  152.1830 H   0  0  0  0  0  0  0  0  0  0  0  0
  145.8111  136.7217  150.6140 H   0  0  0  0  0  0  0  0  0  0  0  0
  144.2904  134.3950  152.7802 H   0  0  0  0  0  0  0  0  0  0  0  0
  143.3683  135.1641  151.5222 H   0  0  0  0  0  0  0  0  0  0  0  0
  142.6690  132.7918  151.8487 H   0  0  0  0  0  0  0  0  0  0  0  0
  143.2429  133.0849  150.2258 H   0  0  0  0  0  0  0  0  0  0  0  0
  144.8057  131.7438  152.4834 H   0  0  0  0  0  0  0  0  0  0  0  0
  144.1920  130.9753  151.0506 H   0  0  0  0  0  0  0  0  0  0  0  0
  146.6438  131.4609  150.8422 H   0  0  0  0  0  0  0  0  0  0  0  0
  145.6920  132.2250  149.6018 H   0  0  0  0  0  0  0  0  0  0  0  0
  148.8758  132.2430  151.8874 H   0  0  0  0  0  0  0  0  0  0  0  0
  150.7697  133.1245  154.3364 H   0  0  0  0  0  0  0  0  0  0  0  0
  149.7203  133.2527  155.7461 H   0  0  0  0  0  0  0  0  0  0  0  0
  149.3501  131.0905  154.0297 H   0  0  0  0  0  0  0  0  0  0  0  0
  146.9273  135.9684  151.5665 H   0  0  0  0  0  0  0  0  0  0  0  0
  1  2  1  0  0  0  0
  1 17  1  0  0  0  0
  1 18  1  0  0  0  0
  1 31  1  0  0  0  0
  2 15  1  0  0  0  0
  2  7  1  0  0  0  0
  2  3  1  0  0  0  0
  3  4  1  0  0  0  0
  3 19  1  0  0  0  0
  3 20  1  0  0  0  0
  4  5  1  0  0  0  0
  4 21  1  0  0  0  0
  4 22  1  0  0  0  0
  5  6  1  0  0  0  0
  5 23  1  0  0  0  0
  5 24  1  0  0  0  0
  6  7  1  0  0  0  0
  6 25  1  0  0  0  0
  6 26  1  0  0  0  0
  7 16  1  0  0  0  0
  7  8  1  0  0  0  0
  8 14  1  0  0  0  0
  8  9  1  0  0  0  0
  9 10  2  0  0  0  0
  9 27  1  0  0  0  0
 10 11  1  0  0  0  0
 10 13  1  0  0  0  0
 11 12  1  0  0  0  0
 11 28  1  0  0  0  0
 11 29  1  0  0  0  0
 12 30  1  0  0  0  0
 13 14  2  0  0  0  0
M  CHG  1   1   1
M  END
> <s_m_source_file>
AV-unprocessed.smi

> <i_m_source_file_index>
2597

> <i_lp_mmshare_version>
43012

> <i_f3d_flags>
0

> <s_epik_input>
W05IMl1bQ0BIXTFbQ0gyXVtDSDJdW0NIMl1bQ0gyXVtDQEhdMW4yW2NIXWMobm4yKVtDSDJdW09IXQ==

> <s_epik_cmdline>
J2VwaWtfcHl0aG9uJywgJy1waCcsICc3LjAnLCAnLXRuJywgJzgnLCAnLW1hJywgJzIwMCcsICctbWV0YWxfYmluZGluZycsICctaW1hZScsICc8aW5maWxlLm1hZT4nLCAnLW9tYWUnLCAnPG91dGZpbGUubWFlPic=

> <r_lp_tautomer_probability>
1

> <r_epik_Ionization_Penalty>
0.014346

> <r_epik_Ionization_Penalty_Charging>
0.014316

> <r_epik_Ionization_Penalty_Neutral>
3.00097e-05

> <r_epik_State_Penalty>
0.0111909

> <r_epik_Charging_Adjusted_Penalty>
0.0255069

> <i_epik_Tot_Q>
1

> <i_epik_Tot_abs_Q>
1

> <r_epik_Metal_State_Penalty>
0.011192

> <b_epik_Metal_Only>
0

> <s_lp_Force_Field>
OPLS_2005

> <r_lp_Energy>
16.1833

> <b_lp_Chiralities_Consistent>
1

> <s_lp_Variant>
AV-unprocessed.smi:2597-4

> <Gold.Version>
5.8.1

> <Gold.Id.Protein>
6NUR|6NUR_protein|mol2

> <Gold.PLP.Fitness>
35.3712

> <Gold.PLP.PLP>
-26.5630

> <Gold.PLP.part.hbond>
-1.0000

> <Gold.PLP.part.metal>
0.0000

> <Gold.PLP.part.buried>
-3.1558

> <Gold.PLP.part.nonpolar>
-22.7658

> <Gold.PLP.part.repulsive>
0.2585

> <Gold.PLP.ligand.clash>
0.0000

> <Gold.PLP.ligand.torsion>
0.1284

> <Gold.PLP.Chemscore.Hbond>
2.0000

> <Gold.PLP.Chemscore.CHOScore>
1.0000

> <Gold.PLP.Chemscore.Metal>
0.0000

> <Gold.Chemscore.Hbonds>
donor molecule, donor type, donor heavy atom, donor atom, acceptor molecule, acceptor atom, score
      L1  H     1    31       P1  7948  2.00
      L1  C     9    27       P1 10747  1.00

> <Gold.PLP.Chemscore.Internal.Correction>
0.0649

> <Gold.Rescore>
     Score         DG    S(hbond)    S(metal)    S(lipo)     H(rot)  DE(clash)    DE(int)     intcor
      9.50     -11.09       1.00        0.00      60.05       1.86       0.05       1.54       ----

> <Gold.Chemscore.Fitness>
9.5030

> <Gold.Chemscore.DG>
-11.0932

> <Gold.Chemscore.ZeroCoef>
-5.4800

> <Gold.Chemscore.Hbond>
0.9988

> <Gold.Chemscore.Metal>
0.0000

> <Gold.Chemscore.Lipo>
60.0524

> <Gold.Chemscore.Internal_Hbond>
0.0000

> <Gold.Chemscore.DEClash>
0.0501

> <Gold.Chemscore.DEInternal>
1.5401

> <Gold.Chemscore.Rot>
1.8551

> <Gold.Chemscore.Internal.Correction>
   9.000000E+99

> <Gold.Chemscore.Hbonds>
donor molecule, donor type, donor heavy atom, donor atom, acceptor molecule, acceptor atom, score
      L1  H     1    31       P1  7948  0.93

> <Gold.Chemscore.Hbond.Weighted>
-3.3360

> <Gold.Chemscore.Metal.Weighted>
-0.0000

> <Gold.Chemscore.Lipo.Weighted>
-7.0261

> <Gold.Chemscore.Internal_Hbond.Weighted>
0.0000

> <Gold.Chemscore.DEClash.Weighted>
0.0501

> <Gold.Chemscore.DEInternal.Weighted>
1.5401

> <Gold.Chemscore.Rot.Weighted>
4.7489

> <Gold.Chemscore.Internal.Correction.Weighted>
   9.000000E+99

> <Gold.Protein.RotatedTorsions>
[ 6907 6896 6895 6894 ] final    6.68 input  -60.11 | X-H torsion
[ 7974 7965 7964 7962 ] final -117.16 input  175.53 | X-H torsion
[ 8008 7997 7996 7995 ] final  147.25 input   59.86 | X-H torsion
[ 10167 10162 10161 10158 ] final  -98.65 input  -65.29 | X-H torsion
[ 10718 10713 10712 10709 ] final  178.86 input   66.30 | X-H torsion
[ 10763 10752 10751 10750 ] final -128.43 input  -60.55 | X-H torsion
[ 11005 11000 10999 10996 ] final  171.16 input  -57.11 | X-H torsion

> <Gold.Protein.ActiveResidues>
 VAL166  LYS551  ARG553  GLY616  TRP617  ASP618  TYR619  PRO620  LYS621  CYS622 
 ASP623  PHE694  ASN695  SER759  ASP760  ASP761  ALA762  ILE779  LEU786  VAL792 
 PHE793  MET794  SER795  GLU796  ALA797  LYS798  CYS799  TRP800  GLU811  SER814 

> <Gold.Protein.RotatedAtoms>
  151.6776  135.0967  160.0209 H   0  0  0  0  0  0  0  0  0  0  0  0  # atno 6907 bound_to 6896
  152.3855  133.6600  159.6203 H   0  0  0  0  0  0  0  0  0  0  0  0  # atno 6908 bound_to 6896
  150.7781  133.8959  159.3368 H   0  0  0  0  0  0  0  0  0  0  0  0  # atno 6909 bound_to 6896
  145.0884  140.8473  143.3997 H   0  0  0  0  0  0  0  0  0  0  0  0  # atno 7974 bound_to 7965
  156.2830  140.2160  156.5508 H   0  0  0  0  0  0  0  0  0  0  0  0  # atno 8008 bound_to 7997
  154.7293  140.0497  157.0734 H   0  0  0  0  0  0  0  0  0  0  0  0  # atno 8009 bound_to 7997
  155.0375  140.3142  155.4739 H   0  0  0  0  0  0  0  0  0  0  0  0  # atno 8010 bound_to 7997
  140.2707  143.3346  152.0537 H   0  0  0  0  0  0  0  0  0  0  0  0  # atno 10167 bound_to 10162
  156.8844  130.9826  151.3058 H   0  0  0  0  0  0  0  0  0  0  0  0  # atno 10718 bound_to 10713
  154.8756  135.3929  154.3755 H   0  0  0  0  0  0  0  0  0  0  0  0  # atno 10763 bound_to 10752
  153.4509  135.7028  153.6115 H   0  0  0  0  0  0  0  0  0  0  0  0  # atno 10764 bound_to 10752
  153.4655  135.3802  155.2331 H   0  0  0  0  0  0  0  0  0  0  0  0  # atno 10765 bound_to 10752
  140.3161  134.7477  157.4028 H   0  0  0  0  0  0  0  0  0  0  0  0  # atno 11005 bound_to 11000
  145.1095  139.2767  143.5645 LP  0  0  0  0  0  0  0  0  0  0  0  0  # atno 17320 bound_to 7965
  146.3531  140.0687  142.8624 LP  0  0  0  0  0  0  0  0  0  0  0  0  # atno 17321 bound_to 7965
  139.4990  144.6658  151.6359 LP  0  0  0  0  0  0  0  0  0  0  0  0  # atno 17342 bound_to 10162
  140.5892  143.9810  150.6314 LP  0  0  0  0  0  0  0  0  0  0  0  0  # atno 17343 bound_to 10162
  157.6121  130.8591  149.8969 LP  0  0  0  0  0  0  0  0  0  0  0  0  # atno 17370 bound_to 10713
  156.0661  130.3692  150.0876 LP  0  0  0  0  0  0  0  0  0  0  0  0  # atno 17371 bound_to 10713
  140.0983  134.5508  155.8377 LP  0  0  0  0  0  0  0  0  0  0  0  0  # atno 17394 bound_to 11000
  141.2097  133.6687  156.6460 LP  0  0  0  0  0  0  0  0  0  0  0  0  # atno 17395 bound_to 11000

$$$$
