AV-unprocessed.smi:1504|AV-procd|sdf|6073|dock2
  -GOLD-   22720 6193D 1   1.00000     0.00000
 Structure written by MMmdl.
 40 41  0  0  0  0  0  0  0  0  2 V2000
  141.5160  136.6506  153.3477 O   0  0  0  0  0  0  0  0  0  0  0  0
  142.1706  137.6634  153.1003 C   0  0  0  0  0  0  0  0  0  0  0  0
  143.4358  137.6500  152.6582 N   0  0  0  0  0  0  0  0  0  0  0  0
  144.2172  136.4451  152.4053 C   0  0  0  0  0  0  0  0  0  0  0  0
  143.4503  135.4490  151.5191 C   0  0  0  0  0  0  0  0  0  0  0  0
  144.3547  134.3786  150.9401 C   0  0  0  0  0  0  0  0  0  0  0  0
  145.7291  134.3057  151.2547 C   0  0  0  0  0  0  0  0  0  0  0  0
  146.5136  133.2829  150.6821 C   0  0  0  0  0  0  0  0  0  0  0  0
  145.9081  132.3550  149.8092 C   0  0  0  0  0  0  0  0  0  0  0  0
  144.5308  132.4730  149.5318 C   0  0  0  0  0  0  0  0  0  0  0  0
  143.8132  133.4672  150.0997 N   0  3  0  0  0  0  0  0  0  0  0  0
  141.7056  138.9105  153.2439 N   0  0  0  0  0  0  0  0  0  0  0  0
  140.3631  139.2380  153.7064 C   0  0  0  0  0  0  0  0  0  0  0  0
  140.2082  140.7517  153.9320 C   0  0  2  0  0  0  0  0  0  0  0  0
  140.7392  141.1985  155.3080 C   0  0  0  0  0  0  0  0  0  0  0  0
  140.3058  142.6474  155.5497 C   0  0  0  0  0  0  0  0  0  0  0  0
  138.6543  142.7993  154.7746 S   0  0  0  0  0  0  0  0  0  0  0  0
  137.6145  142.6508  155.8039 O   0  0  0  0  0  0  0  0  0  0  0  0
  138.6570  143.9520  153.8611 O   0  0  0  0  0  0  0  0  0  0  0  0
  138.7557  141.2455  153.8056 C   0  0  0  0  0  0  0  0  0  0  0  0
  143.8890  138.5350  152.4822 H   0  0  0  0  0  0  0  0  0  0  0  0
  145.1715  136.7089  151.9462 H   0  0  0  0  0  0  0  0  0  0  0  0
  144.4510  135.9877  153.3669 H   0  0  0  0  0  0  0  0  0  0  0  0
  142.6583  134.9681  152.0950 H   0  0  0  0  0  0  0  0  0  0  0  0
  142.9580  135.9741  150.6993 H   0  0  0  0  0  0  0  0  0  0  0  0
  146.1784  135.0231  151.9263 H   0  0  0  0  0  0  0  0  0  0  0  0
  147.5671  133.2111  150.9098 H   0  0  0  0  0  0  0  0  0  0  0  0
  146.4916  131.5645  149.3600 H   0  0  0  0  0  0  0  0  0  0  0  0
  143.9857  131.8083  148.8777 H   0  0  0  0  0  0  0  0  0  0  0  0
  142.3151  139.6827  153.0175 H   0  0  0  0  0  0  0  0  0  0  0  0
  139.6340  138.8886  152.9734 H   0  0  0  0  0  0  0  0  0  0  0  0
  140.1635  138.7028  154.6362 H   0  0  0  0  0  0  0  0  0  0  0  0
  140.7980  141.2740  153.1770 H   0  0  0  0  0  0  0  0  0  0  0  0
  140.3039  140.5669  156.0838 H   0  0  0  0  0  0  0  0  0  0  0  0
  141.8218  141.0903  155.3789 H   0  0  0  0  0  0  0  0  0  0  0  0
  140.2552  142.9105  156.6063 H   0  0  0  0  0  0  0  0  0  0  0  0
  140.9799  143.3413  155.0471 H   0  0  0  0  0  0  0  0  0  0  0  0
  138.4556  141.4286  152.7738 H   0  0  0  0  0  0  0  0  0  0  0  0
  138.0582  140.5334  154.2481 H   0  0  0  0  0  0  0  0  0  0  0  0
  142.8180  133.5334  149.8846 H   0  0  0  0  0  0  0  0  0  0  0  0
  1  2  2  0  0  0  0
  2  3  1  0  0  0  0
  2 12  1  0  0  0  0
  3  4  1  0  0  0  0
  3 21  1  0  0  0  0
  4  5  1  0  0  0  0
  4 22  1  0  0  0  0
  4 23  1  0  0  0  0
  5  6  1  0  0  0  0
  5 24  1  0  0  0  0
  5 25  1  0  0  0  0
  6 11  1  0  0  0  0
  6  7  2  0  0  0  0
  7  8  1  0  0  0  0
  7 26  1  0  0  0  0
  8  9  2  0  0  0  0
  8 27  1  0  0  0  0
  9 10  1  0  0  0  0
  9 28  1  0  0  0  0
 10 11  2  0  0  0  0
 10 29  1  0  0  0  0
 11 40  1  0  0  0  0
 12 13  1  0  0  0  0
 12 30  1  0  0  0  0
 13 14  1  0  0  0  0
 13 31  1  0  0  0  0
 13 32  1  0  0  0  0
 14 20  1  0  0  0  0
 14 15  1  0  0  0  0
 14 33  1  0  0  0  0
 15 16  1  0  0  0  0
 15 34  1  0  0  0  0
 15 35  1  0  0  0  0
 16 17  1  0  0  0  0
 16 36  1  0  0  0  0
 16 37  1  0  0  0  0
 17 18  2  0  0  0  0
 17 19  2  0  0  0  0
 17 20  1  0  0  0  0
 20 38  1  0  0  0  0
 20 39  1  0  0  0  0
M  CHG  1  11   1
M  END
> <s_m_source_file>
AV-unprocessed.smi

> <i_m_source_file_index>
1504

> <i_lp_mmshare_version>
43012

> <i_f3d_flags>
0

> <s_epik_input>
Tz1TMSg9TylbQ0gyXVtDSDJdW0NASF0oW0NIMl0xKVtDSDJdW05IXUMoPU8pW05IXVtDSDJdW0NIMl1jMltjSF1bY0hdW2NIXVtjSF1uMg==

> <s_epik_cmdline>
J2VwaWtfcHl0aG9uJywgJy1waCcsICc3LjAnLCAnLXRuJywgJzgnLCAnLW1hJywgJzIwMCcsICctbWV0YWxfYmluZGluZycsICctaW1hZScsICc8aW5maWxlLm1hZT4nLCAnLW9tYWUnLCAnPG91dGZpbGUubWFlPic=

> <r_epik_Ionization_Penalty>
1.57393

> <r_epik_Ionization_Penalty_Charging>
1.57388

> <r_epik_Ionization_Penalty_Neutral>
4.82054e-05

> <r_epik_State_Penalty>
1.66991

> <r_epik_Charging_Adjusted_Penalty>
3.24379

> <i_epik_Tot_Q>
1

> <i_epik_Tot_abs_Q>
1

> <r_epik_Metal_State_Penalty>
1.71052

> <b_epik_Metal_Only>
0

> <s_lp_Force_Field>
OPLS_2005

> <r_lp_Energy>
6.68719

> <b_lp_Chiralities_Consistent>
1

> <s_lp_Variant>
AV-unprocessed.smi:1504-3

> <Gold.Version>
5.8.1

> <Gold.Id.Protein>
6NUR|6NUR_protein|mol2

> <Gold.PLP.Fitness>
46.3041

> <Gold.PLP.PLP>
-32.3900

> <Gold.PLP.part.hbond>
-5.1890

> <Gold.PLP.part.metal>
0.0000

> <Gold.PLP.part.buried>
-6.2106

> <Gold.PLP.part.nonpolar>
-22.3847

> <Gold.PLP.part.repulsive>
0.2259

> <Gold.PLP.ligand.clash>
0.0000

> <Gold.PLP.ligand.torsion>
0.3982

> <Gold.PLP.Chemscore.Hbond>
4.8960

> <Gold.PLP.Chemscore.CHOScore>
0.0000

> <Gold.PLP.Chemscore.Metal>
0.0000

> <Gold.Chemscore.Hbonds>
donor molecule, donor type, donor heavy atom, donor atom, acceptor molecule, acceptor atom, score
      L1  H     3    21       P1 10175  0.88
      L1  H    11    40       P1 10186  1.92
      L1  H    12    30       P1 10175  1.00
      P1  H 10162 10167       L1    19  1.00

> <Gold.PLP.Chemscore.Internal.Correction>
0.0224

> <Gold.Rescore>
     Score         DG    S(hbond)    S(metal)    S(lipo)     H(rot)  DE(clash)    DE(int)     intcor
     20.62     -21.05       3.77        0.00      69.55       2.01       0.10       0.33       ----

> <Gold.Chemscore.Fitness>
20.6175

> <Gold.Chemscore.DG>
-21.0487

> <Gold.Chemscore.ZeroCoef>
-5.4800

> <Gold.Chemscore.Hbond>
3.7690

> <Gold.Chemscore.Metal>
0.0000

> <Gold.Chemscore.Lipo>
69.5505

> <Gold.Chemscore.Internal_Hbond>
0.0000

> <Gold.Chemscore.DEClash>
0.0982

> <Gold.Chemscore.DEInternal>
0.3330

> <Gold.Chemscore.Rot>
2.0146

> <Gold.Chemscore.Internal.Correction>
   9.000000E+99

> <Gold.Chemscore.Hbonds>
donor molecule, donor type, donor heavy atom, donor atom, acceptor molecule, acceptor atom, score
      L1  H     3    21       P1 10175  0.86
      L1  H    11    40       P1 10186  0.90
      L1  H    12    30       P1 10175  0.83
      P1  H 10162 10167       L1    19  0.97

> <Gold.Chemscore.Hbond.Weighted>
-12.5886

> <Gold.Chemscore.Metal.Weighted>
-0.0000

> <Gold.Chemscore.Lipo.Weighted>
-8.1374

> <Gold.Chemscore.Internal_Hbond.Weighted>
0.0000

> <Gold.Chemscore.DEClash.Weighted>
0.0982

> <Gold.Chemscore.DEInternal.Weighted>
0.3330

> <Gold.Chemscore.Rot.Weighted>
5.1573

> <Gold.Chemscore.Internal.Correction.Weighted>
   9.000000E+99

> <Gold.Protein.RotatedTorsions>
[ 6907 6896 6895 6894 ] final   17.84 input  -60.11 | X-H torsion
[ 7974 7965 7964 7962 ] final  119.72 input  175.53 | X-H torsion
[ 8008 7997 7996 7995 ] final   48.36 input   59.86 | X-H torsion
[ 10167 10162 10161 10158 ] final -153.39 input  -65.29 | X-H torsion
[ 10718 10713 10712 10709 ] final -169.77 input   66.30 | X-H torsion
[ 10763 10752 10751 10750 ] final   42.21 input  -60.55 | X-H torsion
[ 11005 11000 10999 10996 ] final -176.96 input  -57.11 | X-H torsion

> <Gold.Protein.ActiveResidues>
 VAL166  LYS551  ARG553  GLY616  TRP617  ASP618  TYR619  PRO620  LYS621  CYS622 
 ASP623  PHE694  ASN695  SER759  ASP760  ASP761  ALA762  ILE779  LEU786  VAL792 
 PHE793  MET794  SER795  GLU796  ALA797  LYS798  CYS799  TRP800  GLU811  SER814 

> <Gold.Protein.RotatedAtoms>
  151.8559  135.0541  160.0463 H   0  0  0  0  0  0  0  0  0  0  0  0  # atno 6907 bound_to 6896
  152.2701  133.5370  159.5442 H   0  0  0  0  0  0  0  0  0  0  0  0  # atno 6908 bound_to 6896
  150.7148  134.0626  159.3879 H   0  0  0  0  0  0  0  0  0  0  0  0  # atno 6909 bound_to 6896
  145.1397  139.3275  143.4622 H   0  0  0  0  0  0  0  0  0  0  0  0  # atno 7974 bound_to 7965
  155.3844  140.3430  155.4248 H   0  0  0  0  0  0  0  0  0  0  0  0  # atno 8008 bound_to 7997
  156.1592  140.1595  156.8674 H   0  0  0  0  0  0  0  0  0  0  0  0  # atno 8009 bound_to 7997
  154.5124  140.0787  156.7997 H   0  0  0  0  0  0  0  0  0  0  0  0  # atno 8010 bound_to 7997
  139.7101  143.9123  152.2464 H   0  0  0  0  0  0  0  0  0  0  0  0  # atno 10167 bound_to 10162
  156.7164  130.9253  151.3094 H   0  0  0  0  0  0  0  0  0  0  0  0  # atno 10718 bound_to 10713
  152.9888  135.6138  154.2913 H   0  0  0  0  0  0  0  0  0  0  0  0  # atno 10763 bound_to 10752
  154.2638  135.2781  155.2769 H   0  0  0  0  0  0  0  0  0  0  0  0  # atno 10764 bound_to 10752
  154.5182  135.5822  153.6717 H   0  0  0  0  0  0  0  0  0  0  0  0  # atno 10765 bound_to 10752
  140.4463  134.6385  157.4781 H   0  0  0  0  0  0  0  0  0  0  0  0  # atno 11005 bound_to 11000
  146.3506  140.1430  142.8594 LP  0  0  0  0  0  0  0  0  0  0  0  0  # atno 17320 bound_to 7965
  145.0545  140.9042  143.4975 LP  0  0  0  0  0  0  0  0  0  0  0  0  # atno 17321 bound_to 7965
  139.8989  144.6923  150.8687 LP  0  0  0  0  0  0  0  0  0  0  0  0  # atno 17342 bound_to 10162
  140.7731  143.3529  151.1979 LP  0  0  0  0  0  0  0  0  0  0  0  0  # atno 17343 bound_to 10162
  157.6916  130.9239  150.0528 LP  0  0  0  0  0  0  0  0  0  0  0  0  # atno 17370 bound_to 10713
  156.1625  130.3644  149.9279 LP  0  0  0  0  0  0  0  0  0  0  0  0  # atno 17371 bound_to 10713
  140.0036  134.6798  155.9490 LP  0  0  0  0  0  0  0  0  0  0  0  0  # atno 17394 bound_to 11000
  141.1684  133.6537  156.4561 LP  0  0  0  0  0  0  0  0  0  0  0  0  # atno 17395 bound_to 11000

$$$$
