AV-unprocessed.smi:933|AV-procd|sdf|4202|dock6
  -GOLD-   22720 2113D 1   1.00000     0.00000
 Structure written by MMmdl.
 42 43  0  0  0  0  0  0  0  0  1 V2000
  143.3547  147.0889  155.8453 C   0  0  0  0  0  0  0  0  0  0  0  0
  143.1338  146.2374  154.5907 C   0  0  0  0  0  0  0  0  0  0  0  0
  144.1575  145.1624  154.4422 C   0  0  0  0  0  0  0  0  0  0  0  0
  144.3229  144.1755  155.3269 N   0  0  0  0  0  0  0  0  0  0  0  0
  145.3745  143.3187  154.9878 C   0  0  0  0  0  0  0  0  0  0  0  0
  145.7069  142.1549  155.8758 C   0  0  0  0  0  0  0  0  0  0  0  0
  145.8114  142.5359  157.3622 C   0  0  0  0  0  0  0  0  0  0  0  0
  147.0474  143.2649  157.6453 N   0  0  0  0  0  0  0  0  0  0  0  0
  148.1873  142.7668  158.1527 C   0  0  0  0  0  0  0  0  0  0  0  0
  148.2995  141.5802  158.4543 O   0  0  0  0  0  0  0  0  0  0  0  0
  149.1685  143.6723  158.3087 N   0  0  0  0  0  0  0  0  0  0  0  0
  150.5072  143.4051  158.8353 C   0  0  1  0  0  0  0  0  0  0  0  0
  151.5714  143.7738  157.7805 C   0  0  0  0  0  0  0  0  0  0  0  0
  152.4692  144.8425  158.4135 C   0  0  0  0  0  0  0  0  0  0  0  0
  151.6357  145.4446  159.5411 C   0  0  0  0  0  0  0  0  0  0  0  0
  150.8414  144.2559  160.0838 C   0  0  1  0  0  0  0  0  0  0  0  0
  149.6651  144.6598  160.9898 C   0  0  0  0  0  0  0  0  0  0  0  0
  146.0094  143.6753  153.8238 C   0  0  0  0  0  0  0  0  0  0  0  0
  145.3169  145.1098  153.1194 S   0  0  0  0  0  0  0  0  0  0  0  0
  142.5939  147.8651  155.9266 H   0  0  0  0  0  0  0  0  0  0  0  0
  144.3292  147.5778  155.8219 H   0  0  0  0  0  0  0  0  0  0  0  0
  143.3073  146.4788  156.7477 H   0  0  0  0  0  0  0  0  0  0  0  0
  142.1439  145.7810  154.6200 H   0  0  0  0  0  0  0  0  0  0  0  0
  143.1605  146.8696  153.7027 H   0  0  0  0  0  0  0  0  0  0  0  0
  144.9556  141.3731  155.7598 H   0  0  0  0  0  0  0  0  0  0  0  0
  146.6486  141.7060  155.5576 H   0  0  0  0  0  0  0  0  0  0  0  0
  144.9571  143.1572  157.6363 H   0  0  0  0  0  0  0  0  0  0  0  0
  145.7659  141.6368  157.9783 H   0  0  0  0  0  0  0  0  0  0  0  0
  147.0277  144.2577  157.4612 H   0  0  0  0  0  0  0  0  0  0  0  0
  148.9739  144.6248  158.0368 H   0  0  0  0  0  0  0  0  0  0  0  0
  150.6011  142.3468  159.0856 H   0  0  0  0  0  0  0  0  0  0  0  0
  152.1545  142.9031  157.4786 H   0  0  0  0  0  0  0  0  0  0  0  0
  151.1087  144.1723  156.8759 H   0  0  0  0  0  0  0  0  0  0  0  0
  153.3589  144.3705  158.8325 H   0  0  0  0  0  0  0  0  0  0  0  0
  152.8010  145.5908  157.6934 H   0  0  0  0  0  0  0  0  0  0  0  0
  152.2511  145.9218  160.3046 H   0  0  0  0  0  0  0  0  0  0  0  0
  150.9577  146.1982  159.1377 H   0  0  0  0  0  0  0  0  0  0  0  0
  151.5301  143.6668  160.6919 H   0  0  0  0  0  0  0  0  0  0  0  0
  148.9585  145.3093  160.4723 H   0  0  0  0  0  0  0  0  0  0  0  0
  150.0214  145.1988  161.8679 H   0  0  0  0  0  0  0  0  0  0  0  0
  149.1223  143.7818  161.3406 H   0  0  0  0  0  0  0  0  0  0  0  0
  146.8458  143.1881  153.3448 H   0  0  0  0  0  0  0  0  0  0  0  0
  1  2  1  0  0  0  0
  1 20  1  0  0  0  0
  1 21  1  0  0  0  0
  1 22  1  0  0  0  0
  2  3  1  0  0  0  0
  2 23  1  0  0  0  0
  2 24  1  0  0  0  0
  3 19  1  0  0  0  0
  3  4  2  0  0  0  0
  4  5  1  0  0  0  0
  5  6  1  0  0  0  0
  5 18  2  0  0  0  0
  6  7  1  0  0  0  0
  6 25  1  0  0  0  0
  6 26  1  0  0  0  0
  7  8  1  0  0  0  0
  7 27  1  0  0  0  0
  7 28  1  0  0  0  0
  8  9  1  0  0  0  0
  8 29  1  0  0  0  0
  9 10  2  0  0  0  0
  9 11  1  0  0  0  0
 11 12  1  0  0  0  0
 11 30  1  0  0  0  0
 12 16  1  0  0  0  0
 12 13  1  0  0  0  0
 12 31  1  0  0  0  0
 13 14  1  0  0  0  0
 13 32  1  0  0  0  0
 13 33  1  0  0  0  0
 14 15  1  0  0  0  0
 14 34  1  0  0  0  0
 14 35  1  0  0  0  0
 15 16  1  0  0  0  0
 15 36  1  0  0  0  0
 15 37  1  0  0  0  0
 16 17  1  0  0  0  0
 16 38  1  0  0  0  0
 17 39  1  0  0  0  0
 17 40  1  0  0  0  0
 17 41  1  0  0  0  0
 18 19  1  0  0  0  0
 18 42  1  0  0  0  0
M  END
> <s_m_source_file>
AV-unprocessed.smi

> <i_m_source_file_index>
933

> <i_lp_mmshare_version>
43012

> <i_f3d_flags>
0

> <s_epik_input>
W0NIM11bQ0gyXWMxbmMoW2NIXXMxKVtDSDJdW0NIMl1bTkhdQyg9TylbTkhdW0NAQEhdMltDSDJdW0NIMl1bQ0gyXVtDQEhdMltDSDNd

> <s_epik_cmdline>
J2VwaWtfcHl0aG9uJywgJy1waCcsICc3LjAnLCAnLXRuJywgJzgnLCAnLW1hJywgJzIwMCcsICctbWV0YWxfYmluZGluZycsICctaW1hZScsICc8aW5maWxlLm1hZT4nLCAnLW9tYWUnLCAnPG91dGZpbGUubWFlPic=

> <r_epik_Ionization_Penalty>
0.00203408

> <r_epik_Ionization_Penalty_Charging>
0

> <r_epik_Ionization_Penalty_Neutral>
0.00203408

> <r_epik_State_Penalty>
0.0013452

> <r_epik_Charging_Adjusted_Penalty>
0.0013452

> <i_epik_Tot_Q>
0

> <i_epik_Tot_abs_Q>
0

> <r_epik_Metal_State_Penalty>
-0

> <b_epik_Metal_Only>
0

> <s_lp_Force_Field>
OPLS_2005

> <r_lp_Energy>
20.9711

> <b_lp_Chiralities_Consistent>
1

> <s_lp_Variant>
AV-unprocessed.smi:933-2

> <Gold.Version>
5.8.1

> <Gold.Id.Protein>
6NUR|6NUR_protein|mol2

> <Gold.PLP.Fitness>
43.9039

> <Gold.PLP.PLP>
-41.2741

> <Gold.PLP.part.hbond>
-5.3935

> <Gold.PLP.part.metal>
0.0000

> <Gold.PLP.part.buried>
0.0918

> <Gold.PLP.part.nonpolar>
-35.9487

> <Gold.PLP.part.repulsive>
0.2588

> <Gold.PLP.ligand.clash>
0.0000

> <Gold.PLP.ligand.torsion>
0.3451

> <Gold.PLP.Chemscore.Hbond>
1.1000

> <Gold.PLP.Chemscore.CHOScore>
0.0000

> <Gold.PLP.Chemscore.Metal>
0.0000

> <Gold.Chemscore.Hbonds>
donor molecule, donor type, donor heavy atom, donor atom, acceptor molecule, acceptor atom, score
      L1  H     8    29       P1  8029  0.35
      L1  H    11    30       P1  8029  0.90

> <Gold.PLP.Chemscore.Internal.Correction>
0.0199

> <Gold.Rescore>
     Score         DG    S(hbond)    S(metal)    S(lipo)     H(rot)  DE(clash)    DE(int)     intcor
     14.01     -14.66       0.09        0.00     109.89       1.55       0.32       0.32       ----

> <Gold.Chemscore.Fitness>
14.0103

> <Gold.Chemscore.DG>
-14.6580

> <Gold.Chemscore.ZeroCoef>
-5.4800

> <Gold.Chemscore.Hbond>
0.0850

> <Gold.Chemscore.Metal>
0.0000

> <Gold.Chemscore.Lipo>
109.8928

> <Gold.Chemscore.Internal_Hbond>
0.0000

> <Gold.Chemscore.DEClash>
0.3241

> <Gold.Chemscore.DEInternal>
0.3235

> <Gold.Chemscore.Rot>
1.5482

> <Gold.Chemscore.Internal.Correction>
   9.000000E+99

> <Gold.Chemscore.Hbonds>
donor molecule, donor type, donor heavy atom, donor atom, acceptor molecule, acceptor atom, score
      L1  H     8    29       P1  8029  0.01
      L1  H    11    30       P1  8029  0.17

> <Gold.Chemscore.Hbond.Weighted>
-0.2840

> <Gold.Chemscore.Metal.Weighted>
-0.0000

> <Gold.Chemscore.Lipo.Weighted>
-12.8575

> <Gold.Chemscore.Internal_Hbond.Weighted>
0.0000

> <Gold.Chemscore.DEClash.Weighted>
0.3241

> <Gold.Chemscore.DEInternal.Weighted>
0.3235

> <Gold.Chemscore.Rot.Weighted>
3.9635

> <Gold.Chemscore.Internal.Correction.Weighted>
   9.000000E+99

> <Gold.Protein.RotatedTorsions>
[ 6907 6896 6895 6894 ] final   96.38 input  -60.11 | X-H torsion
[ 7974 7965 7964 7962 ] final   87.27 input  175.53 | X-H torsion
[ 8008 7997 7996 7995 ] final  155.29 input   59.86 | X-H torsion
[ 10167 10162 10161 10158 ] final  156.54 input  -65.29 | X-H torsion
[ 10718 10713 10712 10709 ] final -108.24 input   66.30 | X-H torsion
[ 10763 10752 10751 10750 ] final  178.84 input  -60.55 | X-H torsion
[ 11005 11000 10999 10996 ] final   81.17 input  -57.11 | X-H torsion

> <Gold.Protein.ActiveResidues>
 VAL166  LYS551  ARG553  GLY616  TRP617  ASP618  TYR619  PRO620  LYS621  CYS622 
 ASP623  PHE694  ASN695  SER759  ASP760  ASP761  ALA762  ILE779  LEU786  VAL792 
 PHE793  MET794  SER795  GLU796  ALA797  LYS798  CYS799  TRP800  GLU811  SER814 

> <Gold.Protein.RotatedAtoms>
  152.5435  134.0895  159.8270 H   0  0  0  0  0  0  0  0  0  0  0  0  # atno 6907 bound_to 6896
  151.0986  133.5253  159.2618 H   0  0  0  0  0  0  0  0  0  0  0  0  # atno 6908 bound_to 6896
  151.2017  135.0454  159.8929 H   0  0  0  0  0  0  0  0  0  0  0  0  # atno 6909 bound_to 6896
  145.5612  139.2304  143.2458 H   0  0  0  0  0  0  0  0  0  0  0  0  # atno 7974 bound_to 7965
  156.2486  140.1943  156.6779 H   0  0  0  0  0  0  0  0  0  0  0  0  # atno 8008 bound_to 7997
  154.6344  140.0591  156.9797 H   0  0  0  0  0  0  0  0  0  0  0  0  # atno 8009 bound_to 7997
  155.1660  140.3264  155.4404 H   0  0  0  0  0  0  0  0  0  0  0  0  # atno 8010 bound_to 7997
  139.4821  144.4999  151.8184 H   0  0  0  0  0  0  0  0  0  0  0  0  # atno 10167 bound_to 10162
  156.0476  130.5703  150.7934 H   0  0  0  0  0  0  0  0  0  0  0  0  # atno 10718 bound_to 10713
  154.5130  135.2789  155.1327 H   0  0  0  0  0  0  0  0  0  0  0  0  # atno 10763 bound_to 10752
  154.2915  135.6266  153.5391 H   0  0  0  0  0  0  0  0  0  0  0  0  # atno 10764 bound_to 10752
  152.9922  135.5675  154.5600 H   0  0  0  0  0  0  0  0  0  0  0  0  # atno 10765 bound_to 10752
  139.9108  134.7976  156.2005 H   0  0  0  0  0  0  0  0  0  0  0  0  # atno 11005 bound_to 11000
  146.1850  140.6437  142.9172 LP  0  0  0  0  0  0  0  0  0  0  0  0  # atno 17320 bound_to 7965
  144.7482  140.5123  143.6820 LP  0  0  0  0  0  0  0  0  0  0  0  0  # atno 17321 bound_to 7965
  140.4491  144.1880  150.5896 LP  0  0  0  0  0  0  0  0  0  0  0  0  # atno 17342 bound_to 10162
  140.4603  143.2451  151.9228 LP  0  0  0  0  0  0  0  0  0  0  0  0  # atno 17343 bound_to 10162
  157.5368  131.0939  150.9881 LP  0  0  0  0  0  0  0  0  0  0  0  0  # atno 17370 bound_to 10713
  157.0174  130.5660  149.5327 LP  0  0  0  0  0  0  0  0  0  0  0  0  # atno 17371 bound_to 10713
  141.0527  133.6880  156.1803 LP  0  0  0  0  0  0  0  0  0  0  0  0  # atno 17394 bound_to 11000
  140.6784  134.4793  157.5588 LP  0  0  0  0  0  0  0  0  0  0  0  0  # atno 17395 bound_to 11000

$$$$
