AV-unprocessed.smi:2558|AV-procd|sdf|10032|dock4
  -GOLD-   2272014 73D 1   1.00000     0.00000
 Structure written by MMmdl.
 43 44  0  0  0  0  0  0  0  0  1 V2000
  150.2779  139.6163  154.6605 C   0  0  0  0  0  0  0  0  0  0  0  0
  151.7275  138.7175  155.3518 S   0  0  0  0  0  0  0  0  0  0  0  0
  151.8966  137.4646  154.5986 O   0  0  0  0  0  0  0  0  0  0  0  0
  152.8559  139.6576  155.4395 O   0  0  0  0  0  0  0  0  0  0  0  0
  151.1956  138.3431  156.9803 N   0  0  0  0  0  0  0  0  0  0  0  0
  150.5580  137.1266  157.3333 C   0  0  0  0  0  0  0  0  0  0  0  0
  150.8317  136.0734  156.7532 O   0  0  0  0  0  0  0  0  0  0  0  0
  149.7391  137.2023  158.4038 N   0  0  0  0  0  0  0  0  0  0  0  0
  149.0531  136.2079  158.9995 C   0  0  0  0  0  0  0  0  0  0  0  0
  149.0916  135.0218  158.6677 O   0  0  0  0  0  0  0  0  0  0  0  0
  148.3316  136.6937  160.0255 N   0  0  0  0  0  0  0  0  0  0  0  0
  147.4787  135.9996  160.9264 C   0  0  0  0  0  0  0  0  0  0  0  0
  147.7600  134.6412  161.1800 C   0  0  0  0  0  0  0  0  0  0  0  0
  146.9443  133.9261  162.0768 C   0  0  0  0  0  0  0  0  0  0  0  0
  145.8765  134.6036  162.6960 C   0  0  0  0  0  0  0  0  0  0  0  0
  145.6016  135.9066  162.4776 N   0  0  0  0  0  0  0  0  0  0  0  0
  146.3877  136.5867  161.6152 C   0  0  0  0  0  0  0  0  0  0  0  0
  151.3068  139.4467  157.9762 C   0  0  0  0  0  0  0  0  0  0  0  0
  150.6794  140.7634  157.4703 C   0  0  0  0  0  0  0  0  0  0  0  0
  150.7253  141.8438  158.5635 C   0  0  0  0  0  0  0  0  0  0  0  0
  152.1571  142.0526  159.0863 C   0  0  0  0  0  0  0  0  0  0  0  0
  152.7672  140.7368  159.5997 C   0  0  0  0  0  0  0  0  0  0  0  0
  152.7433  139.6499  158.5128 C   0  0  0  0  0  0  0  0  0  0  0  0
  150.4923  139.9134  153.6342 H   0  0  0  0  0  0  0  0  0  0  0  0
  150.0809  140.5055  155.2591 H   0  0  0  0  0  0  0  0  0  0  0  0
  149.4014  138.9693  154.6739 H   0  0  0  0  0  0  0  0  0  0  0  0
  149.6148  138.1230  158.7977 H   0  0  0  0  0  0  0  0  0  0  0  0
  148.4472  137.6777  160.2180 H   0  0  0  0  0  0  0  0  0  0  0  0
  148.5884  134.1491  160.6913 H   0  0  0  0  0  0  0  0  0  0  0  0
  147.1325  132.8833  162.2852 H   0  0  0  0  0  0  0  0  0  0  0  0
  145.2296  134.0865  163.3890 H   0  0  0  0  0  0  0  0  0  0  0  0
  146.1308  137.6280  161.5036 H   0  0  0  0  0  0  0  0  0  0  0  0
  150.7246  139.1577  158.8509 H   0  0  0  0  0  0  0  0  0  0  0  0
  151.2035  141.1337  156.5901 H   0  0  0  0  0  0  0  0  0  0  0  0
  149.6463  140.5920  157.1662 H   0  0  0  0  0  0  0  0  0  0  0  0
  150.3313  142.7826  158.1736 H   0  0  0  0  0  0  0  0  0  0  0  0
  150.0738  141.5557  159.3894 H   0  0  0  0  0  0  0  0  0  0  0  0
  152.7811  142.4576  158.2886 H   0  0  0  0  0  0  0  0  0  0  0  0
  152.1551  142.7958  159.8842 H   0  0  0  0  0  0  0  0  0  0  0  0
  153.7917  140.9063  159.9321 H   0  0  0  0  0  0  0  0  0  0  0  0
  152.2122  140.3937  160.4740 H   0  0  0  0  0  0  0  0  0  0  0  0
  153.1281  138.7138  158.9191 H   0  0  0  0  0  0  0  0  0  0  0  0
  153.4245  139.9463  157.7156 H   0  0  0  0  0  0  0  0  0  0  0  0
  1  2  1  0  0  0  0
  1 24  1  0  0  0  0
  1 25  1  0  0  0  0
  1 26  1  0  0  0  0
  2  3  2  0  0  0  0
  2  4  2  0  0  0  0
  2  5  1  0  0  0  0
  5  6  1  0  0  0  0
  5 18  1  0  0  0  0
  6  7  2  0  0  0  0
  6  8  1  0  0  0  0
  8  9  1  0  0  0  0
  8 27  1  0  0  0  0
  9 10  2  0  0  0  0
  9 11  1  0  0  0  0
 11 12  1  0  0  0  0
 11 28  1  0  0  0  0
 12 17  1  0  0  0  0
 12 13  2  0  0  0  0
 13 14  1  0  0  0  0
 13 29  1  0  0  0  0
 14 15  2  0  0  0  0
 14 30  1  0  0  0  0
 15 16  1  0  0  0  0
 15 31  1  0  0  0  0
 16 17  2  0  0  0  0
 17 32  1  0  0  0  0
 18 23  1  0  0  0  0
 18 19  1  0  0  0  0
 18 33  1  0  0  0  0
 19 20  1  0  0  0  0
 19 34  1  0  0  0  0
 19 35  1  0  0  0  0
 20 21  1  0  0  0  0
 20 36  1  0  0  0  0
 20 37  1  0  0  0  0
 21 22  1  0  0  0  0
 21 38  1  0  0  0  0
 21 39  1  0  0  0  0
 22 23  1  0  0  0  0
 22 40  1  0  0  0  0
 22 41  1  0  0  0  0
 23 42  1  0  0  0  0
 23 43  1  0  0  0  0
M  END
> <s_m_source_file>
AV-unprocessed.smi

> <i_m_source_file_index>
2558

> <i_lp_mmshare_version>
43012

> <i_f3d_flags>
0

> <s_epik_input>
W0NIMl0xW0NIMl1bQ0gyXVtDSDJdW0NIMl1bQ0hdMU4oUyg9TykoPU8pW0NIM10pQyg9TylbTkhdQyg9TylbTkhdYzJbY0hdW2NIXVtjSF1uW2NIXTI=

> <s_epik_cmdline>
J2VwaWtfcHl0aG9uJywgJy1waCcsICc3LjAnLCAnLXRuJywgJzgnLCAnLW1hJywgJzIwMCcsICctbWV0YWxfYmluZGluZycsICctaW1hZScsICc8aW5maWxlLm1hZT4nLCAnLW9tYWUnLCAnPG91dGZpbGUubWFlPic=

> <r_epik_Ionization_Penalty>
0.00647128

> <r_epik_Ionization_Penalty_Charging>
0

> <r_epik_Ionization_Penalty_Neutral>
0.00647128

> <r_epik_State_Penalty>
0.00476147

> <r_epik_Charging_Adjusted_Penalty>
0.00476147

> <i_epik_Tot_Q>
0

> <i_epik_Tot_abs_Q>
0

> <r_epik_Metal_State_Penalty>
0.0176635

> <b_epik_Metal_Only>
0

> <s_lp_Force_Field>
OPLS_2005

> <r_lp_Energy>
21.3267

> <b_lp_Chiralities_Consistent>
1

> <s_lp_Variant>
AV-unprocessed.smi:2558-1

> <Gold.Version>
5.8.1

> <Gold.Id.Protein>
6NUR|6NUR_protein|mol2

> <Gold.PLP.Fitness>
43.3721

> <Gold.PLP.PLP>
-35.9719

> <Gold.PLP.part.hbond>
-3.0000

> <Gold.PLP.part.metal>
0.0000

> <Gold.PLP.part.buried>
-5.6232

> <Gold.PLP.part.nonpolar>
-27.9680

> <Gold.PLP.part.repulsive>
0.4799

> <Gold.PLP.ligand.clash>
0.0000

> <Gold.PLP.ligand.torsion>
1.6968

> <Gold.PLP.Chemscore.Hbond>
2.8800

> <Gold.PLP.Chemscore.CHOScore>
0.0000

> <Gold.PLP.Chemscore.Metal>
0.0000

> <Gold.Chemscore.Hbonds>
donor molecule, donor type, donor heavy atom, donor atom, acceptor molecule, acceptor atom, score
      P1  H  6896  6907       L1    10  1.00
      P1  H  7997  8009       L1     4  1.00
      P1  H 10752 10765       L1     3  0.78

> <Gold.PLP.Chemscore.Internal.Correction>
2.1540

> <Gold.Rescore>
     Score         DG    S(hbond)    S(metal)    S(lipo)     H(rot)  DE(clash)    DE(int)     intcor
     17.39     -22.65       2.89        0.00      86.26       1.00       0.17       5.10       ----

> <Gold.Chemscore.Fitness>
17.3876

> <Gold.Chemscore.DG>
-22.6509

> <Gold.Chemscore.ZeroCoef>
-5.4800

> <Gold.Chemscore.Hbond>
2.8857

> <Gold.Chemscore.Metal>
0.0000

> <Gold.Chemscore.Lipo>
86.2620

> <Gold.Chemscore.Internal_Hbond>
0.0000

> <Gold.Chemscore.DEClash>
0.1666

> <Gold.Chemscore.DEInternal>
5.0967

> <Gold.Chemscore.Rot>
1.0000

> <Gold.Chemscore.Internal.Correction>
   9.000000E+99

> <Gold.Chemscore.Hbonds>
donor molecule, donor type, donor heavy atom, donor atom, acceptor molecule, acceptor atom, score
      P1  H  6896  6907       L1    10  0.30
      P1  H  7997  8009       L1     4  1.00
      P1  H 10752 10765       L1     3  0.74

> <Gold.Chemscore.Hbond.Weighted>
-9.6383

> <Gold.Chemscore.Metal.Weighted>
-0.0000

> <Gold.Chemscore.Lipo.Weighted>
-10.0927

> <Gold.Chemscore.Internal_Hbond.Weighted>
0.0000

> <Gold.Chemscore.DEClash.Weighted>
0.1666

> <Gold.Chemscore.DEInternal.Weighted>
5.0967

> <Gold.Chemscore.Rot.Weighted>
2.5600

> <Gold.Chemscore.Internal.Correction.Weighted>
   9.000000E+99

> <Gold.Protein.RotatedTorsions>
[ 6907 6896 6895 6894 ] final  -76.62 input  -60.11 | X-H torsion
[ 7974 7965 7964 7962 ] final  100.36 input  175.53 | X-H torsion
[ 8008 7997 7996 7995 ] final -138.59 input   59.86 | X-H torsion
[ 10167 10162 10161 10158 ] final -168.68 input  -65.29 | X-H torsion
[ 10718 10713 10712 10709 ] final -160.77 input   66.30 | X-H torsion
[ 10763 10752 10751 10750 ] final  165.50 input  -60.55 | X-H torsion
[ 11005 11000 10999 10996 ] final -127.79 input  -57.11 | X-H torsion

> <Gold.Protein.ActiveResidues>
 VAL166  LYS551  ARG553  GLY616  TRP617  ASP618  TYR619  PRO620  LYS621  CYS622 
 ASP623  PHE694  ASN695  SER759  ASP760  ASP761  ALA762  ILE779  LEU786  VAL792 
 PHE793  MET794  SER795  GLU796  ALA797  LYS798  CYS799  TRP800  GLU811  SER814 

> <Gold.Protein.RotatedAtoms>
  150.7022  134.4545  159.5351 H   0  0  0  0  0  0  0  0  0  0  0  0  # atno 6907 bound_to 6896
  152.2231  134.8391  160.0492 H   0  0  0  0  0  0  0  0  0  0  0  0  # atno 6908 bound_to 6896
  151.9234  133.3556  159.3942 H   0  0  0  0  0  0  0  0  0  0  0  0  # atno 6909 bound_to 6896
  145.3866  139.2370  143.3374 H   0  0  0  0  0  0  0  0  0  0  0  0  # atno 7974 bound_to 7965
  155.4309  140.0525  157.3018 H   0  0  0  0  0  0  0  0  0  0  0  0  # atno 8008 bound_to 7997
  154.4860  140.2101  155.9612 H   0  0  0  0  0  0  0  0  0  0  0  0  # atno 8009 bound_to 7997
  156.1275  140.3177  155.8305 H   0  0  0  0  0  0  0  0  0  0  0  0  # atno 8010 bound_to 7997
  139.5970  144.1091  152.1700 H   0  0  0  0  0  0  0  0  0  0  0  0  # atno 10167 bound_to 10162
  156.5869  130.8753  151.2879 H   0  0  0  0  0  0  0  0  0  0  0  0  # atno 10718 bound_to 10713
  154.3249  135.2755  155.2501 H   0  0  0  0  0  0  0  0  0  0  0  0  # atno 10763 bound_to 10752
  154.4838  135.5851  153.6412 H   0  0  0  0  0  0  0  0  0  0  0  0  # atno 10764 bound_to 10752
  152.9872  135.6118  154.3437 H   0  0  0  0  0  0  0  0  0  0  0  0  # atno 10765 bound_to 10752
  140.9570  134.0988  157.4006 H   0  0  0  0  0  0  0  0  0  0  0  0  # atno 11005 bound_to 11000
  146.2817  140.4542  142.8773 LP  0  0  0  0  0  0  0  0  0  0  0  0  # atno 17320 bound_to 7965
  144.8470  140.6944  143.6193 LP  0  0  0  0  0  0  0  0  0  0  0  0  # atno 17321 bound_to 7965
  140.0678  144.5804  150.7214 LP  0  0  0  0  0  0  0  0  0  0  0  0  # atno 17342 bound_to 10162
  140.7220  143.2598  151.4247 LP  0  0  0  0  0  0  0  0  0  0  0  0  # atno 17343 bound_to 10162
  157.7313  130.9698  150.1874 LP  0  0  0  0  0  0  0  0  0  0  0  0  # atno 17370 bound_to 10713
  156.2583  130.3708  149.8158 LP  0  0  0  0  0  0  0  0  0  0  0  0  # atno 17371 bound_to 10713
  139.8865  135.0082  156.6505 LP  0  0  0  0  0  0  0  0  0  0  0  0  # atno 17394 bound_to 11000
  140.7521  133.8888  155.8355 LP  0  0  0  0  0  0  0  0  0  0  0  0  # atno 17395 bound_to 11000

$$$$
