AV-unprocessed.smi:466|AV-procd|sdf|2642|dock1
  -GOLD-   2262023 53D 1   1.00000     0.00000
 Structure written by MMmdl.
 44 46  0  0  0  0  0  0  0  0  2 V2000
  147.3969  131.8466  160.2848 C   0  0  0  0  0  0  0  0  0  0  0  0
  147.8107  133.1525  159.9115 O   0  0  0  0  0  0  0  0  0  0  0  0
  147.4604  134.2089  160.7278 C   0  0  0  0  0  0  0  0  0  0  0  0
  146.6511  134.0756  161.8842 C   0  0  0  0  0  0  0  0  0  0  0  0
  146.3393  135.2000  162.6700 C   0  0  0  0  0  0  0  0  0  0  0  0
  146.8292  136.4673  162.3105 C   0  0  0  0  0  0  0  0  0  0  0  0
  147.6321  136.6116  161.1644 C   0  0  0  0  0  0  0  0  0  0  0  0
  147.9534  135.4842  160.3682 C   0  0  0  0  0  0  0  0  0  0  0  0
  148.7329  135.5452  159.2344 O   0  0  0  0  0  0  0  0  0  0  0  0
  149.0826  136.8146  158.7025 C   0  0  0  0  0  0  0  0  0  0  0  0
  150.3535  136.6540  157.8550 C   0  0  0  0  0  0  0  0  0  0  0  0
  150.1591  137.1253  156.4735 N   0  0  0  0  0  0  0  0  0  0  0  0
  150.0158  136.4229  155.3106 C   0  0  0  0  0  0  0  0  0  0  0  0
  150.0034  134.9323  155.1538 C   0  0  0  0  0  0  0  0  0  0  0  0
  148.6174  134.3887  154.7740 C   0  0  0  0  0  0  0  0  0  0  0  0
  148.6338  133.9381  153.4368 O   0  0  0  0  0  0  0  0  0  0  0  0
  149.8134  137.3349  154.3160 N   0  3  0  0  0  0  0  0  0  0  0  0
  149.8405  138.6267  154.8408 C   0  0  0  0  0  0  0  0  0  0  0  0
  149.6816  139.8635  154.2231 C   0  0  0  0  0  0  0  0  0  0  0  0
  149.7482  140.9999  155.0557 C   0  0  0  0  0  0  0  0  0  0  0  0
  149.9684  140.8807  156.4430 C   0  0  0  0  0  0  0  0  0  0  0  0
  150.1340  139.6213  157.0559 C   0  0  0  0  0  0  0  0  0  0  0  0
  150.0635  138.5015  156.2265 C   0  0  0  0  0  0  0  0  0  0  0  0
  147.7485  131.1332  159.5395 H   0  0  0  0  0  0  0  0  0  0  0  0
  146.3097  131.7698  160.3276 H   0  0  0  0  0  0  0  0  0  0  0  0
  147.8195  131.5536  161.2467 H   0  0  0  0  0  0  0  0  0  0  0  0
  146.2567  133.1190  162.1909 H   0  0  0  0  0  0  0  0  0  0  0  0
  145.7225  135.0891  163.5497 H   0  0  0  0  0  0  0  0  0  0  0  0
  146.5883  137.3303  162.9140 H   0  0  0  0  0  0  0  0  0  0  0  0
  147.9884  137.5993  160.9150 H   0  0  0  0  0  0  0  0  0  0  0  0
  148.2715  137.2011  158.0841 H   0  0  0  0  0  0  0  0  0  0  0  0
  149.2680  137.5289  159.5067 H   0  0  0  0  0  0  0  0  0  0  0  0
  151.1902  137.1909  158.3025 H   0  0  0  0  0  0  0  0  0  0  0  0
  150.6537  135.6074  157.8196 H   0  0  0  0  0  0  0  0  0  0  0  0
  150.7249  134.6412  154.3910 H   0  0  0  0  0  0  0  0  0  0  0  0
  150.3403  134.4837  156.0890 H   0  0  0  0  0  0  0  0  0  0  0  0
  148.3302  133.5590  155.4205 H   0  0  0  0  0  0  0  0  0  0  0  0
  147.8583  135.1648  154.8765 H   0  0  0  0  0  0  0  0  0  0  0  0
  148.6294  134.6897  152.8634 H   0  0  0  0  0  0  0  0  0  0  0  0
  149.5085  139.9566  153.1609 H   0  0  0  0  0  0  0  0  0  0  0  0
  149.6250  141.9818  154.6224 H   0  0  0  0  0  0  0  0  0  0  0  0
  150.0081  141.7724  157.0513 H   0  0  0  0  0  0  0  0  0  0  0  0
  150.2916  139.5434  158.1213 H   0  0  0  0  0  0  0  0  0  0  0  0
  149.6587  137.0872  153.3473 H   0  0  0  0  0  0  0  0  0  0  0  0
  1  2  1  0  0  0  0
  1 24  1  0  0  0  0
  1 25  1  0  0  0  0
  1 26  1  0  0  0  0
  2  3  1  0  0  0  0
  3  8  1  0  0  0  0
  3  4  2  0  0  0  0
  4  5  1  0  0  0  0
  4 27  1  0  0  0  0
  5  6  2  0  0  0  0
  5 28  1  0  0  0  0
  6  7  1  0  0  0  0
  6 29  1  0  0  0  0
  7  8  2  0  0  0  0
  7 30  1  0  0  0  0
  8  9  1  0  0  0  0
  9 10  1  0  0  0  0
 10 11  1  0  0  0  0
 10 31  1  0  0  0  0
 10 32  1  0  0  0  0
 11 12  1  0  0  0  0
 11 33  1  0  0  0  0
 11 34  1  0  0  0  0
 12 23  1  0  0  0  0
 12 13  1  0  0  0  0
 13 14  1  0  0  0  0
 13 17  2  0  0  0  0
 14 15  1  0  0  0  0
 14 35  1  0  0  0  0
 14 36  1  0  0  0  0
 15 16  1  0  0  0  0
 15 37  1  0  0  0  0
 15 38  1  0  0  0  0
 16 39  1  0  0  0  0
 17 18  1  0  0  0  0
 17 44  1  0  0  0  0
 18 23  2  0  0  0  0
 18 19  1  0  0  0  0
 19 20  2  0  0  0  0
 19 40  1  0  0  0  0
 20 21  1  0  0  0  0
 20 41  1  0  0  0  0
 21 22  2  0  0  0  0
 21 42  1  0  0  0  0
 22 23  1  0  0  0  0
 22 43  1  0  0  0  0
M  CHG  1  17   1
M  END
> <s_m_source_file>
AV-unprocessed.smi

> <i_m_source_file_index>
466

> <i_lp_mmshare_version>
43012

> <i_f3d_flags>
0

> <s_epik_input>
W0NIM11PYzFbY0hdW2NIXVtjSF1bY0hdYzFPW0NIMl1bQ0gyXW4oYyhuMilbQ0gyXVtDSDJdW09IXSljKGMyMylbY0hdW2NIXVtjSF1bY0hdMw==

> <s_epik_cmdline>
J2VwaWtfcHl0aG9uJywgJy1waCcsICc3LjAnLCAnLXRuJywgJzgnLCAnLW1hJywgJzIwMCcsICctbWV0YWxfYmluZGluZycsICctaW1hZScsICc8aW5maWxlLm1hZT4nLCAnLW9tYWUnLCAnPG91dGZpbGUubWFlPic=

> <r_lp_tautomer_probability>
1

> <r_epik_Ionization_Penalty>
0.720978

> <r_epik_Ionization_Penalty_Charging>
0.720978

> <r_epik_Ionization_Penalty_Neutral>
5.89567e-08

> <r_epik_State_Penalty>
0.7454

> <r_epik_Charging_Adjusted_Penalty>
1.46638

> <i_epik_Tot_Q>
1

> <i_epik_Tot_abs_Q>
1

> <r_epik_Metal_State_Penalty>
4.64029

> <b_epik_Metal_Only>
0

> <s_lp_Force_Field>
OPLS_2005

> <r_lp_Energy>
24.0837

> <b_lp_Chiralities_Consistent>
1

> <s_lp_Variant>
AV-unprocessed.smi:466-2

> <Gold.Version>
5.8.1

> <Gold.Id.Protein>
6NUR|6NUR_protein|mol2

> <Gold.PLP.Fitness>
47.9459

> <Gold.PLP.PLP>
-37.9405

> <Gold.PLP.part.hbond>
-3.0000

> <Gold.PLP.part.metal>
0.0000

> <Gold.PLP.part.buried>
-2.2102

> <Gold.PLP.part.nonpolar>
-32.4769

> <Gold.PLP.part.repulsive>
0.0216

> <Gold.PLP.ligand.clash>
0.0000

> <Gold.PLP.ligand.torsion>
1.1519

> <Gold.PLP.Chemscore.Hbond>
4.0000

> <Gold.PLP.Chemscore.CHOScore>
0.0000

> <Gold.PLP.Chemscore.Metal>
0.0000

> <Gold.Chemscore.Hbonds>
donor molecule, donor type, donor heavy atom, donor atom, acceptor molecule, acceptor atom, score
      L1  H    16    39       P1  7948  0.90
      L1  H    17    44       P1  7948  2.00
      P1  H  6896  6908       L1     9  0.62

> <Gold.PLP.Chemscore.Internal.Correction>
0.3091

> <Gold.Rescore>
     Score         DG    S(hbond)    S(metal)    S(lipo)     H(rot)  DE(clash)    DE(int)     intcor
     17.75     -18.81       2.62        0.00      97.95       2.68       0.05       1.01       ----

> <Gold.Chemscore.Fitness>
17.7511

> <Gold.Chemscore.DG>
-18.8081

> <Gold.Chemscore.ZeroCoef>
-5.4800

> <Gold.Chemscore.Hbond>
2.6164

> <Gold.Chemscore.Metal>
0.0000

> <Gold.Chemscore.Lipo>
97.9527

> <Gold.Chemscore.Internal_Hbond>
0.0000

> <Gold.Chemscore.DEClash>
0.0504

> <Gold.Chemscore.DEInternal>
1.0066

> <Gold.Chemscore.Rot>
2.6840

> <Gold.Chemscore.Internal.Correction>
   9.000000E+99

> <Gold.Chemscore.Hbonds>
donor molecule, donor type, donor heavy atom, donor atom, acceptor molecule, acceptor atom, score
      L1  H    16    39       P1  7948  0.18
      L1  H    17    44       P1  7948  0.70
      P1  H  6896  6908       L1     9  0.19

> <Gold.Chemscore.Hbond.Weighted>
-8.7386

> <Gold.Chemscore.Metal.Weighted>
-0.0000

> <Gold.Chemscore.Lipo.Weighted>
-11.4605

> <Gold.Chemscore.Internal_Hbond.Weighted>
0.0000

> <Gold.Chemscore.DEClash.Weighted>
0.0504

> <Gold.Chemscore.DEInternal.Weighted>
1.0066

> <Gold.Chemscore.Rot.Weighted>
6.8710

> <Gold.Chemscore.Internal.Correction.Weighted>
   9.000000E+99

> <Gold.Protein.RotatedTorsions>
[ 6907 6896 6895 6894 ] final  171.02 input  -60.11 | X-H torsion
[ 7974 7965 7964 7962 ] final   37.14 input  175.53 | X-H torsion
[ 8008 7997 7996 7995 ] final -178.75 input   59.86 | X-H torsion
[ 10167 10162 10161 10158 ] final   23.78 input  -65.29 | X-H torsion
[ 10718 10713 10712 10709 ] final  104.37 input   66.30 | X-H torsion
[ 10763 10752 10751 10750 ] final -146.84 input  -60.55 | X-H torsion
[ 11005 11000 10999 10996 ] final  172.72 input  -57.11 | X-H torsion

> <Gold.Protein.ActiveResidues>
 VAL166  LYS551  ARG553  GLY616  TRP617  ASP618  TYR619  PRO620  LYS621  CYS622 
 ASP623  PHE694  ASN695  SER759  ASP760  ASP761  ALA762  ILE779  LEU786  VAL792 
 PHE793  MET794  SER795  GLU796  ALA797  LYS798  CYS799  TRP800  GLU811  SER814 

> <Gold.Protein.RotatedAtoms>
  151.8069  133.3377  159.3543 H   0  0  0  0  0  0  0  0  0  0  0  0  # atno 6907 bound_to 6896
  150.7339  134.5701  159.5895 H   0  0  0  0  0  0  0  0  0  0  0  0  # atno 6908 bound_to 6896
  152.3103  134.7506  160.0389 H   0  0  0  0  0  0  0  0  0  0  0  0  # atno 6909 bound_to 6896
  146.1159  139.5931  142.9321 H   0  0  0  0  0  0  0  0  0  0  0  0  # atno 7974 bound_to 7965
  156.0225  140.1264  157.0343 H   0  0  0  0  0  0  0  0  0  0  0  0  # atno 8008 bound_to 7997
  154.4317  140.1066  156.6053 H   0  0  0  0  0  0  0  0  0  0  0  0  # atno 8009 bound_to 7997
  155.5924  140.3469  155.4572 H   0  0  0  0  0  0  0  0  0  0  0  0  # atno 8010 bound_to 7997
  140.5241  143.9952  150.6431 H   0  0  0  0  0  0  0  0  0  0  0  0  # atno 10167 bound_to 10162
  157.6742  131.0802  150.5695 H   0  0  0  0  0  0  0  0  0  0  0  0  # atno 10718 bound_to 10713
  154.8316  135.3376  154.6725 H   0  0  0  0  0  0  0  0  0  0  0  0  # atno 10763 bound_to 10752
  153.7344  135.6950  153.4986 H   0  0  0  0  0  0  0  0  0  0  0  0  # atno 10764 bound_to 10752
  153.2289  135.4423  155.0524 H   0  0  0  0  0  0  0  0  0  0  0  0  # atno 10765 bound_to 10752
  140.3327  134.7343  157.4146 H   0  0  0  0  0  0  0  0  0  0  0  0  # atno 11005 bound_to 11000
  145.5567  141.0408  143.2249 LP  0  0  0  0  0  0  0  0  0  0  0  0  # atno 17320 bound_to 7965
  144.7553  139.7090  143.7256 LP  0  0  0  0  0  0  0  0  0  0  0  0  # atno 17321 bound_to 7965
  140.3309  143.3078  152.0688 LP  0  0  0  0  0  0  0  0  0  0  0  0  # atno 17342 bound_to 10162
  139.4933  144.6509  151.6677 LP  0  0  0  0  0  0  0  0  0  0  0  0  # atno 17343 bound_to 10162
  156.5997  130.4351  149.5902 LP  0  0  0  0  0  0  0  0  0  0  0  0  # atno 17370 bound_to 10713
  156.2516  130.6910  151.1650 LP  0  0  0  0  0  0  0  0  0  0  0  0  # atno 17371 bound_to 10713
  140.0847  134.5683  155.8505 LP  0  0  0  0  0  0  0  0  0  0  0  0  # atno 17394 bound_to 11000
  141.2059  133.6651  156.6209 LP  0  0  0  0  0  0  0  0  0  0  0  0  # atno 17395 bound_to 11000

$$$$
