AV-unprocessed.smi:2202|AV-procd|sdf|8933|dock10
  -GOLD-   2272012153D 1   1.00000     0.00000
 Structure written by MMmdl.
 43 45  0  0  0  0  0  0  0  0  2 V2000
  149.6317  141.1042  153.6477 O   0  0  0  0  0  0  0  0  0  0  0  0
  148.6062  140.8372  154.2767 C   0  0  0  0  0  0  0  0  0  0  0  0
  147.2359  140.8126  153.5847 C   0  0  0  0  0  0  0  0  0  0  0  0
  146.6283  139.4763  153.5466 N   0  0  0  0  0  0  0  0  0  0  0  0
  146.5730  138.6974  152.4481 C   0  0  0  0  0  0  0  0  0  0  0  0
  146.9050  139.0014  151.3029 O   0  0  0  0  0  0  0  0  0  0  0  0
  146.1060  137.3068  152.8510 C   0  0  2  0  0  0  0  0  0  0  0  0
  145.2073  136.4419  151.9589 C   0  0  0  0  0  0  0  0  0  0  0  0
  144.7353  135.2403  152.7843 C   0  0  0  0  0  0  0  0  0  0  0  0
  144.8229  135.1742  154.1358 C   0  0  0  0  0  0  0  0  0  0  0  0
  145.3667  136.3096  155.0095 C   0  0  0  0  0  0  0  0  0  0  0  0
  145.3983  137.5869  154.1616 C   0  0  1  0  0  0  0  0  0  0  0  0
  146.0923  138.8606  154.6189 C   0  0  0  0  0  0  0  0  0  0  0  0
  146.0923  139.2607  155.7827 O   0  0  0  0  0  0  0  0  0  0  0  0
  148.6052  140.5595  155.5890 N   0  0  0  0  0  0  0  0  0  0  0  0
  149.7934  140.5218  156.4330 C   0  0  0  0  0  0  0  0  0  0  0  0
  149.5547  141.2300  157.7775 C   0  0  0  0  0  0  0  0  0  0  0  0
  150.6326  142.2499  158.0876 C   0  0  0  0  0  0  0  0  0  0  0  0
  151.6692  141.9934  159.0110 C   0  0  0  0  0  0  0  0  0  0  0  0
  152.6355  142.9917  159.2557 C   0  0  0  0  0  0  0  0  0  0  0  0
  152.5448  144.2228  158.5732 C   0  0  0  0  0  0  0  0  0  0  0  0
  151.4883  144.4251  157.6618 C   0  0  0  0  0  0  0  0  0  0  0  0
  150.5815  143.4449  157.4554 N   0  3  0  0  0  0  0  0  0  0  0  0
  146.5640  141.5038  154.0968 H   0  0  0  0  0  0  0  0  0  0  0  0
  147.3516  141.2052  152.5732 H   0  0  0  0  0  0  0  0  0  0  0  0
  147.0208  136.7416  153.0458 H   0  0  0  0  0  0  0  0  0  0  0  0
  144.3440  136.9989  151.5930 H   0  0  0  0  0  0  0  0  0  0  0  0
  145.7651  136.0887  151.0912 H   0  0  0  0  0  0  0  0  0  0  0  0
  144.3171  134.4100  152.2345 H   0  0  0  0  0  0  0  0  0  0  0  0
  144.4931  134.2833  154.6497 H   0  0  0  0  0  0  0  0  0  0  0  0
  144.7152  136.4464  155.8731 H   0  0  0  0  0  0  0  0  0  0  0  0
  146.3576  136.0460  155.3809 H   0  0  0  0  0  0  0  0  0  0  0  0
  144.3640  137.8768  153.9614 H   0  0  0  0  0  0  0  0  0  0  0  0
  147.7201  140.3573  156.0318 H   0  0  0  0  0  0  0  0  0  0  0  0
  150.1003  139.4864  156.5922 H   0  0  0  0  0  0  0  0  0  0  0  0
  150.6087  141.0078  155.8963 H   0  0  0  0  0  0  0  0  0  0  0  0
  148.5828  141.7256  157.7710 H   0  0  0  0  0  0  0  0  0  0  0  0
  149.5221  140.5030  158.5904 H   0  0  0  0  0  0  0  0  0  0  0  0
  151.7249  141.0458  159.5270 H   0  0  0  0  0  0  0  0  0  0  0  0
  153.4361  142.8155  159.9594 H   0  0  0  0  0  0  0  0  0  0  0  0
  153.2744  145.0002  158.7469 H   0  0  0  0  0  0  0  0  0  0  0  0
  151.3411  145.3345  157.0974 H   0  0  0  0  0  0  0  0  0  0  0  0
  149.8240  143.6132  156.7925 H   0  0  0  0  0  0  0  0  0  0  0  0
  1  2  2  0  0  0  0
  2  3  1  0  0  0  0
  2 15  1  0  0  0  0
  3  4  1  0  0  0  0
  3 24  1  0  0  0  0
  3 25  1  0  0  0  0
  4 13  1  0  0  0  0
  4  5  1  0  0  0  0
  5  6  2  0  0  0  0
  5  7  1  0  0  0  0
  7 12  1  0  0  0  0
  7  8  1  0  0  0  0
  7 26  1  0  0  0  0
  8  9  1  0  0  0  0
  8 27  1  0  0  0  0
  8 28  1  0  0  0  0
  9 10  2  0  0  0  0
  9 29  1  0  0  0  0
 10 11  1  0  0  0  0
 10 30  1  0  0  0  0
 11 12  1  0  0  0  0
 11 31  1  0  0  0  0
 11 32  1  0  0  0  0
 12 13  1  0  0  0  0
 12 33  1  0  0  0  0
 13 14  2  0  0  0  0
 15 16  1  0  0  0  0
 15 34  1  0  0  0  0
 16 17  1  0  0  0  0
 16 35  1  0  0  0  0
 16 36  1  0  0  0  0
 17 18  1  0  0  0  0
 17 37  1  0  0  0  0
 17 38  1  0  0  0  0
 18 23  1  0  0  0  0
 18 19  2  0  0  0  0
 19 20  1  0  0  0  0
 19 39  1  0  0  0  0
 20 21  2  0  0  0  0
 20 40  1  0  0  0  0
 21 22  1  0  0  0  0
 21 41  1  0  0  0  0
 22 23  2  0  0  0  0
 22 42  1  0  0  0  0
 23 43  1  0  0  0  0
M  CHG  1  23   1
M  END
> <s_m_source_file>
AV-unprocessed.smi

> <i_m_source_file_index>
2202

> <i_lp_mmshare_version>
43012

> <i_f3d_flags>
0

> <s_epik_input>
W0NIMl0xW0NIXT1bQ0hdW0NIMl1bQ0BIXShbQ0BIXTEyKUMoPU8pTihDMj1PKVtDSDJdQyg9TylbTkhdW0NIMl1bQ0gyXWMzW2NIXVtjSF1bY0hdW2NIXW4z

> <s_epik_cmdline>
J2VwaWtfcHl0aG9uJywgJy1waCcsICc3LjAnLCAnLXRuJywgJzgnLCAnLW1hJywgJzIwMCcsICctbWV0YWxfYmluZGluZycsICctaW1hZScsICc8aW5maWxlLm1hZT4nLCAnLW9tYWUnLCAnPG91dGZpbGUubWFlPic=

> <r_lp_tautomer_probability>
1

> <r_epik_Ionization_Penalty>
1.90039

> <r_epik_Ionization_Penalty_Charging>
1.90039

> <r_epik_Ionization_Penalty_Neutral>
1.50224e-07

> <r_epik_State_Penalty>
2.02162

> <r_epik_Charging_Adjusted_Penalty>
3.922

> <i_epik_Tot_Q>
1

> <i_epik_Tot_abs_Q>
1

> <r_epik_Metal_State_Penalty>
2.04542

> <b_epik_Metal_Only>
0

> <s_lp_Force_Field>
OPLS_2005

> <r_lp_Energy>
26.3593

> <b_lp_Chiralities_Consistent>
1

> <s_lp_Variant>
AV-unprocessed.smi:2202-5

> <Gold.Version>
5.8.1

> <Gold.Id.Protein>
6NUR|6NUR_protein|mol2

> <Gold.PLP.Fitness>
45.2488

> <Gold.PLP.PLP>
-34.3114

> <Gold.PLP.part.hbond>
-3.7497

> <Gold.PLP.part.metal>
0.0000

> <Gold.PLP.part.buried>
-5.7932

> <Gold.PLP.part.nonpolar>
-31.2480

> <Gold.PLP.part.repulsive>
5.7215

> <Gold.PLP.ligand.clash>
0.0000

> <Gold.PLP.ligand.torsion>
0.8995

> <Gold.PLP.Chemscore.Hbond>
4.2356

> <Gold.PLP.Chemscore.CHOScore>
0.0000

> <Gold.PLP.Chemscore.Metal>
0.0000

> <Gold.Chemscore.Hbonds>
donor molecule, donor type, donor heavy atom, donor atom, acceptor molecule, acceptor atom, score
      L1  H    23    43       P1  8028  2.00
      P1  H  7954  7966       L1     6  0.51
      P1  H  7989  7998       L1     1  0.27
      P1  H  8011  8017       L1     1  0.96

> <Gold.PLP.Chemscore.Internal.Correction>
0.0296

> <Gold.Rescore>
     Score         DG    S(hbond)    S(metal)    S(lipo)     H(rot)  DE(clash)    DE(int)     intcor
     17.14     -21.17       3.02        0.00      90.98       1.96       3.00       1.04       ----

> <Gold.Chemscore.Fitness>
17.1355

> <Gold.Chemscore.DG>
-21.1706

> <Gold.Chemscore.ZeroCoef>
-5.4800

> <Gold.Chemscore.Hbond>
3.0151

> <Gold.Chemscore.Metal>
0.0000

> <Gold.Chemscore.Lipo>
90.9762

> <Gold.Chemscore.Internal_Hbond>
0.0000

> <Gold.Chemscore.DEClash>
2.9972

> <Gold.Chemscore.DEInternal>
1.0379

> <Gold.Chemscore.Rot>
1.9625

> <Gold.Chemscore.Internal.Correction>
   9.000000E+99

> <Gold.Chemscore.Hbonds>
donor molecule, donor type, donor heavy atom, donor atom, acceptor molecule, acceptor atom, score
      L1  H    23    43       P1  8028  0.94
      P1  H  7954  7966       L1     6  0.50
      P1  H  7989  7998       L1     1  0.27
      P1  H  8011  8017       L1     1  0.92

> <Gold.Chemscore.Hbond.Weighted>
-10.0704

> <Gold.Chemscore.Metal.Weighted>
-0.0000

> <Gold.Chemscore.Lipo.Weighted>
-10.6442

> <Gold.Chemscore.Internal_Hbond.Weighted>
0.0000

> <Gold.Chemscore.DEClash.Weighted>
2.9972

> <Gold.Chemscore.DEInternal.Weighted>
1.0379

> <Gold.Chemscore.Rot.Weighted>
5.0240

> <Gold.Chemscore.Internal.Correction.Weighted>
   9.000000E+99

> <Gold.Protein.RotatedTorsions>
[ 6907 6896 6895 6894 ] final  -19.53 input  -60.11 | X-H torsion
[ 7974 7965 7964 7962 ] final  -84.71 input  175.53 | X-H torsion
[ 8008 7997 7996 7995 ] final   55.74 input   59.86 | X-H torsion
[ 10167 10162 10161 10158 ] final -150.55 input  -65.29 | X-H torsion
[ 10718 10713 10712 10709 ] final -173.50 input   66.30 | X-H torsion
[ 10763 10752 10751 10750 ] final   94.51 input  -60.55 | X-H torsion
[ 11005 11000 10999 10996 ] final   26.68 input  -57.11 | X-H torsion

> <Gold.Protein.ActiveResidues>
 VAL166  LYS551  ARG553  GLY616  TRP617  ASP618  TYR619  PRO620  LYS621  CYS622 
 ASP623  PHE694  ASN695  SER759  ASP760  ASP761  ALA762  ILE779  LEU786  VAL792 
 PHE793  MET794  SER795  GLU796  ALA797  LYS798  CYS799  TRP800  GLU811  SER814 

> <Gold.Protein.RotatedAtoms>
  151.2618  135.0656  159.9100 H   0  0  0  0  0  0  0  0  0  0  0  0  # atno 6907 bound_to 6896
  152.5365  134.0223  159.7998 H   0  0  0  0  0  0  0  0  0  0  0  0  # atno 6908 bound_to 6896
  151.0447  133.5625  159.2679 H   0  0  0  0  0  0  0  0  0  0  0  0  # atno 6909 bound_to 6896
  145.5030  140.9546  143.1749 H   0  0  0  0  0  0  0  0  0  0  0  0  # atno 7974 bound_to 7965
  155.5061  140.3476  155.4380 H   0  0  0  0  0  0  0  0  0  0  0  0  # atno 8008 bound_to 7997
  156.0881  140.1403  156.9655 H   0  0  0  0  0  0  0  0  0  0  0  0  # atno 8009 bound_to 7997
  154.4618  140.0932  156.6891 H   0  0  0  0  0  0  0  0  0  0  0  0  # atno 8010 bound_to 7997
  139.7344  143.8758  152.2544 H   0  0  0  0  0  0  0  0  0  0  0  0  # atno 10167 bound_to 10162
  156.7713  130.9449  151.3120 H   0  0  0  0  0  0  0  0  0  0  0  0  # atno 10718 bound_to 10713
  153.2425  135.4287  155.0713 H   0  0  0  0  0  0  0  0  0  0  0  0  # atno 10763 bound_to 10752
  154.8347  135.3406  154.6629 H   0  0  0  0  0  0  0  0  0  0  0  0  # atno 10764 bound_to 10752
  153.7052  135.7026  153.5109 H   0  0  0  0  0  0  0  0  0  0  0  0  # atno 10765 bound_to 10752
  140.3344  134.2402  155.7698 H   0  0  0  0  0  0  0  0  0  0  0  0  # atno 11005 bound_to 11000
  144.7769  139.6610  143.7171 LP  0  0  0  0  0  0  0  0  0  0  0  0  # atno 17320 bound_to 7965
  146.2214  139.5643  142.9616 LP  0  0  0  0  0  0  0  0  0  0  0  0  # atno 17321 bound_to 7965
  139.8690  144.7078  150.9010 LP  0  0  0  0  0  0  0  0  0  0  0  0  # atno 17342 bound_to 10162
  140.7776  143.3754  151.1573 LP  0  0  0  0  0  0  0  0  0  0  0  0  # atno 17343 bound_to 10162
  157.6690  130.9033  149.9996 LP  0  0  0  0  0  0  0  0  0  0  0  0  # atno 17370 bound_to 10713
  156.1276  130.3644  149.9783 LP  0  0  0  0  0  0  0  0  0  0  0  0  # atno 17371 bound_to 10713
  141.2055  133.7858  157.0229 LP  0  0  0  0  0  0  0  0  0  0  0  0  # atno 17394 bound_to 11000
  140.0834  134.9635  157.1660 LP  0  0  0  0  0  0  0  0  0  0  0  0  # atno 17395 bound_to 11000

$$$$
