AV-unprocessed.smi:1278|AV-procd|sdf|5347|dock5
  -GOLD-   22720 4483D 1   1.00000     0.00000
 Structure written by MMmdl.
 39 40  0  0  0  0  0  0  0  0  2 V2000
  152.3302  138.6041  154.3767 C   0  0  0  0  0  0  0  0  0  0  0  0
  150.9108  138.0731  154.1296 C   0  0  2  0  0  0  0  0  0  0  0  0
  149.8465  139.0501  154.6572 C   0  0  0  0  0  0  0  0  0  0  0  0
  148.4412  138.4820  154.4241 C   0  0  0  0  0  0  0  0  0  0  0  0
  148.3056  137.0818  155.0424 C   0  0  0  0  0  0  0  0  0  0  0  0
  149.3408  136.1580  154.5108 N   0  3  2  0  0  0  0  0  0  0  0  0
  149.1487  134.7680  154.9949 C   0  0  0  0  0  0  0  0  0  0  0  0
  149.9132  133.7360  154.1431 C   0  0  0  0  0  0  0  0  0  0  0  0
  149.1597  133.3627  152.9512 N   0  0  0  0  0  0  0  0  0  0  0  0
  147.8369  133.1443  152.9225 C   0  0  0  0  0  0  0  0  0  0  0  0
  147.1160  133.2425  153.9162 O   0  0  0  0  0  0  0  0  0  0  0  0
  147.4203  132.8141  151.6874 N   0  0  0  0  0  0  0  0  0  0  0  0
  146.0973  132.5329  151.2553 C   0  0  0  0  0  0  0  0  0  0  0  0
  145.2285  133.4599  150.8354 N   0  0  0  0  0  0  0  0  0  0  0  0
  144.0032  132.9007  150.4644 C   0  0  0  0  0  0  0  0  0  0  0  0
  143.9563  131.5362  150.6085 C   0  0  0  0  0  0  0  0  0  0  0  0
  145.4578  130.8962  151.2216 S   0  0  0  0  0  0  0  0  0  0  0  0
  150.7135  136.6778  154.7564 C   0  0  0  0  0  0  0  0  0  0  0  0
  152.5332  138.7138  155.4425 H   0  0  0  0  0  0  0  0  0  0  0  0
  152.4718  139.5789  153.9092 H   0  0  0  0  0  0  0  0  0  0  0  0
  153.0802  137.9292  153.9631 H   0  0  0  0  0  0  0  0  0  0  0  0
  150.7791  137.9801  153.0503 H   0  0  0  0  0  0  0  0  0  0  0  0
  149.9980  139.2267  155.7232 H   0  0  0  0  0  0  0  0  0  0  0  0
  149.9415  140.0183  154.1642 H   0  0  0  0  0  0  0  0  0  0  0  0
  147.6937  139.1514  154.8513 H   0  0  0  0  0  0  0  0  0  0  0  0
  148.2365  138.4327  153.3536 H   0  0  0  0  0  0  0  0  0  0  0  0
  148.3900  137.1379  156.1289 H   0  0  0  0  0  0  0  0  0  0  0  0
  147.3120  136.6906  154.8208 H   0  0  0  0  0  0  0  0  0  0  0  0
  149.4369  134.7070  156.0456 H   0  0  0  0  0  0  0  0  0  0  0  0
  148.0883  134.5142  154.9542 H   0  0  0  0  0  0  0  0  0  0  0  0
  150.8685  134.1532  153.8235 H   0  0  0  0  0  0  0  0  0  0  0  0
  150.1445  132.8356  154.7129 H   0  0  0  0  0  0  0  0  0  0  0  0
  149.6809  133.2591  152.0924 H   0  0  0  0  0  0  0  0  0  0  0  0
  148.1290  132.7640  150.9704 H   0  0  0  0  0  0  0  0  0  0  0  0
  143.2172  133.5491  150.1067 H   0  0  0  0  0  0  0  0  0  0  0  0
  143.1327  130.8722  150.3920 H   0  0  0  0  0  0  0  0  0  0  0  0
  151.4521  135.9951  154.3372 H   0  0  0  0  0  0  0  0  0  0  0  0
  150.8990  136.7176  155.8312 H   0  0  0  0  0  0  0  0  0  0  0  0
  149.2084  136.1341  153.5099 H   0  0  0  0  0  0  0  0  0  0  0  0
  1  2  1  0  0  0  0
  1 19  1  0  0  0  0
  1 20  1  0  0  0  0
  1 21  1  0  0  0  0
  2 18  1  0  0  0  0
  2  3  1  0  0  0  0
  2 22  1  0  0  0  0
  3  4  1  0  0  0  0
  3 23  1  0  0  0  0
  3 24  1  0  0  0  0
  4  5  1  0  0  0  0
  4 25  1  0  0  0  0
  4 26  1  0  0  0  0
  5  6  1  0  0  0  0
  5 27  1  0  0  0  0
  5 28  1  0  0  0  0
  6  7  1  0  0  0  0
  6 18  1  0  0  0  0
  6 39  1  0  0  0  0
  7  8  1  0  0  0  0
  7 29  1  0  0  0  0
  7 30  1  0  0  0  0
  8  9  1  0  0  0  0
  8 31  1  0  0  0  0
  8 32  1  0  0  0  0
  9 10  1  0  0  0  0
  9 33  1  0  0  0  0
 10 11  2  0  0  0  0
 10 12  1  0  0  0  0
 12 13  1  0  0  0  0
 12 34  1  0  0  0  0
 13 17  1  0  0  0  0
 13 14  2  0  0  0  0
 14 15  1  0  0  0  0
 15 16  2  0  0  0  0
 15 35  1  0  0  0  0
 16 17  1  0  0  0  0
 16 36  1  0  0  0  0
 18 37  1  0  0  0  0
 18 38  1  0  0  0  0
M  CHG  1   6   1
M  END
> <s_m_source_file>
AV-unprocessed.smi

> <i_m_source_file_index>
1278

> <i_lp_mmshare_version>
43012

> <i_f3d_flags>
0

> <s_epik_input>
W0NIM11bQ0BASF0xW0NIMl1bQ0gyXVtDSDJdTihbQ0gyXTEpW0NIMl1bQ0gyXVtOSF1DKD1PKVtOSF1jMm5bY0hdW2NIXXMy

> <s_epik_cmdline>
J2VwaWtfcHl0aG9uJywgJy1waCcsICc3LjAnLCAnLXRuJywgJzgnLCAnLW1hJywgJzIwMCcsICctbWV0YWxfYmluZGluZycsICctaW1hZScsICc8aW5maWxlLm1hZT4nLCAnLW9tYWUnLCAnPG91dGZpbGUubWFlPic=

> <r_lp_tautomer_probability>
0.999

> <r_epik_Ionization_Penalty>
0.00222194

> <r_epik_Ionization_Penalty_Charging>
0.00208169

> <r_epik_Ionization_Penalty_Neutral>
0.000140251

> <r_epik_State_Penalty>
0.00142585

> <r_epik_Charging_Adjusted_Penalty>
0.00350754

> <i_epik_Tot_Q>
1

> <i_epik_Tot_abs_Q>
1

> <r_epik_Metal_State_Penalty>
0.0570424

> <b_epik_Metal_Only>
0

> <s_lp_Force_Field>
OPLS_2005

> <r_lp_Energy>
14.0127

> <b_lp_Chiralities_Consistent>
1

> <s_lp_Variant>
AV-unprocessed.smi:1278-1

> <Gold.Version>
5.8.1

> <Gold.Id.Protein>
6NUR|6NUR_protein|mol2

> <Gold.PLP.Fitness>
45.8260

> <Gold.PLP.PLP>
-34.7677

> <Gold.PLP.part.hbond>
-2.8644

> <Gold.PLP.part.metal>
0.0000

> <Gold.PLP.part.buried>
-5.2381

> <Gold.PLP.part.nonpolar>
-26.8936

> <Gold.PLP.part.repulsive>
0.2714

> <Gold.PLP.ligand.clash>
0.0000

> <Gold.PLP.ligand.torsion>
1.1041

> <Gold.PLP.Chemscore.Hbond>
2.4137

> <Gold.PLP.Chemscore.CHOScore>
2.0000

> <Gold.PLP.Chemscore.Metal>
0.0000

> <Gold.Chemscore.Hbonds>
donor molecule, donor type, donor heavy atom, donor atom, acceptor molecule, acceptor atom, score
      L1  H     6    39       P1  7948  2.00
      L1  H    12    34       P1 10747  0.30
      L1  C    15    35       P1 10186  1.00
      L1  C    16    36       P1 10952  1.00

> <Gold.PLP.Chemscore.Internal.Correction>
0.0255

> <Gold.Rescore>
     Score         DG    S(hbond)    S(metal)    S(lipo)     H(rot)  DE(clash)    DE(int)     intcor
     13.62     -16.35       1.80        0.00      76.59       1.60       0.15       2.57       ----

> <Gold.Chemscore.Fitness>
13.6241

> <Gold.Chemscore.DG>
-16.3454

> <Gold.Chemscore.ZeroCoef>
-5.4800

> <Gold.Chemscore.Hbond>
1.7965

> <Gold.Chemscore.Metal>
0.0000

> <Gold.Chemscore.Lipo>
76.5923

> <Gold.Chemscore.Internal_Hbond>
0.0000

> <Gold.Chemscore.DEClash>
0.1546

> <Gold.Chemscore.DEInternal>
2.5666

> <Gold.Chemscore.Rot>
1.6001

> <Gold.Chemscore.Internal.Correction>
   9.000000E+99

> <Gold.Chemscore.Hbonds>
donor molecule, donor type, donor heavy atom, donor atom, acceptor molecule, acceptor atom, score
      L1  H     6    39       P1  7948  0.88
      L1  H    12    34       P1 10747  0.29

> <Gold.Chemscore.Hbond.Weighted>
-6.0003

> <Gold.Chemscore.Metal.Weighted>
-0.0000

> <Gold.Chemscore.Lipo.Weighted>
-8.9613

> <Gold.Chemscore.Internal_Hbond.Weighted>
0.0000

> <Gold.Chemscore.DEClash.Weighted>
0.1546

> <Gold.Chemscore.DEInternal.Weighted>
2.5666

> <Gold.Chemscore.Rot.Weighted>
4.0963

> <Gold.Chemscore.Internal.Correction.Weighted>
   9.000000E+99

> <Gold.Protein.RotatedTorsions>
[ 6907 6896 6895 6894 ] final  150.79 input  -60.11 | X-H torsion
[ 7974 7965 7964 7962 ] final  137.85 input  175.53 | X-H torsion
[ 8008 7997 7996 7995 ] final  160.47 input   59.86 | X-H torsion
[ 10167 10162 10161 10158 ] final   70.93 input  -65.29 | X-H torsion
[ 10718 10713 10712 10709 ] final -163.00 input   66.30 | X-H torsion
[ 10763 10752 10751 10750 ] final  135.03 input  -60.55 | X-H torsion
[ 11005 11000 10999 10996 ] final    3.73 input  -57.11 | X-H torsion

> <Gold.Protein.ActiveResidues>
 VAL166  LYS551  ARG553  GLY616  TRP617  ASP618  TYR619  PRO620  LYS621  CYS622 
 ASP623  PHE694  ASN695  SER759  ASP760  ASP761  ALA762  ILE779  LEU786  VAL792 
 PHE793  MET794  SER795  GLU796  ALA797  LYS798  CYS799  TRP800  GLU811  SER814 

> <Gold.Protein.RotatedAtoms>
  152.1096  133.4293  159.4624 H   0  0  0  0  0  0  0  0  0  0  0  0  # atno 6907 bound_to 6896
  150.6867  134.2664  159.4579 H   0  0  0  0  0  0  0  0  0  0  0  0  # atno 6908 bound_to 6896
  152.0531  134.9640  160.0625 H   0  0  0  0  0  0  0  0  0  0  0  0  # atno 6909 bound_to 6896
  144.9429  139.4910  143.5563 H   0  0  0  0  0  0  0  0  0  0  0  0  # atno 7974 bound_to 7965
  156.2170  140.1803  156.7566 H   0  0  0  0  0  0  0  0  0  0  0  0  # atno 8008 bound_to 7997
  154.5806  140.0667  156.9128 H   0  0  0  0  0  0  0  0  0  0  0  0  # atno 8009 bound_to 7997
  155.2508  140.3329  155.4285 H   0  0  0  0  0  0  0  0  0  0  0  0  # atno 8010 bound_to 7997
  140.0516  144.5307  150.7359 H   0  0  0  0  0  0  0  0  0  0  0  0  # atno 10167 bound_to 10162
  156.6184  130.8880  151.2952 H   0  0  0  0  0  0  0  0  0  0  0  0  # atno 10718 bound_to 10713
  153.8333  135.3101  155.3420 H   0  0  0  0  0  0  0  0  0  0  0  0  # atno 10763 bound_to 10752
  154.7964  135.4753  154.0174 H   0  0  0  0  0  0  0  0  0  0  0  0  # atno 10764 bound_to 10752
  153.1621  135.6863  153.8819 H   0  0  0  0  0  0  0  0  0  0  0  0  # atno 10765 bound_to 10752
  140.5899  133.9934  155.8084 H   0  0  0  0  0  0  0  0  0  0  0  0  # atno 11005 bound_to 11000
  146.3292  139.8460  142.8881 LP  0  0  0  0  0  0  0  0  0  0  0  0  # atno 17320 bound_to 7965
  145.2963  141.0182  143.3634 LP  0  0  0  0  0  0  0  0  0  0  0  0  # atno 17321 bound_to 7965
  140.7214  143.2592  151.4267 LP  0  0  0  0  0  0  0  0  0  0  0  0  # atno 17342 bound_to 10162
  139.5949  144.1419  152.2132 LP  0  0  0  0  0  0  0  0  0  0  0  0  # atno 17343 bound_to 10162
  157.7234  130.9590  150.1534 LP  0  0  0  0  0  0  0  0  0  0  0  0  # atno 17370 bound_to 10713
  156.2332  130.3684  149.8421 LP  0  0  0  0  0  0  0  0  0  0  0  0  # atno 17371 bound_to 10713
  141.0942  133.9870  157.3188 LP  0  0  0  0  0  0  0  0  0  0  0  0  # atno 17394 bound_to 11000
  139.9279  135.0201  156.8298 LP  0  0  0  0  0  0  0  0  0  0  0  0  # atno 17395 bound_to 11000

$$$$
