AV-unprocessed.smi:148|AV-procd|sdf|1233|dock6
  -GOLD-   2262018443D 1   1.00000     0.00000
 Structure written by MMmdl.
 63 67  0  0  0  0  0  0  0  0  1 V2000
  149.7547  140.8074  153.8394 O   0  0  0  0  0  0  0  0  0  0  0  0
  148.9289  141.0524  154.9588 C   0  0  0  0  0  0  0  0  0  0  0  0
  149.3626  140.1987  156.1755 C   0  0  1  0  0  0  0  0  0  0  0  0
  149.5203  138.7002  155.8067 C   0  0  0  0  0  0  0  0  0  0  0  0
  148.2575  138.0487  155.5046 N   0  0  0  0  0  0  0  0  0  0  0  0
  147.5733  137.1677  156.3121 C   0  0  0  0  0  0  0  0  0  0  0  0
  146.4586  136.7056  155.8133 N   0  0  0  0  0  0  0  0  0  0  0  0
  146.3724  137.3123  154.5668 C   0  0  0  0  0  0  0  0  0  0  0  0
  145.4354  137.2509  153.5027 C   0  0  0  0  0  0  0  0  0  0  0  0
  144.3280  136.4756  153.5680 N   0  0  0  0  0  0  0  0  0  0  0  0
  143.2918  137.1634  154.3386 C   0  0  0  0  0  0  0  0  0  0  0  0
  142.1022  136.2408  154.6288 C   0  0  0  0  0  0  0  0  0  0  0  0
  141.5462  135.6713  153.3211 C   0  0  0  0  0  0  0  0  0  0  0  0
  142.6570  134.9412  152.5554 C   0  0  0  0  0  0  0  0  0  0  0  0
  143.8890  135.8514  152.3047 C   0  0  2  0  0  0  0  0  0  0  0  0
  145.0520  135.1173  151.5637 C   0  0  1  0  0  0  0  0  0  0  0  0
  146.0783  134.3949  152.4588 C   0  0  0  0  0  0  0  0  0  0  0  0
  146.6283  133.2230  151.6291 C   0  0  0  0  0  0  0  0  0  0  0  0
  145.9467  133.3087  150.2597 C   0  0  0  0  0  0  0  0  0  0  0  0
  144.6420  134.0563  150.5317 C   0  0  2  0  0  0  0  0  0  0  0  0
  144.1204  134.6300  149.3511 O   0  0  0  0  0  0  0  0  0  0  0  0
  145.6722  138.0099  152.3997 N   0  0  0  0  0  0  0  0  0  0  0  0
  146.7702  138.7696  152.3374 C   0  0  0  0  0  0  0  0  0  0  0  0
  147.7372  138.9167  153.2464 N   0  0  0  0  0  0  0  0  0  0  0  0
  147.4938  138.1613  154.3560 C   0  0  0  0  0  0  0  0  0  0  0  0
  150.6122  140.8030  156.8780 C   0  0  1  0  0  0  0  0  0  0  0  0
  150.4187  142.1235  157.6016 C   0  0  0  0  0  0  0  0  0  0  0  0
  151.7035  142.2101  158.4195 C   0  0  0  0  0  0  0  0  0  0  0  0
  152.0345  140.8662  158.7590 O   0  0  0  0  0  0  0  0  0  0  0  0
  151.2721  139.9555  157.9705 C   0  0  0  0  0  0  0  0  0  0  0  0
  149.2961  140.2299  153.2481 H   0  0  0  0  0  0  0  0  0  0  0  0
  149.0012  142.1179  155.1744 H   0  0  0  0  0  0  0  0  0  0  0  0
  147.8903  140.8535  154.6937 H   0  0  0  0  0  0  0  0  0  0  0  0
  148.5474  140.2508  156.8990 H   0  0  0  0  0  0  0  0  0  0  0  0
  150.1768  138.5791  154.9459 H   0  0  0  0  0  0  0  0  0  0  0  0
  149.9755  138.1431  156.6238 H   0  0  0  0  0  0  0  0  0  0  0  0
  147.9302  136.8771  157.2894 H   0  0  0  0  0  0  0  0  0  0  0  0
  143.7067  137.5247  155.2812 H   0  0  0  0  0  0  0  0  0  0  0  0
  142.9507  138.0398  153.7849 H   0  0  0  0  0  0  0  0  0  0  0  0
  142.4171  135.4271  155.2835 H   0  0  0  0  0  0  0  0  0  0  0  0
  141.3246  136.7886  155.1614 H   0  0  0  0  0  0  0  0  0  0  0  0
  140.7209  134.9891  153.5276 H   0  0  0  0  0  0  0  0  0  0  0  0
  141.1416  136.4775  152.7079 H   0  0  0  0  0  0  0  0  0  0  0  0
  142.9429  134.0546  153.1202 H   0  0  0  0  0  0  0  0  0  0  0  0
  142.2411  134.5873  151.6134 H   0  0  0  0  0  0  0  0  0  0  0  0
  143.5525  136.6611  151.6554 H   0  0  0  0  0  0  0  0  0  0  0  0
  145.6180  135.8589  150.9979 H   0  0  0  0  0  0  0  0  0  0  0  0
  146.8757  135.0737  152.7620 H   0  0  0  0  0  0  0  0  0  0  0  0
  145.6269  134.0118  153.3729 H   0  0  0  0  0  0  0  0  0  0  0  0
  147.7143  133.2587  151.5383 H   0  0  0  0  0  0  0  0  0  0  0  0
  146.3720  132.2799  152.1131 H   0  0  0  0  0  0  0  0  0  0  0  0
  146.5754  133.8875  149.5811 H   0  0  0  0  0  0  0  0  0  0  0  0
  145.7855  132.3294  149.8078 H   0  0  0  0  0  0  0  0  0  0  0  0
  143.9201  133.3529  150.9438 H   0  0  0  0  0  0  0  0  0  0  0  0
  144.7902  134.6068  148.6848 H   0  0  0  0  0  0  0  0  0  0  0  0
  146.8918  139.3408  151.4290 H   0  0  0  0  0  0  0  0  0  0  0  0
  151.3699  140.9877  156.1147 H   0  0  0  0  0  0  0  0  0  0  0  0
  150.2891  142.9689  156.9254 H   0  0  0  0  0  0  0  0  0  0  0  0
  149.5678  142.0938  158.2805 H   0  0  0  0  0  0  0  0  0  0  0  0
  152.5117  142.6253  157.8161 H   0  0  0  0  0  0  0  0  0  0  0  0
  151.5919  142.8303  159.3091 H   0  0  0  0  0  0  0  0  0  0  0  0
  150.5364  139.4869  158.6227 H   0  0  0  0  0  0  0  0  0  0  0  0
  151.9051  139.1689  157.5590 H   0  0  0  0  0  0  0  0  0  0  0  0
  1  2  1  0  0  0  0
  1 31  1  0  0  0  0
  2  3  1  0  0  0  0
  2 32  1  0  0  0  0
  2 33  1  0  0  0  0
  3  4  1  0  0  0  0
  3 26  1  0  0  0  0
  3 34  1  0  0  0  0
  4  5  1  0  0  0  0
  4 35  1  0  0  0  0
  4 36  1  0  0  0  0
  5 25  1  0  0  0  0
  5  6  1  0  0  0  0
  6  7  2  0  0  0  0
  6 37  1  0  0  0  0
  7  8  1  0  0  0  0
  8 25  2  0  0  0  0
  8  9  1  0  0  0  0
  9 10  1  0  0  0  0
  9 22  2  0  0  0  0
 10 15  1  0  0  0  0
 10 11  1  0  0  0  0
 11 12  1  0  0  0  0
 11 38  1  0  0  0  0
 11 39  1  0  0  0  0
 12 13  1  0  0  0  0
 12 40  1  0  0  0  0
 12 41  1  0  0  0  0
 13 14  1  0  0  0  0
 13 42  1  0  0  0  0
 13 43  1  0  0  0  0
 14 15  1  0  0  0  0
 14 44  1  0  0  0  0
 14 45  1  0  0  0  0
 15 16  1  0  0  0  0
 15 46  1  0  0  0  0
 16 20  1  0  0  0  0
 16 17  1  0  0  0  0
 16 47  1  0  0  0  0
 17 18  1  0  0  0  0
 17 48  1  0  0  0  0
 17 49  1  0  0  0  0
 18 19  1  0  0  0  0
 18 50  1  0  0  0  0
 18 51  1  0  0  0  0
 19 20  1  0  0  0  0
 19 52  1  0  0  0  0
 19 53  1  0  0  0  0
 20 21  1  0  0  0  0
 20 54  1  0  0  0  0
 21 55  1  0  0  0  0
 22 23  1  0  0  0  0
 23 24  2  0  0  0  0
 23 56  1  0  0  0  0
 24 25  1  0  0  0  0
 26 30  1  0  0  0  0
 26 27  1  0  0  0  0
 26 57  1  0  0  0  0
 27 28  1  0  0  0  0
 27 58  1  0  0  0  0
 27 59  1  0  0  0  0
 28 29  1  0  0  0  0
 28 60  1  0  0  0  0
 28 61  1  0  0  0  0
 29 30  1  0  0  0  0
 30 62  1  0  0  0  0
 30 63  1  0  0  0  0
M  END
> <s_m_source_file>
AV-unprocessed.smi

> <i_m_source_file_index>
148

> <i_lp_mmshare_version>
43012

> <i_f3d_flags>
0

> <s_epik_input>
W0NIMl0xT1tDSDJdW0NIMl1bQ0BIXTFbQ0BIXShbQ0gyXVtPSF0pW0NIMl1uKFtjSF1uMiljKGMyMyluW2NIXW5jM040W0NIMl1bQ0gyXVtDSDJdW0NIMl1bQ0BIXTRbQ0BASF01W0NIMl1bQ0gyXVtDSDJdW0NASF01W09IXQ==

> <s_epik_cmdline>
J2VwaWtfcHl0aG9uJywgJy1waCcsICc3LjAnLCAnLXRuJywgJzgnLCAnLW1hJywgJzIwMCcsICctbWV0YWxfYmluZGluZycsICctaW1hZScsICc8aW5maWxlLm1hZT4nLCAnLW9tYWUnLCAnPG91dGZpbGUubWFlPic=

> <r_lp_tautomer_probability>
1

> <r_epik_Ionization_Penalty>
0.00556303

> <r_epik_Ionization_Penalty_Charging>
0

> <r_epik_Ionization_Penalty_Neutral>
0.00556303

> <r_epik_State_Penalty>
0.00401767

> <r_epik_Charging_Adjusted_Penalty>
0.00401767

> <i_epik_Tot_Q>
0

> <i_epik_Tot_abs_Q>
0

> <r_epik_Metal_State_Penalty>
-0

> <b_epik_Metal_Only>
0

> <s_lp_Force_Field>
OPLS_2005

> <r_lp_Energy>
68.5512

> <b_lp_Chiralities_Consistent>
1

> <s_lp_Variant>
AV-unprocessed.smi:148-32

> <Gold.Version>
5.8.1

> <Gold.Id.Protein>
6NUR|6NUR_protein|mol2

> <Gold.PLP.Fitness>
47.4512

> <Gold.PLP.PLP>
-41.2916

> <Gold.PLP.part.hbond>
-4.3315

> <Gold.PLP.part.metal>
0.0000

> <Gold.PLP.part.buried>
-7.6395

> <Gold.PLP.part.nonpolar>
-30.9565

> <Gold.PLP.part.repulsive>
2.3895

> <Gold.PLP.ligand.clash>
0.0000

> <Gold.PLP.ligand.torsion>
1.7366

> <Gold.PLP.Chemscore.Hbond>
2.8480

> <Gold.PLP.Chemscore.CHOScore>
0.2133

> <Gold.PLP.Chemscore.Metal>
0.0000

> <Gold.Chemscore.Hbonds>
donor molecule, donor type, donor heavy atom, donor atom, acceptor molecule, acceptor atom, score
      L1  H     1    31       P1  7957  0.41
      L1  H    21    55       P1  7921  1.00
      P1  H  7989  7998       L1     1  0.48
      P1  H  8011  8017       L1     1  0.33
      L1  C    23    56       P1  7957  0.24

> <Gold.PLP.Chemscore.Internal.Correction>
0.4489

> <Gold.Rescore>
     Score         DG    S(hbond)    S(metal)    S(lipo)     H(rot)  DE(clash)    DE(int)     intcor
     11.55     -15.48       2.27        0.00      93.34       3.32       1.10       2.84       ----

> <Gold.Chemscore.Fitness>
11.5482

> <Gold.Chemscore.DG>
-15.4824

> <Gold.Chemscore.ZeroCoef>
-5.4800

> <Gold.Chemscore.Hbond>
2.2699

> <Gold.Chemscore.Metal>
0.0000

> <Gold.Chemscore.Lipo>
93.3414

> <Gold.Chemscore.Internal_Hbond>
0.0000

> <Gold.Chemscore.DEClash>
1.0980

> <Gold.Chemscore.DEInternal>
2.8362

> <Gold.Chemscore.Rot>
3.3203

> <Gold.Chemscore.Internal.Correction>
   9.000000E+99

> <Gold.Chemscore.Hbonds>
donor molecule, donor type, donor heavy atom, donor atom, acceptor molecule, acceptor atom, score
      L1  H     1    31       P1  7957  0.41
      L1  H    21    55       P1  7921  1.00
      P1  H  7989  7998       L1     1  0.39
      P1  H  8011  8017       L1     1  0.02

> <Gold.Chemscore.Hbond.Weighted>
-7.5814

> <Gold.Chemscore.Metal.Weighted>
-0.0000

> <Gold.Chemscore.Lipo.Weighted>
-10.9209

> <Gold.Chemscore.Internal_Hbond.Weighted>
0.0000

> <Gold.Chemscore.DEClash.Weighted>
1.0980

> <Gold.Chemscore.DEInternal.Weighted>
2.8362

> <Gold.Chemscore.Rot.Weighted>
8.5000

> <Gold.Chemscore.Internal.Correction.Weighted>
   9.000000E+99

> <Gold.Protein.RotatedTorsions>
[ 6907 6896 6895 6894 ] final -131.00 input  -60.11 | X-H torsion
[ 7974 7965 7964 7962 ] final   89.39 input  175.53 | X-H torsion
[ 8008 7997 7996 7995 ] final  -37.42 input   59.86 | X-H torsion
[ 10167 10162 10161 10158 ] final   -7.18 input  -65.29 | X-H torsion
[ 10718 10713 10712 10709 ] final  110.14 input   66.30 | X-H torsion
[ 10763 10752 10751 10750 ] final  -91.65 input  -60.55 | X-H torsion
[ 11005 11000 10999 10996 ] final   20.90 input  -57.11 | X-H torsion

> <Gold.Protein.ActiveResidues>
 VAL166  LYS551  ARG553  GLY616  TRP617  ASP618  TYR619  PRO620  LYS621  CYS622 
 ASP623  PHE694  ASN695  SER759  ASP760  ASP761  ALA762  ILE779  LEU786  VAL792 
 PHE793  MET794  SER795  GLU796  ALA797  LYS798  CYS799  TRP800  GLU811  SER814 

> <Gold.Protein.RotatedAtoms>
  150.9460  133.6602  159.2780 H   0  0  0  0  0  0  0  0  0  0  0  0  # atno 6907 bound_to 6896
  151.3975  135.0964  159.9555 H   0  0  0  0  0  0  0  0  0  0  0  0  # atno 6908 bound_to 6896
  152.5090  133.8961  159.7473 H   0  0  0  0  0  0  0  0  0  0  0  0  # atno 6909 bound_to 6896
  145.5329  139.2284  143.2608 H   0  0  0  0  0  0  0  0  0  0  0  0  # atno 7974 bound_to 7965
  154.4054  140.1604  156.2534 H   0  0  0  0  0  0  0  0  0  0  0  0  # atno 8008 bound_to 7997
  155.9099  140.3428  155.6068 H   0  0  0  0  0  0  0  0  0  0  0  0  # atno 8009 bound_to 7997
  155.7348  140.0785  157.2263 H   0  0  0  0  0  0  0  0  0  0  0  0  # atno 8010 bound_to 7997
  140.7020  143.6110  150.8704 H   0  0  0  0  0  0  0  0  0  0  0  0  # atno 10167 bound_to 10162
  157.6508  131.0927  150.6558 H   0  0  0  0  0  0  0  0  0  0  0  0  # atno 10718 bound_to 10713
  154.6782  135.5260  153.8227 H   0  0  0  0  0  0  0  0  0  0  0  0  # atno 10763 bound_to 10752
  153.0546  135.6546  154.0618 H   0  0  0  0  0  0  0  0  0  0  0  0  # atno 10764 bound_to 10752
  154.0509  135.2969  155.3320 H   0  0  0  0  0  0  0  0  0  0  0  0  # atno 10765 bound_to 10752
  140.3975  134.1754  155.7663 H   0  0  0  0  0  0  0  0  0  0  0  0  # atno 11005 bound_to 11000
  146.2032  140.6146  142.9093 LP  0  0  0  0  0  0  0  0  0  0  0  0  # atno 17320 bound_to 7965
  144.7616  140.5436  143.6731 LP  0  0  0  0  0  0  0  0  0  0  0  0  # atno 17321 bound_to 7965
  139.9833  143.5927  152.2935 LP  0  0  0  0  0  0  0  0  0  0  0  0  # atno 17342 bound_to 10162
  139.6556  144.7662  151.2062 LP  0  0  0  0  0  0  0  0  0  0  0  0  # atno 17343 bound_to 10162
  156.6869  130.4583  149.5611 LP  0  0  0  0  0  0  0  0  0  0  0  0  # atno 17370 bound_to 10713
  156.1889  130.6547  151.1038 LP  0  0  0  0  0  0  0  0  0  0  0  0  # atno 17371 bound_to 10713
  141.1869  133.8293  157.1052 LP  0  0  0  0  0  0  0  0  0  0  0  0  # atno 17394 bound_to 11000
  140.0361  134.9877  157.0874 LP  0  0  0  0  0  0  0  0  0  0  0  0  # atno 17395 bound_to 11000

$$$$
