AV-unprocessed.smi:933|AV-procd|sdf|4204|dock7
  -GOLD-   22720 2113D 1   1.00000     0.00000
 Structure written by MMmdl.
 42 43  0  0  0  0  0  0  0  0  1 V2000
  143.9781  136.8685  155.7810 C   0  0  0  0  0  0  0  0  0  0  0  0
  143.9101  138.2187  155.0599 C   0  0  0  0  0  0  0  0  0  0  0  0
  145.2254  138.6322  154.4895 C   0  0  0  0  0  0  0  0  0  0  0  0
  145.8610  139.7529  154.8409 N   0  0  0  0  0  0  0  0  0  0  0  0
  147.0852  139.9080  154.1829 C   0  0  0  0  0  0  0  0  0  0  0  0
  147.9224  141.1238  154.4419 C   0  0  0  0  0  0  0  0  0  0  0  0
  149.1584  140.8024  155.2931 C   0  0  0  0  0  0  0  0  0  0  0  0
  149.6921  142.0143  155.9093 N   0  0  0  0  0  0  0  0  0  0  0  0
  150.7351  142.1032  156.7521 C   0  0  0  0  0  0  0  0  0  0  0  0
  151.3753  141.1129  157.1009 O   0  0  0  0  0  0  0  0  0  0  0  0
  151.0097  143.3510  157.1683 N   0  0  0  0  0  0  0  0  0  0  0  0
  152.0605  143.7161  158.1143 C   0  0  1  0  0  0  0  0  0  0  0  0
  152.0371  145.2343  158.3719 C   0  0  0  0  0  0  0  0  0  0  0  0
  151.4803  145.4122  159.7835 C   0  0  0  0  0  0  0  0  0  0  0  0
  151.9553  144.1667  160.5235 C   0  0  0  0  0  0  0  0  0  0  0  0
  151.8367  143.0417  159.4889 C   0  0  2  0  0  0  0  0  0  0  0  0
  152.7832  141.8648  159.7644 C   0  0  0  0  0  0  0  0  0  0  0  0
  147.3793  138.8688  153.3357 C   0  0  0  0  0  0  0  0  0  0  0  0
  146.1258  137.6589  153.3324 S   0  0  0  0  0  0  0  0  0  0  0  0
  143.0030  136.5943  156.1844 H   0  0  0  0  0  0  0  0  0  0  0  0
  144.6846  136.9009  156.6108 H   0  0  0  0  0  0  0  0  0  0  0  0
  144.2934  136.0758  155.1024 H   0  0  0  0  0  0  0  0  0  0  0  0
  143.1792  138.1720  154.2523 H   0  0  0  0  0  0  0  0  0  0  0  0
  143.5653  138.9906  155.7488 H   0  0  0  0  0  0  0  0  0  0  0  0
  148.2364  141.5644  153.4946 H   0  0  0  0  0  0  0  0  0  0  0  0
  147.3247  141.8862  154.9432 H   0  0  0  0  0  0  0  0  0  0  0  0
  148.8985  140.0842  156.0724 H   0  0  0  0  0  0  0  0  0  0  0  0
  149.9256  140.3426  154.6677 H   0  0  0  0  0  0  0  0  0  0  0  0
  149.2424  142.8802  155.6491 H   0  0  0  0  0  0  0  0  0  0  0  0
  150.4310  144.1019  156.8212 H   0  0  0  0  0  0  0  0  0  0  0  0
  153.0365  143.4519  157.7024 H   0  0  0  0  0  0  0  0  0  0  0  0
  153.0578  145.6177  158.3412 H   0  0  0  0  0  0  0  0  0  0  0  0
  151.4647  145.7934  157.6303 H   0  0  0  0  0  0  0  0  0  0  0  0
  151.8162  146.3364  160.2545 H   0  0  0  0  0  0  0  0  0  0  0  0
  150.3900  145.4290  159.7511 H   0  0  0  0  0  0  0  0  0  0  0  0
  152.9966  144.2984  160.8218 H   0  0  0  0  0  0  0  0  0  0  0  0
  151.3746  143.9691  161.4251 H   0  0  0  0  0  0  0  0  0  0  0  0
  150.8114  142.6703  159.5387 H   0  0  0  0  0  0  0  0  0  0  0  0
  153.8270  142.1792  159.7411 H   0  0  0  0  0  0  0  0  0  0  0  0
  152.6556  141.0779  159.0208 H   0  0  0  0  0  0  0  0  0  0  0  0
  152.5877  141.4285  160.7440 H   0  0  0  0  0  0  0  0  0  0  0  0
  148.2545  138.7414  152.7160 H   0  0  0  0  0  0  0  0  0  0  0  0
  1  2  1  0  0  0  0
  1 20  1  0  0  0  0
  1 21  1  0  0  0  0
  1 22  1  0  0  0  0
  2  3  1  0  0  0  0
  2 23  1  0  0  0  0
  2 24  1  0  0  0  0
  3 19  1  0  0  0  0
  3  4  2  0  0  0  0
  4  5  1  0  0  0  0
  5  6  1  0  0  0  0
  5 18  2  0  0  0  0
  6  7  1  0  0  0  0
  6 25  1  0  0  0  0
  6 26  1  0  0  0  0
  7  8  1  0  0  0  0
  7 27  1  0  0  0  0
  7 28  1  0  0  0  0
  8  9  1  0  0  0  0
  8 29  1  0  0  0  0
  9 10  2  0  0  0  0
  9 11  1  0  0  0  0
 11 12  1  0  0  0  0
 11 30  1  0  0  0  0
 12 16  1  0  0  0  0
 12 13  1  0  0  0  0
 12 31  1  0  0  0  0
 13 14  1  0  0  0  0
 13 32  1  0  0  0  0
 13 33  1  0  0  0  0
 14 15  1  0  0  0  0
 14 34  1  0  0  0  0
 14 35  1  0  0  0  0
 15 16  1  0  0  0  0
 15 36  1  0  0  0  0
 15 37  1  0  0  0  0
 16 17  1  0  0  0  0
 16 38  1  0  0  0  0
 17 39  1  0  0  0  0
 17 40  1  0  0  0  0
 17 41  1  0  0  0  0
 18 19  1  0  0  0  0
 18 42  1  0  0  0  0
M  END
> <s_m_source_file>
AV-unprocessed.smi

> <i_m_source_file_index>
933

> <i_lp_mmshare_version>
43012

> <i_f3d_flags>
0

> <s_epik_input>
W0NIM11bQ0gyXWMxbmMoW2NIXXMxKVtDSDJdW0NIMl1bTkhdQyg9TylbTkhdW0NAQEhdMltDSDJdW0NIMl1bQ0gyXVtDQEhdMltDSDNd

> <s_epik_cmdline>
J2VwaWtfcHl0aG9uJywgJy1waCcsICc3LjAnLCAnLXRuJywgJzgnLCAnLW1hJywgJzIwMCcsICctbWV0YWxfYmluZGluZycsICctaW1hZScsICc8aW5maWxlLm1hZT4nLCAnLW9tYWUnLCAnPG91dGZpbGUubWFlPic=

> <r_epik_Ionization_Penalty>
0.00203408

> <r_epik_Ionization_Penalty_Charging>
0

> <r_epik_Ionization_Penalty_Neutral>
0.00203408

> <r_epik_State_Penalty>
0.0013452

> <r_epik_Charging_Adjusted_Penalty>
0.0013452

> <i_epik_Tot_Q>
0

> <i_epik_Tot_abs_Q>
0

> <r_epik_Metal_State_Penalty>
-0

> <b_epik_Metal_Only>
0

> <s_lp_Force_Field>
OPLS_2005

> <r_lp_Energy>
18.1851

> <b_lp_Chiralities_Consistent>
1

> <s_lp_Variant>
AV-unprocessed.smi:933-4

> <Gold.Version>
5.8.1

> <Gold.Id.Protein>
6NUR|6NUR_protein|mol2

> <Gold.PLP.Fitness>
45.5716

> <Gold.PLP.PLP>
-35.9202

> <Gold.PLP.part.hbond>
-2.0000

> <Gold.PLP.part.metal>
0.0000

> <Gold.PLP.part.buried>
-5.3664

> <Gold.PLP.part.nonpolar>
-30.1102

> <Gold.PLP.part.repulsive>
0.2410

> <Gold.PLP.ligand.clash>
0.0000

> <Gold.PLP.ligand.torsion>
0.2479

> <Gold.PLP.Chemscore.Hbond>
2.0000

> <Gold.PLP.Chemscore.CHOScore>
1.3724

> <Gold.PLP.Chemscore.Metal>
0.0000

> <Gold.Chemscore.Hbonds>
donor molecule, donor type, donor heavy atom, donor atom, acceptor molecule, acceptor atom, score
      L1  H     8    29       P1  8028  1.00
      L1  H    11    30       P1  8028  1.00
      L1  C    18    42       P1  7948  0.44
      L1  C    18    42       P1  7957  1.00

> <Gold.PLP.Chemscore.Internal.Correction>
0.0301

> <Gold.Rescore>
     Score         DG    S(hbond)    S(metal)    S(lipo)     H(rot)  DE(clash)    DE(int)     intcor
     19.56     -19.82       1.90        0.00     102.18       1.55       0.03       0.23       ----

> <Gold.Chemscore.Fitness>
19.5593

> <Gold.Chemscore.DG>
-19.8176

> <Gold.Chemscore.ZeroCoef>
-5.4800

> <Gold.Chemscore.Hbond>
1.9000

> <Gold.Chemscore.Metal>
0.0000

> <Gold.Chemscore.Lipo>
102.1810

> <Gold.Chemscore.Internal_Hbond>
0.0000

> <Gold.Chemscore.DEClash>
0.0262

> <Gold.Chemscore.DEInternal>
0.2321

> <Gold.Chemscore.Rot>
1.5482

> <Gold.Chemscore.Internal.Correction>
   9.000000E+99

> <Gold.Chemscore.Hbonds>
donor molecule, donor type, donor heavy atom, donor atom, acceptor molecule, acceptor atom, score
      L1  H     8    29       P1  8028  0.99
      L1  H    11    30       P1  8028  0.90

> <Gold.Chemscore.Hbond.Weighted>
-6.3459

> <Gold.Chemscore.Metal.Weighted>
-0.0000

> <Gold.Chemscore.Lipo.Weighted>
-11.9552

> <Gold.Chemscore.Internal_Hbond.Weighted>
0.0000

> <Gold.Chemscore.DEClash.Weighted>
0.0262

> <Gold.Chemscore.DEInternal.Weighted>
0.2321

> <Gold.Chemscore.Rot.Weighted>
3.9635

> <Gold.Chemscore.Internal.Correction.Weighted>
   9.000000E+99

> <Gold.Protein.RotatedTorsions>
[ 6907 6896 6895 6894 ] final   71.83 input  -60.11 | X-H torsion
[ 7974 7965 7964 7962 ] final  176.16 input  175.53 | X-H torsion
[ 8008 7997 7996 7995 ] final -131.47 input   59.86 | X-H torsion
[ 10167 10162 10161 10158 ] final   11.02 input  -65.29 | X-H torsion
[ 10718 10713 10712 10709 ] final  151.86 input   66.30 | X-H torsion
[ 10763 10752 10751 10750 ] final -116.50 input  -60.55 | X-H torsion
[ 11005 11000 10999 10996 ] final   85.96 input  -57.11 | X-H torsion

> <Gold.Protein.ActiveResidues>
 VAL166  LYS551  ARG553  GLY616  TRP617  ASP618  TYR619  PRO620  LYS621  CYS622 
 ASP623  PHE694  ASN695  SER759  ASP760  ASP761  ALA762  ILE779  LEU786  VAL792 
 PHE793  MET794  SER795  GLU796  ALA797  LYS798  CYS799  TRP800  GLU811  SER814 

> <Gold.Protein.RotatedAtoms>
  152.4833  134.4662  159.9620 H   0  0  0  0  0  0  0  0  0  0  0  0  # atno 6907 bound_to 6896
  151.4664  133.3574  159.2824 H   0  0  0  0  0  0  0  0  0  0  0  0  # atno 6908 bound_to 6896
  150.8922  134.8352  159.7362 H   0  0  0  0  0  0  0  0  0  0  0  0  # atno 6909 bound_to 6896
  144.7189  140.0055  143.6440 H   0  0  0  0  0  0  0  0  0  0  0  0  # atno 7974 bound_to 7965
  155.3129  140.0458  157.3036 H   0  0  0  0  0  0  0  0  0  0  0  0  # atno 8008 bound_to 7997
  154.5423  140.2291  155.8588 H   0  0  0  0  0  0  0  0  0  0  0  0  # atno 8009 bound_to 7997
  156.1892  140.3055  155.9304 H   0  0  0  0  0  0  0  0  0  0  0  0  # atno 8010 bound_to 7997
  140.6158  143.8311  150.7117 H   0  0  0  0  0  0  0  0  0  0  0  0  # atno 10167 bound_to 10162
  157.2652  131.0806  151.1638 H   0  0  0  0  0  0  0  0  0  0  0  0  # atno 10718 bound_to 10713
  154.8521  135.4343  154.1831 H   0  0  0  0  0  0  0  0  0  0  0  0  # atno 10763 bound_to 10752
  153.2917  135.6962  153.7293 H   0  0  0  0  0  0  0  0  0  0  0  0  # atno 10764 bound_to 10752
  153.6458  135.3460  155.3059 H   0  0  0  0  0  0  0  0  0  0  0  0  # atno 10765 bound_to 10752
  139.8957  134.8323  156.2654 H   0  0  0  0  0  0  0  0  0  0  0  0  # atno 11005 bound_to 11000
  146.0301  139.3327  143.0760 LP  0  0  0  0  0  0  0  0  0  0  0  0  # atno 17320 bound_to 7965
  145.8463  140.9553  143.0773 LP  0  0  0  0  0  0  0  0  0  0  0  0  # atno 17321 bound_to 7965
  140.1890  143.4052  152.1877 LP  0  0  0  0  0  0  0  0  0  0  0  0  # atno 17342 bound_to 10162
  139.5397  144.7245  151.4773 LP  0  0  0  0  0  0  0  0  0  0  0  0  # atno 17343 bound_to 10162
  157.3132  130.6900  149.6227 LP  0  0  0  0  0  0  0  0  0  0  0  0  # atno 17370 bound_to 10713
  155.9663  130.4357  150.5104 LP  0  0  0  0  0  0  0  0  0  0  0  0  # atno 17371 bound_to 10713
  141.0135  133.7082  156.1150 LP  0  0  0  0  0  0  0  0  0  0  0  0  # atno 17394 bound_to 11000
  140.7334  134.4229  157.5563 LP  0  0  0  0  0  0  0  0  0  0  0  0  # atno 17395 bound_to 11000

$$$$
