AV-unprocessed.smi:298|AV-procd|sdf|2263|dock7
  -GOLD-   2262022153D 1   1.00000     0.00000
 Structure written by MMmdl.
 39 41  0  0  0  0  0  0  0  0  2 V2000
  152.0052  145.0553  160.2952 C   0  0  0  0  0  0  0  0  0  0  0  0
  151.8295  143.8271  159.4185 C   0  0  0  0  0  0  0  0  0  0  0  0
  151.1216  143.9625  158.2027 C   0  0  0  0  0  0  0  0  0  0  0  0
  150.9756  142.8211  157.4235 C   0  0  0  0  0  0  0  0  0  0  0  0
  150.3423  142.6265  156.1941 N   0  3  0  0  0  0  0  0  0  0  0  0
  150.4629  141.3218  155.8224 C   0  0  0  0  0  0  0  0  0  0  0  0
  151.1656  140.6817  156.7961 N   0  0  0  0  0  0  0  0  0  0  0  0
  151.5804  139.2764  156.8950 C   0  0  0  0  0  0  0  0  0  0  0  0
  152.2198  138.7503  155.5957 C   0  0  2  0  0  0  0  0  0  0  0  0
  152.9040  139.8037  154.9423 O   0  0  0  0  0  0  0  0  0  0  0  0
  151.1730  138.1376  154.6464 C   0  0  0  0  0  0  0  0  0  0  0  0
  150.7786  136.7987  155.0435 N   0  0  0  0  0  0  0  0  0  0  0  0
  149.6585  136.1117  154.7962 C   0  0  0  0  0  0  0  0  0  0  0  0
  149.6456  134.8939  155.3236 N   0  0  0  0  0  0  0  0  0  0  0  0
  150.8734  134.9085  155.9194 C   0  0  0  0  0  0  0  0  0  0  0  0
  151.3687  133.7638  156.6650 C   0  0  0  0  0  0  0  0  0  0  0  0
  151.7636  132.8523  157.2586 N   0  0  0  0  0  0  0  0  0  0  0  0
  151.5976  136.0182  155.7891 N   0  0  0  0  0  0  0  0  0  0  0  0
  151.5060  141.5769  157.8152 C   0  0  0  0  0  0  0  0  0  0  0  0
  152.2079  141.4257  159.0082 C   0  0  0  0  0  0  0  0  0  0  0  0
  152.3667  142.5750  159.8154 C   0  0  0  0  0  0  0  0  0  0  0  0
  153.1267  142.4411  161.1240 C   0  0  0  0  0  0  0  0  0  0  0  0
  151.5009  145.9242  159.8713 H   0  0  0  0  0  0  0  0  0  0  0  0
  153.0622  145.3016  160.3999 H   0  0  0  0  0  0  0  0  0  0  0  0
  151.5889  144.8815  161.2878 H   0  0  0  0  0  0  0  0  0  0  0  0
  150.7116  144.9126  157.8933 H   0  0  0  0  0  0  0  0  0  0  0  0
  150.0762  140.8768  154.9169 H   0  0  0  0  0  0  0  0  0  0  0  0
  152.2677  139.1787  157.7364 H   0  0  0  0  0  0  0  0  0  0  0  0
  150.6955  138.6906  157.1482 H   0  0  0  0  0  0  0  0  0  0  0  0
  152.9574  137.9868  155.8464 H   0  0  0  0  0  0  0  0  0  0  0  0
  152.7044  139.7664  154.0194 H   0  0  0  0  0  0  0  0  0  0  0  0
  150.2792  138.7622  154.6170 H   0  0  0  0  0  0  0  0  0  0  0  0
  151.5589  138.0969  153.6269 H   0  0  0  0  0  0  0  0  0  0  0  0
  148.8380  136.5092  154.2169 H   0  0  0  0  0  0  0  0  0  0  0  0
  152.6171  140.4725  159.3088 H   0  0  0  0  0  0  0  0  0  0  0  0
  153.5104  141.4297  161.2610 H   0  0  0  0  0  0  0  0  0  0  0  0
  152.4756  142.6685  161.9684 H   0  0  0  0  0  0  0  0  0  0  0  0
  153.9762  143.1242  161.1469 H   0  0  0  0  0  0  0  0  0  0  0  0
  149.8641  143.3304  155.6462 H   0  0  0  0  0  0  0  0  0  0  0  0
  1  2  1  0  0  0  0
  1 23  1  0  0  0  0
  1 24  1  0  0  0  0
  1 25  1  0  0  0  0
  2 21  1  0  0  0  0
  2  3  2  0  0  0  0
  3  4  1  0  0  0  0
  3 26  1  0  0  0  0
  4 19  2  0  0  0  0
  4  5  1  0  0  0  0
  5  6  2  0  0  0  0
  5 39  1  0  0  0  0
  6  7  1  0  0  0  0
  6 27  1  0  0  0  0
  7  8  1  0  0  0  0
  7 19  1  0  0  0  0
  8  9  1  0  0  0  0
  8 28  1  0  0  0  0
  8 29  1  0  0  0  0
  9 10  1  0  0  0  0
  9 11  1  0  0  0  0
  9 30  1  0  0  0  0
 10 31  1  0  0  0  0
 11 12  1  0  0  0  0
 11 32  1  0  0  0  0
 11 33  1  0  0  0  0
 12 18  1  0  0  0  0
 12 13  1  0  0  0  0
 13 14  2  0  0  0  0
 13 34  1  0  0  0  0
 14 15  1  0  0  0  0
 15 16  1  0  0  0  0
 15 18  2  0  0  0  0
 16 17  3  0  0  0  0
 19 20  1  0  0  0  0
 20 21  2  0  0  0  0
 20 35  1  0  0  0  0
 21 22  1  0  0  0  0
 22 36  1  0  0  0  0
 22 37  1  0  0  0  0
 22 38  1  0  0  0  0
M  CHG  1   5   1
M  END
> <s_m_source_file>
AV-unprocessed.smi

> <i_m_source_file_index>
298

> <i_lp_mmshare_version>
43012

> <i_f3d_flags>
0

> <s_epik_input>
W0NIM11jKFtjSF0xKWMoW0NIM10pW2NIXWMoYzEyKW4oW2NIXW4yKVtDSDJdW0NASF0oW09IXSlbQ0gyXW4zW2NIXW5jKG4zKUMjTg==

> <s_epik_cmdline>
J2VwaWtfcHl0aG9uJywgJy1waCcsICc3LjAnLCAnLXRuJywgJzgnLCAnLW1hJywgJzIwMCcsICctbWV0YWxfYmluZGluZycsICctaW1hZScsICc8aW5maWxlLm1hZT4nLCAnLW9tYWUnLCAnPG91dGZpbGUubWFlPic=

> <r_epik_Ionization_Penalty>
1.12076

> <r_epik_Ionization_Penalty_Charging>
1.12075

> <r_epik_Ionization_Penalty_Neutral>
1.54565e-06

> <r_epik_State_Penalty>
1.17957

> <r_epik_Charging_Adjusted_Penalty>
2.30033

> <i_epik_Tot_Q>
1

> <i_epik_Tot_abs_Q>
1

> <r_epik_Metal_State_Penalty>
1.26402

> <b_epik_Metal_Only>
0

> <s_lp_Force_Field>
OPLS_2005

> <r_lp_Energy>
16.3626

> <b_lp_Chiralities_Consistent>
1

> <s_lp_Variant>
AV-unprocessed.smi:298-3

> <Gold.Version>
5.8.1

> <Gold.Id.Protein>
6NUR|6NUR_protein|mol2

> <Gold.PLP.Fitness>
60.9585

> <Gold.PLP.PLP>
-46.3985

> <Gold.PLP.part.hbond>
-5.0000

> <Gold.PLP.part.metal>
0.0000

> <Gold.PLP.part.buried>
-4.4928

> <Gold.PLP.part.nonpolar>
-38.0880

> <Gold.PLP.part.repulsive>
0.2465

> <Gold.PLP.ligand.clash>
0.0000

> <Gold.PLP.ligand.torsion>
1.0219

> <Gold.PLP.Chemscore.Hbond>
4.8640

> <Gold.PLP.Chemscore.CHOScore>
0.6626

> <Gold.PLP.Chemscore.Metal>
0.0000

> <Gold.Chemscore.Hbonds>
donor molecule, donor type, donor heavy atom, donor atom, acceptor molecule, acceptor atom, score
      L1  H     5    39       P1  8028  1.89
      P1  H  6896  6909       L1    17  0.86
      P1  H  7997  8008       L1    10  1.00
      P1  H 10752 10764       L1    18  1.00
      L1  C    13    34       P1  7948  0.72

> <Gold.PLP.Chemscore.Internal.Correction>
0.0238

> <Gold.Rescore>
     Score         DG    S(hbond)    S(metal)    S(lipo)     H(rot)  DE(clash)    DE(int)     intcor
     17.61     -19.63       3.00        0.00     102.78       3.09       0.33       1.69       ----

> <Gold.Chemscore.Fitness>
17.6117

> <Gold.Chemscore.DG>
-19.6317

> <Gold.Chemscore.ZeroCoef>
-5.4800

> <Gold.Chemscore.Hbond>
3.0045

> <Gold.Chemscore.Metal>
0.0000

> <Gold.Chemscore.Lipo>
102.7796

> <Gold.Chemscore.Internal_Hbond>
0.0000

> <Gold.Chemscore.DEClash>
0.3290

> <Gold.Chemscore.DEInternal>
1.6910

> <Gold.Chemscore.Rot>
3.0892

> <Gold.Chemscore.Internal.Correction>
   9.000000E+99

> <Gold.Chemscore.Hbonds>
donor molecule, donor type, donor heavy atom, donor atom, acceptor molecule, acceptor atom, score
      L1  H     5    39       P1  8028  0.91
      P1  H  6896  6909       L1    17  0.44
      P1  H  7997  8008       L1    10  0.82
      P1  H 10752 10764       L1    18  0.30

> <Gold.Chemscore.Hbond.Weighted>
-10.0349

> <Gold.Chemscore.Metal.Weighted>
-0.0000

> <Gold.Chemscore.Lipo.Weighted>
-12.0252

> <Gold.Chemscore.Internal_Hbond.Weighted>
0.0000

> <Gold.Chemscore.DEClash.Weighted>
0.3290

> <Gold.Chemscore.DEInternal.Weighted>
1.6910

> <Gold.Chemscore.Rot.Weighted>
7.9084

> <Gold.Chemscore.Internal.Correction.Weighted>
   9.000000E+99

> <Gold.Protein.RotatedTorsions>
[ 6907 6896 6895 6894 ] final  -53.43 input  -60.11 | X-H torsion
[ 7974 7965 7964 7962 ] final    8.41 input  175.53 | X-H torsion
[ 8008 7997 7996 7995 ] final   -8.40 input   59.86 | X-H torsion
[ 10167 10162 10161 10158 ] final  123.91 input  -65.29 | X-H torsion
[ 10718 10713 10712 10709 ] final  -73.77 input   66.30 | X-H torsion
[ 10763 10752 10751 10750 ] final  -51.69 input  -60.55 | X-H torsion
[ 11005 11000 10999 10996 ] final -179.73 input  -57.11 | X-H torsion

> <Gold.Protein.ActiveResidues>
 VAL166  LYS551  ARG553  GLY616  TRP617  ASP618  TYR619  PRO620  LYS621  CYS622 
 ASP623  PHE694  ASN695  SER759  ASP760  ASP761  ALA762  ILE779  LEU786  VAL792 
 PHE793  MET794  SER795  GLU796  ALA797  LYS798  CYS799  TRP800  GLU811  SER814 

> <Gold.Protein.RotatedAtoms>
  150.8427  134.7725  159.6945 H   0  0  0  0  0  0  0  0  0  0  0  0  # atno 6907 bound_to 6896
  152.4511  134.5388  159.9843 H   0  0  0  0  0  0  0  0  0  0  0  0  # atno 6908 bound_to 6896
  151.5525  133.3377  159.2991 H   0  0  0  0  0  0  0  0  0  0  0  0  # atno 6909 bound_to 6896
  146.2416  139.9938  142.8423 H   0  0  0  0  0  0  0  0  0  0  0  0  # atno 7974 bound_to 7965
  154.5745  140.2382  155.8142 H   0  0  0  0  0  0  0  0  0  0  0  0  # atno 8008 bound_to 7997
  156.2133  140.3020  155.9738 H   0  0  0  0  0  0  0  0  0  0  0  0  # atno 8009 bound_to 7997
  155.2652  140.0416  157.2992 H   0  0  0  0  0  0  0  0  0  0  0  0  # atno 8010 bound_to 7997
  139.5772  144.6969  151.3622 H   0  0  0  0  0  0  0  0  0  0  0  0  # atno 10167 bound_to 10162
  156.0267  130.4401  150.2792 H   0  0  0  0  0  0  0  0  0  0  0  0  # atno 10718 bound_to 10713
  154.1306  135.6520  153.4921 H   0  0  0  0  0  0  0  0  0  0  0  0  # atno 10763 bound_to 10752
  153.0196  135.5292  154.7005 H   0  0  0  0  0  0  0  0  0  0  0  0  # atno 10764 bound_to 10752
  154.6238  135.2968  155.0265 H   0  0  0  0  0  0  0  0  0  0  0  0  # atno 10765 bound_to 10752
  140.4153  134.6654  157.4636 H   0  0  0  0  0  0  0  0  0  0  0  0  # atno 11005 bound_to 11000
  145.1479  140.9607  143.4450 LP  0  0  0  0  0  0  0  0  0  0  0  0  # atno 17320 bound_to 7965
  145.0233  139.3404  143.6061 LP  0  0  0  0  0  0  0  0  0  0  0  0  # atno 17321 bound_to 7965
  140.7054  143.7528  150.7472 LP  0  0  0  0  0  0  0  0  0  0  0  0  # atno 17342 bound_to 10162
  140.1051  143.4752  152.2403 LP  0  0  0  0  0  0  0  0  0  0  0  0  # atno 17343 bound_to 10162
  157.0895  131.0166  151.3127 LP  0  0  0  0  0  0  0  0  0  0  0  0  # atno 17370 bound_to 10713
  157.4865  130.7796  149.7465 LP  0  0  0  0  0  0  0  0  0  0  0  0  # atno 17371 bound_to 10713
  140.0238  134.6507  155.9202 LP  0  0  0  0  0  0  0  0  0  0  0  0  # atno 17394 bound_to 11000
  141.1805  133.6546  156.5001 LP  0  0  0  0  0  0  0  0  0  0  0  0  # atno 17395 bound_to 11000

$$$$
