AV-unprocessed.smi:283|AV-procd|sdf|2129|dock8
  -GOLD-   2262021443D 1   1.00000     0.00000
 Structure written by MMmdl.
 48 51  0  0  0  0  0  0  0  0  1 V2000
  150.7856  141.2849  157.6596 C   0  0  0  0  0  0  0  0  0  0  0  0
  152.2813  141.3289  158.0003 C   0  0  2  0  0  0  0  0  0  0  0  0
  152.8455  139.9833  157.9149 N   0  0  0  0  0  0  0  0  0  0  0  0
  152.0615  138.8880  158.0246 C   0  0  0  0  0  0  0  0  0  0  0  0
  151.6693  138.5739  159.2822 N   0  0  0  0  0  0  0  0  0  0  0  0
  150.9114  137.4956  159.4991 C   0  0  0  0  0  0  0  0  0  0  0  0
  150.4384  136.6170  158.6138 N   0  0  0  0  0  0  0  0  0  0  0  0
  150.8145  136.9350  157.3410 C   0  0  0  0  0  0  0  0  0  0  0  0
  151.6184  138.0475  156.9608 C   0  0  0  0  0  0  0  0  0  0  0  0
  151.7786  138.0435  155.5807 N   0  0  0  0  0  0  0  0  0  0  0  0
  151.1304  136.9849  155.1805 C   0  0  0  0  0  0  0  0  0  0  0  0
  150.5037  136.2643  156.1764 N   0  0  0  0  0  0  0  0  0  0  0  0
  149.7030  134.9970  156.0878 C   0  0  2  0  0  0  0  0  0  0  0  0
  150.2802  134.0728  156.9587 O   0  0  0  0  0  0  0  0  0  0  0  0
  151.1576  133.2155  156.2386 C   0  0  1  0  0  0  0  0  0  0  0  0
  151.4660  131.9351  157.0358 C   0  0  0  0  0  0  0  0  0  0  0  0
  152.5547  132.1558  157.9070 O   0  0  0  0  0  0  0  0  0  0  0  0
  150.3980  133.0144  154.9189 C   0  0  1  0  0  0  0  0  0  0  0  0
  149.4388  131.9769  155.0489 O   0  0  0  0  0  0  0  0  0  0  0  0
  149.7590  134.3858  154.6741 C   0  0  1  0  0  0  0  0  0  0  0  0
  148.4864  134.3001  154.0603 O   0  0  0  0  0  0  0  0  0  0  0  0
  152.5004  142.0321  159.3432 C   0  0  0  0  0  0  0  0  0  0  0  0
  153.1990  141.3705  160.3803 C   0  0  0  0  0  0  0  0  0  0  0  0
  153.4154  142.0030  161.6186 C   0  0  0  0  0  0  0  0  0  0  0  0
  152.9260  143.3028  161.8384 C   0  0  0  0  0  0  0  0  0  0  0  0
  152.2157  143.9650  160.8204 C   0  0  0  0  0  0  0  0  0  0  0  0
  151.9967  143.3365  159.5781 C   0  0  0  0  0  0  0  0  0  0  0  0
  151.1043  144.1936  158.3701 Cl  0  0  0  0  0  0  0  0  0  0  0  0
  148.6973  135.2605  156.4162 H   0  0  0  0  0  0  0  0  0  0  0  0
  152.0870  133.7443  156.0262 H   0  0  0  0  0  0  0  0  0  0  0  0
  151.0757  132.7408  154.1096 H   0  0  0  0  0  0  0  0  0  0  0  0
  150.4016  134.9849  154.0295 H   0  0  0  0  0  0  0  0  0  0  0  0
  150.3605  142.2886  157.6292 H   0  0  0  0  0  0  0  0  0  0  0  0
  150.2263  140.7093  158.3982 H   0  0  0  0  0  0  0  0  0  0  0  0
  150.6176  140.8286  156.6836 H   0  0  0  0  0  0  0  0  0  0  0  0
  152.7644  141.9065  157.2143 H   0  0  0  0  0  0  0  0  0  0  0  0
  153.7628  139.9385  157.4958 H   0  0  0  0  0  0  0  0  0  0  0  0
  150.6481  137.3090  160.5298 H   0  0  0  0  0  0  0  0  0  0  0  0
  151.0925  136.7138  154.1363 H   0  0  0  0  0  0  0  0  0  0  0  0
  150.5966  131.5954  157.5996 H   0  0  0  0  0  0  0  0  0  0  0  0
  151.7501  131.1298  156.3575 H   0  0  0  0  0  0  0  0  0  0  0  0
  153.0984  131.3830  157.9123 H   0  0  0  0  0  0  0  0  0  0  0  0
  149.1518  131.9459  155.9489 H   0  0  0  0  0  0  0  0  0  0  0  0
  148.4886  134.8441  153.2874 H   0  0  0  0  0  0  0  0  0  0  0  0
  153.5785  140.3704  160.2309 H   0  0  0  0  0  0  0  0  0  0  0  0
  153.9558  141.4894  162.4000 H   0  0  0  0  0  0  0  0  0  0  0  0
  153.0906  143.7893  162.7886 H   0  0  0  0  0  0  0  0  0  0  0  0
  151.8345  144.9603  160.9953 H   0  0  0  0  0  0  0  0  0  0  0  0
  1  2  1  0  0  0  0
  1 33  1  0  0  0  0
  1 34  1  0  0  0  0
  1 35  1  0  0  0  0
  2  3  1  0  0  0  0
  2 22  1  0  0  0  0
  2 36  1  0  0  0  0
  3  4  1  0  0  0  0
  3 37  1  0  0  0  0
  4  9  1  0  0  0  0
  4  5  2  0  0  0  0
  5  6  1  0  0  0  0
  6  7  2  0  0  0  0
  6 38  1  0  0  0  0
  7  8  1  0  0  0  0
  8 12  1  0  0  0  0
  8  9  2  0  0  0  0
  9 10  1  0  0  0  0
 10 11  2  0  0  0  0
 11 12  1  0  0  0  0
 11 39  1  0  0  0  0
 12 13  1  0  0  0  0
 13 29  1  0  0  0  0
 13 20  1  0  0  0  0
 13 14  1  0  0  0  0
 14 15  1  0  0  0  0
 15 30  1  0  0  0  0
 15 16  1  0  0  0  0
 15 18  1  0  0  0  0
 16 17  1  0  0  0  0
 16 40  1  0  0  0  0
 16 41  1  0  0  0  0
 17 42  1  0  0  0  0
 18 31  1  0  0  0  0
 18 19  1  0  0  0  0
 18 20  1  0  0  0  0
 19 43  1  0  0  0  0
 20 32  1  0  0  0  0
 20 21  1  0  0  0  0
 21 44  1  0  0  0  0
 22 27  1  0  0  0  0
 22 23  2  0  0  0  0
 23 24  1  0  0  0  0
 23 45  1  0  0  0  0
 24 25  2  0  0  0  0
 24 46  1  0  0  0  0
 25 26  1  0  0  0  0
 25 47  1  0  0  0  0
 26 27  2  0  0  0  0
 26 48  1  0  0  0  0
 27 28  1  0  0  0  0
M  END
> <s_m_source_file>
AV-unprocessed.smi

> <i_m_source_file_index>
283

> <i_lp_mmshare_version>
43012

> <i_f3d_flags>
0

> <s_epik_input>
Q2xjMVtjSF1bY0hdW2NIXVtjSF1jMVtDQEhdKFtDSDNdKVtOSF1jKG5bY0hdbjIpYyhjMjMpbltjSF1uM1tDQEBIXTRPW0NASF0oW0NIMl1bT0hdKVtDQEBIXShbT0hdKVtDQEhdNFtPSF0=

> <s_epik_cmdline>
J2VwaWtfcHl0aG9uJywgJy1waCcsICc3LjAnLCAnLXRuJywgJzgnLCAnLW1hJywgJzIwMCcsICctbWV0YWxfYmluZGluZycsICctaW1hZScsICc8aW5maWxlLm1hZT4nLCAnLW9tYWUnLCAnPG91dGZpbGUubWFlPic=

> <r_lp_tautomer_probability>
1

> <r_epik_Ionization_Penalty>
0.000266407

> <r_epik_Ionization_Penalty_Charging>
0

> <r_epik_Ionization_Penalty_Neutral>
0.000266407

> <r_epik_State_Penalty>
-0

> <r_epik_Charging_Adjusted_Penalty>
0

> <i_epik_Tot_Q>
0

> <i_epik_Tot_abs_Q>
0

> <r_epik_Metal_State_Penalty>
-0

> <b_epik_Metal_Only>
0

> <s_epik_Chemistry_Notes>
This compound contains an acetal/aminal-like group ( X-CH(R)-Y where X, Y are N, S, or O) that may be acid/base labile, releasing an aldehyde.

> <s_lp_Force_Field>
OPLS_2005

> <r_lp_Energy>
46.6771

> <b_lp_Chiralities_Consistent>
1

> <s_lp_Variant>
AV-unprocessed.smi:283-5

> <Gold.Version>
5.8.1

> <Gold.Id.Protein>
6NUR|6NUR_protein|mol2

> <Gold.PLP.Fitness>
52.6901

> <Gold.PLP.PLP>
-46.1984

> <Gold.PLP.part.hbond>
-3.3608

> <Gold.PLP.part.metal>
0.0000

> <Gold.PLP.part.buried>
-8.3096

> <Gold.PLP.part.nonpolar>
-35.1376

> <Gold.PLP.part.repulsive>
1.1317

> <Gold.PLP.ligand.clash>
0.3726

> <Gold.PLP.ligand.torsion>
1.3875

> <Gold.PLP.Chemscore.Hbond>
2.7137

> <Gold.PLP.Chemscore.CHOScore>
0.4730

> <Gold.PLP.Chemscore.Metal>
0.0000

> <Gold.Chemscore.Hbonds>
donor molecule, donor type, donor heavy atom, donor atom, acceptor molecule, acceptor atom, score
      L1  H    21    44       P1  7948  1.00
      P1  H  6896  6907       L1    17  0.85
      P1  H  6896  6908       L1     7  0.72
      L1  C    11    39       P1  7949  0.47

> <Gold.PLP.Chemscore.Internal.Correction>
0.0792

> <Gold.Rescore>
     Score         DG    S(hbond)    S(metal)    S(lipo)     H(rot)  DE(clash)    DE(int)     intcor
     11.63     -15.07       1.99        0.00     114.84       4.10       0.07       3.37       ----

> <Gold.Chemscore.Fitness>
11.6272

> <Gold.Chemscore.DG>
-15.0672

> <Gold.Chemscore.ZeroCoef>
-5.4800

> <Gold.Chemscore.Hbond>
1.9879

> <Gold.Chemscore.Metal>
0.0000

> <Gold.Chemscore.Lipo>
114.8353

> <Gold.Chemscore.Internal_Hbond>
0.0000

> <Gold.Chemscore.DEClash>
0.0671

> <Gold.Chemscore.DEInternal>
3.3729

> <Gold.Chemscore.Rot>
4.0968

> <Gold.Chemscore.Internal.Correction>
   9.000000E+99

> <Gold.Chemscore.Hbonds>
donor molecule, donor type, donor heavy atom, donor atom, acceptor molecule, acceptor atom, score
      L1  H    21    44       P1  7948  0.62
      P1  H  6896  6907       L1    17  0.13
      P1  H  6896  6908       L1     7  0.16

> <Gold.Chemscore.Hbond.Weighted>
-6.6394

> <Gold.Chemscore.Metal.Weighted>
-0.0000

> <Gold.Chemscore.Lipo.Weighted>
-13.4357

> <Gold.Chemscore.Internal_Hbond.Weighted>
0.0000

> <Gold.Chemscore.DEClash.Weighted>
0.0671

> <Gold.Chemscore.DEInternal.Weighted>
3.3729

> <Gold.Chemscore.Rot.Weighted>
10.4879

> <Gold.Chemscore.Internal.Correction.Weighted>
   9.000000E+99

> <Gold.Protein.RotatedTorsions>
[ 6907 6896 6895 6894 ] final -172.99 input  -60.11 | X-H torsion
[ 7974 7965 7964 7962 ] final -137.51 input  175.53 | X-H torsion
[ 8008 7997 7996 7995 ] final   -1.01 input   59.86 | X-H torsion
[ 10167 10162 10161 10158 ] final  -11.54 input  -65.29 | X-H torsion
[ 10718 10713 10712 10709 ] final -150.07 input   66.30 | X-H torsion
[ 10763 10752 10751 10750 ] final   83.08 input  -60.55 | X-H torsion
[ 11005 11000 10999 10996 ] final  -93.77 input  -57.11 | X-H torsion

> <Gold.Protein.ActiveResidues>
 VAL166  LYS551  ARG553  GLY616  TRP617  ASP618  TYR619  PRO620  LYS621  CYS622 
 ASP623  PHE694  ASN695  SER759  ASP760  ASP761  ALA762  ILE779  LEU786  VAL792 
 PHE793  MET794  SER795  GLU796  ALA797  LYS798  CYS799  TRP800  GLU811  SER814 

> <Gold.Protein.RotatedAtoms>
  151.5490  133.3420  159.2949 H   0  0  0  0  0  0  0  0  0  0  0  0  # atno 6907 bound_to 6896
  150.8490  134.7811  159.7005 H   0  0  0  0  0  0  0  0  0  0  0  0  # atno 6908 bound_to 6896
  152.4541  134.5338  159.9870 H   0  0  0  0  0  0  0  0  0  0  0  0  # atno 6909 bound_to 6896
  144.8836  140.6542  143.5190 H   0  0  0  0  0  0  0  0  0  0  0  0  # atno 7974 bound_to 7965
  154.6516  140.2570  155.7208 H   0  0  0  0  0  0  0  0  0  0  0  0  # atno 8008 bound_to 7997
  156.2577  140.2867  156.0872 H   0  0  0  0  0  0  0  0  0  0  0  0  # atno 8009 bound_to 7997
  155.1443  140.0381  157.2796 H   0  0  0  0  0  0  0  0  0  0  0  0  # atno 8010 bound_to 7997
  140.7141  143.5629  150.9176 H   0  0  0  0  0  0  0  0  0  0  0  0  # atno 10167 bound_to 10162
  156.4414  130.8123  151.2353 H   0  0  0  0  0  0  0  0  0  0  0  0  # atno 10718 bound_to 10713
  153.1259  135.4704  154.9271 H   0  0  0  0  0  0  0  0  0  0  0  0  # atno 10763 bound_to 10752
  154.7620  135.3134  154.8363 H   0  0  0  0  0  0  0  0  0  0  0  0  # atno 10764 bound_to 10752
  153.8916  135.6884  153.4814 H   0  0  0  0  0  0  0  0  0  0  0  0  # atno 10765 bound_to 10752
  141.1488  133.7910  157.0205 H   0  0  0  0  0  0  0  0  0  0  0  0  # atno 11005 bound_to 11000
  145.3910  139.1616  143.4229 LP  0  0  0  0  0  0  0  0  0  0  0  0  # atno 17320 bound_to 7965
  146.3010  140.3999  142.8704 LP  0  0  0  0  0  0  0  0  0  0  0  0  # atno 17321 bound_to 7965
  139.9354  143.6444  152.3066 LP  0  0  0  0  0  0  0  0  0  0  0  0  # atno 17342 bound_to 10162
  139.6909  144.7647  151.1440 LP  0  0  0  0  0  0  0  0  0  0  0  0  # atno 17343 bound_to 10162
  157.7506  131.0167  150.3555 LP  0  0  0  0  0  0  0  0  0  0  0  0  # atno 17370 bound_to 10713
  156.3913  130.3898  149.7027 LP  0  0  0  0  0  0  0  0  0  0  0  0  # atno 17371 bound_to 10713
  140.0819  134.9643  157.1637 LP  0  0  0  0  0  0  0  0  0  0  0  0  # atno 17394 bound_to 11000
  140.3565  134.2541  155.7192 LP  0  0  0  0  0  0  0  0  0  0  0  0  # atno 17395 bound_to 11000

$$$$
