AV-unprocessed.smi:2079|AV-procd|sdf|8475|dock6
  -GOLD-   2272011183D 1   1.00000     0.00000
 Structure written by MMmdl.
 42 43  0  0  0  0  0  0  0  0  2 V2000
  150.2002  142.7139  157.5421 C   0  0  0  0  0  0  0  0  0  0  0  0
  150.1659  141.7785  156.3826 C   0  0  0  0  0  0  0  0  0  0  0  0
  149.1594  141.3449  155.5661 C   0  0  0  0  0  0  0  0  0  0  0  0
  149.8301  140.4722  154.6683 C   0  0  0  0  0  0  0  0  0  0  0  0
  149.1238  139.8062  153.6342 N   0  0  0  0  0  0  0  0  0  0  0  0
  147.8412  139.4050  153.6494 C   0  0  0  0  0  0  0  0  0  0  0  0
  147.0531  139.5802  154.5793 O   0  0  0  0  0  0  0  0  0  0  0  0
  147.5076  138.7795  152.5109 N   0  0  0  0  0  0  0  0  0  0  0  0
  146.1961  138.2025  152.2368 C   0  0  0  0  0  0  0  0  0  0  0  0
  145.9791  136.8890  153.0183 C   0  0  0  0  0  0  0  0  0  0  0  0
  146.2645  135.6634  152.2166 N   0  3  2  0  0  0  0  0  0  0  0  0
  145.2594  135.4571  151.1328 C   0  0  0  0  0  0  0  0  0  0  0  0
  145.6191  134.2705  150.2275 C   0  0  0  0  0  0  0  0  0  0  0  0
  145.7626  132.9908  151.0499 C   0  0  0  0  0  0  0  0  0  0  0  0
  146.8002  133.2146  152.1517 C   0  0  0  0  0  0  0  0  0  0  0  0
  146.4435  134.4238  153.0444 C   0  0  1  0  0  0  0  0  0  0  0  0
  147.5263  134.5642  154.1352 C   0  0  0  0  0  0  0  0  0  0  0  0
  151.1273  140.3783  154.9169 N   0  0  0  0  0  0  0  0  0  0  0  0
  151.3494  141.2157  156.0164 O   0  0  0  0  0  0  0  0  0  0  0  0
  149.1919  142.9494  157.8830 H   0  0  0  0  0  0  0  0  0  0  0  0
  150.6918  143.6475  157.2688 H   0  0  0  0  0  0  0  0  0  0  0  0
  150.7459  142.2757  158.3779 H   0  0  0  0  0  0  0  0  0  0  0  0
  148.1141  141.6136  155.6059 H   0  0  0  0  0  0  0  0  0  0  0  0
  149.6568  139.6004  152.8024 H   0  0  0  0  0  0  0  0  0  0  0  0
  148.2131  138.6771  151.7956 H   0  0  0  0  0  0  0  0  0  0  0  0
  145.4639  138.9571  152.5201 H   0  0  0  0  0  0  0  0  0  0  0  0
  146.0795  138.0363  151.1643 H   0  0  0  0  0  0  0  0  0  0  0  0
  146.6396  136.9290  153.8805 H   0  0  0  0  0  0  0  0  0  0  0  0
  144.9620  136.8422  153.4101 H   0  0  0  0  0  0  0  0  0  0  0  0
  144.2736  135.3043  151.5752 H   0  0  0  0  0  0  0  0  0  0  0  0
  145.1863  136.3378  150.4978 H   0  0  0  0  0  0  0  0  0  0  0  0
  144.8520  134.1379  149.4641 H   0  0  0  0  0  0  0  0  0  0  0  0
  146.5505  134.4781  149.6989 H   0  0  0  0  0  0  0  0  0  0  0  0
  144.8024  132.7195  151.4907 H   0  0  0  0  0  0  0  0  0  0  0  0
  146.0620  132.1608  150.4093 H   0  0  0  0  0  0  0  0  0  0  0  0
  146.8783  132.3109  152.7574 H   0  0  0  0  0  0  0  0  0  0  0  0
  147.7819  133.3662  151.7002 H   0  0  0  0  0  0  0  0  0  0  0  0
  145.4939  134.2122  153.5389 H   0  0  0  0  0  0  0  0  0  0  0  0
  147.7422  133.5996  154.5953 H   0  0  0  0  0  0  0  0  0  0  0  0
  147.2159  135.2185  154.9492 H   0  0  0  0  0  0  0  0  0  0  0  0
  148.4610  134.9466  153.7232 H   0  0  0  0  0  0  0  0  0  0  0  0
  147.1518  135.8250  151.7615 H   0  0  0  0  0  0  0  0  0  0  0  0
  1  2  1  0  0  0  0
  1 20  1  0  0  0  0
  1 21  1  0  0  0  0
  1 22  1  0  0  0  0
  2 19  1  0  0  0  0
  2  3  2  0  0  0  0
  3  4  1  0  0  0  0
  3 23  1  0  0  0  0
  4  5  1  0  0  0  0
  4 18  2  0  0  0  0
  5  6  1  0  0  0  0
  5 24  1  0  0  0  0
  6  7  2  0  0  0  0
  6  8  1  0  0  0  0
  8  9  1  0  0  0  0
  8 25  1  0  0  0  0
  9 10  1  0  0  0  0
  9 26  1  0  0  0  0
  9 27  1  0  0  0  0
 10 11  1  0  0  0  0
 10 28  1  0  0  0  0
 10 29  1  0  0  0  0
 11 16  1  0  0  0  0
 11 12  1  0  0  0  0
 11 42  1  0  0  0  0
 12 13  1  0  0  0  0
 12 30  1  0  0  0  0
 12 31  1  0  0  0  0
 13 14  1  0  0  0  0
 13 32  1  0  0  0  0
 13 33  1  0  0  0  0
 14 15  1  0  0  0  0
 14 34  1  0  0  0  0
 14 35  1  0  0  0  0
 15 16  1  0  0  0  0
 15 36  1  0  0  0  0
 15 37  1  0  0  0  0
 16 17  1  0  0  0  0
 16 38  1  0  0  0  0
 17 39  1  0  0  0  0
 17 40  1  0  0  0  0
 17 41  1  0  0  0  0
 18 19  1  0  0  0  0
M  CHG  1  11   1
M  END
> <s_m_source_file>
AV-unprocessed.smi

> <i_m_source_file_index>
2079

> <i_lp_mmshare_version>
43012

> <i_f3d_flags>
0

> <s_epik_input>
W0NIM11jMVtjSF1jKG5vMSlbTkhdQyg9TylbTkhdW0NIMl1bQ0gyXU4yW0NIMl1bQ0gyXVtDSDJdW0NIMl1bQ0BIXTJbQ0gzXQ==

> <s_epik_cmdline>
J2VwaWtfcHl0aG9uJywgJy1waCcsICc3LjAnLCAnLXRuJywgJzgnLCAnLW1hJywgJzIwMCcsICctbWV0YWxfYmluZGluZycsICctaW1hZScsICc8aW5maWxlLm1hZT4nLCAnLW9tYWUnLCAnPG91dGZpbGUubWFlPic=

> <r_epik_Ionization_Penalty>
0.00265971

> <r_epik_Ionization_Penalty_Charging>
0.00262393

> <r_epik_Ionization_Penalty_Neutral>
3.57846e-05

> <r_epik_State_Penalty>
0.00182566

> <r_epik_Charging_Adjusted_Penalty>
0.00444959

> <i_epik_Tot_Q>
1

> <i_epik_Tot_abs_Q>
1

> <r_epik_Metal_State_Penalty>
0.0216344

> <b_epik_Metal_Only>
0

> <s_lp_Force_Field>
OPLS_2005

> <r_lp_Energy>
17.1717

> <b_lp_Chiralities_Consistent>
1

> <s_lp_Variant>
AV-unprocessed.smi:2079-1

> <Gold.Version>
5.8.1

> <Gold.Id.Protein>
6NUR|6NUR_protein|mol2

> <Gold.PLP.Fitness>
40.3208

> <Gold.PLP.PLP>
-28.4171

> <Gold.PLP.part.hbond>
-5.2021

> <Gold.PLP.part.metal>
0.0000

> <Gold.PLP.part.buried>
1.0370

> <Gold.PLP.part.nonpolar>
-23.0433

> <Gold.PLP.part.repulsive>
0.3619

> <Gold.PLP.ligand.clash>
0.0000

> <Gold.PLP.ligand.torsion>
0.6236

> <Gold.PLP.Chemscore.Hbond>
4.3772

> <Gold.PLP.Chemscore.CHOScore>
0.0000

> <Gold.PLP.Chemscore.Metal>
0.0000

> <Gold.Chemscore.Hbonds>
donor molecule, donor type, donor heavy atom, donor atom, acceptor molecule, acceptor atom, score
      L1  H     5    24       P1  7957  0.75
      L1  H     8    25       P1  7957  0.61
      L1  H    11    42       P1  7948  2.00
      P1  H  7989  7998       L1    18  0.85

> <Gold.PLP.Chemscore.Internal.Correction>
0.0191

> <Gold.Rescore>
     Score         DG    S(hbond)    S(metal)    S(lipo)     H(rot)  DE(clash)    DE(int)     intcor
     15.20     -18.86       3.05        0.00      61.71       1.57       1.84       1.82       ----

> <Gold.Chemscore.Fitness>
15.1995

> <Gold.Chemscore.DG>
-18.8571

> <Gold.Chemscore.ZeroCoef>
-5.4800

> <Gold.Chemscore.Hbond>
3.0464

> <Gold.Chemscore.Metal>
0.0000

> <Gold.Chemscore.Lipo>
61.7140

> <Gold.Chemscore.Internal_Hbond>
0.0000

> <Gold.Chemscore.DEClash>
1.8415

> <Gold.Chemscore.DEInternal>
1.8161

> <Gold.Chemscore.Rot>
1.5697

> <Gold.Chemscore.Internal.Correction>
   9.000000E+99

> <Gold.Chemscore.Hbonds>
donor molecule, donor type, donor heavy atom, donor atom, acceptor molecule, acceptor atom, score
      L1  H     5    24       P1  7957  0.74
      L1  H     8    25       P1  7957  0.42
      L1  H    11    42       P1  7948  0.96
      P1  H  7989  7998       L1    18  0.13

> <Gold.Chemscore.Hbond.Weighted>
-10.1751

> <Gold.Chemscore.Metal.Weighted>
-0.0000

> <Gold.Chemscore.Lipo.Weighted>
-7.2205

> <Gold.Chemscore.Internal_Hbond.Weighted>
0.0000

> <Gold.Chemscore.DEClash.Weighted>
1.8415

> <Gold.Chemscore.DEInternal.Weighted>
1.8161

> <Gold.Chemscore.Rot.Weighted>
4.0185

> <Gold.Chemscore.Internal.Correction.Weighted>
   9.000000E+99

> <Gold.Protein.RotatedTorsions>
[ 6907 6896 6895 6894 ] final  -22.33 input  -60.11 | X-H torsion
[ 7974 7965 7964 7962 ] final   58.19 input  175.53 | X-H torsion
[ 8008 7997 7996 7995 ] final  -25.28 input   59.86 | X-H torsion
[ 10167 10162 10161 10158 ] final   39.10 input  -65.29 | X-H torsion
[ 10718 10713 10712 10709 ] final  126.35 input   66.30 | X-H torsion
[ 10763 10752 10751 10750 ] final   83.36 input  -60.55 | X-H torsion
[ 11005 11000 10999 10996 ] final  -33.78 input  -57.11 | X-H torsion

> <Gold.Protein.ActiveResidues>
 VAL166  LYS551  ARG553  GLY616  TRP617  ASP618  TYR619  PRO620  LYS621  CYS622 
 ASP623  PHE694  ASN695  SER759  ASP760  ASP761  ALA762  ILE779  LEU786  VAL792 
 PHE793  MET794  SER795  GLU796  ALA797  LYS798  CYS799  TRP800  GLU811  SER814 

> <Gold.Protein.RotatedAtoms>
  151.2202  135.0515  159.8946 H   0  0  0  0  0  0  0  0  0  0  0  0  # atno 6907 bound_to 6896
  152.5416  134.0649  159.8178 H   0  0  0  0  0  0  0  0  0  0  0  0  # atno 6908 bound_to 6896
  151.0814  133.5339  159.2652 H   0  0  0  0  0  0  0  0  0  0  0  0  # atno 6909 bound_to 6896
  145.9209  139.3728  143.0479 H   0  0  0  0  0  0  0  0  0  0  0  0  # atno 7974 bound_to 7965
  154.4484  140.1931  156.0595 H   0  0  0  0  0  0  0  0  0  0  0  0  # atno 8008 bound_to 7997
  156.0594  140.3298  155.7416 H   0  0  0  0  0  0  0  0  0  0  0  0  # atno 8009 bound_to 7997
  155.5436  140.0588  157.2855 H   0  0  0  0  0  0  0  0  0  0  0  0  # atno 8010 bound_to 7997
  140.3872  144.1901  150.6130 H   0  0  0  0  0  0  0  0  0  0  0  0  # atno 10167 bound_to 10162
  157.5426  131.1096  150.8833 H   0  0  0  0  0  0  0  0  0  0  0  0  # atno 10718 bound_to 10713
  153.1284  135.4694  154.9310 H   0  0  0  0  0  0  0  0  0  0  0  0  # atno 10763 bound_to 10752
  154.7642  135.3140  154.8322 H   0  0  0  0  0  0  0  0  0  0  0  0  # atno 10764 bound_to 10752
  153.8870  135.6888  153.4817 H   0  0  0  0  0  0  0  0  0  0  0  0  # atno 10765 bound_to 10752
  140.9663  133.7135  156.1450 H   0  0  0  0  0  0  0  0  0  0  0  0  # atno 11005 bound_to 11000
  145.8551  140.9507  143.0729 LP  0  0  0  0  0  0  0  0  0  0  0  0  # atno 17320 bound_to 7965
  144.6753  140.0458  143.7480 LP  0  0  0  0  0  0  0  0  0  0  0  0  # atno 17321 bound_to 7965
  140.4877  143.2358  151.8864 LP  0  0  0  0  0  0  0  0  0  0  0  0  # atno 17342 bound_to 10162
  139.4791  144.5200  151.8814 LP  0  0  0  0  0  0  0  0  0  0  0  0  # atno 17343 bound_to 10162
  156.9381  130.5374  149.5280 LP  0  0  0  0  0  0  0  0  0  0  0  0  # atno 17370 bound_to 10713
  156.0509  130.5579  150.8988 LP  0  0  0  0  0  0  0  0  0  0  0  0  # atno 17371 bound_to 10713
  140.7394  134.4166  157.5556 LP  0  0  0  0  0  0  0  0  0  0  0  0  # atno 17394 bound_to 11000
  139.8896  134.8827  156.2414 LP  0  0  0  0  0  0  0  0  0  0  0  0  # atno 17395 bound_to 11000

$$$$
