AV-unprocessed.smi:1005|AV-procd|sdf|4378|dock5
  -GOLD-   22720 2293D 1   1.00000     0.00000
 Structure written by MMmdl.
 58 60  0  0  0  0  0  0  0  0  4 V2000
  152.8934  143.2321  160.4972 C   0  0  0  0  0  0  0  0  0  0  0  0
  152.4336  142.2979  159.3908 C   0  0  0  0  0  0  0  0  0  0  0  0
  152.6440  140.9094  159.5501 C   0  0  0  0  0  0  0  0  0  0  0  0
  152.2107  140.0803  158.5224 C   0  0  0  0  0  0  0  0  0  0  0  0
  152.2724  138.6925  158.3776 N   0  3  0  0  0  0  0  0  0  0  0  0
  151.7116  138.3337  157.1896 C   0  0  0  0  0  0  0  0  0  0  0  0
  151.2865  139.4725  156.5765 N   0  0  0  0  0  0  0  0  0  0  0  0
  150.6150  139.6579  155.2830 C   0  0  0  0  0  0  0  0  0  0  0  0
  150.2942  138.3253  154.5772 C   0  0  2  0  0  0  0  0  0  0  0  0
  150.1573  138.5570  153.1883 O   0  0  0  0  0  0  0  0  0  0  0  0
  148.9891  137.6984  155.1060 C   0  0  0  0  0  0  0  0  0  0  0  0
  148.7557  136.3296  154.5773 N   0  3  1  0  0  0  0  0  0  0  0  0
  149.8063  135.3546  154.9608 C   0  0  0  0  0  0  0  0  0  0  0  0
  149.5109  133.9795  154.3413 C   0  0  0  0  0  0  0  0  0  0  0  0
  148.2180  133.5444  154.7439 O   0  0  0  0  0  0  0  0  0  0  0  0
  147.1850  134.4158  154.2972 C   0  0  1  0  0  0  0  0  0  0  0  0
  145.8420  133.7846  154.7162 C   0  0  0  0  0  0  0  0  0  0  0  0
  145.5906  132.4585  154.0936 N   0  3  0  0  0  0  0  0  0  0  0  0
  146.4709  131.4083  154.6524 C   0  0  0  0  0  0  0  0  0  0  0  0
  145.6496  132.4819  152.6133 C   0  0  0  0  0  0  0  0  0  0  0  0
  147.4129  135.8069  154.9269 C   0  0  0  0  0  0  0  0  0  0  0  0
  151.5850  140.5874  157.3671 C   0  0  0  0  0  0  0  0  0  0  0  0
  151.3735  141.9528  157.1919 C   0  0  0  0  0  0  0  0  0  0  0  0
  151.8088  142.8130  158.2253 C   0  0  0  0  0  0  0  0  0  0  0  0
  151.5926  144.3081  158.0624 C   0  0  0  0  0  0  0  0  0  0  0  0
  153.3240  142.6797  161.3329 H   0  0  0  0  0  0  0  0  0  0  0  0
  152.0553  143.8142  160.8810 H   0  0  0  0  0  0  0  0  0  0  0  0
  153.6530  143.9202  160.1256 H   0  0  0  0  0  0  0  0  0  0  0  0
  153.1213  140.5108  160.4335 H   0  0  0  0  0  0  0  0  0  0  0  0
  151.6180  137.3275  156.8065 H   0  0  0  0  0  0  0  0  0  0  0  0
  149.7084  140.2418  155.4477 H   0  0  0  0  0  0  0  0  0  0  0  0
  151.2683  140.2708  154.6602 H   0  0  0  0  0  0  0  0  0  0  0  0
  151.1292  137.6417  154.7254 H   0  0  0  0  0  0  0  0  0  0  0  0
  149.9274  137.7412  152.7693 H   0  0  0  0  0  0  0  0  0  0  0  0
  148.9936  137.6674  156.1967 H   0  0  0  0  0  0  0  0  0  0  0  0
  148.1571  138.3461  154.8246 H   0  0  0  0  0  0  0  0  0  0  0  0
  150.7864  135.6938  154.6275 H   0  0  0  0  0  0  0  0  0  0  0  0
  149.8505  135.2700  156.0478 H   0  0  0  0  0  0  0  0  0  0  0  0
  149.5746  134.0197  153.2527 H   0  0  0  0  0  0  0  0  0  0  0  0
  150.2492  133.2504  154.6758 H   0  0  0  0  0  0  0  0  0  0  0  0
  147.2422  134.4836  153.2101 H   0  0  0  0  0  0  0  0  0  0  0  0
  145.7948  133.6837  155.8016 H   0  0  0  0  0  0  0  0  0  0  0  0
  145.0408  134.4731  154.4420 H   0  0  0  0  0  0  0  0  0  0  0  0
  147.5190  131.6226  154.4386 H   0  0  0  0  0  0  0  0  0  0  0  0
  146.2281  130.4331  154.2283 H   0  0  0  0  0  0  0  0  0  0  0  0
  146.3496  131.3341  155.7336 H   0  0  0  0  0  0  0  0  0  0  0  0
  146.6344  132.7971  152.2656 H   0  0  0  0  0  0  0  0  0  0  0  0
  144.9055  133.1567  152.1918 H   0  0  0  0  0  0  0  0  0  0  0  0
  145.4498  131.4898  152.2065 H   0  0  0  0  0  0  0  0  0  0  0  0
  147.3165  135.7523  156.0126 H   0  0  0  0  0  0  0  0  0  0  0  0
  146.6503  136.5013  154.5720 H   0  0  0  0  0  0  0  0  0  0  0  0
  150.8985  142.3448  156.3048 H   0  0  0  0  0  0  0  0  0  0  0  0
  151.1275  144.5423  157.1043 H   0  0  0  0  0  0  0  0  0  0  0  0
  152.5427  144.8410  158.1093 H   0  0  0  0  0  0  0  0  0  0  0  0
  150.9423  144.6886  158.8504 H   0  0  0  0  0  0  0  0  0  0  0  0
  144.6497  132.1905  154.3452 H   0  0  0  0  0  0  0  0  0  0  0  0
  148.7767  136.4094  153.5702 H   0  0  0  0  0  0  0  0  0  0  0  0
  152.6699  138.0366  159.0381 H   0  0  0  0  0  0  0  0  0  0  0  0
  1  2  1  0  0  0  0
  1 26  1  0  0  0  0
  1 27  1  0  0  0  0
  1 28  1  0  0  0  0
  2 24  1  0  0  0  0
  2  3  2  0  0  0  0
  3  4  1  0  0  0  0
  3 29  1  0  0  0  0
  4 22  2  0  0  0  0
  4  5  1  0  0  0  0
  5  6  2  0  0  0  0
  5 58  1  0  0  0  0
  6  7  1  0  0  0  0
  6 30  1  0  0  0  0
  7  8  1  0  0  0  0
  7 22  1  0  0  0  0
  8  9  1  0  0  0  0
  8 31  1  0  0  0  0
  8 32  1  0  0  0  0
  9 10  1  0  0  0  0
  9 11  1  0  0  0  0
  9 33  1  0  0  0  0
 10 34  1  0  0  0  0
 11 12  1  0  0  0  0
 11 35  1  0  0  0  0
 11 36  1  0  0  0  0
 12 21  1  0  0  0  0
 12 13  1  0  0  0  0
 12 57  1  0  0  0  0
 13 14  1  0  0  0  0
 13 37  1  0  0  0  0
 13 38  1  0  0  0  0
 14 15  1  0  0  0  0
 14 39  1  0  0  0  0
 14 40  1  0  0  0  0
 15 16  1  0  0  0  0
 16 17  1  0  0  0  0
 16 21  1  0  0  0  0
 16 41  1  0  0  0  0
 17 18  1  0  0  0  0
 17 42  1  0  0  0  0
 17 43  1  0  0  0  0
 18 19  1  0  0  0  0
 18 20  1  0  0  0  0
 18 56  1  0  0  0  0
 19 44  1  0  0  0  0
 19 45  1  0  0  0  0
 19 46  1  0  0  0  0
 20 47  1  0  0  0  0
 20 48  1  0  0  0  0
 20 49  1  0  0  0  0
 21 50  1  0  0  0  0
 21 51  1  0  0  0  0
 22 23  1  0  0  0  0
 23 24  2  0  0  0  0
 23 52  1  0  0  0  0
 24 25  1  0  0  0  0
 25 53  1  0  0  0  0
 25 54  1  0  0  0  0
 25 55  1  0  0  0  0
M  CHG  1   5   1
M  CHG  1  12   1
M  CHG  1  18   1
M  END
> <s_m_source_file>
AV-unprocessed.smi

> <i_m_source_file_index>
1005

> <i_lp_mmshare_version>
43012

> <i_f3d_flags>
0

> <s_epik_input>
W0NIM11jKFtjSF0xKWMoW0NIM10pW2NIXWMoYzEyKW4oW2NIXW4yKVtDSDJdW0NASF0oW09IXSlbQ0gyXU4zW0NIMl1bQ0gyXU9bQ0BIXShbQ0gyXTMpW0NIMl1OKFtDSDNdKVtDSDNd

> <s_epik_cmdline>
J2VwaWtfcHl0aG9uJywgJy1waCcsICc3LjAnLCAnLXRuJywgJzgnLCAnLW1hJywgJzIwMCcsICctbWV0YWxfYmluZGluZycsICctaW1hZScsICc8aW5maWxlLm1hZT4nLCAnLW9tYWUnLCAnPG91dGZpbGUubWFlPic=

> <r_epik_Ionization_Penalty>
2.30802

> <r_epik_Ionization_Penalty_Charging>
2.30798

> <r_epik_Ionization_Penalty_Neutral>
3.4851e-05

> <r_epik_State_Penalty>
2.52618

> <r_epik_Charging_Adjusted_Penalty>
4.83416

> <i_epik_Tot_Q>
3

> <i_epik_Tot_abs_Q>
3

> <r_epik_Metal_State_Penalty>
6.53149

> <b_epik_Metal_Only>
0

> <s_lp_Force_Field>
OPLS_2005

> <r_lp_Energy>
43.2014

> <b_lp_Chiralities_Consistent>
1

> <s_lp_Variant>
AV-unprocessed.smi:1005-17

> <Gold.Version>
5.8.1

> <Gold.Id.Protein>
6NUR|6NUR_protein|mol2

> <Gold.PLP.Fitness>
54.9414

> <Gold.PLP.PLP>
-40.4446

> <Gold.PLP.part.hbond>
-4.2073

> <Gold.PLP.part.metal>
0.0000

> <Gold.PLP.part.buried>
-4.0320

> <Gold.PLP.part.nonpolar>
-32.0093

> <Gold.PLP.part.repulsive>
0.1237

> <Gold.PLP.ligand.clash>
0.0000

> <Gold.PLP.ligand.torsion>
0.3324

> <Gold.PLP.Chemscore.Hbond>
5.0000

> <Gold.PLP.Chemscore.CHOScore>
0.0000

> <Gold.PLP.Chemscore.Metal>
0.0000

> <Gold.Chemscore.Hbonds>
donor molecule, donor type, donor heavy atom, donor atom, acceptor molecule, acceptor atom, score
      L1  H    10    34       P1  7948  0.95
      L1  H    12    57       P1  7948  2.00
      L1  H    18    56       P1 10957  1.89

> <Gold.PLP.Chemscore.Internal.Correction>
0.1616

> <Gold.Rescore>
     Score         DG    S(hbond)    S(metal)    S(lipo)     H(rot)  DE(clash)    DE(int)     intcor
     19.40     -21.23       2.86        0.00     108.85       2.56       0.08       1.75       ----

> <Gold.Chemscore.Fitness>
19.4007

> <Gold.Chemscore.DG>
-21.2317

> <Gold.Chemscore.ZeroCoef>
-5.4800

> <Gold.Chemscore.Hbond>
2.8626

> <Gold.Chemscore.Metal>
0.0000

> <Gold.Chemscore.Lipo>
108.8513

> <Gold.Chemscore.Internal_Hbond>
0.0000

> <Gold.Chemscore.DEClash>
0.0775

> <Gold.Chemscore.DEInternal>
1.7535

> <Gold.Chemscore.Rot>
2.5566

> <Gold.Chemscore.Internal.Correction>
   9.000000E+99

> <Gold.Chemscore.Hbonds>
donor molecule, donor type, donor heavy atom, donor atom, acceptor molecule, acceptor atom, score
      L1  H    10    34       P1  7948  0.21
      L1  H    12    57       P1  7948  1.00
      L1  H    18    56       P1 10957  0.31

> <Gold.Chemscore.Hbond.Weighted>
-9.5611

> <Gold.Chemscore.Metal.Weighted>
-0.0000

> <Gold.Chemscore.Lipo.Weighted>
-12.7356

> <Gold.Chemscore.Internal_Hbond.Weighted>
0.0000

> <Gold.Chemscore.DEClash.Weighted>
0.0775

> <Gold.Chemscore.DEInternal.Weighted>
1.7535

> <Gold.Chemscore.Rot.Weighted>
6.5450

> <Gold.Chemscore.Internal.Correction.Weighted>
   9.000000E+99

> <Gold.Protein.RotatedTorsions>
[ 6907 6896 6895 6894 ] final  129.45 input  -60.11 | X-H torsion
[ 7974 7965 7964 7962 ] final -144.26 input  175.53 | X-H torsion
[ 8008 7997 7996 7995 ] final  -96.17 input   59.86 | X-H torsion
[ 10167 10162 10161 10158 ] final  -33.91 input  -65.29 | X-H torsion
[ 10718 10713 10712 10709 ] final   35.23 input   66.30 | X-H torsion
[ 10763 10752 10751 10750 ] final -122.92 input  -60.55 | X-H torsion
[ 11005 11000 10999 10996 ] final   10.22 input  -57.11 | X-H torsion

> <Gold.Protein.ActiveResidues>
 VAL166  LYS551  ARG553  GLY616  TRP617  ASP618  TYR619  PRO620  LYS621  CYS622 
 ASP623  PHE694  ASN695  SER759  ASP760  ASP761  ALA762  ILE779  LEU786  VAL792 
 PHE793  MET794  SER795  GLU796  ALA797  LYS798  CYS799  TRP800  GLU811  SER814 

> <Gold.Protein.RotatedAtoms>
  152.3623  133.6312  159.6023 H   0  0  0  0  0  0  0  0  0  0  0  0  # atno 6907 bound_to 6896
  150.7609  133.9404  159.3463 H   0  0  0  0  0  0  0  0  0  0  0  0  # atno 6908 bound_to 6896
  151.7240  135.0889  160.0340 H   0  0  0  0  0  0  0  0  0  0  0  0  # atno 6909 bound_to 6896
  144.8310  140.5732  143.5515 H   0  0  0  0  0  0  0  0  0  0  0  0  # atno 7974 bound_to 7965
  154.7709  140.0473  157.1051 H   0  0  0  0  0  0  0  0  0  0  0  0  # atno 8008 bound_to 7997
  154.9821  140.3103  155.4922 H   0  0  0  0  0  0  0  0  0  0  0  0  # atno 8009 bound_to 7997
  156.2921  140.2234  156.4921 H   0  0  0  0  0  0  0  0  0  0  0  0  # atno 8010 bound_to 7997
  140.7195  143.3586  151.2009 H   0  0  0  0  0  0  0  0  0  0  0  0  # atno 10167 bound_to 10162
  157.3201  130.7444  149.6780 H   0  0  0  0  0  0  0  0  0  0  0  0  # atno 10718 bound_to 10713
  154.8698  135.4116  154.2859 H   0  0  0  0  0  0  0  0  0  0  0  0  # atno 10763 bound_to 10752
  153.3744  135.7009  153.6619 H   0  0  0  0  0  0  0  0  0  0  0  0  # atno 10764 bound_to 10752
  153.5467  135.3637  155.2714 H   0  0  0  0  0  0  0  0  0  0  0  0  # atno 10765 bound_to 10752
  140.5170  134.0596  155.7834 H   0  0  0  0  0  0  0  0  0  0  0  0  # atno 11005 bound_to 11000
  145.4895  139.1489  143.3717 LP  0  0  0  0  0  0  0  0  0  0  0  0  # atno 17320 bound_to 7965
  146.2613  140.5033  142.8852 LP  0  0  0  0  0  0  0  0  0  0  0  0  # atno 17321 bound_to 7965
  139.7133  143.9342  152.2956 LP  0  0  0  0  0  0  0  0  0  0  0  0  # atno 17342 bound_to 10162
  139.9074  144.6876  150.8599 LP  0  0  0  0  0  0  0  0  0  0  0  0  # atno 17343 bound_to 10162
  155.9685  130.4225  150.4521 LP  0  0  0  0  0  0  0  0  0  0  0  0  # atno 17370 bound_to 10713
  157.2535  131.0551  151.2364 LP  0  0  0  0  0  0  0  0  0  0  0  0  # atno 17371 bound_to 10713
  141.1355  133.9229  157.2443 LP  0  0  0  0  0  0  0  0  0  0  0  0  # atno 17394 bound_to 11000
  139.9627  135.0150  156.9304 LP  0  0  0  0  0  0  0  0  0  0  0  0  # atno 17395 bound_to 11000

$$$$
