AV-unprocessed.smi:2862|AV-procd|sdf|11008|dock3
  -GOLD-   2272015463D 1   1.00000     0.00000
 Structure written by MMmdl.
 52 54  0  0  0  0  0  0  0  0  1 V2000
  152.8116  142.5142  161.2311 C   0  0  0  0  0  0  0  0  0  0  0  0
  152.3520  142.4623  159.7641 C   0  0  2  0  0  0  0  0  0  0  0  0
  152.8155  141.2207  159.1506 N   0  0  0  0  0  0  0  0  0  0  0  0
  152.0398  140.3337  158.5008 C   0  0  0  0  0  0  0  0  0  0  0  0
  150.8375  140.5153  158.3118 O   0  0  0  0  0  0  0  0  0  0  0  0
  152.6805  139.0312  157.9913 C   0  0  0  0  0  0  0  0  0  0  0  0
  151.7418  138.0718  157.3821 N   0  0  0  0  0  0  0  0  0  0  0  0
  151.5483  138.1740  155.9890 C   0  0  0  0  0  0  0  0  0  0  0  0
  150.7210  137.3561  155.3192 C   0  0  0  0  0  0  0  0  0  0  0  0
  150.0106  136.3440  156.0618 C   0  0  0  0  0  0  0  0  0  0  0  0
  150.1701  136.2563  157.3984 C   0  0  0  0  0  0  0  0  0  0  0  0
  149.4904  135.2147  158.1664 C   0  0  0  0  0  0  0  0  0  0  0  0
  149.7215  134.0204  157.9680 O   0  0  0  0  0  0  0  0  0  0  0  0
  148.5699  135.6210  159.0884 N   0  0  0  0  0  0  0  0  0  0  0  0
  148.2864  137.0603  159.1869 C   0  0  0  0  0  0  0  0  0  0  0  0
  147.9178  134.7810  160.1208 C   0  0  2  0  0  0  0  0  0  0  0  0
  146.7718  133.9460  159.5188 C   0  0  0  0  0  0  0  0  0  0  0  0
  147.4853  135.5492  161.3604 C   0  0  0  0  0  0  0  0  0  0  0  0
  146.8642  134.8365  162.5374 C   0  0  0  0  0  0  0  0  0  0  0  0
  146.0237  135.7562  161.6805 C   0  0  0  0  0  0  0  0  0  0  0  0
  151.0991  137.1340  158.1454 C   0  0  0  0  0  0  0  0  0  0  0  0
  151.3006  137.0489  159.3596 O   0  0  0  0  0  0  0  0  0  0  0  0
  152.8159  143.6991  159.0170 C   0  0  0  0  0  0  0  0  0  0  0  0
  152.0669  145.0042  159.1556 C   0  0  0  0  0  0  0  0  0  0  0  0
  152.0376  144.2524  157.8466 C   0  0  0  0  0  0  0  0  0  0  0  0
  152.4475  143.4155  161.7248 H   0  0  0  0  0  0  0  0  0  0  0  0
  153.8997  142.5117  161.3060 H   0  0  0  0  0  0  0  0  0  0  0  0
  152.4372  141.6615  161.7981 H   0  0  0  0  0  0  0  0  0  0  0  0
  151.2604  142.4681  159.7518 H   0  0  0  0  0  0  0  0  0  0  0  0
  153.7943  140.9986  159.2619 H   0  0  0  0  0  0  0  0  0  0  0  0
  153.4459  139.3018  157.2623 H   0  0  0  0  0  0  0  0  0  0  0  0
  153.2350  138.5731  158.8122 H   0  0  0  0  0  0  0  0  0  0  0  0
  152.1110  138.9599  155.5058 H   0  0  0  0  0  0  0  0  0  0  0  0
  150.5875  137.4557  154.2520 H   0  0  0  0  0  0  0  0  0  0  0  0
  149.3496  135.6658  155.5408 H   0  0  0  0  0  0  0  0  0  0  0  0
  149.1988  137.6213  159.3955 H   0  0  0  0  0  0  0  0  0  0  0  0
  147.5790  137.3088  159.9768 H   0  0  0  0  0  0  0  0  0  0  0  0
  147.8659  137.4297  158.2506 H   0  0  0  0  0  0  0  0  0  0  0  0
  148.6154  134.0373  160.4993 H   0  0  0  0  0  0  0  0  0  0  0  0
  146.3845  133.2369  160.2482 H   0  0  0  0  0  0  0  0  0  0  0  0
  147.1074  133.3709  158.6565 H   0  0  0  0  0  0  0  0  0  0  0  0
  145.9323  134.5618  159.1986 H   0  0  0  0  0  0  0  0  0  0  0  0
  148.1344  136.3864  161.6087 H   0  0  0  0  0  0  0  0  0  0  0  0
  146.6886  133.7664  162.4467 H   0  0  0  0  0  0  0  0  0  0  0  0
  147.1355  135.1820  163.5330 H   0  0  0  0  0  0  0  0  0  0  0  0
  145.7332  136.7150  162.1050 H   0  0  0  0  0  0  0  0  0  0  0  0
  145.2854  135.2912  161.0311 H   0  0  0  0  0  0  0  0  0  0  0  0
  153.8990  143.7895  158.9562 H   0  0  0  0  0  0  0  0  0  0  0  0
  151.1557  145.0083  159.7506 H   0  0  0  0  0  0  0  0  0  0  0  0
  152.6558  145.9182  159.1978 H   0  0  0  0  0  0  0  0  0  0  0  0
  152.5987  144.6829  157.0203 H   0  0  0  0  0  0  0  0  0  0  0  0
  151.1098  143.7546  157.5718 H   0  0  0  0  0  0  0  0  0  0  0  0
  1  2  1  0  0  0  0
  1 26  1  0  0  0  0
  1 27  1  0  0  0  0
  1 28  1  0  0  0  0
  2  3  1  0  0  0  0
  2 23  1  0  0  0  0
  2 29  1  0  0  0  0
  3  4  1  0  0  0  0
  3 30  1  0  0  0  0
  4  5  2  0  0  0  0
  4  6  1  0  0  0  0
  6  7  1  0  0  0  0
  6 31  1  0  0  0  0
  6 32  1  0  0  0  0
  7 21  1  0  0  0  0
  7  8  1  0  0  0  0
  8  9  2  0  0  0  0
  8 33  1  0  0  0  0
  9 10  1  0  0  0  0
  9 34  1  0  0  0  0
 10 11  2  0  0  0  0
 10 35  1  0  0  0  0
 11 12  1  0  0  0  0
 11 21  1  0  0  0  0
 12 13  2  0  0  0  0
 12 14  1  0  0  0  0
 14 15  1  0  0  0  0
 14 16  1  0  0  0  0
 15 36  1  0  0  0  0
 15 37  1  0  0  0  0
 15 38  1  0  0  0  0
 16 17  1  0  0  0  0
 16 18  1  0  0  0  0
 16 39  1  0  0  0  0
 17 40  1  0  0  0  0
 17 41  1  0  0  0  0
 17 42  1  0  0  0  0
 18 20  1  0  0  0  0
 18 19  1  0  0  0  0
 18 43  1  0  0  0  0
 19 20  1  0  0  0  0
 19 44  1  0  0  0  0
 19 45  1  0  0  0  0
 20 46  1  0  0  0  0
 20 47  1  0  0  0  0
 21 22  2  0  0  0  0
 23 25  1  0  0  0  0
 23 24  1  0  0  0  0
 23 48  1  0  0  0  0
 24 25  1  0  0  0  0
 24 49  1  0  0  0  0
 24 50  1  0  0  0  0
 25 51  1  0  0  0  0
 25 52  1  0  0  0  0
M  END
> <s_m_source_file>
AV-unprocessed.smi

> <i_m_source_file_index>
2862

> <i_lp_mmshare_version>
43012

> <i_f3d_flags>
0

> <s_epik_input>
W0NIMl0xW0NIMl1bQ0hdMVtDQEhdKFtDSDNdKVtOSF1DKD1PKVtDSDJdbjJbY0hdW2NIXVtjSF1jKGMyPU8pQyg9TylOKFtDSDNdKVtDQEhdKFtDSDNdKVtDSF0zW0NIMl1bQ0gyXTM=

> <s_epik_cmdline>
J2VwaWtfcHl0aG9uJywgJy1waCcsICc3LjAnLCAnLXRuJywgJzgnLCAnLW1hJywgJzIwMCcsICctbWV0YWxfYmluZGluZycsICctaW1hZScsICc8aW5maWxlLm1hZT4nLCAnLW9tYWUnLCAnPG91dGZpbGUubWFlPic=

> <r_lp_tautomer_probability>
1

> <r_epik_Ionization_Penalty>
4.00841e-08

> <r_epik_Ionization_Penalty_Charging>
2.07773e-08

> <r_epik_Ionization_Penalty_Neutral>
1.93069e-08

> <r_epik_State_Penalty>
-0

> <r_epik_Charging_Adjusted_Penalty>
2.07773e-08

> <i_epik_Tot_Q>
0

> <i_epik_Tot_abs_Q>
0

> <r_epik_Metal_State_Penalty>
-0

> <b_epik_Metal_Only>
0

> <s_lp_Force_Field>
OPLS_2005

> <r_lp_Energy>
63.2381

> <b_lp_Chiralities_Consistent>
1

> <s_lp_Variant>
AV-unprocessed.smi:2862-1

> <Gold.Version>
5.8.1

> <Gold.Id.Protein>
6NUR|6NUR_protein|mol2

> <Gold.PLP.Fitness>
47.8170

> <Gold.PLP.PLP>
-45.2462

> <Gold.PLP.part.hbond>
-2.0000

> <Gold.PLP.part.metal>
0.0000

> <Gold.PLP.part.buried>
-4.8052

> <Gold.PLP.part.nonpolar>
-39.4694

> <Gold.PLP.part.repulsive>
0.0946

> <Gold.PLP.ligand.clash>
1.1158

> <Gold.PLP.ligand.torsion>
3.4651

> <Gold.PLP.Chemscore.Hbond>
1.9337

> <Gold.PLP.Chemscore.CHOScore>
0.0000

> <Gold.PLP.Chemscore.Metal>
0.0000

> <Gold.Chemscore.Hbonds>
donor molecule, donor type, donor heavy atom, donor atom, acceptor molecule, acceptor atom, score
      P1  H  6896  6907       L1    13  0.90
      P1  H  6896  6908       L1    22  1.00

> <Gold.PLP.Chemscore.Internal.Correction>
4.8160

> <Gold.Rescore>
     Score         DG    S(hbond)    S(metal)    S(lipo)     H(rot)  DE(clash)    DE(int)     intcor
     16.34     -19.84       1.71        0.00     111.76       1.73       0.05       3.45       ----

> <Gold.Chemscore.Fitness>
16.3358

> <Gold.Chemscore.DG>
-19.8385

> <Gold.Chemscore.ZeroCoef>
-5.4800

> <Gold.Chemscore.Hbond>
1.7137

> <Gold.Chemscore.Metal>
0.0000

> <Gold.Chemscore.Lipo>
111.7591

> <Gold.Chemscore.Internal_Hbond>
0.0000

> <Gold.Chemscore.DEClash>
0.0515

> <Gold.Chemscore.DEInternal>
3.4513

> <Gold.Chemscore.Rot>
1.7348

> <Gold.Chemscore.Internal.Correction>
   9.000000E+99

> <Gold.Chemscore.Hbonds>
donor molecule, donor type, donor heavy atom, donor atom, acceptor molecule, acceptor atom, score
      P1  H  6896  6907       L1    13  0.17
      P1  H  6896  6908       L1    22  0.83

> <Gold.Chemscore.Hbond.Weighted>
-5.7239

> <Gold.Chemscore.Metal.Weighted>
-0.0000

> <Gold.Chemscore.Lipo.Weighted>
-13.0758

> <Gold.Chemscore.Internal_Hbond.Weighted>
0.0000

> <Gold.Chemscore.DEClash.Weighted>
0.0515

> <Gold.Chemscore.DEInternal.Weighted>
3.4513

> <Gold.Chemscore.Rot.Weighted>
4.4412

> <Gold.Chemscore.Internal.Correction.Weighted>
   9.000000E+99

> <Gold.Protein.RotatedTorsions>
[ 6907 6896 6895 6894 ] final -123.59 input  -60.11 | X-H torsion
[ 7974 7965 7964 7962 ] final   65.60 input  175.53 | X-H torsion
[ 8008 7997 7996 7995 ] final   80.70 input   59.86 | X-H torsion
[ 10167 10162 10161 10158 ] final  -17.57 input  -65.29 | X-H torsion
[ 10718 10713 10712 10709 ] final  103.45 input   66.30 | X-H torsion
[ 10763 10752 10751 10750 ] final -141.66 input  -60.55 | X-H torsion
[ 11005 11000 10999 10996 ] final -143.03 input  -57.11 | X-H torsion

> <Gold.Protein.ActiveResidues>
 VAL166  LYS551  ARG553  GLY616  TRP617  ASP618  TYR619  PRO620  LYS621  CYS622 
 ASP623  PHE694  ASN695  SER759  ASP760  ASP761  ALA762  ILE779  LEU786  VAL792 
 PHE793  MET794  SER795  GLU796  ALA797  LYS798  CYS799  TRP800  GLU811  SER814 

> <Gold.Protein.RotatedAtoms>
  150.8686  133.7539  159.2968 H   0  0  0  0  0  0  0  0  0  0  0  0  # atno 6907 bound_to 6896
  151.5158  135.1064  159.9875 H   0  0  0  0  0  0  0  0  0  0  0  0  # atno 6908 bound_to 6896
  152.4679  133.7918  159.6962 H   0  0  0  0  0  0  0  0  0  0  0  0  # atno 6909 bound_to 6896
  145.8366  139.3170  143.0956 H   0  0  0  0  0  0  0  0  0  0  0  0  # atno 7974 bound_to 7965
  155.8871  140.3441  155.5929 H   0  0  0  0  0  0  0  0  0  0  0  0  # atno 8008 bound_to 7997
  155.7653  140.0838  157.2154 H   0  0  0  0  0  0  0  0  0  0  0  0  # atno 8009 bound_to 7997
  154.4030  140.1528  156.2867 H   0  0  0  0  0  0  0  0  0  0  0  0  # atno 8010 bound_to 7997
  140.7248  143.5003  150.9878 H   0  0  0  0  0  0  0  0  0  0  0  0  # atno 10167 bound_to 10162
  157.6772  131.0779  150.5557 H   0  0  0  0  0  0  0  0  0  0  0  0  # atno 10718 bound_to 10713
  154.8537  135.3518  154.5904 H   0  0  0  0  0  0  0  0  0  0  0  0  # atno 10763 bound_to 10752
  153.6514  135.6994  153.5212 H   0  0  0  0  0  0  0  0  0  0  0  0  # atno 10764 bound_to 10752
  153.2891  135.4240  155.1108 H   0  0  0  0  0  0  0  0  0  0  0  0  # atno 10765 bound_to 10752
  140.8166  134.2681  157.4918 H   0  0  0  0  0  0  0  0  0  0  0  0  # atno 11005 bound_to 11000
  145.9512  140.8907  143.0258 LP  0  0  0  0  0  0  0  0  0  0  0  0  # atno 17320 bound_to 7965
  144.6736  140.1683  143.7416 LP  0  0  0  0  0  0  0  0  0  0  0  0  # atno 17321 bound_to 7965
  139.8712  143.7190  152.3166 LP  0  0  0  0  0  0  0  0  0  0  0  0  # atno 17342 bound_to 10162
  139.7440  144.7552  151.0609 LP  0  0  0  0  0  0  0  0  0  0  0  0  # atno 17343 bound_to 10162
  156.5861  130.4317  149.5956 LP  0  0  0  0  0  0  0  0  0  0  0  0  # atno 17370 bound_to 10713
  156.2621  130.6968  151.1740 LP  0  0  0  0  0  0  0  0  0  0  0  0  # atno 17371 bound_to 10713
  139.8711  134.9512  156.4079 LP  0  0  0  0  0  0  0  0  0  0  0  0  # atno 17394 bound_to 11000
  140.9142  133.7690  155.9828 LP  0  0  0  0  0  0  0  0  0  0  0  0  # atno 17395 bound_to 11000

$$$$
