AV-unprocessed.smi:3302|AV-procd|sdf|12656|dock6
  -GOLD-   2272018593D 1   1.00000     0.00000
 Structure written by MMmdl.
 35 36  0  0  0  0  0  0  0  0  1 V2000
  151.2718  140.5521  155.5082 O   0  0  0  0  0  0  0  0  0  0  0  0
  150.5810  141.4765  155.9362 C   0  0  0  0  0  0  0  0  0  0  0  0
  151.2004  142.4897  156.9004 C   0  0  0  0  0  0  0  0  0  0  0  0
  151.6833  141.8140  158.0552 O   0  0  0  0  0  0  0  0  0  0  0  0
  152.3217  142.6544  159.0069 C   0  0  0  0  0  0  0  0  0  0  0  0
  152.7404  141.8447  160.2520 C   0  0  0  0  0  0  0  0  0  0  0  0
  153.3037  142.7600  161.3511 C   0  0  0  0  0  0  0  0  0  0  0  0
  152.3008  143.8621  161.7272 C   0  0  0  0  0  0  0  0  0  0  0  0
  151.8773  144.6722  160.4917 C   0  0  0  0  0  0  0  0  0  0  0  0
  151.3179  143.7558  159.3911 C   0  0  0  0  0  0  0  0  0  0  0  0
  149.3020  141.6903  155.5773 N   0  0  0  0  0  0  0  0  0  0  0  0
  148.5076  140.8924  154.7152 C   0  0  0  0  0  0  0  0  0  0  0  0
  148.9280  139.5725  154.4520 C   0  0  0  0  0  0  0  0  0  0  0  0
  148.1600  138.7798  153.5756 C   0  0  0  0  0  0  0  0  0  0  0  0
  147.0442  139.2234  152.9587 N   0  0  0  0  0  0  0  0  0  0  0  0
  146.6585  140.4960  153.1928 C   0  0  0  0  0  0  0  0  0  0  0  0
  147.3534  141.3736  154.0495 C   0  0  0  0  0  0  0  0  0  0  0  0
  146.9267  142.6515  154.1917 F   0  0  0  0  0  0  0  0  0  0  0  0
  152.0056  143.0190  156.3905 H   0  0  0  0  0  0  0  0  0  0  0  0
  150.4425  143.2229  157.1792 H   0  0  0  0  0  0  0  0  0  0  0  0
  153.1978  143.1285  158.5597 H   0  0  0  0  0  0  0  0  0  0  0  0
  151.8788  141.2996  160.6395 H   0  0  0  0  0  0  0  0  0  0  0  0
  153.4877  141.0954  159.9924 H   0  0  0  0  0  0  0  0  0  0  0  0
  153.5557  142.1701  162.2328 H   0  0  0  0  0  0  0  0  0  0  0  0
  154.2336  143.2140  161.0066 H   0  0  0  0  0  0  0  0  0  0  0  0
  151.4206  143.4129  162.1891 H   0  0  0  0  0  0  0  0  0  0  0  0
  152.7383  144.5244  162.4749 H   0  0  0  0  0  0  0  0  0  0  0  0
  151.1292  145.4140  160.7728 H   0  0  0  0  0  0  0  0  0  0  0  0
  152.7339  145.2266  160.1063 H   0  0  0  0  0  0  0  0  0  0  0  0
  151.0631  144.3485  158.5120 H   0  0  0  0  0  0  0  0  0  0  0  0
  150.3887  143.3005  159.7365 H   0  0  0  0  0  0  0  0  0  0  0  0
  148.8896  142.5585  155.8865 H   0  0  0  0  0  0  0  0  0  0  0  0
  149.8156  139.1687  154.9169 H   0  0  0  0  0  0  0  0  0  0  0  0
  148.4524  137.7626  153.3616 H   0  0  0  0  0  0  0  0  0  0  0  0
  145.7752  140.8309  152.6694 H   0  0  0  0  0  0  0  0  0  0  0  0
  1  2  2  0  0  0  0
  2  3  1  0  0  0  0
  2 11  1  0  0  0  0
  3  4  1  0  0  0  0
  3 19  1  0  0  0  0
  3 20  1  0  0  0  0
  4  5  1  0  0  0  0
  5 10  1  0  0  0  0
  5  6  1  0  0  0  0
  5 21  1  0  0  0  0
  6  7  1  0  0  0  0
  6 22  1  0  0  0  0
  6 23  1  0  0  0  0
  7  8  1  0  0  0  0
  7 24  1  0  0  0  0
  7 25  1  0  0  0  0
  8  9  1  0  0  0  0
  8 26  1  0  0  0  0
  8 27  1  0  0  0  0
  9 10  1  0  0  0  0
  9 28  1  0  0  0  0
  9 29  1  0  0  0  0
 10 30  1  0  0  0  0
 10 31  1  0  0  0  0
 11 12  1  0  0  0  0
 11 32  1  0  0  0  0
 12 17  1  0  0  0  0
 12 13  2  0  0  0  0
 13 14  1  0  0  0  0
 13 33  1  0  0  0  0
 14 15  2  0  0  0  0
 14 34  1  0  0  0  0
 15 16  1  0  0  0  0
 16 17  2  0  0  0  0
 16 35  1  0  0  0  0
 17 18  1  0  0  0  0
M  END
> <s_m_source_file>
AV-unprocessed.smi

> <i_m_source_file_index>
3302

> <i_lp_mmshare_version>
43012

> <i_f3d_flags>
0

> <s_epik_input>
RmMxW2NIXW5bY0hdW2NIXWMxW05IXUMoPU8pW0NIMl1PW0NIXTJbQ0gyXVtDSDJdW0NIMl1bQ0gyXVtDSDJdMg==

> <s_epik_cmdline>
J2VwaWtfcHl0aG9uJywgJy1waCcsICc3LjAnLCAnLXRuJywgJzgnLCAnLW1hJywgJzIwMCcsICctbWV0YWxfYmluZGluZycsICctaW1hZScsICc8aW5maWxlLm1hZT4nLCAnLW9tYWUnLCAnPG91dGZpbGUubWFlPic=

> <r_lp_tautomer_probability>
1

> <r_epik_Ionization_Penalty>
0.000106646

> <r_epik_Ionization_Penalty_Charging>
0

> <r_epik_Ionization_Penalty_Neutral>
0.000106646

> <r_epik_State_Penalty>
-0

> <r_epik_Charging_Adjusted_Penalty>
0

> <i_epik_Tot_Q>
0

> <i_epik_Tot_abs_Q>
0

> <r_epik_Metal_State_Penalty>
-0

> <b_epik_Metal_Only>
0

> <s_lp_Force_Field>
OPLS_2005

> <r_lp_Energy>
19.2883

> <b_lp_Chiralities_Consistent>
1

> <s_lp_Variant>
AV-unprocessed.smi:3302-1

> <Gold.Version>
5.8.1

> <Gold.Id.Protein>
6NUR|6NUR_protein|mol2

> <Gold.PLP.Fitness>
50.3261

> <Gold.PLP.PLP>
-39.9042

> <Gold.PLP.part.hbond>
-2.0000

> <Gold.PLP.part.metal>
0.0000

> <Gold.PLP.part.buried>
-2.1180

> <Gold.PLP.part.nonpolar>
-36.3048

> <Gold.PLP.part.repulsive>
0.5589

> <Gold.PLP.ligand.clash>
0.0000

> <Gold.PLP.ligand.torsion>
0.0963

> <Gold.PLP.Chemscore.Hbond>
1.6410

> <Gold.PLP.Chemscore.CHOScore>
1.8401

> <Gold.PLP.Chemscore.Metal>
0.0000

> <Gold.Chemscore.Hbonds>
donor molecule, donor type, donor heavy atom, donor atom, acceptor molecule, acceptor atom, score
      L1  H    11    32       P1  8028  0.59
      P1  H  7989  7998       L1     1  0.80
      L1  C    14    34       P1  7948  1.00
      L1  C    16    35       P1 10175  1.00

> <Gold.PLP.Chemscore.Internal.Correction>
0.1711

> <Gold.Rescore>
     Score         DG    S(hbond)    S(metal)    S(lipo)     H(rot)  DE(clash)    DE(int)     intcor
     17.48     -20.19       1.61        0.00     110.87       1.42       1.16       1.55       ----

> <Gold.Chemscore.Fitness>
17.4812

> <Gold.Chemscore.DG>
-20.1870

> <Gold.Chemscore.ZeroCoef>
-5.4800

> <Gold.Chemscore.Hbond>
1.6113

> <Gold.Chemscore.Metal>
0.0000

> <Gold.Chemscore.Lipo>
110.8707

> <Gold.Chemscore.Internal_Hbond>
0.0000

> <Gold.Chemscore.DEClash>
1.1594

> <Gold.Chemscore.DEInternal>
1.5464

> <Gold.Chemscore.Rot>
1.4245

> <Gold.Chemscore.Internal.Correction>
   9.000000E+99

> <Gold.Chemscore.Hbonds>
donor molecule, donor type, donor heavy atom, donor atom, acceptor molecule, acceptor atom, score
      L1  H    11    32       P1  8028  0.58
      P1  H  7989  7998       L1     1  0.49

> <Gold.Chemscore.Hbond.Weighted>
-5.3819

> <Gold.Chemscore.Metal.Weighted>
-0.0000

> <Gold.Chemscore.Lipo.Weighted>
-12.9719

> <Gold.Chemscore.Internal_Hbond.Weighted>
0.0000

> <Gold.Chemscore.DEClash.Weighted>
1.1594

> <Gold.Chemscore.DEInternal.Weighted>
1.5464

> <Gold.Chemscore.Rot.Weighted>
3.6468

> <Gold.Chemscore.Internal.Correction.Weighted>
   9.000000E+99

> <Gold.Protein.RotatedTorsions>
[ 6907 6896 6895 6894 ] final  -19.49 input  -60.11 | X-H torsion
[ 7974 7965 7964 7962 ] final  -78.98 input  175.53 | X-H torsion
[ 8008 7997 7996 7995 ] final  135.25 input   59.86 | X-H torsion
[ 10167 10162 10161 10158 ] final  178.51 input  -65.29 | X-H torsion
[ 10718 10713 10712 10709 ] final   -6.42 input   66.30 | X-H torsion
[ 10763 10752 10751 10750 ] final  -66.61 input  -60.55 | X-H torsion
[ 11005 11000 10999 10996 ] final   58.25 input  -57.11 | X-H torsion

> <Gold.Protein.ActiveResidues>
 VAL166  LYS551  ARG553  GLY616  TRP617  ASP618  TYR619  PRO620  LYS621  CYS622 
 ASP623  PHE694  ASN695  SER759  ASP760  ASP761  ALA762  ILE779  LEU786  VAL792 
 PHE793  MET794  SER795  GLU796  ALA797  LYS798  CYS799  TRP800  GLU811  SER814 

> <Gold.Protein.RotatedAtoms>
  151.2623  135.0658  159.9102 H   0  0  0  0  0  0  0  0  0  0  0  0  # atno 6907 bound_to 6896
  152.5364  134.0218  159.7995 H   0  0  0  0  0  0  0  0  0  0  0  0  # atno 6908 bound_to 6896
  151.0443  133.5629  159.2679 H   0  0  0  0  0  0  0  0  0  0  0  0  # atno 6909 bound_to 6896
  145.5792  140.9451  143.1353 H   0  0  0  0  0  0  0  0  0  0  0  0  # atno 7974 bound_to 7965
  156.3002  140.2475  156.3551 H   0  0  0  0  0  0  0  0  0  0  0  0  # atno 8008 bound_to 7997
  154.8930  140.0408  157.1868 H   0  0  0  0  0  0  0  0  0  0  0  0  # atno 8009 bound_to 7997
  154.8579  140.2916  155.5561 H   0  0  0  0  0  0  0  0  0  0  0  0  # atno 8010 bound_to 7997
  139.5297  144.2672  152.0658 H   0  0  0  0  0  0  0  0  0  0  0  0  # atno 10167 bound_to 10162
  156.7322  130.5183  149.5843 H   0  0  0  0  0  0  0  0  0  0  0  0  # atno 10718 bound_to 10713
  154.3624  135.6113  153.5697 H   0  0  0  0  0  0  0  0  0  0  0  0  # atno 10763 bound_to 10752
  152.9793  135.5818  154.4617 H   0  0  0  0  0  0  0  0  0  0  0  0  # atno 10764 bound_to 10752
  154.4357  135.2849  155.1859 H   0  0  0  0  0  0  0  0  0  0  0  0  # atno 10765 bound_to 10752
  140.0391  134.5899  155.9405 H   0  0  0  0  0  0  0  0  0  0  0  0  # atno 11005 bound_to 11000
  144.7401  139.7472  143.7314 LP  0  0  0  0  0  0  0  0  0  0  0  0  # atno 17320 bound_to 7965
  146.1728  139.4886  142.9916 LP  0  0  0  0  0  0  0  0  0  0  0  0  # atno 17321 bound_to 7965
  140.2133  144.4540  150.6375 LP  0  0  0  0  0  0  0  0  0  0  0  0  # atno 17342 bound_to 10162
  140.6466  143.2215  151.6172 LP  0  0  0  0  0  0  0  0  0  0  0  0  # atno 17343 bound_to 10162
  156.1521  130.6317  151.0610 LP  0  0  0  0  0  0  0  0  0  0  0  0  # atno 17370 bound_to 10713
  157.6854  131.0826  150.7257 LP  0  0  0  0  0  0  0  0  0  0  0  0  # atno 17371 bound_to 10713
  141.1873  133.6559  156.5278 LP  0  0  0  0  0  0  0  0  0  0  0  0  # atno 17394 bound_to 11000
  140.4098  134.7282  157.4829 LP  0  0  0  0  0  0  0  0  0  0  0  0  # atno 17395 bound_to 11000

$$$$
