AV-unprocessed.smi:48|AV-procd|sdf|451|dock9
  -GOLD-   2262016323D 1   1.00000     0.00000
 Structure written by MMmdl.
 30 32  0  0  0  0  0  0  0  0  1 V2000
  145.7512  142.4957  155.8172 O   0  0  0  0  0  0  0  0  0  0  0  0
  145.7518  142.6494  154.4140 C   0  0  0  0  0  0  0  0  0  0  0  0
  146.9080  141.8489  153.7951 C   0  0  1  0  0  0  0  0  0  0  0  0
  148.1381  142.2555  154.3774 O   0  0  0  0  0  0  0  0  0  0  0  0
  149.0728  141.2291  154.2674 C   0  0  1  0  0  0  0  0  0  0  0  0
  149.8447  141.1888  155.5498 N   0  0  0  0  0  0  0  0  0  0  0  0
  149.5938  141.8750  156.6832 C   0  0  0  0  0  0  0  0  0  0  0  0
  150.4163  141.6800  157.7133 N   0  0  0  0  0  0  0  0  0  0  0  0
  151.3016  140.7526  157.1887 C   0  0  0  0  0  0  0  0  0  0  0  0
  152.4348  140.0955  157.7269 C   0  0  0  0  0  0  0  0  0  0  0  0
  152.9516  140.3972  159.3453 Cl  0  0  0  0  0  0  0  0  0  0  0  0
  153.1072  139.2207  156.9411 N   0  0  0  0  0  0  0  0  0  0  0  0
  152.6842  139.0043  155.6895 C   0  0  0  0  0  0  0  0  0  0  0  0
  151.6415  139.5454  155.0494 N   0  0  0  0  0  0  0  0  0  0  0  0
  150.9652  140.4278  155.8438 C   0  0  0  0  0  0  0  0  0  0  0  0
  148.3051  139.9190  153.9786 C   0  0  1  0  0  0  0  0  0  0  0  0
  148.5993  138.8514  154.8626 O   0  0  0  0  0  0  0  0  0  0  0  0
  146.8509  140.3517  154.1122 C   0  0  2  0  0  0  0  0  0  0  0  0
  146.0418  139.6765  153.1702 O   0  0  0  0  0  0  0  0  0  0  0  0
  146.9623  141.9969  152.7142 H   0  0  0  0  0  0  0  0  0  0  0  0
  149.8132  141.4643  153.5015 H   0  0  0  0  0  0  0  0  0  0  0  0
  148.5333  139.6231  152.9533 H   0  0  0  0  0  0  0  0  0  0  0  0
  146.4829  140.1890  155.1266 H   0  0  0  0  0  0  0  0  0  0  0  0
  144.8718  142.2919  156.0966 H   0  0  0  0  0  0  0  0  0  0  0  0
  144.7912  142.3457  153.9967 H   0  0  0  0  0  0  0  0  0  0  0  0
  145.8760  143.7118  154.2023 H   0  0  0  0  0  0  0  0  0  0  0  0
  148.7615  142.5598  156.7560 H   0  0  0  0  0  0  0  0  0  0  0  0
  153.2640  138.2949  155.1178 H   0  0  0  0  0  0  0  0  0  0  0  0
  149.0503  138.1764  154.3791 H   0  0  0  0  0  0  0  0  0  0  0  0
  145.2248  140.1450  153.0901 H   0  0  0  0  0  0  0  0  0  0  0  0
  1  2  1  0  0  0  0
  1 24  1  0  0  0  0
  2  3  1  0  0  0  0
  2 25  1  0  0  0  0
  2 26  1  0  0  0  0
  3 20  1  0  0  0  0
  3 18  1  0  0  0  0
  3  4  1  0  0  0  0
  4  5  1  0  0  0  0
  5 21  1  0  0  0  0
  5  6  1  0  0  0  0
  5 16  1  0  0  0  0
  6 15  1  0  0  0  0
  6  7  1  0  0  0  0
  7  8  2  0  0  0  0
  7 27  1  0  0  0  0
  8  9  1  0  0  0  0
  9 15  2  0  0  0  0
  9 10  1  0  0  0  0
 10 11  1  0  0  0  0
 10 12  2  0  0  0  0
 12 13  1  0  0  0  0
 13 14  2  0  0  0  0
 13 28  1  0  0  0  0
 14 15  1  0  0  0  0
 16 22  1  0  0  0  0
 16 17  1  0  0  0  0
 16 18  1  0  0  0  0
 17 29  1  0  0  0  0
 18 23  1  0  0  0  0
 18 19  1  0  0  0  0
 19 30  1  0  0  0  0
M  END
> <s_m_source_file>
AV-unprocessed.smi

> <i_m_source_file_index>
48

> <i_lp_mmshare_version>
43012

> <i_f3d_flags>
0

> <s_epik_input>
W09IXVtDSDJdW0NASF0xT1tDQEhdKFtDQEhdKFtPSF0pW0NAQEhdMVtPSF0pbihbY0hdbjIpYyhjMjMpbltjSF1uYzNDbA==

> <s_epik_cmdline>
J2VwaWtfcHl0aG9uJywgJy1waCcsICc3LjAnLCAnLXRuJywgJzgnLCAnLW1hJywgJzIwMCcsICctbWV0YWxfYmluZGluZycsICctaW1hZScsICc8aW5maWxlLm1hZT4nLCAnLW9tYWUnLCAnPG91dGZpbGUubWFlPic=

> <r_lp_tautomer_probability>
1

> <r_epik_Ionization_Penalty>
3.45505e-06

> <r_epik_Ionization_Penalty_Charging>
0

> <r_epik_Ionization_Penalty_Neutral>
3.45505e-06

> <r_epik_State_Penalty>
-0

> <r_epik_Charging_Adjusted_Penalty>
0

> <i_epik_Tot_Q>
0

> <i_epik_Tot_abs_Q>
0

> <r_epik_Metal_State_Penalty>
-0

> <b_epik_Metal_Only>
0

> <s_epik_Chemistry_Notes>
This compound contains an acetal/aminal-like group ( X-CH(R)-Y where X, Y are N, S, or O) that may be acid/base labile, releasing an aldehyde.

> <s_lp_Force_Field>
OPLS_2005

> <r_lp_Energy>
37.1345

> <b_lp_Chiralities_Consistent>
1

> <s_lp_Variant>
AV-unprocessed.smi:48-5

> <Gold.Version>
5.8.1

> <Gold.Id.Protein>
6NUR|6NUR_protein|mol2

> <Gold.PLP.Fitness>
39.0152

> <Gold.PLP.PLP>
-29.0680

> <Gold.PLP.part.hbond>
-3.5986

> <Gold.PLP.part.metal>
0.0000

> <Gold.PLP.part.buried>
-0.8843

> <Gold.PLP.part.nonpolar>
-26.1646

> <Gold.PLP.part.repulsive>
1.9950

> <Gold.PLP.ligand.clash>
0.0000

> <Gold.PLP.ligand.torsion>
0.1399

> <Gold.PLP.Chemscore.Hbond>
2.6000

> <Gold.PLP.Chemscore.CHOScore>
0.8059

> <Gold.PLP.Chemscore.Metal>
0.0000

> <Gold.Chemscore.Hbonds>
donor molecule, donor type, donor heavy atom, donor atom, acceptor molecule, acceptor atom, score
      L1  H    19    30       P1 10175  1.00
      P1  H  7989  7998       L1    14  0.59
      P1  H  7997  8009       L1    12  1.00
      L1  C     7    27       P1  8028  0.81

> <Gold.PLP.Chemscore.Internal.Correction>
0.0093

> <Gold.Rescore>
     Score         DG    S(hbond)    S(metal)    S(lipo)     H(rot)  DE(clash)    DE(int)     intcor
      3.83      -5.18       1.32        0.00      42.94       3.80       0.19       1.16       ----

> <Gold.Chemscore.Fitness>
3.8285

> <Gold.Chemscore.DG>
-5.1775

> <Gold.Chemscore.ZeroCoef>
-5.4800

> <Gold.Chemscore.Hbond>
1.3190

> <Gold.Chemscore.Metal>
0.0000

> <Gold.Chemscore.Lipo>
42.9428

> <Gold.Chemscore.Internal_Hbond>
0.0000

> <Gold.Chemscore.DEClash>
0.1880

> <Gold.Chemscore.DEInternal>
1.1610

> <Gold.Chemscore.Rot>
3.8017

> <Gold.Chemscore.Internal.Correction>
   9.000000E+99

> <Gold.Chemscore.Hbonds>
donor molecule, donor type, donor heavy atom, donor atom, acceptor molecule, acceptor atom, score
      L1  H    19    30       P1 10175  0.98
      P1  H  7989  7998       L1    14  0.04
      P1  H  7997  8009       L1    12  0.06

> <Gold.Chemscore.Hbond.Weighted>
-4.4056

> <Gold.Chemscore.Metal.Weighted>
-0.0000

> <Gold.Chemscore.Lipo.Weighted>
-5.0243

> <Gold.Chemscore.Internal_Hbond.Weighted>
0.0000

> <Gold.Chemscore.DEClash.Weighted>
0.1880

> <Gold.Chemscore.DEInternal.Weighted>
1.1610

> <Gold.Chemscore.Rot.Weighted>
9.7324

> <Gold.Chemscore.Internal.Correction.Weighted>
   9.000000E+99

> <Gold.Protein.RotatedTorsions>
[ 6907 6896 6895 6894 ] final  133.45 input  -60.11 | X-H torsion
[ 7974 7965 7964 7962 ] final  166.34 input  175.53 | X-H torsion
[ 8008 7997 7996 7995 ] final  179.34 input   59.86 | X-H torsion
[ 10167 10162 10161 10158 ] final -155.11 input  -65.29 | X-H torsion
[ 10718 10713 10712 10709 ] final  156.52 input   66.30 | X-H torsion
[ 10763 10752 10751 10750 ] final  175.35 input  -60.55 | X-H torsion
[ 11005 11000 10999 10996 ] final   47.36 input  -57.11 | X-H torsion

> <Gold.Protein.ActiveResidues>
 VAL166  LYS551  ARG553  GLY616  TRP617  ASP618  TYR619  PRO620  LYS621  CYS622 
 ASP623  PHE694  ASN695  SER759  ASP760  ASP761  ALA762  ILE779  LEU786  VAL792 
 PHE793  MET794  SER795  GLU796  ALA797  LYS798  CYS799  TRP800  GLU811  SER814 

> <Gold.Protein.RotatedAtoms>
  152.3218  133.5862  159.5749 H   0  0  0  0  0  0  0  0  0  0  0  0  # atno 6907 bound_to 6896
  150.7375  133.9999  159.3643 H   0  0  0  0  0  0  0  0  0  0  0  0  # atno 6908 bound_to 6896
  151.7883  135.0743  160.0434 H   0  0  0  0  0  0  0  0  0  0  0  0  # atno 6909 bound_to 6896
  144.7466  139.8600  143.6380 H   0  0  0  0  0  0  0  0  0  0  0  0  # atno 7974 bound_to 7965
  156.0445  140.1311  157.0119 H   0  0  0  0  0  0  0  0  0  0  0  0  # atno 8008 bound_to 7997
  154.4406  140.1023  156.6355 H   0  0  0  0  0  0  0  0  0  0  0  0  # atno 8009 bound_to 7997
  155.5617  140.3465  155.4495 H   0  0  0  0  0  0  0  0  0  0  0  0  # atno 8010 bound_to 7997
  139.6958  143.9345  152.2406 H   0  0  0  0  0  0  0  0  0  0  0  0  # atno 10167 bound_to 10162
  157.2039  131.0682  151.2009 H   0  0  0  0  0  0  0  0  0  0  0  0  # atno 10718 bound_to 10713
  154.4664  135.2769  155.1675 H   0  0  0  0  0  0  0  0  0  0  0  0  # atno 10763 bound_to 10752
  154.3442  135.6163  153.5615 H   0  0  0  0  0  0  0  0  0  0  0  0  # atno 10764 bound_to 10752
  152.9860  135.5796  154.5036 H   0  0  0  0  0  0  0  0  0  0  0  0  # atno 10765 bound_to 10752
  140.1286  134.4736  155.8540 H   0  0  0  0  0  0  0  0  0  0  0  0  # atno 11005 bound_to 11000
  146.1355  139.4399  143.0142 LP  0  0  0  0  0  0  0  0  0  0  0  0  # atno 17320 bound_to 7965
  145.7098  141.0109  143.1459 LP  0  0  0  0  0  0  0  0  0  0  0  0  # atno 17321 bound_to 7965
  139.9173  144.6820  150.8498 LP  0  0  0  0  0  0  0  0  0  0  0  0  # atno 17342 bound_to 10162
  140.7696  143.3400  151.2229 LP  0  0  0  0  0  0  0  0  0  0  0  0  # atno 17343 bound_to 10162
  157.3740  130.7196  149.6584 LP  0  0  0  0  0  0  0  0  0  0  0  0  # atno 17370 bound_to 10713
  155.9697  130.4191  150.4359 LP  0  0  0  0  0  0  0  0  0  0  0  0  # atno 17371 bound_to 10713
  141.2166  133.6787  156.7025 LP  0  0  0  0  0  0  0  0  0  0  0  0  # atno 17394 bound_to 11000
  140.2872  134.8270  157.3985 LP  0  0  0  0  0  0  0  0  0  0  0  0  # atno 17395 bound_to 11000

$$$$
