AV-unprocessed.smi:225|AV-procd|sdf|1723|dock5
  -GOLD-   2262020203D 1   1.00000     0.00000
 Structure written by MMmdl.
 56 59  0  0  0  0  0  0  0  0  1 V2000
  149.3286  140.8773  153.6176 O   0  0  0  0  0  0  0  0  0  0  0  0
  149.7195  140.4049  154.8880 C   0  0  0  0  0  0  0  0  0  0  0  0
  149.8485  141.5908  155.8591 C   0  0  0  0  0  0  0  0  0  0  0  0
  149.9616  141.1702  157.2587 N   0  0  0  0  0  0  0  0  0  0  0  0
  151.2765  141.2833  157.8917 C   0  0  0  0  0  0  0  0  0  0  0  0
  151.2841  142.2123  159.1243 C   0  0  0  0  0  0  0  0  0  0  0  0
  150.5727  143.5423  158.8054 C   0  0  0  0  0  0  0  0  0  0  0  0
  150.5605  144.4869  160.0188 C   0  0  0  0  0  0  0  0  0  0  0  0
  151.9831  144.7489  160.5355 C   0  0  0  0  0  0  0  0  0  0  0  0
  152.7063  143.4313  160.8536 C   0  0  0  0  0  0  0  0  0  0  0  0
  152.7130  142.4919  159.6369 C   0  0  0  0  0  0  0  0  0  0  0  0
  149.2802  140.0588  157.6404 C   0  0  0  0  0  0  0  0  0  0  0  0
  147.9245  140.0201  157.5375 N   0  0  0  0  0  0  0  0  0  0  0  0
  147.2507  138.9251  157.9015 C   0  0  0  0  0  0  0  0  0  0  0  0
  147.7258  137.7742  158.3811 N   0  0  0  0  0  0  0  0  0  0  0  0
  149.0855  137.8045  158.4822 C   0  0  0  0  0  0  0  0  0  0  0  0
  149.9318  138.8965  158.1396 C   0  0  0  0  0  0  0  0  0  0  0  0
  151.2572  138.5645  158.3905 N   0  0  0  0  0  0  0  0  0  0  0  0
  151.1992  137.3438  158.8477 C   0  0  0  0  0  0  0  0  0  0  0  0
  149.9344  136.8062  158.9274 N   0  0  0  0  0  0  0  0  0  0  0  0
  149.5797  135.4741  159.3915 C   0  0  0  0  0  0  0  0  0  0  0  0
  148.8921  135.4695  160.7768 C   0  0  1  0  0  0  0  0  0  0  0  0
  149.6362  136.2836  161.6664 O   0  0  0  0  0  0  0  0  0  0  0  0
  147.4488  135.9680  160.7584 C   0  0  0  0  0  0  0  0  0  0  0  0
  146.7869  135.1392  161.8501 C   0  0  0  0  0  0  0  0  0  0  0  0
  147.3862  133.8676  161.6722 O   0  0  0  0  0  0  0  0  0  0  0  0
  148.7684  134.0603  161.3908 C   0  0  0  0  0  0  0  0  0  0  0  0
  149.1866  140.1339  153.0517 H   0  0  0  0  0  0  0  0  0  0  0  0
  148.9731  139.6961  155.2479 H   0  0  0  0  0  0  0  0  0  0  0  0
  150.6602  139.8642  154.7843 H   0  0  0  0  0  0  0  0  0  0  0  0
  150.7056  142.2093  155.5891 H   0  0  0  0  0  0  0  0  0  0  0  0
  148.9759  142.2326  155.7443 H   0  0  0  0  0  0  0  0  0  0  0  0
  151.6646  140.3044  158.1777 H   0  0  0  0  0  0  0  0  0  0  0  0
  151.9703  141.6700  157.1441 H   0  0  0  0  0  0  0  0  0  0  0  0
  150.7255  141.7344  159.9289 H   0  0  0  0  0  0  0  0  0  0  0  0
  151.0685  144.0348  157.9676 H   0  0  0  0  0  0  0  0  0  0  0  0
  149.5480  143.3495  158.4859 H   0  0  0  0  0  0  0  0  0  0  0  0
  150.0833  145.4299  159.7509 H   0  0  0  0  0  0  0  0  0  0  0  0
  149.9569  144.0506  160.8155 H   0  0  0  0  0  0  0  0  0  0  0  0
  152.5476  145.3044  159.7854 H   0  0  0  0  0  0  0  0  0  0  0  0
  151.9468  145.3786  161.4249 H   0  0  0  0  0  0  0  0  0  0  0  0
  153.7293  143.6363  161.1699 H   0  0  0  0  0  0  0  0  0  0  0  0
  152.2160  142.9377  161.6935 H   0  0  0  0  0  0  0  0  0  0  0  0
  153.2072  141.5581  159.9067 H   0  0  0  0  0  0  0  0  0  0  0  0
  153.3089  142.9386  158.8400 H   0  0  0  0  0  0  0  0  0  0  0  0
  146.1777  138.9782  157.7911 H   0  0  0  0  0  0  0  0  0  0  0  0
  152.0849  136.7979  159.1379 H   0  0  0  0  0  0  0  0  0  0  0  0
  148.9254  135.0196  158.6465 H   0  0  0  0  0  0  0  0  0  0  0  0
  150.4838  134.8639  159.4158 H   0  0  0  0  0  0  0  0  0  0  0  0
  149.8305  135.7805  162.4423 H   0  0  0  0  0  0  0  0  0  0  0  0
  147.3503  137.0435  160.9132 H   0  0  0  0  0  0  0  0  0  0  0  0
  146.9774  135.7257  159.8051 H   0  0  0  0  0  0  0  0  0  0  0  0
  147.0275  135.5272  162.8411 H   0  0  0  0  0  0  0  0  0  0  0  0
  145.7026  135.0926  161.7484 H   0  0  0  0  0  0  0  0  0  0  0  0
  149.1098  133.2777  160.7126 H   0  0  0  0  0  0  0  0  0  0  0  0
  149.3420  133.9637  162.3142 H   0  0  0  0  0  0  0  0  0  0  0  0
  1  2  1  0  0  0  0
  1 28  1  0  0  0  0
  2  3  1  0  0  0  0
  2 29  1  0  0  0  0
  2 30  1  0  0  0  0
  3  4  1  0  0  0  0
  3 31  1  0  0  0  0
  3 32  1  0  0  0  0
  4  5  1  0  0  0  0
  4 12  1  0  0  0  0
  5  6  1  0  0  0  0
  5 33  1  0  0  0  0
  5 34  1  0  0  0  0
  6 11  1  0  0  0  0
  6  7  1  0  0  0  0
  6 35  1  0  0  0  0
  7  8  1  0  0  0  0
  7 36  1  0  0  0  0
  7 37  1  0  0  0  0
  8  9  1  0  0  0  0
  8 38  1  0  0  0  0
  8 39  1  0  0  0  0
  9 10  1  0  0  0  0
  9 40  1  0  0  0  0
  9 41  1  0  0  0  0
 10 11  1  0  0  0  0
 10 42  1  0  0  0  0
 10 43  1  0  0  0  0
 11 44  1  0  0  0  0
 11 45  1  0  0  0  0
 12 17  1  0  0  0  0
 12 13  2  0  0  0  0
 13 14  1  0  0  0  0
 14 15  2  0  0  0  0
 14 46  1  0  0  0  0
 15 16  1  0  0  0  0
 16 20  1  0  0  0  0
 16 17  2  0  0  0  0
 17 18  1  0  0  0  0
 18 19  2  0  0  0  0
 19 20  1  0  0  0  0
 19 47  1  0  0  0  0
 20 21  1  0  0  0  0
 21 22  1  0  0  0  0
 21 48  1  0  0  0  0
 21 49  1  0  0  0  0
 22 27  1  0  0  0  0
 22 23  1  0  0  0  0
 22 24  1  0  0  0  0
 23 50  1  0  0  0  0
 24 25  1  0  0  0  0
 24 51  1  0  0  0  0
 24 52  1  0  0  0  0
 25 26  1  0  0  0  0
 25 53  1  0  0  0  0
 25 54  1  0  0  0  0
 26 27  1  0  0  0  0
 27 55  1  0  0  0  0
 27 56  1  0  0  0  0
M  END
> <s_m_source_file>
AV-unprocessed.smi

> <i_m_source_file_index>
225

> <i_lp_mmshare_version>
43012

> <i_f3d_flags>
0

> <s_epik_input>
W0NIMl0xW0NIMl1bQ0gyXVtDSDJdW0NIMl1bQ0hdMVtDSDJdTihbQ0gyXVtDSDJdW09IXSljKG5bY0hdbjIpYyhjMjMpbltjSF1uM1tDSDJdW0NAQF00KFtPSF0pW0NIMl1bQ0gyXU9bQ0gyXTQ=

> <s_epik_cmdline>
J2VwaWtfcHl0aG9uJywgJy1waCcsICc3LjAnLCAnLXRuJywgJzgnLCAnLW1hJywgJzIwMCcsICctbWV0YWxfYmluZGluZycsICctaW1hZScsICc8aW5maWxlLm1hZT4nLCAnLW9tYWUnLCAnPG91dGZpbGUubWFlPic=

> <r_lp_tautomer_probability>
1

> <r_epik_Ionization_Penalty>
0.00405109

> <r_epik_Ionization_Penalty_Charging>
0

> <r_epik_Ionization_Penalty_Neutral>
0.00405109

> <r_epik_State_Penalty>
0.00270467

> <r_epik_Charging_Adjusted_Penalty>
0.00270467

> <i_epik_Tot_Q>
0

> <i_epik_Tot_abs_Q>
0

> <r_epik_Metal_State_Penalty>
-0

> <b_epik_Metal_Only>
0

> <s_lp_Force_Field>
OPLS_2005

> <r_lp_Energy>
35.3167

> <b_lp_Chiralities_Consistent>
1

> <s_lp_Variant>
AV-unprocessed.smi:225-1

> <Gold.Version>
5.8.1

> <Gold.Id.Protein>
6NUR|6NUR_protein|mol2

> <Gold.PLP.Fitness>
50.1621

> <Gold.PLP.PLP>
-45.2678

> <Gold.PLP.part.hbond>
-4.3063

> <Gold.PLP.part.metal>
0.0000

> <Gold.PLP.part.buried>
-6.9070

> <Gold.PLP.part.nonpolar>
-34.7465

> <Gold.PLP.part.repulsive>
0.0697

> <Gold.PLP.ligand.clash>
0.0000

> <Gold.PLP.ligand.torsion>
1.7873

> <Gold.PLP.Chemscore.Hbond>
2.5028

> <Gold.PLP.Chemscore.CHOScore>
0.0000

> <Gold.PLP.Chemscore.Metal>
0.0000

> <Gold.Chemscore.Hbonds>
donor molecule, donor type, donor heavy atom, donor atom, acceptor molecule, acceptor atom, score
      L1  H     1    28       P1  7957  0.51
      P1  H  6931  6943       L1    23  0.83
      P1  H  8011  8017       L1     1  0.94

> <Gold.PLP.Chemscore.Internal.Correction>
0.9606

> <Gold.Rescore>
     Score         DG    S(hbond)    S(metal)    S(lipo)     H(rot)  DE(clash)    DE(int)     intcor
     12.41     -16.00       2.10        0.00     112.48       3.76       0.05       3.53       ----

> <Gold.Chemscore.Fitness>
12.4139

> <Gold.Chemscore.DG>
-16.0018

> <Gold.Chemscore.ZeroCoef>
-5.4800

> <Gold.Chemscore.Hbond>
2.0952

> <Gold.Chemscore.Metal>
0.0000

> <Gold.Chemscore.Lipo>
112.4831

> <Gold.Chemscore.Internal_Hbond>
0.0000

> <Gold.Chemscore.DEClash>
0.0533

> <Gold.Chemscore.DEInternal>
3.5346

> <Gold.Chemscore.Rot>
3.7644

> <Gold.Chemscore.Internal.Correction>
   9.000000E+99

> <Gold.Chemscore.Hbonds>
donor molecule, donor type, donor heavy atom, donor atom, acceptor molecule, acceptor atom, score
      L1  H     1    28       P1  7957  0.52
      P1  H  6931  6943       L1    23  0.70
      P1  H  8011  8017       L1     1  0.39

> <Gold.Chemscore.Hbond.Weighted>
-6.9981

> <Gold.Chemscore.Metal.Weighted>
-0.0000

> <Gold.Chemscore.Lipo.Weighted>
-13.1605

> <Gold.Chemscore.Internal_Hbond.Weighted>
0.0000

> <Gold.Chemscore.DEClash.Weighted>
0.0533

> <Gold.Chemscore.DEInternal.Weighted>
3.5346

> <Gold.Chemscore.Rot.Weighted>
9.6369

> <Gold.Chemscore.Internal.Correction.Weighted>
   9.000000E+99

> <Gold.Protein.RotatedTorsions>
[ 6907 6896 6895 6894 ] final  -96.34 input  -60.11 | X-H torsion
[ 7974 7965 7964 7962 ] final  -60.72 input  175.53 | X-H torsion
[ 8008 7997 7996 7995 ] final   -7.14 input   59.86 | X-H torsion
[ 10167 10162 10161 10158 ] final -155.01 input  -65.29 | X-H torsion
[ 10718 10713 10712 10709 ] final   75.82 input   66.30 | X-H torsion
[ 10763 10752 10751 10750 ] final   18.49 input  -60.55 | X-H torsion
[ 11005 11000 10999 10996 ] final -131.16 input  -57.11 | X-H torsion

> <Gold.Protein.ActiveResidues>
 VAL166  LYS551  ARG553  GLY616  TRP617  ASP618  TYR619  PRO620  LYS621  CYS622 
 ASP623  PHE694  ASN695  SER759  ASP760  ASP761  ALA762  ILE779  LEU786  VAL792 
 PHE793  MET794  SER795  GLU796  ALA797  LYS798  CYS799  TRP800  GLU811  SER814 

> <Gold.Protein.RotatedAtoms>
  150.6986  134.1518  159.4143 H   0  0  0  0  0  0  0  0  0  0  0  0  # atno 6907 bound_to 6896
  151.9501  135.0171  160.0550 H   0  0  0  0  0  0  0  0  0  0  0  0  # atno 6908 bound_to 6896
  152.2019  133.4812  159.5100 H   0  0  0  0  0  0  0  0  0  0  0  0  # atno 6909 bound_to 6896
  145.8121  140.8592  143.0177 H   0  0  0  0  0  0  0  0  0  0  0  0  # atno 7974 bound_to 7965
  154.5868  140.2415  155.7976 H   0  0  0  0  0  0  0  0  0  0  0  0  # atno 8008 bound_to 7997
  156.2219  140.2995  155.9928 H   0  0  0  0  0  0  0  0  0  0  0  0  # atno 8009 bound_to 7997
  155.2444  140.0408  157.2969 H   0  0  0  0  0  0  0  0  0  0  0  0  # atno 8010 bound_to 7997
  139.6966  143.9331  152.2410 H   0  0  0  0  0  0  0  0  0  0  0  0  # atno 10167 bound_to 10162
  157.6649  130.9745  150.1408 H   0  0  0  0  0  0  0  0  0  0  0  0  # atno 10718 bound_to 10713
  153.1244  135.6726  153.9281 H   0  0  0  0  0  0  0  0  0  0  0  0  # atno 10763 bound_to 10752
  153.8786  135.3061  155.3446 H   0  0  0  0  0  0  0  0  0  0  0  0  # atno 10764 bound_to 10752
  154.7652  135.4968  153.9620 H   0  0  0  0  0  0  0  0  0  0  0  0  # atno 10765 bound_to 10752
  140.9283  134.1353  157.4256 H   0  0  0  0  0  0  0  0  0  0  0  0  # atno 11005 bound_to 11000
  144.6756  140.0410  143.7481 LP  0  0  0  0  0  0  0  0  0  0  0  0  # atno 17320 bound_to 7965
  145.9766  139.2910  143.1067 LP  0  0  0  0  0  0  0  0  0  0  0  0  # atno 17321 bound_to 7965
  139.9162  144.6827  150.8509 LP  0  0  0  0  0  0  0  0  0  0  0  0  # atno 17342 bound_to 10162
  140.7698  143.3407  151.2213 LP  0  0  0  0  0  0  0  0  0  0  0  0  # atno 17343 bound_to 10162
  156.2231  130.3675  149.8532 LP  0  0  0  0  0  0  0  0  0  0  0  0  # atno 17370 bound_to 10713
  156.6380  130.8693  151.3508 LP  0  0  0  0  0  0  0  0  0  0  0  0  # atno 17371 bound_to 10713
  139.8790  134.9996  156.5963 LP  0  0  0  0  0  0  0  0  0  0  0  0  # atno 17394 bound_to 11000
  140.7897  133.8593  155.8635 LP  0  0  0  0  0  0  0  0  0  0  0  0  # atno 17395 bound_to 11000

$$$$
