AV-unprocessed.smi:3338|AV-procd|sdf|12873|dock3
  -GOLD-   2272019273D 1   1.00000     0.00000
 Structure written by MMmdl.
 44 45  0  0  0  0  0  0  0  0  2 V2000
  145.3007  132.3181  150.4562 C   0  0  0  0  0  0  0  0  0  0  0  0
  146.3224  132.9426  151.4170 C   0  0  2  0  0  0  0  0  0  0  0  0
  146.9790  131.8756  152.3094 C   0  0  0  0  0  0  0  0  0  0  0  0
  147.9696  132.5291  153.2815 C   0  0  0  0  0  0  0  0  0  0  0  0
  147.2891  133.6386  154.0990 C   0  0  0  0  0  0  0  0  0  0  0  0
  146.6747  134.6566  153.2083 N   0  3  2  0  0  0  0  0  0  0  0  0
  146.1294  135.8122  153.9630 C   0  0  0  0  0  0  0  0  0  0  0  0
  147.1384  136.3688  154.9861 C   0  0  0  0  0  0  0  0  0  0  0  0
  147.9869  137.3915  154.3869 N   0  0  0  0  0  0  0  0  0  0  0  0
  148.0265  138.6757  154.7768 C   0  0  0  0  0  0  0  0  0  0  0  0
  147.3130  139.1231  155.6758 O   0  0  0  0  0  0  0  0  0  0  0  0
  149.0308  139.5807  154.0451 C   0  0  1  0  0  0  0  0  0  0  0  0
  148.8341  141.0751  154.3693 C   0  0  0  0  0  0  0  0  0  0  0  0
  150.3970  139.1434  154.3091 N   0  0  0  0  0  0  0  0  0  0  0  0
  150.9386  137.8875  154.1232 C   0  0  0  0  0  0  0  0  0  0  0  0
  152.2427  137.9385  154.5247 C   0  0  0  0  0  0  0  0  0  0  0  0
  152.4112  139.2835  154.9556 C   0  0  0  0  0  0  0  0  0  0  0  0
  151.3057  139.9994  154.8326 N   0  0  0  0  0  0  0  0  0  0  0  0
  145.6813  134.0443  152.2851 C   0  0  0  0  0  0  0  0  0  0  0  0
  144.4882  131.8342  150.9996 H   0  0  0  0  0  0  0  0  0  0  0  0
  145.7687  131.5665  149.8196 H   0  0  0  0  0  0  0  0  0  0  0  0
  144.8611  133.0735  149.8044 H   0  0  0  0  0  0  0  0  0  0  0  0
  147.1035  133.4045  150.8111 H   0  0  0  0  0  0  0  0  0  0  0  0
  146.2141  131.3387  152.8726 H   0  0  0  0  0  0  0  0  0  0  0  0
  147.4940  131.1338  151.6974 H   0  0  0  0  0  0  0  0  0  0  0  0
  148.3864  131.7754  153.9504 H   0  0  0  0  0  0  0  0  0  0  0  0
  148.8089  132.9469  152.7238 H   0  0  0  0  0  0  0  0  0  0  0  0
  146.5243  133.2134  154.7509 H   0  0  0  0  0  0  0  0  0  0  0  0
  148.0309  134.1107  154.7444 H   0  0  0  0  0  0  0  0  0  0  0  0
  145.8055  136.5852  153.2640 H   0  0  0  0  0  0  0  0  0  0  0  0
  145.2371  135.5025  154.5094 H   0  0  0  0  0  0  0  0  0  0  0  0
  146.6070  136.8175  155.8260 H   0  0  0  0  0  0  0  0  0  0  0  0
  147.7645  135.5796  155.4036 H   0  0  0  0  0  0  0  0  0  0  0  0
  148.5990  137.1018  153.6375 H   0  0  0  0  0  0  0  0  0  0  0  0
  148.8540  139.4591  152.9751 H   0  0  0  0  0  0  0  0  0  0  0  0
  147.8220  141.4012  154.1264 H   0  0  0  0  0  0  0  0  0  0  0  0
  149.5225  141.6912  153.7901 H   0  0  0  0  0  0  0  0  0  0  0  0
  149.0071  141.2922  155.4241 H   0  0  0  0  0  0  0  0  0  0  0  0
  150.3581  137.0698  153.7225 H   0  0  0  0  0  0  0  0  0  0  0  0
  152.9663  137.1368  154.5129 H   0  0  0  0  0  0  0  0  0  0  0  0
  153.2965  139.7574  155.3536 H   0  0  0  0  0  0  0  0  0  0  0  0
  145.2570  134.8078  151.6334 H   0  0  0  0  0  0  0  0  0  0  0  0
  144.8527  133.6331  152.8645 H   0  0  0  0  0  0  0  0  0  0  0  0
  147.4256  135.0174  152.6375 H   0  0  0  0  0  0  0  0  0  0  0  0
  1  2  1  0  0  0  0
  1 20  1  0  0  0  0
  1 21  1  0  0  0  0
  1 22  1  0  0  0  0
  2 19  1  0  0  0  0
  2  3  1  0  0  0  0
  2 23  1  0  0  0  0
  3  4  1  0  0  0  0
  3 24  1  0  0  0  0
  3 25  1  0  0  0  0
  4  5  1  0  0  0  0
  4 26  1  0  0  0  0
  4 27  1  0  0  0  0
  5  6  1  0  0  0  0
  5 28  1  0  0  0  0
  5 29  1  0  0  0  0
  6  7  1  0  0  0  0
  6 19  1  0  0  0  0
  6 44  1  0  0  0  0
  7  8  1  0  0  0  0
  7 30  1  0  0  0  0
  7 31  1  0  0  0  0
  8  9  1  0  0  0  0
  8 32  1  0  0  0  0
  8 33  1  0  0  0  0
  9 10  1  0  0  0  0
  9 34  1  0  0  0  0
 10 11  2  0  0  0  0
 10 12  1  0  0  0  0
 12 13  1  0  0  0  0
 12 14  1  0  0  0  0
 12 35  1  0  0  0  0
 13 36  1  0  0  0  0
 13 37  1  0  0  0  0
 13 38  1  0  0  0  0
 14 18  1  0  0  0  0
 14 15  1  0  0  0  0
 15 16  2  0  0  0  0
 15 39  1  0  0  0  0
 16 17  1  0  0  0  0
 16 40  1  0  0  0  0
 17 18  2  0  0  0  0
 17 41  1  0  0  0  0
 19 42  1  0  0  0  0
 19 43  1  0  0  0  0
M  CHG  1   6   1
M  END
> <s_m_source_file>
AV-unprocessed.smi

> <i_m_source_file_index>
3338

> <i_lp_mmshare_version>
43012

> <i_f3d_flags>
0

> <s_epik_input>
W0NIM11bQ0BASF0xW0NIMl1bQ0gyXVtDSDJdTihbQ0gyXTEpW0NIMl1bQ0gyXVtOSF1DKD1PKVtDQEhdKFtDSDNdKW4yW2NIXVtjSF1bY0hdbjI=

> <s_epik_cmdline>
J2VwaWtfcHl0aG9uJywgJy1waCcsICc3LjAnLCAnLXRuJywgJzgnLCAnLW1hJywgJzIwMCcsICctbWV0YWxfYmluZGluZycsICctaW1hZScsICc8aW5maWxlLm1hZT4nLCAnLW9tYWUnLCAnPG91dGZpbGUubWFlPic=

> <r_lp_tautomer_probability>
1

> <r_epik_Ionization_Penalty>
0.00225707

> <r_epik_Ionization_Penalty_Charging>
0.00223709

> <r_epik_Ionization_Penalty_Neutral>
1.99775e-05

> <r_epik_State_Penalty>
0.00153978

> <r_epik_Charging_Adjusted_Penalty>
0.00377687

> <i_epik_Tot_Q>
1

> <i_epik_Tot_abs_Q>
1

> <r_epik_Metal_State_Penalty>
-0

> <b_epik_Metal_Only>
0

> <s_lp_Force_Field>
OPLS_2005

> <r_lp_Energy>
19.822

> <b_lp_Chiralities_Consistent>
1

> <s_lp_Variant>
AV-unprocessed.smi:3338-5

> <Gold.Version>
5.8.1

> <Gold.Id.Protein>
6NUR|6NUR_protein|mol2

> <Gold.PLP.Fitness>
46.0747

> <Gold.PLP.PLP>
-32.7848

> <Gold.PLP.part.hbond>
-3.0000

> <Gold.PLP.part.metal>
0.0000

> <Gold.PLP.part.buried>
1.2703

> <Gold.PLP.part.nonpolar>
-31.0047

> <Gold.PLP.part.repulsive>
0.0528

> <Gold.PLP.ligand.clash>
0.0000

> <Gold.PLP.ligand.torsion>
0.3763

> <Gold.PLP.Chemscore.Hbond>
3.5770

> <Gold.PLP.Chemscore.CHOScore>
1.0663

> <Gold.PLP.Chemscore.Metal>
0.0000

> <Gold.Chemscore.Hbonds>
donor molecule, donor type, donor heavy atom, donor atom, acceptor molecule, acceptor atom, score
      L1  H     6    44       P1  7948  1.79
      L1  H     9    34       P1  7948  1.00
      P1  H  7989  7998       L1    18  0.95
      L1  C    15    39       P1  7948  0.79
      L1  C    15    39       P1  7949  0.23

> <Gold.PLP.Chemscore.Internal.Correction>
0.1125

> <Gold.Rescore>
     Score         DG    S(hbond)    S(metal)    S(lipo)     H(rot)  DE(clash)    DE(int)     intcor
     15.88     -16.91       1.94        0.00      80.76       1.76       0.39       0.64       ----

> <Gold.Chemscore.Fitness>
15.8808

> <Gold.Chemscore.DG>
-16.9064

> <Gold.Chemscore.ZeroCoef>
-5.4800

> <Gold.Chemscore.Hbond>
1.9389

> <Gold.Chemscore.Metal>
0.0000

> <Gold.Chemscore.Lipo>
80.7556

> <Gold.Chemscore.Internal_Hbond>
0.0000

> <Gold.Chemscore.DEClash>
0.3906

> <Gold.Chemscore.DEInternal>
0.6350

> <Gold.Chemscore.Rot>
1.7570

> <Gold.Chemscore.Internal.Correction>
   9.000000E+99

> <Gold.Chemscore.Hbonds>
donor molecule, donor type, donor heavy atom, donor atom, acceptor molecule, acceptor atom, score
      L1  H     6    44       P1  7948  0.87
      L1  H     9    34       P1  7948  0.93
      P1  H  7989  7998       L1    18  0.06

> <Gold.Chemscore.Hbond.Weighted>
-6.4759

> <Gold.Chemscore.Metal.Weighted>
-0.0000

> <Gold.Chemscore.Lipo.Weighted>
-9.4484

> <Gold.Chemscore.Internal_Hbond.Weighted>
0.0000

> <Gold.Chemscore.DEClash.Weighted>
0.3906

> <Gold.Chemscore.DEInternal.Weighted>
0.6350

> <Gold.Chemscore.Rot.Weighted>
4.4979

> <Gold.Chemscore.Internal.Correction.Weighted>
   9.000000E+99

> <Gold.Protein.RotatedTorsions>
[ 6907 6896 6895 6894 ] final   85.57 input  -60.11 | X-H torsion
[ 7974 7965 7964 7962 ] final  -93.70 input  175.53 | X-H torsion
[ 8008 7997 7996 7995 ] final  -28.42 input   59.86 | X-H torsion
[ 10167 10162 10161 10158 ] final  -24.50 input  -65.29 | X-H torsion
[ 10718 10713 10712 10709 ] final -112.11 input   66.30 | X-H torsion
[ 10763 10752 10751 10750 ] final  140.69 input  -60.55 | X-H torsion
[ 11005 11000 10999 10996 ] final    6.78 input  -57.11 | X-H torsion

> <Gold.Protein.ActiveResidues>
 VAL166  LYS551  ARG553  GLY616  TRP617  ASP618  TYR619  PRO620  LYS621  CYS622 
 ASP623  PHE694  ASN695  SER759  ASP760  ASP761  ALA762  ILE779  LEU786  VAL792 
 PHE793  MET794  SER795  GLU796  ALA797  LYS798  CYS799  TRP800  GLU811  SER814 

> <Gold.Protein.RotatedAtoms>
  152.5377  134.2566  159.8918 H   0  0  0  0  0  0  0  0  0  0  0  0  # atno 6907 bound_to 6896
  151.2527  133.4335  159.2620 H   0  0  0  0  0  0  0  0  0  0  0  0  # atno 6908 bound_to 6896
  151.0524  134.9696  159.8275 H   0  0  0  0  0  0  0  0  0  0  0  0  # atno 6909 bound_to 6896
  145.3831  140.9520  143.2383 H   0  0  0  0  0  0  0  0  0  0  0  0  # atno 7974 bound_to 7965
  154.4333  140.1846  156.1086 H   0  0  0  0  0  0  0  0  0  0  0  0  # atno 8008 bound_to 7997
  156.0235  140.3338  155.7038 H   0  0  0  0  0  0  0  0  0  0  0  0  # atno 8009 bound_to 7997
  155.5942  140.0634  157.2741 H   0  0  0  0  0  0  0  0  0  0  0  0  # atno 8010 bound_to 7997
  140.7288  143.4348  151.0747 H   0  0  0  0  0  0  0  0  0  0  0  0  # atno 10167 bound_to 10162
  156.0686  130.5903  150.8465 H   0  0  0  0  0  0  0  0  0  0  0  0  # atno 10718 bound_to 10713
  153.9268  135.2994  155.3446 H   0  0  0  0  0  0  0  0  0  0  0  0  # atno 10763 bound_to 10752
  154.7547  135.4963  153.9356 H   0  0  0  0  0  0  0  0  0  0  0  0  # atno 10764 bound_to 10752
  153.1112  135.6759  153.9601 H   0  0  0  0  0  0  0  0  0  0  0  0  # atno 10765 bound_to 10752
  140.5556  134.0241  155.7953 H   0  0  0  0  0  0  0  0  0  0  0  0  # atno 11005 bound_to 11000
  144.8493  139.5346  143.6863 LP  0  0  0  0  0  0  0  0  0  0  0  0  # atno 17320 bound_to 7965
  146.2833  139.6935  142.9213 LP  0  0  0  0  0  0  0  0  0  0  0  0  # atno 17321 bound_to 7965
  139.8008  143.8086  152.3162 LP  0  0  0  0  0  0  0  0  0  0  0  0  # atno 17342 bound_to 10162
  139.8102  144.7339  150.9707 LP  0  0  0  0  0  0  0  0  0  0  0  0  # atno 17343 bound_to 10162
  157.5744  131.0946  150.9368 LP  0  0  0  0  0  0  0  0  0  0  0  0  # atno 17370 bound_to 10713
  156.9577  130.5443  149.5284 LP  0  0  0  0  0  0  0  0  0  0  0  0  # atno 17371 bound_to 10713
  141.1145  133.9562  157.2848 LP  0  0  0  0  0  0  0  0  0  0  0  0  # atno 17394 bound_to 11000
  139.9433  135.0188  156.8775 LP  0  0  0  0  0  0  0  0  0  0  0  0  # atno 17395 bound_to 11000

$$$$
