AV-unprocessed.smi:199|AV-procd|sdf|1561|dock1
  -GOLD-   2262019433D 1   1.00000     0.00000
 Structure written by MMmdl.
 51 55  0  0  0  0  0  0  0  0  1 V2000
  148.2078  125.6038  150.3584 C   0  0  0  0  0  0  0  0  0  0  0  0
  148.2327  126.4176  151.6625 C   0  0  1  0  0  0  0  0  0  0  0  0
  149.4577  126.2184  152.3530 O   0  0  0  0  0  0  0  0  0  0  0  0
  149.5711  127.2622  153.3031 C   0  0  0  0  0  0  0  0  0  0  0  0
  149.1492  128.4907  152.5061 C   0  0  0  0  0  0  0  0  0  0  0  0
  148.0869  127.9582  151.5391 C   0  0  1  0  0  0  0  0  0  0  0  0
  148.4094  128.4134  150.2351 O   0  0  0  0  0  0  0  0  0  0  0  0
  146.6690  128.4706  151.8928 C   0  0  0  0  0  0  0  0  0  0  0  0
  146.4994  129.9004  151.6815 N   0  0  0  0  0  0  0  0  0  0  0  0
  145.8648  130.5100  150.6235 C   0  0  0  0  0  0  0  0  0  0  0  0
  145.8401  131.8136  150.6669 N   0  0  0  0  0  0  0  0  0  0  0  0
  146.5110  132.1322  151.8421 C   0  0  0  0  0  0  0  0  0  0  0  0
  146.8465  133.3507  152.5006 C   0  0  0  0  0  0  0  0  0  0  0  0
  146.5078  134.5812  152.0278 N   0  0  0  0  0  0  0  0  0  0  0  0
  145.7580  134.7050  150.7887 C   0  0  1  0  0  0  0  0  0  0  0  0
  144.3250  134.2877  151.1744 C   0  0  0  0  0  0  0  0  0  0  0  0
  144.2293  134.8306  152.6086 C   0  0  0  0  0  0  0  0  0  0  0  0
  145.6280  135.4611  152.7864 C   0  0  2  0  0  0  0  0  0  0  0  0
  145.6814  136.7768  151.9787 C   0  0  1  0  0  0  0  0  0  0  0  0
  146.8618  137.6877  152.3629 C   0  0  0  0  0  0  0  0  0  0  0  0
  147.1136  138.6260  151.3384 O   0  0  0  0  0  0  0  0  0  0  0  0
  145.7949  136.2227  150.5433 C   0  0  0  0  0  0  0  0  0  0  0  0
  147.5699  133.2576  153.6485 N   0  0  0  0  0  0  0  0  0  0  0  0
  147.9146  132.0645  154.1395 C   0  0  0  0  0  0  0  0  0  0  0  0
  147.6537  130.8538  153.6455 N   0  0  0  0  0  0  0  0  0  0  0  0
  146.9467  130.9366  152.4827 C   0  0  0  0  0  0  0  0  0  0  0  0
  147.2752  125.7580  149.8153 H   0  0  0  0  0  0  0  0  0  0  0  0
  148.2945  124.5379  150.5690 H   0  0  0  0  0  0  0  0  0  0  0  0
  149.0330  125.8754  149.6997 H   0  0  0  0  0  0  0  0  0  0  0  0
  147.4540  126.0338  152.3224 H   0  0  0  0  0  0  0  0  0  0  0  0
  148.8889  127.0802  154.1351 H   0  0  0  0  0  0  0  0  0  0  0  0
  150.5844  127.3420  153.6970 H   0  0  0  0  0  0  0  0  0  0  0  0
  148.7890  129.2940  153.1499 H   0  0  0  0  0  0  0  0  0  0  0  0
  150.0172  128.8725  151.9655 H   0  0  0  0  0  0  0  0  0  0  0  0
  148.4610  129.3566  150.2509 H   0  0  0  0  0  0  0  0  0  0  0  0
  145.9245  127.9464  151.2920 H   0  0  0  0  0  0  0  0  0  0  0  0
  146.4297  128.2474  152.9334 H   0  0  0  0  0  0  0  0  0  0  0  0
  145.4114  129.9542  149.8158 H   0  0  0  0  0  0  0  0  0  0  0  0
  146.1504  134.1470  149.9403 H   0  0  0  0  0  0  0  0  0  0  0  0
  143.5708  134.7093  150.5089 H   0  0  0  0  0  0  0  0  0  0  0  0
  144.2175  133.2023  151.1663 H   0  0  0  0  0  0  0  0  0  0  0  0
  143.4212  135.5515  152.7375 H   0  0  0  0  0  0  0  0  0  0  0  0
  144.0672  134.0174  153.3169 H   0  0  0  0  0  0  0  0  0  0  0  0
  145.9066  135.5949  153.8324 H   0  0  0  0  0  0  0  0  0  0  0  0
  144.7539  137.3403  152.0936 H   0  0  0  0  0  0  0  0  0  0  0  0
  146.6642  138.2161  153.2962 H   0  0  0  0  0  0  0  0  0  0  0  0
  147.7641  137.0940  152.5119 H   0  0  0  0  0  0  0  0  0  0  0  0
  147.7402  139.2577  151.6571 H   0  0  0  0  0  0  0  0  0  0  0  0
  146.7400  136.5092  150.0797 H   0  0  0  0  0  0  0  0  0  0  0  0
  144.9877  136.5631  149.8934 H   0  0  0  0  0  0  0  0  0  0  0  0
  148.4803  132.0836  155.0593 H   0  0  0  0  0  0  0  0  0  0  0  0
  1  2  1  0  0  0  0
  1 27  1  0  0  0  0
  1 28  1  0  0  0  0
  1 29  1  0  0  0  0
  2  6  1  0  0  0  0
  2  3  1  0  0  0  0
  2 30  1  0  0  0  0
  3  4  1  0  0  0  0
  4  5  1  0  0  0  0
  4 31  1  0  0  0  0
  4 32  1  0  0  0  0
  5  6  1  0  0  0  0
  5 33  1  0  0  0  0
  5 34  1  0  0  0  0
  6  7  1  0  0  0  0
  6  8  1  0  0  0  0
  7 35  1  0  0  0  0
  8  9  1  0  0  0  0
  8 36  1  0  0  0  0
  8 37  1  0  0  0  0
  9 26  1  0  0  0  0
  9 10  1  0  0  0  0
 10 11  2  0  0  0  0
 10 38  1  0  0  0  0
 11 12  1  0  0  0  0
 12 26  2  0  0  0  0
 12 13  1  0  0  0  0
 13 14  1  0  0  0  0
 13 23  2  0  0  0  0
 14 18  1  0  0  0  0
 14 15  1  0  0  0  0
 15 22  1  0  0  0  0
 15 16  1  0  0  0  0
 15 39  1  0  0  0  0
 16 17  1  0  0  0  0
 16 40  1  0  0  0  0
 16 41  1  0  0  0  0
 17 18  1  0  0  0  0
 17 42  1  0  0  0  0
 17 43  1  0  0  0  0
 18 19  1  0  0  0  0
 18 44  1  0  0  0  0
 19 20  1  0  0  0  0
 19 22  1  0  0  0  0
 19 45  1  0  0  0  0
 20 21  1  0  0  0  0
 20 46  1  0  0  0  0
 20 47  1  0  0  0  0
 21 48  1  0  0  0  0
 22 49  1  0  0  0  0
 22 50  1  0  0  0  0
 23 24  1  0  0  0  0
 24 25  2  0  0  0  0
 24 51  1  0  0  0  0
 25 26  1  0  0  0  0
M  END
> <s_m_source_file>
AV-unprocessed.smi

> <i_m_source_file_index>
199

> <i_lp_mmshare_version>
43012

> <i_f3d_flags>
0

> <s_epik_input>
W0NIMl0xW0NIMl1PW0NAQEhdKFtDSDNdKVtDQEBdMShbT0hdKVtDSDJdbihbY0hdbjIpYyhjMjMpbltjSF1uYzNOKFtDQEBIXTQ1KVtDQEhdKFtDSDJdW0NIMl00KVtDQEhdKFtDSDJdNSlbQ0gyXVtPSF0=

> <s_epik_cmdline>
J2VwaWtfcHl0aG9uJywgJy1waCcsICc3LjAnLCAnLXRuJywgJzgnLCAnLW1hJywgJzIwMCcsICctbWV0YWxfYmluZGluZycsICctaW1hZScsICc8aW5maWxlLm1hZT4nLCAnLW9tYWUnLCAnPG91dGZpbGUubWFlPic=

> <r_lp_tautomer_probability>
1

> <r_epik_Ionization_Penalty>
0.00583903

> <r_epik_Ionization_Penalty_Charging>
0

> <r_epik_Ionization_Penalty_Neutral>
0.00583903

> <r_epik_State_Penalty>
-0

> <r_epik_Charging_Adjusted_Penalty>
0

> <i_epik_Tot_Q>
0

> <i_epik_Tot_abs_Q>
0

> <r_epik_Metal_State_Penalty>
-0

> <b_epik_Metal_Only>
0

> <s_lp_Force_Field>
OPLS_2005

> <r_lp_Energy>
83.4271

> <b_lp_Chiralities_Consistent>
1

> <s_lp_Variant>
AV-unprocessed.smi:199-2

> <Gold.Version>
5.8.1

> <Gold.Id.Protein>
6NUR|6NUR_protein|mol2

> <Gold.PLP.Fitness>
45.1835

> <Gold.PLP.PLP>
-38.5521

> <Gold.PLP.part.hbond>
-5.0096

> <Gold.PLP.part.metal>
0.0000

> <Gold.PLP.part.buried>
2.1990

> <Gold.PLP.part.nonpolar>
-36.0849

> <Gold.PLP.part.repulsive>
1.4982

> <Gold.PLP.ligand.clash>
0.0000

> <Gold.PLP.ligand.torsion>
0.4148

> <Gold.PLP.Chemscore.Hbond>
2.4710

> <Gold.PLP.Chemscore.CHOScore>
0.0000

> <Gold.PLP.Chemscore.Metal>
0.0000

> <Gold.Chemscore.Hbonds>
donor molecule, donor type, donor heavy atom, donor atom, acceptor molecule, acceptor atom, score
      L1  H     7    35       P1 10747  0.43
      L1  H    21    48       P1  7957  0.74
      P1  H  7954  7966       L1    21  0.90

> <Gold.PLP.Chemscore.Internal.Correction>
0.0481

> <Gold.Rescore>
     Score         DG    S(hbond)    S(metal)    S(lipo)     H(rot)  DE(clash)    DE(int)     intcor
      6.74     -10.74       1.10        0.00      80.73       3.07       2.23       1.77       ----

> <Gold.Chemscore.Fitness>
6.7405

> <Gold.Chemscore.DG>
-10.7357

> <Gold.Chemscore.ZeroCoef>
-5.4800

> <Gold.Chemscore.Hbond>
1.1010

> <Gold.Chemscore.Metal>
0.0000

> <Gold.Chemscore.Lipo>
80.7269

> <Gold.Chemscore.Internal_Hbond>
0.0000

> <Gold.Chemscore.DEClash>
2.2254

> <Gold.Chemscore.DEInternal>
1.7698

> <Gold.Chemscore.Rot>
3.0729

> <Gold.Chemscore.Internal.Correction>
   9.000000E+99

> <Gold.Chemscore.Hbonds>
donor molecule, donor type, donor heavy atom, donor atom, acceptor molecule, acceptor atom, score
      L1  H     7    35       P1 10747  0.01
      L1  H    21    48       P1  7957  0.68
      P1  H  7954  7966       L1    21  0.15

> <Gold.Chemscore.Hbond.Weighted>
-3.6774

> <Gold.Chemscore.Metal.Weighted>
-0.0000

> <Gold.Chemscore.Lipo.Weighted>
-9.4450

> <Gold.Chemscore.Internal_Hbond.Weighted>
0.0000

> <Gold.Chemscore.DEClash.Weighted>
2.2254

> <Gold.Chemscore.DEInternal.Weighted>
1.7698

> <Gold.Chemscore.Rot.Weighted>
7.8667

> <Gold.Chemscore.Internal.Correction.Weighted>
   9.000000E+99

> <Gold.Protein.RotatedTorsions>
[ 6907 6896 6895 6894 ] final  -31.42 input  -60.11 | X-H torsion
[ 7974 7965 7964 7962 ] final -171.47 input  175.53 | X-H torsion
[ 8008 7997 7996 7995 ] final -173.06 input   59.86 | X-H torsion
[ 10167 10162 10161 10158 ] final  -36.85 input  -65.29 | X-H torsion
[ 10718 10713 10712 10709 ] final   92.43 input   66.30 | X-H torsion
[ 10763 10752 10751 10750 ] final   40.03 input  -60.55 | X-H torsion
[ 11005 11000 10999 10996 ] final  -69.75 input  -57.11 | X-H torsion

> <Gold.Protein.ActiveResidues>
 VAL166  LYS551  ARG553  GLY616  TRP617  ASP618  TYR619  PRO620  LYS621  CYS622 
 ASP623  PHE694  ASN695  SER759  ASP760  ASP761  ALA762  ILE779  LEU786  VAL792 
 PHE793  MET794  SER795  GLU796  ALA797  LYS798  CYS799  TRP800  GLU811  SER814 

> <Gold.Protein.RotatedAtoms>
  151.0923  134.9923  159.8408 H   0  0  0  0  0  0  0  0  0  0  0  0  # atno 6907 bound_to 6896
  152.5430  134.2050  159.8737 H   0  0  0  0  0  0  0  0  0  0  0  0  # atno 6908 bound_to 6896
  151.2087  133.4524  159.2631 H   0  0  0  0  0  0  0  0  0  0  0  0  # atno 6909 bound_to 6896
  144.7157  140.1917  143.6348 H   0  0  0  0  0  0  0  0  0  0  0  0  # atno 7974 bound_to 7965
  155.9526  140.1129  157.0964 H   0  0  0  0  0  0  0  0  0  0  0  0  # atno 8008 bound_to 7997
  154.4113  140.1197  156.5139 H   0  0  0  0  0  0  0  0  0  0  0  0  # atno 8009 bound_to 7997
  155.6823  140.3473  155.4862 H   0  0  0  0  0  0  0  0  0  0  0  0  # atno 8010 bound_to 7997
  140.7133  143.3381  151.2418 H   0  0  0  0  0  0  0  0  0  0  0  0  # atno 10167 bound_to 10162
  157.6958  131.0443  150.3880 H   0  0  0  0  0  0  0  0  0  0  0  0  # atno 10718 bound_to 10713
  152.9948  135.6203  154.2560 H   0  0  0  0  0  0  0  0  0  0  0  0  # atno 10763 bound_to 10752
  154.2298  135.2792  155.2896 H   0  0  0  0  0  0  0  0  0  0  0  0  # atno 10764 bound_to 10752
  154.5459  135.5747  153.6938 H   0  0  0  0  0  0  0  0  0  0  0  0  # atno 10765 bound_to 10752
  141.1560  133.6772  156.6647 H   0  0  0  0  0  0  0  0  0  0  0  0  # atno 11005 bound_to 11000
  145.8762  139.2298  143.1632 LP  0  0  0  0  0  0  0  0  0  0  0  0  # atno 17320 bound_to 7965
  146.0038  140.8496  143.0005 LP  0  0  0  0  0  0  0  0  0  0  0  0  # atno 17321 bound_to 7965
  139.6881  143.9738  152.2845 LP  0  0  0  0  0  0  0  0  0  0  0  0  # atno 17342 bound_to 10162
  139.9391  144.6693  150.8285 LP  0  0  0  0  0  0  0  0  0  0  0  0  # atno 17343 bound_to 10162
  156.4287  130.3967  149.6775 LP  0  0  0  0  0  0  0  0  0  0  0  0  # atno 17370 bound_to 10713
  156.4000  130.7670  151.2677 LP  0  0  0  0  0  0  0  0  0  0  0  0  # atno 17371 bound_to 10713
  140.3221  134.7999  157.4260 LP  0  0  0  0  0  0  0  0  0  0  0  0  # atno 17394 bound_to 11000
  140.1088  134.5373  155.8285 LP  0  0  0  0  0  0  0  0  0  0  0  0  # atno 17395 bound_to 11000

$$$$
