AV-unprocessed.smi:2837|AV-procd|sdf|10921|dock3
  -GOLD-   2272015373D 1   1.00000     0.00000
 Structure written by MMmdl.
 32 34  0  0  0  0  0  0  0  0  1 V2000
  138.4557  138.2786  153.6225 F   0  0  0  0  0  0  0  0  0  0  0  0
  139.5671  139.0074  153.3593 C   0  0  0  0  0  0  0  0  0  0  0  0
  139.2707  140.3077  153.6024 F   0  0  0  0  0  0  0  0  0  0  0  0
  140.5865  138.5951  154.1586 O   0  0  0  0  0  0  0  0  0  0  0  0
  141.2377  137.4192  153.8631 C   0  0  0  0  0  0  0  0  0  0  0  0
  140.5865  136.1685  153.7481 C   0  0  0  0  0  0  0  0  0  0  0  0
  141.3477  135.0280  153.4280 C   0  0  0  0  0  0  0  0  0  0  0  0
  142.7356  135.1705  153.2245 C   0  0  0  0  0  0  0  0  0  0  0  0
  143.4879  134.0291  152.9129 N   0  0  0  0  0  0  0  0  0  0  0  0
  144.5971  134.0893  151.9655 C   0  0  1  0  0  0  0  0  0  0  0  0
  145.8178  133.2874  152.4223 C   0  0  0  0  0  0  0  0  0  0  0  0
  146.0689  132.3772  151.2120 C   0  0  1  0  0  0  0  0  0  0  0  0
  145.0324  131.2488  151.1318 C   0  0  0  0  0  0  0  0  0  0  0  0
  143.7851  132.0047  150.6779 C   0  0  0  0  0  0  0  0  0  0  0  0
  144.3028  133.4508  150.5926 C   0  0  2  0  0  0  0  0  0  0  0  0
  145.6288  133.2098  150.1520 O   0  0  0  0  0  0  0  0  0  0  0  0
  143.3630  136.3655  153.3243 N   0  0  0  0  0  0  0  0  0  0  0  0
  142.6272  137.4551  153.6298 C   0  0  0  0  0  0  0  0  0  0  0  0
  139.8062  138.8804  152.3032 H   0  0  0  0  0  0  0  0  0  0  0  0
  139.5211  136.0724  153.8956 H   0  0  0  0  0  0  0  0  0  0  0  0
  140.8697  134.0633  153.3379 H   0  0  0  0  0  0  0  0  0  0  0  0
  143.1341  133.1209  153.1766 H   0  0  0  0  0  0  0  0  0  0  0  0
  144.8993  135.1286  151.8271 H   0  0  0  0  0  0  0  0  0  0  0  0
  146.6645  133.9540  152.5892 H   0  0  0  0  0  0  0  0  0  0  0  0
  145.6540  132.7153  153.3368 H   0  0  0  0  0  0  0  0  0  0  0  0
  147.1007  132.0369  151.1208 H   0  0  0  0  0  0  0  0  0  0  0  0
  145.3213  130.5060  150.3875 H   0  0  0  0  0  0  0  0  0  0  0  0
  144.8959  130.7416  152.0875 H   0  0  0  0  0  0  0  0  0  0  0  0
  143.4683  131.6546  149.6949 H   0  0  0  0  0  0  0  0  0  0  0  0
  142.9429  131.8894  151.3605 H   0  0  0  0  0  0  0  0  0  0  0  0
  143.7226  134.0865  149.9235 H   0  0  0  0  0  0  0  0  0  0  0  0
  143.1667  138.3884  153.6949 H   0  0  0  0  0  0  0  0  0  0  0  0
  1  2  1  0  0  0  0
  2  3  1  0  0  0  0
  2  4  1  0  0  0  0
  2 19  1  0  0  0  0
  4  5  1  0  0  0  0
  5 18  1  0  0  0  0
  5  6  2  0  0  0  0
  6  7  1  0  0  0  0
  6 20  1  0  0  0  0
  7  8  2  0  0  0  0
  7 21  1  0  0  0  0
  8  9  1  0  0  0  0
  8 17  1  0  0  0  0
  9 10  1  0  0  0  0
  9 22  1  0  0  0  0
 10 15  1  0  0  0  0
 10 11  1  0  0  0  0
 10 23  1  0  0  0  0
 11 12  1  0  0  0  0
 11 24  1  0  0  0  0
 11 25  1  0  0  0  0
 12 16  1  0  0  0  0
 12 13  1  0  0  0  0
 12 26  1  0  0  0  0
 13 14  1  0  0  0  0
 13 27  1  0  0  0  0
 13 28  1  0  0  0  0
 14 15  1  0  0  0  0
 14 29  1  0  0  0  0
 14 30  1  0  0  0  0
 15 16  1  0  0  0  0
 15 31  1  0  0  0  0
 17 18  2  0  0  0  0
 18 32  1  0  0  0  0
M  END
> <s_m_source_file>
AV-unprocessed.smi

> <i_m_source_file_index>
2837

> <i_lp_mmshare_version>
43012

> <i_f3d_flags>
0

> <s_epik_input>
RltDSF0oRilPYzFbY0hdW2NIXWMobltjSF0xKVtOSF1bQ0BIXShbQ0gyXVtDQEBIXTIzKVtDQEBIXShPMylbQ0gyXVtDSDJdMg==

> <s_epik_cmdline>
J2VwaWtfcHl0aG9uJywgJy1waCcsICc3LjAnLCAnLXRuJywgJzgnLCAnLW1hJywgJzIwMCcsICctbWV0YWxfYmluZGluZycsICctaW1hZScsICc8aW5maWxlLm1hZT4nLCAnLW9tYWUnLCAnPG91dGZpbGUubWFlPic=

> <r_lp_tautomer_probability>
1

> <r_epik_Ionization_Penalty>
0.0124072

> <r_epik_Ionization_Penalty_Charging>
0

> <r_epik_Ionization_Penalty_Neutral>
0.0124072

> <r_epik_State_Penalty>
0.00959565

> <r_epik_Charging_Adjusted_Penalty>
0.00959565

> <i_epik_Tot_Q>
0

> <i_epik_Tot_abs_Q>
0

> <r_epik_Metal_State_Penalty>
9.67369e-06

> <b_epik_Metal_Only>
0

> <s_lp_Force_Field>
OPLS_2005

> <r_lp_Energy>
39.9144

> <b_lp_Chiralities_Consistent>
1

> <s_lp_Variant>
AV-unprocessed.smi:2837-2

> <Gold.Version>
5.8.1

> <Gold.Id.Protein>
6NUR|6NUR_protein|mol2

> <Gold.PLP.Fitness>
38.6939

> <Gold.PLP.PLP>
-34.2700

> <Gold.PLP.part.hbond>
-1.0000

> <Gold.PLP.part.metal>
0.0000

> <Gold.PLP.part.buried>
-5.3064

> <Gold.PLP.part.nonpolar>
-28.5665

> <Gold.PLP.part.repulsive>
0.8464

> <Gold.PLP.ligand.clash>
0.0000

> <Gold.PLP.ligand.torsion>
0.6032

> <Gold.PLP.Chemscore.Hbond>
0.8705

> <Gold.PLP.Chemscore.CHOScore>
1.0000

> <Gold.PLP.Chemscore.Metal>
0.0000

> <Gold.Chemscore.Hbonds>
donor molecule, donor type, donor heavy atom, donor atom, acceptor molecule, acceptor atom, score
      L1  H     9    22       P1 10957  0.69
      L1  C    18    32       P1 10175  1.00

> <Gold.PLP.Chemscore.Internal.Correction>
0.0189

> <Gold.Rescore>
     Score         DG    S(hbond)    S(metal)    S(lipo)     H(rot)  DE(clash)    DE(int)     intcor
     12.55     -13.49       0.85        0.00      73.14       1.32       0.07       0.87       ----

> <Gold.Chemscore.Fitness>
12.5479

> <Gold.Chemscore.DG>
-13.4922

> <Gold.Chemscore.ZeroCoef>
-5.4800

> <Gold.Chemscore.Hbond>
0.8495

> <Gold.Chemscore.Metal>
0.0000

> <Gold.Chemscore.Lipo>
73.1401

> <Gold.Chemscore.Internal_Hbond>
0.0000

> <Gold.Chemscore.DEClash>
0.0733

> <Gold.Chemscore.DEInternal>
0.8709

> <Gold.Chemscore.Rot>
1.3213

> <Gold.Chemscore.Internal.Correction>
   9.000000E+99

> <Gold.Chemscore.Hbonds>
donor molecule, donor type, donor heavy atom, donor atom, acceptor molecule, acceptor atom, score
      L1  H     9    22       P1 10957  0.51

> <Gold.Chemscore.Hbond.Weighted>
-2.8374

> <Gold.Chemscore.Metal.Weighted>
-0.0000

> <Gold.Chemscore.Lipo.Weighted>
-8.5574

> <Gold.Chemscore.Internal_Hbond.Weighted>
0.0000

> <Gold.Chemscore.DEClash.Weighted>
0.0733

> <Gold.Chemscore.DEInternal.Weighted>
0.8709

> <Gold.Chemscore.Rot.Weighted>
3.3825

> <Gold.Chemscore.Internal.Correction.Weighted>
   9.000000E+99

> <Gold.Protein.RotatedTorsions>
[ 6907 6896 6895 6894 ] final -104.75 input  -60.11 | X-H torsion
[ 7974 7965 7964 7962 ] final  -42.12 input  175.53 | X-H torsion
[ 8008 7997 7996 7995 ] final -102.14 input   59.86 | X-H torsion
[ 10167 10162 10161 10158 ] final  137.43 input  -65.29 | X-H torsion
[ 10718 10713 10712 10709 ] final   85.74 input   66.30 | X-H torsion
[ 10763 10752 10751 10750 ] final  102.54 input  -60.55 | X-H torsion
[ 11005 11000 10999 10996 ] final   50.93 input  -57.11 | X-H torsion

> <Gold.Protein.ActiveResidues>
 VAL166  LYS551  ARG553  GLY616  TRP617  ASP618  TYR619  PRO620  LYS621  CYS622 
 ASP623  PHE694  ASN695  SER759  ASP760  ASP761  ALA762  ILE779  LEU786  VAL792 
 PHE793  MET794  SER795  GLU796  ALA797  LYS798  CYS799  TRP800  GLU811  SER814 

> <Gold.Protein.RotatedAtoms>
  150.7303  134.0230  159.3707 H   0  0  0  0  0  0  0  0  0  0  0  0  # atno 6907 bound_to 6896
  151.8195  135.0654  160.0432 H   0  0  0  0  0  0  0  0  0  0  0  0  # atno 6908 bound_to 6896
  152.3014  133.5623  159.5657 H   0  0  0  0  0  0  0  0  0  0  0  0  # atno 6909 bound_to 6896
  146.0146  140.6924  142.9208 H   0  0  0  0  0  0  0  0  0  0  0  0  # atno 7974 bound_to 7965
  154.8525  140.0430  157.1613 H   0  0  0  0  0  0  0  0  0  0  0  0  # atno 8008 bound_to 7997
  154.8928  140.2989  155.5341 H   0  0  0  0  0  0  0  0  0  0  0  0  # atno 8009 bound_to 7997
  156.2996  140.2390  156.3945 H   0  0  0  0  0  0  0  0  0  0  0  0  # atno 8010 bound_to 7997
  139.5145  144.6410  151.5568 H   0  0  0  0  0  0  0  0  0  0  0  0  # atno 10167 bound_to 10162
  157.6919  131.0187  150.2868 H   0  0  0  0  0  0  0  0  0  0  0  0  # atno 10718 bound_to 10713
  153.3409  135.4007  155.1571 H   0  0  0  0  0  0  0  0  0  0  0  0  # atno 10763 bound_to 10752
  154.8643  135.3633  154.5347 H   0  0  0  0  0  0  0  0  0  0  0  0  # atno 10764 bound_to 10752
  153.5792  135.7077  153.5530 H   0  0  0  0  0  0  0  0  0  0  0  0  # atno 10765 bound_to 10752
  140.0975  134.5125  155.8793 H   0  0  0  0  0  0  0  0  0  0  0  0  # atno 11005 bound_to 11000
  144.6966  140.3458  143.7191 LP  0  0  0  0  0  0  0  0  0  0  0  0  # atno 17320 bound_to 7965
  145.7289  139.1730  143.2441 LP  0  0  0  0  0  0  0  0  0  0  0  0  # atno 17321 bound_to 7965
  140.6177  143.9317  150.6501 LP  0  0  0  0  0  0  0  0  0  0  0  0  # atno 17342 bound_to 10162
  140.2581  143.3544  152.1347 LP  0  0  0  0  0  0  0  0  0  0  0  0  # atno 17343 bound_to 10162
  156.3405  130.3814  149.7413 LP  0  0  0  0  0  0  0  0  0  0  0  0  # atno 17370 bound_to 10713
  156.4923  130.8091  151.3100 LP  0  0  0  0  0  0  0  0  0  0  0  0  # atno 17371 bound_to 10713
  141.2096  133.6686  156.6452 LP  0  0  0  0  0  0  0  0  0  0  0  0  # atno 17394 bound_to 11000
  140.3265  134.7964  157.4293 LP  0  0  0  0  0  0  0  0  0  0  0  0  # atno 17395 bound_to 11000

$$$$
