AV-unprocessed.smi:52|AV-procd|sdf|510|dock7
  -GOLD-   2262016383D 1   1.00000     0.00000
 Structure written by MMmdl.
 27 28  0  0  0  0  0  0  0  0  3 V2000
  151.0050  133.0193  157.2930 O   0  0  0  0  0  0  0  0  0  0  0  0
  151.1004  134.1381  156.7422 C   0  0  0  0  0  0  0  0  0  0  0  0
  152.1412  134.8273  156.8192 O   0  5  0  0  0  0  0  0  0  0  0  0
  149.9409  134.6661  155.9786 C   0  0  0  0  0  0  0  0  0  0  0  0
  149.8221  135.9148  155.4226 C   0  0  0  0  0  0  0  0  0  0  0  0
  148.6111  136.0138  154.7925 O   0  0  0  0  0  0  0  0  0  0  0  0
  148.0291  134.8008  154.9958 C   0  0  0  0  0  0  0  0  0  0  0  0
  146.6818  134.5355  154.4102 C   0  0  0  0  0  0  0  0  0  0  0  0
  146.9239  134.4987  152.9485 N   0  3  1  0  0  0  0  0  0  0  0  0
  147.2647  133.1659  152.3862 C   0  0  0  0  0  0  0  0  0  0  0  0
  146.4201  132.9889  151.1179 C   0  0  0  0  0  0  0  0  0  0  0  0
  145.9724  134.4051  150.7694 C   0  0  1  0  0  0  0  0  0  0  0  0
  144.7677  134.4171  150.0338 O   0  0  0  0  0  0  0  0  0  0  0  0
  145.8168  135.0519  152.1432 C   0  0  0  0  0  0  0  0  0  0  0  0
  148.7791  133.9575  155.7003 N   0  0  0  0  0  0  0  0  0  0  0  0
  146.7541  134.9147  150.2040 H   0  0  0  0  0  0  0  0  0  0  0  0
  150.4658  136.7815  155.3863 H   0  0  0  0  0  0  0  0  0  0  0  0
  146.2677  133.5973  154.7818 H   0  0  0  0  0  0  0  0  0  0  0  0
  146.0068  135.3499  154.6756 H   0  0  0  0  0  0  0  0  0  0  0  0
  148.3294  133.1516  152.1510 H   0  0  0  0  0  0  0  0  0  0  0  0
  147.0724  132.3543  153.0896 H   0  0  0  0  0  0  0  0  0  0  0  0
  146.9672  132.5056  150.3079 H   0  0  0  0  0  0  0  0  0  0  0  0
  145.5528  132.3683  151.3499 H   0  0  0  0  0  0  0  0  0  0  0  0
  144.9605  134.6542  149.1392 H   0  0  0  0  0  0  0  0  0  0  0  0
  144.8645  134.7575  152.5892 H   0  0  0  0  0  0  0  0  0  0  0  0
  145.8492  136.1412  152.1038 H   0  0  0  0  0  0  0  0  0  0  0  0
  147.7220  135.0913  152.7692 H   0  0  0  0  0  0  0  0  0  0  0  0
  1  2  2  0  0  0  0
  2  3  1  0  0  0  0
  2  4  1  0  0  0  0
  4 15  1  0  0  0  0
  4  5  2  0  0  0  0
  5  6  1  0  0  0  0
  5 17  1  0  0  0  0
  6  7  1  0  0  0  0
  7  8  1  0  0  0  0
  7 15  2  0  0  0  0
  8  9  1  0  0  0  0
  8 18  1  0  0  0  0
  8 19  1  0  0  0  0
  9 14  1  0  0  0  0
  9 10  1  0  0  0  0
  9 27  1  0  0  0  0
 10 11  1  0  0  0  0
 10 20  1  0  0  0  0
 10 21  1  0  0  0  0
 11 12  1  0  0  0  0
 11 22  1  0  0  0  0
 11 23  1  0  0  0  0
 12 16  1  0  0  0  0
 12 13  1  0  0  0  0
 12 14  1  0  0  0  0
 13 24  1  0  0  0  0
 14 25  1  0  0  0  0
 14 26  1  0  0  0  0
M  CHG  1   3  -1
M  CHG  1   9   1
M  END
> <s_m_source_file>
AV-unprocessed.smi

> <i_m_source_file_index>
52

> <i_lp_mmshare_version>
43012

> <i_f3d_flags>
0

> <s_epik_input>
Tz1DKFtPSF0pYzFbY0hdb2MobjEpW0NIMl1OMltDSDJdW0NIMl1bQ0BIXShbT0hdKVtDSDJdMg==

> <s_epik_cmdline>
J2VwaWtfcHl0aG9uJywgJy1waCcsICc3LjAnLCAnLXRuJywgJzgnLCAnLW1hJywgJzIwMCcsICctbWV0YWxfYmluZGluZycsICctaW1hZScsICc8aW5maWxlLm1hZT4nLCAnLW9tYWUnLCAnPG91dGZpbGUubWFlPic=

> <r_epik_Ionization_Penalty>
0.0376014

> <r_epik_Ionization_Penalty_Charging>
0.0376013

> <r_epik_Ionization_Penalty_Neutral>
1.78687e-08

> <r_epik_State_Penalty>
0.0314164

> <r_epik_Charging_Adjusted_Penalty>
0.0690177

> <i_epik_Tot_Q>
0

> <i_epik_Tot_abs_Q>
2

> <r_epik_Metal_State_Penalty>
0.0314164

> <b_epik_Metal_Only>
0

> <s_lp_Force_Field>
OPLS_2005

> <r_lp_Energy>
19.8896

> <b_lp_Chiralities_Consistent>
1

> <s_lp_Variant>
AV-unprocessed.smi:52-4

> <Gold.Version>
5.8.1

> <Gold.Id.Protein>
6NUR|6NUR_protein|mol2

> <Gold.PLP.Fitness>
37.7796

> <Gold.PLP.PLP>
-18.0479

> <Gold.PLP.part.hbond>
-4.3037

> <Gold.PLP.part.metal>
0.0000

> <Gold.PLP.part.buried>
-2.3447

> <Gold.PLP.part.nonpolar>
-12.2804

> <Gold.PLP.part.repulsive>
0.9541

> <Gold.PLP.ligand.clash>
0.0000

> <Gold.PLP.ligand.torsion>
0.5200

> <Gold.PLP.Chemscore.Hbond>
6.9200

> <Gold.PLP.Chemscore.CHOScore>
0.0000

> <Gold.PLP.Chemscore.Metal>
0.0000

> <Gold.Chemscore.Hbonds>
donor molecule, donor type, donor heavy atom, donor atom, acceptor molecule, acceptor atom, score
      L1  H     9    27       P1  7948  2.00
      L1  H    13    24       P1  7921  1.00
      P1  H  6896  6908       L1     1  1.89
      P1  H 10752 10763       L1     3  1.85

> <Gold.PLP.Chemscore.Internal.Correction>
0.0117

> <Gold.Rescore>
     Score         DG    S(hbond)    S(metal)    S(lipo)     H(rot)  DE(clash)    DE(int)     intcor
     15.31     -16.85       3.74        0.00      34.11       1.99       1.04       0.49       ----

> <Gold.Chemscore.Fitness>
15.3127

> <Gold.Chemscore.DG>
-16.8506

> <Gold.Chemscore.ZeroCoef>
-5.4800

> <Gold.Chemscore.Hbond>
3.7361

> <Gold.Chemscore.Metal>
0.0000

> <Gold.Chemscore.Lipo>
34.1115

> <Gold.Chemscore.Internal_Hbond>
0.0000

> <Gold.Chemscore.DEClash>
1.0441

> <Gold.Chemscore.DEInternal>
0.4937

> <Gold.Chemscore.Rot>
1.9919

> <Gold.Chemscore.Internal.Correction>
   9.000000E+99

> <Gold.Chemscore.Hbonds>
donor molecule, donor type, donor heavy atom, donor atom, acceptor molecule, acceptor atom, score
      L1  H     9    27       P1  7948  0.99
      L1  H    13    24       P1  7921  0.97
      P1  H  6896  6908       L1     1  0.40
      P1  H 10752 10763       L1     3  0.84

> <Gold.Chemscore.Hbond.Weighted>
-12.4787

> <Gold.Chemscore.Metal.Weighted>
-0.0000

> <Gold.Chemscore.Lipo.Weighted>
-3.9910

> <Gold.Chemscore.Internal_Hbond.Weighted>
0.0000

> <Gold.Chemscore.DEClash.Weighted>
1.0441

> <Gold.Chemscore.DEInternal.Weighted>
0.4937

> <Gold.Chemscore.Rot.Weighted>
5.0991

> <Gold.Chemscore.Internal.Correction.Weighted>
   9.000000E+99

> <Gold.Protein.RotatedTorsions>
[ 6907 6896 6895 6894 ] final   83.15 input  -60.11 | X-H torsion
[ 7974 7965 7964 7962 ] final  130.20 input  175.53 | X-H torsion
[ 8008 7997 7996 7995 ] final   16.07 input   59.86 | X-H torsion
[ 10167 10162 10161 10158 ] final    0.35 input  -65.29 | X-H torsion
[ 10718 10713 10712 10709 ] final  157.83 input   66.30 | X-H torsion
[ 10763 10752 10751 10750 ] final  105.92 input  -60.55 | X-H torsion
[ 11005 11000 10999 10996 ] final  -93.11 input  -57.11 | X-H torsion

> <Gold.Protein.ActiveResidues>
 VAL166  LYS551  ARG553  GLY616  TRP617  ASP618  TYR619  PRO620  LYS621  CYS622 
 ASP623  PHE694  ASN695  SER759  ASP760  ASP761  ALA762  ILE779  LEU786  VAL792 
 PHE793  MET794  SER795  GLU796  ALA797  LYS798  CYS799  TRP800  GLU811  SER814 

> <Gold.Protein.RotatedAtoms>
  152.5319  134.2940  159.9053 H   0  0  0  0  0  0  0  0  0  0  0  0  # atno 6907 bound_to 6896
  151.2891  133.4167  159.2639 H   0  0  0  0  0  0  0  0  0  0  0  0  # atno 6908 bound_to 6896
  151.0216  134.9489  159.8119 H   0  0  0  0  0  0  0  0  0  0  0  0  # atno 6909 bound_to 6896
  145.0204  139.4137  143.5200 H   0  0  0  0  0  0  0  0  0  0  0  0  # atno 7974 bound_to 7965
  154.8717  140.2959  155.5477 H   0  0  0  0  0  0  0  0  0  0  0  0  # atno 8008 bound_to 7997
  156.3021  140.2459  156.3639 H   0  0  0  0  0  0  0  0  0  0  0  0  # atno 8009 bound_to 7997
  154.8810  140.0398  157.1771 H   0  0  0  0  0  0  0  0  0  0  0  0  # atno 8010 bound_to 7997
  140.6732  143.6989  150.7968 H   0  0  0  0  0  0  0  0  0  0  0  0  # atno 10167 bound_to 10162
  157.1862  131.0644  151.2105 H   0  0  0  0  0  0  0  0  0  0  0  0  # atno 10718 bound_to 10713
  153.3858  135.3894  155.1889 H   0  0  0  0  0  0  0  0  0  0  0  0  # atno 10763 bound_to 10752
  154.8713  135.3736  154.4799 H   0  0  0  0  0  0  0  0  0  0  0  0  # atno 10764 bound_to 10752
  153.5281  135.7086  153.5758 H   0  0  0  0  0  0  0  0  0  0  0  0  # atno 10765 bound_to 10752
  141.1505  133.7865  157.0114 H   0  0  0  0  0  0  0  0  0  0  0  0  # atno 11005 bound_to 11000
  146.3484  139.9699  142.8707 LP  0  0  0  0  0  0  0  0  0  0  0  0  # atno 17320 bound_to 7965
  145.1903  140.9808  143.4215 LP  0  0  0  0  0  0  0  0  0  0  0  0  # atno 17321 bound_to 7965
  140.0678  143.5091  152.2595 LP  0  0  0  0  0  0  0  0  0  0  0  0  # atno 17342 bound_to 10162
  139.6011  144.7583  151.3169 LP  0  0  0  0  0  0  0  0  0  0  0  0  # atno 17343 bound_to 10162
  157.3905  130.7279  149.6694 LP  0  0  0  0  0  0  0  0  0  0  0  0  # atno 17370 bound_to 10713
  155.9717  130.4148  150.4149 LP  0  0  0  0  0  0  0  0  0  0  0  0  # atno 17371 bound_to 10713
  140.0875  134.9612  157.1724 LP  0  0  0  0  0  0  0  0  0  0  0  0  # atno 17394 bound_to 11000
  140.3491  134.2619  155.7201 LP  0  0  0  0  0  0  0  0  0  0  0  0  # atno 17395 bound_to 11000

$$$$
