AV-unprocessed.smi:3117|AV-procd|sdf|11884|dock2
  -GOLD-   2272017273D 1   1.00000     0.00000
 Structure written by MMmdl.
 36 36  0  0  0  0  0  0  0  0  1 V2000
  150.2798  140.7052  158.5505 C   0  0  0  0  0  0  0  0  0  0  0  0
  150.2413  142.1953  158.1625 C   0  0  2  0  0  0  0  0  0  0  0  0
  149.6453  142.3028  156.8278 N   0  0  0  0  0  0  0  0  0  0  0  0
  150.2048  141.3935  155.8252 C   0  0  0  0  0  0  0  0  0  0  0  0
  149.1190  140.5161  155.1683 C   0  0  0  0  0  0  0  0  0  0  0  0
  148.3277  139.6996  156.2056 C   0  0  0  0  0  0  0  0  0  0  0  0
  148.1896  141.3250  154.2461 C   0  0  0  0  0  0  0  0  0  0  0  0
  149.7974  139.5865  154.3484 O   0  0  0  0  0  0  0  0  0  0  0  0
  151.6499  142.8588  158.2173 C   0  0  1  0  0  0  0  0  0  0  0  0
  151.6945  144.3037  157.6863 C   0  0  0  0  0  0  0  0  0  0  0  0
  152.2199  142.8168  159.5588 N   0  0  0  0  0  0  0  0  0  0  0  0
  152.3741  143.8565  160.4526 C   0  0  0  0  0  0  0  0  0  0  0  0
  152.9463  143.3444  161.5815 C   0  0  0  0  0  0  0  0  0  0  0  0
  153.1068  141.9630  161.2821 C   0  0  0  0  0  0  0  0  0  0  0  0
  152.6717  141.6496  160.0726 N   0  0  0  0  0  0  0  0  0  0  0  0
  150.5956  140.5608  159.5837 H   0  0  0  0  0  0  0  0  0  0  0  0
  150.9632  140.1457  157.9110 H   0  0  0  0  0  0  0  0  0  0  0  0
  149.2923  140.2517  158.4574 H   0  0  0  0  0  0  0  0  0  0  0  0
  149.5938  142.6896  158.8886 H   0  0  0  0  0  0  0  0  0  0  0  0
  149.7402  143.2562  156.4928 H   0  0  0  0  0  0  0  0  0  0  0  0
  150.7115  141.9759  155.0540 H   0  0  0  0  0  0  0  0  0  0  0  0
  150.9681  140.7541  156.2645 H   0  0  0  0  0  0  0  0  0  0  0  0
  147.7432  140.3475  156.8597 H   0  0  0  0  0  0  0  0  0  0  0  0
  148.9919  139.1086  156.8373 H   0  0  0  0  0  0  0  0  0  0  0  0
  147.6319  139.0121  155.7233 H   0  0  0  0  0  0  0  0  0  0  0  0
  147.6007  142.0491  154.8099 H   0  0  0  0  0  0  0  0  0  0  0  0
  147.4885  140.6749  153.7212 H   0  0  0  0  0  0  0  0  0  0  0  0
  148.7563  141.8749  153.4938 H   0  0  0  0  0  0  0  0  0  0  0  0
  149.3640  139.5546  153.5092 H   0  0  0  0  0  0  0  0  0  0  0  0
  152.3149  142.2674  157.5855 H   0  0  0  0  0  0  0  0  0  0  0  0
  151.5169  144.3383  156.6122 H   0  0  0  0  0  0  0  0  0  0  0  0
  152.6745  144.7516  157.8550 H   0  0  0  0  0  0  0  0  0  0  0  0
  150.9528  144.9348  158.1766 H   0  0  0  0  0  0  0  0  0  0  0  0
  152.0673  144.8640  160.2134 H   0  0  0  0  0  0  0  0  0  0  0  0
  153.2090  143.8753  162.4843 H   0  0  0  0  0  0  0  0  0  0  0  0
  153.5229  141.1842  161.9038 H   0  0  0  0  0  0  0  0  0  0  0  0
  1  2  1  0  0  0  0
  1 16  1  0  0  0  0
  1 17  1  0  0  0  0
  1 18  1  0  0  0  0
  2  3  1  0  0  0  0
  2  9  1  0  0  0  0
  2 19  1  0  0  0  0
  3  4  1  0  0  0  0
  3 20  1  0  0  0  0
  4  5  1  0  0  0  0
  4 21  1  0  0  0  0
  4 22  1  0  0  0  0
  5  6  1  0  0  0  0
  5  7  1  0  0  0  0
  5  8  1  0  0  0  0
  6 23  1  0  0  0  0
  6 24  1  0  0  0  0
  6 25  1  0  0  0  0
  7 26  1  0  0  0  0
  7 27  1  0  0  0  0
  7 28  1  0  0  0  0
  8 29  1  0  0  0  0
  9 10  1  0  0  0  0
  9 11  1  0  0  0  0
  9 30  1  0  0  0  0
 10 31  1  0  0  0  0
 10 32  1  0  0  0  0
 10 33  1  0  0  0  0
 11 15  1  0  0  0  0
 11 12  1  0  0  0  0
 12 13  2  0  0  0  0
 12 34  1  0  0  0  0
 13 14  1  0  0  0  0
 13 35  1  0  0  0  0
 14 15  2  0  0  0  0
 14 36  1  0  0  0  0
M  END
> <s_m_source_file>
AV-unprocessed.smi

> <i_m_source_file_index>
3117

> <i_lp_mmshare_version>
43012

> <i_f3d_flags>
0

> <s_epik_input>
W0NIM11DKFtDSDNdKShbT0hdKVtDSDJdW05IXVtDQEBIXShbQ0gzXSlbQ0BIXShbQ0gzXSluMVtjSF1bY0hdW2NIXW4x

> <s_epik_cmdline>
J2VwaWtfcHl0aG9uJywgJy1waCcsICc3LjAnLCAnLXRuJywgJzgnLCAnLW1hJywgJzIwMCcsICctbWV0YWxfYmluZGluZycsICctaW1hZScsICc8aW5maWxlLm1hZT4nLCAnLW9tYWUnLCAnPG91dGZpbGUubWFlPic=

> <r_lp_tautomer_probability>
1

> <r_epik_Ionization_Penalty>
2.13419

> <r_epik_Ionization_Penalty_Charging>
0

> <r_epik_Ionization_Penalty_Neutral>
2.13419

> <r_epik_State_Penalty>
2.27148

> <r_epik_Charging_Adjusted_Penalty>
2.27148

> <i_epik_Tot_Q>
0

> <i_epik_Tot_abs_Q>
0

> <r_epik_Metal_State_Penalty>
2.27029

> <b_epik_Metal_Only>
0

> <s_lp_Force_Field>
OPLS_2005

> <r_lp_Energy>
15.8141

> <b_lp_Chiralities_Consistent>
1

> <s_lp_Variant>
AV-unprocessed.smi:3117-7

> <Gold.Version>
5.8.1

> <Gold.Id.Protein>
6NUR|6NUR_protein|mol2

> <Gold.PLP.Fitness>
44.3898

> <Gold.PLP.PLP>
-37.4704

> <Gold.PLP.part.hbond>
-3.0000

> <Gold.PLP.part.metal>
0.0000

> <Gold.PLP.part.buried>
-4.6088

> <Gold.PLP.part.nonpolar>
-28.8077

> <Gold.PLP.part.repulsive>
0.0000

> <Gold.PLP.ligand.clash>
0.0000

> <Gold.PLP.ligand.torsion>
0.9622

> <Gold.PLP.Chemscore.Hbond>
2.8880

> <Gold.PLP.Chemscore.CHOScore>
0.0000

> <Gold.PLP.Chemscore.Metal>
0.0000

> <Gold.Chemscore.Hbonds>
donor molecule, donor type, donor heavy atom, donor atom, acceptor molecule, acceptor atom, score
      L1  H     3    20       P1  8028  0.93
      L1  H     8    29       P1  7957  0.04
      P1  H  7989  7998       L1     8  0.07

> <Gold.PLP.Chemscore.Internal.Correction>
0.1798

> <Gold.Rescore>
     Score         DG    S(hbond)    S(metal)    S(lipo)     H(rot)  DE(clash)    DE(int)     intcor
     16.64     -17.74       2.11        0.00      92.43       2.19       0.07       1.03       ----

> <Gold.Chemscore.Fitness>
16.6356

> <Gold.Chemscore.DG>
-17.7429

> <Gold.Chemscore.ZeroCoef>
-5.4800

> <Gold.Chemscore.Hbond>
2.1108

> <Gold.Chemscore.Metal>
0.0000

> <Gold.Chemscore.Lipo>
92.4335

> <Gold.Chemscore.Internal_Hbond>
0.0000

> <Gold.Chemscore.DEClash>
0.0727

> <Gold.Chemscore.DEInternal>
1.0346

> <Gold.Chemscore.Rot>
2.1882

> <Gold.Chemscore.Internal.Correction>
   9.000000E+99

> <Gold.Chemscore.Hbonds>
donor molecule, donor type, donor heavy atom, donor atom, acceptor molecule, acceptor atom, score
      L1  H     3    20       P1  8028  0.91
      L1  H     8    29       P1  7957  0.09

> <Gold.Chemscore.Hbond.Weighted>
-7.0500

> <Gold.Chemscore.Metal.Weighted>
-0.0000

> <Gold.Chemscore.Lipo.Weighted>
-10.8147

> <Gold.Chemscore.Internal_Hbond.Weighted>
0.0000

> <Gold.Chemscore.DEClash.Weighted>
0.0727

> <Gold.Chemscore.DEInternal.Weighted>
1.0346

> <Gold.Chemscore.Rot.Weighted>
5.6018

> <Gold.Chemscore.Internal.Correction.Weighted>
   9.000000E+99

> <Gold.Protein.RotatedTorsions>
[ 6907 6896 6895 6894 ] final  161.25 input  -60.11 | X-H torsion
[ 7974 7965 7964 7962 ] final  160.64 input  175.53 | X-H torsion
[ 8008 7997 7996 7995 ] final  173.20 input   59.86 | X-H torsion
[ 10167 10162 10161 10158 ] final   48.57 input  -65.29 | X-H torsion
[ 10718 10713 10712 10709 ] final -135.30 input   66.30 | X-H torsion
[ 10763 10752 10751 10750 ] final   56.76 input  -60.55 | X-H torsion
[ 11005 11000 10999 10996 ] final -151.43 input  -57.11 | X-H torsion

> <Gold.Protein.ActiveResidues>
 VAL166  LYS551  ARG553  GLY616  TRP617  ASP618  TYR619  PRO620  LYS621  CYS622 
 ASP623  PHE694  ASN695  SER759  ASP760  ASP761  ALA762  ILE779  LEU786  VAL792 
 PHE793  MET794  SER795  GLU796  ALA797  LYS798  CYS799  TRP800  GLU811  SER814 

> <Gold.Protein.RotatedAtoms>
  151.9584  133.3687  159.4025 H   0  0  0  0  0  0  0  0  0  0  0  0  # atno 6907 bound_to 6896
  150.6968  134.4266  159.5238 H   0  0  0  0  0  0  0  0  0  0  0  0  # atno 6908 bound_to 6896
  152.1951  134.8638  160.0564 H   0  0  0  0  0  0  0  0  0  0  0  0  # atno 6909 bound_to 6896
  144.7726  139.7786  143.6291 H   0  0  0  0  0  0  0  0  0  0  0  0  # atno 7974 bound_to 7965
  156.1099  140.1466  156.9352 H   0  0  0  0  0  0  0  0  0  0  0  0  # atno 8008 bound_to 7997
  154.4760  140.0894  156.7306 H   0  0  0  0  0  0  0  0  0  0  0  0  # atno 8009 bound_to 7997
  155.4614  140.3438  155.4315 H   0  0  0  0  0  0  0  0  0  0  0  0  # atno 8010 bound_to 7997
  140.2919  144.3036  150.6238 H   0  0  0  0  0  0  0  0  0  0  0  0  # atno 10167 bound_to 10162
  156.2647  130.7230  151.1177 H   0  0  0  0  0  0  0  0  0  0  0  0  # atno 10718 bound_to 10713
  152.9837  135.5665  154.5282 H   0  0  0  0  0  0  0  0  0  0  0  0  # atno 10763 bound_to 10752
  154.4758  135.2786  155.1610 H   0  0  0  0  0  0  0  0  0  0  0  0  # atno 10764 bound_to 10752
  154.3139  135.6282  153.5531 H   0  0  0  0  0  0  0  0  0  0  0  0  # atno 10765 bound_to 10752
  140.7297  134.3635  157.5169 H   0  0  0  0  0  0  0  0  0  0  0  0  # atno 11005 bound_to 11000
  146.1884  139.5111  142.9821 LP  0  0  0  0  0  0  0  0  0  0  0  0  # atno 17320 bound_to 7965
  145.6278  141.0310  143.1879 LP  0  0  0  0  0  0  0  0  0  0  0  0  # atno 17321 bound_to 7965
  140.5725  143.2179  151.7574 LP  0  0  0  0  0  0  0  0  0  0  0  0  # atno 17342 bound_to 10162
  139.4936  144.4197  151.9991 LP  0  0  0  0  0  0  0  0  0  0  0  0  # atno 17343 bound_to 10162
  157.7263  131.0647  150.5915 LP  0  0  0  0  0  0  0  0  0  0  0  0  # atno 17370 bound_to 10713
  156.6006  130.4353  149.5899 LP  0  0  0  0  0  0  0  0  0  0  0  0  # atno 17371 bound_to 10713
  139.8829  134.9010  156.2801 LP  0  0  0  0  0  0  0  0  0  0  0  0  # atno 17394 bound_to 11000
  140.9932  133.7196  156.0845 LP  0  0  0  0  0  0  0  0  0  0  0  0  # atno 17395 bound_to 11000

$$$$
