AV-unprocessed.smi:2554|AV-procd|sdf|10019|dock6
  -GOLD-   2272014 63D 1   1.00000     0.00000
 Structure written by MMmdl.
 21 21  0  0  0  0  0  0  0  0  2 V2000
  144.7680  135.6798  151.0147 C   0  0  0  0  0  0  0  0  0  0  0  0
  145.4940  134.3789  151.1074 C   0  0  0  0  0  0  0  0  0  0  0  0
  146.7921  134.2774  151.5790 N   0  0  0  0  0  0  0  0  0  0  0  0
  147.1340  132.9876  151.5317 C   0  0  0  0  0  0  0  0  0  0  0  0
  146.1666  132.2072  151.0660 N   0  0  0  0  0  0  0  0  0  0  0  0
  145.1182  133.0891  150.7897 C   0  0  0  0  0  0  0  0  0  0  0  0
  143.8165  132.5880  150.2399 C   0  0  0  0  0  0  0  0  0  0  0  0
  143.8007  132.5913  148.7054 C   0  0  0  0  0  0  0  0  0  0  0  0
  142.4401  132.3871  148.1814 N   0  3  0  0  0  0  0  0  0  0  0  0
  147.3750  135.0374  151.9000 H   0  0  0  0  0  0  0  0  0  0  0  0
  143.7339  135.5371  150.7015 H   0  0  0  0  0  0  0  0  0  0  0  0
  145.2495  136.3396  150.2926 H   0  0  0  0  0  0  0  0  0  0  0  0
  144.7570  136.1865  151.9800 H   0  0  0  0  0  0  0  0  0  0  0  0
  148.0997  132.6165  151.8422 H   0  0  0  0  0  0  0  0  0  0  0  0
  143.6166  131.5808  150.6067 H   0  0  0  0  0  0  0  0  0  0  0  0
  142.9994  133.2069  150.6127 H   0  0  0  0  0  0  0  0  0  0  0  0
  144.1821  133.5390  148.3237 H   0  0  0  0  0  0  0  0  0  0  0  0
  144.4473  131.8032  148.3181 H   0  0  0  0  0  0  0  0  0  0  0  0
  141.8262  133.0979  148.5530 H   0  0  0  0  0  0  0  0  0  0  0  0
  142.1058  131.4756  148.4601 H   0  0  0  0  0  0  0  0  0  0  0  0
  142.4530  132.4475  147.1733 H   0  0  0  0  0  0  0  0  0  0  0  0
  1  2  1  0  0  0  0
  1 11  1  0  0  0  0
  1 12  1  0  0  0  0
  1 13  1  0  0  0  0
  2  6  2  0  0  0  0
  2  3  1  0  0  0  0
  3 10  1  0  0  0  0
  3  4  1  0  0  0  0
  4  5  2  0  0  0  0
  4 14  1  0  0  0  0
  5  6  1  0  0  0  0
  6  7  1  0  0  0  0
  7  8  1  0  0  0  0
  7 15  1  0  0  0  0
  7 16  1  0  0  0  0
  8  9  1  0  0  0  0
  8 17  1  0  0  0  0
  8 18  1  0  0  0  0
  9 19  1  0  0  0  0
  9 20  1  0  0  0  0
  9 21  1  0  0  0  0
M  CHG  1   9   1
M  END
> <s_m_source_file>
AV-unprocessed.smi

> <i_m_source_file_index>
2554

> <i_lp_mmshare_version>
43012

> <i_f3d_flags>
0

> <s_epik_input>
W0NIM11jMVtuSF1bY0hdbmMxW0NIMl1bQ0gyXVtOSDJd

> <s_epik_cmdline>
J2VwaWtfcHl0aG9uJywgJy1waCcsICc3LjAnLCAnLXRuJywgJzgnLCAnLW1hJywgJzIwMCcsICctbWV0YWxfYmluZGluZycsICctaW1hZScsICc8aW5maWxlLm1hZT4nLCAnLW9tYWUnLCAnPG91dGZpbGUubWFlPic=

> <r_lp_tautomer_probability>
0.5

> <r_epik_Ionization_Penalty>
0.151655

> <r_epik_Ionization_Penalty_Charging>
0.151655

> <r_epik_Ionization_Penalty_Neutral>
1.31637e-07

> <r_epik_State_Penalty>
0.545826

> <r_epik_Charging_Adjusted_Penalty>
0.697481

> <i_epik_Tot_Q>
1

> <i_epik_Tot_abs_Q>
1

> <r_epik_Metal_State_Penalty>
0.436539

> <b_epik_Metal_Only>
0

> <s_lp_Force_Field>
OPLS_2005

> <r_lp_Energy>
1.06437

> <b_lp_Chiralities_Consistent>
1

> <s_lp_Variant>
AV-unprocessed.smi:2554-1

> <Gold.Version>
5.8.1

> <Gold.Id.Protein>
6NUR|6NUR_protein|mol2

> <Gold.PLP.Fitness>
38.9614

> <Gold.PLP.PLP>
-22.7108

> <Gold.PLP.part.hbond>
-4.0000

> <Gold.PLP.part.metal>
0.0000

> <Gold.PLP.part.buried>
-2.8542

> <Gold.PLP.part.nonpolar>
-15.9579

> <Gold.PLP.part.repulsive>
0.4025

> <Gold.PLP.ligand.clash>
0.0000

> <Gold.PLP.ligand.torsion>
0.4131

> <Gold.PLP.Chemscore.Hbond>
5.0000

> <Gold.PLP.Chemscore.CHOScore>
0.6922

> <Gold.PLP.Chemscore.Metal>
0.0000

> <Gold.Chemscore.Hbonds>
donor molecule, donor type, donor heavy atom, donor atom, acceptor molecule, acceptor atom, score
      L1  H     3    10       P1  7948  1.00
      L1  H     9    19       P1 10186  2.00
      L1  H     9    20       P1 10952  0.98
      L1  H     9    21       P1 10195  1.00
      L1  C     4    14       P1 10747  0.65

> <Gold.PLP.Chemscore.Internal.Correction>
0.0002

> <Gold.Rescore>
     Score         DG    S(hbond)    S(metal)    S(lipo)     H(rot)  DE(clash)    DE(int)     intcor
     19.02     -19.46       3.83        0.00      41.75       1.45       0.05       0.39       ----

> <Gold.Chemscore.Fitness>
19.0188

> <Gold.Chemscore.DG>
-19.4597

> <Gold.Chemscore.ZeroCoef>
-5.4800

> <Gold.Chemscore.Hbond>
3.8313

> <Gold.Chemscore.Metal>
0.0000

> <Gold.Chemscore.Lipo>
41.7463

> <Gold.Chemscore.Internal_Hbond>
0.0000

> <Gold.Chemscore.DEClash>
0.0528

> <Gold.Chemscore.DEInternal>
0.3882

> <Gold.Chemscore.Rot>
1.4458

> <Gold.Chemscore.Internal.Correction>
   9.000000E+99

> <Gold.Chemscore.Hbonds>
donor molecule, donor type, donor heavy atom, donor atom, acceptor molecule, acceptor atom, score
      L1  H     3    10       P1  7948  0.89
      L1  H     9    19       P1 10186  1.00
      L1  H     9    20       P1 10952  0.88
      L1  H     9    21       P1 10195  0.94

> <Gold.Chemscore.Hbond.Weighted>
-12.7966

> <Gold.Chemscore.Metal.Weighted>
-0.0000

> <Gold.Chemscore.Lipo.Weighted>
-4.8843

> <Gold.Chemscore.Internal_Hbond.Weighted>
0.0000

> <Gold.Chemscore.DEClash.Weighted>
0.0528

> <Gold.Chemscore.DEInternal.Weighted>
0.3882

> <Gold.Chemscore.Rot.Weighted>
3.7012

> <Gold.Chemscore.Internal.Correction.Weighted>
   9.000000E+99

> <Gold.Protein.RotatedTorsions>
[ 6907 6896 6895 6894 ] final  113.11 input  -60.11 | X-H torsion
[ 7974 7965 7964 7962 ] final  -40.17 input  175.53 | X-H torsion
[ 8008 7997 7996 7995 ] final -100.76 input   59.86 | X-H torsion
[ 10167 10162 10161 10158 ] final  -98.68 input  -65.29 | X-H torsion
[ 10718 10713 10712 10709 ] final -151.63 input   66.30 | X-H torsion
[ 10763 10752 10751 10750 ] final  104.88 input  -60.55 | X-H torsion
[ 11005 11000 10999 10996 ] final   45.00 input  -57.11 | X-H torsion

> <Gold.Protein.ActiveResidues>
 VAL166  LYS551  ARG553  GLY616  TRP617  ASP618  TYR619  PRO620  LYS621  CYS622 
 ASP623  PHE694  ASN695  SER759  ASP760  ASP761  ALA762  ILE779  LEU786  VAL792 
 PHE793  MET794  SER795  GLU796  ALA797  LYS798  CYS799  TRP800  GLU811  SER814 

> <Gold.Protein.RotatedAtoms>
  152.4879  133.8422  159.7158 H   0  0  0  0  0  0  0  0  0  0  0  0  # atno 6907 bound_to 6896
  150.8982  133.7144  159.2892 H   0  0  0  0  0  0  0  0  0  0  0  0  # atno 6908 bound_to 6896
  151.4594  135.1041  159.9772 H   0  0  0  0  0  0  0  0  0  0  0  0  # atno 6909 bound_to 6896
  146.0329  140.6708  142.9124 H   0  0  0  0  0  0  0  0  0  0  0  0  # atno 7974 bound_to 7965
  154.8331  140.0439  157.1490 H   0  0  0  0  0  0  0  0  0  0  0  0  # atno 8008 bound_to 7997
  154.9130  140.3016  155.5236 H   0  0  0  0  0  0  0  0  0  0  0  0  # atno 8009 bound_to 7997
  156.2988  140.2354  156.4172 H   0  0  0  0  0  0  0  0  0  0  0  0  # atno 8010 bound_to 7997
  140.2704  143.3348  152.0540 H   0  0  0  0  0  0  0  0  0  0  0  0  # atno 10167 bound_to 10162
  156.4618  130.8217  151.2448 H   0  0  0  0  0  0  0  0  0  0  0  0  # atno 10718 bound_to 10713
  153.3718  135.3928  155.1794 H   0  0  0  0  0  0  0  0  0  0  0  0  # atno 10763 bound_to 10752
  154.8695  135.3704  154.4968 H   0  0  0  0  0  0  0  0  0  0  0  0  # atno 10764 bound_to 10752
  153.5436  135.7084  153.5685 H   0  0  0  0  0  0  0  0  0  0  0  0  # atno 10765 bound_to 10752
  140.1500  134.4473  155.8388 H   0  0  0  0  0  0  0  0  0  0  0  0  # atno 11005 bound_to 11000
  144.7039  140.3769  143.7134 LP  0  0  0  0  0  0  0  0  0  0  0  0  # atno 17320 bound_to 7965
  145.7010  139.1661  143.2592 LP  0  0  0  0  0  0  0  0  0  0  0  0  # atno 17321 bound_to 7965
  139.4990  144.6660  151.6355 LP  0  0  0  0  0  0  0  0  0  0  0  0  # atno 17342 bound_to 10162
  140.5894  143.9806  150.6315 LP  0  0  0  0  0  0  0  0  0  0  0  0  # atno 17343 bound_to 10162
  157.7497  131.0104  150.3307 LP  0  0  0  0  0  0  0  0  0  0  0  0  # atno 17370 bound_to 10713
  156.3708  130.3863  149.7177 LP  0  0  0  0  0  0  0  0  0  0  0  0  # atno 17371 bound_to 10713
  141.2198  133.6868  156.7404 LP  0  0  0  0  0  0  0  0  0  0  0  0  # atno 17394 bound_to 11000
  140.2616  134.8462  157.3764 LP  0  0  0  0  0  0  0  0  0  0  0  0  # atno 17395 bound_to 11000

$$$$
