AV-unprocessed.smi:651|AV-procd|sdf|3186|dock9
  -GOLD-   22720 0113D 1   1.00000     0.00000
 Structure written by MMmdl.
 38 39  0  0  0  0  0  0  0  0  1 V2000
  146.8736  136.3721  163.3491 C   0  0  0  0  0  0  0  0  0  0  0  0
  147.4287  136.0447  161.9786 C   0  0  0  0  0  0  0  0  0  0  0  0
  147.5441  134.7053  161.5512 C   0  0  0  0  0  0  0  0  0  0  0  0
  148.0541  134.4541  160.2631 C   0  0  0  0  0  0  0  0  0  0  0  0
  148.4281  135.5471  159.4544 C   0  0  0  0  0  0  0  0  0  0  0  0
  148.9728  135.3304  158.0519 C   0  0  0  0  0  0  0  0  0  0  0  0
  150.1488  136.2620  157.7340 C   0  0  0  0  0  0  0  0  0  0  0  0
  151.3097  135.8490  157.7274 O   0  0  0  0  0  0  0  0  0  0  0  0
  149.8254  137.5342  157.4569 N   0  0  0  0  0  0  0  0  0  0  0  0
  150.7827  138.5840  157.1038 C   0  0  2  0  0  0  0  0  0  0  0  0
  150.0680  139.9094  156.7800 C   0  0  0  0  0  0  0  0  0  0  0  0
  150.7923  140.5213  155.5733 C   0  0  0  0  0  0  0  0  0  0  0  0
  152.0356  139.6568  155.3447 C   0  0  0  0  0  0  0  0  0  0  0  0
  151.6804  138.2616  155.8797 C   0  0  2  0  0  0  0  0  0  0  0  0
  151.0110  137.4022  154.7849 C   0  0  0  0  0  0  0  0  0  0  0  0
  149.9993  137.9591  154.1146 N   0  0  0  0  0  0  0  0  0  0  0  0
  151.4015  136.2617  154.5413 O   0  0  0  0  0  0  0  0  0  0  0  0
  148.2746  136.8486  159.9784 C   0  0  0  0  0  0  0  0  0  0  0  0
  147.7856  137.0991  161.2121 N   0  0  0  0  0  0  0  0  0  0  0  0
  147.0401  135.5480  164.0434 H   0  0  0  0  0  0  0  0  0  0  0  0
  145.8007  136.5542  163.2844 H   0  0  0  0  0  0  0  0  0  0  0  0
  147.3495  137.2624  163.7615 H   0  0  0  0  0  0  0  0  0  0  0  0
  147.2457  133.8885  162.1919 H   0  0  0  0  0  0  0  0  0  0  0  0
  148.1507  133.4406  159.9020 H   0  0  0  0  0  0  0  0  0  0  0  0
  149.2964  134.2940  157.9465 H   0  0  0  0  0  0  0  0  0  0  0  0
  148.1788  135.4913  157.3215 H   0  0  0  0  0  0  0  0  0  0  0  0
  148.8497  137.7936  157.4775 H   0  0  0  0  0  0  0  0  0  0  0  0
  151.4346  138.7621  157.9616 H   0  0  0  0  0  0  0  0  0  0  0  0
  149.0165  139.7528  156.5347 H   0  0  0  0  0  0  0  0  0  0  0  0
  150.0993  140.5797  157.6398 H   0  0  0  0  0  0  0  0  0  0  0  0
  150.1452  140.4796  154.6963 H   0  0  0  0  0  0  0  0  0  0  0  0
  151.0506  141.5682  155.7348 H   0  0  0  0  0  0  0  0  0  0  0  0
  152.3444  139.6532  154.2984 H   0  0  0  0  0  0  0  0  0  0  0  0
  152.8696  140.0592  155.9213 H   0  0  0  0  0  0  0  0  0  0  0  0
  152.5854  137.7492  156.2109 H   0  0  0  0  0  0  0  0  0  0  0  0
  149.5256  137.4379  153.3911 H   0  0  0  0  0  0  0  0  0  0  0  0
  149.7092  138.9003  154.3369 H   0  0  0  0  0  0  0  0  0  0  0  0
  148.5452  137.7129  159.3899 H   0  0  0  0  0  0  0  0  0  0  0  0
  1  2  1  0  0  0  0
  1 20  1  0  0  0  0
  1 21  1  0  0  0  0
  1 22  1  0  0  0  0
  2 19  1  0  0  0  0
  2  3  2  0  0  0  0
  3  4  1  0  0  0  0
  3 23  1  0  0  0  0
  4  5  2  0  0  0  0
  4 24  1  0  0  0  0
  5  6  1  0  0  0  0
  5 18  1  0  0  0  0
  6  7  1  0  0  0  0
  6 25  1  0  0  0  0
  6 26  1  0  0  0  0
  7  8  2  0  0  0  0
  7  9  1  0  0  0  0
  9 10  1  0  0  0  0
  9 27  1  0  0  0  0
 10 14  1  0  0  0  0
 10 11  1  0  0  0  0
 10 28  1  0  0  0  0
 11 12  1  0  0  0  0
 11 29  1  0  0  0  0
 11 30  1  0  0  0  0
 12 13  1  0  0  0  0
 12 31  1  0  0  0  0
 12 32  1  0  0  0  0
 13 14  1  0  0  0  0
 13 33  1  0  0  0  0
 13 34  1  0  0  0  0
 14 15  1  0  0  0  0
 14 35  1  0  0  0  0
 15 16  1  0  0  0  0
 15 17  2  0  0  0  0
 16 36  1  0  0  0  0
 16 37  1  0  0  0  0
 18 19  2  0  0  0  0
 18 38  1  0  0  0  0
M  END
> <s_m_source_file>
AV-unprocessed.smi

> <i_m_source_file_index>
651

> <i_lp_mmshare_version>
43012

> <i_f3d_flags>
0

> <s_epik_input>
W0NIM11jMVtjSF1bY0hdYyhbY0hdbjEpW0NIMl1DKD1PKVtOSF1bQ0BASF0yW0NIMl1bQ0gyXVtDSDJdW0NASF0yQyg9TylbTkgyXQ==

> <s_epik_cmdline>
J2VwaWtfcHl0aG9uJywgJy1waCcsICc3LjAnLCAnLXRuJywgJzgnLCAnLW1hJywgJzIwMCcsICctbWV0YWxfYmluZGluZycsICctaW1hZScsICc8aW5maWxlLm1hZT4nLCAnLW9tYWUnLCAnPG91dGZpbGUubWFlPic=

> <r_epik_Ionization_Penalty>
0.0159502

> <r_epik_Ionization_Penalty_Charging>
0

> <r_epik_Ionization_Penalty_Neutral>
0.0159502

> <r_epik_State_Penalty>
0.012563

> <r_epik_Charging_Adjusted_Penalty>
0.012563

> <i_epik_Tot_Q>
0

> <i_epik_Tot_abs_Q>
0

> <r_epik_Metal_State_Penalty>
0.0122326

> <b_epik_Metal_Only>
0

> <s_lp_Force_Field>
OPLS_2005

> <r_lp_Energy>
13.1482

> <b_lp_Chiralities_Consistent>
1

> <s_lp_Variant>
AV-unprocessed.smi:651-3

> <Gold.Version>
5.8.1

> <Gold.Id.Protein>
6NUR|6NUR_protein|mol2

> <Gold.PLP.Fitness>
38.5505

> <Gold.PLP.PLP>
-28.1919

> <Gold.PLP.part.hbond>
-5.0000

> <Gold.PLP.part.metal>
0.0000

> <Gold.PLP.part.buried>
-2.3098

> <Gold.PLP.part.nonpolar>
-21.6880

> <Gold.PLP.part.repulsive>
1.0053

> <Gold.PLP.ligand.clash>
0.0000

> <Gold.PLP.ligand.torsion>
0.6125

> <Gold.PLP.Chemscore.Hbond>
3.8536

> <Gold.PLP.Chemscore.CHOScore>
0.0000

> <Gold.PLP.Chemscore.Metal>
0.0000

> <Gold.Chemscore.Hbonds>
donor molecule, donor type, donor heavy atom, donor atom, acceptor molecule, acceptor atom, score
      L1  H    16    36       P1  7948  1.00
      P1  H  6896  6909       L1     8  0.08
      P1  H  6931  6943       L1    19  1.00
      P1  H  6934  6947       L1    19  0.77
      P1  H 10752 10764       L1    17  1.00

> <Gold.PLP.Chemscore.Internal.Correction>
0.0230

> <Gold.Rescore>
     Score         DG    S(hbond)    S(metal)    S(lipo)     H(rot)  DE(clash)    DE(int)     intcor
     12.91     -16.24       2.19        0.00      72.58       1.97       1.22       2.12       ----

> <Gold.Chemscore.Fitness>
12.9054

> <Gold.Chemscore.DG>
-16.2414

> <Gold.Chemscore.ZeroCoef>
-5.4800

> <Gold.Chemscore.Hbond>
2.1898

> <Gold.Chemscore.Metal>
0.0000

> <Gold.Chemscore.Lipo>
72.5797

> <Gold.Chemscore.Internal_Hbond>
0.0000

> <Gold.Chemscore.DEClash>
1.2192

> <Gold.Chemscore.DEInternal>
2.1167

> <Gold.Chemscore.Rot>
1.9704

> <Gold.Chemscore.Internal.Correction>
   9.000000E+99

> <Gold.Chemscore.Hbonds>
donor molecule, donor type, donor heavy atom, donor atom, acceptor molecule, acceptor atom, score
      L1  H    16    36       P1  7948  0.85
      P1  H  6896  6909       L1     8  0.01
      P1  H  6931  6943       L1    19  0.31
      P1  H  6934  6947       L1    19  0.16
      P1  H 10752 10764       L1    17  1.00

> <Gold.Chemscore.Hbond.Weighted>
-7.3139

> <Gold.Chemscore.Metal.Weighted>
-0.0000

> <Gold.Chemscore.Lipo.Weighted>
-8.4918

> <Gold.Chemscore.Internal_Hbond.Weighted>
0.0000

> <Gold.Chemscore.DEClash.Weighted>
1.2192

> <Gold.Chemscore.DEInternal.Weighted>
2.1167

> <Gold.Chemscore.Rot.Weighted>
5.0443

> <Gold.Chemscore.Internal.Correction.Weighted>
   9.000000E+99

> <Gold.Protein.RotatedTorsions>
[ 6907 6896 6895 6894 ] final   92.20 input  -60.11 | X-H torsion
[ 7974 7965 7964 7962 ] final  -13.35 input  175.53 | X-H torsion
[ 8008 7997 7996 7995 ] final -117.11 input   59.86 | X-H torsion
[ 10167 10162 10161 10158 ] final  -19.51 input  -65.29 | X-H torsion
[ 10718 10713 10712 10709 ] final -170.73 input   66.30 | X-H torsion
[ 10763 10752 10751 10750 ] final  -57.99 input  -60.55 | X-H torsion
[ 11005 11000 10999 10996 ] final   95.47 input  -57.11 | X-H torsion

> <Gold.Protein.ActiveResidues>
 VAL166  LYS551  ARG553  GLY616  TRP617  ASP618  TYR619  PRO620  LYS621  CYS622 
 ASP623  PHE694  ASN695  SER759  ASP760  ASP761  ALA762  ILE779  LEU786  VAL792 
 PHE793  MET794  SER795  GLU796  ALA797  LYS798  CYS799  TRP800  GLU811  SER814 

> <Gold.Protein.RotatedAtoms>
  152.5452  134.1538  159.8529 H   0  0  0  0  0  0  0  0  0  0  0  0  # atno 6907 bound_to 6896
  151.1563  133.4867  159.2602 H   0  0  0  0  0  0  0  0  0  0  0  0  # atno 6908 bound_to 6896
  151.1420  135.0195  159.8685 H   0  0  0  0  0  0  0  0  0  0  0  0  # atno 6909 bound_to 6896
  146.2117  140.3191  142.8389 H   0  0  0  0  0  0  0  0  0  0  0  0  # atno 7974 bound_to 7965
  155.0785  140.0394  157.2631 H   0  0  0  0  0  0  0  0  0  0  0  0  # atno 8008 bound_to 7997
  154.6926  140.2656  155.6773 H   0  0  0  0  0  0  0  0  0  0  0  0  # atno 8009 bound_to 7997
  156.2734  140.2756  156.1509 H   0  0  0  0  0  0  0  0  0  0  0  0  # atno 8010 bound_to 7997
  140.7269  143.4812  151.0115 H   0  0  0  0  0  0  0  0  0  0  0  0  # atno 10167 bound_to 10162
  156.7305  130.9304  151.3104 H   0  0  0  0  0  0  0  0  0  0  0  0  # atno 10718 bound_to 10713
  154.2312  135.6360  153.5176 H   0  0  0  0  0  0  0  0  0  0  0  0  # atno 10763 bound_to 10752
  152.9948  135.5520  154.6011 H   0  0  0  0  0  0  0  0  0  0  0  0  # atno 10764 bound_to 10752
  154.5494  135.2900  155.0997 H   0  0  0  0  0  0  0  0  0  0  0  0  # atno 10765 bound_to 10752
  139.8789  134.8900  156.4016 H   0  0  0  0  0  0  0  0  0  0  0  0  # atno 11005 bound_to 11000
  144.8933  140.7551  143.5913 LP  0  0  0  0  0  0  0  0  0  0  0  0  # atno 17320 bound_to 7965
  145.3114  139.1817  143.4637 LP  0  0  0  0  0  0  0  0  0  0  0  0  # atno 17321 bound_to 7965
  139.8511  143.7438  152.3178 LP  0  0  0  0  0  0  0  0  0  0  0  0  # atno 17342 bound_to 10162
  139.7620  144.7503  151.0350 LP  0  0  0  0  0  0  0  0  0  0  0  0  # atno 17343 bound_to 10162
  157.6860  130.9186  150.0389 LP  0  0  0  0  0  0  0  0  0  0  0  0  # atno 17370 bound_to 10713
  156.1532  130.3642  149.9407 LP  0  0  0  0  0  0  0  0  0  0  0  0  # atno 17371 bound_to 10713
  140.9263  133.7610  155.9969 LP  0  0  0  0  0  0  0  0  0  0  0  0  # atno 17394 bound_to 11000
  140.8382  134.3098  157.5323 LP  0  0  0  0  0  0  0  0  0  0  0  0  # atno 17395 bound_to 11000

$$$$
