AV-unprocessed.smi:1282|AV-procd|sdf|5360|dock5
  -GOLD-   22720 4503D 1   1.00000     0.00000
 Structure written by MMmdl.
 36 37  0  0  0  0  0  0  0  0  1 V2000
  152.4646  144.3965  159.2015 C   0  0  0  0  0  0  0  0  0  0  0  0
  151.2320  143.9348  158.6772 O   0  0  0  0  0  0  0  0  0  0  0  0
  151.3534  143.4572  157.3480 C   0  0  0  0  0  0  0  0  0  0  0  0
  150.9520  141.9802  157.3059 C   0  0  0  0  0  0  0  0  0  0  0  0
  150.9698  141.5445  155.9501 O   0  0  0  0  0  0  0  0  0  0  0  0
  150.5198  140.2731  155.6593 C   0  0  0  0  0  0  0  0  0  0  0  0
  150.3575  139.3586  156.7186 C   0  0  0  0  0  0  0  0  0  0  0  0
  149.9011  138.0577  156.4322 C   0  0  0  0  0  0  0  0  0  0  0  0
  149.6295  137.7085  155.0877 C   0  0  0  0  0  0  0  0  0  0  0  0
  149.1483  136.4378  154.6708 N   0  0  0  0  0  0  0  0  0  0  0  0
  148.8623  135.3580  155.4208 C   0  0  0  0  0  0  0  0  0  0  0  0
  149.0096  135.2965  156.6415 O   0  0  0  0  0  0  0  0  0  0  0  0
  148.3460  134.1393  154.6435 C   0  0  0  0  0  0  0  0  0  0  0  0
  148.2239  132.8523  155.4787 C   0  0  0  0  0  0  0  0  0  0  0  0
  148.8464  132.0849  154.3085 C   0  0  0  0  0  0  0  0  0  0  0  0
  149.4096  133.4150  153.7987 C   0  0  0  0  0  0  0  0  0  0  0  0
  149.8105  138.7021  154.1031 C   0  0  0  0  0  0  0  0  0  0  0  0
  150.2469  139.9510  154.3709 N   0  0  0  0  0  0  0  0  0  0  0  0
  152.3207  144.7453  160.2242 H   0  0  0  0  0  0  0  0  0  0  0  0
  152.8553  145.2286  158.6144 H   0  0  0  0  0  0  0  0  0  0  0  0
  153.2098  143.6002  159.2192 H   0  0  0  0  0  0  0  0  0  0  0  0
  150.7114  144.0355  156.6817 H   0  0  0  0  0  0  0  0  0  0  0  0
  152.3813  143.5745  157.0014 H   0  0  0  0  0  0  0  0  0  0  0  0
  151.6509  141.3905  157.9017 H   0  0  0  0  0  0  0  0  0  0  0  0
  149.9553  141.8590  157.7337 H   0  0  0  0  0  0  0  0  0  0  0  0
  150.5751  139.6513  157.7352 H   0  0  0  0  0  0  0  0  0  0  0  0
  149.7571  137.3655  157.2468 H   0  0  0  0  0  0  0  0  0  0  0  0
  149.0604  136.3156  153.6724 H   0  0  0  0  0  0  0  0  0  0  0  0
  147.4386  134.3397  154.0702 H   0  0  0  0  0  0  0  0  0  0  0  0
  148.8492  132.8355  156.3734 H   0  0  0  0  0  0  0  0  0  0  0  0
  147.1987  132.5587  155.7054 H   0  0  0  0  0  0  0  0  0  0  0  0
  149.5998  131.3502  154.5940 H   0  0  0  0  0  0  0  0  0  0  0  0
  148.0980  131.6593  153.6383 H   0  0  0  0  0  0  0  0  0  0  0  0
  149.3031  133.5578  152.7230 H   0  0  0  0  0  0  0  0  0  0  0  0
  150.4378  133.5876  154.1220 H   0  0  0  0  0  0  0  0  0  0  0  0
  149.6031  138.4885  153.0647 H   0  0  0  0  0  0  0  0  0  0  0  0
  1  2  1  0  0  0  0
  1 19  1  0  0  0  0
  1 20  1  0  0  0  0
  1 21  1  0  0  0  0
  2  3  1  0  0  0  0
  3  4  1  0  0  0  0
  3 22  1  0  0  0  0
  3 23  1  0  0  0  0
  4  5  1  0  0  0  0
  4 24  1  0  0  0  0
  4 25  1  0  0  0  0
  5  6  1  0  0  0  0
  6 18  1  0  0  0  0
  6  7  2  0  0  0  0
  7  8  1  0  0  0  0
  7 26  1  0  0  0  0
  8  9  2  0  0  0  0
  8 27  1  0  0  0  0
  9 10  1  0  0  0  0
  9 17  1  0  0  0  0
 10 11  1  0  0  0  0
 10 28  1  0  0  0  0
 11 12  2  0  0  0  0
 11 13  1  0  0  0  0
 13 16  1  0  0  0  0
 13 14  1  0  0  0  0
 13 29  1  0  0  0  0
 14 15  1  0  0  0  0
 14 30  1  0  0  0  0
 14 31  1  0  0  0  0
 15 16  1  0  0  0  0
 15 32  1  0  0  0  0
 15 33  1  0  0  0  0
 16 34  1  0  0  0  0
 16 35  1  0  0  0  0
 17 18  2  0  0  0  0
 17 36  1  0  0  0  0
M  END
> <s_m_source_file>
AV-unprocessed.smi

> <i_m_source_file_index>
1282

> <i_lp_mmshare_version>
43012

> <i_f3d_flags>
0

> <s_epik_input>
W0NIM11PW0NIMl1bQ0gyXU9jMVtjSF1bY0hdYyhbY0hdbjEpW05IXUMoPU8pW0NIXTJbQ0gyXVtDSDJdW0NIMl0y

> <s_epik_cmdline>
J2VwaWtfcHl0aG9uJywgJy1waCcsICc3LjAnLCAnLXRuJywgJzgnLCAnLW1hJywgJzIwMCcsICctbWV0YWxfYmluZGluZycsICctaW1hZScsICc8aW5maWxlLm1hZT4nLCAnLW9tYWUnLCAnPG91dGZpbGUubWFlPic=

> <r_lp_tautomer_probability>
1

> <r_epik_Ionization_Penalty>
2.67646e-05

> <r_epik_Ionization_Penalty_Charging>
0

> <r_epik_Ionization_Penalty_Neutral>
2.67646e-05

> <r_epik_State_Penalty>
-0

> <r_epik_Charging_Adjusted_Penalty>
0

> <i_epik_Tot_Q>
0

> <i_epik_Tot_abs_Q>
0

> <r_epik_Metal_State_Penalty>
-0

> <b_epik_Metal_Only>
0

> <s_lp_Force_Field>
OPLS_2005

> <r_lp_Energy>
17.3297

> <b_lp_Chiralities_Consistent>
1

> <s_lp_Variant>
AV-unprocessed.smi:1282-1

> <Gold.Version>
5.8.1

> <Gold.Id.Protein>
6NUR|6NUR_protein|mol2

> <Gold.PLP.Fitness>
37.5732

> <Gold.PLP.PLP>
-27.2516

> <Gold.PLP.part.hbond>
-2.2569

> <Gold.PLP.part.metal>
0.0000

> <Gold.PLP.part.buried>
-3.3846

> <Gold.PLP.part.nonpolar>
-22.3058

> <Gold.PLP.part.repulsive>
0.2894

> <Gold.PLP.ligand.clash>
0.0000

> <Gold.PLP.ligand.torsion>
0.7738

> <Gold.PLP.Chemscore.Hbond>
2.0000

> <Gold.PLP.Chemscore.CHOScore>
1.8167

> <Gold.PLP.Chemscore.Metal>
0.0000

> <Gold.Chemscore.Hbonds>
donor molecule, donor type, donor heavy atom, donor atom, acceptor molecule, acceptor atom, score
      L1  H    10    28       P1  7948  1.00
      P1  H  7989  7998       L1    18  1.00
      L1  C    17    36       P1  7948  0.83
      L1  C    17    36       P1  7957  0.98

> <Gold.PLP.Chemscore.Internal.Correction>
0.4191

> <Gold.Rescore>
     Score         DG    S(hbond)    S(metal)    S(lipo)     H(rot)  DE(clash)    DE(int)     intcor
     13.29     -15.17       1.88        0.00      67.59       1.76       0.01       1.88       ----

> <Gold.Chemscore.Fitness>
13.2862

> <Gold.Chemscore.DG>
-15.1700

> <Gold.Chemscore.ZeroCoef>
-5.4800

> <Gold.Chemscore.Hbond>
1.8850

> <Gold.Chemscore.Metal>
0.0000

> <Gold.Chemscore.Lipo>
67.5931

> <Gold.Chemscore.Internal_Hbond>
0.0000

> <Gold.Chemscore.DEClash>
0.0073

> <Gold.Chemscore.DEInternal>
1.8765

> <Gold.Chemscore.Rot>
1.7634

> <Gold.Chemscore.Internal.Correction>
   9.000000E+99

> <Gold.Chemscore.Hbonds>
donor molecule, donor type, donor heavy atom, donor atom, acceptor molecule, acceptor atom, score
      L1  H    10    28       P1  7948  0.98
      P1  H  7989  7998       L1    18  0.30

> <Gold.Chemscore.Hbond.Weighted>
-6.2958

> <Gold.Chemscore.Metal.Weighted>
-0.0000

> <Gold.Chemscore.Lipo.Weighted>
-7.9084

> <Gold.Chemscore.Internal_Hbond.Weighted>
0.0000

> <Gold.Chemscore.DEClash.Weighted>
0.0073

> <Gold.Chemscore.DEInternal.Weighted>
1.8765

> <Gold.Chemscore.Rot.Weighted>
4.5142

> <Gold.Chemscore.Internal.Correction.Weighted>
   9.000000E+99

> <Gold.Protein.RotatedTorsions>
[ 6907 6896 6895 6894 ] final   13.86 input  -60.11 | X-H torsion
[ 7974 7965 7964 7962 ] final  -63.22 input  175.53 | X-H torsion
[ 8008 7997 7996 7995 ] final -139.99 input   59.86 | X-H torsion
[ 10167 10162 10161 10158 ] final    6.32 input  -65.29 | X-H torsion
[ 10718 10713 10712 10709 ] final -103.94 input   66.30 | X-H torsion
[ 10763 10752 10751 10750 ] final  -52.59 input  -60.55 | X-H torsion
[ 11005 11000 10999 10996 ] final   40.72 input  -57.11 | X-H torsion

> <Gold.Protein.ActiveResidues>
 VAL166  LYS551  ARG553  GLY616  TRP617  ASP618  TYR619  PRO620  LYS621  CYS622 
 ASP623  PHE694  ASN695  SER759  ASP760  ASP761  ALA762  ILE779  LEU786  VAL792 
 PHE793  MET794  SER795  GLU796  ALA797  LYS798  CYS799  TRP800  GLU811  SER814 

> <Gold.Protein.RotatedAtoms>
  151.7930  135.0730  160.0389 H   0  0  0  0  0  0  0  0  0  0  0  0  # atno 6907 bound_to 6896
  152.3143  133.5781  159.5710 H   0  0  0  0  0  0  0  0  0  0  0  0  # atno 6908 bound_to 6896
  150.7336  134.0022  159.3684 H   0  0  0  0  0  0  0  0  0  0  0  0  # atno 6909 bound_to 6896
  145.7817  140.8758  143.0327 H   0  0  0  0  0  0  0  0  0  0  0  0  # atno 7974 bound_to 7965
  155.4540  140.0541  157.2998 H   0  0  0  0  0  0  0  0  0  0  0  0  # atno 8008 bound_to 7997
  154.4765  140.2063  155.9821 H   0  0  0  0  0  0  0  0  0  0  0  0  # atno 8009 bound_to 7997
  156.1140  140.3199  155.8117 H   0  0  0  0  0  0  0  0  0  0  0  0  # atno 8010 bound_to 7997
  140.6434  143.7720  150.7462 H   0  0  0  0  0  0  0  0  0  0  0  0  # atno 10167 bound_to 10162
  156.0285  130.5491  150.7325 H   0  0  0  0  0  0  0  0  0  0  0  0  # atno 10718 bound_to 10713
  154.1452  135.6499  153.4951 H   0  0  0  0  0  0  0  0  0  0  0  0  # atno 10763 bound_to 10752
  153.0154  135.5325  154.6864 H   0  0  0  0  0  0  0  0  0  0  0  0  # atno 10764 bound_to 10752
  154.6137  135.2957  155.0375 H   0  0  0  0  0  0  0  0  0  0  0  0  # atno 10765 bound_to 10752
  140.1903  134.3994  155.8150 H   0  0  0  0  0  0  0  0  0  0  0  0  # atno 11005 bound_to 11000
  144.6795  139.9998  143.7484 LP  0  0  0  0  0  0  0  0  0  0  0  0  # atno 17320 bound_to 7965
  146.0067  139.3136  143.0895 LP  0  0  0  0  0  0  0  0  0  0  0  0  # atno 17321 bound_to 7965
  140.1356  143.4487  152.2226 LP  0  0  0  0  0  0  0  0  0  0  0  0  # atno 17342 bound_to 10162
  139.5644  144.7426  151.4065 LP  0  0  0  0  0  0  0  0  0  0  0  0  # atno 17343 bound_to 10162
  157.4914  131.0911  151.0423 LP  0  0  0  0  0  0  0  0  0  0  0  0  # atno 17370 bound_to 10713
  157.0828  130.5910  149.5424 LP  0  0  0  0  0  0  0  0  0  0  0  0  # atno 17371 bound_to 10713
  141.2226  133.7043  156.8084 LP  0  0  0  0  0  0  0  0  0  0  0  0  # atno 17394 bound_to 11000
  140.2167  134.8787  157.3333 LP  0  0  0  0  0  0  0  0  0  0  0  0  # atno 17395 bound_to 11000

$$$$
