AV-unprocessed.smi:2409|AV-procd|sdf|9523|dock4
  -GOLD-   2272013153D 1   1.00000     0.00000
 Structure written by MMmdl.
 35 36  0  0  0  0  0  0  0  0  1 V2000
  152.3668  139.4954  159.1005 C   0  0  0  0  0  0  0  0  0  0  0  0
  152.6574  140.4493  158.0932 O   0  0  0  0  0  0  0  0  0  0  0  0
  152.4529  141.7252  158.4844 C   0  0  0  0  0  0  0  0  0  0  0  0
  151.6131  142.7009  158.0238 C   0  0  0  0  0  0  0  0  0  0  0  0
  150.6695  142.6672  156.9661 N   0  0  0  0  0  0  0  0  0  0  0  0
  150.3396  141.6140  156.1959 C   0  0  0  0  0  0  0  0  0  0  0  0
  150.8156  140.4878  156.3209 O   0  0  0  0  0  0  0  0  0  0  0  0
  149.4199  141.8807  155.2515 N   0  0  0  0  0  0  0  0  0  0  0  0
  148.8628  140.9837  154.2819 C   0  0  1  0  0  0  0  0  0  0  0  0
  147.7921  140.0282  154.7624 C   0  0  0  0  0  0  0  0  0  0  0  0
  147.4188  141.1686  153.8526 C   0  0  1  0  0  0  0  0  0  0  0  0
  146.5674  142.3155  154.3608 C   0  0  0  0  0  0  0  0  0  0  0  0
  151.8228  143.8081  158.8913 C   0  0  0  0  0  0  0  0  0  0  0  0
  151.1542  145.1526  158.8940 C   0  0  0  0  0  0  0  0  0  0  0  0
  152.7638  143.5414  159.7903 N   0  0  0  0  0  0  0  0  0  0  0  0
  153.1576  142.2690  159.5376 N   0  0  0  0  0  0  0  0  0  0  0  0
  154.1790  141.6566  160.3620 C   0  0  0  0  0  0  0  0  0  0  0  0
  152.5623  138.4926  158.7209 H   0  0  0  0  0  0  0  0  0  0  0  0
  151.3214  139.5396  159.4078 H   0  0  0  0  0  0  0  0  0  0  0  0
  152.9947  139.6518  159.9789 H   0  0  0  0  0  0  0  0  0  0  0  0
  150.2700  143.5564  156.7043 H   0  0  0  0  0  0  0  0  0  0  0  0
  149.0484  142.8197  155.2415 H   0  0  0  0  0  0  0  0  0  0  0  0
  149.5382  140.5676  153.5358 H   0  0  0  0  0  0  0  0  0  0  0  0
  147.7858  139.0265  154.3371 H   0  0  0  0  0  0  0  0  0  0  0  0
  147.4860  140.0901  155.8052 H   0  0  0  0  0  0  0  0  0  0  0  0
  147.2061  140.9045  152.8183 H   0  0  0  0  0  0  0  0  0  0  0  0
  146.7385  142.4938  155.4228 H   0  0  0  0  0  0  0  0  0  0  0  0
  145.5113  142.0866  154.2173 H   0  0  0  0  0  0  0  0  0  0  0  0
  146.8034  143.2273  153.8119 H   0  0  0  0  0  0  0  0  0  0  0  0
  150.5509  145.2996  157.9982 H   0  0  0  0  0  0  0  0  0  0  0  0
  151.8885  145.9576  158.9316 H   0  0  0  0  0  0  0  0  0  0  0  0
  150.4970  145.2594  159.7570 H   0  0  0  0  0  0  0  0  0  0  0  0
  154.7440  140.9312  159.7761 H   0  0  0  0  0  0  0  0  0  0  0  0
  153.7108  141.1467  161.2041 H   0  0  0  0  0  0  0  0  0  0  0  0
  154.8665  142.4148  160.7390 H   0  0  0  0  0  0  0  0  0  0  0  0
  1  2  1  0  0  0  0
  1 18  1  0  0  0  0
  1 19  1  0  0  0  0
  1 20  1  0  0  0  0
  2  3  1  0  0  0  0
  3 16  1  0  0  0  0
  3  4  2  0  0  0  0
  4  5  1  0  0  0  0
  4 13  1  0  0  0  0
  5  6  1  0  0  0  0
  5 21  1  0  0  0  0
  6  7  2  0  0  0  0
  6  8  1  0  0  0  0
  8  9  1  0  0  0  0
  8 22  1  0  0  0  0
  9 11  1  0  0  0  0
  9 10  1  0  0  0  0
  9 23  1  0  0  0  0
 10 11  1  0  0  0  0
 10 24  1  0  0  0  0
 10 25  1  0  0  0  0
 11 12  1  0  0  0  0
 11 26  1  0  0  0  0
 12 27  1  0  0  0  0
 12 28  1  0  0  0  0
 12 29  1  0  0  0  0
 13 14  1  0  0  0  0
 13 15  2  0  0  0  0
 14 30  1  0  0  0  0
 14 31  1  0  0  0  0
 14 32  1  0  0  0  0
 15 16  1  0  0  0  0
 16 17  1  0  0  0  0
 17 33  1  0  0  0  0
 17 34  1  0  0  0  0
 17 35  1  0  0  0  0
M  END
> <s_m_source_file>
AV-unprocessed.smi

> <i_m_source_file_index>
2409

> <i_lp_mmshare_version>
43012

> <i_f3d_flags>
0

> <s_epik_input>
W0NIM11uMW5jKFtDSDNdKWMoYzFPW0NIM10pW05IXUMoPU8pW05IXVtDQEBIXTJbQ0gyXVtDQEhdMltDSDNd

> <s_epik_cmdline>
J2VwaWtfcHl0aG9uJywgJy1waCcsICc3LjAnLCAnLXRuJywgJzgnLCAnLW1hJywgJzIwMCcsICctbWV0YWxfYmluZGluZycsICctaW1hZScsICc8aW5maWxlLm1hZT4nLCAnLW9tYWUnLCAnPG91dGZpbGUubWFlPic=

> <r_lp_tautomer_probability>
1

> <r_epik_Ionization_Penalty>
0.000417804

> <r_epik_Ionization_Penalty_Charging>
0

> <r_epik_Ionization_Penalty_Neutral>
0.000417804

> <r_epik_State_Penalty>
-0

> <r_epik_Charging_Adjusted_Penalty>
0

> <i_epik_Tot_Q>
0

> <i_epik_Tot_abs_Q>
0

> <r_epik_Metal_State_Penalty>
-0

> <b_epik_Metal_Only>
0

> <s_lp_Force_Field>
OPLS_2005

> <r_lp_Energy>
35.5407

> <b_lp_Chiralities_Consistent>
1

> <s_lp_Variant>
AV-unprocessed.smi:2409-2

> <Gold.Version>
5.8.1

> <Gold.Id.Protein>
6NUR|6NUR_protein|mol2

> <Gold.PLP.Fitness>
45.5552

> <Gold.PLP.PLP>
-38.4801

> <Gold.PLP.part.hbond>
-2.9782

> <Gold.PLP.part.metal>
0.0000

> <Gold.PLP.part.buried>
-5.4103

> <Gold.PLP.part.nonpolar>
-29.3557

> <Gold.PLP.part.repulsive>
0.2603

> <Gold.PLP.ligand.clash>
0.0000

> <Gold.PLP.ligand.torsion>
0.3120

> <Gold.PLP.Chemscore.Hbond>
2.5536

> <Gold.PLP.Chemscore.CHOScore>
0.0000

> <Gold.PLP.Chemscore.Metal>
0.0000

> <Gold.Chemscore.Hbonds>
donor molecule, donor type, donor heavy atom, donor atom, acceptor molecule, acceptor atom, score
      L1  H     5    21       P1  8028  0.88
      L1  H     8    22       P1  8028  1.00
      P1  H  7997  8008       L1     2  0.47

> <Gold.PLP.Chemscore.Internal.Correction>
0.0383

> <Gold.Rescore>
     Score         DG    S(hbond)    S(metal)    S(lipo)     H(rot)  DE(clash)    DE(int)     intcor
     15.72     -18.91       2.31        0.00      75.80       1.23       0.01       3.18       ----

> <Gold.Chemscore.Fitness>
15.7175

> <Gold.Chemscore.DG>
-18.9145

> <Gold.Chemscore.ZeroCoef>
-5.4800

> <Gold.Chemscore.Hbond>
2.3090

> <Gold.Chemscore.Metal>
0.0000

> <Gold.Chemscore.Lipo>
75.8043

> <Gold.Chemscore.Internal_Hbond>
0.0000

> <Gold.Chemscore.DEClash>
0.0128

> <Gold.Chemscore.DEInternal>
3.1842

> <Gold.Chemscore.Rot>
1.2292

> <Gold.Chemscore.Internal.Correction>
   9.000000E+99

> <Gold.Chemscore.Hbonds>
donor molecule, donor type, donor heavy atom, donor atom, acceptor molecule, acceptor atom, score
      L1  H     5    21       P1  8028  0.83
      L1  H     8    22       P1  8028  0.99
      P1  H  7997  8008       L1     2  0.40

> <Gold.Chemscore.Hbond.Weighted>
-7.7120

> <Gold.Chemscore.Metal.Weighted>
-0.0000

> <Gold.Chemscore.Lipo.Weighted>
-8.8691

> <Gold.Chemscore.Internal_Hbond.Weighted>
0.0000

> <Gold.Chemscore.DEClash.Weighted>
0.0128

> <Gold.Chemscore.DEInternal.Weighted>
3.1842

> <Gold.Chemscore.Rot.Weighted>
3.1467

> <Gold.Chemscore.Internal.Correction.Weighted>
   9.000000E+99

> <Gold.Protein.RotatedTorsions>
[ 6907 6896 6895 6894 ] final -137.97 input  -60.11 | X-H torsion
[ 7974 7965 7964 7962 ] final  -11.36 input  175.53 | X-H torsion
[ 8008 7997 7996 7995 ] final  -75.39 input   59.86 | X-H torsion
[ 10167 10162 10161 10158 ] final -107.89 input  -65.29 | X-H torsion
[ 10718 10713 10712 10709 ] final    0.32 input   66.30 | X-H torsion
[ 10763 10752 10751 10750 ] final  142.03 input  -60.55 | X-H torsion
[ 11005 11000 10999 10996 ] final   23.00 input  -57.11 | X-H torsion

> <Gold.Protein.ActiveResidues>
 VAL166  LYS551  ARG553  GLY616  TRP617  ASP618  TYR619  PRO620  LYS621  CYS622 
 ASP623  PHE694  ASN695  SER759  ASP760  ASP761  ALA762  ILE779  LEU786  VAL792 
 PHE793  MET794  SER795  GLU796  ALA797  LYS798  CYS799  TRP800  GLU811  SER814 

> <Gold.Protein.RotatedAtoms>
  151.0291  133.5806  159.2662 H   0  0  0  0  0  0  0  0  0  0  0  0  # atno 6907 bound_to 6896
  151.2894  135.0736  159.9208 H   0  0  0  0  0  0  0  0  0  0  0  0  # atno 6908 bound_to 6896
  152.5341  133.9992  159.7941 H   0  0  0  0  0  0  0  0  0  0  0  0  # atno 6909 bound_to 6896
  146.2190  140.2900  142.8368 H   0  0  0  0  0  0  0  0  0  0  0  0  # atno 7974 bound_to 7965
  154.5413  140.0745  156.8514 H   0  0  0  0  0  0  0  0  0  0  0  0  # atno 8008 bound_to 7997
  155.3176  140.3394  155.4224 H   0  0  0  0  0  0  0  0  0  0  0  0  # atno 8009 bound_to 7997
  156.1877  140.1674  156.8140 H   0  0  0  0  0  0  0  0  0  0  0  0  # atno 8010 bound_to 7997
  140.1720  143.4035  152.1347 H   0  0  0  0  0  0  0  0  0  0  0  0  # atno 10167 bound_to 10162
  156.8316  130.5490  149.5686 H   0  0  0  0  0  0  0  0  0  0  0  0  # atno 10718 bound_to 10713
  153.9491  135.2972  155.3439 H   0  0  0  0  0  0  0  0  0  0  0  0  # atno 10763 bound_to 10752
  154.7436  135.5013  153.9168 H   0  0  0  0  0  0  0  0  0  0  0  0  # atno 10764 bound_to 10752
  153.1003  135.6732  153.9793 H   0  0  0  0  0  0  0  0  0  0  0  0  # atno 10765 bound_to 10752
  140.3744  134.1988  155.7665 H   0  0  0  0  0  0  0  0  0  0  0  0  # atno 11005 bound_to 11000
  144.9134  140.7784  143.5793 LP  0  0  0  0  0  0  0  0  0  0  0  0  # atno 17320 bound_to 7965
  145.2832  139.1911  143.4780 LP  0  0  0  0  0  0  0  0  0  0  0  0  # atno 17321 bound_to 7965
  139.5333  144.7183  151.4978 LP  0  0  0  0  0  0  0  0  0  0  0  0  # atno 17342 bound_to 10162
  140.6576  143.8567  150.6852 LP  0  0  0  0  0  0  0  0  0  0  0  0  # atno 17343 bound_to 10162
  156.0931  130.5911  150.9767 LP  0  0  0  0  0  0  0  0  0  0  0  0  # atno 17370 bound_to 10713
  157.6403  131.0911  150.8264 LP  0  0  0  0  0  0  0  0  0  0  0  0  # atno 17371 bound_to 10713
  141.1944  133.8129  157.0759 LP  0  0  0  0  0  0  0  0  0  0  0  0  # atno 17394 bound_to 11000
  140.0527  134.9797  157.1165 LP  0  0  0  0  0  0  0  0  0  0  0  0  # atno 17395 bound_to 11000

$$$$
