AV-unprocessed.smi:1741|AV-procd|sdf|7018|dock1
  -GOLD-   22720 8233D 1   1.00000     0.00000
 Structure written by MMmdl.
 38 39  0  0  0  0  0  0  0  0  1 V2000
  150.0154  140.7403  156.7113 C   0  0  0  0  0  0  0  0  0  0  0  0
  149.7339  141.4531  155.3830 C   0  0  0  0  0  0  0  0  0  0  0  0
  148.7766  140.7249  154.5730 N   0  0  0  0  0  0  0  0  0  0  0  0
  148.8614  139.4258  154.1125 C   0  0  0  0  0  0  0  0  0  0  0  0
  147.7155  139.2112  153.4000 C   0  0  0  0  0  0  0  0  0  0  0  0
  147.2892  138.0487  152.7089 N   0  0  0  0  0  0  0  0  0  0  0  0
  146.0419  137.5571  152.6297 C   0  0  0  0  0  0  0  0  0  0  0  0
  145.0461  138.0732  153.1374 O   0  0  0  0  0  0  0  0  0  0  0  0
  146.0158  136.4185  151.9219 N   0  0  0  0  0  0  0  0  0  0  0  0
  144.8311  135.6102  151.6410 C   0  0  2  0  0  0  0  0  0  0  0  0
  144.2544  135.1047  152.9724 C   0  0  0  0  0  0  0  0  0  0  0  0
  145.2098  134.4575  150.6906 C   0  0  1  0  0  0  0  0  0  0  0  0
  146.1711  133.4271  151.2851 C   0  0  0  0  0  0  0  0  0  0  0  0
  145.8812  132.1630  150.4913 C   0  0  0  0  0  0  0  0  0  0  0  0
  144.5448  132.4527  149.8027 C   0  0  0  0  0  0  0  0  0  0  0  0
  144.0760  133.6567  150.3930 O   0  0  0  0  0  0  0  0  0  0  0  0
  146.9828  140.4244  153.4706 C   0  0  0  0  0  0  0  0  0  0  0  0
  147.6305  141.3350  154.1812 N   0  0  0  0  0  0  0  0  0  0  0  0
  150.7431  141.2965  157.3022 H   0  0  0  0  0  0  0  0  0  0  0  0
  150.4165  139.7402  156.5441 H   0  0  0  0  0  0  0  0  0  0  0  0
  149.1083  140.6429  157.3085 H   0  0  0  0  0  0  0  0  0  0  0  0
  149.3489  142.4574  155.5650 H   0  0  0  0  0  0  0  0  0  0  0  0
  150.6575  141.5661  154.8142 H   0  0  0  0  0  0  0  0  0  0  0  0
  149.7093  138.7938  154.3312 H   0  0  0  0  0  0  0  0  0  0  0  0
  148.0137  137.5281  152.2365 H   0  0  0  0  0  0  0  0  0  0  0  0
  146.8883  136.0821  151.5419 H   0  0  0  0  0  0  0  0  0  0  0  0
  144.0650  136.2181  151.1568 H   0  0  0  0  0  0  0  0  0  0  0  0
  143.3366  134.5373  152.8182 H   0  0  0  0  0  0  0  0  0  0  0  0
  144.0133  135.9361  153.6356 H   0  0  0  0  0  0  0  0  0  0  0  0
  144.9621  134.4578  153.4922 H   0  0  0  0  0  0  0  0  0  0  0  0
  145.6183  134.8500  149.7570 H   0  0  0  0  0  0  0  0  0  0  0  0
  147.2143  133.7370  151.2187 H   0  0  0  0  0  0  0  0  0  0  0  0
  145.9376  133.2572  152.3371 H   0  0  0  0  0  0  0  0  0  0  0  0
  146.6589  131.9677  149.7521 H   0  0  0  0  0  0  0  0  0  0  0  0
  145.8174  131.2960  151.1498 H   0  0  0  0  0  0  0  0  0  0  0  0
  144.6918  132.6103  148.7333 H   0  0  0  0  0  0  0  0  0  0  0  0
  143.8228  131.6459  149.9318 H   0  0  0  0  0  0  0  0  0  0  0  0
  146.0239  140.6702  153.0389 H   0  0  0  0  0  0  0  0  0  0  0  0
  1  2  1  0  0  0  0
  1 19  1  0  0  0  0
  1 20  1  0  0  0  0
  1 21  1  0  0  0  0
  2  3  1  0  0  0  0
  2 22  1  0  0  0  0
  2 23  1  0  0  0  0
  3 18  1  0  0  0  0
  3  4  1  0  0  0  0
  4  5  2  0  0  0  0
  4 24  1  0  0  0  0
  5  6  1  0  0  0  0
  5 17  1  0  0  0  0
  6  7  1  0  0  0  0
  6 25  1  0  0  0  0
  7  8  2  0  0  0  0
  7  9  1  0  0  0  0
  9 10  1  0  0  0  0
  9 26  1  0  0  0  0
 10 11  1  0  0  0  0
 10 12  1  0  0  0  0
 10 27  1  0  0  0  0
 11 28  1  0  0  0  0
 11 29  1  0  0  0  0
 11 30  1  0  0  0  0
 12 16  1  0  0  0  0
 12 13  1  0  0  0  0
 12 31  1  0  0  0  0
 13 14  1  0  0  0  0
 13 32  1  0  0  0  0
 13 33  1  0  0  0  0
 14 15  1  0  0  0  0
 14 34  1  0  0  0  0
 14 35  1  0  0  0  0
 15 16  1  0  0  0  0
 15 36  1  0  0  0  0
 15 37  1  0  0  0  0
 17 18  2  0  0  0  0
 17 38  1  0  0  0  0
M  END
> <s_m_source_file>
AV-unprocessed.smi

> <i_m_source_file_index>
1741

> <i_lp_mmshare_version>
43012

> <i_f3d_flags>
0

> <s_epik_input>
W0NIM11bQ0gyXW4xW2NIXWMoW2NIXW4xKVtOSF1DKD1PKVtOSF1bQ0BIXShbQ0gzXSlbQ0BASF0yW0NIMl1bQ0gyXVtDSDJdTzI=

> <s_epik_cmdline>
J2VwaWtfcHl0aG9uJywgJy1waCcsICc3LjAnLCAnLXRuJywgJzgnLCAnLW1hJywgJzIwMCcsICctbWV0YWxfYmluZGluZycsICctaW1hZScsICc8aW5maWxlLm1hZT4nLCAnLW9tYWUnLCAnPG91dGZpbGUubWFlPic=

> <r_lp_tautomer_probability>
1

> <r_epik_Ionization_Penalty>
0.000179292

> <r_epik_Ionization_Penalty_Charging>
0

> <r_epik_Ionization_Penalty_Neutral>
0.000179292

> <r_epik_State_Penalty>
-0

> <r_epik_Charging_Adjusted_Penalty>
0

> <i_epik_Tot_Q>
0

> <i_epik_Tot_abs_Q>
0

> <r_epik_Metal_State_Penalty>
-0

> <b_epik_Metal_Only>
0

> <s_lp_Force_Field>
OPLS_2005

> <r_lp_Energy>
22.1528

> <b_lp_Chiralities_Consistent>
1

> <s_lp_Variant>
AV-unprocessed.smi:1741-3

> <Gold.Version>
5.8.1

> <Gold.Id.Protein>
6NUR|6NUR_protein|mol2

> <Gold.PLP.Fitness>
37.1216

> <Gold.PLP.PLP>
-29.2935

> <Gold.PLP.part.hbond>
-1.9868

> <Gold.PLP.part.metal>
0.0000

> <Gold.PLP.part.buried>
-3.5853

> <Gold.PLP.part.nonpolar>
-25.8124

> <Gold.PLP.part.repulsive>
1.7352

> <Gold.PLP.ligand.clash>
0.0000

> <Gold.PLP.ligand.torsion>
0.3267

> <Gold.PLP.Chemscore.Hbond>
1.8160

> <Gold.PLP.Chemscore.CHOScore>
1.0000

> <Gold.PLP.Chemscore.Metal>
0.0000

> <Gold.Chemscore.Hbonds>
donor molecule, donor type, donor heavy atom, donor atom, acceptor molecule, acceptor atom, score
      L1  H     6    25       P1  7948  1.00
      L1  H     9    26       P1  7948  0.77
      L1  C    17    38       P1 10175  1.00

> <Gold.PLP.Chemscore.Internal.Correction>
0.0335

> <Gold.Rescore>
     Score         DG    S(hbond)    S(metal)    S(lipo)     H(rot)  DE(clash)    DE(int)     intcor
     15.60     -16.10       1.91        0.00      66.58       1.38       0.01       0.49       ----

> <Gold.Chemscore.Fitness>
15.6014

> <Gold.Chemscore.DG>
-16.1035

> <Gold.Chemscore.ZeroCoef>
-5.4800

> <Gold.Chemscore.Hbond>
1.9054

> <Gold.Chemscore.Metal>
0.0000

> <Gold.Chemscore.Lipo>
66.5777

> <Gold.Chemscore.Internal_Hbond>
0.0000

> <Gold.Chemscore.DEClash>
0.0089

> <Gold.Chemscore.DEInternal>
0.4932

> <Gold.Chemscore.Rot>
1.3790

> <Gold.Chemscore.Internal.Correction>
   9.000000E+99

> <Gold.Chemscore.Hbonds>
donor molecule, donor type, donor heavy atom, donor atom, acceptor molecule, acceptor atom, score
      L1  H     6    25       P1  7948  0.99
      L1  H     9    26       P1  7948  0.74

> <Gold.Chemscore.Hbond.Weighted>
-6.3641

> <Gold.Chemscore.Metal.Weighted>
-0.0000

> <Gold.Chemscore.Lipo.Weighted>
-7.7896

> <Gold.Chemscore.Internal_Hbond.Weighted>
0.0000

> <Gold.Chemscore.DEClash.Weighted>
0.0089

> <Gold.Chemscore.DEInternal.Weighted>
0.4932

> <Gold.Chemscore.Rot.Weighted>
3.5302

> <Gold.Chemscore.Internal.Correction.Weighted>
   9.000000E+99

> <Gold.Protein.RotatedTorsions>
[ 6907 6896 6895 6894 ] final  -80.33 input  -60.11 | X-H torsion
[ 7974 7965 7964 7962 ] final   29.51 input  175.53 | X-H torsion
[ 8008 7997 7996 7995 ] final -119.82 input   59.86 | X-H torsion
[ 10167 10162 10161 10158 ] final  101.28 input  -65.29 | X-H torsion
[ 10718 10713 10712 10709 ] final  112.84 input   66.30 | X-H torsion
[ 10763 10752 10751 10750 ] final -173.22 input  -60.55 | X-H torsion
[ 11005 11000 10999 10996 ] final   40.15 input  -57.11 | X-H torsion

> <Gold.Protein.ActiveResidues>
 VAL166  LYS551  ARG553  GLY616  TRP617  ASP618  TYR619  PRO620  LYS621  CYS622 
 ASP623  PHE694  ASN695  SER759  ASP760  ASP761  ALA762  ILE779  LEU786  VAL792 
 PHE793  MET794  SER795  GLU796  ALA797  LYS798  CYS799  TRP800  GLU811  SER814 

> <Gold.Protein.RotatedAtoms>
  150.6931  134.3986  159.5108 H   0  0  0  0  0  0  0  0  0  0  0  0  # atno 6907 bound_to 6896
  152.1763  134.8789  160.0539 H   0  0  0  0  0  0  0  0  0  0  0  0  # atno 6908 bound_to 6896
  151.9796  133.3718  159.4139 H   0  0  0  0  0  0  0  0  0  0  0  0  # atno 6909 bound_to 6896
  146.1667  139.6912  142.8996 H   0  0  0  0  0  0  0  0  0  0  0  0  # atno 7974 bound_to 7965
  155.1218  140.0398  157.2752 H   0  0  0  0  0  0  0  0  0  0  0  0  # atno 8008 bound_to 7997
  154.6608  140.2590  155.7085 H   0  0  0  0  0  0  0  0  0  0  0  0  # atno 8009 bound_to 7997
  156.2618  140.2817  156.1079 H   0  0  0  0  0  0  0  0  0  0  0  0  # atno 8010 bound_to 7997
  139.7452  144.7000  151.0515 H   0  0  0  0  0  0  0  0  0  0  0  0  # atno 10167 bound_to 10162
  157.6371  131.0974  150.6954 H   0  0  0  0  0  0  0  0  0  0  0  0  # atno 10718 bound_to 10713
  154.6104  135.2864  155.0438 H   0  0  0  0  0  0  0  0  0  0  0  0  # atno 10763 bound_to 10752
  154.1670  135.6479  153.5004 H   0  0  0  0  0  0  0  0  0  0  0  0  # atno 10764 bound_to 10752
  153.0193  135.5392  154.6855 H   0  0  0  0  0  0  0  0  0  0  0  0  # atno 10765 bound_to 10752
  140.1959  134.3930  155.8122 H   0  0  0  0  0  0  0  0  0  0  0  0  # atno 11005 bound_to 11000
  145.4449  141.0425  143.2837 LP  0  0  0  0  0  0  0  0  0  0  0  0  # atno 17320 bound_to 7965
  144.8103  139.5975  143.7032 LP  0  0  0  0  0  0  0  0  0  0  0  0  # atno 17321 bound_to 7965
  140.7791  143.4876  150.9936 LP  0  0  0  0  0  0  0  0  0  0  0  0  # atno 17342 bound_to 10162
  139.8564  143.7372  152.3176 LP  0  0  0  0  0  0  0  0  0  0  0  0  # atno 17343 bound_to 10162
  156.7283  130.4702  149.5506 LP  0  0  0  0  0  0  0  0  0  0  0  0  # atno 17370 bound_to 10713
  156.1619  130.6379  151.0729 LP  0  0  0  0  0  0  0  0  0  0  0  0  # atno 17371 bound_to 10713
  141.2227  133.7069  156.8174 LP  0  0  0  0  0  0  0  0  0  0  0  0  # atno 17394 bound_to 11000
  140.2108  134.8829  157.3272 LP  0  0  0  0  0  0  0  0  0  0  0  0  # atno 17395 bound_to 11000

$$$$
