AV-unprocessed.smi:51|AV-procd|sdf|504|dock2
  -GOLD-   2262016373D 1   1.00000     0.00000
 Structure written by MMmdl.
 26 27  0  0  0  0  0  0  0  0  3 V2000
  151.5394  140.4144  157.3527 O   0  0  0  0  0  0  0  0  0  0  0  0
  152.4463  139.8936  158.0370 C   0  0  0  0  0  0  0  0  0  0  0  0
  153.2829  139.0608  157.6217 O   0  5  0  0  0  0  0  0  0  0  0  0
  152.5450  140.3362  159.5042 C   0  0  1  0  0  0  0  0  0  0  0  0
  153.6795  139.6155  160.2527 C   0  0  0  0  0  0  0  0  0  0  0  0
  154.1189  140.6467  161.2918 C   0  0  1  0  0  0  0  0  0  0  0  0
  155.4412  140.4415  161.7419 O   0  0  0  0  0  0  0  0  0  0  0  0
  153.9509  141.9825  160.5648 C   0  0  0  0  0  0  0  0  0  0  0  0
  152.8532  141.7604  159.6353 N   0  0  0  0  0  0  0  0  0  0  0  0
  151.9406  142.7853  159.3166 C   0  0  0  0  0  0  0  0  0  0  0  0
  152.2980  144.1445  159.4374 C   0  0  0  0  0  0  0  0  0  0  0  0
  151.3262  145.0995  159.0858 C   0  0  0  0  0  0  0  0  0  0  0  0
  150.1030  144.7071  158.6553 N   0  3  0  0  0  0  0  0  0  0  0  0
  149.8244  143.3988  158.5643 C   0  0  0  0  0  0  0  0  0  0  0  0
  150.7047  142.4447  158.8852 N   0  0  0  0  0  0  0  0  0  0  0  0
  151.5993  140.1396  160.0116 H   0  0  0  0  0  0  0  0  0  0  0  0
  153.3536  138.6783  160.7048 H   0  0  0  0  0  0  0  0  0  0  0  0
  154.5113  139.3899  159.5821 H   0  0  0  0  0  0  0  0  0  0  0  0
  153.4397  140.6083  162.1447 H   0  0  0  0  0  0  0  0  0  0  0  0
  155.9242  141.2457  161.6281 H   0  0  0  0  0  0  0  0  0  0  0  0
  153.7559  142.7889  161.2728 H   0  0  0  0  0  0  0  0  0  0  0  0
  154.8420  142.2371  159.9891 H   0  0  0  0  0  0  0  0  0  0  0  0
  153.2790  144.4519  159.7686 H   0  0  0  0  0  0  0  0  0  0  0  0
  151.4893  146.1662  159.1317 H   0  0  0  0  0  0  0  0  0  0  0  0
  148.8375  143.1335  158.2149 H   0  0  0  0  0  0  0  0  0  0  0  0
  149.4066  145.4075  158.4005 H   0  0  0  0  0  0  0  0  0  0  0  0
  1  2  2  0  0  0  0
  2  3  1  0  0  0  0
  2  4  1  0  0  0  0
  4  9  1  0  0  0  0
  4  5  1  0  0  0  0
  4 16  1  0  0  0  0
  5  6  1  0  0  0  0
  5 17  1  0  0  0  0
  5 18  1  0  0  0  0
  6  7  1  0  0  0  0
  6  8  1  0  0  0  0
  6 19  1  0  0  0  0
  7 20  1  0  0  0  0
  8  9  1  0  0  0  0
  8 21  1  0  0  0  0
  8 22  1  0  0  0  0
  9 10  1  0  0  0  0
 10 15  1  0  0  0  0
 10 11  2  0  0  0  0
 11 12  1  0  0  0  0
 11 23  1  0  0  0  0
 12 13  2  0  0  0  0
 12 24  1  0  0  0  0
 13 14  1  0  0  0  0
 13 26  1  0  0  0  0
 14 15  2  0  0  0  0
 14 25  1  0  0  0  0
M  CHG  1   3  -1
M  CHG  1  13   1
M  END
> <s_m_source_file>
AV-unprocessed.smi

> <i_m_source_file_index>
51

> <i_lp_mmshare_version>
43012

> <i_f3d_flags>
0

> <s_epik_input>
Tz1DKFtPSF0pW0NAQEhdMVtDSDJdW0NAQEhdKFtPSF0pW0NIMl1OMWMyW2NIXVtjSF1uW2NIXW4y

> <s_epik_cmdline>
J2VwaWtfcHl0aG9uJywgJy1waCcsICc3LjAnLCAnLXRuJywgJzgnLCAnLW1hJywgJzIwMCcsICctbWV0YWxfYmluZGluZycsICctaW1hZScsICc8aW5maWxlLm1hZT4nLCAnLW9tYWUnLCAnPG91dGZpbGUubWFlPic=

> <r_lp_tautomer_probability>
0.999336

> <r_epik_Ionization_Penalty>
0.688427

> <r_epik_Ionization_Penalty_Charging>
0.688427

> <r_epik_Ionization_Penalty_Neutral>
1.98379e-07

> <r_epik_State_Penalty>
0.709817

> <r_epik_Charging_Adjusted_Penalty>
1.39824

> <i_epik_Tot_Q>
0

> <i_epik_Tot_abs_Q>
2

> <r_epik_Metal_State_Penalty>
0.873261

> <b_epik_Metal_Only>
0

> <s_lp_Force_Field>
OPLS_2005

> <r_lp_Energy>
15.7

> <b_lp_Chiralities_Consistent>
1

> <s_lp_Variant>
AV-unprocessed.smi:51-6

> <Gold.Version>
5.8.1

> <Gold.Id.Protein>
6NUR|6NUR_protein|mol2

> <Gold.PLP.Fitness>
44.3859

> <Gold.PLP.PLP>
-32.5430

> <Gold.PLP.part.hbond>
-3.4679

> <Gold.PLP.part.metal>
0.0000

> <Gold.PLP.part.buried>
-4.6971

> <Gold.PLP.part.nonpolar>
-24.6001

> <Gold.PLP.part.repulsive>
0.2091

> <Gold.PLP.ligand.clash>
0.0000

> <Gold.PLP.ligand.torsion>
0.1437

> <Gold.PLP.Chemscore.Hbond>
4.0000

> <Gold.PLP.Chemscore.CHOScore>
0.0000

> <Gold.PLP.Chemscore.Metal>
0.0000

> <Gold.Chemscore.Hbonds>
donor molecule, donor type, donor heavy atom, donor atom, acceptor molecule, acceptor atom, score
      L1  H    13    26       P1  8029  1.98
      P1  H  7997  8008       L1     3  2.00

> <Gold.PLP.Chemscore.Internal.Correction>
0.1304

> <Gold.Rescore>
     Score         DG    S(hbond)    S(metal)    S(lipo)     H(rot)  DE(clash)    DE(int)     intcor
     11.88     -13.79       1.82        0.00      56.21       1.70       0.07       1.84       ----

> <Gold.Chemscore.Fitness>
11.8776

> <Gold.Chemscore.DG>
-13.7862

> <Gold.Chemscore.ZeroCoef>
-5.4800

> <Gold.Chemscore.Hbond>
1.8224

> <Gold.Chemscore.Metal>
0.0000

> <Gold.Chemscore.Lipo>
56.2107

> <Gold.Chemscore.Internal_Hbond>
0.0000

> <Gold.Chemscore.DEClash>
0.0727

> <Gold.Chemscore.DEInternal>
1.8359

> <Gold.Chemscore.Rot>
1.7020

> <Gold.Chemscore.Internal.Correction>
   9.000000E+99

> <Gold.Chemscore.Hbonds>
donor molecule, donor type, donor heavy atom, donor atom, acceptor molecule, acceptor atom, score
      L1  H    13    26       P1  8029  0.76
      P1  H  7997  8008       L1     3  0.40

> <Gold.Chemscore.Hbond.Weighted>
-6.0867

> <Gold.Chemscore.Metal.Weighted>
-0.0000

> <Gold.Chemscore.Lipo.Weighted>
-6.5767

> <Gold.Chemscore.Internal_Hbond.Weighted>
0.0000

> <Gold.Chemscore.DEClash.Weighted>
0.0727

> <Gold.Chemscore.DEInternal.Weighted>
1.8359

> <Gold.Chemscore.Rot.Weighted>
4.3571

> <Gold.Chemscore.Internal.Correction.Weighted>
   9.000000E+99

> <Gold.Protein.RotatedTorsions>
[ 6907 6896 6895 6894 ] final   48.47 input  -60.11 | X-H torsion
[ 7974 7965 7964 7962 ] final  175.51 input  175.53 | X-H torsion
[ 8008 7997 7996 7995 ] final  -73.23 input   59.86 | X-H torsion
[ 10167 10162 10161 10158 ] final   53.95 input  -65.29 | X-H torsion
[ 10718 10713 10712 10709 ] final -103.08 input   66.30 | X-H torsion
[ 10763 10752 10751 10750 ] final -105.22 input  -60.55 | X-H torsion
[ 11005 11000 10999 10996 ] final -139.09 input  -57.11 | X-H torsion

> <Gold.Protein.ActiveResidues>
 VAL166  LYS551  ARG553  GLY616  TRP617  ASP618  TYR619  PRO620  LYS621  CYS622 
 ASP623  PHE694  ASN695  SER759  ASP760  ASP761  ALA762  ILE779  LEU786  VAL792 
 PHE793  MET794  SER795  GLU796  ALA797  LYS798  CYS799  TRP800  GLU811  SER814 

> <Gold.Protein.RotatedAtoms>
  152.2799  134.7840  160.0398 H   0  0  0  0  0  0  0  0  0  0  0  0  # atno 6907 bound_to 6896
  151.8423  133.3420  159.3655 H   0  0  0  0  0  0  0  0  0  0  0  0  # atno 6908 bound_to 6896
  150.7185  134.5308  159.5743 H   0  0  0  0  0  0  0  0  0  0  0  0  # atno 6909 bound_to 6896
  144.7200  139.9958  143.6440 H   0  0  0  0  0  0  0  0  0  0  0  0  # atno 7974 bound_to 7965
  154.5230  140.0783  156.8208 H   0  0  0  0  0  0  0  0  0  0  0  0  # atno 8008 bound_to 7997
  155.3534  140.3414  155.4221 H   0  0  0  0  0  0  0  0  0  0  0  0  # atno 8009 bound_to 7997
  156.1702  140.1617  156.8448 H   0  0  0  0  0  0  0  0  0  0  0  0  # atno 8010 bound_to 7997
  140.2353  144.3642  150.6399 H   0  0  0  0  0  0  0  0  0  0  0  0  # atno 10167 bound_to 10162
  156.0252  130.5450  150.7201 H   0  0  0  0  0  0  0  0  0  0  0  0  # atno 10718 bound_to 10713
  154.7931  135.4757  154.0099 H   0  0  0  0  0  0  0  0  0  0  0  0  # atno 10763 bound_to 10752
  153.1662  135.6817  153.8679 H   0  0  0  0  0  0  0  0  0  0  0  0  # atno 10764 bound_to 10752
  153.8276  135.3196  155.3394 H   0  0  0  0  0  0  0  0  0  0  0  0  # atno 10765 bound_to 10752
  140.8553  134.2236  157.4738 H   0  0  0  0  0  0  0  0  0  0  0  0  # atno 11005 bound_to 11000
  146.0375  139.3391  143.0717 LP  0  0  0  0  0  0  0  0  0  0  0  0  # atno 17320 bound_to 7965
  145.8376  140.9598  143.0816 LP  0  0  0  0  0  0  0  0  0  0  0  0  # atno 17321 bound_to 7965
  140.6154  143.2172  151.6802 LP  0  0  0  0  0  0  0  0  0  0  0  0  # atno 17342 bound_to 10162
  139.5096  144.3572  152.0596 LP  0  0  0  0  0  0  0  0  0  0  0  0  # atno 17343 bound_to 10162
  157.4819  131.0903  151.0527 LP  0  0  0  0  0  0  0  0  0  0  0  0  # atno 17370 bound_to 10713
  157.0958  130.5961  149.5449 LP  0  0  0  0  0  0  0  0  0  0  0  0  # atno 17371 bound_to 10713
  139.8705  134.9703  156.4697 LP  0  0  0  0  0  0  0  0  0  0  0  0  # atno 17394 bound_to 11000
  140.8744  133.7964  155.9399 LP  0  0  0  0  0  0  0  0  0  0  0  0  # atno 17395 bound_to 11000

$$$$
