AV-unprocessed.smi:232|AV-procd|sdf|1778|dock5
  -GOLD-   2262020323D 1   1.00000     0.00000
 Structure written by MMmdl.
 52 55  0  0  0  0  0  0  0  0  1 V2000
  152.1607  145.1753  158.7369 C   0  0  0  0  0  0  0  0  0  0  0  0
  151.6417  143.7373  158.8645 C   0  0  0  0  0  0  0  0  0  0  0  0
  152.7641  142.7075  159.1190 C   0  0  1  0  0  0  0  0  0  0  0  0
  153.3928  142.8268  160.5216 C   0  0  0  0  0  0  0  0  0  0  0  0
  153.3600  141.4126  161.1112 C   0  0  0  0  0  0  0  0  0  0  0  0
  153.1079  140.4990  159.9115 C   0  0  2  0  0  0  0  0  0  0  0  0
  154.4275  140.0357  159.2600 C   0  0  0  0  0  0  0  0  0  0  0  0
  152.2929  141.3249  159.0275 N   0  0  0  0  0  0  0  0  0  0  0  0
  151.9211  140.7820  157.8372 C   0  0  0  0  0  0  0  0  0  0  0  0
  152.6638  139.7864  157.2831 N   0  0  0  0  0  0  0  0  0  0  0  0
  152.2977  139.2329  156.1238 C   0  0  0  0  0  0  0  0  0  0  0  0
  151.2408  139.5164  155.3612 N   0  0  0  0  0  0  0  0  0  0  0  0
  150.4929  140.5164  155.9086 C   0  0  0  0  0  0  0  0  0  0  0  0
  150.7575  141.1982  157.1301 C   0  0  0  0  0  0  0  0  0  0  0  0
  149.7809  142.1625  157.3517 N   0  0  0  0  0  0  0  0  0  0  0  0
  148.9877  142.0591  156.3206 C   0  0  0  0  0  0  0  0  0  0  0  0
  149.3438  141.0983  155.4029 N   0  0  0  0  0  0  0  0  0  0  0  0
  148.6545  140.7856  154.1647 C   0  0  0  0  0  0  0  0  0  0  0  0
  148.2997  139.2894  154.0337 C   0  0  2  0  0  0  0  0  0  0  0  0
  149.4042  138.6495  153.4266 O   0  0  0  0  0  0  0  0  0  0  0  0
  147.0293  139.0063  153.2011 C   0  0  1  0  0  0  0  0  0  0  0  0
  147.1988  139.1853  151.6907 C   0  0  0  0  0  0  0  0  0  0  0  0
  146.1049  138.3095  151.0992 C   0  0  0  0  0  0  0  0  0  0  0  0
  145.6944  137.3987  152.2587 C   0  0  0  0  0  0  0  0  0  0  0  0
  146.6643  137.6357  153.2673 O   0  0  0  0  0  0  0  0  0  0  0  0
  151.3420  145.8647  158.5298 H   0  0  0  0  0  0  0  0  0  0  0  0
  152.8806  145.2605  157.9223 H   0  0  0  0  0  0  0  0  0  0  0  0
  152.6489  145.5095  159.6524 H   0  0  0  0  0  0  0  0  0  0  0  0
  150.9038  143.6835  159.6659 H   0  0  0  0  0  0  0  0  0  0  0  0
  151.1051  143.4915  157.9485 H   0  0  0  0  0  0  0  0  0  0  0  0
  153.5527  142.8503  158.3784 H   0  0  0  0  0  0  0  0  0  0  0  0
  154.4185  143.1881  160.4390 H   0  0  0  0  0  0  0  0  0  0  0  0
  152.8545  143.5197  161.1690 H   0  0  0  0  0  0  0  0  0  0  0  0
  154.2650  141.1605  161.6650 H   0  0  0  0  0  0  0  0  0  0  0  0
  152.5208  141.3341  161.8039 H   0  0  0  0  0  0  0  0  0  0  0  0
  152.5483  139.6258  160.2454 H   0  0  0  0  0  0  0  0  0  0  0  0
  155.0338  139.4743  159.9710 H   0  0  0  0  0  0  0  0  0  0  0  0
  155.0247  140.8780  158.9097 H   0  0  0  0  0  0  0  0  0  0  0  0
  154.2430  139.3814  158.4075 H   0  0  0  0  0  0  0  0  0  0  0  0
  152.9443  138.4503  155.7551 H   0  0  0  0  0  0  0  0  0  0  0  0
  148.1197  142.6902  156.1958 H   0  0  0  0  0  0  0  0  0  0  0  0
  147.7530  141.3970  154.1061 H   0  0  0  0  0  0  0  0  0  0  0  0
  149.2926  141.0954  153.3358 H   0  0  0  0  0  0  0  0  0  0  0  0
  148.1795  138.8578  155.0284 H   0  0  0  0  0  0  0  0  0  0  0  0
  149.7582  139.2256  152.7666 H   0  0  0  0  0  0  0  0  0  0  0  0
  146.1971  139.6182  153.5554 H   0  0  0  0  0  0  0  0  0  0  0  0
  147.1215  140.2268  151.3774 H   0  0  0  0  0  0  0  0  0  0  0  0
  148.1744  138.8115  151.3765 H   0  0  0  0  0  0  0  0  0  0  0  0
  145.2562  138.9046  150.7605 H   0  0  0  0  0  0  0  0  0  0  0  0
  146.4782  137.7391  150.2479 H   0  0  0  0  0  0  0  0  0  0  0  0
  144.7093  137.6759  152.6371 H   0  0  0  0  0  0  0  0  0  0  0  0
  145.6693  136.3454  151.9787 H   0  0  0  0  0  0  0  0  0  0  0  0
  1  2  1  0  0  0  0
  1 26  1  0  0  0  0
  1 27  1  0  0  0  0
  1 28  1  0  0  0  0
  2  3  1  0  0  0  0
  2 29  1  0  0  0  0
  2 30  1  0  0  0  0
  3  8  1  0  0  0  0
  3  4  1  0  0  0  0
  3 31  1  0  0  0  0
  4  5  1  0  0  0  0
  4 32  1  0  0  0  0
  4 33  1  0  0  0  0
  5  6  1  0  0  0  0
  5 34  1  0  0  0  0
  5 35  1  0  0  0  0
  6  7  1  0  0  0  0
  6  8  1  0  0  0  0
  6 36  1  0  0  0  0
  7 37  1  0  0  0  0
  7 38  1  0  0  0  0
  7 39  1  0  0  0  0
  8  9  1  0  0  0  0
  9 14  1  0  0  0  0
  9 10  2  0  0  0  0
 10 11  1  0  0  0  0
 11 12  2  0  0  0  0
 11 40  1  0  0  0  0
 12 13  1  0  0  0  0
 13 17  1  0  0  0  0
 13 14  2  0  0  0  0
 14 15  1  0  0  0  0
 15 16  2  0  0  0  0
 16 17  1  0  0  0  0
 16 41  1  0  0  0  0
 17 18  1  0  0  0  0
 18 19  1  0  0  0  0
 18 42  1  0  0  0  0
 18 43  1  0  0  0  0
 19 20  1  0  0  0  0
 19 21  1  0  0  0  0
 19 44  1  0  0  0  0
 20 45  1  0  0  0  0
 21 25  1  0  0  0  0
 21 22  1  0  0  0  0
 21 46  1  0  0  0  0
 22 23  1  0  0  0  0
 22 47  1  0  0  0  0
 22 48  1  0  0  0  0
 23 24  1  0  0  0  0
 23 49  1  0  0  0  0
 23 50  1  0  0  0  0
 24 25  1  0  0  0  0
 24 51  1  0  0  0  0
 24 52  1  0  0  0  0
M  END
> <s_m_source_file>
AV-unprocessed.smi

> <i_m_source_file_index>
232

> <i_lp_mmshare_version>
43012

> <i_f3d_flags>
0

> <s_epik_input>
W0NIM11bQ0gyXVtDQEBIXTFbQ0gyXVtDSDJdW0NAQEhdKFtDSDNdKU4xYyhuW2NIXW4yKWMoYzIzKW5bY0hdbjNbQ0gyXVtDQEhdKFtPSF0pW0NAQEhdNFtDSDJdW0NIMl1bQ0gyXU80

> <s_epik_cmdline>
J2VwaWtfcHl0aG9uJywgJy1waCcsICc3LjAnLCAnLXRuJywgJzgnLCAnLW1hJywgJzIwMCcsICctbWV0YWxfYmluZGluZycsICctaW1hZScsICc8aW5maWxlLm1hZT4nLCAnLW9tYWUnLCAnPG91dGZpbGUubWFlPic=

> <r_lp_tautomer_probability>
1

> <r_epik_Ionization_Penalty>
0.00258048

> <r_epik_Ionization_Penalty_Charging>
0

> <r_epik_Ionization_Penalty_Neutral>
0.00258048

> <r_epik_State_Penalty>
0.00168551

> <r_epik_Charging_Adjusted_Penalty>
0.00168551

> <i_epik_Tot_Q>
0

> <i_epik_Tot_abs_Q>
0

> <r_epik_Metal_State_Penalty>
-0

> <b_epik_Metal_Only>
0

> <s_lp_Force_Field>
OPLS_2005

> <r_lp_Energy>
52.3854

> <b_lp_Chiralities_Consistent>
1

> <s_lp_Variant>
AV-unprocessed.smi:232-12

> <Gold.Version>
5.8.1

> <Gold.Id.Protein>
6NUR|6NUR_protein|mol2

> <Gold.PLP.Fitness>
46.9503

> <Gold.PLP.PLP>
-43.8269

> <Gold.PLP.part.hbond>
-3.0000

> <Gold.PLP.part.metal>
0.0000

> <Gold.PLP.part.buried>
6.9319

> <Gold.PLP.part.nonpolar>
-48.7120

> <Gold.PLP.part.repulsive>
0.4201

> <Gold.PLP.ligand.clash>
3.1840

> <Gold.PLP.ligand.torsion>
0.9803

> <Gold.PLP.Chemscore.Hbond>
2.0894

> <Gold.PLP.Chemscore.CHOScore>
0.5607

> <Gold.PLP.Chemscore.Metal>
0.0000

> <Gold.Chemscore.Hbonds>
donor molecule, donor type, donor heavy atom, donor atom, acceptor molecule, acceptor atom, score
      L1  H    20    45       P1  7957  0.99
      P1  H  7989  7998       L1    12  0.12
      P1  H  7997  8010       L1    10  0.95
      L1  C    16    41       P1  8028  0.55

> <Gold.PLP.Chemscore.Internal.Correction>
0.3180

> <Gold.Rescore>
     Score         DG    S(hbond)    S(metal)    S(lipo)     H(rot)  DE(clash)    DE(int)     intcor
     10.41     -17.84       1.22        0.00     123.77       2.43       3.64       3.78       ----

> <Gold.Chemscore.Fitness>
10.4123

> <Gold.Chemscore.DG>
-17.8383

> <Gold.Chemscore.ZeroCoef>
-5.4800

> <Gold.Chemscore.Hbond>
1.2239

> <Gold.Chemscore.Metal>
0.0000

> <Gold.Chemscore.Lipo>
123.7713

> <Gold.Chemscore.Internal_Hbond>
0.0000

> <Gold.Chemscore.DEClash>
3.6444

> <Gold.Chemscore.DEInternal>
3.7816

> <Gold.Chemscore.Rot>
2.4260

> <Gold.Chemscore.Internal.Correction>
   9.000000E+99

> <Gold.Chemscore.Hbonds>
donor molecule, donor type, donor heavy atom, donor atom, acceptor molecule, acceptor atom, score
      L1  H    20    45       P1  7957  0.91
      P1  H  7989  7998       L1    12  0.01
      P1  H  7997  8010       L1    10  0.20

> <Gold.Chemscore.Hbond.Weighted>
-4.0877

> <Gold.Chemscore.Metal.Weighted>
-0.0000

> <Gold.Chemscore.Lipo.Weighted>
-14.4812

> <Gold.Chemscore.Internal_Hbond.Weighted>
0.0000

> <Gold.Chemscore.DEClash.Weighted>
3.6444

> <Gold.Chemscore.DEInternal.Weighted>
3.7816

> <Gold.Chemscore.Rot.Weighted>
6.2107

> <Gold.Chemscore.Internal.Correction.Weighted>
   9.000000E+99

> <Gold.Protein.RotatedTorsions>
[ 6907 6896 6895 6894 ] final   14.75 input  -60.11 | X-H torsion
[ 7974 7965 7964 7962 ] final   73.89 input  175.53 | X-H torsion
[ 8008 7997 7996 7995 ] final   40.32 input   59.86 | X-H torsion
[ 10167 10162 10161 10158 ] final -177.30 input  -65.29 | X-H torsion
[ 10718 10713 10712 10709 ] final  -85.48 input   66.30 | X-H torsion
[ 10763 10752 10751 10750 ] final -171.99 input  -60.55 | X-H torsion
[ 11005 11000 10999 10996 ] final -138.92 input  -57.11 | X-H torsion

> <Gold.Protein.ActiveResidues>
 VAL166  LYS551  ARG553  GLY616  TRP617  ASP618  TYR619  PRO620  LYS621  CYS622 
 ASP623  PHE694  ASN695  SER759  ASP760  ASP761  ALA762  ILE779  LEU786  VAL792 
 PHE793  MET794  SER795  GLU796  ALA797  LYS798  CYS799  TRP800  GLU811  SER814 

> <Gold.Protein.RotatedAtoms>
  151.8073  135.0691  160.0407 H   0  0  0  0  0  0  0  0  0  0  0  0  # atno 6907 bound_to 6896
  152.3046  133.5686  159.5649 H   0  0  0  0  0  0  0  0  0  0  0  0  # atno 6908 bound_to 6896
  150.7290  134.0157  159.3726 H   0  0  0  0  0  0  0  0  0  0  0  0  # atno 6909 bound_to 6896
  145.7351  139.2699  143.1518 H   0  0  0  0  0  0  0  0  0  0  0  0  # atno 7974 bound_to 7965
  155.2512  140.3352  155.4282 H   0  0  0  0  0  0  0  0  0  0  0  0  # atno 8008 bound_to 7997
  156.2215  140.1811  156.7510 H   0  0  0  0  0  0  0  0  0  0  0  0  # atno 8009 bound_to 7997
  154.5832  140.0650  156.9119 H   0  0  0  0  0  0  0  0  0  0  0  0  # atno 8010 bound_to 7997
  139.5487  144.2167  152.1036 H   0  0  0  0  0  0  0  0  0  0  0  0  # atno 10167 bound_to 10162
  155.9996  130.4732  150.4569 H   0  0  0  0  0  0  0  0  0  0  0  0  # atno 10718 bound_to 10713
  154.6243  135.2879  155.0290 H   0  0  0  0  0  0  0  0  0  0  0  0  # atno 10763 bound_to 10752
  154.1473  135.6509  153.4959 H   0  0  0  0  0  0  0  0  0  0  0  0  # atno 10764 bound_to 10752
  153.0250  135.5347  154.7045 H   0  0  0  0  0  0  0  0  0  0  0  0  # atno 10765 bound_to 10752
  140.8570  134.2216  157.4729 H   0  0  0  0  0  0  0  0  0  0  0  0  # atno 11005 bound_to 11000
  146.0500  140.8078  142.9786 LP  0  0  0  0  0  0  0  0  0  0  0  0  # atno 17320 bound_to 7965
  144.6883  140.3039  143.7259 LP  0  0  0  0  0  0  0  0  0  0  0  0  # atno 17321 bound_to 7965
  140.1658  144.4983  150.6607 LP  0  0  0  0  0  0  0  0  0  0  0  0  # atno 17342 bound_to 10162
  140.6743  143.2298  151.5546 LP  0  0  0  0  0  0  0  0  0  0  0  0  # atno 17343 bound_to 10162
  157.2597  131.0564  151.2328 LP  0  0  0  0  0  0  0  0  0  0  0  0  # atno 17370 bound_to 10713
  157.3447  130.7051  149.6403 LP  0  0  0  0  0  0  0  0  0  0  0  0  # atno 17371 bound_to 10713
  139.8705  134.9711  156.4725 LP  0  0  0  0  0  0  0  0  0  0  0  0  # atno 17394 bound_to 11000
  140.8726  133.7977  155.9380 LP  0  0  0  0  0  0  0  0  0  0  0  0  # atno 17395 bound_to 11000

$$$$
