AV-unprocessed.smi:79|AV-procd|sdf|780|dock5
  -GOLD-   2262017143D 1   1.00000     0.00000
 Structure written by MMmdl.
 56 59  0  0  0  0  0  0  0  0  2 V2000
  146.2189  132.3346  150.4435 C   0  0  0  0  0  0  0  0  0  0  0  0
  144.8978  133.0966  150.2626 C   0  0  1  0  0  0  0  0  0  0  0  0
  144.4290  132.8603  148.9520 O   0  0  0  0  0  0  0  0  0  0  0  0
  143.8048  132.6568  151.2572 C   0  0  0  0  0  0  0  0  0  0  0  0
  143.8366  133.4254  152.5279 N   0  3  1  0  0  0  0  0  0  0  0  0
  145.2017  133.5535  153.1075 C   0  0  0  0  0  0  0  0  0  0  0  0
  145.1723  134.3109  154.4486 C   0  0  0  0  0  0  0  0  0  0  0  0
  144.5156  135.6052  154.3002 N   0  0  0  0  0  0  0  0  0  0  0  0
  145.3679  136.5845  153.9023 C   0  0  0  0  0  0  0  0  0  0  0  0
  145.2562  137.1443  152.6690 N   0  0  0  0  0  0  0  0  0  0  0  0
  146.1153  138.0905  152.2787 C   0  0  0  0  0  0  0  0  0  0  0  0
  147.1449  138.6099  152.9499 N   0  0  0  0  0  0  0  0  0  0  0  0
  147.2664  138.0452  154.1855 C   0  0  0  0  0  0  0  0  0  0  0  0
  146.4312  137.0315  154.7321 C   0  0  0  0  0  0  0  0  0  0  0  0
  146.8623  136.6963  156.0089 N   0  0  0  0  0  0  0  0  0  0  0  0
  147.8917  137.4737  156.2095 C   0  0  0  0  0  0  0  0  0  0  0  0
  148.1976  138.3254  155.1711 N   0  0  0  0  0  0  0  0  0  0  0  0
  149.2821  139.2939  155.1240 C   0  0  0  0  0  0  0  0  0  0  0  0
  148.8488  140.7648  155.3094 C   0  0  0  0  0  0  0  0  0  0  0  0
  148.0606  141.2572  154.0813 C   0  0  0  0  0  0  0  0  0  0  0  0
  147.5019  142.5402  154.2843 O   0  0  0  0  0  0  0  0  0  0  0  0
  148.2722  141.1416  156.6833 C   0  0  0  0  0  0  0  0  0  0  0  0
  149.5137  141.7403  157.1097 O   0  0  0  0  0  0  0  0  0  0  0  0
  149.9970  141.6848  155.7515 C   0  0  0  0  0  0  0  0  0  0  0  0
  143.1606  135.5072  153.7448 C   0  0  1  0  0  0  0  0  0  0  0  0
  142.4064  136.8496  153.6888 C   0  0  0  0  0  0  0  0  0  0  0  0
  143.1501  134.7386  152.4048 C   0  0  0  0  0  0  0  0  0  0  0  0
  146.6479  132.5147  151.4292 H   0  0  0  0  0  0  0  0  0  0  0  0
  146.9573  132.6496  149.7052 H   0  0  0  0  0  0  0  0  0  0  0  0
  146.0771  131.2588  150.3333 H   0  0  0  0  0  0  0  0  0  0  0  0
  145.0821  134.1675  150.3425 H   0  0  0  0  0  0  0  0  0  0  0  0
  144.8328  133.4821  148.3657 H   0  0  0  0  0  0  0  0  0  0  0  0
  142.8144  132.7518  150.8083 H   0  0  0  0  0  0  0  0  0  0  0  0
  143.9407  131.5951  151.4694 H   0  0  0  0  0  0  0  0  0  0  0  0
  145.6417  132.5705  153.2687 H   0  0  0  0  0  0  0  0  0  0  0  0
  145.8482  134.0745  152.3995 H   0  0  0  0  0  0  0  0  0  0  0  0
  144.6259  133.7295  155.1918 H   0  0  0  0  0  0  0  0  0  0  0  0
  146.1855  134.4255  154.8370 H   0  0  0  0  0  0  0  0  0  0  0  0
  145.9549  138.4880  151.2872 H   0  0  0  0  0  0  0  0  0  0  0  0
  148.4586  137.4443  157.1281 H   0  0  0  0  0  0  0  0  0  0  0  0
  150.0034  139.0134  155.8926 H   0  0  0  0  0  0  0  0  0  0  0  0
  149.8071  139.1728  154.1758 H   0  0  0  0  0  0  0  0  0  0  0  0
  148.7079  141.3267  153.2066 H   0  0  0  0  0  0  0  0  0  0  0  0
  147.2651  140.5599  153.8172 H   0  0  0  0  0  0  0  0  0  0  0  0
  148.1780  143.1128  154.6132 H   0  0  0  0  0  0  0  0  0  0  0  0
  147.4658  141.8753  156.6404 H   0  0  0  0  0  0  0  0  0  0  0  0
  147.9880  140.2918  157.3025 H   0  0  0  0  0  0  0  0  0  0  0  0
  150.9854  141.2294  155.6793 H   0  0  0  0  0  0  0  0  0  0  0  0
  149.9926  142.6698  155.2821 H   0  0  0  0  0  0  0  0  0  0  0  0
  142.6103  134.8936  154.4593 H   0  0  0  0  0  0  0  0  0  0  0  0
  141.3602  136.6909  153.4262 H   0  0  0  0  0  0  0  0  0  0  0  0
  142.8209  137.5335  152.9492 H   0  0  0  0  0  0  0  0  0  0  0  0
  142.4272  137.3506  154.6572 H   0  0  0  0  0  0  0  0  0  0  0  0
  143.6226  135.3214  151.6137 H   0  0  0  0  0  0  0  0  0  0  0  0
  142.1175  134.5750  152.0937 H   0  0  0  0  0  0  0  0  0  0  0  0
  143.2917  132.8961  153.1932 H   0  0  0  0  0  0  0  0  0  0  0  0
  1  2  1  0  0  0  0
  1 28  1  0  0  0  0
  1 29  1  0  0  0  0
  1 30  1  0  0  0  0
  2  3  1  0  0  0  0
  2  4  1  0  0  0  0
  2 31  1  0  0  0  0
  3 32  1  0  0  0  0
  4  5  1  0  0  0  0
  4 33  1  0  0  0  0
  4 34  1  0  0  0  0
  5 27  1  0  0  0  0
  5  6  1  0  0  0  0
  5 56  1  0  0  0  0
  6  7  1  0  0  0  0
  6 35  1  0  0  0  0
  6 36  1  0  0  0  0
  7  8  1  0  0  0  0
  7 37  1  0  0  0  0
  7 38  1  0  0  0  0
  8  9  1  0  0  0  0
  8 25  1  0  0  0  0
  9 14  1  0  0  0  0
  9 10  2  0  0  0  0
 10 11  1  0  0  0  0
 11 12  2  0  0  0  0
 11 39  1  0  0  0  0
 12 13  1  0  0  0  0
 13 17  1  0  0  0  0
 13 14  2  0  0  0  0
 14 15  1  0  0  0  0
 15 16  2  0  0  0  0
 16 17  1  0  0  0  0
 16 40  1  0  0  0  0
 17 18  1  0  0  0  0
 18 19  1  0  0  0  0
 18 41  1  0  0  0  0
 18 42  1  0  0  0  0
 19 24  1  0  0  0  0
 19 20  1  0  0  0  0
 19 22  1  0  0  0  0
 20 21  1  0  0  0  0
 20 43  1  0  0  0  0
 20 44  1  0  0  0  0
 21 45  1  0  0  0  0
 22 23  1  0  0  0  0
 22 46  1  0  0  0  0
 22 47  1  0  0  0  0
 23 24  1  0  0  0  0
 24 48  1  0  0  0  0
 24 49  1  0  0  0  0
 25 26  1  0  0  0  0
 25 27  1  0  0  0  0
 25 50  1  0  0  0  0
 26 51  1  0  0  0  0
 26 52  1  0  0  0  0
 26 53  1  0  0  0  0
 27 54  1  0  0  0  0
 27 55  1  0  0  0  0
M  CHG  1   5   1
M  END
> <s_m_source_file>
AV-unprocessed.smi

> <i_m_source_file_index>
79

> <i_lp_mmshare_version>
43012

> <i_f3d_flags>
0

> <s_epik_input>
W0NIM11bQ0BIXShbT0hdKVtDSDJdTjFbQ0gyXVtDSDJdTihbQ0BASF0oW0NIM10pW0NIMl0xKWMobltjSF1uMiljKGMyMyluW2NIXW4zW0NIMl1DNChbQ0gyXVtPSF0pW0NIMl1PW0NIMl00

> <s_epik_cmdline>
J2VwaWtfcHl0aG9uJywgJy1waCcsICc3LjAnLCAnLXRuJywgJzgnLCAnLW1hJywgJzIwMCcsICctbWV0YWxfYmluZGluZycsICctaW1hZScsICc8aW5maWxlLm1hZT4nLCAnLW9tYWUnLCAnPG91dGZpbGUubWFlPic=

> <r_lp_tautomer_probability>
1

> <r_epik_Ionization_Penalty>
0.00515943

> <r_epik_Ionization_Penalty_Charging>
0.00509693

> <r_epik_Ionization_Penalty_Neutral>
6.25007e-05

> <r_epik_State_Penalty>
-0

> <r_epik_Charging_Adjusted_Penalty>
0.00509693

> <i_epik_Tot_Q>
1

> <i_epik_Tot_abs_Q>
1

> <r_epik_Metal_State_Penalty>
-0

> <b_epik_Metal_Only>
0

> <s_lp_Force_Field>
OPLS_2005

> <r_lp_Energy>
48.5729

> <b_lp_Chiralities_Consistent>
1

> <s_lp_Variant>
AV-unprocessed.smi:79-4

> <Gold.Version>
5.8.1

> <Gold.Id.Protein>
6NUR|6NUR_protein|mol2

> <Gold.PLP.Fitness>
45.8965

> <Gold.PLP.PLP>
-32.8347

> <Gold.PLP.part.hbond>
-2.9708

> <Gold.PLP.part.metal>
0.0000

> <Gold.PLP.part.buried>
-8.3813

> <Gold.PLP.part.nonpolar>
-24.0479

> <Gold.PLP.part.repulsive>
0.6327

> <Gold.PLP.ligand.clash>
0.0000

> <Gold.PLP.ligand.torsion>
1.3866

> <Gold.PLP.Chemscore.Hbond>
3.9825

> <Gold.PLP.Chemscore.CHOScore>
1.0000

> <Gold.PLP.Chemscore.Metal>
0.0000

> <Gold.Chemscore.Hbonds>
donor molecule, donor type, donor heavy atom, donor atom, acceptor molecule, acceptor atom, score
      L1  H     3    32       P1  7921  1.00
      L1  H     5    56       P1 10957  1.95
      L1  H    21    45       P1  8028  1.00
      L1  C    11    39       P1 10171  0.97

> <Gold.PLP.Chemscore.Internal.Correction>
0.8875

> <Gold.Rescore>
     Score         DG    S(hbond)    S(metal)    S(lipo)     H(rot)  DE(clash)    DE(int)     intcor
     10.51     -12.96       2.61        0.00      70.93       3.72       0.00       2.45       ----

> <Gold.Chemscore.Fitness>
10.5120

> <Gold.Chemscore.DG>
-12.9605

> <Gold.Chemscore.ZeroCoef>
-5.4800

> <Gold.Chemscore.Hbond>
2.6083

> <Gold.Chemscore.Metal>
0.0000

> <Gold.Chemscore.Lipo>
70.9286

> <Gold.Chemscore.Internal_Hbond>
0.0000

> <Gold.Chemscore.DEClash>
0.0000

> <Gold.Chemscore.DEInternal>
2.4485

> <Gold.Chemscore.Rot>
3.7226

> <Gold.Chemscore.Internal.Correction>
   9.000000E+99

> <Gold.Chemscore.Hbonds>
donor molecule, donor type, donor heavy atom, donor atom, acceptor molecule, acceptor atom, score
      L1  H     3    32       P1  7921  0.83
      L1  H     5    56       P1 10957  0.51
      L1  H    21    45       P1  8028  0.91

> <Gold.Chemscore.Hbond.Weighted>
-8.7116

> <Gold.Chemscore.Metal.Weighted>
-0.0000

> <Gold.Chemscore.Lipo.Weighted>
-8.2986

> <Gold.Chemscore.Internal_Hbond.Weighted>
0.0000

> <Gold.Chemscore.DEClash.Weighted>
0.0000

> <Gold.Chemscore.DEInternal.Weighted>
2.4485

> <Gold.Chemscore.Rot.Weighted>
9.5298

> <Gold.Chemscore.Internal.Correction.Weighted>
   9.000000E+99

> <Gold.Protein.RotatedTorsions>
[ 6907 6896 6895 6894 ] final   40.31 input  -60.11 | X-H torsion
[ 7974 7965 7964 7962 ] final    0.81 input  175.53 | X-H torsion
[ 8008 7997 7996 7995 ] final  -34.79 input   59.86 | X-H torsion
[ 10167 10162 10161 10158 ] final  -42.06 input  -65.29 | X-H torsion
[ 10718 10713 10712 10709 ] final -170.87 input   66.30 | X-H torsion
[ 10763 10752 10751 10750 ] final  131.22 input  -60.55 | X-H torsion
[ 11005 11000 10999 10996 ] final -172.64 input  -57.11 | X-H torsion

> <Gold.Protein.ActiveResidues>
 VAL166  LYS551  ARG553  GLY616  TRP617  ASP618  TYR619  PRO620  LYS621  CYS622 
 ASP623  PHE694  ASN695  SER759  ASP760  ASP761  ALA762  ILE779  LEU786  VAL792 
 PHE793  MET794  SER795  GLU796  ALA797  LYS798  CYS799  TRP800  GLU811  SER814 

> <Gold.Protein.RotatedAtoms>
  152.1809  134.8755  160.0526 H   0  0  0  0  0  0  0  0  0  0  0  0  # atno 6907 bound_to 6896
  151.9680  133.3711  159.4068 H   0  0  0  0  0  0  0  0  0  0  0  0  # atno 6908 bound_to 6896
  150.6917  134.4094  159.5199 H   0  0  0  0  0  0  0  0  0  0  0  0  # atno 6909 bound_to 6896
  146.2437  140.1081  142.8345 H   0  0  0  0  0  0  0  0  0  0  0  0  # atno 7974 bound_to 7965
  154.4111  140.1674  156.2107 H   0  0  0  0  0  0  0  0  0  0  0  0  # atno 8008 bound_to 7997
  155.9447  140.3405  155.6333 H   0  0  0  0  0  0  0  0  0  0  0  0  # atno 8009 bound_to 7997
  155.6945  140.0738  157.2425 H   0  0  0  0  0  0  0  0  0  0  0  0  # atno 8010 bound_to 7997
  140.6982  143.3059  151.3156 H   0  0  0  0  0  0  0  0  0  0  0  0  # atno 10167 bound_to 10162
  156.7325  130.9311  151.3105 H   0  0  0  0  0  0  0  0  0  0  0  0  # atno 10718 bound_to 10713
  153.7708  135.3182  155.3351 H   0  0  0  0  0  0  0  0  0  0  0  0  # atno 10763 bound_to 10752
  154.8197  135.4612  154.0746 H   0  0  0  0  0  0  0  0  0  0  0  0  # atno 10764 bound_to 10752
  153.2005  135.6922  153.8321 H   0  0  0  0  0  0  0  0  0  0  0  0  # atno 10765 bound_to 10752
  140.4948  134.5950  157.4967 H   0  0  0  0  0  0  0  0  0  0  0  0  # atno 11005 bound_to 11000
  145.0510  140.9018  143.4995 LP  0  0  0  0  0  0  0  0  0  0  0  0  # atno 17320 bound_to 7965
  145.1179  139.2713  143.5604 LP  0  0  0  0  0  0  0  0  0  0  0  0  # atno 17321 bound_to 7965
  139.6464  144.0443  152.2594 LP  0  0  0  0  0  0  0  0  0  0  0  0  # atno 17342 bound_to 10162
  139.9965  144.6324  150.7767 LP  0  0  0  0  0  0  0  0  0  0  0  0  # atno 17343 bound_to 10162
  157.6853  130.9179  150.0370 LP  0  0  0  0  0  0  0  0  0  0  0  0  # atno 17370 bound_to 10713
  156.1519  130.3642  149.9425 LP  0  0  0  0  0  0  0  0  0  0  0  0  # atno 17371 bound_to 10713
  139.9748  134.7233  155.9971 LP  0  0  0  0  0  0  0  0  0  0  0  0  # atno 17394 bound_to 11000
  141.1466  133.6555  156.3886 LP  0  0  0  0  0  0  0  0  0  0  0  0  # atno 17395 bound_to 11000

$$$$
