AV-unprocessed.smi:1|AV-procd|sdf|23|dock4
  -GOLD-   2262015133D 1   1.00000     0.00000
 Structure written by MMmdl.
 56 61  0  0  0  0  0  0  0  0  2 V2000
  152.9934  139.8989  158.2911 O   0  0  0  0  0  0  0  0  0  0  0  0
  152.3225  140.8799  157.9633 C   0  0  0  0  0  0  0  0  0  0  0  0
  151.6390  141.0739  156.8072 N   0  5  0  0  0  0  0  0  0  0  0  0
  151.0637  140.0330  156.1873 C   0  0  0  0  0  0  0  0  0  0  0  0
  150.9975  139.9882  154.8320 N   0  0  0  0  0  0  0  0  0  0  0  0
  150.4105  138.9541  154.2176 C   0  0  0  0  0  0  0  0  0  0  0  0
  149.8259  137.8788  154.7549 N   0  0  0  0  0  0  0  0  0  0  0  0
  149.8815  137.9169  156.1186 C   0  0  0  0  0  0  0  0  0  0  0  0
  150.4767  138.9508  156.8975 C   0  0  0  0  0  0  0  0  0  0  0  0
  150.3566  138.6781  158.2527 N   0  0  0  0  0  0  0  0  0  0  0  0
  149.7079  137.5159  158.2368 C   0  0  0  0  0  0  0  0  0  0  0  0
  149.3852  137.0034  157.0331 N   0  0  0  0  0  0  0  0  0  0  0  0
  148.6587  135.7352  156.7487 C   0  0  2  0  0  0  0  0  0  0  0  0
  147.4102  135.7848  157.3573 O   0  0  0  0  0  0  0  0  0  0  0  0
  146.9996  134.4698  157.7260 C   0  0  2  0  0  0  0  0  0  0  0  0
  146.4861  134.5202  159.1700 C   0  0  0  0  0  0  0  0  0  0  0  0
  145.6477  133.4010  159.4062 O   0  0  0  0  0  0  0  0  0  0  0  0
  144.3739  133.4053  158.9692 C   0  0  0  0  0  0  0  0  0  0  0  0
  143.8854  134.3172  158.2989 O   0  0  0  0  0  0  0  0  0  0  0  0
  143.6167  132.1880  159.3811 C   0  0  0  0  0  0  0  0  0  0  0  0
  142.4166  131.8570  158.7094 C   0  0  0  0  0  0  0  0  0  0  0  0
  141.6810  130.7130  159.0760 C   0  0  0  0  0  0  0  0  0  0  0  0
  142.1362  129.8863  160.1196 C   0  0  0  0  0  0  0  0  0  0  0  0
  143.3277  130.2051  160.7965 C   0  0  0  0  0  0  0  0  0  0  0  0
  144.0649  131.3483  160.4308 C   0  0  0  0  0  0  0  0  0  0  0  0
  148.2270  133.5615  157.5462 C   0  0  1  0  0  0  0  0  0  0  0  0
  148.0857  132.7844  156.3685 O   0  0  0  0  0  0  0  0  0  0  0  0
  149.5313  132.8120  155.5307 S   0  0  0  0  0  0  0  0  0  0  0  0
  150.2203  131.5319  155.7540 O   0  0  0  0  0  0  0  0  0  0  0  0
  149.2724  133.3490  154.1861 O   0  0  0  0  0  0  0  0  0  0  0  0
  150.3127  133.9876  156.4236 O   0  0  0  0  0  0  0  0  0  0  0  0
  149.3897  134.5365  157.3460 C   0  0  1  0  0  0  0  0  0  0  0  0
  152.2633  142.0620  158.8929 C   0  0  0  0  0  0  0  0  0  0  0  0
  151.6804  143.2717  158.4517 C   0  0  0  0  0  0  0  0  0  0  0  0
  151.6414  144.3979  159.2969 C   0  0  0  0  0  0  0  0  0  0  0  0
  152.1947  144.3294  160.5892 C   0  0  0  0  0  0  0  0  0  0  0  0
  152.7900  143.1345  161.0348 C   0  0  0  0  0  0  0  0  0  0  0  0
  152.8284  142.0074  160.1907 C   0  0  0  0  0  0  0  0  0  0  0  0
  150.4062  138.9962  153.1386 H   0  0  0  0  0  0  0  0  0  0  0  0
  149.4459  137.0108  159.1549 H   0  0  0  0  0  0  0  0  0  0  0  0
  148.5469  135.6894  155.6644 H   0  0  0  0  0  0  0  0  0  0  0  0
  146.1928  134.1605  157.0599 H   0  0  0  0  0  0  0  0  0  0  0  0
  147.3204  134.5276  159.8730 H   0  0  0  0  0  0  0  0  0  0  0  0
  145.9152  135.4363  159.3269 H   0  0  0  0  0  0  0  0  0  0  0  0
  142.0475  132.4763  157.9044 H   0  0  0  0  0  0  0  0  0  0  0  0
  140.7667  130.4695  158.5551 H   0  0  0  0  0  0  0  0  0  0  0  0
  141.5724  129.0088  160.4002 H   0  0  0  0  0  0  0  0  0  0  0  0
  143.6781  129.5714  161.5979 H   0  0  0  0  0  0  0  0  0  0  0  0
  144.9749  131.5635  160.9718 H   0  0  0  0  0  0  0  0  0  0  0  0
  148.3962  132.8925  158.3909 H   0  0  0  0  0  0  0  0  0  0  0  0
  149.8551  134.7959  158.2972 H   0  0  0  0  0  0  0  0  0  0  0  0
  151.2541  143.3415  157.4613 H   0  0  0  0  0  0  0  0  0  0  0  0
  151.1880  145.3153  158.9517 H   0  0  0  0  0  0  0  0  0  0  0  0
  152.1661  145.1935  161.2362 H   0  0  0  0  0  0  0  0  0  0  0  0
  153.2213  143.0816  162.0235 H   0  0  0  0  0  0  0  0  0  0  0  0
  153.3002  141.1031  160.5477 H   0  0  0  0  0  0  0  0  0  0  0  0
  1  2  2  0  0  0  0
  2  3  1  0  0  0  0
  2 33  1  0  0  0  0
  3  4  1  0  0  0  0
  4  9  1  0  0  0  0
  4  5  2  0  0  0  0
  5  6  1  0  0  0  0
  6  7  2  0  0  0  0
  6 39  1  0  0  0  0
  7  8  1  0  0  0  0
  8 12  1  0  0  0  0
  8  9  2  0  0  0  0
  9 10  1  0  0  0  0
 10 11  2  0  0  0  0
 11 12  1  0  0  0  0
 11 40  1  0  0  0  0
 12 13  1  0  0  0  0
 13 32  1  0  0  0  0
 13 14  1  0  0  0  0
 13 41  1  0  0  0  0
 14 15  1  0  0  0  0
 15 16  1  0  0  0  0
 15 26  1  0  0  0  0
 15 42  1  0  0  0  0
 16 17  1  0  0  0  0
 16 43  1  0  0  0  0
 16 44  1  0  0  0  0
 17 18  1  0  0  0  0
 18 19  2  0  0  0  0
 18 20  1  0  0  0  0
 20 25  1  0  0  0  0
 20 21  2  0  0  0  0
 21 22  1  0  0  0  0
 21 45  1  0  0  0  0
 22 23  2  0  0  0  0
 22 46  1  0  0  0  0
 23 24  1  0  0  0  0
 23 47  1  0  0  0  0
 24 25  2  0  0  0  0
 24 48  1  0  0  0  0
 25 49  1  0  0  0  0
 26 32  1  0  0  0  0
 26 27  1  0  0  0  0
 26 50  1  0  0  0  0
 27 28  1  0  0  0  0
 28 29  2  0  0  0  0
 28 30  2  0  0  0  0
 28 31  1  0  0  0  0
 31 32  1  0  0  0  0
 32 51  1  0  0  0  0
 33 38  1  0  0  0  0
 33 34  2  0  0  0  0
 34 35  1  0  0  0  0
 34 52  1  0  0  0  0
 35 36  2  0  0  0  0
 35 53  1  0  0  0  0
 36 37  1  0  0  0  0
 36 54  1  0  0  0  0
 37 38  2  0  0  0  0
 37 55  1  0  0  0  0
 38 56  1  0  0  0  0
M  CHG  1   3  -1
M  END
> <s_m_source_file>
AV-unprocessed.smi

> <i_m_source_file_index>
1

> <i_lp_mmshare_version>
43012

> <i_f3d_flags>
0

> <s_epik_input>
W2NIXTFbY0hdW2NIXVtjSF1bY0hdYzFDKD1PKVtOSF1jKG5bY0hdbjIpYyhjMjMpbltjSF1uM1tDQEBIXShbQ0BIXShbQ0BIXTQ1KU9TKE81KSg9Tyk9TylPW0NASF00W0NIMl1PQyg9TyljNltjSF1bY0hdW2NIXVtjSF1bY0hdNg==

> <s_epik_cmdline>
J2VwaWtfcHl0aG9uJywgJy1waCcsICc3LjAnLCAnLXRuJywgJzgnLCAnLW1hJywgJzIwMCcsICctbWV0YWxfYmluZGluZycsICctaW1hZScsICc8aW5maWxlLm1hZT4nLCAnLW9tYWUnLCAnPG91dGZpbGUubWFlPic=

> <r_lp_tautomer_probability>
1

> <r_epik_Ionization_Penalty>
4.39121

> <r_epik_Ionization_Penalty_Charging>
3.39398

> <r_epik_Ionization_Penalty_Neutral>
0.997232

> <r_epik_State_Penalty>
3.39839

> <r_epik_Charging_Adjusted_Penalty>
6.79237

> <i_epik_Tot_Q>
-1

> <i_epik_Tot_abs_Q>
1

> <r_epik_Metal_State_Penalty>
0.497663

> <b_epik_Metal_Only>
1

> <s_epik_Chemistry_Notes>
This compound has an ester and may undergo hydrolysis at high or low pH. This compound contains an acetal/aminal-like group ( X-CH(R)-Y where X, Y are N, S, or O) that may be acid/base labile, releasing an aldehyde.

> <s_lp_Force_Field>
OPLS_2005

> <r_lp_Energy>
40.5787

> <b_lp_Chiralities_Consistent>
1

> <s_lp_Variant>
AV-unprocessed.smi:1-23

> <Gold.Version>
5.8.1

> <Gold.Id.Protein>
6NUR|6NUR_protein|mol2

> <Gold.PLP.Fitness>
53.5982

> <Gold.PLP.PLP>
-46.0786

> <Gold.PLP.part.hbond>
-2.0000

> <Gold.PLP.part.metal>
0.0000

> <Gold.PLP.part.buried>
-8.3274

> <Gold.PLP.part.nonpolar>
-35.2845

> <Gold.PLP.part.repulsive>
0.4302

> <Gold.PLP.ligand.clash>
0.1724

> <Gold.PLP.ligand.torsion>
0.9543

> <Gold.PLP.Chemscore.Hbond>
2.0000

> <Gold.PLP.Chemscore.CHOScore>
1.0000

> <Gold.PLP.Chemscore.Metal>
0.0000

> <Gold.Chemscore.Hbonds>
donor molecule, donor type, donor heavy atom, donor atom, acceptor molecule, acceptor atom, score
      P1  H  7989  7998       L1     5  1.00
      P1  H  7997  8010       L1     1  0.98
      L1  C     6    39       P1  7957  1.00

> <Gold.PLP.Chemscore.Internal.Correction>
0.6006

> <Gold.Rescore>
     Score         DG    S(hbond)    S(metal)    S(lipo)     H(rot)  DE(clash)    DE(int)     intcor
     14.32     -18.83       1.80        0.00     108.91       2.11       0.28       4.23       ----

> <Gold.Chemscore.Fitness>
14.3225

> <Gold.Chemscore.DG>
-18.8336

> <Gold.Chemscore.ZeroCoef>
-5.4800

> <Gold.Chemscore.Hbond>
1.8028

> <Gold.Chemscore.Metal>
0.0000

> <Gold.Chemscore.Lipo>
108.9150

> <Gold.Chemscore.Internal_Hbond>
0.0000

> <Gold.Chemscore.DEClash>
0.2823

> <Gold.Chemscore.DEInternal>
4.2289

> <Gold.Chemscore.Rot>
2.1136

> <Gold.Chemscore.Internal.Correction>
   9.000000E+99

> <Gold.Chemscore.Hbonds>
donor molecule, donor type, donor heavy atom, donor atom, acceptor molecule, acceptor atom, score
      P1  H  7989  7998       L1     5  0.35
      P1  H  7997  8010       L1     1  0.23

> <Gold.Chemscore.Hbond.Weighted>
-6.0213

> <Gold.Chemscore.Metal.Weighted>
-0.0000

> <Gold.Chemscore.Lipo.Weighted>
-12.7431

> <Gold.Chemscore.Internal_Hbond.Weighted>
0.0000

> <Gold.Chemscore.DEClash.Weighted>
0.2823

> <Gold.Chemscore.DEInternal.Weighted>
4.2289

> <Gold.Chemscore.Rot.Weighted>
5.4107

> <Gold.Chemscore.Internal.Correction.Weighted>
   9.000000E+99

> <Gold.Protein.RotatedTorsions>
[ 6907 6896 6895 6894 ] final  -28.06 input  -60.11 | X-H torsion
[ 7974 7965 7964 7962 ] final  -98.70 input  175.53 | X-H torsion
[ 8008 7997 7996 7995 ] final   39.11 input   59.86 | X-H torsion
[ 10167 10162 10161 10158 ] final   68.27 input  -65.29 | X-H torsion
[ 10718 10713 10712 10709 ] final   21.12 input   66.30 | X-H torsion
[ 10763 10752 10751 10750 ] final  171.04 input  -60.55 | X-H torsion
[ 11005 11000 10999 10996 ] final -163.93 input  -57.11 | X-H torsion

> <Gold.Protein.ActiveResidues>
 VAL166  LYS551  ARG553  GLY616  TRP617  ASP618  TYR619  PRO620  LYS621  CYS622 
 ASP623  PHE694  ASN695  SER759  ASP760  ASP761  ALA762  ILE779  LEU786  VAL792 
 PHE793  MET794  SER795  GLU796  ALA797  LYS798  CYS799  TRP800  GLU811  SER814 

> <Gold.Protein.RotatedAtoms>
  151.1382  135.0166  159.8613 H   0  0  0  0  0  0  0  0  0  0  0  0  # atno 6907 bound_to 6896
  152.5452  134.1530  159.8536 H   0  0  0  0  0  0  0  0  0  0  0  0  # atno 6908 bound_to 6896
  151.1603  133.4804  159.2627 H   0  0  0  0  0  0  0  0  0  0  0  0  # atno 6909 bound_to 6896
  145.3171  140.9413  143.2736 H   0  0  0  0  0  0  0  0  0  0  0  0  # atno 7974 bound_to 7965
  155.2313  140.3338  155.4303 H   0  0  0  0  0  0  0  0  0  0  0  0  # atno 8008 bound_to 7997
  156.2294  140.1843  156.7328 H   0  0  0  0  0  0  0  0  0  0  0  0  # atno 8009 bound_to 7997
  154.5952  140.0631  156.9279 H   0  0  0  0  0  0  0  0  0  0  0  0  # atno 8010 bound_to 7997
  140.0804  144.5075  150.7166 H   0  0  0  0  0  0  0  0  0  0  0  0  # atno 10167 bound_to 10162
  157.1340  130.6603  149.5960 H   0  0  0  0  0  0  0  0  0  0  0  0  # atno 10718 bound_to 10713
  154.4062  135.2755  155.2065 H   0  0  0  0  0  0  0  0  0  0  0  0  # atno 10763 bound_to 10752
  154.4070  135.6031  153.5934 H   0  0  0  0  0  0  0  0  0  0  0  0  # atno 10764 bound_to 10752
  152.9831  135.5940  154.4337 H   0  0  0  0  0  0  0  0  0  0  0  0  # atno 10765 bound_to 10752
  140.5926  134.5029  157.5195 H   0  0  0  0  0  0  0  0  0  0  0  0  # atno 11005 bound_to 11000
  144.8969  139.4701  143.6651 LP  0  0  0  0  0  0  0  0  0  0  0  0  # atno 17320 bound_to 7965
  146.3096  139.7700  142.9030 LP  0  0  0  0  0  0  0  0  0  0  0  0  # atno 17321 bound_to 7965
  140.7080  143.2483  151.4667 LP  0  0  0  0  0  0  0  0  0  0  0  0  # atno 17342 bound_to 10162
  139.5783  144.1769  152.1933 LP  0  0  0  0  0  0  0  0  0  0  0  0  # atno 17343 bound_to 10162
  155.9802  130.4801  150.6759 LP  0  0  0  0  0  0  0  0  0  0  0  0  # atno 17370 bound_to 10713
  157.4367  131.0856  151.0985 LP  0  0  0  0  0  0  0  0  0  0  0  0  # atno 17371 bound_to 10713
  139.9267  134.8042  156.1048 LP  0  0  0  0  0  0  0  0  0  0  0  0  # atno 17394 bound_to 11000
  141.0925  133.6709  156.2571 LP  0  0  0  0  0  0  0  0  0  0  0  0  # atno 17395 bound_to 11000

$$$$
