AV-unprocessed.smi:1076|AV-procd|sdf|4697|dock5
  -GOLD-   22720 3213D 1   1.00000     0.00000
 Structure written by MMmdl.
 45 46  0  0  0  0  0  0  0  0  2 V2000
  151.5204  145.4828  159.4863 C   0  0  0  0  0  0  0  0  0  0  0  0
  151.5809  144.0725  158.9763 C   0  0  0  0  0  0  0  0  0  0  0  0
  152.5502  143.0756  159.2808 C   0  0  0  0  0  0  0  0  0  0  0  0
  152.3282  141.9341  158.6503 N   0  0  0  0  0  0  0  0  0  0  0  0
  151.2087  142.1584  157.9290 N   0  0  0  0  0  0  0  0  0  0  0  0
  150.6820  141.1109  157.0694 C   0  0  0  0  0  0  0  0  0  0  0  0
  150.1824  139.9015  157.8833 C   0  0  2  0  0  0  0  0  0  0  0  0
  151.2387  139.4167  158.8869 C   0  0  0  0  0  0  0  0  0  0  0  0
  149.7887  138.8106  156.9653 N   0  3  0  0  0  0  0  0  0  0  0  0
  148.6961  137.9316  157.4361 C   0  0  0  0  0  0  0  0  0  0  0  0
  148.9386  137.4838  158.8918 C   0  0  0  0  0  0  0  0  0  0  0  0
  148.5406  136.0188  159.1682 C   0  0  0  0  0  0  0  0  0  0  0  0
  149.1216  135.1203  158.5569 O   0  0  0  0  0  0  0  0  0  0  0  0
  147.5849  135.7547  160.0898 N   0  0  0  0  0  0  0  0  0  0  0  0
  147.2845  134.4017  160.5651 C   0  0  0  0  0  0  0  0  0  0  0  0
  147.6865  134.3190  162.0493 C   0  0  0  0  0  0  0  0  0  0  0  0
  146.9893  135.3157  162.7942 O   0  0  0  0  0  0  0  0  0  0  0  0
  147.2286  136.6414  162.3257 C   0  0  0  0  0  0  0  0  0  0  0  0
  146.8150  136.7449  160.8472 C   0  0  0  0  0  0  0  0  0  0  0  0
  150.7347  143.4404  158.1098 C   0  0  0  0  0  0  0  0  0  0  0  0
  152.0905  145.6049  160.4076 H   0  0  0  0  0  0  0  0  0  0  0  0
  150.4971  145.7924  159.6994 H   0  0  0  0  0  0  0  0  0  0  0  0
  151.9266  146.1881  158.7613 H   0  0  0  0  0  0  0  0  0  0  0  0
  153.4082  143.1509  159.9323 H   0  0  0  0  0  0  0  0  0  0  0  0
  149.8787  141.5236  156.4564 H   0  0  0  0  0  0  0  0  0  0  0  0
  151.4730  140.8047  156.3840 H   0  0  0  0  0  0  0  0  0  0  0  0
  149.3002  140.2262  158.4371 H   0  0  0  0  0  0  0  0  0  0  0  0
  151.5269  140.2179  159.5680 H   0  0  0  0  0  0  0  0  0  0  0  0
  152.1406  139.0725  158.3793 H   0  0  0  0  0  0  0  0  0  0  0  0
  150.8620  138.5929  159.4938 H   0  0  0  0  0  0  0  0  0  0  0  0
  149.4471  139.2644  156.1289 H   0  0  0  0  0  0  0  0  0  0  0  0
  147.7517  138.4704  157.3565 H   0  0  0  0  0  0  0  0  0  0  0  0
  148.6054  137.0525  156.7962 H   0  0  0  0  0  0  0  0  0  0  0  0
  149.9956  137.6258  159.1191 H   0  0  0  0  0  0  0  0  0  0  0  0
  148.3751  138.1261  159.5693 H   0  0  0  0  0  0  0  0  0  0  0  0
  146.2183  134.2014  160.4499 H   0  0  0  0  0  0  0  0  0  0  0  0
  147.8019  133.6246  160.0010 H   0  0  0  0  0  0  0  0  0  0  0  0
  147.4407  133.3373  162.4544 H   0  0  0  0  0  0  0  0  0  0  0  0
  148.7627  134.4538  162.1679 H   0  0  0  0  0  0  0  0  0  0  0  0
  146.6500  137.3395  162.9308 H   0  0  0  0  0  0  0  0  0  0  0  0
  148.2810  136.8997  162.4549 H   0  0  0  0  0  0  0  0  0  0  0  0
  146.9363  137.7657  160.4884 H   0  0  0  0  0  0  0  0  0  0  0  0
  145.7512  136.5255  160.7442 H   0  0  0  0  0  0  0  0  0  0  0  0
  149.8501  143.7970  157.6029 H   0  0  0  0  0  0  0  0  0  0  0  0
  150.5968  138.2590  156.7156 H   0  0  0  0  0  0  0  0  0  0  0  0
  1  2  1  0  0  0  0
  1 21  1  0  0  0  0
  1 22  1  0  0  0  0
  1 23  1  0  0  0  0
  2 20  2  0  0  0  0
  2  3  1  0  0  0  0
  3  4  2  0  0  0  0
  3 24  1  0  0  0  0
  4  5  1  0  0  0  0
  5  6  1  0  0  0  0
  5 20  1  0  0  0  0
  6  7  1  0  0  0  0
  6 25  1  0  0  0  0
  6 26  1  0  0  0  0
  7  8  1  0  0  0  0
  7  9  1  0  0  0  0
  7 27  1  0  0  0  0
  8 28  1  0  0  0  0
  8 29  1  0  0  0  0
  8 30  1  0  0  0  0
  9 10  1  0  0  0  0
  9 31  1  0  0  0  0
  9 45  1  0  0  0  0
 10 11  1  0  0  0  0
 10 32  1  0  0  0  0
 10 33  1  0  0  0  0
 11 12  1  0  0  0  0
 11 34  1  0  0  0  0
 11 35  1  0  0  0  0
 12 13  2  0  0  0  0
 12 14  1  0  0  0  0
 14 19  1  0  0  0  0
 14 15  1  0  0  0  0
 15 16  1  0  0  0  0
 15 36  1  0  0  0  0
 15 37  1  0  0  0  0
 16 17  1  0  0  0  0
 16 38  1  0  0  0  0
 16 39  1  0  0  0  0
 17 18  1  0  0  0  0
 18 19  1  0  0  0  0
 18 40  1  0  0  0  0
 18 41  1  0  0  0  0
 19 42  1  0  0  0  0
 19 43  1  0  0  0  0
 20 44  1  0  0  0  0
M  CHG  1   9   1
M  END
> <s_m_source_file>
AV-unprocessed.smi

> <i_m_source_file_index>
1076

> <i_lp_mmshare_version>
43012

> <i_f3d_flags>
0

> <s_epik_input>
W0NIM11jMVtjSF1ubihbY0hdMSlbQ0gyXVtDQEhdKFtDSDNdKVtOSF1bQ0gyXVtDSDJdQyg9TylOMltDSDJdW0NIMl1PW0NIMl1bQ0gyXTI=

> <s_epik_cmdline>
J2VwaWtfcHl0aG9uJywgJy1waCcsICc3LjAnLCAnLXRuJywgJzgnLCAnLW1hJywgJzIwMCcsICctbWV0YWxfYmluZGluZycsICctaW1hZScsICc8aW5maWxlLm1hZT4nLCAnLW9tYWUnLCAnPG91dGZpbGUubWFlPic=

> <r_lp_tautomer_probability>
1

> <r_epik_Ionization_Penalty>
0.00797518

> <r_epik_Ionization_Penalty_Charging>
0.0079672

> <r_epik_Ionization_Penalty_Neutral>
7.97619e-06

> <r_epik_State_Penalty>
0.00597998

> <r_epik_Charging_Adjusted_Penalty>
0.0139472

> <i_epik_Tot_Q>
1

> <i_epik_Tot_abs_Q>
1

> <r_epik_Metal_State_Penalty>
0.00598062

> <b_epik_Metal_Only>
0

> <s_lp_Force_Field>
OPLS_2005

> <r_lp_Energy>
21.8291

> <b_lp_Chiralities_Consistent>
1

> <s_lp_Variant>
AV-unprocessed.smi:1076-1

> <Gold.Version>
5.8.1

> <Gold.Id.Protein>
6NUR|6NUR_protein|mol2

> <Gold.PLP.Fitness>
42.8725

> <Gold.PLP.PLP>
-38.1856

> <Gold.PLP.part.hbond>
-1.0000

> <Gold.PLP.part.metal>
0.0000

> <Gold.PLP.part.buried>
-4.7693

> <Gold.PLP.part.nonpolar>
-31.6803

> <Gold.PLP.part.repulsive>
0.0040

> <Gold.PLP.ligand.clash>
0.0000

> <Gold.PLP.ligand.torsion>
0.7430

> <Gold.PLP.Chemscore.Hbond>
1.0000

> <Gold.PLP.Chemscore.CHOScore>
1.0000

> <Gold.PLP.Chemscore.Metal>
0.0000

> <Gold.Chemscore.Hbonds>
donor molecule, donor type, donor heavy atom, donor atom, acceptor molecule, acceptor atom, score
      P1  H  6896  6907       L1    13  1.00
      L1  C    20    44       P1  8028  1.00

> <Gold.PLP.Chemscore.Internal.Correction>
0.1730

> <Gold.Rescore>
     Score         DG    S(hbond)    S(metal)    S(lipo)     H(rot)  DE(clash)    DE(int)     intcor
     12.35     -14.67       0.99        0.00      93.57       1.98       0.05       2.28       ----

> <Gold.Chemscore.Fitness>
12.3467

> <Gold.Chemscore.DG>
-14.6727

> <Gold.Chemscore.ZeroCoef>
-5.4800

> <Gold.Chemscore.Hbond>
0.9950

> <Gold.Chemscore.Metal>
0.0000

> <Gold.Chemscore.Lipo>
93.5705

> <Gold.Chemscore.Internal_Hbond>
0.0000

> <Gold.Chemscore.DEClash>
0.0471

> <Gold.Chemscore.DEInternal>
2.2789

> <Gold.Chemscore.Rot>
1.9837

> <Gold.Chemscore.Internal.Correction>
   9.000000E+99

> <Gold.Chemscore.Hbonds>
donor molecule, donor type, donor heavy atom, donor atom, acceptor molecule, acceptor atom, score
      P1  H  6896  6907       L1    13  0.94

> <Gold.Chemscore.Hbond.Weighted>
-3.3232

> <Gold.Chemscore.Metal.Weighted>
-0.0000

> <Gold.Chemscore.Lipo.Weighted>
-10.9478

> <Gold.Chemscore.Internal_Hbond.Weighted>
0.0000

> <Gold.Chemscore.DEClash.Weighted>
0.0471

> <Gold.Chemscore.DEInternal.Weighted>
2.2789

> <Gold.Chemscore.Rot.Weighted>
5.0782

> <Gold.Chemscore.Internal.Correction.Weighted>
   9.000000E+99

> <Gold.Protein.RotatedTorsions>
[ 6907 6896 6895 6894 ] final  -87.46 input  -60.11 | X-H torsion
[ 7974 7965 7964 7962 ] final   62.03 input  175.53 | X-H torsion
[ 8008 7997 7996 7995 ] final  -25.52 input   59.86 | X-H torsion
[ 10167 10162 10161 10158 ] final   46.08 input  -65.29 | X-H torsion
[ 10718 10713 10712 10709 ] final  -47.92 input   66.30 | X-H torsion
[ 10763 10752 10751 10750 ] final  145.30 input  -60.55 | X-H torsion
[ 11005 11000 10999 10996 ] final  143.19 input  -57.11 | X-H torsion

> <Gold.Protein.ActiveResidues>
 VAL166  LYS551  ARG553  GLY616  TRP617  ASP618  TYR619  PRO620  LYS621  CYS622 
 ASP623  PHE694  ASN695  SER759  ASP760  ASP761  ALA762  ILE779  LEU786  VAL792 
 PHE793  MET794  SER795  GLU796  ALA797  LYS798  CYS799  TRP800  GLU811  SER814 

> <Gold.Protein.RotatedAtoms>
  150.6866  134.2893  159.4659 H   0  0  0  0  0  0  0  0  0  0  0  0  # atno 6907 bound_to 6896
  152.0800  134.9475  160.0583 H   0  0  0  0  0  0  0  0  0  0  0  0  # atno 6908 bound_to 6896
  152.0831  133.4128  159.4547 H   0  0  0  0  0  0  0  0  0  0  0  0  # atno 6909 bound_to 6896
  145.8780  139.3423  143.0723 H   0  0  0  0  0  0  0  0  0  0  0  0  # atno 7974 bound_to 7965
  154.4471  140.1924  156.0632 H   0  0  0  0  0  0  0  0  0  0  0  0  # atno 8008 bound_to 7997
  156.0567  140.3302  155.7386 H   0  0  0  0  0  0  0  0  0  0  0  0  # atno 8009 bound_to 7997
  155.5475  140.0592  157.2848 H   0  0  0  0  0  0  0  0  0  0  0  0  # atno 8010 bound_to 7997
  140.3176  144.2744  150.6188 H   0  0  0  0  0  0  0  0  0  0  0  0  # atno 10167 bound_to 10162
  156.2037  130.4157  149.9206 H   0  0  0  0  0  0  0  0  0  0  0  0  # atno 10718 bound_to 10713
  154.0031  135.2921  155.3400 H   0  0  0  0  0  0  0  0  0  0  0  0  # atno 10763 bound_to 10752
  154.7147  135.5134  153.8723 H   0  0  0  0  0  0  0  0  0  0  0  0  # atno 10764 bound_to 10752
  153.0757  135.6662  154.0271 H   0  0  0  0  0  0  0  0  0  0  0  0  # atno 10765 bound_to 10752
  140.0535  134.9243  157.1059 H   0  0  0  0  0  0  0  0  0  0  0  0  # atno 11005 bound_to 11000
  145.9058  140.9213  143.0479 LP  0  0  0  0  0  0  0  0  0  0  0  0  # atno 17320 bound_to 7965
  144.6726  140.1093  143.7456 LP  0  0  0  0  0  0  0  0  0  0  0  0  # atno 17321 bound_to 7965
  140.5512  143.2206  151.7923 LP  0  0  0  0  0  0  0  0  0  0  0  0  # atno 17342 bound_to 10162
  139.4881  144.4474  151.9694 LP  0  0  0  0  0  0  0  0  0  0  0  0  # atno 17343 bound_to 10162
  156.6907  130.8894  151.3588 LP  0  0  0  0  0  0  0  0  0  0  0  0  # atno 17370 bound_to 10713
  157.7000  130.9323  150.0758 LP  0  0  0  0  0  0  0  0  0  0  0  0  # atno 17371 bound_to 10713
  140.3881  134.2215  155.7167 LP  0  0  0  0  0  0  0  0  0  0  0  0  # atno 17394 bound_to 11000
  141.1941  133.8135  157.0771 LP  0  0  0  0  0  0  0  0  0  0  0  0  # atno 17395 bound_to 11000

$$$$
