AV-unprocessed.smi:3198|AV-procd|sdf|12230|dock8
  -GOLD-   2272018 63D 1   1.00000     0.00000
 Structure written by MMmdl.
 37 38  0  0  0  0  0  0  0  0  1 V2000
  153.2971  140.5960  160.2883 C   0  0  0  0  0  0  0  0  0  0  0  0
  152.6724  141.8674  159.7538 C   0  0  0  0  0  0  0  0  0  0  0  0
  153.1387  143.1333  160.1639 C   0  0  0  0  0  0  0  0  0  0  0  0
  152.5185  144.2778  159.6283 C   0  0  0  0  0  0  0  0  0  0  0  0
  151.4647  144.1127  158.7087 C   0  0  0  0  0  0  0  0  0  0  0  0
  151.0680  142.8058  158.3556 C   0  0  0  0  0  0  0  0  0  0  0  0
  150.0180  142.6485  157.4391 N   0  0  0  0  0  0  0  0  0  0  0  0
  149.5277  141.3276  157.0632 C   0  0  0  0  0  0  0  0  0  0  0  0
  147.9959  141.2349  157.1149 C   0  0  0  0  0  0  0  0  0  0  0  0
  147.5285  141.9327  158.2569 O   0  0  0  0  0  0  0  0  0  0  0  0
  146.2456  141.4982  158.6787 C   0  0  0  0  0  0  0  0  0  0  0  0
  145.8785  142.1720  160.0081 C   0  0  1  0  0  0  0  0  0  0  0  0
  144.4400  141.9342  160.4911 C   0  0  0  0  0  0  0  0  0  0  0  0
  144.5964  141.5941  161.9664 C   0  0  0  0  0  0  0  0  0  0  0  0
  146.0420  141.9696  162.2756 C   0  0  0  0  0  0  0  0  0  0  0  0
  146.7134  141.7006  161.0568 O   0  0  0  0  0  0  0  0  0  0  0  0
  151.6615  141.7034  158.8730 N   0  0  0  0  0  0  0  0  0  0  0  0
  154.0243  140.8112  161.0716 H   0  0  0  0  0  0  0  0  0  0  0  0
  153.8068  140.0602  159.4872 H   0  0  0  0  0  0  0  0  0  0  0  0
  152.5310  139.9422  160.7062 H   0  0  0  0  0  0  0  0  0  0  0  0
  153.9506  143.2280  160.8698 H   0  0  0  0  0  0  0  0  0  0  0  0
  152.8457  145.2656  159.9170 H   0  0  0  0  0  0  0  0  0  0  0  0
  150.9738  144.9758  158.2830 H   0  0  0  0  0  0  0  0  0  0  0  0
  149.7498  143.4348  156.8653 H   0  0  0  0  0  0  0  0  0  0  0  0
  149.8860  141.0755  156.0645 H   0  0  0  0  0  0  0  0  0  0  0  0
  149.9651  140.5904  157.7365 H   0  0  0  0  0  0  0  0  0  0  0  0
  147.5483  141.6367  156.2046 H   0  0  0  0  0  0  0  0  0  0  0  0
  147.6979  140.1880  157.1869 H   0  0  0  0  0  0  0  0  0  0  0  0
  145.4976  141.7419  157.9228 H   0  0  0  0  0  0  0  0  0  0  0  0
  146.2451  140.4142  158.8025 H   0  0  0  0  0  0  0  0  0  0  0  0
  146.0472  143.2467  159.9210 H   0  0  0  0  0  0  0  0  0  0  0  0
  143.8354  142.8303  160.3481 H   0  0  0  0  0  0  0  0  0  0  0  0
  143.9478  141.1175  159.9619 H   0  0  0  0  0  0  0  0  0  0  0  0
  143.8822  142.1170  162.6029 H   0  0  0  0  0  0  0  0  0  0  0  0
  144.4563  140.5222  162.1122 H   0  0  0  0  0  0  0  0  0  0  0  0
  146.1280  143.0310  162.5146 H   0  0  0  0  0  0  0  0  0  0  0  0
  146.4599  141.3939  163.1015 H   0  0  0  0  0  0  0  0  0  0  0  0
  1  2  1  0  0  0  0
  1 18  1  0  0  0  0
  1 19  1  0  0  0  0
  1 20  1  0  0  0  0
  2 17  1  0  0  0  0
  2  3  2  0  0  0  0
  3  4  1  0  0  0  0
  3 21  1  0  0  0  0
  4  5  2  0  0  0  0
  4 22  1  0  0  0  0
  5  6  1  0  0  0  0
  5 23  1  0  0  0  0
  6  7  1  0  0  0  0
  6 17  2  0  0  0  0
  7  8  1  0  0  0  0
  7 24  1  0  0  0  0
  8  9  1  0  0  0  0
  8 25  1  0  0  0  0
  8 26  1  0  0  0  0
  9 10  1  0  0  0  0
  9 27  1  0  0  0  0
  9 28  1  0  0  0  0
 10 11  1  0  0  0  0
 11 12  1  0  0  0  0
 11 29  1  0  0  0  0
 11 30  1  0  0  0  0
 12 16  1  0  0  0  0
 12 13  1  0  0  0  0
 12 31  1  0  0  0  0
 13 14  1  0  0  0  0
 13 32  1  0  0  0  0
 13 33  1  0  0  0  0
 14 15  1  0  0  0  0
 14 34  1  0  0  0  0
 14 35  1  0  0  0  0
 15 16  1  0  0  0  0
 15 36  1  0  0  0  0
 15 37  1  0  0  0  0
M  END
> <s_m_source_file>
AV-unprocessed.smi

> <i_m_source_file_index>
3198

> <i_lp_mmshare_version>
43012

> <i_f3d_flags>
0

> <s_epik_input>
W0NIM11jMVtjSF1bY0hdW2NIXWMobjEpW05IXVtDSDJdW0NIMl1PW0NIMl1bQ0BASF0yW0NIMl1bQ0gyXVtDSDJdTzI=

> <s_epik_cmdline>
J2VwaWtfcHl0aG9uJywgJy1waCcsICc3LjAnLCAnLXRuJywgJzgnLCAnLW1hJywgJzIwMCcsICctbWV0YWxfYmluZGluZycsICctaW1hZScsICc8aW5maWxlLm1hZT4nLCAnLW9tYWUnLCAnPG91dGZpbGUubWFlPic=

> <r_lp_tautomer_probability>
1

> <r_epik_Ionization_Penalty>
1.29225

> <r_epik_Ionization_Penalty_Charging>
0

> <r_epik_Ionization_Penalty_Neutral>
1.29225

> <r_epik_State_Penalty>
1.3654

> <r_epik_Charging_Adjusted_Penalty>
1.3654

> <i_epik_Tot_Q>
0

> <i_epik_Tot_abs_Q>
0

> <r_epik_Metal_State_Penalty>
0.00531989

> <b_epik_Metal_Only>
0

> <s_lp_Force_Field>
OPLS_2005

> <r_lp_Energy>
18.8909

> <b_lp_Chiralities_Consistent>
1

> <s_lp_Variant>
AV-unprocessed.smi:3198-4

> <Gold.Version>
5.8.1

> <Gold.Id.Protein>
6NUR|6NUR_protein|mol2

> <Gold.PLP.Fitness>
44.6161

> <Gold.PLP.PLP>
-36.7637

> <Gold.PLP.part.hbond>
-3.0000

> <Gold.PLP.part.metal>
0.0000

> <Gold.PLP.part.buried>
-6.2583

> <Gold.PLP.part.nonpolar>
-28.8038

> <Gold.PLP.part.repulsive>
0.1601

> <Gold.PLP.ligand.clash>
0.0000

> <Gold.PLP.ligand.torsion>
0.3231

> <Gold.PLP.Chemscore.Hbond>
2.8160

> <Gold.PLP.Chemscore.CHOScore>
0.0000

> <Gold.PLP.Chemscore.Metal>
0.0000

> <Gold.Chemscore.Hbonds>
donor molecule, donor type, donor heavy atom, donor atom, acceptor molecule, acceptor atom, score
      L1  H     7    24       P1  8028  1.00
      P1  H  6933  6944       L1    16  0.21

> <Gold.PLP.Chemscore.Internal.Correction>
0.0504

> <Gold.Rescore>
     Score         DG    S(hbond)    S(metal)    S(lipo)     H(rot)  DE(clash)    DE(int)     intcor
     17.96     -18.37       2.14        0.00      84.79       1.63       0.00       0.41       ----

> <Gold.Chemscore.Fitness>
17.9611

> <Gold.Chemscore.DG>
-18.3694

> <Gold.Chemscore.ZeroCoef>
-5.4800

> <Gold.Chemscore.Hbond>
2.1393

> <Gold.Chemscore.Metal>
0.0000

> <Gold.Chemscore.Lipo>
84.7853

> <Gold.Chemscore.Internal_Hbond>
0.0000

> <Gold.Chemscore.DEClash>
0.0029

> <Gold.Chemscore.DEInternal>
0.4053

> <Gold.Chemscore.Rot>
1.6311

> <Gold.Chemscore.Internal.Correction>
   9.000000E+99

> <Gold.Chemscore.Hbonds>
donor molecule, donor type, donor heavy atom, donor atom, acceptor molecule, acceptor atom, score
      L1  H     7    24       P1  8028  0.98
      P1  H  6933  6944       L1    16  0.06

> <Gold.Chemscore.Hbond.Weighted>
-7.1452

> <Gold.Chemscore.Metal.Weighted>
-0.0000

> <Gold.Chemscore.Lipo.Weighted>
-9.9199

> <Gold.Chemscore.Internal_Hbond.Weighted>
0.0000

> <Gold.Chemscore.DEClash.Weighted>
0.0029

> <Gold.Chemscore.DEInternal.Weighted>
0.4053

> <Gold.Chemscore.Rot.Weighted>
4.1757

> <Gold.Chemscore.Internal.Correction.Weighted>
   9.000000E+99

> <Gold.Protein.RotatedTorsions>
[ 6907 6896 6895 6894 ] final -131.06 input  -60.11 | X-H torsion
[ 7974 7965 7964 7962 ] final   29.01 input  175.53 | X-H torsion
[ 8008 7997 7996 7995 ] final   42.66 input   59.86 | X-H torsion
[ 10167 10162 10161 10158 ] final   72.96 input  -65.29 | X-H torsion
[ 10718 10713 10712 10709 ] final   85.87 input   66.30 | X-H torsion
[ 10763 10752 10751 10750 ] final  178.26 input  -60.55 | X-H torsion
[ 11005 11000 10999 10996 ] final  119.30 input  -57.11 | X-H torsion

> <Gold.Protein.ActiveResidues>
 VAL166  LYS551  ARG553  GLY616  TRP617  ASP618  TYR619  PRO620  LYS621  CYS622 
 ASP623  PHE694  ASN695  SER759  ASP760  ASP761  ALA762  ILE779  LEU786  VAL792 
 PHE793  MET794  SER795  GLU796  ALA797  LYS798  CYS799  TRP800  GLU811  SER814 

> <Gold.Protein.RotatedAtoms>
  150.9467  133.6595  159.2779 H   0  0  0  0  0  0  0  0  0  0  0  0  # atno 6907 bound_to 6896
  151.3965  135.0963  159.9552 H   0  0  0  0  0  0  0  0  0  0  0  0  # atno 6908 bound_to 6896
  152.5093  133.8971  159.7477 H   0  0  0  0  0  0  0  0  0  0  0  0  # atno 6909 bound_to 6896
  146.1696  139.6978  142.8977 H   0  0  0  0  0  0  0  0  0  0  0  0  # atno 7974 bound_to 7965
  155.2899  140.3378  155.4253 H   0  0  0  0  0  0  0  0  0  0  0  0  # atno 8008 bound_to 7997
  156.2051  140.1748  156.7857 H   0  0  0  0  0  0  0  0  0  0  0  0  # atno 8009 bound_to 7997
  154.5610  140.0687  156.8803 H   0  0  0  0  0  0  0  0  0  0  0  0  # atno 8010 bound_to 7997
  140.0297  144.5476  150.7517 H   0  0  0  0  0  0  0  0  0  0  0  0  # atno 10167 bound_to 10162
  157.6921  131.0192  150.2887 H   0  0  0  0  0  0  0  0  0  0  0  0  # atno 10718 bound_to 10713
  154.5054  135.2785  155.1387 H   0  0  0  0  0  0  0  0  0  0  0  0  # atno 10763 bound_to 10752
  154.3003  135.6249  153.5426 H   0  0  0  0  0  0  0  0  0  0  0  0  # atno 10764 bound_to 10752
  152.9909  135.5695  154.5507 H   0  0  0  0  0  0  0  0  0  0  0  0  # atno 10765 bound_to 10752
  139.9141  134.9627  156.7634 H   0  0  0  0  0  0  0  0  0  0  0  0  # atno 11005 bound_to 11000
  145.4376  141.0420  143.2875 LP  0  0  0  0  0  0  0  0  0  0  0  0  # atno 17320 bound_to 7965
  144.8143  139.5905  143.7015 LP  0  0  0  0  0  0  0  0  0  0  0  0  # atno 17321 bound_to 7965
  140.7307  143.2687  151.3960 LP  0  0  0  0  0  0  0  0  0  0  0  0  # atno 17342 bound_to 10162
  139.6084  144.1148  152.2274 LP  0  0  0  0  0  0  0  0  0  0  0  0  # atno 17343 bound_to 10162
  156.3422  130.3817  149.7399 LP  0  0  0  0  0  0  0  0  0  0  0  0  # atno 17370 bound_to 10713
  156.4905  130.8082  151.3092 LP  0  0  0  0  0  0  0  0  0  0  0  0  # atno 17371 bound_to 10713
  140.6679  133.9586  155.7840 LP  0  0  0  0  0  0  0  0  0  0  0  0  # atno 17394 bound_to 11000
  141.0598  134.0363  157.3674 LP  0  0  0  0  0  0  0  0  0  0  0  0  # atno 17395 bound_to 11000

$$$$
