AV-unprocessed.smi:441|AV-procd|sdf|2582|dock7
  -GOLD-   2262022573D 1   1.00000     0.00000
 Structure written by MMmdl.
 34 35  0  0  0  0  0  0  0  0  1 V2000
  152.2929  140.1556  156.5152 O   0  0  0  0  0  0  0  0  0  0  0  0
  151.2850  140.7991  156.2188 C   0  0  0  0  0  0  0  0  0  0  0  0
  150.2847  140.2628  155.1841 C   0  0  0  0  0  0  0  0  0  0  0  0
  148.9979  140.9747  155.1926 N   0  0  0  0  0  0  0  0  0  0  0  0
  148.6872  141.5934  153.9942 N   0  0  0  0  0  0  0  0  0  0  0  0
  147.5744  142.2327  153.8802 C   0  0  0  0  0  0  0  0  0  0  0  0
  146.6288  142.3337  154.9697 C   0  0  0  0  0  0  0  0  0  0  0  0
  145.1514  143.2052  154.7572 Cl  0  0  0  0  0  0  0  0  0  0  0  0
  146.9457  141.7289  156.1421 C   0  0  0  0  0  0  0  0  0  0  0  0
  145.8659  141.8075  157.4918 Cl  0  0  0  0  0  0  0  0  0  0  0  0
  148.2056  140.9909  156.3086 C   0  0  0  0  0  0  0  0  0  0  0  0
  148.5305  140.4303  157.3562 O   0  0  0  0  0  0  0  0  0  0  0  0
  150.9978  141.9991  156.7459 N   0  0  0  0  0  0  0  0  0  0  0  0
  151.8052  142.6999  157.7402 C   0  0  0  0  0  0  0  0  0  0  0  0
  151.6358  142.0217  159.1130 C   0  0  0  0  0  0  0  0  0  0  0  0
  152.4216  142.7619  160.2076 C   0  0  0  0  0  0  0  0  0  0  0  0
  152.0217  144.2439  160.2756 C   0  0  0  0  0  0  0  0  0  0  0  0
  152.1931  144.9272  158.9100 C   0  0  0  0  0  0  0  0  0  0  0  0
  151.4083  144.1892  157.8133 C   0  0  0  0  0  0  0  0  0  0  0  0
  150.7291  140.3085  154.1879 H   0  0  0  0  0  0  0  0  0  0  0  0
  150.1297  139.2014  155.3853 H   0  0  0  0  0  0  0  0  0  0  0  0
  147.2862  142.7325  152.9553 H   0  0  0  0  0  0  0  0  0  0  0  0
  150.1523  142.4593  156.4414 H   0  0  0  0  0  0  0  0  0  0  0  0
  152.8572  142.6287  157.4568 H   0  0  0  0  0  0  0  0  0  0  0  0
  150.5792  141.9940  159.3841 H   0  0  0  0  0  0  0  0  0  0  0  0
  151.9692  140.9845  159.0612 H   0  0  0  0  0  0  0  0  0  0  0  0
  152.2515  142.2862  161.1738 H   0  0  0  0  0  0  0  0  0  0  0  0
  153.4906  142.6807  160.0072 H   0  0  0  0  0  0  0  0  0  0  0  0
  150.9833  144.3278  160.5990 H   0  0  0  0  0  0  0  0  0  0  0  0
  152.6223  144.7574  161.0268 H   0  0  0  0  0  0  0  0  0  0  0  0
  151.8628  145.9644  158.9690 H   0  0  0  0  0  0  0  0  0  0  0  0
  153.2510  144.9545  158.6455 H   0  0  0  0  0  0  0  0  0  0  0  0
  151.5835  144.6746  156.8526 H   0  0  0  0  0  0  0  0  0  0  0  0
  150.3395  144.2776  158.0130 H   0  0  0  0  0  0  0  0  0  0  0  0
  1  2  2  0  0  0  0
  2  3  1  0  0  0  0
  2 13  1  0  0  0  0
  3  4  1  0  0  0  0
  3 20  1  0  0  0  0
  3 21  1  0  0  0  0
  4 11  1  0  0  0  0
  4  5  1  0  0  0  0
  5  6  2  0  0  0  0
  6  7  1  0  0  0  0
  6 22  1  0  0  0  0
  7  8  1  0  0  0  0
  7  9  2  0  0  0  0
  9 10  1  0  0  0  0
  9 11  1  0  0  0  0
 11 12  2  0  0  0  0
 13 14  1  0  0  0  0
 13 23  1  0  0  0  0
 14 19  1  0  0  0  0
 14 15  1  0  0  0  0
 14 24  1  0  0  0  0
 15 16  1  0  0  0  0
 15 25  1  0  0  0  0
 15 26  1  0  0  0  0
 16 17  1  0  0  0  0
 16 27  1  0  0  0  0
 16 28  1  0  0  0  0
 17 18  1  0  0  0  0
 17 29  1  0  0  0  0
 17 30  1  0  0  0  0
 18 19  1  0  0  0  0
 18 31  1  0  0  0  0
 18 32  1  0  0  0  0
 19 33  1  0  0  0  0
 19 34  1  0  0  0  0
M  END
> <s_m_source_file>
AV-unprocessed.smi

> <i_m_source_file_index>
441

> <i_lp_mmshare_version>
43012

> <i_f3d_flags>
0

> <s_epik_input>
W0NIMl0xW0NIMl1bQ0gyXVtDSDJdW0NIMl1bQ0hdMVtOSF1DKD1PKVtDSDJdbjJuW2NIXWMoQ2wpYyhDbCljMj1P

> <s_epik_cmdline>
J2VwaWtfcHl0aG9uJywgJy1waCcsICc3LjAnLCAnLXRuJywgJzgnLCAnLW1hJywgJzIwMCcsICctbWV0YWxfYmluZGluZycsICctaW1hZScsICc8aW5maWxlLm1hZT4nLCAnLW9tYWUnLCAnPG91dGZpbGUubWFlPic=

> <r_lp_tautomer_probability>
1

> <r_epik_Ionization_Penalty>
1.90776e-08

> <r_epik_Ionization_Penalty_Charging>
3.07389e-11

> <r_epik_Ionization_Penalty_Neutral>
1.90469e-08

> <r_epik_State_Penalty>
-0

> <r_epik_Charging_Adjusted_Penalty>
3.07389e-11

> <i_epik_Tot_Q>
0

> <i_epik_Tot_abs_Q>
0

> <r_epik_Metal_State_Penalty>
-0

> <b_epik_Metal_Only>
0

> <s_lp_Force_Field>
OPLS_2005

> <r_lp_Energy>
22.7857

> <b_lp_Chiralities_Consistent>
1

> <s_lp_Variant>
AV-unprocessed.smi:441-1

> <Gold.Version>
5.8.1

> <Gold.Id.Protein>
6NUR|6NUR_protein|mol2

> <Gold.PLP.Fitness>
42.5191

> <Gold.PLP.PLP>
-38.6359

> <Gold.PLP.part.hbond>
-2.0000

> <Gold.PLP.part.metal>
0.0000

> <Gold.PLP.part.buried>
-2.6623

> <Gold.PLP.part.nonpolar>
-32.9786

> <Gold.PLP.part.repulsive>
0.2818

> <Gold.PLP.ligand.clash>
0.0000

> <Gold.PLP.ligand.torsion>
0.3738

> <Gold.PLP.Chemscore.Hbond>
1.5420

> <Gold.PLP.Chemscore.CHOScore>
0.0000

> <Gold.PLP.Chemscore.Metal>
0.0000

> <Gold.Chemscore.Hbonds>
donor molecule, donor type, donor heavy atom, donor atom, acceptor molecule, acceptor atom, score
      P1  H  7997  8009       L1     1  0.89
      P1  H  8011  8017       L1     5  0.43

> <Gold.PLP.Chemscore.Internal.Correction>
0.0047

> <Gold.Rescore>
     Score         DG    S(hbond)    S(metal)    S(lipo)     H(rot)  DE(clash)    DE(int)     intcor
     14.05     -16.15       1.00        0.00      95.79       1.51       0.19       1.91       ----

> <Gold.Chemscore.Fitness>
14.0487

> <Gold.Chemscore.DG>
-16.1473

> <Gold.Chemscore.ZeroCoef>
-5.4800

> <Gold.Chemscore.Hbond>
0.9971

> <Gold.Chemscore.Metal>
0.0000

> <Gold.Chemscore.Lipo>
95.7867

> <Gold.Chemscore.Internal_Hbond>
0.0000

> <Gold.Chemscore.DEClash>
0.1868

> <Gold.Chemscore.DEInternal>
1.9117

> <Gold.Chemscore.Rot>
1.5118

> <Gold.Chemscore.Internal.Correction>
   9.000000E+99

> <Gold.Chemscore.Hbonds>
donor molecule, donor type, donor heavy atom, donor atom, acceptor molecule, acceptor atom, score
      P1  H  7997  8009       L1     1  0.83
      P1  H  8011  8017       L1     5  0.11

> <Gold.Chemscore.Hbond.Weighted>
-3.3305

> <Gold.Chemscore.Metal.Weighted>
-0.0000

> <Gold.Chemscore.Lipo.Weighted>
-11.2070

> <Gold.Chemscore.Internal_Hbond.Weighted>
0.0000

> <Gold.Chemscore.DEClash.Weighted>
0.1868

> <Gold.Chemscore.DEInternal.Weighted>
1.9117

> <Gold.Chemscore.Rot.Weighted>
3.8702

> <Gold.Chemscore.Internal.Correction.Weighted>
   9.000000E+99

> <Gold.Protein.RotatedTorsions>
[ 6907 6896 6895 6894 ] final -176.32 input  -60.11 | X-H torsion
[ 7974 7965 7964 7962 ] final  143.06 input  175.53 | X-H torsion
[ 8008 7997 7996 7995 ] final -178.67 input   59.86 | X-H torsion
[ 10167 10162 10161 10158 ] final  113.35 input  -65.29 | X-H torsion
[ 10718 10713 10712 10709 ] final  141.37 input   66.30 | X-H torsion
[ 10763 10752 10751 10750 ] final -169.70 input  -60.55 | X-H torsion
[ 11005 11000 10999 10996 ] final -108.98 input  -57.11 | X-H torsion

> <Gold.Protein.ActiveResidues>
 VAL166  LYS551  ARG553  GLY616  TRP617  ASP618  TYR619  PRO620  LYS621  CYS622 
 ASP623  PHE694  ASN695  SER759  ASP760  ASP761  ALA762  ILE779  LEU786  VAL792 
 PHE793  MET794  SER795  GLU796  ALA797  LYS798  CYS799  TRP800  GLU811  SER814 

> <Gold.Protein.RotatedAtoms>
  151.6029  133.3354  159.3050 H   0  0  0  0  0  0  0  0  0  0  0  0  # atno 6907 bound_to 6896
  150.8198  134.7403  159.6774 H   0  0  0  0  0  0  0  0  0  0  0  0  # atno 6908 bound_to 6896
  152.4292  134.5815  160.0001 H   0  0  0  0  0  0  0  0  0  0  0  0  # atno 6909 bound_to 6896
  144.8953  139.5499  143.5779 H   0  0  0  0  0  0  0  0  0  0  0  0  # atno 7974 bound_to 7965
  156.0215  140.1262  157.0352 H   0  0  0  0  0  0  0  0  0  0  0  0  # atno 8008 bound_to 7997
  154.4313  140.1067  156.6041 H   0  0  0  0  0  0  0  0  0  0  0  0  # atno 8009 bound_to 7997
  155.5937  140.3469  155.4576 H   0  0  0  0  0  0  0  0  0  0  0  0  # atno 8010 bound_to 7997
  139.6468  144.7127  151.2127 H   0  0  0  0  0  0  0  0  0  0  0  0  # atno 10167 bound_to 10162
  157.3927  131.1007  151.0630 H   0  0  0  0  0  0  0  0  0  0  0  0  # atno 10718 bound_to 10713
  154.6494  135.2909  155.0005 H   0  0  0  0  0  0  0  0  0  0  0  0  # atno 10763 bound_to 10752
  154.1104  135.6563  153.4888 H   0  0  0  0  0  0  0  0  0  0  0  0  # atno 10764 bound_to 10752
  153.0368  135.5263  154.7396 H   0  0  0  0  0  0  0  0  0  0  0  0  # atno 10765 bound_to 10752
  141.0872  133.9117  157.2157 H   0  0  0  0  0  0  0  0  0  0  0  0  # atno 11005 bound_to 11000
  146.3078  139.7639  142.9043 LP  0  0  0  0  0  0  0  0  0  0  0  0  # atno 17320 bound_to 7965
  145.3710  141.0343  143.3231 LP  0  0  0  0  0  0  0  0  0  0  0  0  # atno 17321 bound_to 7965
  140.7518  143.6218  150.8506 LP  0  0  0  0  0  0  0  0  0  0  0  0  # atno 17342 bound_to 10162
  139.9861  143.5898  152.2926 LP  0  0  0  0  0  0  0  0  0  0  0  0  # atno 17343 bound_to 10162
  157.1658  130.6245  149.5625 LP  0  0  0  0  0  0  0  0  0  0  0  0  # atno 17370 bound_to 10713
  155.9802  130.4801  150.6761 LP  0  0  0  0  0  0  0  0  0  0  0  0  # atno 17371 bound_to 10713
  139.9692  135.0133  156.9469 LP  0  0  0  0  0  0  0  0  0  0  0  0  # atno 17394 bound_to 11000
  140.5334  134.0790  155.7322 LP  0  0  0  0  0  0  0  0  0  0  0  0  # atno 17395 bound_to 11000

$$$$
