AV-unprocessed.smi:2365|AV-procd|sdf|9419|dock4
  -GOLD-   2272013 53D 1   1.00000     0.00000
 Structure written by MMmdl.
 29 30  0  0  0  0  0  0  0  0  1 V2000
  152.2871  144.1005  161.6151 C   0  0  0  0  0  0  0  0  0  0  0  0
  152.0214  143.7505  160.1474 C   0  0  2  0  0  0  0  0  0  0  0  0
  152.3118  144.8815  159.1681 C   0  0  0  0  0  0  0  0  0  0  0  0
  151.4717  144.5063  157.9586 C   0  0  0  0  0  0  0  0  0  0  0  0
  150.3647  143.5975  158.5309 C   0  0  1  0  0  0  0  0  0  0  0  0
  150.3450  142.1921  157.9018 C   0  0  0  0  0  0  0  0  0  0  0  0
  150.7942  141.2397  158.5391 O   0  0  0  0  0  0  0  0  0  0  0  0
  149.8249  142.0939  156.6643 N   0  0  0  0  0  0  0  0  0  0  0  0
  149.6462  140.9275  155.8726 C   0  0  0  0  0  0  0  0  0  0  0  0
  150.5918  139.8745  155.8204 C   0  0  0  0  0  0  0  0  0  0  0  0
  150.4395  138.7747  155.0530 N   0  0  0  0  0  0  0  0  0  0  0  0
  149.3285  138.6814  154.2937 C   0  0  0  0  0  0  0  0  0  0  0  0
  148.3305  139.6746  154.2558 C   0  0  0  0  0  0  0  0  0  0  0  0
  146.9453  139.4691  153.2438 Cl  0  0  0  0  0  0  0  0  0  0  0  0
  148.4951  140.8246  155.0580 C   0  0  0  0  0  0  0  0  0  0  0  0
  147.3025  142.0804  155.0509 Cl  0  0  0  0  0  0  0  0  0  0  0  0
  150.6384  143.5147  159.9318 O   0  0  0  0  0  0  0  0  0  0  0  0
  153.3425  144.3172  161.7798 H   0  0  0  0  0  0  0  0  0  0  0  0
  152.0109  143.2718  162.2673 H   0  0  0  0  0  0  0  0  0  0  0  0
  151.7123  144.9737  161.9245 H   0  0  0  0  0  0  0  0  0  0  0  0
  152.5841  142.8583  159.8668 H   0  0  0  0  0  0  0  0  0  0  0  0
  151.9638  145.8319  159.5753 H   0  0  0  0  0  0  0  0  0  0  0  0
  153.3726  144.9804  158.9364 H   0  0  0  0  0  0  0  0  0  0  0  0
  151.0619  145.3900  157.4688 H   0  0  0  0  0  0  0  0  0  0  0  0
  152.0928  143.9872  157.2267 H   0  0  0  0  0  0  0  0  0  0  0  0
  149.3819  144.0500  158.3957 H   0  0  0  0  0  0  0  0  0  0  0  0
  149.4162  142.9404  156.2939 H   0  0  0  0  0  0  0  0  0  0  0  0
  151.5101  139.9094  156.3861 H   0  0  0  0  0  0  0  0  0  0  0  0
  149.2357  137.7883  153.6933 H   0  0  0  0  0  0  0  0  0  0  0  0
  1  2  1  0  0  0  0
  1 18  1  0  0  0  0
  1 19  1  0  0  0  0
  1 20  1  0  0  0  0
  2 17  1  0  0  0  0
  2  3  1  0  0  0  0
  2 21  1  0  0  0  0
  3  4  1  0  0  0  0
  3 22  1  0  0  0  0
  3 23  1  0  0  0  0
  4  5  1  0  0  0  0
  4 24  1  0  0  0  0
  4 25  1  0  0  0  0
  5  6  1  0  0  0  0
  5 17  1  0  0  0  0
  5 26  1  0  0  0  0
  6  7  2  0  0  0  0
  6  8  1  0  0  0  0
  8  9  1  0  0  0  0
  8 27  1  0  0  0  0
  9 15  1  0  0  0  0
  9 10  2  0  0  0  0
 10 11  1  0  0  0  0
 10 28  1  0  0  0  0
 11 12  2  0  0  0  0
 12 13  1  0  0  0  0
 12 29  1  0  0  0  0
 13 14  1  0  0  0  0
 13 15  2  0  0  0  0
 15 16  1  0  0  0  0
M  END
> <s_m_source_file>
AV-unprocessed.smi

> <i_m_source_file_index>
2365

> <i_lp_mmshare_version>
43012

> <i_f3d_flags>
0

> <s_epik_input>
W0NIM11bQ0BASF0xW0NIMl1bQ0gyXVtDQEhdKE8xKUMoPU8pW05IXWMyW2NIXW5bY0hdYyhDbCljMkNs

> <s_epik_cmdline>
J2VwaWtfcHl0aG9uJywgJy1waCcsICc3LjAnLCAnLXRuJywgJzgnLCAnLW1hJywgJzIwMCcsICctbWV0YWxfYmluZGluZycsICctaW1hZScsICc8aW5maWxlLm1hZT4nLCAnLW9tYWUnLCAnPG91dGZpbGUubWFlPic=

> <r_lp_tautomer_probability>
1

> <r_epik_Ionization_Penalty>
7.32461e-06

> <r_epik_Ionization_Penalty_Charging>
0

> <r_epik_Ionization_Penalty_Neutral>
7.32461e-06

> <r_epik_State_Penalty>
-0

> <r_epik_Charging_Adjusted_Penalty>
0

> <i_epik_Tot_Q>
0

> <i_epik_Tot_abs_Q>
0

> <r_epik_Metal_State_Penalty>
-0

> <b_epik_Metal_Only>
0

> <s_lp_Force_Field>
OPLS_2005

> <r_lp_Energy>
23.4255

> <b_lp_Chiralities_Consistent>
1

> <s_lp_Variant>
AV-unprocessed.smi:2365-1

> <Gold.Version>
5.8.1

> <Gold.Id.Protein>
6NUR|6NUR_protein|mol2

> <Gold.PLP.Fitness>
42.1218

> <Gold.PLP.PLP>
-37.4306

> <Gold.PLP.part.hbond>
-2.0000

> <Gold.PLP.part.metal>
0.0000

> <Gold.PLP.part.buried>
-2.4500

> <Gold.PLP.part.nonpolar>
-33.1546

> <Gold.PLP.part.repulsive>
0.2364

> <Gold.PLP.ligand.clash>
0.0000

> <Gold.PLP.ligand.torsion>
0.6577

> <Gold.PLP.Chemscore.Hbond>
1.0000

> <Gold.PLP.Chemscore.CHOScore>
1.0000

> <Gold.PLP.Chemscore.Metal>
0.0000

> <Gold.Chemscore.Hbonds>
donor molecule, donor type, donor heavy atom, donor atom, acceptor molecule, acceptor atom, score
      L1  H     8    27       P1  8028  1.00
      L1  C    12    29       P1  7948  1.00

> <Gold.PLP.Chemscore.Internal.Correction>
0.0066

> <Gold.Rescore>
     Score         DG    S(hbond)    S(metal)    S(lipo)     H(rot)  DE(clash)    DE(int)     intcor
     13.66     -18.28       0.88        0.00     106.33       1.00       2.55       2.07       ----

> <Gold.Chemscore.Fitness>
13.6638

> <Gold.Chemscore.DG>
-18.2848

> <Gold.Chemscore.ZeroCoef>
-5.4800

> <Gold.Chemscore.Hbond>
0.8756

> <Gold.Chemscore.Metal>
0.0000

> <Gold.Chemscore.Lipo>
106.3265

> <Gold.Chemscore.Internal_Hbond>
0.0000

> <Gold.Chemscore.DEClash>
2.5535

> <Gold.Chemscore.DEInternal>
2.0675

> <Gold.Chemscore.Rot>
1.0000

> <Gold.Chemscore.Internal.Correction>
   9.000000E+99

> <Gold.Chemscore.Hbonds>
donor molecule, donor type, donor heavy atom, donor atom, acceptor molecule, acceptor atom, score
      L1  H     8    27       P1  8028  0.99

> <Gold.Chemscore.Hbond.Weighted>
-2.9246

> <Gold.Chemscore.Metal.Weighted>
-0.0000

> <Gold.Chemscore.Lipo.Weighted>
-12.4402

> <Gold.Chemscore.Internal_Hbond.Weighted>
0.0000

> <Gold.Chemscore.DEClash.Weighted>
2.5535

> <Gold.Chemscore.DEInternal.Weighted>
2.0675

> <Gold.Chemscore.Rot.Weighted>
2.5600

> <Gold.Chemscore.Internal.Correction.Weighted>
   9.000000E+99

> <Gold.Protein.RotatedTorsions>
[ 6907 6896 6895 6894 ] final  -10.36 input  -60.11 | X-H torsion
[ 7974 7965 7964 7962 ] final   91.58 input  175.53 | X-H torsion
[ 8008 7997 7996 7995 ] final -135.78 input   59.86 | X-H torsion
[ 10167 10162 10161 10158 ] final  -42.82 input  -65.29 | X-H torsion
[ 10718 10713 10712 10709 ] final -176.61 input   66.30 | X-H torsion
[ 10763 10752 10751 10750 ] final   65.14 input  -60.55 | X-H torsion
[ 11005 11000 10999 10996 ] final -149.39 input  -57.11 | X-H torsion

> <Gold.Protein.ActiveResidues>
 VAL166  LYS551  ARG553  GLY616  TRP617  ASP618  TYR619  PRO620  LYS621  CYS622 
 ASP623  PHE694  ASN695  SER759  ASP760  ASP761  ALA762  ILE779  LEU786  VAL792 
 PHE793  MET794  SER795  GLU796  ALA797  LYS798  CYS799  TRP800  GLU811  SER814 

> <Gold.Protein.RotatedAtoms>
  151.4032  135.0974  159.9561 H   0  0  0  0  0  0  0  0  0  0  0  0  # atno 6907 bound_to 6896
  152.5044  133.8868  159.7384 H   0  0  0  0  0  0  0  0  0  0  0  0  # atno 6908 bound_to 6896
  150.9347  133.6669  159.2831 H   0  0  0  0  0  0  0  0  0  0  0  0  # atno 6909 bound_to 6896
  145.5038  139.2276  143.2763 H   0  0  0  0  0  0  0  0  0  0  0  0  # atno 7974 bound_to 7965
  155.3843  140.0496  157.3043 H   0  0  0  0  0  0  0  0  0  0  0  0  # atno 8008 bound_to 7997
  154.5067  140.2177  155.9198 H   0  0  0  0  0  0  0  0  0  0  0  0  # atno 8009 bound_to 7997
  156.1534  140.3131  155.8691 H   0  0  0  0  0  0  0  0  0  0  0  0  # atno 8010 bound_to 7997
  140.6956  143.3016  151.3264 H   0  0  0  0  0  0  0  0  0  0  0  0  # atno 10167 bound_to 10162
  156.8172  130.9607  151.3113 H   0  0  0  0  0  0  0  0  0  0  0  0  # atno 10718 bound_to 10713
  153.0084  135.5367  154.6620 H   0  0  0  0  0  0  0  0  0  0  0  0  # atno 10763 bound_to 10752
  154.5826  135.2851  155.0719 H   0  0  0  0  0  0  0  0  0  0  0  0  # atno 10764 bound_to 10752
  154.1842  135.6511  153.5095 H   0  0  0  0  0  0  0  0  0  0  0  0  # atno 10765 bound_to 10752
  140.7512  134.3404  157.5125 H   0  0  0  0  0  0  0  0  0  0  0  0  # atno 11005 bound_to 11000
  146.2210  140.5840  142.9017 LP  0  0  0  0  0  0  0  0  0  0  0  0  # atno 17320 bound_to 7965
  144.7765  140.5751  143.6634 LP  0  0  0  0  0  0  0  0  0  0  0  0  # atno 17321 bound_to 7965
  139.6407  144.0546  152.2552 LP  0  0  0  0  0  0  0  0  0  0  0  0  # atno 17342 bound_to 10162
  140.0050  144.6266  150.7697 LP  0  0  0  0  0  0  0  0  0  0  0  0  # atno 17343 bound_to 10162
  157.6475  130.8857  149.9568 LP  0  0  0  0  0  0  0  0  0  0  0  0  # atno 17370 bound_to 10713
  156.1010  130.3656  150.0219 LP  0  0  0  0  0  0  0  0  0  0  0  0  # atno 17371 bound_to 10713
  139.8787  134.9143  156.3105 LP  0  0  0  0  0  0  0  0  0  0  0  0  # atno 17394 bound_to 11000
  140.9749  133.7304  156.0587 LP  0  0  0  0  0  0  0  0  0  0  0  0  # atno 17395 bound_to 11000

$$$$
