AV-unprocessed.smi:1570|AV-procd|sdf|6319|dock10
  -GOLD-   22720 6523D 1   1.00000     0.00000
 Structure written by MMmdl.
 52 54  0  0  0  0  0  0  0  0  2 V2000
  151.3326  144.9560  159.0210 C   0  0  0  0  0  0  0  0  0  0  0  0
  151.6494  144.3132  157.6647 C   0  0  0  0  0  0  0  0  0  0  0  0
  151.7115  142.8579  157.7726 N   0  0  0  0  0  0  0  0  0  0  0  0
  151.1529  141.9616  156.9261 C   0  0  0  0  0  0  0  0  0  0  0  0
  150.4831  142.2268  155.9276 O   0  0  0  0  0  0  0  0  0  0  0  0
  151.4748  140.7183  157.3559 N   0  0  0  0  0  0  0  0  0  0  0  0
  151.0808  139.4562  156.7308 C   0  0  0  0  0  0  0  0  0  0  0  0
  151.5759  139.3589  155.2730 C   0  0  1  0  0  0  0  0  0  0  0  0
  152.9842  139.4893  155.2752 O   0  0  0  0  0  0  0  0  0  0  0  0
  151.2338  137.9937  154.6424 C   0  0  0  0  0  0  0  0  0  0  0  0
  149.8052  137.8949  154.2479 N   0  3  1  0  0  0  0  0  0  0  0  0
  148.9727  137.2352  155.2811 C   0  0  0  0  0  0  0  0  0  0  0  0
  147.5171  137.0980  154.7954 C   0  0  1  0  0  0  0  0  0  0  0  0
  146.6048  136.4921  155.8675 C   0  0  0  0  0  0  0  0  0  0  0  0
  147.0146  138.3877  154.4629 O   0  0  0  0  0  0  0  0  0  0  0  0
  147.7462  139.0066  153.4104 C   0  0  1  0  0  0  0  0  0  0  0  0
  147.0671  140.3393  153.0754 C   0  0  0  0  0  0  0  0  0  0  0  0
  149.2071  139.1962  153.8589 C   0  0  0  0  0  0  0  0  0  0  0  0
  152.2760  140.8228  158.5026 C   0  0  0  0  0  0  0  0  0  0  0  0
  152.8776  139.8386  159.3068 C   0  0  0  0  0  0  0  0  0  0  0  0
  153.6466  140.2840  160.4076 C   0  0  0  0  0  0  0  0  0  0  0  0
  153.7977  141.6690  160.6765 C   0  0  0  0  0  0  0  0  0  0  0  0
  153.1839  142.6389  159.8498 C   0  0  0  0  0  0  0  0  0  0  0  0
  152.4245  142.1693  158.7640 C   0  0  0  0  0  0  0  0  0  0  0  0
  151.2867  146.0416  158.9346 H   0  0  0  0  0  0  0  0  0  0  0  0
  152.0960  144.7137  159.7608 H   0  0  0  0  0  0  0  0  0  0  0  0
  150.3716  144.6131  159.4060 H   0  0  0  0  0  0  0  0  0  0  0  0
  150.8928  144.5937  156.9315 H   0  0  0  0  0  0  0  0  0  0  0  0
  152.5963  144.6990  157.2840 H   0  0  0  0  0  0  0  0  0  0  0  0
  151.4118  138.6004  157.3198 H   0  0  0  0  0  0  0  0  0  0  0  0
  149.9904  139.4167  156.7502 H   0  0  0  0  0  0  0  0  0  0  0  0
  151.1450  140.1645  154.6799 H   0  0  0  0  0  0  0  0  0  0  0  0
  153.3515  138.8206  154.7172 H   0  0  0  0  0  0  0  0  0  0  0  0
  151.8744  137.8385  153.7726 H   0  0  0  0  0  0  0  0  0  0  0  0
  151.4644  137.1819  155.3339 H   0  0  0  0  0  0  0  0  0  0  0  0
  149.3786  136.2479  155.5051 H   0  0  0  0  0  0  0  0  0  0  0  0
  149.0113  137.8160  156.2045 H   0  0  0  0  0  0  0  0  0  0  0  0
  147.4831  136.4605  153.9100 H   0  0  0  0  0  0  0  0  0  0  0  0
  146.9378  135.4925  156.1478 H   0  0  0  0  0  0  0  0  0  0  0  0
  145.5792  136.4111  155.5060 H   0  0  0  0  0  0  0  0  0  0  0  0
  146.5920  137.1063  156.7684 H   0  0  0  0  0  0  0  0  0  0  0  0
  147.7127  138.3685  152.5255 H   0  0  0  0  0  0  0  0  0  0  0  0
  147.5856  140.8522  152.2649 H   0  0  0  0  0  0  0  0  0  0  0  0
  147.0544  141.0048  153.9391 H   0  0  0  0  0  0  0  0  0  0  0  0
  146.0348  140.1827  152.7612 H   0  0  0  0  0  0  0  0  0  0  0  0
  149.2526  139.8844  154.7047 H   0  0  0  0  0  0  0  0  0  0  0  0
  149.7768  139.6512  153.0493 H   0  0  0  0  0  0  0  0  0  0  0  0
  152.7650  138.7856  159.0974 H   0  0  0  0  0  0  0  0  0  0  0  0
  154.1264  139.5605  161.0502 H   0  0  0  0  0  0  0  0  0  0  0  0
  154.3904  141.9870  161.5216 H   0  0  0  0  0  0  0  0  0  0  0  0
  153.2989  143.6943  160.0474 H   0  0  0  0  0  0  0  0  0  0  0  0
  149.7748  137.2961  153.4344 H   0  0  0  0  0  0  0  0  0  0  0  0
  1  2  1  0  0  0  0
  1 25  1  0  0  0  0
  1 26  1  0  0  0  0
  1 27  1  0  0  0  0
  2  3  1  0  0  0  0
  2 28  1  0  0  0  0
  2 29  1  0  0  0  0
  3 24  1  0  0  0  0
  3  4  1  0  0  0  0
  4  5  2  0  0  0  0
  4  6  1  0  0  0  0
  6  7  1  0  0  0  0
  6 19  1  0  0  0  0
  7  8  1  0  0  0  0
  7 30  1  0  0  0  0
  7 31  1  0  0  0  0
  8  9  1  0  0  0  0
  8 10  1  0  0  0  0
  8 32  1  0  0  0  0
  9 33  1  0  0  0  0
 10 11  1  0  0  0  0
 10 34  1  0  0  0  0
 10 35  1  0  0  0  0
 11 18  1  0  0  0  0
 11 12  1  0  0  0  0
 11 52  1  0  0  0  0
 12 13  1  0  0  0  0
 12 36  1  0  0  0  0
 12 37  1  0  0  0  0
 13 14  1  0  0  0  0
 13 15  1  0  0  0  0
 13 38  1  0  0  0  0
 14 39  1  0  0  0  0
 14 40  1  0  0  0  0
 14 41  1  0  0  0  0
 15 16  1  0  0  0  0
 16 17  1  0  0  0  0
 16 18  1  0  0  0  0
 16 42  1  0  0  0  0
 17 43  1  0  0  0  0
 17 44  1  0  0  0  0
 17 45  1  0  0  0  0
 18 46  1  0  0  0  0
 18 47  1  0  0  0  0
 19 24  2  0  0  0  0
 19 20  1  0  0  0  0
 20 21  2  0  0  0  0
 20 48  1  0  0  0  0
 21 22  1  0  0  0  0
 21 49  1  0  0  0  0
 22 23  2  0  0  0  0
 22 50  1  0  0  0  0
 23 24  1  0  0  0  0
 23 51  1  0  0  0  0
M  CHG  1  11   1
M  END
> <s_m_source_file>
AV-unprocessed.smi

> <i_m_source_file_index>
1570

> <i_lp_mmshare_version>
43012

> <i_f3d_flags>
0

> <s_epik_input>
W2NIXTFbY0hdW2NIXVtjSF1jKGMxMiluKFtDSDJdW0NIM10pYyg9TyluMltDSDJdW0NASF0oW09IXSlbQ0gyXU4zW0NIMl1bQ0BASF0oW0NIM10pT1tDQEBIXShbQ0gzXSlbQ0gyXTM=

> <s_epik_cmdline>
J2VwaWtfcHl0aG9uJywgJy1waCcsICc3LjAnLCAnLXRuJywgJzgnLCAnLW1hJywgJzIwMCcsICctbWV0YWxfYmluZGluZycsICctaW1hZScsICc8aW5maWxlLm1hZT4nLCAnLW9tYWUnLCAnPG91dGZpbGUubWFlPic=

> <r_epik_Ionization_Penalty>
0.706332

> <r_epik_Ionization_Penalty_Charging>
0.706318

> <r_epik_Ionization_Penalty_Neutral>
1.42224e-05

> <r_epik_State_Penalty>
0.729493

> <r_epik_Charging_Adjusted_Penalty>
1.43581

> <i_epik_Tot_Q>
1

> <i_epik_Tot_abs_Q>
1

> <r_epik_Metal_State_Penalty>
0.729493

> <b_epik_Metal_Only>
0

> <s_lp_Force_Field>
OPLS_2005

> <r_lp_Energy>
52.3817

> <b_lp_Chiralities_Consistent>
1

> <s_lp_Variant>
AV-unprocessed.smi:1570-8

> <Gold.Version>
5.8.1

> <Gold.Id.Protein>
6NUR|6NUR_protein|mol2

> <Gold.PLP.Fitness>
54.0945

> <Gold.PLP.PLP>
-46.5080

> <Gold.PLP.part.hbond>
-2.2623

> <Gold.PLP.part.metal>
0.0000

> <Gold.PLP.part.buried>
-3.9101

> <Gold.PLP.part.nonpolar>
-41.8866

> <Gold.PLP.part.repulsive>
1.1588

> <Gold.PLP.ligand.clash>
0.0000

> <Gold.PLP.ligand.torsion>
0.7207

> <Gold.PLP.Chemscore.Hbond>
2.9825

> <Gold.PLP.Chemscore.CHOScore>
0.0000

> <Gold.PLP.Chemscore.Metal>
0.0000

> <Gold.Chemscore.Hbonds>
donor molecule, donor type, donor heavy atom, donor atom, acceptor molecule, acceptor atom, score
      L1  H    11    52       P1  7948  1.98
      P1  H  7997  8008       L1     9  1.00

> <Gold.PLP.Chemscore.Internal.Correction>
0.0804

> <Gold.Rescore>
     Score         DG    S(hbond)    S(metal)    S(lipo)     H(rot)  DE(clash)    DE(int)     intcor
     18.57     -19.67       1.66        0.00     120.54       2.13       0.51       0.60       ----

> <Gold.Chemscore.Fitness>
18.5671

> <Gold.Chemscore.DG>
-19.6731

> <Gold.Chemscore.ZeroCoef>
-5.4800

> <Gold.Chemscore.Hbond>
1.6598

> <Gold.Chemscore.Metal>
0.0000

> <Gold.Chemscore.Lipo>
120.5375

> <Gold.Chemscore.Internal_Hbond>
0.0000

> <Gold.Chemscore.DEClash>
0.5105

> <Gold.Chemscore.DEInternal>
0.5955

> <Gold.Chemscore.Rot>
2.1303

> <Gold.Chemscore.Internal.Correction>
   9.000000E+99

> <Gold.Chemscore.Hbonds>
donor molecule, donor type, donor heavy atom, donor atom, acceptor molecule, acceptor atom, score
      L1  H    11    52       P1  7948  0.60
      P1  H  7997  8008       L1     9  0.50

> <Gold.Chemscore.Hbond.Weighted>
-5.5438

> <Gold.Chemscore.Metal.Weighted>
-0.0000

> <Gold.Chemscore.Lipo.Weighted>
-14.1029

> <Gold.Chemscore.Internal_Hbond.Weighted>
0.0000

> <Gold.Chemscore.DEClash.Weighted>
0.5105

> <Gold.Chemscore.DEInternal.Weighted>
0.5955

> <Gold.Chemscore.Rot.Weighted>
5.4535

> <Gold.Chemscore.Internal.Correction.Weighted>
   9.000000E+99

> <Gold.Protein.RotatedTorsions>
[ 6907 6896 6895 6894 ] final  131.23 input  -60.11 | X-H torsion
[ 7974 7965 7964 7962 ] final -111.58 input  175.53 | X-H torsion
[ 8008 7997 7996 7995 ] final  -32.78 input   59.86 | X-H torsion
[ 10167 10162 10161 10158 ] final  -41.19 input  -65.29 | X-H torsion
[ 10718 10713 10712 10709 ] final   39.45 input   66.30 | X-H torsion
[ 10763 10752 10751 10750 ] final   12.19 input  -60.55 | X-H torsion
[ 11005 11000 10999 10996 ] final  157.17 input  -57.11 | X-H torsion

> <Gold.Protein.ActiveResidues>
 VAL166  LYS551  ARG553  GLY616  TRP617  ASP618  TYR619  PRO620  LYS621  CYS622 
 ASP623  PHE694  ASN695  SER759  ASP760  ASP761  ALA762  ILE779  LEU786  VAL792 
 PHE793  MET794  SER795  GLU796  ALA797  LYS798  CYS799  TRP800  GLU811  SER814 

> <Gold.Protein.RotatedAtoms>
  152.3446  133.6107  159.5900 H   0  0  0  0  0  0  0  0  0  0  0  0  # atno 6907 bound_to 6896
  150.7500  133.9668  159.3542 H   0  0  0  0  0  0  0  0  0  0  0  0  # atno 6908 bound_to 6896
  151.7528  135.0829  160.0384 H   0  0  0  0  0  0  0  0  0  0  0  0  # atno 6909 bound_to 6896
  145.1544  140.8846  143.3627 H   0  0  0  0  0  0  0  0  0  0  0  0  # atno 7974 bound_to 7965
  154.4169  140.1728  156.1782 H   0  0  0  0  0  0  0  0  0  0  0  0  # atno 8008 bound_to 7997
  155.9704  140.3386  155.6547 H   0  0  0  0  0  0  0  0  0  0  0  0  # atno 8009 bound_to 7997
  155.6632  140.0703  157.2537 H   0  0  0  0  0  0  0  0  0  0  0  0  # atno 8010 bound_to 7997
  140.7010  143.3109  151.3032 H   0  0  0  0  0  0  0  0  0  0  0  0  # atno 10167 bound_to 10162
  157.3707  130.7700  149.7117 H   0  0  0  0  0  0  0  0  0  0  0  0  # atno 10718 bound_to 10713
  153.1848  135.6833  153.8430 H   0  0  0  0  0  0  0  0  0  0  0  0  # atno 10763 bound_to 10752
  153.7749  135.3190  155.3358 H   0  0  0  0  0  0  0  0  0  0  0  0  # atno 10764 bound_to 10752
  154.8082  135.4735  154.0543 H   0  0  0  0  0  0  0  0  0  0  0  0  # atno 10765 bound_to 10752
  140.1744  134.8520  157.2729 H   0  0  0  0  0  0  0  0  0  0  0  0  # atno 11005 bound_to 11000
  145.0397  139.3270  143.5983 LP  0  0  0  0  0  0  0  0  0  0  0  0  # atno 17320 bound_to 7965
  146.3490  139.9766  142.8700 LP  0  0  0  0  0  0  0  0  0  0  0  0  # atno 17321 bound_to 7965
  139.6531  144.0326  152.2640 LP  0  0  0  0  0  0  0  0  0  0  0  0  # atno 17342 bound_to 10162
  139.9868  144.6389  150.7850 LP  0  0  0  0  0  0  0  0  0  0  0  0  # atno 17343 bound_to 10162
  155.9755  130.4088  150.3845 LP  0  0  0  0  0  0  0  0  0  0  0  0  # atno 17370 bound_to 10713
  157.1935  131.0421  151.2687 LP  0  0  0  0  0  0  0  0  0  0  0  0  # atno 17371 bound_to 10713
  140.2339  134.3876  155.7509 LP  0  0  0  0  0  0  0  0  0  0  0  0  # atno 17394 bound_to 11000
  141.2219  133.7229  156.8684 LP  0  0  0  0  0  0  0  0  0  0  0  0  # atno 17395 bound_to 11000

$$$$
