AV-unprocessed.smi:1565|AV-procd|sdf|6300|dock9
  -GOLD-   22720 6503D 1   1.00000     0.00000
 Structure written by MMmdl.
 39 40  0  0  0  0  0  0  0  0  2 V2000
  153.8379  141.3379  160.4569 C   0  0  0  0  0  0  0  0  0  0  0  0
  152.7607  142.2701  159.8922 C   0  0  2  0  0  0  0  0  0  0  0  0
  152.0682  141.6642  158.6586 C   0  0  0  0  0  0  0  0  0  0  0  0
  151.1411  142.6274  158.0741 N   0  0  0  0  0  0  0  0  0  0  0  0
  150.2127  142.0970  157.1530 C   0  0  0  0  0  0  0  0  0  0  0  0
  150.6649  141.5209  155.9431 C   0  0  0  0  0  0  0  0  0  0  0  0
  149.7229  141.0004  155.0352 C   0  0  0  0  0  0  0  0  0  0  0  0
  148.3482  141.0564  155.3591 C   0  0  0  0  0  0  0  0  0  0  0  0
  147.2835  140.5480  154.4246 C   0  0  0  0  0  0  0  0  0  0  0  0
  146.3002  141.2685  154.2203 O   0  0  0  0  0  0  0  0  0  0  0  0
  147.5516  139.2937  153.9632 N   0  5  0  0  0  0  0  0  0  0  0  0
  146.7739  138.6145  152.9239 C   0  0  0  0  0  0  0  0  0  0  0  0
  145.8911  137.5016  153.5243 C   0  0  0  0  0  0  0  0  0  0  0  0
  146.6590  136.6717  154.2303 F   0  0  0  0  0  0  0  0  0  0  0  0
  144.9696  138.0177  154.3391 F   0  0  0  0  0  0  0  0  0  0  0  0
  145.2847  136.7990  152.5661 F   0  0  0  0  0  0  0  0  0  0  0  0
  147.9948  141.6568  156.5866 C   0  0  0  0  0  0  0  0  0  0  0  0
  148.8942  142.1561  157.4615 N   0  0  0  0  0  0  0  0  0  0  0  0
  151.7679  143.9084  157.7566 C   0  0  0  0  0  0  0  0  0  0  0  0
  152.5046  144.4827  158.9826 C   0  0  1  0  0  0  0  0  0  0  0  0
  151.5602  145.0769  160.0429 C   0  0  0  0  0  0  0  0  0  0  0  0
  153.3863  143.5017  159.5338 O   0  0  0  0  0  0  0  0  0  0  0  0
  153.4105  140.3812  160.7579 H   0  0  0  0  0  0  0  0  0  0  0  0
  154.3142  141.7790  161.3328 H   0  0  0  0  0  0  0  0  0  0  0  0
  154.6157  141.1404  159.7187 H   0  0  0  0  0  0  0  0  0  0  0  0
  152.0232  142.4458  160.6755 H   0  0  0  0  0  0  0  0  0  0  0  0
  152.8098  141.3942  157.9057 H   0  0  0  0  0  0  0  0  0  0  0  0
  151.5644  140.7432  158.9486 H   0  0  0  0  0  0  0  0  0  0  0  0
  151.7168  141.4621  155.7062 H   0  0  0  0  0  0  0  0  0  0  0  0
  150.0628  140.5678  154.1053 H   0  0  0  0  0  0  0  0  0  0  0  0
  146.1447  139.3061  152.3612 H   0  0  0  0  0  0  0  0  0  0  0  0
  147.4373  138.1694  152.1814 H   0  0  0  0  0  0  0  0  0  0  0  0
  146.9599  141.7381  156.8861 H   0  0  0  0  0  0  0  0  0  0  0  0
  152.4766  143.7579  156.9410 H   0  0  0  0  0  0  0  0  0  0  0  0
  151.0228  144.6246  157.4077 H   0  0  0  0  0  0  0  0  0  0  0  0
  153.1386  145.2990  158.6349 H   0  0  0  0  0  0  0  0  0  0  0  0
  150.9961  145.9136  159.6304 H   0  0  0  0  0  0  0  0  0  0  0  0
  152.1223  145.4489  160.8997 H   0  0  0  0  0  0  0  0  0  0  0  0
  150.8357  144.3490  160.4070 H   0  0  0  0  0  0  0  0  0  0  0  0
  1  2  1  0  0  0  0
  1 23  1  0  0  0  0
  1 24  1  0  0  0  0
  1 25  1  0  0  0  0
  2 22  1  0  0  0  0
  2  3  1  0  0  0  0
  2 26  1  0  0  0  0
  3  4  1  0  0  0  0
  3 27  1  0  0  0  0
  3 28  1  0  0  0  0
  4  5  1  0  0  0  0
  4 19  1  0  0  0  0
  5 18  1  0  0  0  0
  5  6  2  0  0  0  0
  6  7  1  0  0  0  0
  6 29  1  0  0  0  0
  7  8  2  0  0  0  0
  7 30  1  0  0  0  0
  8  9  1  0  0  0  0
  8 17  1  0  0  0  0
  9 10  2  0  0  0  0
  9 11  1  0  0  0  0
 11 12  1  0  0  0  0
 12 13  1  0  0  0  0
 12 31  1  0  0  0  0
 12 32  1  0  0  0  0
 13 14  1  0  0  0  0
 13 15  1  0  0  0  0
 13 16  1  0  0  0  0
 17 18  2  0  0  0  0
 17 33  1  0  0  0  0
 19 20  1  0  0  0  0
 19 34  1  0  0  0  0
 19 35  1  0  0  0  0
 20 21  1  0  0  0  0
 20 22  1  0  0  0  0
 20 36  1  0  0  0  0
 21 37  1  0  0  0  0
 21 38  1  0  0  0  0
 21 39  1  0  0  0  0
M  CHG  1  11  -1
M  END
> <s_m_source_file>
AV-unprocessed.smi

> <i_m_source_file_index>
1565

> <i_lp_mmshare_version>
43012

> <i_f3d_flags>
0

> <s_epik_input>
W0NIM11bQ0BASF0xW0NIMl1OKFtDSDJdW0NASF0oTzEpW0NIM10pYzJbY0hdW2NIXWMoW2NIXW4yKUMoPU8pW05IXVtDSDJdQyhGKShGKUY=

> <s_epik_cmdline>
J2VwaWtfcHl0aG9uJywgJy1waCcsICc3LjAnLCAnLXRuJywgJzgnLCAnLW1hJywgJzIwMCcsICctbWV0YWxfYmluZGluZycsICctaW1hZScsICc8aW5maWxlLm1hZT4nLCAnLW9tYWUnLCAnPG91dGZpbGUubWFlPic=

> <r_lp_tautomer_probability>
1

> <r_epik_Ionization_Penalty>
6.78525

> <r_epik_Ionization_Penalty_Charging>
6.78469

> <r_epik_Ionization_Penalty_Neutral>
0.000559052

> <r_epik_State_Penalty>
6.78469

> <r_epik_Charging_Adjusted_Penalty>
13.5694

> <i_epik_Tot_Q>
-1

> <i_epik_Tot_abs_Q>
1

> <r_epik_Metal_State_Penalty>
2.70441

> <b_epik_Metal_Only>
1

> <s_lp_Force_Field>
OPLS_2005

> <r_lp_Energy>
29.3636

> <b_lp_Chiralities_Consistent>
1

> <s_lp_Variant>
AV-unprocessed.smi:1565-4

> <Gold.Version>
5.8.1

> <Gold.Id.Protein>
6NUR|6NUR_protein|mol2

> <Gold.PLP.Fitness>
38.1878

> <Gold.PLP.PLP>
-40.0889

> <Gold.PLP.part.hbond>
0.0000

> <Gold.PLP.part.metal>
0.0000

> <Gold.PLP.part.buried>
-4.0217

> <Gold.PLP.part.nonpolar>
-36.2171

> <Gold.PLP.part.repulsive>
0.9497

> <Gold.PLP.ligand.clash>
0.0000

> <Gold.PLP.ligand.torsion>
1.1192

> <Gold.PLP.Chemscore.Hbond>
0.0000

> <Gold.PLP.Chemscore.CHOScore>
0.0000

> <Gold.PLP.Chemscore.Metal>
0.0000

> <Gold.PLP.Chemscore.Internal.Correction>
0.3374

> <Gold.Rescore>
     Score         DG    S(hbond)    S(metal)    S(lipo)     H(rot)  DE(clash)    DE(int)     intcor
     12.63     -13.94       0.00        0.00     100.54       1.29       0.06       1.24       ----

> <Gold.Chemscore.Fitness>
12.6310

> <Gold.Chemscore.DG>
-13.9358

> <Gold.Chemscore.ZeroCoef>
-5.4800

> <Gold.Chemscore.Hbond>
0.0000

> <Gold.Chemscore.Metal>
0.0000

> <Gold.Chemscore.Lipo>
100.5435

> <Gold.Chemscore.Internal_Hbond>
0.0000

> <Gold.Chemscore.DEClash>
0.0623

> <Gold.Chemscore.DEInternal>
1.2426

> <Gold.Chemscore.Rot>
1.2921

> <Gold.Chemscore.Internal.Correction>
   9.000000E+99

> <Gold.Chemscore.Hbond.Weighted>
-0.0000

> <Gold.Chemscore.Metal.Weighted>
-0.0000

> <Gold.Chemscore.Lipo.Weighted>
-11.7636

> <Gold.Chemscore.Internal_Hbond.Weighted>
0.0000

> <Gold.Chemscore.DEClash.Weighted>
0.0623

> <Gold.Chemscore.DEInternal.Weighted>
1.2426

> <Gold.Chemscore.Rot.Weighted>
3.3078

> <Gold.Chemscore.Internal.Correction.Weighted>
   9.000000E+99

> <Gold.Protein.RotatedTorsions>
[ 6907 6896 6895 6894 ] final  -64.99 input  -60.11 | X-H torsion
[ 7974 7965 7964 7962 ] final  179.68 input  175.53 | X-H torsion
[ 8008 7997 7996 7995 ] final   16.07 input   59.86 | X-H torsion
[ 10167 10162 10161 10158 ] final  -66.09 input  -65.29 | X-H torsion
[ 10718 10713 10712 10709 ] final  125.22 input   66.30 | X-H torsion
[ 10763 10752 10751 10750 ] final  -50.99 input  -60.55 | X-H torsion
[ 11005 11000 10999 10996 ] final  177.74 input  -57.11 | X-H torsion

> <Gold.Protein.ActiveResidues>
 VAL166  LYS551  ARG553  GLY616  TRP617  ASP618  TYR619  PRO620  LYS621  CYS622 
 ASP623  PHE694  ASN695  SER759  ASP760  ASP761  ALA762  ILE779  LEU786  VAL792 
 PHE793  MET794  SER795  GLU796  ALA797  LYS798  CYS799  TRP800  GLU811  SER814 

> <Gold.Protein.RotatedAtoms>
  150.7551  134.6222  159.6141 H   0  0  0  0  0  0  0  0  0  0  0  0  # atno 6907 bound_to 6896
  152.3525  134.6982  160.0241 H   0  0  0  0  0  0  0  0  0  0  0  0  # atno 6908 bound_to 6896
  151.7399  133.3285  159.3399 H   0  0  0  0  0  0  0  0  0  0  0  0  # atno 6909 bound_to 6896
  144.7143  140.0584  143.6433 H   0  0  0  0  0  0  0  0  0  0  0  0  # atno 7974 bound_to 7965
  154.8717  140.2960  155.5477 H   0  0  0  0  0  0  0  0  0  0  0  0  # atno 8008 bound_to 7997
  156.3021  140.2459  156.3640 H   0  0  0  0  0  0  0  0  0  0  0  0  # atno 8009 bound_to 7997
  154.8810  140.0398  157.1771 H   0  0  0  0  0  0  0  0  0  0  0  0  # atno 8010 bound_to 7997
  140.5682  143.2316  151.6591 H   0  0  0  0  0  0  0  0  0  0  0  0  # atno 10167 bound_to 10162
  157.5521  131.1093  150.8685 H   0  0  0  0  0  0  0  0  0  0  0  0  # atno 10718 bound_to 10713
  154.1193  135.6537  153.4900 H   0  0  0  0  0  0  0  0  0  0  0  0  # atno 10763 bound_to 10752
  153.0231  135.5266  154.7113 H   0  0  0  0  0  0  0  0  0  0  0  0  # atno 10764 bound_to 10752
  154.6316  135.2977  155.0180 H   0  0  0  0  0  0  0  0  0  0  0  0  # atno 10765 bound_to 10752
  140.3874  134.6892  157.4487 H   0  0  0  0  0  0  0  0  0  0  0  0  # atno 11005 bound_to 11000
  145.9885  139.2996  143.0999 LP  0  0  0  0  0  0  0  0  0  0  0  0  # atno 17320 bound_to 7965
  145.8930  140.9291  143.0542 LP  0  0  0  0  0  0  0  0  0  0  0  0  # atno 17321 bound_to 7965
  139.5104  144.3544  152.0621 LP  0  0  0  0  0  0  0  0  0  0  0  0  # atno 17342 bound_to 10162
  140.2679  144.3996  150.6162 LP  0  0  0  0  0  0  0  0  0  0  0  0  # atno 17343 bound_to 10162
  156.9207  130.5314  149.5279 LP  0  0  0  0  0  0  0  0  0  0  0  0  # atno 17370 bound_to 10713
  156.0585  130.5642  150.9144 LP  0  0  0  0  0  0  0  0  0  0  0  0  # atno 17371 bound_to 10713
  140.0432  134.6237  155.8954 LP  0  0  0  0  0  0  0  0  0  0  0  0  # atno 17394 bound_to 11000
  141.1903  133.6568  156.5404 LP  0  0  0  0  0  0  0  0  0  0  0  0  # atno 17395 bound_to 11000

$$$$
