AV-unprocessed.smi:481|AV-procd|sdf|2683|dock4
  -GOLD-   2262023113D 1   1.00000     0.00000
 Structure written by MMmdl.
 42 44  0  0  0  0  0  0  0  0  2 V2000
  150.4531  132.9941  155.5498 C   0  0  0  0  0  0  0  0  0  0  0  0
  149.2033  133.0490  156.2201 O   0  0  0  0  0  0  0  0  0  0  0  0
  148.8102  134.3604  156.5999 C   0  0  0  0  0  0  0  0  0  0  0  0
  149.4944  134.8107  157.9021 C   0  0  0  0  0  0  0  0  0  0  0  0
  149.5793  136.2651  157.9844 N   0  0  0  0  0  0  0  0  0  0  0  0
  149.0430  137.0730  158.9338 C   0  0  0  0  0  0  0  0  0  0  0  0
  148.3041  136.5084  159.9830 N   0  0  0  0  0  0  0  0  0  0  0  0
  147.7517  137.2470  160.9464 N   0  0  0  0  0  0  0  0  0  0  0  0
  147.0247  136.7234  161.8798 C   0  0  0  0  0  0  0  0  0  0  0  0
  146.5742  135.3194  161.9880 C   0  0  0  0  0  0  0  0  0  0  0  0
  147.4256  134.2224  161.7151 C   0  0  0  0  0  0  0  0  0  0  0  0
  146.9491  132.9025  161.8319 C   0  0  0  0  0  0  0  0  0  0  0  0
  145.6148  132.6657  162.2111 C   0  0  0  0  0  0  0  0  0  0  0  0
  144.7555  133.7506  162.4669 C   0  0  0  0  0  0  0  0  0  0  0  0
  145.2325  135.0707  162.3504 C   0  0  0  0  0  0  0  0  0  0  0  0
  149.2916  138.3751  158.7547 N   0  0  0  0  0  0  0  0  0  0  0  0
  150.0459  138.3925  157.5914 C   0  0  0  0  0  0  0  0  0  0  0  0
  150.2246  137.1364  157.1034 C   0  0  0  0  0  0  0  0  0  0  0  0
  150.9708  136.8309  155.8638 C   0  0  0  0  0  0  0  0  0  0  0  0
  151.0839  135.6749  155.4605 O   0  0  0  0  0  0  0  0  0  0  0  0
  151.4756  137.9611  155.2745 N   0  5  0  0  0  0  0  0  0  0  0  0
  151.3248  139.2519  155.7358 C   0  0  0  0  0  0  0  0  0  0  0  0
  151.8107  140.2154  155.1422 O   0  0  0  0  0  0  0  0  0  0  0  0
  150.6167  139.4864  156.8856 N   0  0  0  0  0  0  0  0  0  0  0  0
  150.4407  140.8472  157.4008 C   0  0  0  0  0  0  0  0  0  0  0  0
  150.6461  131.9712  155.2275 H   0  0  0  0  0  0  0  0  0  0  0  0
  151.2756  133.2948  156.1982 H   0  0  0  0  0  0  0  0  0  0  0  0
  150.4571  133.6293  154.6632 H   0  0  0  0  0  0  0  0  0  0  0  0
  148.9932  135.0668  155.7889 H   0  0  0  0  0  0  0  0  0  0  0  0
  147.7311  134.3445  156.7546 H   0  0  0  0  0  0  0  0  0  0  0  0
  148.9471  134.4265  158.7628 H   0  0  0  0  0  0  0  0  0  0  0  0
  150.4979  134.3991  157.9935 H   0  0  0  0  0  0  0  0  0  0  0  0
  147.8595  135.6371  159.7320 H   0  0  0  0  0  0  0  0  0  0  0  0
  146.7138  137.3859  162.6879 H   0  0  0  0  0  0  0  0  0  0  0  0
  148.4496  134.3821  161.4114 H   0  0  0  0  0  0  0  0  0  0  0  0
  147.6082  132.0717  161.6282 H   0  0  0  0  0  0  0  0  0  0  0  0
  145.2498  131.6533  162.3017 H   0  0  0  0  0  0  0  0  0  0  0  0
  143.7301  133.5709  162.7546 H   0  0  0  0  0  0  0  0  0  0  0  0
  144.5617  135.8933  162.5536 H   0  0  0  0  0  0  0  0  0  0  0  0
  149.9070  141.4629  156.6758 H   0  0  0  0  0  0  0  0  0  0  0  0
  151.4084  141.3110  157.5966 H   0  0  0  0  0  0  0  0  0  0  0  0
  149.8744  140.8742  158.3314 H   0  0  0  0  0  0  0  0  0  0  0  0
  1  2  1  0  0  0  0
  1 26  1  0  0  0  0
  1 27  1  0  0  0  0
  1 28  1  0  0  0  0
  2  3  1  0  0  0  0
  3  4  1  0  0  0  0
  3 29  1  0  0  0  0
  3 30  1  0  0  0  0
  4  5  1  0  0  0  0
  4 31  1  0  0  0  0
  4 32  1  0  0  0  0
  5 18  1  0  0  0  0
  5  6  1  0  0  0  0
  6  7  1  0  0  0  0
  6 16  2  0  0  0  0
  7  8  1  0  0  0  0
  7 33  1  0  0  0  0
  8  9  2  0  0  0  0
  9 10  1  0  0  0  0
  9 34  1  0  0  0  0
 10 15  1  0  0  0  0
 10 11  2  0  0  0  0
 11 12  1  0  0  0  0
 11 35  1  0  0  0  0
 12 13  2  0  0  0  0
 12 36  1  0  0  0  0
 13 14  1  0  0  0  0
 13 37  1  0  0  0  0
 14 15  2  0  0  0  0
 14 38  1  0  0  0  0
 15 39  1  0  0  0  0
 16 17  1  0  0  0  0
 17 24  1  0  0  0  0
 17 18  2  0  0  0  0
 18 19  1  0  0  0  0
 19 20  2  0  0  0  0
 19 21  1  0  0  0  0
 21 22  1  0  0  0  0
 22 23  2  0  0  0  0
 22 24  1  0  0  0  0
 24 25  1  0  0  0  0
 25 40  1  0  0  0  0
 25 41  1  0  0  0  0
 25 42  1  0  0  0  0
M  CHG  1  21  -1
M  END
> <s_m_source_file>
AV-unprocessed.smi

> <i_m_source_file_index>
481

> <i_lp_mmshare_version>
43012

> <i_f3d_flags>
0

> <s_epik_input>
W0NIM11uMWMoPU8pW25IXWMoPU8pYyhjMTIpbihbQ0gyXVtDSDJdT1tDSDNdKWMobjIpW05IXS9OPVtDSF0vYzNbY0hdW2NIXVtjSF1bY0hdW2NIXTM=

> <s_epik_cmdline>
J2VwaWtfcHl0aG9uJywgJy1waCcsICc3LjAnLCAnLXRuJywgJzgnLCAnLW1hJywgJzIwMCcsICctbWV0YWxfYmluZGluZycsICctaW1hZScsICc8aW5maWxlLm1hZT4nLCAnLW9tYWUnLCAnPG91dGZpbGUubWFlPic=

> <r_epik_Ionization_Penalty>
4.48471

> <r_epik_Ionization_Penalty_Charging>
4.58449e-09

> <r_epik_Ionization_Penalty_Neutral>
4.48471

> <r_epik_State_Penalty>
4.48428

> <r_epik_Charging_Adjusted_Penalty>
4.48428

> <i_epik_Tot_Q>
-1

> <i_epik_Tot_abs_Q>
1

> <r_epik_Metal_State_Penalty>
0.811551

> <b_epik_Metal_Only>
1

> <s_epik_Chemistry_Notes>
This compound has an imine and may undergo hydrolysis.

> <s_lp_Force_Field>
OPLS_2005

> <r_lp_Energy>
49.411

> <b_lp_Chiralities_Consistent>
1

> <s_lp_Variant>
AV-unprocessed.smi:481-4

> <Gold.Version>
5.8.1

> <Gold.Id.Protein>
6NUR|6NUR_protein|mol2

> <Gold.PLP.Fitness>
43.6030

> <Gold.PLP.PLP>
-33.4096

> <Gold.PLP.part.hbond>
-4.1758

> <Gold.PLP.part.metal>
0.0000

> <Gold.PLP.part.buried>
-3.3195

> <Gold.PLP.part.nonpolar>
-26.1048

> <Gold.PLP.part.repulsive>
0.3892

> <Gold.PLP.ligand.clash>
0.0119

> <Gold.PLP.ligand.torsion>
0.5955

> <Gold.PLP.Chemscore.Hbond>
3.5833

> <Gold.PLP.Chemscore.CHOScore>
0.0000

> <Gold.PLP.Chemscore.Metal>
0.0000

> <Gold.Chemscore.Hbonds>
donor molecule, donor type, donor heavy atom, donor atom, acceptor molecule, acceptor atom, score
      P1  H  6931  6943       L1     8  0.86
      P1  H  6934  6947       L1     8  0.86
      P1  H  7989  7998       L1    23  0.86
      P1  H 10752 10765       L1    20  1.00

> <Gold.PLP.Chemscore.Internal.Correction>
0.6467

> <Gold.Rescore>
     Score         DG    S(hbond)    S(metal)    S(lipo)     H(rot)  DE(clash)    DE(int)     intcor
     17.59     -18.45       2.64        0.00      68.92       1.52       0.15       0.72       ----

> <Gold.Chemscore.Fitness>
17.5907

> <Gold.Chemscore.DG>
-18.4547

> <Gold.Chemscore.ZeroCoef>
-5.4800

> <Gold.Chemscore.Hbond>
2.6378

> <Gold.Chemscore.Metal>
0.0000

> <Gold.Chemscore.Lipo>
68.9180

> <Gold.Chemscore.Internal_Hbond>
0.0000

> <Gold.Chemscore.DEClash>
0.1462

> <Gold.Chemscore.DEInternal>
0.7179

> <Gold.Chemscore.Rot>
1.5230

> <Gold.Chemscore.Internal.Correction>
   9.000000E+99

> <Gold.Chemscore.Hbonds>
donor molecule, donor type, donor heavy atom, donor atom, acceptor molecule, acceptor atom, score
      P1  H  6931  6943       L1     8  0.31
      P1  H  6934  6947       L1     8  0.34
      P1  H  7989  7998       L1    23  0.85
      P1  H 10752 10765       L1    20  0.52

> <Gold.Chemscore.Hbond.Weighted>
-8.8102

> <Gold.Chemscore.Metal.Weighted>
-0.0000

> <Gold.Chemscore.Lipo.Weighted>
-8.0634

> <Gold.Chemscore.Internal_Hbond.Weighted>
0.0000

> <Gold.Chemscore.DEClash.Weighted>
0.1462

> <Gold.Chemscore.DEInternal.Weighted>
0.7179

> <Gold.Chemscore.Rot.Weighted>
3.8989

> <Gold.Chemscore.Internal.Correction.Weighted>
   9.000000E+99

> <Gold.Protein.RotatedTorsions>
[ 6907 6896 6895 6894 ] final  -37.27 input  -60.11 | X-H torsion
[ 7974 7965 7964 7962 ] final   85.86 input  175.53 | X-H torsion
[ 8008 7997 7996 7995 ] final  -78.64 input   59.86 | X-H torsion
[ 10167 10162 10161 10158 ] final   83.56 input  -65.29 | X-H torsion
[ 10718 10713 10712 10709 ] final   -9.56 input   66.30 | X-H torsion
[ 10763 10752 10751 10750 ] final -172.14 input  -60.55 | X-H torsion
[ 11005 11000 10999 10996 ] final  -16.15 input  -57.11 | X-H torsion

> <Gold.Protein.ActiveResidues>
 VAL166  LYS551  ARG553  GLY616  TRP617  ASP618  TYR619  PRO620  LYS621  CYS622 
 ASP623  PHE694  ASN695  SER759  ASP760  ASP761  ALA762  ILE779  LEU786  VAL792 
 PHE793  MET794  SER795  GLU796  ALA797  LYS798  CYS799  TRP800  GLU811  SER814 

> <Gold.Protein.RotatedAtoms>
  151.0168  134.9439  159.8037 H   0  0  0  0  0  0  0  0  0  0  0  0  # atno 6907 bound_to 6896
  152.5316  134.2956  159.9069 H   0  0  0  0  0  0  0  0  0  0  0  0  # atno 6908 bound_to 6896
  151.2962  133.4101  159.2670 H   0  0  0  0  0  0  0  0  0  0  0  0  # atno 6909 bound_to 6896
  145.5799  139.2324  143.2359 H   0  0  0  0  0  0  0  0  0  0  0  0  # atno 7974 bound_to 7965
  154.5708  140.0691  156.8962 H   0  0  0  0  0  0  0  0  0  0  0  0  # atno 8008 bound_to 7997
  155.2637  140.3360  155.4253 H   0  0  0  0  0  0  0  0  0  0  0  0  # atno 8009 bound_to 7997
  156.2117  140.1762  156.7666 H   0  0  0  0  0  0  0  0  0  0  0  0  # atno 8010 bound_to 7997
  139.9171  144.6235  150.8477 H   0  0  0  0  0  0  0  0  0  0  0  0  # atno 10167 bound_to 10162
  156.6863  130.5052  149.5956 H   0  0  0  0  0  0  0  0  0  0  0  0  # atno 10718 bound_to 10713
  154.6226  135.2877  155.0308 H   0  0  0  0  0  0  0  0  0  0  0  0  # atno 10763 bound_to 10752
  154.1498  135.6505  153.4964 H   0  0  0  0  0  0  0  0  0  0  0  0  # atno 10764 bound_to 10752
  153.0243  135.5353  154.7022 H   0  0  0  0  0  0  0  0  0  0  0  0  # atno 10765 bound_to 10752
  140.8038  133.8193  155.9496 H   0  0  0  0  0  0  0  0  0  0  0  0  # atno 11005 bound_to 11000
  146.1724  140.6625  142.9227 LP  0  0  0  0  0  0  0  0  0  0  0  0  # atno 17320 bound_to 7965
  144.7399  140.4912  143.6877 LP  0  0  0  0  0  0  0  0  0  0  0  0  # atno 17321 bound_to 7965
  140.7671  143.3323  151.2383 LP  0  0  0  0  0  0  0  0  0  0  0  0  # atno 17342 bound_to 10162
  139.6893  143.9720  152.2850 LP  0  0  0  0  0  0  0  0  0  0  0  0  # atno 17343 bound_to 10162
  156.1830  130.6511  151.0974 LP  0  0  0  0  0  0  0  0  0  0  0  0  # atno 17370 bound_to 10713
  157.7025  131.0770  150.6774 LP  0  0  0  0  0  0  0  0  0  0  0  0  # atno 17371 bound_to 10713
  140.9267  134.2073  157.4891 LP  0  0  0  0  0  0  0  0  0  0  0  0  # atno 17394 bound_to 11000
  139.8719  134.9815  156.5121 LP  0  0  0  0  0  0  0  0  0  0  0  0  # atno 17395 bound_to 11000

$$$$
