AV-unprocessed.smi:3253|AV-procd|sdf|12450|dock1
  -GOLD-   2272018343D 1   1.00000     0.00000
 Structure written by MMmdl.
 36 37  0  0  0  0  0  0  0  0  1 V2000
  154.5901  141.5442  159.8239 C   0  0  0  0  0  0  0  0  0  0  0  0
  153.2315  141.2556  160.4768 C   0  0  1  0  0  0  0  0  0  0  0  0
  152.5282  142.5592  160.9116 C   0  0  0  0  0  0  0  0  0  0  0  0
  152.1708  143.4054  159.7874 N   0  0  0  0  0  0  0  0  0  0  0  0
  150.8976  143.8263  159.4250 C   0  0  0  0  0  0  0  0  0  0  0  0
  151.0480  144.6172  158.3086 C   0  0  0  0  0  0  0  0  0  0  0  0
  152.3955  144.6898  157.9638 N   0  0  0  0  0  0  0  0  0  0  0  0
  152.9980  143.9466  158.8828 C   0  0  0  0  0  0  0  0  0  0  0  0
  152.4001  140.5082  159.5340 N   0  0  0  0  0  0  0  0  0  0  0  0
  152.8142  139.4937  158.7582 C   0  0  0  0  0  0  0  0  0  0  0  0
  153.9796  139.0971  158.7259 O   0  0  0  0  0  0  0  0  0  0  0  0
  151.7406  138.8068  157.9011 C   0  0  2  0  0  0  0  0  0  0  0  0
  152.0749  138.9141  156.3991 C   0  0  0  0  0  0  0  0  0  0  0  0
  150.9910  139.8231  155.8447 C   0  0  0  0  0  0  0  0  0  0  0  0
  150.9835  140.2212  154.6810 O   0  0  0  0  0  0  0  0  0  0  0  0
  150.0878  140.1176  156.7838 N   0  0  0  0  0  0  0  0  0  0  0  0
  148.9226  140.9735  156.6073 C   0  0  0  0  0  0  0  0  0  0  0  0
  150.3505  139.4627  158.0537 C   0  0  0  0  0  0  0  0  0  0  0  0
  155.2492  142.0775  160.5095 H   0  0  0  0  0  0  0  0  0  0  0  0
  154.4795  142.1547  158.9269 H   0  0  0  0  0  0  0  0  0  0  0  0
  155.0928  140.6195  159.5386 H   0  0  0  0  0  0  0  0  0  0  0  0
  153.4247  140.6496  161.3640 H   0  0  0  0  0  0  0  0  0  0  0  0
  151.6132  142.3274  161.4580 H   0  0  0  0  0  0  0  0  0  0  0  0
  153.1621  143.1289  161.5928 H   0  0  0  0  0  0  0  0  0  0  0  0
  150.0158  143.5433  159.9805 H   0  0  0  0  0  0  0  0  0  0  0  0
  150.2964  145.1353  157.7314 H   0  0  0  0  0  0  0  0  0  0  0  0
  154.0678  143.7977  158.9027 H   0  0  0  0  0  0  0  0  0  0  0  0
  151.4244  140.7644  159.4904 H   0  0  0  0  0  0  0  0  0  0  0  0
  151.6756  137.7561  158.1887 H   0  0  0  0  0  0  0  0  0  0  0  0
  153.0625  139.3328  156.1970 H   0  0  0  0  0  0  0  0  0  0  0  0
  152.0173  137.9400  155.9125 H   0  0  0  0  0  0  0  0  0  0  0  0
  148.3433  140.6631  155.7369 H   0  0  0  0  0  0  0  0  0  0  0  0
  149.2312  142.0095  156.4641 H   0  0  0  0  0  0  0  0  0  0  0  0
  148.2692  140.9312  157.4791 H   0  0  0  0  0  0  0  0  0  0  0  0
  149.5844  138.7078  158.2358 H   0  0  0  0  0  0  0  0  0  0  0  0
  150.3032  140.1834  158.8723 H   0  0  0  0  0  0  0  0  0  0  0  0
  1  2  1  0  0  0  0
  1 19  1  0  0  0  0
  1 20  1  0  0  0  0
  1 21  1  0  0  0  0
  2  3  1  0  0  0  0
  2  9  1  0  0  0  0
  2 22  1  0  0  0  0
  3  4  1  0  0  0  0
  3 23  1  0  0  0  0
  3 24  1  0  0  0  0
  4  8  1  0  0  0  0
  4  5  1  0  0  0  0
  5  6  2  0  0  0  0
  5 25  1  0  0  0  0
  6  7  1  0  0  0  0
  6 26  1  0  0  0  0
  7  8  2  0  0  0  0
  8 27  1  0  0  0  0
  9 10  1  0  0  0  0
  9 28  1  0  0  0  0
 10 11  2  0  0  0  0
 10 12  1  0  0  0  0
 12 18  1  0  0  0  0
 12 13  1  0  0  0  0
 12 29  1  0  0  0  0
 13 14  1  0  0  0  0
 13 30  1  0  0  0  0
 13 31  1  0  0  0  0
 14 15  2  0  0  0  0
 14 16  1  0  0  0  0
 16 17  1  0  0  0  0
 16 18  1  0  0  0  0
 17 32  1  0  0  0  0
 17 33  1  0  0  0  0
 17 34  1  0  0  0  0
 18 35  1  0  0  0  0
 18 36  1  0  0  0  0
M  END
> <s_m_source_file>
AV-unprocessed.smi

> <i_m_source_file_index>
3253

> <i_lp_mmshare_version>
43012

> <i_f3d_flags>
0

> <s_epik_input>
W2NIXTFuW2NIXVtjSF1uMVtDSDJdW0NAQEhdKFtDSDNdKVtOSF1DKD1PKVtDQEBIXTJbQ0gyXUMoPU8pTihbQ0gzXSlbQ0gyXTI=

> <s_epik_cmdline>
J2VwaWtfcHl0aG9uJywgJy1waCcsICc3LjAnLCAnLXRuJywgJzgnLCAnLW1hJywgJzIwMCcsICctbWV0YWxfYmluZGluZycsICctaW1hZScsICc8aW5maWxlLm1hZT4nLCAnLW9tYWUnLCAnPG91dGZpbGUubWFlPic=

> <r_lp_tautomer_probability>
1

> <r_epik_Ionization_Penalty>
0.628884

> <r_epik_Ionization_Penalty_Charging>
0.628884

> <r_epik_Ionization_Penalty_Neutral>
2.35084e-08

> <r_epik_State_Penalty>
0.64556

> <r_epik_Charging_Adjusted_Penalty>
1.27444

> <i_epik_Tot_Q>
0

> <i_epik_Tot_abs_Q>
0

> <r_epik_Metal_State_Penalty>
0.308736

> <b_epik_Metal_Only>
0

> <s_lp_Force_Field>
OPLS_2005

> <r_lp_Energy>
12.6473

> <b_lp_Chiralities_Consistent>
1

> <s_lp_Variant>
AV-unprocessed.smi:3253-6

> <Gold.Version>
5.8.1

> <Gold.Id.Protein>
6NUR|6NUR_protein|mol2

> <Gold.PLP.Fitness>
43.4389

> <Gold.PLP.PLP>
-35.6469

> <Gold.PLP.part.hbond>
-1.9171

> <Gold.PLP.part.metal>
0.0000

> <Gold.PLP.part.buried>
-5.8054

> <Gold.PLP.part.nonpolar>
-28.4341

> <Gold.PLP.part.repulsive>
0.2748

> <Gold.PLP.ligand.clash>
0.5101

> <Gold.PLP.ligand.torsion>
0.2208

> <Gold.PLP.Chemscore.Hbond>
1.9913

> <Gold.PLP.Chemscore.CHOScore>
0.9032

> <Gold.PLP.Chemscore.Metal>
0.0000

> <Gold.Chemscore.Hbonds>
donor molecule, donor type, donor heavy atom, donor atom, acceptor molecule, acceptor atom, score
      P1  H  7989  7998       L1    15  0.91
      P1  H  7997  8009       L1    11  1.00
      L1  C     6    26       P1  8028  0.53
      L1  C     6    26       P1  8029  0.38

> <Gold.PLP.Chemscore.Internal.Correction>
0.0604

> <Gold.Rescore>
     Score         DG    S(hbond)    S(metal)    S(lipo)     H(rot)  DE(clash)    DE(int)     intcor
     13.10     -14.91       1.96        0.00      67.59       1.97       0.09       1.72       ----

> <Gold.Chemscore.Fitness>
13.1014

> <Gold.Chemscore.DG>
-14.9085

> <Gold.Chemscore.ZeroCoef>
-5.4800

> <Gold.Chemscore.Hbond>
1.9629

> <Gold.Chemscore.Metal>
0.0000

> <Gold.Chemscore.Lipo>
67.5859

> <Gold.Chemscore.Internal_Hbond>
0.0000

> <Gold.Chemscore.DEClash>
0.0903

> <Gold.Chemscore.DEInternal>
1.7168

> <Gold.Chemscore.Rot>
1.9669

> <Gold.Chemscore.Internal.Correction>
   9.000000E+99

> <Gold.Chemscore.Hbonds>
donor molecule, donor type, donor heavy atom, donor atom, acceptor molecule, acceptor atom, score
      P1  H  7989  7998       L1    15  0.88
      P1  H  7997  8009       L1    11  0.60

> <Gold.Chemscore.Hbond.Weighted>
-6.5561

> <Gold.Chemscore.Metal.Weighted>
-0.0000

> <Gold.Chemscore.Lipo.Weighted>
-7.9076

> <Gold.Chemscore.Internal_Hbond.Weighted>
0.0000

> <Gold.Chemscore.DEClash.Weighted>
0.0903

> <Gold.Chemscore.DEInternal.Weighted>
1.7168

> <Gold.Chemscore.Rot.Weighted>
5.0352

> <Gold.Chemscore.Internal.Correction.Weighted>
   9.000000E+99

> <Gold.Protein.RotatedTorsions>
[ 6907 6896 6895 6894 ] final    8.87 input  -60.11 | X-H torsion
[ 7974 7965 7964 7962 ] final  -75.00 input  175.53 | X-H torsion
[ 8008 7997 7996 7995 ] final  136.13 input   59.86 | X-H torsion
[ 10167 10162 10161 10158 ] final  -41.42 input  -65.29 | X-H torsion
[ 10718 10713 10712 10709 ] final   -5.95 input   66.30 | X-H torsion
[ 10763 10752 10751 10750 ] final  -53.18 input  -60.55 | X-H torsion
[ 11005 11000 10999 10996 ] final -109.94 input  -57.11 | X-H torsion

> <Gold.Protein.ActiveResidues>
 VAL166  LYS551  ARG553  GLY616  TRP617  ASP618  TYR619  PRO620  LYS621  CYS622 
 ASP623  PHE694  ASN695  SER759  ASP760  ASP761  ALA762  ILE779  LEU786  VAL792 
 PHE793  MET794  SER795  GLU796  ALA797  LYS798  CYS799  TRP800  GLU811  SER814 

> <Gold.Protein.RotatedAtoms>
  151.7129  135.0909  160.0270 H   0  0  0  0  0  0  0  0  0  0  0  0  # atno 6907 bound_to 6896
  152.3650  133.6341  159.6052 H   0  0  0  0  0  0  0  0  0  0  0  0  # atno 6908 bound_to 6896
  150.7631  133.9279  159.3459 H   0  0  0  0  0  0  0  0  0  0  0  0  # atno 6909 bound_to 6896
  145.6318  140.9335  143.1083 H   0  0  0  0  0  0  0  0  0  0  0  0  # atno 7974 bound_to 7965
  156.3004  140.2453  156.3694 H   0  0  0  0  0  0  0  0  0  0  0  0  # atno 8008 bound_to 7997
  154.8802  140.0413  157.1797 H   0  0  0  0  0  0  0  0  0  0  0  0  # atno 8009 bound_to 7997
  154.8703  140.2934  155.5489 H   0  0  0  0  0  0  0  0  0  0  0  0  # atno 8010 bound_to 7997
  140.7003  143.3095  151.3064 H   0  0  0  0  0  0  0  0  0  0  0  0  # atno 10167 bound_to 10162
  156.7391  130.5204  149.5828 H   0  0  0  0  0  0  0  0  0  0  0  0  # atno 10718 bound_to 10713
  154.1547  135.6484  153.4971 H   0  0  0  0  0  0  0  0  0  0  0  0  # atno 10763 bound_to 10752
  153.0128  135.5346  154.6772 H   0  0  0  0  0  0  0  0  0  0  0  0  # atno 10764 bound_to 10752
  154.6070  135.2949  155.0446 H   0  0  0  0  0  0  0  0  0  0  0  0  # atno 10765 bound_to 10752
  141.0820  133.9204  157.2269 H   0  0  0  0  0  0  0  0  0  0  0  0  # atno 11005 bound_to 11000
  144.7191  139.8093  143.7388 LP  0  0  0  0  0  0  0  0  0  0  0  0  # atno 17320 bound_to 7965
  146.1351  139.4394  143.0144 LP  0  0  0  0  0  0  0  0  0  0  0  0  # atno 17321 bound_to 7965
  139.6513  144.0357  152.2628 LP  0  0  0  0  0  0  0  0  0  0  0  0  # atno 17342 bound_to 10162
  139.9894  144.6372  150.7828 LP  0  0  0  0  0  0  0  0  0  0  0  0  # atno 17343 bound_to 10162
  156.1477  130.6288  151.0553 LP  0  0  0  0  0  0  0  0  0  0  0  0  # atno 17370 bound_to 10713
  157.6826  131.0834  150.7329 LP  0  0  0  0  0  0  0  0  0  0  0  0  # atno 17371 bound_to 10713
  139.9634  135.0148  156.9323 LP  0  0  0  0  0  0  0  0  0  0  0  0  # atno 17394 bound_to 11000
  140.5448  134.0685  155.7352 LP  0  0  0  0  0  0  0  0  0  0  0  0  # atno 17395 bound_to 11000

$$$$
