AV-unprocessed.smi:2044|AV-procd|sdf|8306|dock3
  -GOLD-   2272010573D 1   1.00000     0.00000
 Structure written by MMmdl.
 39 40  0  0  0  0  0  0  0  0  3 V2000
  152.0414  145.5925  159.8896 C   0  0  0  0  0  0  0  0  0  0  0  0
  151.7176  144.4035  159.0520 C   0  0  0  0  0  0  0  0  0  0  0  0
  151.1672  144.2627  157.8093 C   0  0  0  0  0  0  0  0  0  0  0  0
  151.1455  142.8546  157.6247 C   0  0  0  0  0  0  0  0  0  0  0  0
  150.6377  142.2902  156.4248 N   0  0  0  0  0  0  0  0  0  0  0  0
  150.6783  141.0102  156.0120 C   0  0  0  0  0  0  0  0  0  0  0  0
  151.1933  140.1405  156.7244 O   0  0  0  0  0  0  0  0  0  0  0  0
  150.1069  140.8471  154.7873 N   0  5  0  0  0  0  0  0  0  0  0  0
  149.6568  139.5689  154.2344 C   0  0  0  0  0  0  0  0  0  0  0  0
  148.4636  139.7865  153.2659 C   0  0  2  0  0  0  0  0  0  0  0  0
  147.6167  141.0477  153.5722 C   0  0  0  0  0  0  0  0  0  0  0  0
  147.6377  138.5431  153.1615 N   0  3  0  0  0  0  0  0  0  0  0  0
  147.0479  138.0242  154.4276 C   0  0  0  0  0  0  0  0  0  0  0  0
  146.3759  136.6650  154.1773 C   0  0  0  0  0  0  0  0  0  0  0  0
  145.3777  136.8081  153.1740 O   0  0  0  0  0  0  0  0  0  0  0  0
  145.9263  137.2349  151.9329 C   0  0  0  0  0  0  0  0  0  0  0  0
  146.5995  138.6075  152.1029 C   0  0  0  0  0  0  0  0  0  0  0  0
  151.6392  142.1961  158.6629 N   0  0  0  0  0  0  0  0  0  0  0  0
  152.0079  143.1850  159.5826 O   0  0  0  0  0  0  0  0  0  0  0  0
  151.7746  146.5161  159.3754 H   0  0  0  0  0  0  0  0  0  0  0  0
  153.1071  145.6274  160.1151 H   0  0  0  0  0  0  0  0  0  0  0  0
  151.4961  145.5604  160.8328 H   0  0  0  0  0  0  0  0  0  0  0  0
  150.8340  145.0424  157.1407 H   0  0  0  0  0  0  0  0  0  0  0  0
  150.1897  142.9386  155.7946 H   0  0  0  0  0  0  0  0  0  0  0  0
  150.4496  139.0584  153.6851 H   0  0  0  0  0  0  0  0  0  0  0  0
  149.3583  138.8750  155.0206 H   0  0  0  0  0  0  0  0  0  0  0  0
  148.9109  139.9424  152.2824 H   0  0  0  0  0  0  0  0  0  0  0  0
  148.2057  141.9626  153.4880 H   0  0  0  0  0  0  0  0  0  0  0  0
  147.1843  141.0328  154.5742 H   0  0  0  0  0  0  0  0  0  0  0  0
  146.7948  141.1446  152.8628 H   0  0  0  0  0  0  0  0  0  0  0  0
  147.8147  137.9138  155.1946 H   0  0  0  0  0  0  0  0  0  0  0  0
  146.3053  138.7237  154.8133 H   0  0  0  0  0  0  0  0  0  0  0  0
  147.1096  135.9151  153.8770 H   0  0  0  0  0  0  0  0  0  0  0  0
  145.9066  136.3038  155.0925 H   0  0  0  0  0  0  0  0  0  0  0  0
  146.6396  136.4956  151.5647 H   0  0  0  0  0  0  0  0  0  0  0  0
  145.1254  137.2983  151.1962 H   0  0  0  0  0  0  0  0  0  0  0  0
  145.8558  139.3626  152.3609 H   0  0  0  0  0  0  0  0  0  0  0  0
  147.0472  138.9065  151.1544 H   0  0  0  0  0  0  0  0  0  0  0  0
  148.2882  137.8367  152.8477 H   0  0  0  0  0  0  0  0  0  0  0  0
  1  2  1  0  0  0  0
  1 20  1  0  0  0  0
  1 21  1  0  0  0  0
  1 22  1  0  0  0  0
  2 19  1  0  0  0  0
  2  3  2  0  0  0  0
  3  4  1  0  0  0  0
  3 23  1  0  0  0  0
  4  5  1  0  0  0  0
  4 18  2  0  0  0  0
  5  6  1  0  0  0  0
  5 24  1  0  0  0  0
  6  7  2  0  0  0  0
  6  8  1  0  0  0  0
  8  9  1  0  0  0  0
  9 10  1  0  0  0  0
  9 25  1  0  0  0  0
  9 26  1  0  0  0  0
 10 11  1  0  0  0  0
 10 12  1  0  0  0  0
 10 27  1  0  0  0  0
 11 28  1  0  0  0  0
 11 29  1  0  0  0  0
 11 30  1  0  0  0  0
 12 17  1  0  0  0  0
 12 13  1  0  0  0  0
 12 39  1  0  0  0  0
 13 14  1  0  0  0  0
 13 31  1  0  0  0  0
 13 32  1  0  0  0  0
 14 15  1  0  0  0  0
 14 33  1  0  0  0  0
 14 34  1  0  0  0  0
 15 16  1  0  0  0  0
 16 17  1  0  0  0  0
 16 35  1  0  0  0  0
 16 36  1  0  0  0  0
 17 37  1  0  0  0  0
 17 38  1  0  0  0  0
 18 19  1  0  0  0  0
M  CHG  1   8  -1
M  CHG  1  12   1
M  END
> <s_m_source_file>
AV-unprocessed.smi

> <i_m_source_file_index>
2044

> <i_lp_mmshare_version>
43012

> <i_f3d_flags>
0

> <s_epik_input>
W0NIM11jMVtjSF1jKG5vMSlbTkhdQyg9TylbTkhdW0NIMl1bQ0BIXShbQ0gzXSlOMltDSDJdW0NIMl1PW0NIMl1bQ0gyXTI=

> <s_epik_cmdline>
J2VwaWtfcHl0aG9uJywgJy1waCcsICc3LjAnLCAnLXRuJywgJzgnLCAnLW1hJywgJzIwMCcsICctbWV0YWxfYmluZGluZycsICctaW1hZScsICc8aW5maWxlLm1hZT4nLCAnLW9tYWUnLCAnPG91dGZpbGUubWFlPic=

> <r_epik_Ionization_Penalty>
6.79272

> <r_epik_Ionization_Penalty_Charging>
6.79272

> <r_epik_Ionization_Penalty_Neutral>
5.6208e-06

> <r_epik_State_Penalty>
7.45901

> <r_epik_Charging_Adjusted_Penalty>
14.2517

> <i_epik_Tot_Q>
0

> <i_epik_Tot_abs_Q>
2

> <r_epik_Metal_State_Penalty>
3.38639

> <b_epik_Metal_Only>
1

> <s_lp_Force_Field>
OPLS_2005

> <r_lp_Energy>
17.6269

> <b_lp_Chiralities_Consistent>
1

> <s_lp_Variant>
AV-unprocessed.smi:2044-9

> <Gold.Version>
5.8.1

> <Gold.Id.Protein>
6NUR|6NUR_protein|mol2

> <Gold.PLP.Fitness>
40.2433

> <Gold.PLP.PLP>
-32.1081

> <Gold.PLP.part.hbond>
-3.5767

> <Gold.PLP.part.metal>
0.0000

> <Gold.PLP.part.buried>
2.4642

> <Gold.PLP.part.nonpolar>
-32.8037

> <Gold.PLP.part.repulsive>
0.3980

> <Gold.PLP.ligand.clash>
0.0000

> <Gold.PLP.ligand.torsion>
0.6711

> <Gold.PLP.Chemscore.Hbond>
3.1174

> <Gold.PLP.Chemscore.CHOScore>
0.0000

> <Gold.PLP.Chemscore.Metal>
0.0000

> <Gold.Chemscore.Hbonds>
donor molecule, donor type, donor heavy atom, donor atom, acceptor molecule, acceptor atom, score
      L1  H     5    24       P1  8028  0.50
      L1  H    12    39       P1  7948  2.00
      P1  H  7989  7998       L1     8  0.41

> <Gold.PLP.Chemscore.Internal.Correction>
0.1254

> <Gold.Rescore>
     Score         DG    S(hbond)    S(metal)    S(lipo)     H(rot)  DE(clash)    DE(int)     intcor
     12.61     -16.60       1.76        0.00      79.52       1.59       2.02       1.97       ----

> <Gold.Chemscore.Fitness>
12.6070

> <Gold.Chemscore.DG>
-16.5991

> <Gold.Chemscore.ZeroCoef>
-5.4800

> <Gold.Chemscore.Hbond>
1.7645

> <Gold.Chemscore.Metal>
0.0000

> <Gold.Chemscore.Lipo>
79.5191

> <Gold.Chemscore.Internal_Hbond>
0.0000

> <Gold.Chemscore.DEClash>
2.0214

> <Gold.Chemscore.DEInternal>
1.9708

> <Gold.Chemscore.Rot>
1.5930

> <Gold.Chemscore.Internal.Correction>
   9.000000E+99

> <Gold.Chemscore.Hbonds>
donor molecule, donor type, donor heavy atom, donor atom, acceptor molecule, acceptor atom, score
      L1  H     5    24       P1  8028  0.50
      L1  H    12    39       P1  7948  0.97
      P1  H  7989  7998       L1     8  0.01

> <Gold.Chemscore.Hbond.Weighted>
-5.8934

> <Gold.Chemscore.Metal.Weighted>
-0.0000

> <Gold.Chemscore.Lipo.Weighted>
-9.3037

> <Gold.Chemscore.Internal_Hbond.Weighted>
0.0000

> <Gold.Chemscore.DEClash.Weighted>
2.0214

> <Gold.Chemscore.DEInternal.Weighted>
1.9708

> <Gold.Chemscore.Rot.Weighted>
4.0781

> <Gold.Chemscore.Internal.Correction.Weighted>
   9.000000E+99

> <Gold.Protein.RotatedTorsions>
[ 6907 6896 6895 6894 ] final -143.04 input  -60.11 | X-H torsion
[ 7974 7965 7964 7962 ] final -129.89 input  175.53 | X-H torsion
[ 8008 7997 7996 7995 ] final   -2.70 input   59.86 | X-H torsion
[ 10167 10162 10161 10158 ] final  -19.64 input  -65.29 | X-H torsion
[ 10718 10713 10712 10709 ] final  169.53 input   66.30 | X-H torsion
[ 10763 10752 10751 10750 ] final  -42.47 input  -60.55 | X-H torsion
[ 11005 11000 10999 10996 ] final  146.17 input  -57.11 | X-H torsion

> <Gold.Protein.ActiveResidues>
 VAL166  LYS551  ARG553  GLY616  TRP617  ASP618  TYR619  PRO620  LYS621  CYS622 
 ASP623  PHE694  ASN695  SER759  ASP760  ASP761  ALA762  ILE779  LEU786  VAL792 
 PHE793  MET794  SER795  GLU796  ALA797  LYS798  CYS799  TRP800  GLU811  SER814 

> <Gold.Protein.RotatedAtoms>
  151.0951  133.5286  159.2612 H   0  0  0  0  0  0  0  0  0  0  0  0  # atno 6907 bound_to 6896
  151.2138  135.0491  159.8932 H   0  0  0  0  0  0  0  0  0  0  0  0  # atno 6908 bound_to 6896
  152.5438  134.0763  159.8269 H   0  0  0  0  0  0  0  0  0  0  0  0  # atno 6909 bound_to 6896
  144.9527  140.7362  143.4777 H   0  0  0  0  0  0  0  0  0  0  0  0  # atno 7974 bound_to 7965
  154.6329  140.2528  155.7413 H   0  0  0  0  0  0  0  0  0  0  0  0  # atno 8008 bound_to 7997
  156.2489  140.2903  156.0608 H   0  0  0  0  0  0  0  0  0  0  0  0  # atno 8009 bound_to 7997
  155.1717  140.0386  157.2854 H   0  0  0  0  0  0  0  0  0  0  0  0  # atno 8010 bound_to 7997
  140.7270  143.4799  151.0131 H   0  0  0  0  0  0  0  0  0  0  0  0  # atno 10167 bound_to 10162
  157.0212  131.0232  151.2774 H   0  0  0  0  0  0  0  0  0  0  0  0  # atno 10718 bound_to 10713
  153.9796  135.6718  153.4749 H   0  0  0  0  0  0  0  0  0  0  0  0  # atno 10763 bound_to 10752
  153.0754  135.4951  154.8390 H   0  0  0  0  0  0  0  0  0  0  0  0  # atno 10764 bound_to 10752
  154.7172  135.3109  154.9066 H   0  0  0  0  0  0  0  0  0  0  0  0  # atno 10765 bound_to 10752
  140.0772  134.9118  157.1441 H   0  0  0  0  0  0  0  0  0  0  0  0  # atno 11005 bound_to 11000
  145.2819  139.1915  143.4786 LP  0  0  0  0  0  0  0  0  0  0  0  0  # atno 17320 bound_to 7965
  146.3327  140.2782  142.8609 LP  0  0  0  0  0  0  0  0  0  0  0  0  # atno 17321 bound_to 7965
  139.8497  143.7454  152.3178 LP  0  0  0  0  0  0  0  0  0  0  0  0  # atno 17342 bound_to 10162
  139.7632  144.7500  151.0333 LP  0  0  0  0  0  0  0  0  0  0  0  0  # atno 17343 bound_to 10162
  157.5248  130.8021  149.7849 LP  0  0  0  0  0  0  0  0  0  0  0  0  # atno 17370 bound_to 10713
  156.0101  130.3837  150.2293 LP  0  0  0  0  0  0  0  0  0  0  0  0  # atno 17371 bound_to 10713
  140.3541  134.2566  155.7195 LP  0  0  0  0  0  0  0  0  0  0  0  0  # atno 17394 bound_to 11000
  141.2033  133.7914  157.0344 LP  0  0  0  0  0  0  0  0  0  0  0  0  # atno 17395 bound_to 11000

$$$$
