AV-unprocessed.smi:3031|AV-procd|sdf|11553|dock10
  -GOLD-   2272016513D 1   1.00000     0.00000
 Structure written by MMmdl.
 46 47  0  0  0  0  0  0  0  0  1 V2000
  152.0371  145.0100  159.6330 C   0  0  0  0  0  0  0  0  0  0  0  0
  151.8915  143.7343  158.8549 C   0  0  0  0  0  0  0  0  0  0  0  0
  152.2711  142.4213  159.2536 C   0  0  0  0  0  0  0  0  0  0  0  0
  152.0051  141.5073  158.3350 N   0  0  0  0  0  0  0  0  0  0  0  0
  151.4451  142.2011  157.3216 N   0  0  0  0  0  0  0  0  0  0  0  0
  151.0137  141.5065  156.1213 C   0  0  0  0  0  0  0  0  0  0  0  0
  149.7164  140.7021  156.3375 C   0  0  2  0  0  0  0  0  0  0  0  0
  149.0579  141.0860  157.6750 C   0  0  0  0  0  0  0  0  0  0  0  0
  149.9985  139.2642  156.2629 N   0  0  0  0  0  0  0  0  0  0  0  0
  150.7302  138.8263  155.0745 C   0  0  0  0  0  0  0  0  0  0  0  0
  150.9982  137.3120  155.1074 C   0  0  2  0  0  0  0  0  0  0  0  0
  151.8624  136.9723  154.0435 O   0  0  0  0  0  0  0  0  0  0  0  0
  149.7742  136.3640  155.0743 C   0  0  0  0  0  0  0  0  0  0  0  0
  150.0296  134.9531  154.7576 N   0  0  0  0  0  0  0  0  0  0  0  0
  148.8158  134.2274  154.3797 C   0  0  0  0  0  0  0  0  0  0  0  0
  149.0989  132.7457  154.0787 C   0  0  0  0  0  0  0  0  0  0  0  0
  149.7076  132.1360  155.2114 O   0  0  0  0  0  0  0  0  0  0  0  0
  150.9141  132.7842  155.5985 C   0  0  0  0  0  0  0  0  0  0  0  0
  150.6286  134.2659  155.8989 C   0  0  0  0  0  0  0  0  0  0  0  0
  151.3678  143.5477  157.6069 C   0  0  0  0  0  0  0  0  0  0  0  0
  151.4052  145.0121  160.5212 H   0  0  0  0  0  0  0  0  0  0  0  0
  151.7605  145.8821  159.0400 H   0  0  0  0  0  0  0  0  0  0  0  0
  153.0635  145.1618  159.9673 H   0  0  0  0  0  0  0  0  0  0  0  0
  152.7294  142.1073  160.1799 H   0  0  0  0  0  0  0  0  0  0  0  0
  150.8829  142.2370  155.3214 H   0  0  0  0  0  0  0  0  0  0  0  0
  151.8217  140.8440  155.8075 H   0  0  0  0  0  0  0  0  0  0  0  0
  149.0241  140.9688  155.5378 H   0  0  0  0  0  0  0  0  0  0  0  0
  148.9084  142.1642  157.7380 H   0  0  0  0  0  0  0  0  0  0  0  0
  149.6773  140.7894  158.5221 H   0  0  0  0  0  0  0  0  0  0  0  0
  148.0778  140.6257  157.7963 H   0  0  0  0  0  0  0  0  0  0  0  0
  150.5080  138.9800  157.0937 H   0  0  0  0  0  0  0  0  0  0  0  0
  150.2081  139.0957  154.1587 H   0  0  0  0  0  0  0  0  0  0  0  0
  151.6879  139.3469  155.0326 H   0  0  0  0  0  0  0  0  0  0  0  0
  151.5489  137.0977  156.0242 H   0  0  0  0  0  0  0  0  0  0  0  0
  151.3359  136.6597  153.3234 H   0  0  0  0  0  0  0  0  0  0  0  0
  149.3235  136.4244  156.0664 H   0  0  0  0  0  0  0  0  0  0  0  0
  149.0144  136.7610  154.3996 H   0  0  0  0  0  0  0  0  0  0  0  0
  148.0798  134.2938  155.1824 H   0  0  0  0  0  0  0  0  0  0  0  0
  148.3514  134.6685  153.5037 H   0  0  0  0  0  0  0  0  0  0  0  0
  148.1711  132.2221  153.8481 H   0  0  0  0  0  0  0  0  0  0  0  0
  149.7490  132.6455  153.2082 H   0  0  0  0  0  0  0  0  0  0  0  0
  151.3177  132.2886  156.4816 H   0  0  0  0  0  0  0  0  0  0  0  0
  151.6586  132.6868  154.8067 H   0  0  0  0  0  0  0  0  0  0  0  0
  151.5617  134.7566  156.1780 H   0  0  0  0  0  0  0  0  0  0  0  0
  149.9674  134.3384  156.7640 H   0  0  0  0  0  0  0  0  0  0  0  0
  150.9467  144.2541  156.9067 H   0  0  0  0  0  0  0  0  0  0  0  0
  1  2  1  0  0  0  0
  1 21  1  0  0  0  0
  1 22  1  0  0  0  0
  1 23  1  0  0  0  0
  2 20  2  0  0  0  0
  2  3  1  0  0  0  0
  3  4  2  0  0  0  0
  3 24  1  0  0  0  0
  4  5  1  0  0  0  0
  5  6  1  0  0  0  0
  5 20  1  0  0  0  0
  6  7  1  0  0  0  0
  6 25  1  0  0  0  0
  6 26  1  0  0  0  0
  7  8  1  0  0  0  0
  7  9  1  0  0  0  0
  7 27  1  0  0  0  0
  8 28  1  0  0  0  0
  8 29  1  0  0  0  0
  8 30  1  0  0  0  0
  9 10  1  0  0  0  0
  9 31  1  0  0  0  0
 10 11  1  0  0  0  0
 10 32  1  0  0  0  0
 10 33  1  0  0  0  0
 11 12  1  0  0  0  0
 11 13  1  0  0  0  0
 11 34  1  0  0  0  0
 12 35  1  0  0  0  0
 13 14  1  0  0  0  0
 13 36  1  0  0  0  0
 13 37  1  0  0  0  0
 14 19  1  0  0  0  0
 14 15  1  0  0  0  0
 15 16  1  0  0  0  0
 15 38  1  0  0  0  0
 15 39  1  0  0  0  0
 16 17  1  0  0  0  0
 16 40  1  0  0  0  0
 16 41  1  0  0  0  0
 17 18  1  0  0  0  0
 18 19  1  0  0  0  0
 18 42  1  0  0  0  0
 18 43  1  0  0  0  0
 19 44  1  0  0  0  0
 19 45  1  0  0  0  0
 20 46  1  0  0  0  0
M  END
> <s_m_source_file>
AV-unprocessed.smi

> <i_m_source_file_index>
3031

> <i_lp_mmshare_version>
43012

> <i_f3d_flags>
0

> <s_epik_input>
W0NIM11jMVtjSF1ubihbY0hdMSlbQ0gyXVtDQEhdKFtDSDNdKVtOSF1bQ0gyXVtDQEhdKFtPSF0pW0NIMl1OMltDSDJdW0NIMl1PW0NIMl1bQ0gyXTI=

> <s_epik_cmdline>
J2VwaWtfcHl0aG9uJywgJy1waCcsICc3LjAnLCAnLXRuJywgJzgnLCAnLW1hJywgJzIwMCcsICctbWV0YWxfYmluZGluZycsICctaW1hZScsICc8aW5maWxlLm1hZT4nLCAnLW9tYWUnLCAnPG91dGZpbGUubWFlPic=

> <r_lp_tautomer_probability>
1

> <r_epik_Ionization_Penalty>
2.8101

> <r_epik_Ionization_Penalty_Charging>
0

> <r_epik_Ionization_Penalty_Neutral>
2.8101

> <r_epik_State_Penalty>
2.12351

> <r_epik_Charging_Adjusted_Penalty>
2.12351

> <i_epik_Tot_Q>
0

> <i_epik_Tot_abs_Q>
0

> <r_epik_Metal_State_Penalty>
2.12345

> <b_epik_Metal_Only>
0

> <s_lp_Force_Field>
OPLS_2005

> <r_lp_Energy>
35.4854

> <b_lp_Chiralities_Consistent>
1

> <s_lp_Variant>
AV-unprocessed.smi:3031-13

> <Gold.Version>
5.8.1

> <Gold.Id.Protein>
6NUR|6NUR_protein|mol2

> <Gold.PLP.Fitness>
44.7240

> <Gold.PLP.PLP>
-37.9752

> <Gold.PLP.part.hbond>
-2.0000

> <Gold.PLP.part.metal>
0.0000

> <Gold.PLP.part.buried>
-6.2478

> <Gold.PLP.part.nonpolar>
-29.6049

> <Gold.PLP.part.repulsive>
0.1621

> <Gold.PLP.ligand.clash>
0.0000

> <Gold.PLP.ligand.torsion>
1.1885

> <Gold.PLP.Chemscore.Hbond>
2.0000

> <Gold.PLP.Chemscore.CHOScore>
1.0000

> <Gold.PLP.Chemscore.Metal>
0.0000

> <Gold.Chemscore.Hbonds>
donor molecule, donor type, donor heavy atom, donor atom, acceptor molecule, acceptor atom, score
      L1  H    12    35       P1  7949  1.00
      P1  H 10752 10763       L1    12  1.00
      L1  C    20    46       P1  8028  1.00

> <Gold.PLP.Chemscore.Internal.Correction>
0.1257

> <Gold.Rescore>
     Score         DG    S(hbond)    S(metal)    S(lipo)     H(rot)  DE(clash)    DE(int)     intcor
     14.66     -16.03       1.57        0.00     100.89       2.53       0.06       1.31       ----

> <Gold.Chemscore.Fitness>
14.6620

> <Gold.Chemscore.DG>
-16.0299

> <Gold.Chemscore.ZeroCoef>
-5.4800

> <Gold.Chemscore.Hbond>
1.5662

> <Gold.Chemscore.Metal>
0.0000

> <Gold.Chemscore.Lipo>
100.8886

> <Gold.Chemscore.Internal_Hbond>
0.0000

> <Gold.Chemscore.DEClash>
0.0612

> <Gold.Chemscore.DEInternal>
1.3067

> <Gold.Chemscore.Rot>
2.5333

> <Gold.Chemscore.Internal.Correction>
   9.000000E+99

> <Gold.Chemscore.Hbonds>
donor molecule, donor type, donor heavy atom, donor atom, acceptor molecule, acceptor atom, score
      L1  H    12    35       P1  7949  0.70
      P1  H 10752 10763       L1    12  0.32

> <Gold.Chemscore.Hbond.Weighted>
-5.2311

> <Gold.Chemscore.Metal.Weighted>
-0.0000

> <Gold.Chemscore.Lipo.Weighted>
-11.8040

> <Gold.Chemscore.Internal_Hbond.Weighted>
0.0000

> <Gold.Chemscore.DEClash.Weighted>
0.0612

> <Gold.Chemscore.DEInternal.Weighted>
1.3067

> <Gold.Chemscore.Rot.Weighted>
6.4852

> <Gold.Chemscore.Internal.Correction.Weighted>
   9.000000E+99

> <Gold.Protein.RotatedTorsions>
[ 6907 6896 6895 6894 ] final  -36.82 input  -60.11 | X-H torsion
[ 7974 7965 7964 7962 ] final -130.07 input  175.53 | X-H torsion
[ 8008 7997 7996 7995 ] final  -39.48 input   59.86 | X-H torsion
[ 10167 10162 10161 10158 ] final   78.24 input  -65.29 | X-H torsion
[ 10718 10713 10712 10709 ] final  -27.74 input   66.30 | X-H torsion
[ 10763 10752 10751 10750 ] final   43.93 input  -60.55 | X-H torsion
[ 11005 11000 10999 10996 ] final -148.31 input  -57.11 | X-H torsion

> <Gold.Protein.ActiveResidues>
 VAL166  LYS551  ARG553  GLY616  TRP617  ASP618  TYR619  PRO620  LYS621  CYS622 
 ASP623  PHE694  ASN695  SER759  ASP760  ASP761  ALA762  ILE779  LEU786  VAL792 
 PHE793  MET794  SER795  GLU796  ALA797  LYS798  CYS799  TRP800  GLU811  SER814 

> <Gold.Protein.RotatedAtoms>
  151.0224  134.9479  159.8066 H   0  0  0  0  0  0  0  0  0  0  0  0  # atno 6907 bound_to 6896
  152.5328  134.2886  159.9044 H   0  0  0  0  0  0  0  0  0  0  0  0  # atno 6908 bound_to 6896
  151.2894  133.4130  159.2666 H   0  0  0  0  0  0  0  0  0  0  0  0  # atno 6909 bound_to 6896
  144.9510  140.7345  143.4787 H   0  0  0  0  0  0  0  0  0  0  0  0  # atno 7974 bound_to 7965
  154.4022  140.1550  156.2870 H   0  0  0  0  0  0  0  0  0  0  0  0  # atno 8008 bound_to 7997
  155.8819  140.3443  155.5872 H   0  0  0  0  0  0  0  0  0  0  0  0  # atno 8009 bound_to 7997
  155.7657  140.0823  157.2123 H   0  0  0  0  0  0  0  0  0  0  0  0  # atno 8010 bound_to 7997
  139.9731  144.5880  150.7968 H   0  0  0  0  0  0  0  0  0  0  0  0  # atno 10167 bound_to 10162
  156.4342  130.4451  149.7096 H   0  0  0  0  0  0  0  0  0  0  0  0  # atno 10718 bound_to 10713
  152.9851  135.6086  154.3191 H   0  0  0  0  0  0  0  0  0  0  0  0  # atno 10763 bound_to 10752
  154.2902  135.2775  155.2660 H   0  0  0  0  0  0  0  0  0  0  0  0  # atno 10764 bound_to 10752
  154.4959  135.5880  153.6550 H   0  0  0  0  0  0  0  0  0  0  0  0  # atno 10765 bound_to 10752
  140.7625  134.3281  157.5097 H   0  0  0  0  0  0  0  0  0  0  0  0  # atno 11005 bound_to 11000
  145.2843  139.1906  143.4774 LP  0  0  0  0  0  0  0  0  0  0  0  0  # atno 17320 bound_to 7965
  146.3321  140.2810  142.8610 LP  0  0  0  0  0  0  0  0  0  0  0  0  # atno 17321 bound_to 7965
  140.7515  143.2974  151.3169 LP  0  0  0  0  0  0  0  0  0  0  0  0  # atno 17342 bound_to 10162
  139.6466  144.0439  152.2595 LP  0  0  0  0  0  0  0  0  0  0  0  0  # atno 17343 bound_to 10162
  156.3987  130.7664  151.2670 LP  0  0  0  0  0  0  0  0  0  0  0  0  # atno 17370 bound_to 10713
  157.7507  131.0246  150.3884 LP  0  0  0  0  0  0  0  0  0  0  0  0  # atno 17371 bound_to 10713
  139.8768  134.9211  156.3267 LP  0  0  0  0  0  0  0  0  0  0  0  0  # atno 17394 bound_to 11000
  140.9649  133.7364  156.0453 LP  0  0  0  0  0  0  0  0  0  0  0  0  # atno 17395 bound_to 11000

$$$$
