AV-unprocessed.smi:3168|AV-procd|sdf|12101|dock2
  -GOLD-   2272017533D 1   1.00000     0.00000
 Structure written by MMmdl.
 33 34  0  0  0  0  0  0  0  0  1 V2000
  151.1337  137.2922  155.0075 C   0  0  0  0  0  0  0  0  0  0  0  0
  151.4724  138.7969  155.0333 C   0  0  2  0  0  0  0  0  0  0  0  0
  152.1783  139.2334  156.3292 C   0  0  0  0  0  0  0  0  0  0  0  0
  153.2618  138.7448  156.6521 O   0  0  0  0  0  0  0  0  0  0  0  0
  151.5526  140.1717  157.0583 N   0  0  0  0  0  0  0  0  0  0  0  0
  152.0571  140.7523  158.2971 C   0  0  0  0  0  0  0  0  0  0  0  0
  151.4021  142.1132  158.5823 C   0  0  1  0  0  0  0  0  0  0  0  0
  152.1519  142.9496  159.6166 C   0  0  0  0  0  0  0  0  0  0  0  0
  151.6683  144.3432  159.2868 C   0  0  0  0  0  0  0  0  0  0  0  0
  151.5842  144.2986  157.7629 C   0  0  0  0  0  0  0  0  0  0  0  0
  151.3830  142.9306  157.4148 O   0  0  0  0  0  0  0  0  0  0  0  0
  150.2971  139.6235  154.7795 N   0  0  0  0  0  0  0  0  0  0  0  0
  149.0278  139.2093  154.4285 C   0  0  0  0  0  0  0  0  0  0  0  0
  148.2618  140.3273  154.2622 C   0  0  0  0  0  0  0  0  0  0  0  0
  149.1621  141.3960  154.5281 C   0  0  0  0  0  0  0  0  0  0  0  0
  150.3788  140.9737  154.8307 N   0  0  0  0  0  0  0  0  0  0  0  0
  152.0300  136.6843  155.1372 H   0  0  0  0  0  0  0  0  0  0  0  0
  150.6853  137.0116  154.0541 H   0  0  0  0  0  0  0  0  0  0  0  0
  150.4315  137.0175  155.7959 H   0  0  0  0  0  0  0  0  0  0  0  0
  152.1748  138.9803  154.2187 H   0  0  0  0  0  0  0  0  0  0  0  0
  150.6665  140.5190  156.7216 H   0  0  0  0  0  0  0  0  0  0  0  0
  151.8227  140.0581  159.1045 H   0  0  0  0  0  0  0  0  0  0  0  0
  153.1444  140.8437  158.2770 H   0  0  0  0  0  0  0  0  0  0  0  0
  150.3721  141.9748  158.9159 H   0  0  0  0  0  0  0  0  0  0  0  0
  151.9344  142.6529  160.6429 H   0  0  0  0  0  0  0  0  0  0  0  0
  153.2297  142.8817  159.4600 H   0  0  0  0  0  0  0  0  0  0  0  0
  150.6770  144.5034  159.7131 H   0  0  0  0  0  0  0  0  0  0  0  0
  152.3298  145.1275  159.6554 H   0  0  0  0  0  0  0  0  0  0  0  0
  150.7812  144.9273  157.3776 H   0  0  0  0  0  0  0  0  0  0  0  0
  152.5205  144.6341  157.3159 H   0  0  0  0  0  0  0  0  0  0  0  0
  148.7775  138.1635  154.3266 H   0  0  0  0  0  0  0  0  0  0  0  0
  147.2182  140.3746  153.9890 H   0  0  0  0  0  0  0  0  0  0  0  0
  148.9705  142.4588  154.5073 H   0  0  0  0  0  0  0  0  0  0  0  0
  1  2  1  0  0  0  0
  1 17  1  0  0  0  0
  1 18  1  0  0  0  0
  1 19  1  0  0  0  0
  2  3  1  0  0  0  0
  2 12  1  0  0  0  0
  2 20  1  0  0  0  0
  3  4  2  0  0  0  0
  3  5  1  0  0  0  0
  5  6  1  0  0  0  0
  5 21  1  0  0  0  0
  6  7  1  0  0  0  0
  6 22  1  0  0  0  0
  6 23  1  0  0  0  0
  7 11  1  0  0  0  0
  7  8  1  0  0  0  0
  7 24  1  0  0  0  0
  8  9  1  0  0  0  0
  8 25  1  0  0  0  0
  8 26  1  0  0  0  0
  9 10  1  0  0  0  0
  9 27  1  0  0  0  0
  9 28  1  0  0  0  0
 10 11  1  0  0  0  0
 10 29  1  0  0  0  0
 10 30  1  0  0  0  0
 12 16  1  0  0  0  0
 12 13  1  0  0  0  0
 13 14  2  0  0  0  0
 13 31  1  0  0  0  0
 14 15  1  0  0  0  0
 14 32  1  0  0  0  0
 15 16  2  0  0  0  0
 15 33  1  0  0  0  0
M  END
> <s_m_source_file>
AV-unprocessed.smi

> <i_m_source_file_index>
3168

> <i_lp_mmshare_version>
43012

> <i_f3d_flags>
0

> <s_epik_input>
bjFbY0hdW2NIXVtjSF1uMVtDQEhdKFtDSDNdKUMoPU8pW05IXVtDSDJdW0NAQEhdMltDSDJdW0NIMl1bQ0gyXU8y

> <s_epik_cmdline>
J2VwaWtfcHl0aG9uJywgJy1waCcsICc3LjAnLCAnLXRuJywgJzgnLCAnLW1hJywgJzIwMCcsICctbWV0YWxfYmluZGluZycsICctaW1hZScsICc8aW5maWxlLm1hZT4nLCAnLW9tYWUnLCAnPG91dGZpbGUubWFlPic=

> <r_lp_tautomer_probability>
1

> <r_epik_Ionization_Penalty>
4.14877e-05

> <r_epik_Ionization_Penalty_Charging>
0

> <r_epik_Ionization_Penalty_Neutral>
4.14877e-05

> <r_epik_State_Penalty>
-0

> <r_epik_Charging_Adjusted_Penalty>
0

> <i_epik_Tot_Q>
0

> <i_epik_Tot_abs_Q>
0

> <r_epik_Metal_State_Penalty>
-0

> <b_epik_Metal_Only>
0

> <s_lp_Force_Field>
OPLS_2005

> <r_lp_Energy>
21.5397

> <b_lp_Chiralities_Consistent>
1

> <s_lp_Variant>
AV-unprocessed.smi:3168-3

> <Gold.Version>
5.8.1

> <Gold.Id.Protein>
6NUR|6NUR_protein|mol2

> <Gold.PLP.Fitness>
41.2115

> <Gold.PLP.PLP>
-34.9840

> <Gold.PLP.part.hbond>
-2.0000

> <Gold.PLP.part.metal>
0.0000

> <Gold.PLP.part.buried>
-1.5890

> <Gold.PLP.part.nonpolar>
-31.6662

> <Gold.PLP.part.repulsive>
0.3043

> <Gold.PLP.ligand.clash>
0.0000

> <Gold.PLP.ligand.torsion>
0.4604

> <Gold.PLP.Chemscore.Hbond>
1.3520

> <Gold.PLP.Chemscore.CHOScore>
0.9960

> <Gold.PLP.Chemscore.Metal>
0.0000

> <Gold.Chemscore.Hbonds>
donor molecule, donor type, donor heavy atom, donor atom, acceptor molecule, acceptor atom, score
      P1  H  7989  7998       L1    16  0.32
      P1  H  7997  8009       L1     4  1.00
      L1  C    15    33       P1  8028  1.00

> <Gold.PLP.Chemscore.Internal.Correction>
0.1042

> <Gold.Rescore>
     Score         DG    S(hbond)    S(metal)    S(lipo)     H(rot)  DE(clash)    DE(int)     intcor
     12.30     -14.24       0.91        0.00      84.07       1.61       0.02       1.92       ----

> <Gold.Chemscore.Fitness>
12.3045

> <Gold.Chemscore.DG>
-14.2436

> <Gold.Chemscore.ZeroCoef>
-5.4800

> <Gold.Chemscore.Hbond>
0.9125

> <Gold.Chemscore.Metal>
0.0000

> <Gold.Chemscore.Lipo>
84.0671

> <Gold.Chemscore.Internal_Hbond>
0.0000

> <Gold.Chemscore.DEClash>
0.0215

> <Gold.Chemscore.DEInternal>
1.9177

> <Gold.Chemscore.Rot>
1.6094

> <Gold.Chemscore.Internal.Correction>
   9.000000E+99

> <Gold.Chemscore.Hbonds>
donor molecule, donor type, donor heavy atom, donor atom, acceptor molecule, acceptor atom, score
      P1  H  7989  7998       L1    16  0.01
      P1  H  7997  8009       L1     4  0.62

> <Gold.Chemscore.Hbond.Weighted>
-3.0478

> <Gold.Chemscore.Metal.Weighted>
-0.0000

> <Gold.Chemscore.Lipo.Weighted>
-9.8359

> <Gold.Chemscore.Internal_Hbond.Weighted>
0.0000

> <Gold.Chemscore.DEClash.Weighted>
0.0215

> <Gold.Chemscore.DEInternal.Weighted>
1.9177

> <Gold.Chemscore.Rot.Weighted>
4.1201

> <Gold.Chemscore.Internal.Correction.Weighted>
   9.000000E+99

> <Gold.Protein.RotatedTorsions>
[ 6907 6896 6895 6894 ] final  -98.00 input  -60.11 | X-H torsion
[ 7974 7965 7964 7962 ] final -155.89 input  175.53 | X-H torsion
[ 8008 7997 7996 7995 ] final  172.28 input   59.86 | X-H torsion
[ 10167 10162 10161 10158 ] final   26.91 input  -65.29 | X-H torsion
[ 10718 10713 10712 10709 ] final  118.85 input   66.30 | X-H torsion
[ 10763 10752 10751 10750 ] final  -77.26 input  -60.55 | X-H torsion
[ 11005 11000 10999 10996 ] final -120.73 input  -57.11 | X-H torsion

> <Gold.Protein.ActiveResidues>
 VAL166  LYS551  ARG553  GLY616  TRP617  ASP618  TYR619  PRO620  LYS621  CYS622 
 ASP623  PHE694  ASN695  SER759  ASP760  ASP761  ALA762  ILE779  LEU786  VAL792 
 PHE793  MET794  SER795  GLU796  ALA797  LYS798  CYS799  TRP800  GLU811  SER814 

> <Gold.Protein.RotatedAtoms>
  150.7033  134.1262  159.4052 H   0  0  0  0  0  0  0  0  0  0  0  0  # atno 6907 bound_to 6896
  151.9248  135.0280  160.0534 H   0  0  0  0  0  0  0  0  0  0  0  0  # atno 6908 bound_to 6896
  152.2226  133.4960  159.5207 H   0  0  0  0  0  0  0  0  0  0  0  0  # atno 6909 bound_to 6896
  144.7618  140.4186  143.5971 H   0  0  0  0  0  0  0  0  0  0  0  0  # atno 7974 bound_to 7965
  156.1190  140.1490  156.9232 H   0  0  0  0  0  0  0  0  0  0  0  0  # atno 8008 bound_to 7997
  154.4821  140.0876  156.7444 H   0  0  0  0  0  0  0  0  0  0  0  0  # atno 8009 bound_to 7997
  155.4463  140.3433  155.4298 H   0  0  0  0  0  0  0  0  0  0  0  0  # atno 8010 bound_to 7997
  140.4983  144.0356  150.6323 H   0  0  0  0  0  0  0  0  0  0  0  0  # atno 10167 bound_to 10162
  157.6002  131.1052  150.7813 H   0  0  0  0  0  0  0  0  0  0  0  0  # atno 10718 bound_to 10713
  154.5106  135.5770  153.6602 H   0  0  0  0  0  0  0  0  0  0  0  0  # atno 10763 bound_to 10752
  152.9896  135.6158  154.2884 H   0  0  0  0  0  0  0  0  0  0  0  0  # atno 10764 bound_to 10752
  154.2798  135.2851  155.2682 H   0  0  0  0  0  0  0  0  0  0  0  0  # atno 10765 bound_to 10752
  141.0122  134.0248  157.3398 H   0  0  0  0  0  0  0  0  0  0  0  0  # atno 11005 bound_to 11000
  145.6594  139.1579  143.2817 LP  0  0  0  0  0  0  0  0  0  0  0  0  # atno 17320 bound_to 7965
  146.1689  140.6676  142.9242 LP  0  0  0  0  0  0  0  0  0  0  0  0  # atno 17321 bound_to 7965
  140.3645  143.2889  152.0347 LP  0  0  0  0  0  0  0  0  0  0  0  0  # atno 17342 bound_to 10162
  139.4866  144.6277  151.7131 LP  0  0  0  0  0  0  0  0  0  0  0  0  # atno 17343 bound_to 10162
  156.8214  130.4985  149.5342 LP  0  0  0  0  0  0  0  0  0  0  0  0  # atno 17370 bound_to 10713
  156.1074  130.6014  150.9992 LP  0  0  0  0  0  0  0  0  0  0  0  0  # atno 17371 bound_to 10713
  139.9096  135.0187  156.7636 LP  0  0  0  0  0  0  0  0  0  0  0  0  # atno 17394 bound_to 11000
  140.6715  133.9555  155.7859 LP  0  0  0  0  0  0  0  0  0  0  0  0  # atno 17395 bound_to 11000

$$$$
