AV-unprocessed.smi:2386|AV-procd|sdf|9467|dock4
  -GOLD-   2272013 93D 1   1.00000     0.00000
 Structure written by MMmdl.
 43 44  0  0  0  0  0  0  0  0  2 V2000
  152.2610  145.7472  160.3331 C   0  0  0  0  0  0  0  0  0  0  0  0
  152.0389  144.3654  159.7551 C   0  0  0  0  0  0  0  0  0  0  0  0
  152.6638  143.2352  160.3176 C   0  0  0  0  0  0  0  0  0  0  0  0
  152.4141  141.9805  159.7337 C   0  0  0  0  0  0  0  0  0  0  0  0
  151.5547  141.9081  158.6206 C   0  0  0  0  0  0  0  0  0  0  0  0
  150.9671  143.0906  158.1178 C   0  0  0  0  0  0  0  0  0  0  0  0
  150.1155  142.9089  156.9959 N   0  0  0  0  0  0  0  0  0  0  0  0
  150.0795  141.8742  156.1379 C   0  0  0  0  0  0  0  0  0  0  0  0
  150.7967  140.8748  156.1936 O   0  0  0  0  0  0  0  0  0  0  0  0
  149.1434  142.0584  155.1956 N   0  0  0  0  0  0  0  0  0  0  0  0
  148.8488  141.1300  154.1083 C   0  0  0  0  0  0  0  0  0  0  0  0
  147.8441  140.0319  154.5078 C   0  0  0  0  0  0  0  0  0  0  0  0
  147.8612  138.8060  153.5748 C   0  0  0  0  0  0  0  0  0  0  0  0
  148.9162  137.8309  153.9477 N   0  3  0  0  0  0  0  0  0  0  0  0
  150.2444  138.4680  154.1155 C   0  0  0  0  0  0  0  0  0  0  0  0
  151.3107  137.4122  154.4523 C   0  0  0  0  0  0  0  0  0  0  0  0
  150.9282  136.7058  155.6254 O   0  0  0  0  0  0  0  0  0  0  0  0
  149.6981  136.0143  155.4511 C   0  0  0  0  0  0  0  0  0  0  0  0
  148.5763  137.0210  155.1441 C   0  0  0  0  0  0  0  0  0  0  0  0
  151.2159  144.2965  158.6864 N   0  0  0  0  0  0  0  0  0  0  0  0
  152.9474  145.7166  161.1797 H   0  0  0  0  0  0  0  0  0  0  0  0
  151.3165  146.1703  160.6761 H   0  0  0  0  0  0  0  0  0  0  0  0
  152.6818  146.4113  159.5777 H   0  0  0  0  0  0  0  0  0  0  0  0
  153.3170  143.3236  161.1733 H   0  0  0  0  0  0  0  0  0  0  0  0
  152.8729  141.0877  160.1325 H   0  0  0  0  0  0  0  0  0  0  0  0
  151.3514  140.9516  158.1614 H   0  0  0  0  0  0  0  0  0  0  0  0
  149.4613  143.6577  156.8242 H   0  0  0  0  0  0  0  0  0  0  0  0
  148.6040  142.9115  155.2229 H   0  0  0  0  0  0  0  0  0  0  0  0
  148.4504  141.7061  153.2727 H   0  0  0  0  0  0  0  0  0  0  0  0
  149.7763  140.6776  153.7535 H   0  0  0  0  0  0  0  0  0  0  0  0
  148.0709  139.7276  155.5291 H   0  0  0  0  0  0  0  0  0  0  0  0
  146.8372  140.4501  154.5383 H   0  0  0  0  0  0  0  0  0  0  0  0
  146.8909  138.3119  153.6383 H   0  0  0  0  0  0  0  0  0  0  0  0
  147.9832  139.1101  152.5342 H   0  0  0  0  0  0  0  0  0  0  0  0
  150.5249  138.9888  153.1993 H   0  0  0  0  0  0  0  0  0  0  0  0
  150.1945  139.2157  154.9085 H   0  0  0  0  0  0  0  0  0  0  0  0
  151.4480  136.7175  153.6222 H   0  0  0  0  0  0  0  0  0  0  0  0
  152.2731  137.8929  154.6277 H   0  0  0  0  0  0  0  0  0  0  0  0
  149.7903  135.2773  154.6519 H   0  0  0  0  0  0  0  0  0  0  0  0
  149.4698  135.4655  156.3649 H   0  0  0  0  0  0  0  0  0  0  0  0
  148.4256  137.6791  156.0013 H   0  0  0  0  0  0  0  0  0  0  0  0
  147.6425  136.4818  154.9884 H   0  0  0  0  0  0  0  0  0  0  0  0
  149.0073  137.1916  153.1709 H   0  0  0  0  0  0  0  0  0  0  0  0
  1  2  1  0  0  0  0
  1 21  1  0  0  0  0
  1 22  1  0  0  0  0
  1 23  1  0  0  0  0
  2 20  1  0  0  0  0
  2  3  2  0  0  0  0
  3  4  1  0  0  0  0
  3 24  1  0  0  0  0
  4  5  2  0  0  0  0
  4 25  1  0  0  0  0
  5  6  1  0  0  0  0
  5 26  1  0  0  0  0
  6  7  1  0  0  0  0
  6 20  2  0  0  0  0
  7  8  1  0  0  0  0
  7 27  1  0  0  0  0
  8  9  2  0  0  0  0
  8 10  1  0  0  0  0
 10 11  1  0  0  0  0
 10 28  1  0  0  0  0
 11 12  1  0  0  0  0
 11 29  1  0  0  0  0
 11 30  1  0  0  0  0
 12 13  1  0  0  0  0
 12 31  1  0  0  0  0
 12 32  1  0  0  0  0
 13 14  1  0  0  0  0
 13 33  1  0  0  0  0
 13 34  1  0  0  0  0
 14 19  1  0  0  0  0
 14 15  1  0  0  0  0
 14 43  1  0  0  0  0
 15 16  1  0  0  0  0
 15 35  1  0  0  0  0
 15 36  1  0  0  0  0
 16 17  1  0  0  0  0
 16 37  1  0  0  0  0
 16 38  1  0  0  0  0
 17 18  1  0  0  0  0
 18 19  1  0  0  0  0
 18 39  1  0  0  0  0
 18 40  1  0  0  0  0
 19 41  1  0  0  0  0
 19 42  1  0  0  0  0
M  CHG  1  14   1
M  END
> <s_m_source_file>
AV-unprocessed.smi

> <i_m_source_file_index>
2386

> <i_lp_mmshare_version>
43012

> <i_f3d_flags>
0

> <s_epik_input>
W0NIM11jMVtjSF1bY0hdW2NIXWMobjEpW05IXUMoPU8pW05IXVtDSDJdW0NIMl1bQ0gyXU4yW0NIMl1bQ0gyXU9bQ0gyXVtDSDJdMg==

> <s_epik_cmdline>
J2VwaWtfcHl0aG9uJywgJy1waCcsICc3LjAnLCAnLXRuJywgJzgnLCAnLW1hJywgJzIwMCcsICctbWV0YWxfYmluZGluZycsICctaW1hZScsICc8aW5maWxlLm1hZT4nLCAnLW9tYWUnLCAnPG91dGZpbGUubWFlPic=

> <r_epik_Ionization_Penalty>
0.270568

> <r_epik_Ionization_Penalty_Charging>
0.270496

> <r_epik_Ionization_Penalty_Neutral>
7.21828e-05

> <r_epik_State_Penalty>
0.262618

> <r_epik_Charging_Adjusted_Penalty>
0.533114

> <i_epik_Tot_Q>
1

> <i_epik_Tot_abs_Q>
1

> <r_epik_Metal_State_Penalty>
0.26262

> <b_epik_Metal_Only>
0

> <s_lp_Force_Field>
OPLS_2005

> <r_lp_Energy>
18.5564

> <b_lp_Chiralities_Consistent>
1

> <s_lp_Variant>
AV-unprocessed.smi:2386-1

> <Gold.Version>
5.8.1

> <Gold.Id.Protein>
6NUR|6NUR_protein|mol2

> <Gold.PLP.Fitness>
46.6000

> <Gold.PLP.PLP>
-36.8623

> <Gold.PLP.part.hbond>
-3.0000

> <Gold.PLP.part.metal>
0.0000

> <Gold.PLP.part.buried>
-4.3601

> <Gold.PLP.part.nonpolar>
-30.0924

> <Gold.PLP.part.repulsive>
0.4244

> <Gold.PLP.ligand.clash>
0.1968

> <Gold.PLP.ligand.torsion>
0.5693

> <Gold.PLP.Chemscore.Hbond>
3.6800

> <Gold.PLP.Chemscore.CHOScore>
0.0000

> <Gold.PLP.Chemscore.Metal>
0.0000

> <Gold.Chemscore.Hbonds>
donor molecule, donor type, donor heavy atom, donor atom, acceptor molecule, acceptor atom, score
      L1  H     7    27       P1  8028  0.90
      L1  H    10    28       P1  8028  0.77
      L1  H    14    43       P1  7948  2.00

> <Gold.PLP.Chemscore.Internal.Correction>
0.0331

> <Gold.Rescore>
     Score         DG    S(hbond)    S(metal)    S(lipo)     H(rot)  DE(clash)    DE(int)     intcor
     19.13     -21.31       2.90        0.00      91.05       1.76       0.23       1.95       ----

> <Gold.Chemscore.Fitness>
19.1262

> <Gold.Chemscore.DG>
-21.3086

> <Gold.Chemscore.ZeroCoef>
-5.4800

> <Gold.Chemscore.Hbond>
2.8981

> <Gold.Chemscore.Metal>
0.0000

> <Gold.Chemscore.Lipo>
91.0500

> <Gold.Chemscore.Internal_Hbond>
0.0000

> <Gold.Chemscore.DEClash>
0.2350

> <Gold.Chemscore.DEInternal>
1.9474

> <Gold.Chemscore.Rot>
1.7593

> <Gold.Chemscore.Internal.Correction>
   9.000000E+99

> <Gold.Chemscore.Hbonds>
donor molecule, donor type, donor heavy atom, donor atom, acceptor molecule, acceptor atom, score
      L1  H     7    27       P1  8028  0.84
      L1  H    10    28       P1  8028  0.78
      L1  H    14    43       P1  7948  0.99

> <Gold.Chemscore.Hbond.Weighted>
-9.6797

> <Gold.Chemscore.Metal.Weighted>
-0.0000

> <Gold.Chemscore.Lipo.Weighted>
-10.6529

> <Gold.Chemscore.Internal_Hbond.Weighted>
0.0000

> <Gold.Chemscore.DEClash.Weighted>
0.2350

> <Gold.Chemscore.DEInternal.Weighted>
1.9474

> <Gold.Chemscore.Rot.Weighted>
4.5039

> <Gold.Chemscore.Internal.Correction.Weighted>
   9.000000E+99

> <Gold.Protein.RotatedTorsions>
[ 6907 6896 6895 6894 ] final -164.34 input  -60.11 | X-H torsion
[ 7974 7965 7964 7962 ] final  -82.11 input  175.53 | X-H torsion
[ 8008 7997 7996 7995 ] final  146.64 input   59.86 | X-H torsion
[ 10167 10162 10161 10158 ] final  -92.69 input  -65.29 | X-H torsion
[ 10718 10713 10712 10709 ] final  104.39 input   66.30 | X-H torsion
[ 10763 10752 10751 10750 ] final   45.55 input  -60.55 | X-H torsion
[ 11005 11000 10999 10996 ] final  171.04 input  -57.11 | X-H torsion

> <Gold.Protein.ActiveResidues>
 VAL166  LYS551  ARG553  GLY616  TRP617  ASP618  TYR619  PRO620  LYS621  CYS622 
 ASP623  PHE694  ASN695  SER759  ASP760  ASP761  ALA762  ILE779  LEU786  VAL792 
 PHE793  MET794  SER795  GLU796  ALA797  LYS798  CYS799  TRP800  GLU811  SER814 

> <Gold.Protein.RotatedAtoms>
  151.4103  133.3729  159.2742 H   0  0  0  0  0  0  0  0  0  0  0  0  # atno 6907 bound_to 6896
  150.9368  134.8781  159.7597 H   0  0  0  0  0  0  0  0  0  0  0  0  # atno 6908 bound_to 6896
  152.5053  134.4051  159.9482 H   0  0  0  0  0  0  0  0  0  0  0  0  # atno 6909 bound_to 6896
  145.5376  140.9513  143.1568 H   0  0  0  0  0  0  0  0  0  0  0  0  # atno 7974 bound_to 7965
  156.2849  140.2177  156.5410 H   0  0  0  0  0  0  0  0  0  0  0  0  # atno 8008 bound_to 7997
  154.7370  140.0491  157.0799 H   0  0  0  0  0  0  0  0  0  0  0  0  # atno 8009 bound_to 7997
  155.0280  140.3131  155.4772 H   0  0  0  0  0  0  0  0  0  0  0  0  # atno 8010 bound_to 7997
  140.3322  143.2988  151.9929 H   0  0  0  0  0  0  0  0  0  0  0  0  # atno 10167 bound_to 10162
  157.6742  131.0802  150.5699 H   0  0  0  0  0  0  0  0  0  0  0  0  # atno 10718 bound_to 10713
  152.9823  135.6036  154.3455 H   0  0  0  0  0  0  0  0  0  0  0  0  # atno 10763 bound_to 10752
  154.3148  135.2770  155.2550 H   0  0  0  0  0  0  0  0  0  0  0  0  # atno 10764 bound_to 10752
  154.4743  135.5933  153.6399 H   0  0  0  0  0  0  0  0  0  0  0  0  # atno 10765 bound_to 10752
  140.3147  134.7487  157.4018 H   0  0  0  0  0  0  0  0  0  0  0  0  # atno 11005 bound_to 11000
  144.7593  139.6996  143.7241 LP  0  0  0  0  0  0  0  0  0  0  0  0  # atno 17320 bound_to 7965
  146.2002  139.5293  142.9748 LP  0  0  0  0  0  0  0  0  0  0  0  0  # atno 17321 bound_to 7965
  139.4854  144.6225  151.7227 LP  0  0  0  0  0  0  0  0  0  0  0  0  # atno 17342 bound_to 10162
  140.5386  144.0615  150.6080 LP  0  0  0  0  0  0  0  0  0  0  0  0  # atno 17343 bound_to 10162
  156.6000  130.4352  149.5901 LP  0  0  0  0  0  0  0  0  0  0  0  0  # atno 17370 bound_to 10713
  156.2514  130.6909  151.1648 LP  0  0  0  0  0  0  0  0  0  0  0  0  # atno 17371 bound_to 10713
  140.0994  134.5493  155.8367 LP  0  0  0  0  0  0  0  0  0  0  0  0  # atno 17394 bound_to 11000
  141.2100  133.6690  156.6480 LP  0  0  0  0  0  0  0  0  0  0  0  0  # atno 17395 bound_to 11000

$$$$
