AV-unprocessed.smi:2886|AV-procd|sdf|11091|dock8
  -GOLD-   2272015563D 1   1.00000     0.00000
 Structure written by MMmdl.
 28 30  0  0  0  0  0  0  0  0  3 V2000
  153.0715  136.7143  159.9245 O   0  0  0  0  0  0  0  0  0  0  0  0
  153.3489  137.8706  160.2367 C   0  0  0  0  0  0  0  0  0  0  0  0
  154.2198  138.1864  161.2411 N   0  5  0  0  0  0  0  0  0  0  0  0
  154.4983  139.4325  161.5536 N   0  3  0  0  0  0  0  0  0  0  0  0
  153.9691  140.4827  160.9338 C   0  0  0  0  0  0  0  0  0  0  0  0
  153.0507  140.2925  159.8639 C   0  0  0  0  0  0  0  0  0  0  0  0
  152.4702  141.3589  159.1886 N   0  0  0  0  0  0  0  0  0  0  0  0
  152.6584  142.7863  159.4090 C   0  0  2  0  0  0  0  0  0  0  0  0
  152.4922  143.1831  160.8781 C   0  0  0  0  0  0  0  0  0  0  0  0
  151.4007  144.2574  160.7895 C   0  0  1  0  0  0  0  0  0  0  0  0
  151.8961  145.5364  160.0995 C   0  0  0  0  0  0  0  0  0  0  0  0
  151.9671  145.0964  158.6373 C   0  0  0  0  0  0  0  0  0  0  0  0
  151.5585  143.6203  158.7320 C   0  0  2  0  0  0  0  0  0  0  0  0
  150.5917  143.7031  159.7672 O   0  0  0  0  0  0  0  0  0  0  0  0
  152.7400  139.0085  159.5231 C   0  0  0  0  0  0  0  0  0  0  0  0
  151.6270  138.6757  158.2375 Cl  0  0  0  0  0  0  0  0  0  0  0  0
  155.1550  139.6470  162.3203 H   0  0  0  0  0  0  0  0  0  0  0  0
  154.2669  141.4624  161.2851 H   0  0  0  0  0  0  0  0  0  0  0  0
  151.9636  141.1324  158.3440 H   0  0  0  0  0  0  0  0  0  0  0  0
  153.6297  143.0963  159.0236 H   0  0  0  0  0  0  0  0  0  0  0  0
  152.1470  142.3432  161.4832 H   0  0  0  0  0  0  0  0  0  0  0  0
  153.4152  143.5608  161.3189 H   0  0  0  0  0  0  0  0  0  0  0  0
  150.8779  144.4344  161.7298 H   0  0  0  0  0  0  0  0  0  0  0  0
  151.1780  146.3485  160.2200 H   0  0  0  0  0  0  0  0  0  0  0  0
  152.8587  145.8695  160.4890 H   0  0  0  0  0  0  0  0  0  0  0  0
  151.2500  145.6557  158.0355 H   0  0  0  0  0  0  0  0  0  0  0  0
  152.9569  145.2301  158.1999 H   0  0  0  0  0  0  0  0  0  0  0  0
  151.1883  143.2071  157.7929 H   0  0  0  0  0  0  0  0  0  0  0  0
  1  2  2  0  0  0  0
  2  3  1  0  0  0  0
  2 15  1  0  0  0  0
  3  4  1  0  0  0  0
  4  5  2  0  0  0  0
  4 17  1  0  0  0  0
  5  6  1  0  0  0  0
  5 18  1  0  0  0  0
  6 15  2  0  0  0  0
  6  7  1  0  0  0  0
  7  8  1  0  0  0  0
  7 19  1  0  0  0  0
  8 13  1  0  0  0  0
  8  9  1  0  0  0  0
  8 20  1  0  0  0  0
  9 10  1  0  0  0  0
  9 21  1  0  0  0  0
  9 22  1  0  0  0  0
 10 14  1  0  0  0  0
 10 11  1  0  0  0  0
 10 23  1  0  0  0  0
 11 12  1  0  0  0  0
 11 24  1  0  0  0  0
 11 25  1  0  0  0  0
 12 13  1  0  0  0  0
 12 26  1  0  0  0  0
 12 27  1  0  0  0  0
 13 14  1  0  0  0  0
 13 28  1  0  0  0  0
 15 16  1  0  0  0  0
M  CHG  1   3  -1
M  CHG  1   4   1
M  END
> <s_m_source_file>
AV-unprocessed.smi

> <i_m_source_file_index>
2886

> <i_lp_mmshare_version>
43012

> <i_f3d_flags>
0

> <s_epik_input>
Tz1jMVtuSF1uW2NIXWMoYzFDbClbTkhdW0NASF0oW0NIMl1bQ0BASF0yMylbQ0BASF0oTzMpW0NIMl1bQ0gyXTI=

> <s_epik_cmdline>
J2VwaWtfcHl0aG9uJywgJy1waCcsICc3LjAnLCAnLXRuJywgJzgnLCAnLW1hJywgJzIwMCcsICctbWV0YWxfYmluZGluZycsICctaW1hZScsICc8aW5maWxlLm1hZT4nLCAnLW9tYWUnLCAnPG91dGZpbGUubWFlPic=

> <r_lp_tautomer_probability>
0.0138196

> <r_epik_Ionization_Penalty>
2.43027

> <r_epik_Ionization_Penalty_Charging>
2.43027

> <r_epik_Ionization_Penalty_Neutral>
1.33267e-06

> <r_epik_State_Penalty>
2.7044

> <r_epik_Charging_Adjusted_Penalty>
5.13467

> <i_epik_Tot_Q>
0

> <i_epik_Tot_abs_Q>
2

> <r_epik_Metal_State_Penalty>
2.98589

> <b_epik_Metal_Only>
0

> <s_lp_Force_Field>
OPLS_2005

> <r_lp_Energy>
57.4961

> <b_lp_Chiralities_Consistent>
1

> <s_lp_Variant>
AV-unprocessed.smi:2886-5

> <Gold.Version>
5.8.1

> <Gold.Id.Protein>
6NUR|6NUR_protein|mol2

> <Gold.PLP.Fitness>
38.2885

> <Gold.PLP.PLP>
-35.5704

> <Gold.PLP.part.hbond>
-1.3308

> <Gold.PLP.part.metal>
0.0000

> <Gold.PLP.part.buried>
-5.9632

> <Gold.PLP.part.nonpolar>
-28.6085

> <Gold.PLP.part.repulsive>
0.2088

> <Gold.PLP.ligand.clash>
0.0000

> <Gold.PLP.ligand.torsion>
0.1503

> <Gold.PLP.Chemscore.Hbond>
1.0000

> <Gold.PLP.Chemscore.CHOScore>
0.0000

> <Gold.PLP.Chemscore.Metal>
0.0000

> <Gold.Chemscore.Hbonds>
donor molecule, donor type, donor heavy atom, donor atom, acceptor molecule, acceptor atom, score
      P1  H  6896  6908       L1     1  1.00

> <Gold.PLP.Chemscore.Internal.Correction>
0.0187

> <Gold.Rescore>
     Score         DG    S(hbond)    S(metal)    S(lipo)     H(rot)  DE(clash)    DE(int)     intcor
     17.58     -17.73       0.99        0.00      98.27       1.00       0.05       0.10       ----

> <Gold.Chemscore.Fitness>
17.5763

> <Gold.Chemscore.DG>
-17.7274

> <Gold.Chemscore.ZeroCoef>
-5.4800

> <Gold.Chemscore.Hbond>
0.9909

> <Gold.Chemscore.Metal>
0.0000

> <Gold.Chemscore.Lipo>
98.2729

> <Gold.Chemscore.Internal_Hbond>
0.0000

> <Gold.Chemscore.DEClash>
0.0512

> <Gold.Chemscore.DEInternal>
0.0999

> <Gold.Chemscore.Rot>
1.0000

> <Gold.Chemscore.Internal.Correction>
   9.000000E+99

> <Gold.Chemscore.Hbonds>
donor molecule, donor type, donor heavy atom, donor atom, acceptor molecule, acceptor atom, score
      P1  H  6896  6908       L1     1  0.94

> <Gold.Chemscore.Hbond.Weighted>
-3.3095

> <Gold.Chemscore.Metal.Weighted>
-0.0000

> <Gold.Chemscore.Lipo.Weighted>
-11.4979

> <Gold.Chemscore.Internal_Hbond.Weighted>
0.0000

> <Gold.Chemscore.DEClash.Weighted>
0.0512

> <Gold.Chemscore.DEInternal.Weighted>
0.0999

> <Gold.Chemscore.Rot.Weighted>
2.5600

> <Gold.Chemscore.Internal.Correction.Weighted>
   9.000000E+99

> <Gold.Protein.RotatedTorsions>
[ 6907 6896 6895 6894 ] final -105.21 input  -60.11 | X-H torsion
[ 7974 7965 7964 7962 ] final    5.05 input  175.53 | X-H torsion
[ 8008 7997 7996 7995 ] final  122.89 input   59.86 | X-H torsion
[ 10167 10162 10161 10158 ] final  -52.62 input  -65.29 | X-H torsion
[ 10718 10713 10712 10709 ] final -149.69 input   66.30 | X-H torsion
[ 10763 10752 10751 10750 ] final   -3.76 input  -60.55 | X-H torsion
[ 11005 11000 10999 10996 ] final  108.45 input  -57.11 | X-H torsion

> <Gold.Protein.ActiveResidues>
 VAL166  LYS551  ARG553  GLY616  TRP617  ASP618  TYR619  PRO620  LYS621  CYS622 
 ASP623  PHE694  ASN695  SER759  ASP760  ASP761  ALA762  ILE779  LEU786  VAL792 
 PHE793  MET794  SER795  GLU796  ALA797  LYS798  CYS799  TRP800  GLU811  SER814 

> <Gold.Protein.RotatedAtoms>
  150.7325  134.0161  159.3685 H   0  0  0  0  0  0  0  0  0  0  0  0  # atno 6907 bound_to 6896
  151.8123  135.0675  160.0424 H   0  0  0  0  0  0  0  0  0  0  0  0  # atno 6908 bound_to 6896
  152.3064  133.5671  159.5688 H   0  0  0  0  0  0  0  0  0  0  0  0  # atno 6909 bound_to 6896
  146.2442  140.0442  142.8380 H   0  0  0  0  0  0  0  0  0  0  0  0  # atno 7974 bound_to 7965
  156.2745  140.2775  156.1540 H   0  0  0  0  0  0  0  0  0  0  0  0  # atno 8008 bound_to 7997
  155.0823  140.0388  157.2661 H   0  0  0  0  0  0  0  0  0  0  0  0  # atno 8009 bound_to 7997
  154.6954  140.2638  155.6777 H   0  0  0  0  0  0  0  0  0  0  0  0  # atno 8010 bound_to 7997
  140.6528  143.2577  151.4674 H   0  0  0  0  0  0  0  0  0  0  0  0  # atno 10167 bound_to 10162
  156.4364  130.8101  151.2329 H   0  0  0  0  0  0  0  0  0  0  0  0  # atno 10718 bound_to 10713
  153.3757  135.6996  153.6604 H   0  0  0  0  0  0  0  0  0  0  0  0  # atno 10763 bound_to 10752
  153.5236  135.3607  155.2644 H   0  0  0  0  0  0  0  0  0  0  0  0  # atno 10764 bound_to 10752
  154.8686  135.4163  154.3044 H   0  0  0  0  0  0  0  0  0  0  0  0  # atno 10765 bound_to 10752
  139.8844  134.9431  156.5974 H   0  0  0  0  0  0  0  0  0  0  0  0  # atno 11005 bound_to 11000
  145.1042  140.9365  143.4694 LP  0  0  0  0  0  0  0  0  0  0  0  0  # atno 17320 bound_to 7965
  145.0641  139.3082  143.5865 LP  0  0  0  0  0  0  0  0  0  0  0  0  # atno 17321 bound_to 7965
  139.5745  144.1851  152.1884 LP  0  0  0  0  0  0  0  0  0  0  0  0  # atno 17342 bound_to 10162
  140.1157  144.5418  150.6895 LP  0  0  0  0  0  0  0  0  0  0  0  0  # atno 17343 bound_to 10162
  157.7507  131.0182  150.3616 LP  0  0  0  0  0  0  0  0  0  0  0  0  # atno 17370 bound_to 10713
  156.3964  130.3907  149.6992 LP  0  0  0  0  0  0  0  0  0  0  0  0  # atno 17371 bound_to 10713
  140.7909  133.8583  155.8645 LP  0  0  0  0  0  0  0  0  0  0  0  0  # atno 17394 bound_to 11000
  140.9678  134.1571  157.4602 LP  0  0  0  0  0  0  0  0  0  0  0  0  # atno 17395 bound_to 11000

$$$$
