AV-unprocessed.smi:109|AV-procd|sdf|1036|dock5
  -GOLD-   2262018 53D 1   1.00000     0.00000
 Structure written by MMmdl.
 58 61  0  0  0  0  0  0  0  0  1 V2000
  152.8790  139.5961  154.9314 O   0  0  0  0  0  0  0  0  0  0  0  0
  152.0333  138.8978  155.8197 C   0  0  0  0  0  0  0  0  0  0  0  0
  150.7479  139.7052  156.0611 C   0  0  0  0  0  0  0  0  0  0  0  0
  150.5304  140.0622  157.5487 C   0  0  1  0  0  0  0  0  0  0  0  0
  150.6462  138.8570  158.3696 N   0  0  0  0  0  0  0  0  0  0  0  0
  149.8638  137.7753  158.1568 C   0  0  0  0  0  0  0  0  0  0  0  0
  149.6697  137.2775  156.9080 N   0  0  0  0  0  0  0  0  0  0  0  0
  148.8915  136.2066  156.7295 C   0  0  0  0  0  0  0  0  0  0  0  0
  148.2280  135.4968  157.6443 N   0  0  0  0  0  0  0  0  0  0  0  0
  148.4201  135.9882  158.9026 C   0  0  0  0  0  0  0  0  0  0  0  0
  149.2200  137.1173  159.2364 C   0  0  0  0  0  0  0  0  0  0  0  0
  149.1878  137.3290  160.6076 N   0  0  0  0  0  0  0  0  0  0  0  0
  148.4157  136.3759  161.0546 C   0  0  0  0  0  0  0  0  0  0  0  0
  147.9012  135.5279  160.0983 N   0  0  0  0  0  0  0  0  0  0  0  0
  147.0073  134.3482  160.3321 C   0  0  2  0  0  0  0  0  0  0  0  0
  145.9352  134.7629  161.1267 O   0  0  0  0  0  0  0  0  0  0  0  0
  145.9427  134.0852  162.3824 C   0  0  1  0  0  0  0  0  0  0  0  0
  144.5170  133.9444  162.9449 C   0  0  0  0  0  0  0  0  0  0  0  0
  143.7263  133.1638  162.0739 O   0  0  0  0  0  0  0  0  0  0  0  0
  146.6679  132.7687  162.0745 C   0  0  1  0  0  0  0  0  0  0  0  0
  145.7671  131.8209  161.5217 O   0  0  0  0  0  0  0  0  0  0  0  0
  147.7311  133.2151  161.0755 C   0  0  1  0  0  0  0  0  0  0  0  0
  148.1363  132.1545  160.2305 O   0  0  0  0  0  0  0  0  0  0  0  0
  151.4705  141.1820  158.0757 C   0  0  0  0  0  0  0  0  0  0  0  0
  151.7470  141.0697  159.5908 C   0  0  0  0  0  0  0  0  0  0  0  0
  152.7680  142.1220  160.0534 C   0  0  0  0  0  0  0  0  0  0  0  0
  152.3052  143.5420  159.6906 C   0  0  0  0  0  0  0  0  0  0  0  0
  152.0196  143.6654  158.1857 C   0  0  0  0  0  0  0  0  0  0  0  0
  151.0001  142.6113  157.7228 C   0  0  0  0  0  0  0  0  0  0  0  0
  146.6401  134.0621  159.3457 H   0  0  0  0  0  0  0  0  0  0  0  0
  146.5561  134.6473  163.0864 H   0  0  0  0  0  0  0  0  0  0  0  0
  147.1139  132.3333  162.9693 H   0  0  0  0  0  0  0  0  0  0  0  0
  148.5959  133.6071  161.6108 H   0  0  0  0  0  0  0  0  0  0  0  0
  152.4533  140.4027  154.6835 H   0  0  0  0  0  0  0  0  0  0  0  0
  151.7998  137.9220  155.3926 H   0  0  0  0  0  0  0  0  0  0  0  0
  152.5700  138.7261  156.7530 H   0  0  0  0  0  0  0  0  0  0  0  0
  150.7691  140.6122  155.4557 H   0  0  0  0  0  0  0  0  0  0  0  0
  149.9097  139.1146  155.6940 H   0  0  0  0  0  0  0  0  0  0  0  0
  149.5071  140.4309  157.6291 H   0  0  0  0  0  0  0  0  0  0  0  0
  151.2782  138.9245  159.1544 H   0  0  0  0  0  0  0  0  0  0  0  0
  148.7851  135.8706  155.7088 H   0  0  0  0  0  0  0  0  0  0  0  0
  148.1974  136.2659  162.1070 H   0  0  0  0  0  0  0  0  0  0  0  0
  144.5234  133.5070  163.9437 H   0  0  0  0  0  0  0  0  0  0  0  0
  144.0454  134.9248  163.0207 H   0  0  0  0  0  0  0  0  0  0  0  0
  142.8259  133.4378  162.1590 H   0  0  0  0  0  0  0  0  0  0  0  0
  146.1550  130.9624  161.6019 H   0  0  0  0  0  0  0  0  0  0  0  0
  147.4576  132.0081  159.5894 H   0  0  0  0  0  0  0  0  0  0  0  0
  152.4362  141.0411  157.5883 H   0  0  0  0  0  0  0  0  0  0  0  0
  150.8271  141.2024  160.1595 H   0  0  0  0  0  0  0  0  0  0  0  0
  152.1180  140.0726  159.8303 H   0  0  0  0  0  0  0  0  0  0  0  0
  152.9190  142.0447  161.1303 H   0  0  0  0  0  0  0  0  0  0  0  0
  153.7353  141.9221  159.5907 H   0  0  0  0  0  0  0  0  0  0  0  0
  151.4046  143.7878  160.2546 H   0  0  0  0  0  0  0  0  0  0  0  0
  153.0635  144.2674  159.9866 H   0  0  0  0  0  0  0  0  0  0  0  0
  151.6494  144.6654  157.9586 H   0  0  0  0  0  0  0  0  0  0  0  0
  152.9480  143.5456  157.6259 H   0  0  0  0  0  0  0  0  0  0  0  0
  150.8483  142.7065  156.6473 H   0  0  0  0  0  0  0  0  0  0  0  0
  150.0377  142.8184  158.1912 H   0  0  0  0  0  0  0  0  0  0  0  0
  1  2  1  0  0  0  0
  1 34  1  0  0  0  0
  2  3  1  0  0  0  0
  2 35  1  0  0  0  0
  2 36  1  0  0  0  0
  3  4  1  0  0  0  0
  3 37  1  0  0  0  0
  3 38  1  0  0  0  0
  4  5  1  0  0  0  0
  4 24  1  0  0  0  0
  4 39  1  0  0  0  0
  5  6  1  0  0  0  0
  5 40  1  0  0  0  0
  6 11  1  0  0  0  0
  6  7  2  0  0  0  0
  7  8  1  0  0  0  0
  8  9  2  0  0  0  0
  8 41  1  0  0  0  0
  9 10  1  0  0  0  0
 10 14  1  0  0  0  0
 10 11  2  0  0  0  0
 11 12  1  0  0  0  0
 12 13  2  0  0  0  0
 13 14  1  0  0  0  0
 13 42  1  0  0  0  0
 14 15  1  0  0  0  0
 15 30  1  0  0  0  0
 15 22  1  0  0  0  0
 15 16  1  0  0  0  0
 16 17  1  0  0  0  0
 17 31  1  0  0  0  0
 17 18  1  0  0  0  0
 17 20  1  0  0  0  0
 18 19  1  0  0  0  0
 18 43  1  0  0  0  0
 18 44  1  0  0  0  0
 19 45  1  0  0  0  0
 20 32  1  0  0  0  0
 20 21  1  0  0  0  0
 20 22  1  0  0  0  0
 21 46  1  0  0  0  0
 22 33  1  0  0  0  0
 22 23  1  0  0  0  0
 23 47  1  0  0  0  0
 24 29  1  0  0  0  0
 24 25  1  0  0  0  0
 24 48  1  0  0  0  0
 25 26  1  0  0  0  0
 25 49  1  0  0  0  0
 25 50  1  0  0  0  0
 26 27  1  0  0  0  0
 26 51  1  0  0  0  0
 26 52  1  0  0  0  0
 27 28  1  0  0  0  0
 27 53  1  0  0  0  0
 27 54  1  0  0  0  0
 28 29  1  0  0  0  0
 28 55  1  0  0  0  0
 28 56  1  0  0  0  0
 29 57  1  0  0  0  0
 29 58  1  0  0  0  0
M  END
> <s_m_source_file>
AV-unprocessed.smi

> <i_m_source_file_index>
109

> <i_lp_mmshare_version>
43012

> <i_f3d_flags>
0

> <s_epik_input>
W0NIMl0xW0NIMl1bQ0gyXVtDSDJdW0NIMl1bQ0hdMVtDQEhdKFtDSDJdW0NIMl1bT0hdKVtOSF1jKG5bY0hdbjIpYyhjMjMpbltjSF1uM1tDQEBIXTRPW0NASF0oW0NIMl1bT0hdKVtDQEBIXShbT0hdKVtDQEhdNFtPSF0=

> <s_epik_cmdline>
J2VwaWtfcHl0aG9uJywgJy1waCcsICc3LjAnLCAnLXRuJywgJzgnLCAnLW1hJywgJzIwMCcsICctbWV0YWxfYmluZGluZycsICctaW1hZScsICc8aW5maWxlLm1hZT4nLCAnLW9tYWUnLCAnPG91dGZpbGUubWFlPic=

> <r_lp_tautomer_probability>
1

> <r_epik_Ionization_Penalty>
0.000793976

> <r_epik_Ionization_Penalty_Charging>
0

> <r_epik_Ionization_Penalty_Neutral>
0.000793976

> <r_epik_State_Penalty>
-0

> <r_epik_Charging_Adjusted_Penalty>
0

> <i_epik_Tot_Q>
0

> <i_epik_Tot_abs_Q>
0

> <r_epik_Metal_State_Penalty>
-0

> <b_epik_Metal_Only>
0

> <s_epik_Chemistry_Notes>
This compound contains an acetal/aminal-like group ( X-CH(R)-Y where X, Y are N, S, or O) that may be acid/base labile, releasing an aldehyde.

> <s_lp_Force_Field>
OPLS_2005

> <r_lp_Energy>
57.9321

> <b_lp_Chiralities_Consistent>
1

> <s_lp_Variant>
AV-unprocessed.smi:109-6

> <Gold.Version>
5.8.1

> <Gold.Id.Protein>
6NUR|6NUR_protein|mol2

> <Gold.PLP.Fitness>
47.2248

> <Gold.PLP.PLP>
-46.0966

> <Gold.PLP.part.hbond>
-3.1971

> <Gold.PLP.part.metal>
0.0000

> <Gold.PLP.part.buried>
-6.1243

> <Gold.PLP.part.nonpolar>
-37.3981

> <Gold.PLP.part.repulsive>
0.0956

> <Gold.PLP.ligand.clash>
0.0000

> <Gold.PLP.ligand.torsion>
1.6477

> <Gold.PLP.Chemscore.Hbond>
1.3720

> <Gold.PLP.Chemscore.CHOScore>
0.0000

> <Gold.PLP.Chemscore.Metal>
0.0000

> <Gold.Chemscore.Hbonds>
donor molecule, donor type, donor heavy atom, donor atom, acceptor molecule, acceptor atom, score
      P1  H  6931  6943       L1    12  0.45
      P1  H  7997  8008       L1     1  1.00

> <Gold.PLP.Chemscore.Internal.Correction>
0.3075

> <Gold.Rescore>
     Score         DG    S(hbond)    S(metal)    S(lipo)     H(rot)  DE(clash)    DE(int)     intcor
      4.08      -6.74       0.93        0.00     103.99       5.47       0.05       2.62       ----

> <Gold.Chemscore.Fitness>
4.0805

> <Gold.Chemscore.DG>
-6.7432

> <Gold.Chemscore.ZeroCoef>
-5.4800

> <Gold.Chemscore.Hbond>
0.9252

> <Gold.Chemscore.Metal>
0.0000

> <Gold.Chemscore.Lipo>
103.9890

> <Gold.Chemscore.Internal_Hbond>
0.0000

> <Gold.Chemscore.DEClash>
0.0471

> <Gold.Chemscore.DEInternal>
2.6155

> <Gold.Chemscore.Rot>
5.4662

> <Gold.Chemscore.Internal.Correction>
   9.000000E+99

> <Gold.Chemscore.Hbonds>
donor molecule, donor type, donor heavy atom, donor atom, acceptor molecule, acceptor atom, score
      P1  H  6931  6943       L1    12  0.08
      P1  H  7997  8008       L1     1  0.28

> <Gold.Chemscore.Hbond.Weighted>
-3.0900

> <Gold.Chemscore.Metal.Weighted>
-0.0000

> <Gold.Chemscore.Lipo.Weighted>
-12.1667

> <Gold.Chemscore.Internal_Hbond.Weighted>
0.0000

> <Gold.Chemscore.DEClash.Weighted>
0.0471

> <Gold.Chemscore.DEInternal.Weighted>
2.6155

> <Gold.Chemscore.Rot.Weighted>
13.9935

> <Gold.Chemscore.Internal.Correction.Weighted>
   9.000000E+99

> <Gold.Protein.RotatedTorsions>
[ 6907 6896 6895 6894 ] final  142.30 input  -60.11 | X-H torsion
[ 7974 7965 7964 7962 ] final -108.60 input  175.53 | X-H torsion
[ 8008 7997 7996 7995 ] final  -15.80 input   59.86 | X-H torsion
[ 10167 10162 10161 10158 ] final  -41.60 input  -65.29 | X-H torsion
[ 10718 10713 10712 10709 ] final  153.98 input   66.30 | X-H torsion
[ 10763 10752 10751 10750 ] final  -74.46 input  -60.55 | X-H torsion
[ 11005 11000 10999 10996 ] final   10.27 input  -57.11 | X-H torsion

> <Gold.Protein.ActiveResidues>
 VAL166  LYS551  ARG553  GLY616  TRP617  ASP618  TYR619  PRO620  LYS621  CYS622 
 ASP623  PHE694  ASN695  SER759  ASP760  ASP761  ALA762  ILE779  LEU786  VAL792 
 PHE793  MET794  SER795  GLU796  ALA797  LYS798  CYS799  TRP800  GLU811  SER814 

> <Gold.Protein.RotatedAtoms>
  152.2204  133.4979  159.5158 H   0  0  0  0  0  0  0  0  0  0  0  0  # atno 6907 bound_to 6896
  150.7011  134.1350  159.4093 H   0  0  0  0  0  0  0  0  0  0  0  0  # atno 6908 bound_to 6896
  151.9271  135.0273  160.0577 H   0  0  0  0  0  0  0  0  0  0  0  0  # atno 6909 bound_to 6896
  145.1909  140.9014  143.3425 H   0  0  0  0  0  0  0  0  0  0  0  0  # atno 7974 bound_to 7965
  154.5102  140.2186  155.9171 H   0  0  0  0  0  0  0  0  0  0  0  0  # atno 8008 bound_to 7997
  156.1543  140.3155  155.8666 H   0  0  0  0  0  0  0  0  0  0  0  0  # atno 8009 bound_to 7997
  155.3877  140.0476  157.3032 H   0  0  0  0  0  0  0  0  0  0  0  0  # atno 8010 bound_to 7997
  140.6997  143.3085  151.3089 H   0  0  0  0  0  0  0  0  0  0  0  0  # atno 10167 bound_to 10162
  157.2377  131.0752  151.1813 H   0  0  0  0  0  0  0  0  0  0  0  0  # atno 10718 bound_to 10713
  154.4734  135.5863  153.6338 H   0  0  0  0  0  0  0  0  0  0  0  0  # atno 10763 bound_to 10752
  152.9837  135.6072  154.3338 H   0  0  0  0  0  0  0  0  0  0  0  0  # atno 10764 bound_to 10752
  154.3222  135.2843  155.2493 H   0  0  0  0  0  0  0  0  0  0  0  0  # atno 10765 bound_to 10752
  140.5163  134.0602  155.7832 H   0  0  0  0  0  0  0  0  0  0  0  0  # atno 11005 bound_to 11000
  145.0042  139.3569  143.6152 LP  0  0  0  0  0  0  0  0  0  0  0  0  # atno 17320 bound_to 7965
  146.3436  139.9278  142.8757 LP  0  0  0  0  0  0  0  0  0  0  0  0  # atno 17321 bound_to 7965
  139.6500  144.0381  152.2619 LP  0  0  0  0  0  0  0  0  0  0  0  0  # atno 17342 bound_to 10162
  139.9914  144.6359  150.7811 LP  0  0  0  0  0  0  0  0  0  0  0  0  # atno 17343 bound_to 10162
  157.3412  130.7034  149.6383 LP  0  0  0  0  0  0  0  0  0  0  0  0  # atno 17370 bound_to 10713
  155.9671  130.4279  150.4766 LP  0  0  0  0  0  0  0  0  0  0  0  0  # atno 17371 bound_to 10713
  141.1358  133.9224  157.2436 LP  0  0  0  0  0  0  0  0  0  0  0  0  # atno 17394 bound_to 11000
  139.9630  135.0149  156.9313 LP  0  0  0  0  0  0  0  0  0  0  0  0  # atno 17395 bound_to 11000

$$$$
