AV-unprocessed.smi:198|AV-procd|sdf|1559|dock4
  -GOLD-   2262019433D 1   1.00000     0.00000
 Structure written by MMmdl.
 59 63  0  0  0  0  0  0  0  0  2 V2000
  146.4998  129.3767  152.0147 C   0  0  0  0  0  0  0  0  0  0  0  0
  146.4954  130.8265  151.7238 N   0  3  2  0  0  0  0  0  0  0  0  0
  146.5744  131.6478  152.9563 C   0  0  0  0  0  0  0  0  0  0  0  0
  146.6746  133.1447  152.6225 C   0  0  0  0  0  0  0  0  0  0  0  0
  145.4855  133.5993  151.7459 C   0  0  2  0  0  0  0  0  0  0  0  0
  145.4452  132.7143  150.4775 C   0  0  2  0  0  0  0  0  0  0  0  0
  144.2880  133.1385  149.5568 C   0  0  0  0  0  0  0  0  0  0  0  0
  144.4031  134.6306  149.2174 C   0  0  0  0  0  0  0  0  0  0  0  0
  144.4701  135.4754  150.4980 C   0  0  0  0  0  0  0  0  0  0  0  0
  145.5472  135.0206  151.3757 N   0  0  0  0  0  0  0  0  0  0  0  0
  145.7362  135.8943  152.3902 C   0  0  0  0  0  0  0  0  0  0  0  0
  145.4617  135.4542  153.6421 N   0  0  0  0  0  0  0  0  0  0  0  0
  145.6281  136.2707  154.6870 C   0  0  0  0  0  0  0  0  0  0  0  0
  146.0472  137.5382  154.6978 N   0  0  0  0  0  0  0  0  0  0  0  0
  146.3274  137.9830  153.4387 C   0  0  0  0  0  0  0  0  0  0  0  0
  146.2111  137.2279  152.2380 C   0  0  0  0  0  0  0  0  0  0  0  0
  146.6121  137.9971  151.1537 N   0  0  0  0  0  0  0  0  0  0  0  0
  146.9505  139.1403  151.6835 C   0  0  0  0  0  0  0  0  0  0  0  0
  146.7741  139.2346  153.0473 N   0  0  0  0  0  0  0  0  0  0  0  0
  147.0891  140.3564  153.8914 C   0  0  0  0  0  0  0  0  0  0  0  0
  148.4155  141.1057  153.7179 C   0  0  0  0  0  0  0  0  0  0  0  0
  148.9943  140.3885  154.9577 C   0  0  0  0  0  0  0  0  0  0  0  0
  149.7731  139.0815  154.6945 C   0  0  0  0  0  0  0  0  0  0  0  0
  151.1560  139.3074  154.5143 O   0  0  0  0  0  0  0  0  0  0  0  0
  149.7913  141.2621  155.9428 C   0  0  0  0  0  0  0  0  0  0  0  0
  148.9968  142.2838  156.5089 O   0  0  0  0  0  0  0  0  0  0  0  0
  147.5183  140.1666  155.3531 C   0  0  0  0  0  0  0  0  0  0  0  0
  145.3564  131.2248  150.8603 C   0  0  0  0  0  0  0  0  0  0  0  0
  145.6179  129.0901  152.5893 H   0  0  0  0  0  0  0  0  0  0  0  0
  147.3860  129.1016  152.5876 H   0  0  0  0  0  0  0  0  0  0  0  0
  146.5091  128.7979  151.0907 H   0  0  0  0  0  0  0  0  0  0  0  0
  145.6965  131.4613  153.5773 H   0  0  0  0  0  0  0  0  0  0  0  0
  147.4452  131.3472  153.5399 H   0  0  0  0  0  0  0  0  0  0  0  0
  146.7091  133.7051  153.5571 H   0  0  0  0  0  0  0  0  0  0  0  0
  147.6152  133.3460  152.1074 H   0  0  0  0  0  0  0  0  0  0  0  0
  144.5611  133.4332  152.3000 H   0  0  0  0  0  0  0  0  0  0  0  0
  146.3759  132.8626  149.9262 H   0  0  0  0  0  0  0  0  0  0  0  0
  144.2959  132.5481  148.6398 H   0  0  0  0  0  0  0  0  0  0  0  0
  143.3319  132.9458  150.0455 H   0  0  0  0  0  0  0  0  0  0  0  0
  145.2984  134.8033  148.6186 H   0  0  0  0  0  0  0  0  0  0  0  0
  143.5554  134.9438  148.6073 H   0  0  0  0  0  0  0  0  0  0  0  0
  144.6189  136.5239  150.2352 H   0  0  0  0  0  0  0  0  0  0  0  0
  143.5197  135.4133  151.0305 H   0  0  0  0  0  0  0  0  0  0  0  0
  145.3910  135.8490  155.6526 H   0  0  0  0  0  0  0  0  0  0  0  0
  147.3344  139.9490  151.0798 H   0  0  0  0  0  0  0  0  0  0  0  0
  146.2379  141.0337  153.8125 H   0  0  0  0  0  0  0  0  0  0  0  0
  148.9467  140.9011  152.7885 H   0  0  0  0  0  0  0  0  0  0  0  0
  148.3030  142.1813  153.8667 H   0  0  0  0  0  0  0  0  0  0  0  0
  149.6401  138.3730  155.5125 H   0  0  0  0  0  0  0  0  0  0  0  0
  149.4079  138.5777  153.8000 H   0  0  0  0  0  0  0  0  0  0  0  0
  151.6109  139.0366  155.2969 H   0  0  0  0  0  0  0  0  0  0  0  0
  150.1813  140.6618  156.7652 H   0  0  0  0  0  0  0  0  0  0  0  0
  150.6569  141.7155  155.4589 H   0  0  0  0  0  0  0  0  0  0  0  0
  148.9959  143.0246  155.9224 H   0  0  0  0  0  0  0  0  0  0  0  0
  147.1248  140.9569  155.9948 H   0  0  0  0  0  0  0  0  0  0  0  0
  147.3133  139.1895  155.7895 H   0  0  0  0  0  0  0  0  0  0  0  0
  145.3607  130.6137  149.9567 H   0  0  0  0  0  0  0  0  0  0  0  0
  144.4169  131.0205  151.3771 H   0  0  0  0  0  0  0  0  0  0  0  0
  147.3359  131.0164  151.1966 H   0  0  0  0  0  0  0  0  0  0  0  0
  1  2  1  0  0  0  0
  1 29  1  0  0  0  0
  1 30  1  0  0  0  0
  1 31  1  0  0  0  0
  2 28  1  0  0  0  0
  2  3  1  0  0  0  0
  2 59  1  0  0  0  0
  3  4  1  0  0  0  0
  3 32  1  0  0  0  0
  3 33  1  0  0  0  0
  4  5  1  0  0  0  0
  4 34  1  0  0  0  0
  4 35  1  0  0  0  0
  5 10  1  0  0  0  0
  5  6  1  0  0  0  0
  5 36  1  0  0  0  0
  6  7  1  0  0  0  0
  6 28  1  0  0  0  0
  6 37  1  0  0  0  0
  7  8  1  0  0  0  0
  7 38  1  0  0  0  0
  7 39  1  0  0  0  0
  8  9  1  0  0  0  0
  8 40  1  0  0  0  0
  8 41  1  0  0  0  0
  9 10  1  0  0  0  0
  9 42  1  0  0  0  0
  9 43  1  0  0  0  0
 10 11  1  0  0  0  0
 11 16  1  0  0  0  0
 11 12  2  0  0  0  0
 12 13  1  0  0  0  0
 13 14  2  0  0  0  0
 13 44  1  0  0  0  0
 14 15  1  0  0  0  0
 15 19  1  0  0  0  0
 15 16  2  0  0  0  0
 16 17  1  0  0  0  0
 17 18  2  0  0  0  0
 18 19  1  0  0  0  0
 18 45  1  0  0  0  0
 19 20  1  0  0  0  0
 20 27  1  0  0  0  0
 20 21  1  0  0  0  0
 20 46  1  0  0  0  0
 21 22  1  0  0  0  0
 21 47  1  0  0  0  0
 21 48  1  0  0  0  0
 22 23  1  0  0  0  0
 22 25  1  0  0  0  0
 22 27  1  0  0  0  0
 23 24  1  0  0  0  0
 23 49  1  0  0  0  0
 23 50  1  0  0  0  0
 24 51  1  0  0  0  0
 25 26  1  0  0  0  0
 25 52  1  0  0  0  0
 25 53  1  0  0  0  0
 26 54  1  0  0  0  0
 27 55  1  0  0  0  0
 27 56  1  0  0  0  0
 28 57  1  0  0  0  0
 28 58  1  0  0  0  0
M  CHG  1   2   1
M  END
> <s_m_source_file>
AV-unprocessed.smi

> <i_m_source_file_index>
198

> <i_lp_mmshare_version>
43012

> <i_f3d_flags>
0

> <s_epik_input>
W0NIMl0xW0NIMl1OKFtDSDNdKVtDSDJdW0NAQEhdKFtDQEhdMTIpW0NIMl1bQ0gyXVtDSDJdTjJjKG5bY0hdbjMpYyhjMzQpbltjSF1uNFtDSF0oW0NIMl01KVtDSDJdQzUoW0NIMl1bT0hdKVtDSDJdW09IXQ==

> <s_epik_cmdline>
J2VwaWtfcHl0aG9uJywgJy1waCcsICc3LjAnLCAnLXRuJywgJzgnLCAnLW1hJywgJzIwMCcsICctbWV0YWxfYmluZGluZycsICctaW1hZScsICc8aW5maWxlLm1hZT4nLCAnLW9tYWUnLCAnPG91dGZpbGUubWFlPic=

> <r_lp_tautomer_probability>
1

> <r_epik_Ionization_Penalty>
0.00239938

> <r_epik_Ionization_Penalty_Charging>
0.00138697

> <r_epik_Ionization_Penalty_Neutral>
0.00101241

> <r_epik_State_Penalty>
-0

> <r_epik_Charging_Adjusted_Penalty>
0.00138697

> <i_epik_Tot_Q>
1

> <i_epik_Tot_abs_Q>
1

> <r_epik_Metal_State_Penalty>
-0

> <b_epik_Metal_Only>
0

> <s_lp_Force_Field>
OPLS_2005

> <r_lp_Energy>
58.4114

> <b_lp_Chiralities_Consistent>
1

> <s_lp_Variant>
AV-unprocessed.smi:198-8

> <Gold.Version>
5.8.1

> <Gold.Id.Protein>
6NUR|6NUR_protein|mol2

> <Gold.PLP.Fitness>
51.3162

> <Gold.PLP.PLP>
-39.8953

> <Gold.PLP.part.hbond>
-4.0000

> <Gold.PLP.part.metal>
0.0000

> <Gold.PLP.part.buried>
5.2790

> <Gold.PLP.part.nonpolar>
-42.0570

> <Gold.PLP.part.repulsive>
1.8049

> <Gold.PLP.ligand.clash>
0.0000

> <Gold.PLP.ligand.torsion>
1.3069

> <Gold.PLP.Chemscore.Hbond>
3.8420

> <Gold.PLP.Chemscore.CHOScore>
0.6005

> <Gold.PLP.Chemscore.Metal>
0.0000

> <Gold.Chemscore.Hbonds>
donor molecule, donor type, donor heavy atom, donor atom, acceptor molecule, acceptor atom, score
      L1  H     2    59       P1 10747  1.00
      L1  H    26    54       P1  8028  1.00
      P1  H  7954  7966       L1    17  0.80
      P1  H  7989  7998       L1    24  1.00
      L1  C    18    45       P1  7957  0.65

> <Gold.PLP.Chemscore.Internal.Correction>
0.7071

> <Gold.Rescore>
     Score         DG    S(hbond)    S(metal)    S(lipo)     H(rot)  DE(clash)    DE(int)     intcor
     14.68     -19.17       2.97        0.00      99.65       3.08       1.18       3.31       ----

> <Gold.Chemscore.Fitness>
14.6847

> <Gold.Chemscore.DG>
-19.1713

> <Gold.Chemscore.ZeroCoef>
-5.4800

> <Gold.Chemscore.Hbond>
2.9678

> <Gold.Chemscore.Metal>
0.0000

> <Gold.Chemscore.Lipo>
99.6494

> <Gold.Chemscore.Internal_Hbond>
0.0000

> <Gold.Chemscore.DEClash>
1.1779

> <Gold.Chemscore.DEInternal>
3.3087

> <Gold.Chemscore.Rot>
3.0781

> <Gold.Chemscore.Internal.Correction>
   9.000000E+99

> <Gold.Chemscore.Hbonds>
donor molecule, donor type, donor heavy atom, donor atom, acceptor molecule, acceptor atom, score
      L1  H     2    59       P1 10747  1.00
      L1  H    26    54       P1  8028  0.94
      P1  H  7954  7966       L1    17  0.11
      P1  H  7989  7998       L1    24  0.94

> <Gold.Chemscore.Hbond.Weighted>
-9.9123

> <Gold.Chemscore.Metal.Weighted>
-0.0000

> <Gold.Chemscore.Lipo.Weighted>
-11.6590

> <Gold.Chemscore.Internal_Hbond.Weighted>
0.0000

> <Gold.Chemscore.DEClash.Weighted>
1.1779

> <Gold.Chemscore.DEInternal.Weighted>
3.3087

> <Gold.Chemscore.Rot.Weighted>
7.8800

> <Gold.Chemscore.Internal.Correction.Weighted>
   9.000000E+99

> <Gold.Protein.RotatedTorsions>
[ 6907 6896 6895 6894 ] final    0.14 input  -60.11 | X-H torsion
[ 7974 7965 7964 7962 ] final  177.30 input  175.53 | X-H torsion
[ 8008 7997 7996 7995 ] final  -61.23 input   59.86 | X-H torsion
[ 10167 10162 10161 10158 ] final  -93.89 input  -65.29 | X-H torsion
[ 10718 10713 10712 10709 ] final -173.43 input   66.30 | X-H torsion
[ 10763 10752 10751 10750 ] final   57.52 input  -60.55 | X-H torsion
[ 11005 11000 10999 10996 ] final -133.56 input  -57.11 | X-H torsion

> <Gold.Protein.ActiveResidues>
 VAL166  LYS551  ARG553  GLY616  TRP617  ASP618  TYR619  PRO620  LYS621  CYS622 
 ASP623  PHE694  ASN695  SER759  ASP760  ASP761  ALA762  ILE779  LEU786  VAL792 
 PHE793  MET794  SER795  GLU796  ALA797  LYS798  CYS799  TRP800  GLU811  SER814 

> <Gold.Protein.RotatedAtoms>
  151.5716  135.1062  159.9996 H   0  0  0  0  0  0  0  0  0  0  0  0  # atno 6907 bound_to 6896
  152.4398  133.7423  159.6658 H   0  0  0  0  0  0  0  0  0  0  0  0  # atno 6908 bound_to 6896
  150.8302  133.8035  159.3125 H   0  0  0  0  0  0  0  0  0  0  0  0  # atno 6909 bound_to 6896
  144.7171  140.0226  143.6440 H   0  0  0  0  0  0  0  0  0  0  0  0  # atno 7974 bound_to 7965
  154.4437  140.1022  156.6398 H   0  0  0  0  0  0  0  0  0  0  0  0  # atno 8008 bound_to 7997
  155.5514  140.3485  155.4451 H   0  0  0  0  0  0  0  0  0  0  0  0  # atno 8009 bound_to 7997
  156.0526  140.1307  157.0022 H   0  0  0  0  0  0  0  0  0  0  0  0  # atno 8010 bound_to 7997
  140.3201  143.3054  152.0056 H   0  0  0  0  0  0  0  0  0  0  0  0  # atno 10167 bound_to 10162
  156.7701  130.9445  151.3120 H   0  0  0  0  0  0  0  0  0  0  0  0  # atno 10718 bound_to 10713
  152.9851  135.5639  154.5403 H   0  0  0  0  0  0  0  0  0  0  0  0  # atno 10763 bound_to 10752
  154.4859  135.2790  155.1537 H   0  0  0  0  0  0  0  0  0  0  0  0  # atno 10764 bound_to 10752
  154.3026  135.6304  153.5484 H   0  0  0  0  0  0  0  0  0  0  0  0  # atno 10765 bound_to 10752
  140.9070  134.1617  157.4418 H   0  0  0  0  0  0  0  0  0  0  0  0  # atno 11005 bound_to 11000
  146.0168  139.3217  143.0837 LP  0  0  0  0  0  0  0  0  0  0  0  0  # atno 17320 bound_to 7965
  145.8616  140.9472  143.0697 LP  0  0  0  0  0  0  0  0  0  0  0  0  # atno 17321 bound_to 7965
  139.4876  144.6318  151.7055 LP  0  0  0  0  0  0  0  0  0  0  0  0  # atno 17342 bound_to 10162
  140.5491  144.0454  150.6119 LP  0  0  0  0  0  0  0  0  0  0  0  0  # atno 17343 bound_to 10162
  157.6695  130.9038  150.0007 LP  0  0  0  0  0  0  0  0  0  0  0  0  # atno 17370 bound_to 10713
  156.1283  130.3644  149.9773 LP  0  0  0  0  0  0  0  0  0  0  0  0  # atno 17371 bound_to 10713
  139.8751  134.9920  156.5578 LP  0  0  0  0  0  0  0  0  0  0  0  0  # atno 17394 bound_to 11000
  140.8159  133.8392  155.8851 LP  0  0  0  0  0  0  0  0  0  0  0  0  # atno 17395 bound_to 11000

$$$$
