AV-unprocessed.smi:218|AV-procd|sdf|1677|dock6
  -GOLD-   2262020103D 1   1.00000     0.00000
 Structure written by MMmdl.
 54 57  0  0  0  0  0  0  0  0  1 V2000
  138.8521  138.5869  152.9560 C   0  0  0  0  0  0  0  0  0  0  0  0
  139.8564  137.4290  152.9960 C   0  0  0  0  0  0  0  0  0  0  0  0
  139.3434  136.2779  153.8786 C   0  0  0  0  0  0  0  0  0  0  0  0
  141.0742  137.9561  153.5257 O   0  0  0  0  0  0  0  0  0  0  0  0
  142.2345  137.2077  153.4757 C   0  0  0  0  0  0  0  0  0  0  0  0
  143.4601  137.8873  153.3250 C   0  0  0  0  0  0  0  0  0  0  0  0
  144.6552  137.1388  153.2798 C   0  0  0  0  0  0  0  0  0  0  0  0
  146.0028  137.8252  153.1284 C   0  0  0  0  0  0  0  0  0  0  0  0
  145.9568  139.2830  153.1754 N   0  0  0  0  0  0  0  0  0  0  0  0
  147.0000  139.9814  153.6748 C   0  0  0  0  0  0  0  0  0  0  0  0
  146.9331  141.3300  153.8285 N   0  0  0  0  0  0  0  0  0  0  0  0
  147.9768  141.9990  154.3282 C   0  0  0  0  0  0  0  0  0  0  0  0
  149.1567  141.5233  154.7347 N   0  0  0  0  0  0  0  0  0  0  0  0
  149.2240  140.1686  154.5857 C   0  0  0  0  0  0  0  0  0  0  0  0
  148.1986  139.3316  154.0663 C   0  0  0  0  0  0  0  0  0  0  0  0
  148.6287  138.0111  154.0592 N   0  0  0  0  0  0  0  0  0  0  0  0
  149.8386  138.0701  154.5485 C   0  0  0  0  0  0  0  0  0  0  0  0
  150.2737  139.3323  154.8943 N   0  0  0  0  0  0  0  0  0  0  0  0
  151.5832  139.7574  155.4764 C   0  0  1  0  0  0  0  0  0  0  0  0
  151.3987  141.0065  156.0787 O   0  0  0  0  0  0  0  0  0  0  0  0
  151.6007  140.9299  157.4889 C   0  0  1  0  0  0  0  0  0  0  0  0
  150.6105  141.8615  158.2058 C   0  0  0  0  0  0  0  0  0  0  0  0
  150.6469  143.1530  157.6370 O   0  0  0  0  0  0  0  0  0  0  0  0
  151.4377  139.4444  157.8183 C   0  0  2  0  0  0  0  0  0  0  0  0
  152.1093  139.0511  158.9996 O   0  0  0  0  0  0  0  0  0  0  0  0
  151.9966  138.7698  156.5740 C   0  0  2  0  0  0  0  0  0  0  0  0
  153.4034  138.6114  156.6055 O   0  0  0  0  0  0  0  0  0  0  0  0
  144.5742  135.7356  153.3744 C   0  0  0  0  0  0  0  0  0  0  0  0
  143.3037  135.1456  153.5175 C   0  0  0  0  0  0  0  0  0  0  0  0
  142.1577  135.8568  153.5678 N   0  0  0  0  0  0  0  0  0  0  0  0
  152.2617  139.8064  154.6234 H   0  0  0  0  0  0  0  0  0  0  0  0
  152.6280  141.2465  157.6788 H   0  0  0  0  0  0  0  0  0  0  0  0
  150.3786  139.2001  157.9126 H   0  0  0  0  0  0  0  0  0  0  0  0
  151.5520  137.7872  156.4078 H   0  0  0  0  0  0  0  0  0  0  0  0
  137.8931  138.2625  152.5512 H   0  0  0  0  0  0  0  0  0  0  0  0
  139.2190  139.3988  152.3278 H   0  0  0  0  0  0  0  0  0  0  0  0
  138.6750  138.9917  153.9528 H   0  0  0  0  0  0  0  0  0  0  0  0
  139.9906  137.0825  151.9701 H   0  0  0  0  0  0  0  0  0  0  0  0
  138.3919  135.8966  153.5075 H   0  0  0  0  0  0  0  0  0  0  0  0
  139.1913  136.6093  154.9060 H   0  0  0  0  0  0  0  0  0  0  0  0
  140.0421  135.4421  153.9017 H   0  0  0  0  0  0  0  0  0  0  0  0
  143.4790  138.9648  153.2527 H   0  0  0  0  0  0  0  0  0  0  0  0
  146.6941  137.4597  153.8891 H   0  0  0  0  0  0  0  0  0  0  0  0
  146.4251  137.5321  152.1672 H   0  0  0  0  0  0  0  0  0  0  0  0
  145.0461  139.6952  153.0314 H   0  0  0  0  0  0  0  0  0  0  0  0
  147.8474  143.0677  154.4153 H   0  0  0  0  0  0  0  0  0  0  0  0
  150.4457  137.1855  154.6713 H   0  0  0  0  0  0  0  0  0  0  0  0
  149.5952  141.4771  158.1058 H   0  0  0  0  0  0  0  0  0  0  0  0
  150.8277  141.9237  159.2723 H   0  0  0  0  0  0  0  0  0  0  0  0
  149.9364  143.2295  157.0177 H   0  0  0  0  0  0  0  0  0  0  0  0
  152.9253  139.5261  159.0484 H   0  0  0  0  0  0  0  0  0  0  0  0
  153.6228  137.8014  156.1707 H   0  0  0  0  0  0  0  0  0  0  0  0
  145.4631  135.1228  153.3435 H   0  0  0  0  0  0  0  0  0  0  0  0
  143.2050  134.0731  153.5949 H   0  0  0  0  0  0  0  0  0  0  0  0
  1  2  1  0  0  0  0
  1 35  1  0  0  0  0
  1 36  1  0  0  0  0
  1 37  1  0  0  0  0
  2  3  1  0  0  0  0
  2  4  1  0  0  0  0
  2 38  1  0  0  0  0
  3 39  1  0  0  0  0
  3 40  1  0  0  0  0
  3 41  1  0  0  0  0
  4  5  1  0  0  0  0
  5 30  1  0  0  0  0
  5  6  2  0  0  0  0
  6  7  1  0  0  0  0
  6 42  1  0  0  0  0
  7  8  1  0  0  0  0
  7 28  2  0  0  0  0
  8  9  1  0  0  0  0
  8 43  1  0  0  0  0
  8 44  1  0  0  0  0
  9 10  1  0  0  0  0
  9 45  1  0  0  0  0
 10 15  1  0  0  0  0
 10 11  2  0  0  0  0
 11 12  1  0  0  0  0
 12 13  2  0  0  0  0
 12 46  1  0  0  0  0
 13 14  1  0  0  0  0
 14 18  1  0  0  0  0
 14 15  2  0  0  0  0
 15 16  1  0  0  0  0
 16 17  2  0  0  0  0
 17 18  1  0  0  0  0
 17 47  1  0  0  0  0
 18 19  1  0  0  0  0
 19 31  1  0  0  0  0
 19 26  1  0  0  0  0
 19 20  1  0  0  0  0
 20 21  1  0  0  0  0
 21 32  1  0  0  0  0
 21 22  1  0  0  0  0
 21 24  1  0  0  0  0
 22 23  1  0  0  0  0
 22 48  1  0  0  0  0
 22 49  1  0  0  0  0
 23 50  1  0  0  0  0
 24 33  1  0  0  0  0
 24 25  1  0  0  0  0
 24 26  1  0  0  0  0
 25 51  1  0  0  0  0
 26 34  1  0  0  0  0
 26 27  1  0  0  0  0
 27 52  1  0  0  0  0
 28 29  1  0  0  0  0
 28 53  1  0  0  0  0
 29 30  2  0  0  0  0
 29 54  1  0  0  0  0
M  END
> <s_m_source_file>
AV-unprocessed.smi

> <i_m_source_file_index>
218

> <i_lp_mmshare_version>
43012

> <i_f3d_flags>
0

> <s_epik_input>
W0NIM11bQ0hdKFtDSDNdKU9jMVtjSF1jKFtjSF1bY0hdbjEpW0NIMl1bTkhdYyhuW2NIXW4yKWMoYzIzKW5bY0hdbjNbQ0BASF00T1tDQEhdKFtDSDJdW09IXSlbQ0BASF0oW09IXSlbQ0BIXTRbT0hd

> <s_epik_cmdline>
J2VwaWtfcHl0aG9uJywgJy1waCcsICc3LjAnLCAnLXRuJywgJzgnLCAnLW1hJywgJzIwMCcsICctbWV0YWxfYmluZGluZycsICctaW1hZScsICc8aW5maWxlLm1hZT4nLCAnLW9tYWUnLCAnPG91dGZpbGUubWFlPic=

> <r_lp_tautomer_probability>
1

> <r_epik_Ionization_Penalty>
0.00457014

> <r_epik_Ionization_Penalty_Charging>
0

> <r_epik_Ionization_Penalty_Neutral>
0.00457014

> <r_epik_State_Penalty>
-0

> <r_epik_Charging_Adjusted_Penalty>
0

> <i_epik_Tot_Q>
0

> <i_epik_Tot_abs_Q>
0

> <r_epik_Metal_State_Penalty>
-0

> <b_epik_Metal_Only>
0

> <s_epik_Chemistry_Notes>
This compound contains an acetal/aminal-like group ( X-CH(R)-Y where X, Y are N, S, or O) that may be acid/base labile, releasing an aldehyde.

> <s_lp_Force_Field>
OPLS_2005

> <r_lp_Energy>
38.234

> <b_lp_Chiralities_Consistent>
1

> <s_lp_Variant>
AV-unprocessed.smi:218-16

> <Gold.Version>
5.8.1

> <Gold.Id.Protein>
6NUR|6NUR_protein|mol2

> <Gold.PLP.Fitness>
52.2613

> <Gold.PLP.PLP>
-40.2999

> <Gold.PLP.part.hbond>
-4.0172

> <Gold.PLP.part.metal>
0.0000

> <Gold.PLP.part.buried>
-3.9166

> <Gold.PLP.part.nonpolar>
-34.6001

> <Gold.PLP.part.repulsive>
1.8918

> <Gold.PLP.ligand.clash>
0.0000

> <Gold.PLP.ligand.torsion>
1.2311

> <Gold.PLP.Chemscore.Hbond>
2.8160

> <Gold.PLP.Chemscore.CHOScore>
1.9688

> <Gold.PLP.Chemscore.Metal>
0.0000

> <Gold.Chemscore.Hbonds>
donor molecule, donor type, donor heavy atom, donor atom, acceptor molecule, acceptor atom, score
      L1  H     9    45       P1 10175  1.00
      L1  H    23    50       P1  8028  0.34
      P1  H  7997  8008       L1    27  0.96
      L1  C    12    46       P1  8028  1.00
      L1  C    29    54       P1 10957  0.70

> <Gold.PLP.Chemscore.Internal.Correction>
0.0693

> <Gold.Rescore>
     Score         DG    S(hbond)    S(metal)    S(lipo)     H(rot)  DE(clash)    DE(int)     intcor
      1.97      -8.38       2.22        0.00      68.65       4.90       1.95       4.46       ----

> <Gold.Chemscore.Fitness>
1.9678

> <Gold.Chemscore.DG>
-8.3790

> <Gold.Chemscore.ZeroCoef>
-5.4800

> <Gold.Chemscore.Hbond>
2.2211

> <Gold.Chemscore.Metal>
0.0000

> <Gold.Chemscore.Lipo>
68.6514

> <Gold.Chemscore.Internal_Hbond>
0.0000

> <Gold.Chemscore.DEClash>
1.9498

> <Gold.Chemscore.DEInternal>
4.4615

> <Gold.Chemscore.Rot>
4.9029

> <Gold.Chemscore.Internal.Correction>
   9.000000E+99

> <Gold.Chemscore.Hbonds>
donor molecule, donor type, donor heavy atom, donor atom, acceptor molecule, acceptor atom, score
      L1  H     9    45       P1 10175  1.00
      L1  H    23    50       P1  8028  0.34
      P1  H  7997  8008       L1    27  0.88

> <Gold.Chemscore.Hbond.Weighted>
-7.4184

> <Gold.Chemscore.Metal.Weighted>
-0.0000

> <Gold.Chemscore.Lipo.Weighted>
-8.0322

> <Gold.Chemscore.Internal_Hbond.Weighted>
0.0000

> <Gold.Chemscore.DEClash.Weighted>
1.9498

> <Gold.Chemscore.DEInternal.Weighted>
4.4615

> <Gold.Chemscore.Rot.Weighted>
12.5515

> <Gold.Chemscore.Internal.Correction.Weighted>
   9.000000E+99

> <Gold.Protein.RotatedTorsions>
[ 6907 6896 6895 6894 ] final -157.98 input  -60.11 | X-H torsion
[ 7974 7965 7964 7962 ] final   43.86 input  175.53 | X-H torsion
[ 8008 7997 7996 7995 ] final  -59.75 input   59.86 | X-H torsion
[ 10167 10162 10161 10158 ] final -125.22 input  -65.29 | X-H torsion
[ 10718 10713 10712 10709 ] final  -15.33 input   66.30 | X-H torsion
[ 10763 10752 10751 10750 ] final   40.32 input  -60.55 | X-H torsion
[ 11005 11000 10999 10996 ] final  -23.02 input  -57.11 | X-H torsion

> <Gold.Protein.ActiveResidues>
 VAL166  LYS551  ARG553  GLY616  TRP617  ASP618  TYR619  PRO620  LYS621  CYS622 
 ASP623  PHE694  ASN695  SER759  ASP760  ASP761  ALA762  ILE779  LEU786  VAL792 
 PHE793  MET794  SER795  GLU796  ALA797  LYS798  CYS799  TRP800  GLU811  SER814 

> <Gold.Protein.RotatedAtoms>
  151.3112  133.4080  159.2646 H   0  0  0  0  0  0  0  0  0  0  0  0  # atno 6907 bound_to 6896
  151.0113  134.9399  159.8019 H   0  0  0  0  0  0  0  0  0  0  0  0  # atno 6908 bound_to 6896
  152.5301  134.3076  159.9154 H   0  0  0  0  0  0  0  0  0  0  0  0  # atno 6909 bound_to 6896
  146.0619  139.5139  142.9653 H   0  0  0  0  0  0  0  0  0  0  0  0  # atno 7974 bound_to 7965
  154.4366  140.1055  156.6165 H   0  0  0  0  0  0  0  0  0  0  0  0  # atno 8008 bound_to 7997
  155.5754  140.3490  155.4507 H   0  0  0  0  0  0  0  0  0  0  0  0  # atno 8009 bound_to 7997
  156.0358  140.1271  157.0198 H   0  0  0  0  0  0  0  0  0  0  0  0  # atno 8010 bound_to 7997
  139.9844  143.5707  152.2366 H   0  0  0  0  0  0  0  0  0  0  0  0  # atno 10167 bound_to 10162
  156.6033  130.4830  149.6231 H   0  0  0  0  0  0  0  0  0  0  0  0  # atno 10718 bound_to 10713
  152.9940  135.6195  154.2608 H   0  0  0  0  0  0  0  0  0  0  0  0  # atno 10763 bound_to 10752
  154.2344  135.2791  155.2879 H   0  0  0  0  0  0  0  0  0  0  0  0  # atno 10764 bound_to 10752
  154.5422  135.5757  153.6907 H   0  0  0  0  0  0  0  0  0  0  0  0  # atno 10765 bound_to 10752
  140.8712  133.7719  156.0188 H   0  0  0  0  0  0  0  0  0  0  0  0  # atno 11005 bound_to 11000
  145.6545  141.0255  143.1742 LP  0  0  0  0  0  0  0  0  0  0  0  0  # atno 17320 bound_to 7965
  144.7180  139.8130  143.7392 LP  0  0  0  0  0  0  0  0  0  0  0  0  # atno 17321 bound_to 7965
  139.6386  144.7652  151.2386 LP  0  0  0  0  0  0  0  0  0  0  0  0  # atno 17342 bound_to 10162
  140.7477  143.6356  150.8382 LP  0  0  0  0  0  0  0  0  0  0  0  0  # atno 17343 bound_to 10162
  156.2451  130.6874  151.1592 LP  0  0  0  0  0  0  0  0  0  0  0  0  # atno 17370 bound_to 10713
  157.7274  131.0639  150.5868 LP  0  0  0  0  0  0  0  0  0  0  0  0  # atno 17371 bound_to 10713
  140.8571  134.2885  157.5250 LP  0  0  0  0  0  0  0  0  0  0  0  0  # atno 17394 bound_to 11000
  139.8712  134.9498  156.4038 LP  0  0  0  0  0  0  0  0  0  0  0  0  # atno 17395 bound_to 11000

$$$$
