AV-unprocessed.smi:2881|AV-procd|sdf|11057|dock1
  -GOLD-   2272015523D 1   1.00000     0.00000
 Structure written by MMmdl.
 40 42  0  0  0  0  0  0  0  0  1 V2000
  147.5144  139.3794  153.0367 C   0  0  0  0  0  0  0  0  0  0  0  0
  148.7298  139.4687  153.8954 C   0  0  0  0  0  0  0  0  0  0  0  0
  148.8873  139.3860  155.2498 C   0  0  0  0  0  0  0  0  0  0  0  0
  150.2902  139.5441  155.4532 C   0  0  0  0  0  0  0  0  0  0  0  0
  151.0439  139.5317  156.7563 C   0  0  0  0  0  0  0  0  0  0  0  0
  150.6132  140.7139  157.6252 C   0  0  0  0  0  0  0  0  0  0  0  0
  149.4934  141.2062  157.4876 O   0  0  0  0  0  0  0  0  0  0  0  0
  151.5130  141.1598  158.5147 N   0  0  0  0  0  0  0  0  0  0  0  0
  151.2883  142.2486  159.4616 C   0  0  2  0  0  0  0  0  0  0  0  0
  150.6500  143.5091  158.8243 C   0  0  2  0  0  0  0  0  0  0  0  0
  151.4270  143.9648  157.5705 C   0  0  0  0  0  0  0  0  0  0  0  0
  152.7443  144.4956  158.1657 C   0  0  0  0  0  0  0  0  0  0  0  0
  152.5383  144.2989  159.6806 C   0  0  1  0  0  0  0  0  0  0  0  0
  151.0482  144.5883  159.8230 C   0  0  0  0  0  0  0  0  0  0  0  0
  152.6293  142.7929  160.0209 C   0  0  1  0  0  0  0  0  0  0  0  0
  152.8165  142.5281  161.5272 C   0  0  0  0  0  0  0  0  0  0  0  0
  151.5953  142.7203  162.2100 O   0  0  0  0  0  0  0  0  0  0  0  0
  150.9481  139.7193  154.3150 N   0  0  0  0  0  0  0  0  0  0  0  0
  149.9869  139.6697  153.3740 N   0  0  0  0  0  0  0  0  0  0  0  0
  150.2007  139.7731  152.3922 H   0  0  0  0  0  0  0  0  0  0  0  0
  146.6581  139.0230  153.6096 H   0  0  0  0  0  0  0  0  0  0  0  0
  147.6742  138.6904  152.2072 H   0  0  0  0  0  0  0  0  0  0  0  0
  147.2606  140.3556  152.6235 H   0  0  0  0  0  0  0  0  0  0  0  0
  148.1159  139.2300  155.9896 H   0  0  0  0  0  0  0  0  0  0  0  0
  150.8739  138.6018  157.3012 H   0  0  0  0  0  0  0  0  0  0  0  0
  152.1172  139.5902  156.5714 H   0  0  0  0  0  0  0  0  0  0  0  0
  152.4062  140.6907  158.5616 H   0  0  0  0  0  0  0  0  0  0  0  0
  150.6548  141.8925  160.2765 H   0  0  0  0  0  0  0  0  0  0  0  0
  149.5760  143.4169  158.6595 H   0  0  0  0  0  0  0  0  0  0  0  0
  151.5845  143.1692  156.8423 H   0  0  0  0  0  0  0  0  0  0  0  0
  150.8915  144.7675  157.0621 H   0  0  0  0  0  0  0  0  0  0  0  0
  153.6170  143.9601  157.7904 H   0  0  0  0  0  0  0  0  0  0  0  0
  152.8733  145.5516  157.9248 H   0  0  0  0  0  0  0  0  0  0  0  0
  153.1896  144.9290  160.2870 H   0  0  0  0  0  0  0  0  0  0  0  0
  150.7705  145.5955  159.5073 H   0  0  0  0  0  0  0  0  0  0  0  0
  150.6607  144.4129  160.8275 H   0  0  0  0  0  0  0  0  0  0  0  0
  153.4838  142.3619  159.4952 H   0  0  0  0  0  0  0  0  0  0  0  0
  153.1431  141.5011  161.6933 H   0  0  0  0  0  0  0  0  0  0  0  0
  153.5760  143.1810  161.9575 H   0  0  0  0  0  0  0  0  0  0  0  0
  151.4022  143.6452  162.2274 H   0  0  0  0  0  0  0  0  0  0  0  0
  1  2  1  0  0  0  0
  1 21  1  0  0  0  0
  1 22  1  0  0  0  0
  1 23  1  0  0  0  0
  2 19  1  0  0  0  0
  2  3  2  0  0  0  0
  3  4  1  0  0  0  0
  3 24  1  0  0  0  0
  4  5  1  0  0  0  0
  4 18  2  0  0  0  0
  5  6  1  0  0  0  0
  5 25  1  0  0  0  0
  5 26  1  0  0  0  0
  6  7  2  0  0  0  0
  6  8  1  0  0  0  0
  8  9  1  0  0  0  0
  8 27  1  0  0  0  0
  9 15  1  0  0  0  0
  9 10  1  0  0  0  0
  9 28  1  0  0  0  0
 10 14  1  0  0  0  0
 10 11  1  0  0  0  0
 10 29  1  0  0  0  0
 11 12  1  0  0  0  0
 11 30  1  0  0  0  0
 11 31  1  0  0  0  0
 12 13  1  0  0  0  0
 12 32  1  0  0  0  0
 12 33  1  0  0  0  0
 13 14  1  0  0  0  0
 13 15  1  0  0  0  0
 13 34  1  0  0  0  0
 14 35  1  0  0  0  0
 14 36  1  0  0  0  0
 15 16  1  0  0  0  0
 15 37  1  0  0  0  0
 16 17  1  0  0  0  0
 16 38  1  0  0  0  0
 16 39  1  0  0  0  0
 17 40  1  0  0  0  0
 18 19  1  0  0  0  0
 19 20  1  0  0  0  0
M  END
> <s_m_source_file>
AV-unprocessed.smi

> <i_m_source_file_index>
2881

> <i_lp_mmshare_version>
43012

> <i_f3d_flags>
0

> <s_epik_input>
W0NIM11jMVtjSF1jKG5bbkhdMSlbQ0gyXUMoPU8pW05IXVtDQEhdKFtDQEBIXTIzKVtDQEhdKFtDSDJdW09IXSlbQ0BASF0oW0NIMl0zKVtDSDJdW0NIMl0y

> <s_epik_cmdline>
J2VwaWtfcHl0aG9uJywgJy1waCcsICc3LjAnLCAnLXRuJywgJzgnLCAnLW1hJywgJzIwMCcsICctbWV0YWxfYmluZGluZycsICctaW1hZScsICc8aW5maWxlLm1hZT4nLCAnLW9tYWUnLCAnPG91dGZpbGUubWFlPic=

> <r_lp_tautomer_probability>
0.5

> <r_epik_Ionization_Penalty>
9.4349e-05

> <r_epik_Ionization_Penalty_Charging>
0

> <r_epik_Ionization_Penalty_Neutral>
9.4349e-05

> <r_epik_State_Penalty>
0.41068

> <r_epik_Charging_Adjusted_Penalty>
0.41068

> <i_epik_Tot_Q>
0

> <i_epik_Tot_abs_Q>
0

> <r_epik_Metal_State_Penalty>
0.4107

> <b_epik_Metal_Only>
0

> <s_lp_Force_Field>
OPLS_2005

> <r_lp_Energy>
47.2373

> <b_lp_Chiralities_Consistent>
1

> <s_lp_Variant>
AV-unprocessed.smi:2881-3

> <Gold.Version>
5.8.1

> <Gold.Id.Protein>
6NUR|6NUR_protein|mol2

> <Gold.PLP.Fitness>
43.7276

> <Gold.PLP.PLP>
-37.0386

> <Gold.PLP.part.hbond>
-3.7856

> <Gold.PLP.part.metal>
0.0000

> <Gold.PLP.part.buried>
-5.7146

> <Gold.PLP.part.nonpolar>
-30.8072

> <Gold.PLP.part.repulsive>
0.4259

> <Gold.PLP.ligand.clash>
0.0000

> <Gold.PLP.ligand.torsion>
0.7266

> <Gold.PLP.Chemscore.Hbond>
2.7043

> <Gold.PLP.Chemscore.CHOScore>
0.0000

> <Gold.PLP.Chemscore.Metal>
0.0000

> <Gold.Chemscore.Hbonds>
donor molecule, donor type, donor heavy atom, donor atom, acceptor molecule, acceptor atom, score
      L1  H    19    20       P1  7957  0.54
      P1  H  6933  6945       L1    17  0.93
      P1  H  7989  7998       L1    18  0.40

> <Gold.PLP.Chemscore.Internal.Correction>
0.0293

> <Gold.Rescore>
     Score         DG    S(hbond)    S(metal)    S(lipo)     H(rot)  DE(clash)    DE(int)     intcor
     15.35     -19.33       2.26        0.00     103.77       2.28       0.17       3.81       ----

> <Gold.Chemscore.Fitness>
15.3525

> <Gold.Chemscore.DG>
-19.3343

> <Gold.Chemscore.ZeroCoef>
-5.4800

> <Gold.Chemscore.Hbond>
2.2570

> <Gold.Chemscore.Metal>
0.0000

> <Gold.Chemscore.Lipo>
103.7702

> <Gold.Chemscore.Internal_Hbond>
0.0000

> <Gold.Chemscore.DEClash>
0.1670

> <Gold.Chemscore.DEInternal>
3.8147

> <Gold.Chemscore.Rot>
2.2755

> <Gold.Chemscore.Internal.Correction>
   9.000000E+99

> <Gold.Chemscore.Hbonds>
donor molecule, donor type, donor heavy atom, donor atom, acceptor molecule, acceptor atom, score
      L1  H    19    20       P1  7957  0.49
      P1  H  6933  6945       L1    17  0.64
      P1  H  7989  7998       L1    18  0.01

> <Gold.Chemscore.Hbond.Weighted>
-7.5384

> <Gold.Chemscore.Metal.Weighted>
-0.0000

> <Gold.Chemscore.Lipo.Weighted>
-12.1411

> <Gold.Chemscore.Internal_Hbond.Weighted>
0.0000

> <Gold.Chemscore.DEClash.Weighted>
0.1670

> <Gold.Chemscore.DEInternal.Weighted>
3.8147

> <Gold.Chemscore.Rot.Weighted>
5.8252

> <Gold.Chemscore.Internal.Correction.Weighted>
   9.000000E+99

> <Gold.Protein.RotatedTorsions>
[ 6907 6896 6895 6894 ] final  -12.70 input  -60.11 | X-H torsion
[ 7974 7965 7964 7962 ] final   49.81 input  175.53 | X-H torsion
[ 8008 7997 7996 7995 ] final   32.11 input   59.86 | X-H torsion
[ 10167 10162 10161 10158 ] final  145.80 input  -65.29 | X-H torsion
[ 10718 10713 10712 10709 ] final  126.20 input   66.30 | X-H torsion
[ 10763 10752 10751 10750 ] final   93.58 input  -60.55 | X-H torsion
[ 11005 11000 10999 10996 ] final  -69.85 input  -57.11 | X-H torsion

> <Gold.Protein.ActiveResidues>
 VAL166  LYS551  ARG553  GLY616  TRP617  ASP618  TYR619  PRO620  LYS621  CYS622 
 ASP623  PHE694  ASN695  SER759  ASP760  ASP761  ALA762  ILE779  LEU786  VAL792 
 PHE793  MET794  SER795  GLU796  ALA797  LYS798  CYS799  TRP800  GLU811  SER814 

> <Gold.Protein.RotatedAtoms>
  151.3664  135.0914  159.9451 H   0  0  0  0  0  0  0  0  0  0  0  0  # atno 6907 bound_to 6896
  152.5148  133.9207  159.7543 H   0  0  0  0  0  0  0  0  0  0  0  0  # atno 6908 bound_to 6896
  150.9612  133.6388  159.2783 H   0  0  0  0  0  0  0  0  0  0  0  0  # atno 6909 bound_to 6896
  146.0073  139.4504  142.9978 H   0  0  0  0  0  0  0  0  0  0  0  0  # atno 7974 bound_to 7965
  155.1173  140.3245  155.4506 H   0  0  0  0  0  0  0  0  0  0  0  0  # atno 8008 bound_to 7997
  156.2673  140.2033  156.6243 H   0  0  0  0  0  0  0  0  0  0  0  0  # atno 8009 bound_to 7997
  154.6711  140.0536  157.0153 H   0  0  0  0  0  0  0  0  0  0  0  0  # atno 8010 bound_to 7997
  139.4919  144.5876  151.6747 H   0  0  0  0  0  0  0  0  0  0  0  0  # atno 10167 bound_to 10162
  157.5439  131.1096  150.8813 H   0  0  0  0  0  0  0  0  0  0  0  0  # atno 10718 bound_to 10713
  153.2319  135.4320  155.0604 H   0  0  0  0  0  0  0  0  0  0  0  0  # atno 10763 bound_to 10752
  154.8301  135.3381  154.6775 H   0  0  0  0  0  0  0  0  0  0  0  0  # atno 10764 bound_to 10752
  153.7202  135.7017  153.5071 H   0  0  0  0  0  0  0  0  0  0  0  0  # atno 10765 bound_to 10752
  141.1562  133.6775  156.6662 H   0  0  0  0  0  0  0  0  0  0  0  0  # atno 11005 bound_to 11000
  145.7397  141.0013  143.1308 LP  0  0  0  0  0  0  0  0  0  0  0  0  # atno 17320 bound_to 7965
  144.6940  139.9084  143.7462 LP  0  0  0  0  0  0  0  0  0  0  0  0  # atno 17321 bound_to 7965
  140.5495  144.0448  150.6121 LP  0  0  0  0  0  0  0  0  0  0  0  0  # atno 17342 bound_to 10162
  140.3497  143.2970  152.0500 LP  0  0  0  0  0  0  0  0  0  0  0  0  # atno 17343 bound_to 10162
  156.9358  130.5366  149.5279 LP  0  0  0  0  0  0  0  0  0  0  0  0  # atno 17370 bound_to 10713
  156.0519  130.5587  150.9009 LP  0  0  0  0  0  0  0  0  0  0  0  0  # atno 17371 bound_to 10713
  140.3209  134.8008  157.4252 LP  0  0  0  0  0  0  0  0  0  0  0  0  # atno 17394 bound_to 11000
  140.1097  134.5361  155.8277 LP  0  0  0  0  0  0  0  0  0  0  0  0  # atno 17395 bound_to 11000

$$$$
