AV-unprocessed.smi:2700|AV-procd|sdf|10426|dock8
  -GOLD-   2272014463D 1   1.00000     0.00000
 Structure written by MMmdl.
 20 21  0  0  0  0  0  0  0  0  2 V2000
  153.4948  139.3278  158.1537 O   0  0  0  0  0  0  0  0  0  0  0  0
  152.7995  140.1504  158.7892 C   0  0  0  0  0  0  0  0  0  0  0  0
  151.5819  140.3702  158.6077 O   0  5  0  0  0  0  0  0  0  0  0  0
  153.5054  140.9763  159.8676 C   0  0  0  0  0  0  0  0  0  0  0  0
  152.9526  142.3496  160.1053 C   0  0  0  0  0  0  0  0  0  0  0  0
  152.7167  142.8254  161.4123 C   0  0  0  0  0  0  0  0  0  0  0  0
  152.1867  144.1181  161.5868 C   0  0  0  0  0  0  0  0  0  0  0  0
  151.9090  144.8871  160.4400 C   0  0  0  0  0  0  0  0  0  0  0  0
  152.1246  144.4460  159.1825 N   0  0  0  0  0  0  0  0  0  0  0  0
  152.6309  143.2032  159.0278 C   0  0  0  0  0  0  0  0  0  0  0  0
  154.0629  140.1854  161.0369 C   0  0  0  0  0  0  0  0  0  0  0  0
  154.9993  140.7410  159.9962 C   0  0  0  0  0  0  0  0  0  0  0  0
  152.9374  142.2064  162.2695 H   0  0  0  0  0  0  0  0  0  0  0  0
  151.9955  144.5089  162.5752 H   0  0  0  0  0  0  0  0  0  0  0  0
  151.5006  145.8823  160.5354 H   0  0  0  0  0  0  0  0  0  0  0  0
  152.7862  142.8785  158.0093 H   0  0  0  0  0  0  0  0  0  0  0  0
  154.0722  140.6598  162.0161 H   0  0  0  0  0  0  0  0  0  0  0  0
  153.9338  139.1045  161.0473 H   0  0  0  0  0  0  0  0  0  0  0  0
  155.4746  140.0187  159.3348 H   0  0  0  0  0  0  0  0  0  0  0  0
  155.6245  141.5823  160.2884 H   0  0  0  0  0  0  0  0  0  0  0  0
  1  2  2  0  0  0  0
  2  3  1  0  0  0  0
  2  4  1  0  0  0  0
  4 12  1  0  0  0  0
  4  5  1  0  0  0  0
  4 11  1  0  0  0  0
  5 10  1  0  0  0  0
  5  6  2  0  0  0  0
  6  7  1  0  0  0  0
  6 13  1  0  0  0  0
  7  8  2  0  0  0  0
  7 14  1  0  0  0  0
  8  9  1  0  0  0  0
  8 15  1  0  0  0  0
  9 10  2  0  0  0  0
 10 16  1  0  0  0  0
 11 12  1  0  0  0  0
 11 17  1  0  0  0  0
 11 18  1  0  0  0  0
 12 19  1  0  0  0  0
 12 20  1  0  0  0  0
M  CHG  1   3  -1
M  END
> <s_m_source_file>
AV-unprocessed.smi

> <i_m_source_file_index>
2700

> <i_lp_mmshare_version>
43012

> <i_f3d_flags>
0

> <s_epik_input>
Tz1DKFtPSF0pQzEoW0NIMl1bQ0gyXTEpYzJbY0hdW2NIXVtjSF1uW2NIXTI=

> <s_epik_cmdline>
J2VwaWtfcHl0aG9uJywgJy1waCcsICc3LjAnLCAnLXRuJywgJzgnLCAnLW1hJywgJzIwMCcsICctbWV0YWxfYmluZGluZycsICctaW1hZScsICc8aW5maWxlLm1hZT4nLCAnLW9tYWUnLCAnPG91dGZpbGUubWFlPic=

> <r_epik_Ionization_Penalty>
0.0484924

> <r_epik_Ionization_Penalty_Charging>
0.000756486

> <r_epik_Ionization_Penalty_Neutral>
0.0477359

> <r_epik_State_Penalty>
0.04067

> <r_epik_Charging_Adjusted_Penalty>
0.0414265

> <i_epik_Tot_Q>
-1

> <i_epik_Tot_abs_Q>
1

> <r_epik_Metal_State_Penalty>
4.20968e-05

> <b_epik_Metal_Only>
0

> <s_lp_Force_Field>
OPLS_2005

> <r_lp_Energy>
7.44883

> <b_lp_Chiralities_Consistent>
1

> <s_lp_Variant>
AV-unprocessed.smi:2700-1

> <Gold.Version>
5.8.1

> <Gold.Id.Protein>
6NUR|6NUR_protein|mol2

> <Gold.PLP.Fitness>
38.2948

> <Gold.PLP.PLP>
-32.6056

> <Gold.PLP.part.hbond>
-1.0000

> <Gold.PLP.part.metal>
0.0000

> <Gold.PLP.part.buried>
-4.7505

> <Gold.PLP.part.nonpolar>
-27.1063

> <Gold.PLP.part.repulsive>
0.0188

> <Gold.PLP.ligand.clash>
0.0000

> <Gold.PLP.ligand.torsion>
0.9736

> <Gold.PLP.Chemscore.Hbond>
2.0000

> <Gold.PLP.Chemscore.CHOScore>
0.0000

> <Gold.PLP.Chemscore.Metal>
0.0000

> <Gold.Chemscore.Hbonds>
donor molecule, donor type, donor heavy atom, donor atom, acceptor molecule, acceptor atom, score
      P1  H  7997  8009       L1     1  2.00

> <Gold.PLP.Chemscore.Internal.Correction>
1.6363

> <Gold.Rescore>
     Score         DG    S(hbond)    S(metal)    S(lipo)     H(rot)  DE(clash)    DE(int)     intcor
     14.62     -15.64       1.00        0.00      88.25       1.36       0.00       1.01       ----

> <Gold.Chemscore.Fitness>
14.6228

> <Gold.Chemscore.DG>
-15.6367

> <Gold.Chemscore.ZeroCoef>
-5.4800

> <Gold.Chemscore.Hbond>
0.9954

> <Gold.Chemscore.Metal>
0.0000

> <Gold.Chemscore.Lipo>
88.2537

> <Gold.Chemscore.Internal_Hbond>
0.0000

> <Gold.Chemscore.DEClash>
0.0000

> <Gold.Chemscore.DEInternal>
1.0139

> <Gold.Chemscore.Rot>
1.3647

> <Gold.Chemscore.Internal.Correction>
   9.000000E+99

> <Gold.Chemscore.Hbonds>
donor molecule, donor type, donor heavy atom, donor atom, acceptor molecule, acceptor atom, score
      P1  H  7997  8009       L1     1  0.91

> <Gold.Chemscore.Hbond.Weighted>
-3.3247

> <Gold.Chemscore.Metal.Weighted>
-0.0000

> <Gold.Chemscore.Lipo.Weighted>
-10.3257

> <Gold.Chemscore.Internal_Hbond.Weighted>
0.0000

> <Gold.Chemscore.DEClash.Weighted>
0.0000

> <Gold.Chemscore.DEInternal.Weighted>
1.0139

> <Gold.Chemscore.Rot.Weighted>
3.4936

> <Gold.Chemscore.Internal.Correction.Weighted>
   9.000000E+99

> <Gold.Protein.RotatedTorsions>
[ 6907 6896 6895 6894 ] final   -4.59 input  -60.11 | X-H torsion
[ 7974 7965 7964 7962 ] final   78.64 input  175.53 | X-H torsion
[ 8008 7997 7996 7995 ] final  149.90 input   59.86 | X-H torsion
[ 10167 10162 10161 10158 ] final  121.70 input  -65.29 | X-H torsion
[ 10718 10713 10712 10709 ] final   63.23 input   66.30 | X-H torsion
[ 10763 10752 10751 10750 ] final  175.74 input  -60.55 | X-H torsion
[ 11005 11000 10999 10996 ] final   15.82 input  -57.11 | X-H torsion

> <Gold.Protein.ActiveResidues>
 VAL166  LYS551  ARG553  GLY616  TRP617  ASP618  TYR619  PRO620  LYS621  CYS622 
 ASP623  PHE694  ASN695  SER759  ASP760  ASP761  ALA762  ILE779  LEU786  VAL792 
 PHE793  MET794  SER795  GLU796  ALA797  LYS798  CYS799  TRP800  GLU811  SER814 

> <Gold.Protein.RotatedAtoms>
  151.4952  135.1059  159.9813 H   0  0  0  0  0  0  0  0  0  0  0  0  # atno 6907 bound_to 6896
  152.4725  133.8057  159.6987 H   0  0  0  0  0  0  0  0  0  0  0  0  # atno 6908 bound_to 6896
  150.8742  133.7400  159.2978 H   0  0  0  0  0  0  0  0  0  0  0  0  # atno 6909 bound_to 6896
  145.6745  139.2506  143.1849 H   0  0  0  0  0  0  0  0  0  0  0  0  # atno 7974 bound_to 7965
  156.2737  140.2089  156.5932 H   0  0  0  0  0  0  0  0  0  0  0  0  # atno 8008 bound_to 7997
  154.6966  140.0525  157.0440 H   0  0  0  0  0  0  0  0  0  0  0  0  # atno 8009 bound_to 7997
  155.0793  140.3185  155.4609 H   0  0  0  0  0  0  0  0  0  0  0  0  # atno 8010 bound_to 7997
  139.5903  144.7022  151.3306 H   0  0  0  0  0  0  0  0  0  0  0  0  # atno 10167 bound_to 10162
  157.5957  130.9094  149.9690 H   0  0  0  0  0  0  0  0  0  0  0  0  # atno 10718 bound_to 10713
  154.4717  135.2771  155.1637 H   0  0  0  0  0  0  0  0  0  0  0  0  # atno 10763 bound_to 10752
  154.3384  135.6175  153.5588 H   0  0  0  0  0  0  0  0  0  0  0  0  # atno 10764 bound_to 10752
  152.9865  135.5782  154.5100 H   0  0  0  0  0  0  0  0  0  0  0  0  # atno 10765 bound_to 10752
  140.4541  134.1194  155.7706 H   0  0  0  0  0  0  0  0  0  0  0  0  # atno 11005 bound_to 11000
  146.1017  140.7536  142.9546 LP  0  0  0  0  0  0  0  0  0  0  0  0  # atno 17320 bound_to 7965
  144.7046  140.3798  143.7128 LP  0  0  0  0  0  0  0  0  0  0  0  0  # atno 17321 bound_to 7965
  140.7167  143.7246  150.7670 LP  0  0  0  0  0  0  0  0  0  0  0  0  # atno 17342 bound_to 10162
  140.0800  143.4978  152.2535 LP  0  0  0  0  0  0  0  0  0  0  0  0  # atno 17343 bound_to 10162
  156.1019  130.3655  150.0203 LP  0  0  0  0  0  0  0  0  0  0  0  0  # atno 17370 bound_to 10713
  156.8317  130.9394  151.3637 LP  0  0  0  0  0  0  0  0  0  0  0  0  # atno 17371 bound_to 10713
  141.1651  133.8718  157.1738 LP  0  0  0  0  0  0  0  0  0  0  0  0  # atno 17394 bound_to 11000
  139.9988  135.0036  157.0142 LP  0  0  0  0  0  0  0  0  0  0  0  0  # atno 17395 bound_to 11000

$$$$
