AV-unprocessed.smi:1697|AV-procd|sdf|6807|dock10
  -GOLD-   22720 7583D 1   1.00000     0.00000
 Structure written by MMmdl.
 55 57  0  0  0  0  0  0  0  0  3 V2000
  147.2357  133.0363  152.4419 C   0  0  0  0  0  0  0  0  0  0  0  0
  146.3770  133.7780  153.4688 C   0  0  0  0  0  0  0  0  0  0  0  0
  146.8605  133.4759  154.7693 O   0  0  0  0  0  0  0  0  0  0  0  0
  147.8631  134.3622  155.2479 C   0  0  2  0  0  0  0  0  0  0  0  0
  147.5004  135.8298  154.9547 C   0  0  0  0  0  0  0  0  0  0  0  0
  148.6590  136.7727  155.3228 C   0  0  0  0  0  0  0  0  0  0  0  0
  149.9094  136.3930  154.6112 N   0  3  1  0  0  0  0  0  0  0  0  0
  151.0334  137.3386  154.8394 C   0  0  0  0  0  0  0  0  0  0  0  0
  150.5705  138.7628  155.2115 C   0  0  2  0  0  0  0  0  0  0  0  0
  150.1845  139.4513  154.0367 O   0  0  0  0  0  0  0  0  0  0  0  0
  151.6977  139.5552  155.9035 C   0  0  0  0  0  0  0  0  0  0  0  0
  151.2345  140.8228  156.4841 N   0  0  0  0  0  0  0  0  0  0  0  0
  150.3687  141.7482  155.9877 C   0  0  0  0  0  0  0  0  0  0  0  0
  150.2688  142.7503  156.9044 N   0  3  0  0  0  0  0  0  0  0  0  0
  151.0838  142.4614  158.0011 C   0  0  0  0  0  0  0  0  0  0  0  0
  151.3183  143.1695  159.1739 C   0  0  0  0  0  0  0  0  0  0  0  0
  152.2163  142.5981  160.1037 C   0  0  0  0  0  0  0  0  0  0  0  0
  152.4974  143.3479  161.3948 C   0  0  0  0  0  0  0  0  0  0  0  0
  152.8439  141.3523  159.8421 C   0  0  0  0  0  0  0  0  0  0  0  0
  153.8075  140.7475  160.8492 C   0  0  0  0  0  0  0  0  0  0  0  0
  152.5911  140.6468  158.6439 C   0  0  0  0  0  0  0  0  0  0  0  0
  151.7060  141.2257  157.7378 C   0  0  0  0  0  0  0  0  0  0  0  0
  150.2954  134.9888  154.9064 C   0  0  0  0  0  0  0  0  0  0  0  0
  149.1714  134.0122  154.5253 C   0  0  0  0  0  0  0  0  0  0  0  0
  146.8969  133.2458  151.4269 H   0  0  0  0  0  0  0  0  0  0  0  0
  147.1852  131.9580  152.5947 H   0  0  0  0  0  0  0  0  0  0  0  0
  148.2814  133.3367  152.5149 H   0  0  0  0  0  0  0  0  0  0  0  0
  146.4209  134.8502  153.2773 H   0  0  0  0  0  0  0  0  0  0  0  0
  145.3359  133.4667  153.3719 H   0  0  0  0  0  0  0  0  0  0  0  0
  148.0100  134.2192  156.3201 H   0  0  0  0  0  0  0  0  0  0  0  0
  147.2595  135.9444  153.8967 H   0  0  0  0  0  0  0  0  0  0  0  0
  146.6090  136.1240  155.5084 H   0  0  0  0  0  0  0  0  0  0  0  0
  148.3702  137.7925  155.0725 H   0  0  0  0  0  0  0  0  0  0  0  0
  148.8309  136.7503  156.4003 H   0  0  0  0  0  0  0  0  0  0  0  0
  151.6847  136.9353  155.6166 H   0  0  0  0  0  0  0  0  0  0  0  0
  151.6447  137.4035  153.9376 H   0  0  0  0  0  0  0  0  0  0  0  0
  149.7130  138.7257  155.8820 H   0  0  0  0  0  0  0  0  0  0  0  0
  149.8920  138.8238  153.3936 H   0  0  0  0  0  0  0  0  0  0  0  0
  152.1648  138.9646  156.6928 H   0  0  0  0  0  0  0  0  0  0  0  0
  152.4874  139.7939  155.1895 H   0  0  0  0  0  0  0  0  0  0  0  0
  149.8528  141.6965  155.0395 H   0  0  0  0  0  0  0  0  0  0  0  0
  150.8362  144.1168  159.3668 H   0  0  0  0  0  0  0  0  0  0  0  0
  153.5606  143.5718  161.4847 H   0  0  0  0  0  0  0  0  0  0  0  0
  152.1942  142.7530  162.2568 H   0  0  0  0  0  0  0  0  0  0  0  0
  151.9542  144.2926  161.4340 H   0  0  0  0  0  0  0  0  0  0  0  0
  154.1860  139.7829  160.5104 H   0  0  0  0  0  0  0  0  0  0  0  0
  153.3132  140.5926  161.8083 H   0  0  0  0  0  0  0  0  0  0  0  0
  154.6632  141.4056  161.0021 H   0  0  0  0  0  0  0  0  0  0  0  0
  153.0697  139.6996  158.4446 H   0  0  0  0  0  0  0  0  0  0  0  0
  151.1956  134.7274  154.3489 H   0  0  0  0  0  0  0  0  0  0  0  0
  150.5380  134.8905  155.9658 H   0  0  0  0  0  0  0  0  0  0  0  0
  149.4684  132.9915  154.7695 H   0  0  0  0  0  0  0  0  0  0  0  0
  149.0162  134.0385  153.4456 H   0  0  0  0  0  0  0  0  0  0  0  0
  149.7085  136.4228  153.6220 H   0  0  0  0  0  0  0  0  0  0  0  0
  149.6878  143.5706  156.7864 H   0  0  0  0  0  0  0  0  0  0  0  0
  1  2  1  0  0  0  0
  1 25  1  0  0  0  0
  1 26  1  0  0  0  0
  1 27  1  0  0  0  0
  2  3  1  0  0  0  0
  2 28  1  0  0  0  0
  2 29  1  0  0  0  0
  3  4  1  0  0  0  0
  4 24  1  0  0  0  0
  4  5  1  0  0  0  0
  4 30  1  0  0  0  0
  5  6  1  0  0  0  0
  5 31  1  0  0  0  0
  5 32  1  0  0  0  0
  6  7  1  0  0  0  0
  6 33  1  0  0  0  0
  6 34  1  0  0  0  0
  7  8  1  0  0  0  0
  7 23  1  0  0  0  0
  7 54  1  0  0  0  0
  8  9  1  0  0  0  0
  8 35  1  0  0  0  0
  8 36  1  0  0  0  0
  9 10  1  0  0  0  0
  9 11  1  0  0  0  0
  9 37  1  0  0  0  0
 10 38  1  0  0  0  0
 11 12  1  0  0  0  0
 11 39  1  0  0  0  0
 11 40  1  0  0  0  0
 12 22  1  0  0  0  0
 12 13  1  0  0  0  0
 13 14  2  0  0  0  0
 13 41  1  0  0  0  0
 14 15  1  0  0  0  0
 14 55  1  0  0  0  0
 15 22  2  0  0  0  0
 15 16  1  0  0  0  0
 16 17  2  0  0  0  0
 16 42  1  0  0  0  0
 17 18  1  0  0  0  0
 17 19  1  0  0  0  0
 18 43  1  0  0  0  0
 18 44  1  0  0  0  0
 18 45  1  0  0  0  0
 19 20  1  0  0  0  0
 19 21  2  0  0  0  0
 20 46  1  0  0  0  0
 20 47  1  0  0  0  0
 20 48  1  0  0  0  0
 21 22  1  0  0  0  0
 21 49  1  0  0  0  0
 23 24  1  0  0  0  0
 23 50  1  0  0  0  0
 23 51  1  0  0  0  0
 24 52  1  0  0  0  0
 24 53  1  0  0  0  0
M  CHG  1   7   1
M  CHG  1  14   1
M  END
> <s_m_source_file>
AV-unprocessed.smi

> <i_m_source_file_index>
1697

> <i_lp_mmshare_version>
43012

> <i_f3d_flags>
0

> <s_epik_input>
W0NIM11bQ0gyXU9bQ0hdMVtDSDJdW0NIMl1OKFtDSDJdW0NIMl0xKVtDSDJdW0NASF0oW09IXSlbQ0gyXW4oW2NIXW4yKWMoYzIzKVtjSF1jKFtDSDNdKWMoW2NIXTMpW0NIM10=

> <s_epik_cmdline>
J2VwaWtfcHl0aG9uJywgJy1waCcsICc3LjAnLCAnLXRuJywgJzgnLCAnLW1hJywgJzIwMCcsICctbWV0YWxfYmluZGluZycsICctaW1hZScsICc8aW5maWxlLm1hZT4nLCAnLW9tYWUnLCAnPG91dGZpbGUubWFlPic=

> <r_epik_Ionization_Penalty>
1.20016

> <r_epik_Ionization_Penalty_Charging>
1.20016

> <r_epik_Ionization_Penalty_Neutral>
1.70998e-06

> <r_epik_State_Penalty>
1.27959

> <r_epik_Charging_Adjusted_Penalty>
2.47975

> <i_epik_Tot_Q>
2

> <i_epik_Tot_abs_Q>
2

> <r_epik_Metal_State_Penalty>
5.29682

> <b_epik_Metal_Only>
0

> <s_lp_Force_Field>
OPLS_2005

> <r_lp_Energy>
32.2014

> <b_lp_Chiralities_Consistent>
1

> <s_lp_Variant>
AV-unprocessed.smi:1697-5

> <Gold.Version>
5.8.1

> <Gold.Id.Protein>
6NUR|6NUR_protein|mol2

> <Gold.PLP.Fitness>
61.3280

> <Gold.PLP.PLP>
-48.4867

> <Gold.PLP.part.hbond>
-4.2534

> <Gold.PLP.part.metal>
0.0000

> <Gold.PLP.part.buried>
-5.2925

> <Gold.PLP.part.nonpolar>
-39.4864

> <Gold.PLP.part.repulsive>
0.1371

> <Gold.PLP.ligand.clash>
0.0000

> <Gold.PLP.ligand.torsion>
1.2001

> <Gold.PLP.Chemscore.Hbond>
5.0182

> <Gold.PLP.Chemscore.CHOScore>
0.0000

> <Gold.PLP.Chemscore.Metal>
0.0000

> <Gold.Chemscore.Hbonds>
donor molecule, donor type, donor heavy atom, donor atom, acceptor molecule, acceptor atom, score
      L1  H     7    54       P1  7948  2.00
      L1  H    14    55       P1  8028  1.95
      P1  H  7989  7998       L1    10  0.86

> <Gold.PLP.Chemscore.Internal.Correction>
0.1869

> <Gold.Rescore>
     Score         DG    S(hbond)    S(metal)    S(lipo)     H(rot)  DE(clash)    DE(int)     intcor
     20.24     -21.58       2.66        0.00     113.10       2.35       0.02       1.32       ----

> <Gold.Chemscore.Fitness>
20.2433

> <Gold.Chemscore.DG>
-21.5806

> <Gold.Chemscore.ZeroCoef>
-5.4800

> <Gold.Chemscore.Hbond>
2.6575

> <Gold.Chemscore.Metal>
0.0000

> <Gold.Chemscore.Lipo>
113.0957

> <Gold.Chemscore.Internal_Hbond>
0.0000

> <Gold.Chemscore.DEClash>
0.0222

> <Gold.Chemscore.DEInternal>
1.3151

> <Gold.Chemscore.Rot>
2.3468

> <Gold.Chemscore.Internal.Correction>
   9.000000E+99

> <Gold.Chemscore.Hbonds>
donor molecule, donor type, donor heavy atom, donor atom, acceptor molecule, acceptor atom, score
      L1  H     7    54       P1  7948  0.45
      L1  H    14    55       P1  8028  0.93
      P1  H  7989  7998       L1    10  0.64

> <Gold.Chemscore.Hbond.Weighted>
-8.8761

> <Gold.Chemscore.Metal.Weighted>
-0.0000

> <Gold.Chemscore.Lipo.Weighted>
-13.2322

> <Gold.Chemscore.Internal_Hbond.Weighted>
0.0000

> <Gold.Chemscore.DEClash.Weighted>
0.0222

> <Gold.Chemscore.DEInternal.Weighted>
1.3151

> <Gold.Chemscore.Rot.Weighted>
6.0077

> <Gold.Chemscore.Internal.Correction.Weighted>
   9.000000E+99

> <Gold.Protein.RotatedTorsions>
[ 6907 6896 6895 6894 ] final   34.85 input  -60.11 | X-H torsion
[ 7974 7965 7964 7962 ] final  -94.82 input  175.53 | X-H torsion
[ 8008 7997 7996 7995 ] final  156.30 input   59.86 | X-H torsion
[ 10167 10162 10161 10158 ] final -154.96 input  -65.29 | X-H torsion
[ 10718 10713 10712 10709 ] final  131.28 input   66.30 | X-H torsion
[ 10763 10752 10751 10750 ] final -130.47 input  -60.55 | X-H torsion
[ 11005 11000 10999 10996 ] final -175.84 input  -57.11 | X-H torsion

> <Gold.Protein.ActiveResidues>
 VAL166  LYS551  ARG553  GLY616  TRP617  ASP618  TYR619  PRO620  LYS621  CYS622 
 ASP623  PHE694  ASN695  SER759  ASP760  ASP761  ALA762  ILE779  LEU786  VAL792 
 PHE793  MET794  SER795  GLU796  ALA797  LYS798  CYS799  TRP800  GLU811  SER814 

> <Gold.Protein.RotatedAtoms>
  152.1081  134.9294  160.0567 H   0  0  0  0  0  0  0  0  0  0  0  0  # atno 6907 bound_to 6896
  152.0482  133.4002  159.4374 H   0  0  0  0  0  0  0  0  0  0  0  0  # atno 6908 bound_to 6896
  150.6842  134.3258  159.4849 H   0  0  0  0  0  0  0  0  0  0  0  0  # atno 6909 bound_to 6896
  145.3682  140.9501  143.2462 H   0  0  0  0  0  0  0  0  0  0  0  0  # atno 7974 bound_to 7965
  156.2430  140.1916  156.6933 H   0  0  0  0  0  0  0  0  0  0  0  0  # atno 8008 bound_to 7997
  154.6235  140.0605  156.9671 H   0  0  0  0  0  0  0  0  0  0  0  0  # atno 8009 bound_to 7997
  155.1824  140.3277  155.4375 H   0  0  0  0  0  0  0  0  0  0  0  0  # atno 8010 bound_to 7997
  139.6970  143.9325  152.2412 H   0  0  0  0  0  0  0  0  0  0  0  0  # atno 10167 bound_to 10162
  157.4983  131.1093  150.9463 H   0  0  0  0  0  0  0  0  0  0  0  0  # atno 10718 bound_to 10713
  154.8755  135.3861  154.4088 H   0  0  0  0  0  0  0  0  0  0  0  0  # atno 10763 bound_to 10752
  153.4804  135.7030  153.5946 H   0  0  0  0  0  0  0  0  0  0  0  0  # atno 10764 bound_to 10752
  153.4364  135.3866  155.2169 H   0  0  0  0  0  0  0  0  0  0  0  0  # atno 10765 bound_to 10752
  140.4588  134.6274  157.4834 H   0  0  0  0  0  0  0  0  0  0  0  0  # atno 11005 bound_to 11000
  144.8596  139.5197  143.6818 LP  0  0  0  0  0  0  0  0  0  0  0  0  # atno 17320 bound_to 7965
  146.2897  139.7104  142.9170 LP  0  0  0  0  0  0  0  0  0  0  0  0  # atno 17321 bound_to 7965
  139.9157  144.6830  150.8515 LP  0  0  0  0  0  0  0  0  0  0  0  0  # atno 17342 bound_to 10162
  140.7699  143.3411  151.2206 LP  0  0  0  0  0  0  0  0  0  0  0  0  # atno 17343 bound_to 10162
  157.0142  130.5648  149.5324 LP  0  0  0  0  0  0  0  0  0  0  0  0  # atno 17370 bound_to 10713
  156.0213  130.5308  150.8284 LP  0  0  0  0  0  0  0  0  0  0  0  0  # atno 17371 bound_to 10713
  139.9959  134.6913  155.9611 LP  0  0  0  0  0  0  0  0  0  0  0  0  # atno 17394 bound_to 11000
  141.1631  133.6538  156.4385 LP  0  0  0  0  0  0  0  0  0  0  0  0  # atno 17395 bound_to 11000

$$$$
