AV-unprocessed.smi:271|AV-procd|sdf|2052|dock3
  -GOLD-   2262021293D 1   1.00000     0.00000
 Structure written by MMmdl.
 58 60  0  0  0  0  0  0  0  0  1 V2000
  152.0393  144.0942  161.5993 C   0  0  0  0  0  0  0  0  0  0  0  0
  152.4948  144.2039  160.1343 C   0  0  0  0  0  0  0  0  0  0  0  0
  151.8127  145.3981  159.4495 C   0  0  0  0  0  0  0  0  0  0  0  0
  152.2414  142.9051  159.3439 C   0  0  0  0  0  0  0  0  0  0  0  0
  152.5199  141.6225  160.1531 C   0  0  0  0  0  0  0  0  0  0  0  0
  152.9083  140.4887  159.3149 N   0  0  0  0  0  0  0  0  0  0  0  0
  153.9480  139.6022  159.8408 C   0  0  0  0  0  0  0  0  0  0  0  0
  154.7955  140.2616  160.9399 C   0  0  0  0  0  0  0  0  0  0  0  0
  155.0064  139.3723  162.0914 C   0  0  0  0  0  0  0  0  0  0  0  0
  155.1730  138.6727  162.9978 N   0  0  0  0  0  0  0  0  0  0  0  0
  151.8866  139.9356  158.6097 C   0  0  0  0  0  0  0  0  0  0  0  0
  151.4451  138.6880  158.9241 N   0  0  0  0  0  0  0  0  0  0  0  0
  150.4283  138.1412  158.2519 C   0  0  0  0  0  0  0  0  0  0  0  0
  149.7194  138.6578  157.2469 N   0  0  0  0  0  0  0  0  0  0  0  0
  150.1553  139.9092  156.9260 C   0  0  0  0  0  0  0  0  0  0  0  0
  151.2221  140.6162  157.5501 C   0  0  0  0  0  0  0  0  0  0  0  0
  151.3814  141.8582  156.9462 N   0  0  0  0  0  0  0  0  0  0  0  0
  150.4567  141.8875  156.0258 C   0  0  0  0  0  0  0  0  0  0  0  0
  149.6704  140.7609  155.9489 N   0  0  0  0  0  0  0  0  0  0  0  0
  148.5781  140.5307  155.0187 C   0  0  0  0  0  0  0  0  0  0  0  0
  147.5540  141.6915  154.9760 C   0  0  1  0  0  0  0  0  0  0  0  0
  146.8053  141.7020  153.6221 C   0  0  0  0  0  0  0  0  0  0  0  0
  146.2358  140.4364  153.3583 O   0  0  0  0  0  0  0  0  0  0  0  0
  146.6055  141.6974  156.2079 C   0  0  1  0  0  0  0  0  0  0  0  0
  147.2982  141.7743  157.5700 C   0  0  0  0  0  0  0  0  0  0  0  0
  146.5794  142.9127  158.2937 C   0  0  0  0  0  0  0  0  0  0  0  0
  145.3231  142.9958  157.6415 O   0  0  0  0  0  0  0  0  0  0  0  0
  145.5769  142.8356  156.2558 C   0  0  0  0  0  0  0  0  0  0  0  0
  150.9748  143.8682  161.6670 H   0  0  0  0  0  0  0  0  0  0  0  0
  152.2139  145.0282  162.1341 H   0  0  0  0  0  0  0  0  0  0  0  0
  152.5808  143.3140  162.1334 H   0  0  0  0  0  0  0  0  0  0  0  0
  153.5680  144.3994  160.1294 H   0  0  0  0  0  0  0  0  0  0  0  0
  150.7316  145.2630  159.4017 H   0  0  0  0  0  0  0  0  0  0  0  0
  152.1772  145.5282  158.4303 H   0  0  0  0  0  0  0  0  0  0  0  0
  152.0090  146.3265  159.9869 H   0  0  0  0  0  0  0  0  0  0  0  0
  151.2159  142.8998  158.9727 H   0  0  0  0  0  0  0  0  0  0  0  0
  152.8812  142.9042  158.4606 H   0  0  0  0  0  0  0  0  0  0  0  0
  153.2833  141.8197  160.9047 H   0  0  0  0  0  0  0  0  0  0  0  0
  151.6293  141.3325  160.7098 H   0  0  0  0  0  0  0  0  0  0  0  0
  153.4730  138.7102  160.2506 H   0  0  0  0  0  0  0  0  0  0  0  0
  154.5887  139.2573  159.0281 H   0  0  0  0  0  0  0  0  0  0  0  0
  155.7775  140.5535  160.5692 H   0  0  0  0  0  0  0  0  0  0  0  0
  154.3063  141.1651  161.3042 H   0  0  0  0  0  0  0  0  0  0  0  0
  150.1405  137.1485  158.5656 H   0  0  0  0  0  0  0  0  0  0  0  0
  150.3187  142.7386  155.3746 H   0  0  0  0  0  0  0  0  0  0  0  0
  149.0160  140.3724  154.0327 H   0  0  0  0  0  0  0  0  0  0  0  0
  148.0794  139.5981  155.2845 H   0  0  0  0  0  0  0  0  0  0  0  0
  148.1209  142.6223  155.0329 H   0  0  0  0  0  0  0  0  0  0  0  0
  146.0114  142.4491  153.6163 H   0  0  0  0  0  0  0  0  0  0  0  0
  147.4720  141.9412  152.7949 H   0  0  0  0  0  0  0  0  0  0  0  0
  145.3080  140.5476  153.2159 H   0  0  0  0  0  0  0  0  0  0  0  0
  146.0449  140.7623  156.2221 H   0  0  0  0  0  0  0  0  0  0  0  0
  147.1554  140.8365  158.1086 H   0  0  0  0  0  0  0  0  0  0  0  0
  148.3724  141.9485  157.5141 H   0  0  0  0  0  0  0  0  0  0  0  0
  146.4673  142.7293  159.3625 H   0  0  0  0  0  0  0  0  0  0  0  0
  147.1167  143.8533  158.1625 H   0  0  0  0  0  0  0  0  0  0  0  0
  145.9725  143.7721  155.8631 H   0  0  0  0  0  0  0  0  0  0  0  0
  144.6636  142.5994  155.7104 H   0  0  0  0  0  0  0  0  0  0  0  0
  1  2  1  0  0  0  0
  1 29  1  0  0  0  0
  1 30  1  0  0  0  0
  1 31  1  0  0  0  0
  2  3  1  0  0  0  0
  2  4  1  0  0  0  0
  2 32  1  0  0  0  0
  3 33  1  0  0  0  0
  3 34  1  0  0  0  0
  3 35  1  0  0  0  0
  4  5  1  0  0  0  0
  4 36  1  0  0  0  0
  4 37  1  0  0  0  0
  5  6  1  0  0  0  0
  5 38  1  0  0  0  0
  5 39  1  0  0  0  0
  6  7  1  0  0  0  0
  6 11  1  0  0  0  0
  7  8  1  0  0  0  0
  7 40  1  0  0  0  0
  7 41  1  0  0  0  0
  8  9  1  0  0  0  0
  8 42  1  0  0  0  0
  8 43  1  0  0  0  0
  9 10  3  0  0  0  0
 11 16  1  0  0  0  0
 11 12  2  0  0  0  0
 12 13  1  0  0  0  0
 13 14  2  0  0  0  0
 13 44  1  0  0  0  0
 14 15  1  0  0  0  0
 15 19  1  0  0  0  0
 15 16  2  0  0  0  0
 16 17  1  0  0  0  0
 17 18  2  0  0  0  0
 18 19  1  0  0  0  0
 18 45  1  0  0  0  0
 19 20  1  0  0  0  0
 20 21  1  0  0  0  0
 20 46  1  0  0  0  0
 20 47  1  0  0  0  0
 21 22  1  0  0  0  0
 21 24  1  0  0  0  0
 21 48  1  0  0  0  0
 22 23  1  0  0  0  0
 22 49  1  0  0  0  0
 22 50  1  0  0  0  0
 23 51  1  0  0  0  0
 24 28  1  0  0  0  0
 24 25  1  0  0  0  0
 24 52  1  0  0  0  0
 25 26  1  0  0  0  0
 25 53  1  0  0  0  0
 25 54  1  0  0  0  0
 26 27  1  0  0  0  0
 26 55  1  0  0  0  0
 26 56  1  0  0  0  0
 27 28  1  0  0  0  0
 28 57  1  0  0  0  0
 28 58  1  0  0  0  0
M  END
> <s_m_source_file>
AV-unprocessed.smi

> <i_m_source_file_index>
271

> <i_lp_mmshare_version>
43012

> <i_f3d_flags>
0

> <s_epik_input>
W0NIM11bQ0hdKFtDSDNdKVtDSDJdW0NIMl1OKFtDSDJdW0NIMl1DI04pYyhuW2NIXW4xKWMoYzEyKW5bY0hdbjJbQ0gyXVtDQEhdKFtDSDJdW09IXSlbQ0BASF0zW0NIMl1bQ0gyXU9bQ0gyXTM=

> <s_epik_cmdline>
J2VwaWtfcHl0aG9uJywgJy1waCcsICc3LjAnLCAnLXRuJywgJzgnLCAnLW1hJywgJzIwMCcsICctbWV0YWxfYmluZGluZycsICctaW1hZScsICc8aW5maWxlLm1hZT4nLCAnLW9tYWUnLCAnPG91dGZpbGUubWFlPic=

> <r_lp_tautomer_probability>
1

> <r_epik_Ionization_Penalty>
0.000825874

> <r_epik_Ionization_Penalty_Charging>
0

> <r_epik_Ionization_Penalty_Neutral>
0.000825874

> <r_epik_State_Penalty>
0.000396768

> <r_epik_Charging_Adjusted_Penalty>
0.000396768

> <i_epik_Tot_Q>
0

> <i_epik_Tot_abs_Q>
0

> <r_epik_Metal_State_Penalty>
-0

> <b_epik_Metal_Only>
0

> <s_lp_Force_Field>
OPLS_2005

> <r_lp_Energy>
37.4576

> <b_lp_Chiralities_Consistent>
1

> <s_lp_Variant>
AV-unprocessed.smi:271-4

> <Gold.Version>
5.8.1

> <Gold.Id.Protein>
6NUR|6NUR_protein|mol2

> <Gold.PLP.Fitness>
49.5393

> <Gold.PLP.PLP>
-46.2031

> <Gold.PLP.part.hbond>
-1.0000

> <Gold.PLP.part.metal>
0.0000

> <Gold.PLP.part.buried>
-7.3525

> <Gold.PLP.part.nonpolar>
-38.7035

> <Gold.PLP.part.repulsive>
0.1440

> <Gold.PLP.ligand.clash>
0.0000

> <Gold.PLP.ligand.torsion>
2.1203

> <Gold.PLP.Chemscore.Hbond>
1.0000

> <Gold.PLP.Chemscore.CHOScore>
0.9983

> <Gold.PLP.Chemscore.Metal>
0.0000

> <Gold.Chemscore.Hbonds>
donor molecule, donor type, donor heavy atom, donor atom, acceptor molecule, acceptor atom, score
      L1  H    23    51       P1 10175  1.00
      L1  C    18    45       P1  8028  1.00

> <Gold.PLP.Chemscore.Internal.Correction>
1.5819

> <Gold.Rescore>
     Score         DG    S(hbond)    S(metal)    S(lipo)     H(rot)  DE(clash)    DE(int)     intcor
      7.52     -11.10       0.99        0.00     102.25       3.77       0.01       3.58       ----

> <Gold.Chemscore.Fitness>
7.5172

> <Gold.Chemscore.DG>
-11.0998

> <Gold.Chemscore.ZeroCoef>
-5.4800

> <Gold.Chemscore.Hbond>
0.9889

> <Gold.Chemscore.Metal>
0.0000

> <Gold.Chemscore.Lipo>
102.2541

> <Gold.Chemscore.Internal_Hbond>
0.0000

> <Gold.Chemscore.DEClash>
0.0059

> <Gold.Chemscore.DEInternal>
3.5767

> <Gold.Chemscore.Rot>
3.7683

> <Gold.Chemscore.Internal.Correction>
   9.000000E+99

> <Gold.Chemscore.Hbonds>
donor molecule, donor type, donor heavy atom, donor atom, acceptor molecule, acceptor atom, score
      L1  H    23    51       P1 10175  0.92

> <Gold.Chemscore.Hbond.Weighted>
-3.3028

> <Gold.Chemscore.Metal.Weighted>
-0.0000

> <Gold.Chemscore.Lipo.Weighted>
-11.9637

> <Gold.Chemscore.Internal_Hbond.Weighted>
0.0000

> <Gold.Chemscore.DEClash.Weighted>
0.0059

> <Gold.Chemscore.DEInternal.Weighted>
3.5767

> <Gold.Chemscore.Rot.Weighted>
9.6468

> <Gold.Chemscore.Internal.Correction.Weighted>
   9.000000E+99

> <Gold.Protein.RotatedTorsions>
[ 6907 6896 6895 6894 ] final  -54.38 input  -60.11 | X-H torsion
[ 7974 7965 7964 7962 ] final   80.96 input  175.53 | X-H torsion
[ 8008 7997 7996 7995 ] final  -80.55 input   59.86 | X-H torsion
[ 10167 10162 10161 10158 ] final  -80.81 input  -65.29 | X-H torsion
[ 10718 10713 10712 10709 ] final -118.69 input   66.30 | X-H torsion
[ 10763 10752 10751 10750 ] final   77.41 input  -60.55 | X-H torsion
[ 11005 11000 10999 10996 ] final -174.93 input  -57.11 | X-H torsion

> <Gold.Protein.ActiveResidues>
 VAL166  LYS551  ARG553  GLY616  TRP617  ASP618  TYR619  PRO620  LYS621  CYS622 
 ASP623  PHE694  ASN695  SER759  ASP760  ASP761  ALA762  ILE779  LEU786  VAL792 
 PHE793  MET794  SER795  GLU796  ALA797  LYS798  CYS799  TRP800  GLU811  SER814 

> <Gold.Protein.RotatedAtoms>
  150.8343  134.7609  159.6879 H   0  0  0  0  0  0  0  0  0  0  0  0  # atno 6907 bound_to 6896
  152.4442  134.5525  159.9881 H   0  0  0  0  0  0  0  0  0  0  0  0  # atno 6908 bound_to 6896
  151.5679  133.3356  159.3019 H   0  0  0  0  0  0  0  0  0  0  0  0  # atno 6909 bound_to 6896
  145.6445  139.2433  143.2012 H   0  0  0  0  0  0  0  0  0  0  0  0  # atno 7974 bound_to 7965
  154.5894  140.0661  156.9218 H   0  0  0  0  0  0  0  0  0  0  0  0  # atno 8008 bound_to 7997
  155.2321  140.3338  155.4284 H   0  0  0  0  0  0  0  0  0  0  0  0  # atno 8009 bound_to 7997
  156.2246  140.1813  156.7380 H   0  0  0  0  0  0  0  0  0  0  0  0  # atno 8010 bound_to 7997
  140.4469  143.2496  151.8545 H   0  0  0  0  0  0  0  0  0  0  0  0  # atno 10167 bound_to 10162
  156.1125  130.6260  150.9323 H   0  0  0  0  0  0  0  0  0  0  0  0  # atno 10718 bound_to 10713
  153.0797  135.4915  154.8477 H   0  0  0  0  0  0  0  0  0  0  0  0  # atno 10763 bound_to 10752
  154.7134  135.3024  154.9164 H   0  0  0  0  0  0  0  0  0  0  0  0  # atno 10764 bound_to 10752
  153.9851  135.6785  153.4804 H   0  0  0  0  0  0  0  0  0  0  0  0  # atno 10765 bound_to 10752
  140.4690  134.6183  157.4874 H   0  0  0  0  0  0  0  0  0  0  0  0  # atno 11005 bound_to 11000
  146.1254  140.7255  142.9437 LP  0  0  0  0  0  0  0  0  0  0  0  0  # atno 17320 bound_to 7965
  144.7145  140.4161  143.7055 LP  0  0  0  0  0  0  0  0  0  0  0  0  # atno 17321 bound_to 7965
  139.4793  144.5165  151.8861 LP  0  0  0  0  0  0  0  0  0  0  0  0  # atno 17342 bound_to 10162
  140.4253  144.2189  150.5887 LP  0  0  0  0  0  0  0  0  0  0  0  0  # atno 17343 bound_to 10162
  157.6307  131.0921  150.8447 LP  0  0  0  0  0  0  0  0  0  0  0  0  # atno 17370 bound_to 10713
  156.8555  130.5095  149.5308 LP  0  0  0  0  0  0  0  0  0  0  0  0  # atno 17371 bound_to 10713
  139.9897  134.7005  155.9711 LP  0  0  0  0  0  0  0  0  0  0  0  0  # atno 17394 bound_to 11000
  141.1586  133.6540  156.4242 LP  0  0  0  0  0  0  0  0  0  0  0  0  # atno 17395 bound_to 11000

$$$$
