AV-unprocessed.smi:772|AV-procd|sdf|3687|dock5
  -GOLD-   22720 1103D 1   1.00000     0.00000
 Structure written by MMmdl.
 47 48  0  0  0  0  0  0  0  0  2 V2000
  152.0942  145.5706  157.3240 C   0  0  0  0  0  0  0  0  0  0  0  0
  151.9954  144.1271  157.7690 C   0  0  0  0  0  0  0  0  0  0  0  0
  152.8547  143.5778  158.7442 C   0  0  0  0  0  0  0  0  0  0  0  0
  152.7122  142.2210  159.1012 C   0  0  0  0  0  0  0  0  0  0  0  0
  151.7152  141.4408  158.4761 C   0  0  0  0  0  0  0  0  0  0  0  0
  151.5669  139.9677  158.8139 C   0  0  0  0  0  0  0  0  0  0  0  0
  151.2335  139.0869  157.5940 C   0  0  0  0  0  0  0  0  0  0  0  0
  150.1015  138.1967  157.8411 N   0  0  0  0  0  0  0  0  0  0  0  0
  149.9919  137.3228  158.8577 C   0  0  0  0  0  0  0  0  0  0  0  0
  150.8767  137.1877  159.7042 O   0  0  0  0  0  0  0  0  0  0  0  0
  148.8603  136.5740  158.8426 N   0  0  0  0  0  0  0  0  0  0  0  0
  147.7221  136.7487  157.9264 C   0  0  0  0  0  0  0  0  0  0  0  0
  146.6474  137.5964  158.6235 C   0  0  0  0  0  0  0  0  0  0  0  0
  146.0092  136.7488  160.1013 S   0  0  0  0  0  0  0  0  0  0  0  0
  147.5792  136.3126  160.9306 C   0  0  1  0  0  0  0  0  0  0  0  0
  147.3533  135.4706  162.2118 C   0  0  0  0  0  0  0  0  0  0  0  0
  146.4112  134.2683  162.0122 C   0  0  0  0  0  0  0  0  0  0  0  0
  146.8920  136.3372  163.3959 C   0  0  0  0  0  0  0  0  0  0  0  0
  148.5434  135.6383  159.9287 C   0  0  0  0  0  0  0  0  0  0  0  0
  150.8793  142.0468  157.5134 C   0  0  0  0  0  0  0  0  0  0  0  0
  151.0489  143.3490  157.1978 N   0  3  0  0  0  0  0  0  0  0  0  0
  152.7947  146.1269  157.9475 H   0  0  0  0  0  0  0  0  0  0  0  0
  151.1211  146.0581  157.3886 H   0  0  0  0  0  0  0  0  0  0  0  0
  152.4396  145.6242  156.2912 H   0  0  0  0  0  0  0  0  0  0  0  0
  153.6188  144.1833  159.2097 H   0  0  0  0  0  0  0  0  0  0  0  0
  153.3700  141.7820  159.8372 H   0  0  0  0  0  0  0  0  0  0  0  0
  152.4948  139.6214  159.2707 H   0  0  0  0  0  0  0  0  0  0  0  0
  150.7940  139.8500  159.5749 H   0  0  0  0  0  0  0  0  0  0  0  0
  151.0495  139.7085  156.7162 H   0  0  0  0  0  0  0  0  0  0  0  0
  152.0967  138.4680  157.3485 H   0  0  0  0  0  0  0  0  0  0  0  0
  149.3377  138.2449  157.1826 H   0  0  0  0  0  0  0  0  0  0  0  0
  147.9999  137.2078  156.9776 H   0  0  0  0  0  0  0  0  0  0  0  0
  147.3099  135.7757  157.6556 H   0  0  0  0  0  0  0  0  0  0  0  0
  147.0540  138.5655  158.9146 H   0  0  0  0  0  0  0  0  0  0  0  0
  145.8154  137.7888  157.9461 H   0  0  0  0  0  0  0  0  0  0  0  0
  148.0361  137.2543  161.2385 H   0  0  0  0  0  0  0  0  0  0  0  0
  148.3243  135.0633  162.4964 H   0  0  0  0  0  0  0  0  0  0  0  0
  145.4045  134.5827  161.7371 H   0  0  0  0  0  0  0  0  0  0  0  0
  146.3290  133.6847  162.9296 H   0  0  0  0  0  0  0  0  0  0  0  0
  146.7747  133.5939  161.2377 H   0  0  0  0  0  0  0  0  0  0  0  0
  145.9041  136.7645  163.2233 H   0  0  0  0  0  0  0  0  0  0  0  0
  147.5844  137.1600  163.5760 H   0  0  0  0  0  0  0  0  0  0  0  0
  146.8389  135.7494  164.3128 H   0  0  0  0  0  0  0  0  0  0  0  0
  148.0973  134.7349  159.5122 H   0  0  0  0  0  0  0  0  0  0  0  0
  149.4461  135.3017  160.4410 H   0  0  0  0  0  0  0  0  0  0  0  0
  150.0963  141.5299  156.9779 H   0  0  0  0  0  0  0  0  0  0  0  0
  150.4379  143.7633  156.4935 H   0  0  0  0  0  0  0  0  0  0  0  0
  1  2  1  0  0  0  0
  1 22  1  0  0  0  0
  1 23  1  0  0  0  0
  1 24  1  0  0  0  0
  2 21  1  0  0  0  0
  2  3  2  0  0  0  0
  3  4  1  0  0  0  0
  3 25  1  0  0  0  0
  4  5  2  0  0  0  0
  4 26  1  0  0  0  0
  5  6  1  0  0  0  0
  5 20  1  0  0  0  0
  6  7  1  0  0  0  0
  6 27  1  0  0  0  0
  6 28  1  0  0  0  0
  7  8  1  0  0  0  0
  7 29  1  0  0  0  0
  7 30  1  0  0  0  0
  8  9  1  0  0  0  0
  8 31  1  0  0  0  0
  9 10  2  0  0  0  0
  9 11  1  0  0  0  0
 11 19  1  0  0  0  0
 11 12  1  0  0  0  0
 12 13  1  0  0  0  0
 12 32  1  0  0  0  0
 12 33  1  0  0  0  0
 13 14  1  0  0  0  0
 13 34  1  0  0  0  0
 13 35  1  0  0  0  0
 14 15  1  0  0  0  0
 15 16  1  0  0  0  0
 15 19  1  0  0  0  0
 15 36  1  0  0  0  0
 16 17  1  0  0  0  0
 16 18  1  0  0  0  0
 16 37  1  0  0  0  0
 17 38  1  0  0  0  0
 17 39  1  0  0  0  0
 17 40  1  0  0  0  0
 18 41  1  0  0  0  0
 18 42  1  0  0  0  0
 18 43  1  0  0  0  0
 19 44  1  0  0  0  0
 19 45  1  0  0  0  0
 20 21  2  0  0  0  0
 20 46  1  0  0  0  0
 21 47  1  0  0  0  0
M  CHG  1  21   1
M  END
> <s_m_source_file>
AV-unprocessed.smi

> <i_m_source_file_index>
772

> <i_lp_mmshare_version>
43012

> <i_f3d_flags>
0

> <s_epik_input>
W0NIM11jMVtjSF1bY0hdYyhbY0hdbjEpW0NIMl1bQ0gyXVtOSF1DKD1PKU4yW0NIMl1bQ0gyXVNbQ0BIXShbQ0gyXTIpW0NIXShbQ0gzXSlbQ0gzXQ==

> <s_epik_cmdline>
J2VwaWtfcHl0aG9uJywgJy1waCcsICc3LjAnLCAnLXRuJywgJzgnLCAnLW1hJywgJzIwMCcsICctbWV0YWxfYmluZGluZycsICctaW1hZScsICc8aW5maWxlLm1hZT4nLCAnLW9tYWUnLCAnPG91dGZpbGUubWFlPic=

> <r_epik_Ionization_Penalty>
1.41908

> <r_epik_Ionization_Penalty_Charging>
1.41903

> <r_epik_Ionization_Penalty_Neutral>
4.72921e-05

> <r_epik_State_Penalty>
1.50265

> <r_epik_Charging_Adjusted_Penalty>
2.92168

> <i_epik_Tot_Q>
1

> <i_epik_Tot_abs_Q>
1

> <r_epik_Metal_State_Penalty>
1.55496

> <b_epik_Metal_Only>
0

> <s_lp_Force_Field>
OPLS_2005

> <r_lp_Energy>
32.521

> <b_lp_Chiralities_Consistent>
1

> <s_lp_Variant>
AV-unprocessed.smi:772-3

> <Gold.Version>
5.8.1

> <Gold.Id.Protein>
6NUR|6NUR_protein|mol2

> <Gold.PLP.Fitness>
43.7396

> <Gold.PLP.PLP>
-36.6245

> <Gold.PLP.part.hbond>
-1.9391

> <Gold.PLP.part.metal>
0.0000

> <Gold.PLP.part.buried>
-5.6311

> <Gold.PLP.part.nonpolar>
-29.3727

> <Gold.PLP.part.repulsive>
0.0719

> <Gold.PLP.ligand.clash>
0.0000

> <Gold.PLP.ligand.torsion>
0.9777

> <Gold.PLP.Chemscore.Hbond>
2.9913

> <Gold.PLP.Chemscore.CHOScore>
0.0000

> <Gold.PLP.Chemscore.Metal>
0.0000

> <Gold.Chemscore.Hbonds>
donor molecule, donor type, donor heavy atom, donor atom, acceptor molecule, acceptor atom, score
      L1  H    21    47       P1  8028  2.00
      P1  H  6896  6908       L1    10  0.84

> <Gold.PLP.Chemscore.Internal.Correction>
0.0967

> <Gold.Rescore>
     Score         DG    S(hbond)    S(metal)    S(lipo)     H(rot)  DE(clash)    DE(int)     intcor
     18.74     -21.90       1.90        0.00     116.59       1.39       2.12       1.04       ----

> <Gold.Chemscore.Fitness>
18.7401

> <Gold.Chemscore.DG>
-21.9026

> <Gold.Chemscore.ZeroCoef>
-5.4800

> <Gold.Chemscore.Hbond>
1.9018

> <Gold.Chemscore.Metal>
0.0000

> <Gold.Chemscore.Lipo>
116.5935

> <Gold.Chemscore.Internal_Hbond>
0.0000

> <Gold.Chemscore.DEClash>
2.1217

> <Gold.Chemscore.DEInternal>
1.0408

> <Gold.Chemscore.Rot>
1.3949

> <Gold.Chemscore.Internal.Correction>
   9.000000E+99

> <Gold.Chemscore.Hbonds>
donor molecule, donor type, donor heavy atom, donor atom, acceptor molecule, acceptor atom, score
      L1  H    21    47       P1  8028  0.96
      P1  H  6896  6908       L1    10  0.58

> <Gold.Chemscore.Hbond.Weighted>
-6.3521

> <Gold.Chemscore.Metal.Weighted>
-0.0000

> <Gold.Chemscore.Lipo.Weighted>
-13.6414

> <Gold.Chemscore.Internal_Hbond.Weighted>
0.0000

> <Gold.Chemscore.DEClash.Weighted>
2.1217

> <Gold.Chemscore.DEInternal.Weighted>
1.0408

> <Gold.Chemscore.Rot.Weighted>
3.5709

> <Gold.Chemscore.Internal.Correction.Weighted>
   9.000000E+99

> <Gold.Protein.RotatedTorsions>
[ 6907 6896 6895 6894 ] final -136.46 input  -60.11 | X-H torsion
[ 7974 7965 7964 7962 ] final   48.18 input  175.53 | X-H torsion
[ 8008 7997 7996 7995 ] final  -21.08 input   59.86 | X-H torsion
[ 10167 10162 10161 10158 ] final   -0.78 input  -65.29 | X-H torsion
[ 10718 10713 10712 10709 ] final  131.34 input   66.30 | X-H torsion
[ 10763 10752 10751 10750 ] final -156.67 input  -60.55 | X-H torsion
[ 11005 11000 10999 10996 ] final  149.58 input  -57.11 | X-H torsion

> <Gold.Protein.ActiveResidues>
 VAL166  LYS551  ARG553  GLY616  TRP617  ASP618  TYR619  PRO620  LYS621  CYS622 
 ASP623  PHE694  ASN695  SER759  ASP760  ASP761  ALA762  ILE779  LEU786  VAL792 
 PHE793  MET794  SER795  GLU796  ALA797  LYS798  CYS799  TRP800  GLU811  SER814 

> <Gold.Protein.RotatedAtoms>
  151.0103  133.5971  159.2683 H   0  0  0  0  0  0  0  0  0  0  0  0  # atno 6907 bound_to 6896
  151.3126  135.0797  159.9287 H   0  0  0  0  0  0  0  0  0  0  0  0  # atno 6908 bound_to 6896
  152.5298  133.9765  159.7840 H   0  0  0  0  0  0  0  0  0  0  0  0  # atno 6909 bound_to 6896
  146.0229  139.4672  142.9886 H   0  0  0  0  0  0  0  0  0  0  0  0  # atno 7974 bound_to 7965
  154.4728  140.2044  155.9951 H   0  0  0  0  0  0  0  0  0  0  0  0  # atno 8008 bound_to 7997
  156.1040  140.3239  155.7951 H   0  0  0  0  0  0  0  0  0  0  0  0  # atno 8009 bound_to 7997
  155.4749  140.0534  157.2965 H   0  0  0  0  0  0  0  0  0  0  0  0  # atno 8010 bound_to 7997
  140.6782  143.6854  150.8071 H   0  0  0  0  0  0  0  0  0  0  0  0  # atno 10167 bound_to 10162
  157.4977  131.1093  150.9470 H   0  0  0  0  0  0  0  0  0  0  0  0  # atno 10718 bound_to 10713
  154.7695  135.3141  154.8218 H   0  0  0  0  0  0  0  0  0  0  0  0  # atno 10763 bound_to 10752
  153.8958  135.6821  153.4762 H   0  0  0  0  0  0  0  0  0  0  0  0  # atno 10764 bound_to 10752
  153.1306  135.4782  154.9277 H   0  0  0  0  0  0  0  0  0  0  0  0  # atno 10765 bound_to 10752
  140.1057  134.8955  157.1863 H   0  0  0  0  0  0  0  0  0  0  0  0  # atno 11005 bound_to 11000
  145.7165  141.0089  143.1425 LP  0  0  0  0  0  0  0  0  0  0  0  0  # atno 17320 bound_to 7965
  144.6997  139.8819  143.7447 LP  0  0  0  0  0  0  0  0  0  0  0  0  # atno 17321 bound_to 7965
  140.0550  143.5211  152.2655 LP  0  0  0  0  0  0  0  0  0  0  0  0  # atno 17342 bound_to 10162
  139.6087  144.7603  151.3002 LP  0  0  0  0  0  0  0  0  0  0  0  0  # atno 17343 bound_to 10162
  157.0151  130.5652  149.5325 LP  0  0  0  0  0  0  0  0  0  0  0  0  # atno 17370 bound_to 10713
  156.0210  130.5305  150.8275 LP  0  0  0  0  0  0  0  0  0  0  0  0  # atno 17371 bound_to 10713
  140.3159  134.2971  155.7256 LP  0  0  0  0  0  0  0  0  0  0  0  0  # atno 17394 bound_to 11000
  141.2117  133.7679  156.9842 LP  0  0  0  0  0  0  0  0  0  0  0  0  # atno 17395 bound_to 11000

$$$$
