AV-unprocessed.smi:138|AV-procd|sdf|1179|dock8
  -GOLD-   2262018333D 1   1.00000     0.00000
 Structure written by MMmdl.
 52 55  0  0  0  0  0  0  0  0  1 V2000
  146.7315  141.2760  153.8387 C   0  0  0  0  0  0  0  0  0  0  0  0
  147.6486  140.1942  154.3132 C   0  0  0  0  0  0  0  0  0  0  0  0
  148.9854  140.2473  154.5765 C   0  0  0  0  0  0  0  0  0  0  0  0
  149.4136  138.9620  155.0103 C   0  0  0  0  0  0  0  0  0  0  0  0
  150.7717  138.5346  155.4319 C   0  0  0  0  0  0  0  0  0  0  0  0
  151.0777  137.3569  155.6264 O   0  0  0  0  0  0  0  0  0  0  0  0
  151.8011  139.6643  155.6236 C   0  0  0  0  0  0  0  0  0  0  0  0
  151.9017  140.1150  157.0065 N   0  0  0  0  0  0  0  0  0  0  0  0
  152.5904  139.2845  157.9257 C   0  0  0  0  0  0  0  0  0  0  0  0
  153.0918  138.2101  157.5896 O   0  0  0  0  0  0  0  0  0  0  0  0
  152.6638  139.8138  159.2832 C   0  0  0  0  0  0  0  0  0  0  0  0
  153.2854  139.1041  160.2401 F   0  0  0  0  0  0  0  0  0  0  0  0
  152.1183  141.0086  159.5975 C   0  0  0  0  0  0  0  0  0  0  0  0
  151.4628  141.8062  158.6738 N   0  0  0  0  0  0  0  0  0  0  0  0
  150.8765  143.1500  159.0464 C   0  0  2  0  0  0  0  0  0  0  0  0
  151.6217  144.2831  158.3189 C   0  0  0  0  0  0  0  0  0  0  0  0
  151.9218  145.2551  159.4416 C   0  0  0  0  0  0  0  0  0  0  0  0
  152.0617  144.3213  160.6344 C   0  0  0  0  0  0  0  0  0  0  0  0
  151.0262  143.3704  160.4203 O   0  0  0  0  0  0  0  0  0  0  0  0
  151.3399  141.3717  157.3362 C   0  0  0  0  0  0  0  0  0  0  0  0
  150.7753  142.0747  156.4944 O   0  0  0  0  0  0  0  0  0  0  0  0
  148.3150  138.1337  154.9856 C   0  0  0  0  0  0  0  0  0  0  0  0
  148.1875  136.6740  155.3253 C   0  0  0  0  0  0  0  0  0  0  0  0
  147.2205  138.8969  154.5720 N   0  0  0  0  0  0  0  0  0  0  0  0
  145.8475  138.4227  154.4250 C   0  0  0  0  0  0  0  0  0  0  0  0
  145.7194  137.3333  153.4100 C   0  0  0  0  0  0  0  0  0  0  0  0
  145.9895  137.2577  152.0713 C   0  0  0  0  0  0  0  0  0  0  0  0
  145.6557  135.9356  151.6678 C   0  0  0  0  0  0  0  0  0  0  0  0
  145.2074  135.3016  152.7911 C   0  0  0  0  0  0  0  0  0  0  0  0
  145.2414  136.1394  153.8625 O   0  0  0  0  0  0  0  0  0  0  0  0
  147.2896  142.1836  153.6080 H   0  0  0  0  0  0  0  0  0  0  0  0
  145.9950  141.5257  154.6026 H   0  0  0  0  0  0  0  0  0  0  0  0
  146.2009  140.9758  152.9353 H   0  0  0  0  0  0  0  0  0  0  0  0
  149.5950  141.1328  154.4732 H   0  0  0  0  0  0  0  0  0  0  0  0
  152.7930  139.3480  155.2972 H   0  0  0  0  0  0  0  0  0  0  0  0
  151.5546  140.5282  155.0048 H   0  0  0  0  0  0  0  0  0  0  0  0
  152.2098  141.3388  160.6204 H   0  0  0  0  0  0  0  0  0  0  0  0
  149.8127  143.0900  158.8097 H   0  0  0  0  0  0  0  0  0  0  0  0
  152.5497  143.9063  157.8854 H   0  0  0  0  0  0  0  0  0  0  0  0
  151.0074  144.7115  157.5265 H   0  0  0  0  0  0  0  0  0  0  0  0
  152.8143  145.8550  159.2616 H   0  0  0  0  0  0  0  0  0  0  0  0
  151.0777  145.9295  159.5909 H   0  0  0  0  0  0  0  0  0  0  0  0
  153.0340  143.8270  160.6270 H   0  0  0  0  0  0  0  0  0  0  0  0
  151.9431  144.8346  161.5888 H   0  0  0  0  0  0  0  0  0  0  0  0
  148.9643  136.0940  154.8270 H   0  0  0  0  0  0  0  0  0  0  0  0
  147.2374  136.2420  155.0196 H   0  0  0  0  0  0  0  0  0  0  0  0
  148.2919  136.5209  156.3994 H   0  0  0  0  0  0  0  0  0  0  0  0
  145.4823  138.0851  155.3948 H   0  0  0  0  0  0  0  0  0  0  0  0
  145.2000  139.2554  154.1524 H   0  0  0  0  0  0  0  0  0  0  0  0
  146.3782  138.0567  151.4578 H   0  0  0  0  0  0  0  0  0  0  0  0
  145.7334  135.5033  150.6811 H   0  0  0  0  0  0  0  0  0  0  0  0
  144.8443  134.3053  152.9959 H   0  0  0  0  0  0  0  0  0  0  0  0
  1  2  1  0  0  0  0
  1 31  1  0  0  0  0
  1 32  1  0  0  0  0
  1 33  1  0  0  0  0
  2 24  1  0  0  0  0
  2  3  2  0  0  0  0
  3  4  1  0  0  0  0
  3 34  1  0  0  0  0
  4  5  1  0  0  0  0
  4 22  2  0  0  0  0
  5  6  2  0  0  0  0
  5  7  1  0  0  0  0
  7  8  1  0  0  0  0
  7 35  1  0  0  0  0
  7 36  1  0  0  0  0
  8 20  1  0  0  0  0
  8  9  1  0  0  0  0
  9 10  2  0  0  0  0
  9 11  1  0  0  0  0
 11 12  1  0  0  0  0
 11 13  2  0  0  0  0
 13 14  1  0  0  0  0
 13 37  1  0  0  0  0
 14 15  1  0  0  0  0
 14 20  1  0  0  0  0
 15 19  1  0  0  0  0
 15 16  1  0  0  0  0
 15 38  1  0  0  0  0
 16 17  1  0  0  0  0
 16 39  1  0  0  0  0
 16 40  1  0  0  0  0
 17 18  1  0  0  0  0
 17 41  1  0  0  0  0
 17 42  1  0  0  0  0
 18 19  1  0  0  0  0
 18 43  1  0  0  0  0
 18 44  1  0  0  0  0
 20 21  2  0  0  0  0
 22 23  1  0  0  0  0
 22 24  1  0  0  0  0
 23 45  1  0  0  0  0
 23 46  1  0  0  0  0
 23 47  1  0  0  0  0
 24 25  1  0  0  0  0
 25 26  1  0  0  0  0
 25 48  1  0  0  0  0
 25 49  1  0  0  0  0
 26 30  1  0  0  0  0
 26 27  2  0  0  0  0
 27 28  1  0  0  0  0
 27 50  1  0  0  0  0
 28 29  2  0  0  0  0
 28 51  1  0  0  0  0
 29 30  1  0  0  0  0
 29 52  1  0  0  0  0
M  END
> <s_m_source_file>
AV-unprocessed.smi

> <i_m_source_file_index>
138

> <i_lp_mmshare_version>
43012

> <i_f3d_flags>
0

> <s_epik_input>
bzFbY0hdW2NIXVtjSF1jMVtDSDJdbjJjKFtDSDNdKWMoW2NIXWMyW0NIM10pQyg9TylbQ0gyXW4zYyg9TyljKEYpW2NIXW4oYzM9TylbQ0BASF00W0NIMl1bQ0gyXVtDSDJdTzQ=

> <s_epik_cmdline>
J2VwaWtfcHl0aG9uJywgJy1waCcsICc3LjAnLCAnLXRuJywgJzgnLCAnLW1hJywgJzIwMCcsICctbWV0YWxfYmluZGluZycsICctaW1hZScsICc8aW5maWxlLm1hZT4nLCAnLW9tYWUnLCAnPG91dGZpbGUubWFlPic=

> <r_lp_tautomer_probability>
1

> <r_epik_Ionization_Penalty>
5.03107e-09

> <r_epik_Ionization_Penalty_Charging>
5.01743e-09

> <r_epik_Ionization_Penalty_Neutral>
1.36377e-11

> <r_epik_State_Penalty>
-0

> <r_epik_Charging_Adjusted_Penalty>
5.01743e-09

> <i_epik_Tot_Q>
0

> <i_epik_Tot_abs_Q>
0

> <r_epik_Metal_State_Penalty>
-0

> <b_epik_Metal_Only>
0

> <s_epik_Chemistry_Notes>
This compound contains an acetal/aminal-like group ( X-CH(R)-Y where X, Y are N, S, or O) that may be acid/base labile, releasing an aldehyde.

> <s_lp_Force_Field>
OPLS_2005

> <r_lp_Energy>
38.6842

> <b_lp_Chiralities_Consistent>
1

> <s_lp_Variant>
AV-unprocessed.smi:138-1

> <Gold.Version>
5.8.1

> <Gold.Id.Protein>
6NUR|6NUR_protein|mol2

> <Gold.PLP.Fitness>
49.2496

> <Gold.PLP.PLP>
-50.4312

> <Gold.PLP.part.hbond>
-1.1916

> <Gold.PLP.part.metal>
0.0000

> <Gold.PLP.part.buried>
-3.8569

> <Gold.PLP.part.nonpolar>
-47.1416

> <Gold.PLP.part.repulsive>
0.3609

> <Gold.PLP.ligand.clash>
0.0000

> <Gold.PLP.ligand.torsion>
0.6161

> <Gold.PLP.Chemscore.Hbond>
0.0000

> <Gold.PLP.Chemscore.CHOScore>
0.0000

> <Gold.PLP.Chemscore.Metal>
0.0000

> <Gold.PLP.Chemscore.Internal.Correction>
0.0507

> <Gold.Rescore>
     Score         DG    S(hbond)    S(metal)    S(lipo)     H(rot)  DE(clash)    DE(int)     intcor
     11.15     -14.39       0.24        0.00     113.13       2.00       0.20       3.05       ----

> <Gold.Chemscore.Fitness>
11.1461

> <Gold.Chemscore.DG>
-14.3945

> <Gold.Chemscore.ZeroCoef>
-5.4800

> <Gold.Chemscore.Hbond>
0.2357

> <Gold.Chemscore.Metal>
0.0000

> <Gold.Chemscore.Lipo>
113.1328

> <Gold.Chemscore.Internal_Hbond>
0.0000

> <Gold.Chemscore.DEClash>
0.2033

> <Gold.Chemscore.DEInternal>
3.0452

> <Gold.Chemscore.Rot>
1.9958

> <Gold.Chemscore.Internal.Correction>
   9.000000E+99

> <Gold.Chemscore.Hbond.Weighted>
-0.7872

> <Gold.Chemscore.Metal.Weighted>
-0.0000

> <Gold.Chemscore.Lipo.Weighted>
-13.2365

> <Gold.Chemscore.Internal_Hbond.Weighted>
0.0000

> <Gold.Chemscore.DEClash.Weighted>
0.2033

> <Gold.Chemscore.DEInternal.Weighted>
3.0452

> <Gold.Chemscore.Rot.Weighted>
5.1092

> <Gold.Chemscore.Internal.Correction.Weighted>
   9.000000E+99

> <Gold.Protein.RotatedTorsions>
[ 6907 6896 6895 6894 ] final -106.91 input  -60.11 | X-H torsion
[ 7974 7965 7964 7962 ] final -157.81 input  175.53 | X-H torsion
[ 8008 7997 7996 7995 ] final -101.33 input   59.86 | X-H torsion
[ 10167 10162 10161 10158 ] final -128.18 input  -65.29 | X-H torsion
[ 10718 10713 10712 10709 ] final  125.59 input   66.30 | X-H torsion
[ 10763 10752 10751 10750 ] final -144.62 input  -60.55 | X-H torsion
[ 11005 11000 10999 10996 ] final  160.53 input  -57.11 | X-H torsion

> <Gold.Protein.ActiveResidues>
 VAL166  LYS551  ARG553  GLY616  TRP617  ASP618  TYR619  PRO620  LYS621  CYS622 
 ASP623  PHE694  ASN695  SER759  ASP760  ASP761  ALA762  ILE779  LEU786  VAL792 
 PHE793  MET794  SER795  GLU796  ALA797  LYS798  CYS799  TRP800  GLU811  SER814 

> <Gold.Protein.RotatedAtoms>
  150.7415  133.9906  159.3605 H   0  0  0  0  0  0  0  0  0  0  0  0  # atno 6907 bound_to 6896
  151.7853  135.0748  160.0389 H   0  0  0  0  0  0  0  0  0  0  0  0  # atno 6908 bound_to 6896
  152.3245  133.5854  159.5803 H   0  0  0  0  0  0  0  0  0  0  0  0  # atno 6909 bound_to 6896
  144.7532  140.3917  143.6032 H   0  0  0  0  0  0  0  0  0  0  0  0  # atno 7974 bound_to 7965
  154.8410  140.0435  157.1541 H   0  0  0  0  0  0  0  0  0  0  0  0  # atno 8008 bound_to 7997
  154.9047  140.3005  155.5278 H   0  0  0  0  0  0  0  0  0  0  0  0  # atno 8009 bound_to 7997
  156.2992  140.2369  156.4079 H   0  0  0  0  0  0  0  0  0  0  0  0  # atno 8010 bound_to 7997
  139.9530  143.6034  152.2469 H   0  0  0  0  0  0  0  0  0  0  0  0  # atno 10167 bound_to 10162
  157.5490  131.1094  150.8733 H   0  0  0  0  0  0  0  0  0  0  0  0  # atno 10718 bound_to 10713
  154.8420  135.3435  154.6375 H   0  0  0  0  0  0  0  0  0  0  0  0  # atno 10763 bound_to 10752
  153.6986  135.6971  153.5074 H   0  0  0  0  0  0  0  0  0  0  0  0  # atno 10764 bound_to 10752
  153.2540  135.4344  155.0781 H   0  0  0  0  0  0  0  0  0  0  0  0  # atno 10765 bound_to 10752
  140.2069  134.8296  157.3078 H   0  0  0  0  0  0  0  0  0  0  0  0  # atno 11005 bound_to 11000
  145.6870  139.1630  143.2668 LP  0  0  0  0  0  0  0  0  0  0  0  0  # atno 17320 bound_to 7965
  146.1510  140.6925  142.9322 LP  0  0  0  0  0  0  0  0  0  0  0  0  # atno 17321 bound_to 7965
  139.6613  144.7662  151.1957 LP  0  0  0  0  0  0  0  0  0  0  0  0  # atno 17342 bound_to 10162
  140.7577  143.6006  150.8704 LP  0  0  0  0  0  0  0  0  0  0  0  0  # atno 17343 bound_to 10162
  156.9263  130.5333  149.5279 LP  0  0  0  0  0  0  0  0  0  0  0  0  # atno 17370 bound_to 10713
  156.0561  130.5622  150.9093 LP  0  0  0  0  0  0  0  0  0  0  0  0  # atno 17371 bound_to 10713
  140.1993  134.4274  155.7671 LP  0  0  0  0  0  0  0  0  0  0  0  0  # atno 17394 bound_to 11000
  141.2227  133.7064  156.8157 LP  0  0  0  0  0  0  0  0  0  0  0  0  # atno 17395 bound_to 11000

$$$$
