AV-unprocessed.smi:1165|AV-procd|sdf|4930|dock9
  -GOLD-   22720 3513D 1   1.00000     0.00000
 Structure written by MMmdl.
 41 42  0  0  0  0  0  0  0  0  1 V2000
  154.8506  136.1427  162.5623 C   0  0  0  0  0  0  0  0  0  0  0  0
  153.6269  136.6629  161.7861 C   0  0  1  0  0  0  0  0  0  0  0  0
  153.7512  138.1405  161.3686 C   0  0  0  0  0  0  0  0  0  0  0  0
  154.6626  138.3011  160.2229 N   0  0  0  0  0  0  0  0  0  0  0  0
  155.1938  139.9026  159.8283 S   0  0  0  0  0  0  0  0  0  0  0  0
  155.6371  140.5687  161.0627 O   0  0  0  0  0  0  0  0  0  0  0  0
  156.0673  139.8201  158.6482 O   0  0  0  0  0  0  0  0  0  0  0  0
  153.6890  140.5992  159.3503 N   0  0  0  0  0  0  0  0  0  0  0  0
  152.6750  140.8959  160.3610 C   0  0  0  0  0  0  0  0  0  0  0  0
  152.9825  142.2334  161.0445 C   0  0  0  0  0  0  0  0  0  0  0  0
  152.4036  143.4072  160.2804 C   0  0  0  0  0  0  0  0  0  0  0  0
  151.5952  144.3661  160.9250 C   0  0  0  0  0  0  0  0  0  0  0  0
  151.0781  145.4351  160.1681 C   0  0  0  0  0  0  0  0  0  0  0  0
  151.3917  145.4990  158.7956 C   0  0  0  0  0  0  0  0  0  0  0  0
  152.1636  144.5856  158.1680 N   0  0  0  0  0  0  0  0  0  0  0  0
  152.6556  143.5640  158.9008 C   0  0  0  0  0  0  0  0  0  0  0  0
  154.3397  137.4059  159.1038 C   0  0  0  0  0  0  0  0  0  0  0  0
  154.2420  135.9465  159.5819 C   0  0  2  0  0  0  0  0  0  0  0  0
  153.7698  135.0088  158.4652 C   0  0  0  0  0  0  0  0  0  0  0  0
  153.3160  135.8478  160.6584 O   0  0  0  0  0  0  0  0  0  0  0  0
  154.9883  136.7034  163.4871 H   0  0  0  0  0  0  0  0  0  0  0  0
  155.7741  136.2337  161.9917 H   0  0  0  0  0  0  0  0  0  0  0  0
  154.7235  135.0933  162.8294 H   0  0  0  0  0  0  0  0  0  0  0  0
  152.7730  136.5819  162.4591 H   0  0  0  0  0  0  0  0  0  0  0  0
  152.7709  138.5263  161.0853 H   0  0  0  0  0  0  0  0  0  0  0  0
  154.0899  138.7402  162.2128 H   0  0  0  0  0  0  0  0  0  0  0  0
  153.3160  140.1904  158.4938 H   0  0  0  0  0  0  0  0  0  0  0  0
  151.6951  140.9357  159.8857 H   0  0  0  0  0  0  0  0  0  0  0  0
  152.6487  140.0873  161.0923 H   0  0  0  0  0  0  0  0  0  0  0  0
  152.5863  142.2351  162.0609 H   0  0  0  0  0  0  0  0  0  0  0  0
  154.0613  142.3706  161.1329 H   0  0  0  0  0  0  0  0  0  0  0  0
  151.3731  144.2851  161.9790 H   0  0  0  0  0  0  0  0  0  0  0  0
  150.4554  146.1883  160.6279 H   0  0  0  0  0  0  0  0  0  0  0  0
  151.0121  146.3052  158.1856 H   0  0  0  0  0  0  0  0  0  0  0  0
  153.2667  142.8486  158.3699 H   0  0  0  0  0  0  0  0  0  0  0  0
  153.3984  137.7282  158.6566 H   0  0  0  0  0  0  0  0  0  0  0  0
  155.1055  137.4890  158.3325 H   0  0  0  0  0  0  0  0  0  0  0  0
  155.2244  135.6059  159.9093 H   0  0  0  0  0  0  0  0  0  0  0  0
  154.4554  135.0314  157.6176 H   0  0  0  0  0  0  0  0  0  0  0  0
  152.7803  135.2903  158.1039 H   0  0  0  0  0  0  0  0  0  0  0  0
  153.7144  133.9790  158.8188 H   0  0  0  0  0  0  0  0  0  0  0  0
  1  2  1  0  0  0  0
  1 21  1  0  0  0  0
  1 22  1  0  0  0  0
  1 23  1  0  0  0  0
  2 20  1  0  0  0  0
  2  3  1  0  0  0  0
  2 24  1  0  0  0  0
  3  4  1  0  0  0  0
  3 25  1  0  0  0  0
  3 26  1  0  0  0  0
  4  5  1  0  0  0  0
  4 17  1  0  0  0  0
  5  6  2  0  0  0  0
  5  7  2  0  0  0  0
  5  8  1  0  0  0  0
  8  9  1  0  0  0  0
  8 27  1  0  0  0  0
  9 10  1  0  0  0  0
  9 28  1  0  0  0  0
  9 29  1  0  0  0  0
 10 11  1  0  0  0  0
 10 30  1  0  0  0  0
 10 31  1  0  0  0  0
 11 16  1  0  0  0  0
 11 12  2  0  0  0  0
 12 13  1  0  0  0  0
 12 32  1  0  0  0  0
 13 14  2  0  0  0  0
 13 33  1  0  0  0  0
 14 15  1  0  0  0  0
 14 34  1  0  0  0  0
 15 16  2  0  0  0  0
 16 35  1  0  0  0  0
 17 18  1  0  0  0  0
 17 36  1  0  0  0  0
 17 37  1  0  0  0  0
 18 19  1  0  0  0  0
 18 20  1  0  0  0  0
 18 38  1  0  0  0  0
 19 39  1  0  0  0  0
 19 40  1  0  0  0  0
 19 41  1  0  0  0  0
M  END
> <s_m_source_file>
AV-unprocessed.smi

> <i_m_source_file_index>
1165

> <i_lp_mmshare_version>
43012

> <i_f3d_flags>
0

> <s_epik_input>
W0NIM11bQ0BASF0xW0NIMl1OKFtDSDJdW0NASF0oTzEpW0NIM10pUyg9TykoPU8pW05IXVtDSDJdW0NIMl1jMltjSF1bY0hdW2NIXW5bY0hdMg==

> <s_epik_cmdline>
J2VwaWtfcHl0aG9uJywgJy1waCcsICc3LjAnLCAnLXRuJywgJzgnLCAnLW1hJywgJzIwMCcsICctbWV0YWxfYmluZGluZycsICctaW1hZScsICc8aW5maWxlLm1hZT4nLCAnLW9tYWUnLCAnPG91dGZpbGUubWFlPic=

> <r_epik_Ionization_Penalty>
0.0861056

> <r_epik_Ionization_Penalty_Charging>
0

> <r_epik_Ionization_Penalty_Neutral>
0.0861056

> <r_epik_State_Penalty>
0.0574425

> <r_epik_Charging_Adjusted_Penalty>
0.0574425

> <i_epik_Tot_Q>
0

> <i_epik_Tot_abs_Q>
0

> <r_epik_Metal_State_Penalty>
0.317425

> <b_epik_Metal_Only>
0

> <s_lp_Force_Field>
OPLS_2005

> <r_lp_Energy>
8.11282

> <b_lp_Chiralities_Consistent>
1

> <s_lp_Variant>
AV-unprocessed.smi:1165-3

> <Gold.Version>
5.8.1

> <Gold.Id.Protein>
6NUR|6NUR_protein|mol2

> <Gold.PLP.Fitness>
44.8779

> <Gold.PLP.PLP>
-39.8705

> <Gold.PLP.part.hbond>
-3.7061

> <Gold.PLP.part.metal>
0.0000

> <Gold.PLP.part.buried>
-5.8729

> <Gold.PLP.part.nonpolar>
-31.0253

> <Gold.PLP.part.repulsive>
0.0800

> <Gold.PLP.ligand.clash>
0.0000

> <Gold.PLP.ligand.torsion>
0.8781

> <Gold.PLP.Chemscore.Hbond>
2.0000

> <Gold.PLP.Chemscore.CHOScore>
0.0000

> <Gold.PLP.Chemscore.Metal>
0.0000

> <Gold.Chemscore.Hbonds>
donor molecule, donor type, donor heavy atom, donor atom, acceptor molecule, acceptor atom, score
      P1  H  6896  6909       L1    20  0.79
      P1  H  7997  8008       L1     7  0.68

> <Gold.PLP.Chemscore.Internal.Correction>
0.7637

> <Gold.Rescore>
     Score         DG    S(hbond)    S(metal)    S(lipo)     H(rot)  DE(clash)    DE(int)     intcor
     18.44     -19.56       1.73        0.00     108.30       1.71       0.20       0.93       ----

> <Gold.Chemscore.Fitness>
18.4357

> <Gold.Chemscore.DG>
-19.5639

> <Gold.Chemscore.ZeroCoef>
-5.4800

> <Gold.Chemscore.Hbond>
1.7306

> <Gold.Chemscore.Metal>
0.0000

> <Gold.Chemscore.Lipo>
108.2988

> <Gold.Chemscore.Internal_Hbond>
0.0000

> <Gold.Chemscore.DEClash>
0.2019

> <Gold.Chemscore.DEInternal>
0.9263

> <Gold.Chemscore.Rot>
1.7060

> <Gold.Chemscore.Internal.Correction>
   9.000000E+99

> <Gold.Chemscore.Hbonds>
donor molecule, donor type, donor heavy atom, donor atom, acceptor molecule, acceptor atom, score
      P1  H  6896  6909       L1    20  0.11
      P1  H  7997  8008       L1     7  0.68

> <Gold.Chemscore.Hbond.Weighted>
-5.7803

> <Gold.Chemscore.Metal.Weighted>
-0.0000

> <Gold.Chemscore.Lipo.Weighted>
-12.6710

> <Gold.Chemscore.Internal_Hbond.Weighted>
0.0000

> <Gold.Chemscore.DEClash.Weighted>
0.2019

> <Gold.Chemscore.DEInternal.Weighted>
0.9263

> <Gold.Chemscore.Rot.Weighted>
4.3674

> <Gold.Chemscore.Internal.Correction.Weighted>
   9.000000E+99

> <Gold.Protein.RotatedTorsions>
[ 6907 6896 6895 6894 ] final -178.57 input  -60.11 | X-H torsion
[ 7974 7965 7964 7962 ] final  163.27 input  175.53 | X-H torsion
[ 8008 7997 7996 7995 ] final -149.91 input   59.86 | X-H torsion
[ 10167 10162 10161 10158 ] final   18.65 input  -65.29 | X-H torsion
[ 10718 10713 10712 10709 ] final  -90.59 input   66.30 | X-H torsion
[ 10763 10752 10751 10750 ] final   52.12 input  -60.55 | X-H torsion
[ 11005 11000 10999 10996 ] final   65.62 input  -57.11 | X-H torsion

> <Gold.Protein.ActiveResidues>
 VAL166  LYS551  ARG553  GLY616  TRP617  ASP618  TYR619  PRO620  LYS621  CYS622 
 ASP623  PHE694  ASN695  SER759  ASP760  ASP761  ALA762  ILE779  LEU786  VAL792 
 PHE793  MET794  SER795  GLU796  ALA797  LYS798  CYS799  TRP800  GLU811  SER814 

> <Gold.Protein.RotatedAtoms>
  151.6394  133.3327  159.3126 H   0  0  0  0  0  0  0  0  0  0  0  0  # atno 6907 bound_to 6896
  150.8015  134.7117  159.6617 H   0  0  0  0  0  0  0  0  0  0  0  0  # atno 6908 bound_to 6896
  152.4108  134.6132  160.0082 H   0  0  0  0  0  0  0  0  0  0  0  0  # atno 6909 bound_to 6896
  144.7597  139.8159  143.6337 H   0  0  0  0  0  0  0  0  0  0  0  0  # atno 7974 bound_to 7965
  155.6151  140.0675  157.2695 H   0  0  0  0  0  0  0  0  0  0  0  0  # atno 8008 bound_to 7997
  154.4243  140.1794  156.1361 H   0  0  0  0  0  0  0  0  0  0  0  0  # atno 8009 bound_to 7997
  156.0054  140.3332  155.6890 H   0  0  0  0  0  0  0  0  0  0  0  0  # atno 8010 bound_to 7997
  140.5637  143.9290  150.6661 H   0  0  0  0  0  0  0  0  0  0  0  0  # atno 10167 bound_to 10162
  155.9988  130.4916  150.5346 H   0  0  0  0  0  0  0  0  0  0  0  0  # atno 10718 bound_to 10713
  152.9787  135.5823  154.4527 H   0  0  0  0  0  0  0  0  0  0  0  0  # atno 10763 bound_to 10752
  154.4114  135.2770  155.2036 H   0  0  0  0  0  0  0  0  0  0  0  0  # atno 10764 bound_to 10752
  154.3825  135.6143  153.5852 H   0  0  0  0  0  0  0  0  0  0  0  0  # atno 10765 bound_to 10752
  139.9883  134.6632  156.0136 H   0  0  0  0  0  0  0  0  0  0  0  0  # atno 11005 bound_to 11000
  146.1647  139.4774  142.9966 LP  0  0  0  0  0  0  0  0  0  0  0  0  # atno 17320 bound_to 7965
  145.6659  141.0229  143.1683 LP  0  0  0  0  0  0  0  0  0  0  0  0  # atno 17321 bound_to 7965
  140.2747  143.3431  152.1206 LP  0  0  0  0  0  0  0  0  0  0  0  0  # atno 17342 bound_to 10162
  139.5082  144.6846  151.5919 LP  0  0  0  0  0  0  0  0  0  0  0  0  # atno 17343 bound_to 10162
  157.3291  131.0696  151.1874 LP  0  0  0  0  0  0  0  0  0  0  0  0  # atno 17370 bound_to 10713
  157.2761  130.6728  149.6043 LP  0  0  0  0  0  0  0  0  0  0  0  0  # atno 17371 bound_to 10713
  141.1544  133.6544  156.4114 LP  0  0  0  0  0  0  0  0  0  0  0  0  # atno 17394 bound_to 11000
  140.4959  134.6532  157.5229 LP  0  0  0  0  0  0  0  0  0  0  0  0  # atno 17395 bound_to 11000

$$$$
