AV-unprocessed.smi:2610|AV-procd|sdf|10208|dock9
  -GOLD-   2272014213D 1   1.00000     0.00000
 Structure written by MMmdl.
 45 47  0  0  0  0  0  0  0  0  1 V2000
  147.5597  140.7743  153.8417 C   0  0  0  0  0  0  0  0  0  0  0  0
  148.8847  140.3560  154.4880 C   0  0  0  0  0  0  0  0  0  0  0  0
  149.3322  141.3246  155.5915 C   0  0  0  0  0  0  0  0  0  0  0  0
  150.7111  140.9674  156.1652 C   0  0  0  0  0  0  0  0  0  0  0  0
  151.1455  141.9158  157.2432 C   0  0  0  0  0  0  0  0  0  0  0  0
  151.2354  143.2264  157.0156 N   0  0  0  0  0  0  0  0  0  0  0  0
  151.5743  143.7290  158.2552 C   0  0  0  0  0  0  0  0  0  0  0  0
  151.8074  145.0591  158.6715 C   0  0  0  0  0  0  0  0  0  0  0  0
  152.1245  145.3411  160.0161 C   0  0  0  0  0  0  0  0  0  0  0  0
  152.2094  144.2996  160.9619 C   0  0  0  0  0  0  0  0  0  0  0  0
  151.9835  142.9672  160.5671 C   0  0  0  0  0  0  0  0  0  0  0  0
  151.6765  142.6880  159.2211 C   0  0  0  0  0  0  0  0  0  0  0  0
  151.4128  141.5161  158.5146 N   0  0  0  0  0  0  0  0  0  0  0  0
  151.3942  140.1614  159.0624 C   0  0  0  0  0  0  0  0  0  0  0  0
  152.7935  139.5724  159.3901 C   0  0  0  0  0  0  0  0  0  0  0  0
  153.5303  139.4661  158.1852 O   0  0  0  0  0  0  0  0  0  0  0  0
  153.6041  140.4504  160.3678 C   0  0  0  0  0  0  0  0  0  0  0  0
  154.8928  139.7550  160.8414 C   0  0  0  0  0  0  0  0  0  0  0  0
  154.5819  138.4930  161.4189 O   0  0  0  0  0  0  0  0  0  0  0  0
  153.9889  137.5944  160.4896 C   0  0  0  0  0  0  0  0  0  0  0  0
  152.6467  138.1592  159.9905 C   0  0  0  0  0  0  0  0  0  0  0  0
  147.2654  140.0664  153.0667 H   0  0  0  0  0  0  0  0  0  0  0  0
  147.6397  141.7591  153.3806 H   0  0  0  0  0  0  0  0  0  0  0  0
  146.7569  140.8130  154.5787 H   0  0  0  0  0  0  0  0  0  0  0  0
  148.7803  139.3525  154.9020 H   0  0  0  0  0  0  0  0  0  0  0  0
  149.6563  140.2944  153.7196 H   0  0  0  0  0  0  0  0  0  0  0  0
  149.3543  142.3412  155.1964 H   0  0  0  0  0  0  0  0  0  0  0  0
  148.5944  141.3217  156.3948 H   0  0  0  0  0  0  0  0  0  0  0  0
  150.7061  139.9452  156.5383 H   0  0  0  0  0  0  0  0  0  0  0  0
  151.4553  140.9882  155.3680 H   0  0  0  0  0  0  0  0  0  0  0  0
  151.7375  145.8644  157.9553 H   0  0  0  0  0  0  0  0  0  0  0  0
  152.2983  146.3618  160.3242 H   0  0  0  0  0  0  0  0  0  0  0  0
  152.4474  144.5241  161.9915 H   0  0  0  0  0  0  0  0  0  0  0  0
  152.0446  142.1708  161.2930 H   0  0  0  0  0  0  0  0  0  0  0  0
  150.7831  140.1752  159.9657 H   0  0  0  0  0  0  0  0  0  0  0  0
  150.8636  139.5092  158.3684 H   0  0  0  0  0  0  0  0  0  0  0  0
  152.9730  139.0822  157.5256 H   0  0  0  0  0  0  0  0  0  0  0  0
  153.8521  141.4111  159.9156 H   0  0  0  0  0  0  0  0  0  0  0  0
  152.9946  140.6679  161.2450 H   0  0  0  0  0  0  0  0  0  0  0  0
  155.5981  139.6283  160.0187 H   0  0  0  0  0  0  0  0  0  0  0  0
  155.3918  140.3692  161.5910 H   0  0  0  0  0  0  0  0  0  0  0  0
  154.6718  137.4083  159.6593 H   0  0  0  0  0  0  0  0  0  0  0  0
  153.8277  136.6365  160.9843 H   0  0  0  0  0  0  0  0  0  0  0  0
  151.9540  138.1950  160.8325 H   0  0  0  0  0  0  0  0  0  0  0  0
  152.2045  137.4785  159.2617 H   0  0  0  0  0  0  0  0  0  0  0  0
  1  2  1  0  0  0  0
  1 22  1  0  0  0  0
  1 23  1  0  0  0  0
  1 24  1  0  0  0  0
  2  3  1  0  0  0  0
  2 25  1  0  0  0  0
  2 26  1  0  0  0  0
  3  4  1  0  0  0  0
  3 27  1  0  0  0  0
  3 28  1  0  0  0  0
  4  5  1  0  0  0  0
  4 29  1  0  0  0  0
  4 30  1  0  0  0  0
  5 13  1  0  0  0  0
  5  6  2  0  0  0  0
  6  7  1  0  0  0  0
  7 12  2  0  0  0  0
  7  8  1  0  0  0  0
  8  9  2  0  0  0  0
  8 31  1  0  0  0  0
  9 10  1  0  0  0  0
  9 32  1  0  0  0  0
 10 11  2  0  0  0  0
 10 33  1  0  0  0  0
 11 12  1  0  0  0  0
 11 34  1  0  0  0  0
 12 13  1  0  0  0  0
 13 14  1  0  0  0  0
 14 15  1  0  0  0  0
 14 35  1  0  0  0  0
 14 36  1  0  0  0  0
 15 21  1  0  0  0  0
 15 16  1  0  0  0  0
 15 17  1  0  0  0  0
 16 37  1  0  0  0  0
 17 18  1  0  0  0  0
 17 38  1  0  0  0  0
 17 39  1  0  0  0  0
 18 19  1  0  0  0  0
 18 40  1  0  0  0  0
 18 41  1  0  0  0  0
 19 20  1  0  0  0  0
 20 21  1  0  0  0  0
 20 42  1  0  0  0  0
 20 43  1  0  0  0  0
 21 44  1  0  0  0  0
 21 45  1  0  0  0  0
M  END
> <s_m_source_file>
AV-unprocessed.smi

> <i_m_source_file_index>
2610

> <i_lp_mmshare_version>
43012

> <i_f3d_flags>
0

> <s_epik_input>
W0NIM11bQ0gyXVtDSDJdW0NIMl1jKG4xKW4oYyhjMTIpW2NIXVtjSF1bY0hdW2NIXTIpW0NIMl1DMyhbT0hdKVtDSDJdW0NIMl1PW0NIMl1bQ0gyXTM=

> <s_epik_cmdline>
J2VwaWtfcHl0aG9uJywgJy1waCcsICc3LjAnLCAnLXRuJywgJzgnLCAnLW1hJywgJzIwMCcsICctbWV0YWxfYmluZGluZycsICctaW1hZScsICc8aW5maWxlLm1hZT4nLCAnLW9tYWUnLCAnPG91dGZpbGUubWFlPic=

> <r_epik_Ionization_Penalty>
0.224246

> <r_epik_Ionization_Penalty_Charging>
0

> <r_epik_Ionization_Penalty_Neutral>
0.224246

> <r_epik_State_Penalty>
0.214696

> <r_epik_Charging_Adjusted_Penalty>
0.214696

> <i_epik_Tot_Q>
0

> <i_epik_Tot_abs_Q>
0

> <r_epik_Metal_State_Penalty>
0.000258695

> <b_epik_Metal_Only>
0

> <s_lp_Force_Field>
OPLS_2005

> <r_lp_Energy>
13.1565

> <b_lp_Chiralities_Consistent>
1

> <s_lp_Variant>
AV-unprocessed.smi:2610-1

> <Gold.Version>
5.8.1

> <Gold.Id.Protein>
6NUR|6NUR_protein|mol2

> <Gold.PLP.Fitness>
49.7040

> <Gold.PLP.PLP>
-46.7263

> <Gold.PLP.part.hbond>
-1.0000

> <Gold.PLP.part.metal>
0.0000

> <Gold.PLP.part.buried>
-4.5100

> <Gold.PLP.part.nonpolar>
-41.6674

> <Gold.PLP.part.repulsive>
0.4893

> <Gold.PLP.ligand.clash>
0.0000

> <Gold.PLP.ligand.torsion>
0.1567

> <Gold.PLP.Chemscore.Hbond>
1.0000

> <Gold.PLP.Chemscore.CHOScore>
0.0000

> <Gold.PLP.Chemscore.Metal>
0.0000

> <Gold.Chemscore.Hbonds>
donor molecule, donor type, donor heavy atom, donor atom, acceptor molecule, acceptor atom, score
      P1  H  7997  8008       L1    16  1.00

> <Gold.PLP.Chemscore.Internal.Correction>
0.2911

> <Gold.Rescore>
     Score         DG    S(hbond)    S(metal)    S(lipo)     H(rot)  DE(clash)    DE(int)     intcor
     18.58     -19.27       0.93        0.00     133.10       1.91       0.32       0.37       ----

> <Gold.Chemscore.Fitness>
18.5848

> <Gold.Chemscore.DG>
-19.2727

> <Gold.Chemscore.ZeroCoef>
-5.4800

> <Gold.Chemscore.Hbond>
0.9278

> <Gold.Chemscore.Metal>
0.0000

> <Gold.Chemscore.Lipo>
133.0999

> <Gold.Chemscore.Internal_Hbond>
0.0000

> <Gold.Chemscore.DEClash>
0.3211

> <Gold.Chemscore.DEInternal>
0.3667

> <Gold.Chemscore.Rot>
1.9059

> <Gold.Chemscore.Internal.Correction>
   9.000000E+99

> <Gold.Chemscore.Hbonds>
donor molecule, donor type, donor heavy atom, donor atom, acceptor molecule, acceptor atom, score
      P1  H  7997  8008       L1    16  0.30

> <Gold.Chemscore.Hbond.Weighted>
-3.0990

> <Gold.Chemscore.Metal.Weighted>
-0.0000

> <Gold.Chemscore.Lipo.Weighted>
-15.5727

> <Gold.Chemscore.Internal_Hbond.Weighted>
0.0000

> <Gold.Chemscore.DEClash.Weighted>
0.3211

> <Gold.Chemscore.DEInternal.Weighted>
0.3667

> <Gold.Chemscore.Rot.Weighted>
4.8790

> <Gold.Chemscore.Internal.Correction.Weighted>
   9.000000E+99

> <Gold.Protein.RotatedTorsions>
[ 6907 6896 6895 6894 ] final   34.05 input  -60.11 | X-H torsion
[ 7974 7965 7964 7962 ] final  177.21 input  175.53 | X-H torsion
[ 8008 7997 7996 7995 ] final -104.33 input   59.86 | X-H torsion
[ 10167 10162 10161 10158 ] final   79.20 input  -65.29 | X-H torsion
[ 10718 10713 10712 10709 ] final   39.92 input   66.30 | X-H torsion
[ 10763 10752 10751 10750 ] final -113.03 input  -60.55 | X-H torsion
[ 11005 11000 10999 10996 ] final  142.54 input  -57.11 | X-H torsion

> <Gold.Protein.ActiveResidues>
 VAL166  LYS551  ARG553  GLY616  TRP617  ASP618  TYR619  PRO620  LYS621  CYS622 
 ASP623  PHE694  ASN695  SER759  ASP760  ASP761  ALA762  ILE779  LEU786  VAL792 
 PHE793  MET794  SER795  GLU796  ALA797  LYS798  CYS799  TRP800  GLU811  SER814 

> <Gold.Protein.RotatedAtoms>
  152.0970  134.9368  160.0570 H   0  0  0  0  0  0  0  0  0  0  0  0  # atno 6907 bound_to 6896
  152.0597  133.4051  159.4421 H   0  0  0  0  0  0  0  0  0  0  0  0  # atno 6908 bound_to 6896
  150.6838  134.3134  159.4799 H   0  0  0  0  0  0  0  0  0  0  0  0  # atno 6909 bound_to 6896
  144.7172  140.0212  143.6440 H   0  0  0  0  0  0  0  0  0  0  0  0  # atno 7974 bound_to 7965
  154.8838  140.0418  157.1798 H   0  0  0  0  0  0  0  0  0  0  0  0  # atno 8008 bound_to 7997
  154.8612  140.2944  155.5517 H   0  0  0  0  0  0  0  0  0  0  0  0  # atno 8009 bound_to 7997
  156.2998  140.2446  156.3586 H   0  0  0  0  0  0  0  0  0  0  0  0  # atno 8010 bound_to 7997
  139.9629  144.5948  150.8056 H   0  0  0  0  0  0  0  0  0  0  0  0  # atno 10167 bound_to 10162
  157.3762  130.7728  149.7157 H   0  0  0  0  0  0  0  0  0  0  0  0  # atno 10718 bound_to 10713
  154.8377  135.4469  154.1286 H   0  0  0  0  0  0  0  0  0  0  0  0  # atno 10763 bound_to 10752
  153.2502  135.6926  153.7693 H   0  0  0  0  0  0  0  0  0  0  0  0  # atno 10764 bound_to 10752
  153.7008  135.3372  155.3200 H   0  0  0  0  0  0  0  0  0  0  0  0  # atno 10765 bound_to 10752
  140.0484  134.9268  157.0973 H   0  0  0  0  0  0  0  0  0  0  0  0  # atno 11005 bound_to 11000
  146.0179  139.3225  143.0831 LP  0  0  0  0  0  0  0  0  0  0  0  0  # atno 17320 bound_to 7965
  145.8604  140.9478  143.0703 LP  0  0  0  0  0  0  0  0  0  0  0  0  # atno 17321 bound_to 7965
  140.7547  143.3033  151.3026 LP  0  0  0  0  0  0  0  0  0  0  0  0  # atno 17342 bound_to 10162
  139.6540  144.0310  152.2647 LP  0  0  0  0  0  0  0  0  0  0  0  0  # atno 17343 bound_to 10162
  155.9766  130.4074  150.3770 LP  0  0  0  0  0  0  0  0  0  0  0  0  # atno 17370 bound_to 10713
  157.1867  131.0405  151.2721 LP  0  0  0  0  0  0  0  0  0  0  0  0  # atno 17371 bound_to 10713
  140.3956  134.2137  155.7165 LP  0  0  0  0  0  0  0  0  0  0  0  0  # atno 17394 bound_to 11000
  141.1918  133.8186  157.0863 LP  0  0  0  0  0  0  0  0  0  0  0  0  # atno 17395 bound_to 11000

$$$$
