AV-unprocessed.smi:2576|AV-procd|sdf|10119|dock4
  -GOLD-   2272014133D 1   1.00000     0.00000
 Structure written by MMmdl.
 27 28  0  0  0  0  0  0  0  0  1 V2000
  150.8543  139.6949  154.6782 O   0  0  0  0  0  0  0  0  0  0  0  0
  150.0015  140.5527  155.4129 C   0  0  1  0  0  0  0  0  0  0  0  0
  150.8549  141.6150  156.1340 C   0  0  0  0  0  0  0  0  0  0  0  0
  151.7370  141.0401  157.1352 N   0  0  0  0  0  0  0  0  0  0  0  0
  152.3837  139.8712  156.8640 N   0  0  0  0  0  0  0  0  0  0  0  0
  153.1101  139.5491  157.8924 N   0  0  0  0  0  0  0  0  0  0  0  0
  152.9404  140.5258  158.8596 C   0  0  0  0  0  0  0  0  0  0  0  0
  153.4862  140.6750  160.1542 C   0  0  0  0  0  0  0  0  0  0  0  0
  153.1420  141.7897  160.9501 C   0  0  0  0  0  0  0  0  0  0  0  0
  153.8305  141.9376  162.5281 Cl  0  0  0  0  0  0  0  0  0  0  0  0
  152.2459  142.7695  160.4582 C   0  0  0  0  0  0  0  0  0  0  0  0
  151.8162  144.1406  161.4175 Cl  0  0  0  0  0  0  0  0  0  0  0  0
  151.6927  142.6324  159.1696 C   0  0  0  0  0  0  0  0  0  0  0  0
  152.0477  141.5156  158.3943 C   0  0  0  0  0  0  0  0  0  0  0  0
  148.9695  141.1963  154.4649 C   0  0  0  0  0  0  0  0  0  0  0  0
  147.7776  140.2921  154.1021 C   0  0  0  0  0  0  0  0  0  0  0  0
  146.9747  140.1867  155.1603 F   0  0  0  0  0  0  0  0  0  0  0  0
  147.0766  140.8029  153.0901 F   0  0  0  0  0  0  0  0  0  0  0  0
  148.2040  139.0737  153.7702 F   0  0  0  0  0  0  0  0  0  0  0  0
  151.4543  139.2789  155.2790 H   0  0  0  0  0  0  0  0  0  0  0  0
  149.4797  139.9535  156.1599 H   0  0  0  0  0  0  0  0  0  0  0  0
  151.4603  142.1690  155.4153 H   0  0  0  0  0  0  0  0  0  0  0  0
  150.2120  142.3472  156.6248 H   0  0  0  0  0  0  0  0  0  0  0  0
  154.1706  139.9311  160.5349 H   0  0  0  0  0  0  0  0  0  0  0  0
  151.0088  143.3732  158.7822 H   0  0  0  0  0  0  0  0  0  0  0  0
  148.5740  142.0956  154.9392 H   0  0  0  0  0  0  0  0  0  0  0  0
  149.4660  141.5339  153.5540 H   0  0  0  0  0  0  0  0  0  0  0  0
  1  2  1  0  0  0  0
  1 20  1  0  0  0  0
  2  3  1  0  0  0  0
  2 15  1  0  0  0  0
  2 21  1  0  0  0  0
  3  4  1  0  0  0  0
  3 22  1  0  0  0  0
  3 23  1  0  0  0  0
  4 14  1  0  0  0  0
  4  5  1  0  0  0  0
  5  6  2  0  0  0  0
  6  7  1  0  0  0  0
  7 14  2  0  0  0  0
  7  8  1  0  0  0  0
  8  9  2  0  0  0  0
  8 24  1  0  0  0  0
  9 10  1  0  0  0  0
  9 11  1  0  0  0  0
 11 12  1  0  0  0  0
 11 13  2  0  0  0  0
 13 14  1  0  0  0  0
 13 25  1  0  0  0  0
 15 16  1  0  0  0  0
 15 26  1  0  0  0  0
 15 27  1  0  0  0  0
 16 17  1  0  0  0  0
 16 18  1  0  0  0  0
 16 19  1  0  0  0  0
M  END
> <s_m_source_file>
AV-unprocessed.smi

> <i_m_source_file_index>
2576

> <i_lp_mmshare_version>
43012

> <i_f3d_flags>
0

> <s_epik_input>
RkMoRikoRilbQ0gyXVtDQEhdKFtPSF0pW0NIMl1uKG5uMSljKGMxMilbY0hdYyhDbCljKENsKVtjSF0y

> <s_epik_cmdline>
J2VwaWtfcHl0aG9uJywgJy1waCcsICc3LjAnLCAnLXRuJywgJzgnLCAnLW1hJywgJzIwMCcsICctbWV0YWxfYmluZGluZycsICctaW1hZScsICc8aW5maWxlLm1hZT4nLCAnLW9tYWUnLCAnPG91dGZpbGUubWFlPic=

> <r_lp_tautomer_probability>
1

> <r_epik_Ionization_Penalty>
1.57739e-05

> <r_epik_Ionization_Penalty_Charging>
0

> <r_epik_Ionization_Penalty_Neutral>
1.57739e-05

> <r_epik_State_Penalty>
-0

> <r_epik_Charging_Adjusted_Penalty>
0

> <i_epik_Tot_Q>
0

> <i_epik_Tot_abs_Q>
0

> <r_epik_Metal_State_Penalty>
-0

> <b_epik_Metal_Only>
0

> <s_lp_Force_Field>
OPLS_2005

> <r_lp_Energy>
8.87224

> <b_lp_Chiralities_Consistent>
1

> <s_lp_Variant>
AV-unprocessed.smi:2576-2

> <Gold.Version>
5.8.1

> <Gold.Id.Protein>
6NUR|6NUR_protein|mol2

> <Gold.PLP.Fitness>
46.1810

> <Gold.PLP.PLP>
-41.8461

> <Gold.PLP.part.hbond>
-3.0000

> <Gold.PLP.part.metal>
0.0000

> <Gold.PLP.part.buried>
-3.4395

> <Gold.PLP.part.nonpolar>
-34.5434

> <Gold.PLP.part.repulsive>
0.0000

> <Gold.PLP.ligand.clash>
0.0000

> <Gold.PLP.ligand.torsion>
0.6006

> <Gold.PLP.Chemscore.Hbond>
1.8432

> <Gold.PLP.Chemscore.CHOScore>
0.0000

> <Gold.PLP.Chemscore.Metal>
0.0000

> <Gold.Chemscore.Hbonds>
donor molecule, donor type, donor heavy atom, donor atom, acceptor molecule, acceptor atom, score
      P1  H  7989  7998       L1     1  1.00
      P1  H  7997  8008       L1     6  0.83

> <Gold.PLP.Chemscore.Internal.Correction>
0.0065

> <Gold.Rescore>
     Score         DG    S(hbond)    S(metal)    S(lipo)     H(rot)  DE(clash)    DE(int)     intcor
     11.86     -15.36       0.94        0.00     105.34       2.18       0.31       3.19       ----

> <Gold.Chemscore.Fitness>
11.8593

> <Gold.Chemscore.DG>
-15.3636

> <Gold.Chemscore.ZeroCoef>
-5.4800

> <Gold.Chemscore.Hbond>
0.9405

> <Gold.Chemscore.Metal>
0.0000

> <Gold.Chemscore.Lipo>
105.3403

> <Gold.Chemscore.Internal_Hbond>
0.0000

> <Gold.Chemscore.DEClash>
0.3127

> <Gold.Chemscore.DEInternal>
3.1916

> <Gold.Chemscore.Rot>
2.1807

> <Gold.Chemscore.Internal.Correction>
   9.000000E+99

> <Gold.Chemscore.Hbonds>
donor molecule, donor type, donor heavy atom, donor atom, acceptor molecule, acceptor atom, score
      P1  H  7989  7998       L1     1  0.31
      P1  H  7997  8008       L1     6  0.05

> <Gold.Chemscore.Hbond.Weighted>
-3.1413

> <Gold.Chemscore.Metal.Weighted>
-0.0000

> <Gold.Chemscore.Lipo.Weighted>
-12.3248

> <Gold.Chemscore.Internal_Hbond.Weighted>
0.0000

> <Gold.Chemscore.DEClash.Weighted>
0.3127

> <Gold.Chemscore.DEInternal.Weighted>
3.1916

> <Gold.Chemscore.Rot.Weighted>
5.5826

> <Gold.Chemscore.Internal.Correction.Weighted>
   9.000000E+99

> <Gold.Protein.RotatedTorsions>
[ 6907 6896 6895 6894 ] final -100.68 input  -60.11 | X-H torsion
[ 7974 7965 7964 7962 ] final   61.73 input  175.53 | X-H torsion
[ 8008 7997 7996 7995 ] final  -99.10 input   59.86 | X-H torsion
[ 10167 10162 10161 10158 ] final  169.15 input  -65.29 | X-H torsion
[ 10718 10713 10712 10709 ] final  -80.02 input   66.30 | X-H torsion
[ 10763 10752 10751 10750 ] final   47.46 input  -60.55 | X-H torsion
[ 11005 11000 10999 10996 ] final   27.11 input  -57.11 | X-H torsion

> <Gold.Protein.ActiveResidues>
 VAL166  LYS551  ARG553  GLY616  TRP617  ASP618  TYR619  PRO620  LYS621  CYS622 
 ASP623  PHE694  ASN695  SER759  ASP760  ASP761  ALA762  ILE779  LEU786  VAL792 
 PHE793  MET794  SER795  GLU796  ALA797  LYS798  CYS799  TRP800  GLU811  SER814 

> <Gold.Protein.RotatedAtoms>
  150.7125  134.0850  159.3911 H   0  0  0  0  0  0  0  0  0  0  0  0  # atno 6907 bound_to 6896
  151.8834  135.0442  160.0500 H   0  0  0  0  0  0  0  0  0  0  0  0  # atno 6908 bound_to 6896
  152.2549  133.5211  159.5384 H   0  0  0  0  0  0  0  0  0  0  0  0  # atno 6909 bound_to 6896
  145.8814  139.3446  143.0704 H   0  0  0  0  0  0  0  0  0  0  0  0  # atno 7974 bound_to 7965
  154.8102  140.0450  157.1337 H   0  0  0  0  0  0  0  0  0  0  0  0  # atno 8008 bound_to 7997
  154.9377  140.3048  155.5116 H   0  0  0  0  0  0  0  0  0  0  0  0  # atno 8009 bound_to 7997
  156.2971  140.2311  156.4443 H   0  0  0  0  0  0  0  0  0  0  0  0  # atno 8010 bound_to 7997
  139.4985  144.3737  151.9697 H   0  0  0  0  0  0  0  0  0  0  0  0  # atno 10167 bound_to 10162
  156.0079  130.4562  150.3737 H   0  0  0  0  0  0  0  0  0  0  0  0  # atno 10718 bound_to 10713
  152.9800  135.5975  154.3766 H   0  0  0  0  0  0  0  0  0  0  0  0  # atno 10763 bound_to 10752
  154.3435  135.2767  155.2412 H   0  0  0  0  0  0  0  0  0  0  0  0  # atno 10764 bound_to 10752
  154.4483  135.5996  153.6230 H   0  0  0  0  0  0  0  0  0  0  0  0  # atno 10765 bound_to 10752
  140.3298  134.2451  155.7704 H   0  0  0  0  0  0  0  0  0  0  0  0  # atno 11005 bound_to 11000
  145.9019  140.9237  143.0498 LP  0  0  0  0  0  0  0  0  0  0  0  0  # atno 17320 bound_to 7965
  144.6727  140.1044  143.7459 LP  0  0  0  0  0  0  0  0  0  0  0  0  # atno 17321 bound_to 7965
  140.3173  144.3468  150.6018 LP  0  0  0  0  0  0  0  0  0  0  0  0  # atno 17342 bound_to 10162
  140.5750  143.2177  151.7530 LP  0  0  0  0  0  0  0  0  0  0  0  0  # atno 17343 bound_to 10162
  157.1820  131.0394  151.2744 LP  0  0  0  0  0  0  0  0  0  0  0  0  # atno 17370 bound_to 10713
  157.4137  130.7399  149.6859 LP  0  0  0  0  0  0  0  0  0  0  0  0  # atno 17371 bound_to 10713
  141.2066  133.7828  157.0166 LP  0  0  0  0  0  0  0  0  0  0  0  0  # atno 17394 bound_to 11000
  140.0871  134.9614  157.1717 LP  0  0  0  0  0  0  0  0  0  0  0  0  # atno 17395 bound_to 11000

$$$$
