AV-unprocessed.smi:37|AV-procd|sdf|328|dock3
  -GOLD-   2262016153D 1   1.00000     0.00000
 Structure written by MMmdl.
 43 44  0  0  0  0  0  0  0  0  2 V2000
  153.7646  137.8737  160.6184 C   0  0  0  0  0  0  0  0  0  0  0  0
  152.7979  137.4270  159.5128 C   0  0  0  0  0  0  0  0  0  0  0  0
  153.0497  138.1602  158.1971 C   0  0  0  0  0  0  0  0  0  0  0  0
  153.8923  139.0534  158.1090 O   0  0  0  0  0  0  0  0  0  0  0  0
  152.2633  137.7192  157.2054 O   0  0  0  0  0  0  0  0  0  0  0  0
  152.2611  138.3818  155.9517 C   0  0  0  0  0  0  0  0  0  0  0  0
  151.1196  137.8410  155.0805 C   0  0  1  0  0  0  0  0  0  0  0  0
  151.3386  136.4585  154.8240 O   0  0  0  0  0  0  0  0  0  0  0  0
  150.1055  135.8191  154.7878 C   0  0  1  0  0  0  0  0  0  0  0  0
  150.2804  134.3456  155.0716 N   0  0  0  0  0  0  0  0  0  0  0  0
  149.5694  133.3874  154.3670 C   0  0  0  0  0  0  0  0  0  0  0  0
  149.7363  132.0726  154.6154 C   0  0  0  0  0  0  0  0  0  0  0  0
  149.0376  131.1651  153.9118 F   0  0  0  0  0  0  0  0  0  0  0  0
  150.6799  131.6453  155.6468 C   0  0  0  0  0  0  0  0  0  0  0  0
  150.8248  130.4447  155.8711 O   0  0  0  0  0  0  0  0  0  0  0  0
  151.3671  132.6112  156.3232 N   0  5  0  0  0  0  0  0  0  0  0  0
  151.2047  133.9434  156.0724 C   0  0  0  0  0  0  0  0  0  0  0  0
  151.8236  134.8240  156.6703 O   0  0  0  0  0  0  0  0  0  0  0  0
  149.2336  136.5264  155.8310 C   0  0  1  0  0  0  0  0  0  0  0  0
  149.5936  135.8877  157.6888 Br  0  0  0  0  0  0  0  0  0  0  0  0
  149.7163  137.9667  155.7064 C   0  0  2  0  0  0  0  0  0  0  0  0
  148.8780  138.6903  154.8126 O   0  0  0  0  0  0  0  0  0  0  0  0
  149.1820  139.9552  154.4671 C   0  0  0  0  0  0  0  0  0  0  0  0
  150.2628  140.5148  154.6516 O   0  0  0  0  0  0  0  0  0  0  0  0
  148.0112  140.6839  153.8114 C   0  0  0  0  0  0  0  0  0  0  0  0
  147.6659  141.9962  154.5288 C   0  0  0  0  0  0  0  0  0  0  0  0
  153.5498  137.3509  161.5505 H   0  0  0  0  0  0  0  0  0  0  0  0
  153.6781  138.9433  160.8120 H   0  0  0  0  0  0  0  0  0  0  0  0
  154.8017  137.6625  160.3563 H   0  0  0  0  0  0  0  0  0  0  0  0
  152.8965  136.3549  159.3419 H   0  0  0  0  0  0  0  0  0  0  0  0
  151.7687  137.6047  159.8258 H   0  0  0  0  0  0  0  0  0  0  0  0
  152.1419  139.4548  156.1056 H   0  0  0  0  0  0  0  0  0  0  0  0
  153.2150  138.2265  155.4457 H   0  0  0  0  0  0  0  0  0  0  0  0
  151.1437  138.3574  154.1194 H   0  0  0  0  0  0  0  0  0  0  0  0
  149.7083  135.8924  153.7734 H   0  0  0  0  0  0  0  0  0  0  0  0
  148.8743  133.6822  153.5952 H   0  0  0  0  0  0  0  0  0  0  0  0
  148.1725  136.3841  155.6234 H   0  0  0  0  0  0  0  0  0  0  0  0
  149.7543  138.4634  156.6772 H   0  0  0  0  0  0  0  0  0  0  0  0
  148.2594  140.8814  152.7686 H   0  0  0  0  0  0  0  0  0  0  0  0
  147.1429  140.0245  153.8102 H   0  0  0  0  0  0  0  0  0  0  0  0
  146.7980  142.4680  154.0679 H   0  0  0  0  0  0  0  0  0  0  0  0
  148.4911  142.7076  154.4811 H   0  0  0  0  0  0  0  0  0  0  0  0
  147.4292  141.8238  155.5792 H   0  0  0  0  0  0  0  0  0  0  0  0
  1  2  1  0  0  0  0
  1 27  1  0  0  0  0
  1 28  1  0  0  0  0
  1 29  1  0  0  0  0
  2  3  1  0  0  0  0
  2 30  1  0  0  0  0
  2 31  1  0  0  0  0
  3  4  2  0  0  0  0
  3  5  1  0  0  0  0
  5  6  1  0  0  0  0
  6  7  1  0  0  0  0
  6 32  1  0  0  0  0
  6 33  1  0  0  0  0
  7 21  1  0  0  0  0
  7  8  1  0  0  0  0
  7 34  1  0  0  0  0
  8  9  1  0  0  0  0
  9 10  1  0  0  0  0
  9 19  1  0  0  0  0
  9 35  1  0  0  0  0
 10 17  1  0  0  0  0
 10 11  1  0  0  0  0
 11 12  2  0  0  0  0
 11 36  1  0  0  0  0
 12 13  1  0  0  0  0
 12 14  1  0  0  0  0
 14 15  2  0  0  0  0
 14 16  1  0  0  0  0
 16 17  1  0  0  0  0
 17 18  2  0  0  0  0
 19 20  1  0  0  0  0
 19 21  1  0  0  0  0
 19 37  1  0  0  0  0
 21 22  1  0  0  0  0
 21 38  1  0  0  0  0
 22 23  1  0  0  0  0
 23 24  2  0  0  0  0
 23 25  1  0  0  0  0
 25 26  1  0  0  0  0
 25 39  1  0  0  0  0
 25 40  1  0  0  0  0
 26 41  1  0  0  0  0
 26 42  1  0  0  0  0
 26 43  1  0  0  0  0
M  CHG  1  16  -1
M  END
> <s_m_source_file>
AV-unprocessed.smi

> <i_m_source_file_index>
37

> <i_lp_mmshare_version>
43012

> <i_f3d_flags>
0

> <s_epik_input>
W0NIM11bQ0gyXUMoPU8pT1tDSDJdW0NAQEhdMU9bQ0BASF0objJbY0hdYyhGKWMoPU8pW25IXWMyPU8pW0NAQEhdKEJyKVtDQEhdMU9DKD1PKVtDSDJdW0NIM10=

> <s_epik_cmdline>
J2VwaWtfcHl0aG9uJywgJy1waCcsICc3LjAnLCAnLXRuJywgJzgnLCAnLW1hJywgJzIwMCcsICctbWV0YWxfYmluZGluZycsICctaW1hZScsICc8aW5maWxlLm1hZT4nLCAnLW9tYWUnLCAnPG91dGZpbGUubWFlPic=

> <r_epik_Ionization_Penalty>
1.08158

> <r_epik_Ionization_Penalty_Charging>
9.05154e-09

> <r_epik_Ionization_Penalty_Neutral>
1.08158

> <r_epik_State_Penalty>
1.13706

> <r_epik_Charging_Adjusted_Penalty>
1.13706

> <i_epik_Tot_Q>
-1

> <i_epik_Tot_abs_Q>
1

> <r_epik_Metal_State_Penalty>
0.00343535

> <b_epik_Metal_Only>
0

> <s_epik_Chemistry_Notes>
This compound has an ester and may undergo hydrolysis at high or low pH. This compound contains an acetal/aminal-like group ( X-CH(R)-Y where X, Y are N, S, or O) that may be acid/base labile, releasing an aldehyde.

> <s_lp_Force_Field>
OPLS_2005

> <r_lp_Energy>
31.9934

> <b_lp_Chiralities_Consistent>
1

> <s_lp_Variant>
AV-unprocessed.smi:37-26

> <Gold.Version>
5.8.1

> <Gold.Id.Protein>
6NUR|6NUR_protein|mol2

> <Gold.PLP.Fitness>
44.4090

> <Gold.PLP.PLP>
-36.9672

> <Gold.PLP.part.hbond>
-4.0111

> <Gold.PLP.part.metal>
0.0000

> <Gold.PLP.part.buried>
-3.9352

> <Gold.PLP.part.nonpolar>
-29.1908

> <Gold.PLP.part.repulsive>
0.3770

> <Gold.PLP.ligand.clash>
0.0638

> <Gold.PLP.ligand.torsion>
0.8155

> <Gold.PLP.Chemscore.Hbond>
2.9600

> <Gold.PLP.Chemscore.CHOScore>
0.0000

> <Gold.PLP.Chemscore.Metal>
0.0000

> <Gold.Chemscore.Hbonds>
donor molecule, donor type, donor heavy atom, donor atom, acceptor molecule, acceptor atom, score
      P1  H  7989  7998       L1    24  0.94
      P1  H  7997  8009       L1     4  1.00
      P1  H 10752 10765       L1     8  1.00

> <Gold.PLP.Chemscore.Internal.Correction>
0.2567

> <Gold.Rescore>
     Score         DG    S(hbond)    S(metal)    S(lipo)     H(rot)  DE(clash)    DE(int)     intcor
      8.06     -13.76       2.95        0.00      58.10       3.27       0.18       5.52       ----

> <Gold.Chemscore.Fitness>
8.0609

> <Gold.Chemscore.DG>
-13.7613

> <Gold.Chemscore.ZeroCoef>
-5.4800

> <Gold.Chemscore.Hbond>
2.9481

> <Gold.Chemscore.Metal>
0.0000

> <Gold.Chemscore.Lipo>
58.1039

> <Gold.Chemscore.Internal_Hbond>
0.0000

> <Gold.Chemscore.DEClash>
0.1816

> <Gold.Chemscore.DEInternal>
5.5188

> <Gold.Chemscore.Rot>
3.2669

> <Gold.Chemscore.Internal.Correction>
   9.000000E+99

> <Gold.Chemscore.Hbonds>
donor molecule, donor type, donor heavy atom, donor atom, acceptor molecule, acceptor atom, score
      P1  H  7989  7998       L1    24  0.91
      P1  H  7997  8009       L1     4  0.99
      P1  H 10752 10765       L1     8  1.00

> <Gold.Chemscore.Hbond.Weighted>
-9.8465

> <Gold.Chemscore.Metal.Weighted>
-0.0000

> <Gold.Chemscore.Lipo.Weighted>
-6.7982

> <Gold.Chemscore.Internal_Hbond.Weighted>
0.0000

> <Gold.Chemscore.DEClash.Weighted>
0.1816

> <Gold.Chemscore.DEInternal.Weighted>
5.5188

> <Gold.Chemscore.Rot.Weighted>
8.3634

> <Gold.Chemscore.Internal.Correction.Weighted>
   9.000000E+99

> <Gold.Protein.RotatedTorsions>
[ 6907 6896 6895 6894 ] final  -59.71 input  -60.11 | X-H torsion
[ 7974 7965 7964 7962 ] final -177.15 input  175.53 | X-H torsion
[ 8008 7997 7996 7995 ] final  137.27 input   59.86 | X-H torsion
[ 10167 10162 10161 10158 ] final  100.12 input  -65.29 | X-H torsion
[ 10718 10713 10712 10709 ] final  167.14 input   66.30 | X-H torsion
[ 10763 10752 10751 10750 ] final  178.70 input  -60.55 | X-H torsion
[ 11005 11000 10999 10996 ] final  -64.00 input  -57.11 | X-H torsion

> <Gold.Protein.ActiveResidues>
 VAL166  LYS551  ARG553  GLY616  TRP617  ASP618  TYR619  PRO620  LYS621  CYS622 
 ASP623  PHE694  ASN695  SER759  ASP760  ASP761  ALA762  ILE779  LEU786  VAL792 
 PHE793  MET794  SER795  GLU796  ALA797  LYS798  CYS799  TRP800  GLU811  SER814 

> <Gold.Protein.RotatedAtoms>
  150.7910  134.6932  159.6508 H   0  0  0  0  0  0  0  0  0  0  0  0  # atno 6907 bound_to 6896
  152.4015  134.6275  160.0077 H   0  0  0  0  0  0  0  0  0  0  0  0  # atno 6908 bound_to 6896
  151.6545  133.3282  159.3196 H   0  0  0  0  0  0  0  0  0  0  0  0  # atno 6909 bound_to 6896
  144.7127  140.1063  143.6413 H   0  0  0  0  0  0  0  0  0  0  0  0  # atno 7974 bound_to 7965
  156.3002  140.2424  156.3882 H   0  0  0  0  0  0  0  0  0  0  0  0  # atno 8008 bound_to 7997
  154.8638  140.0419  157.1701 H   0  0  0  0  0  0  0  0  0  0  0  0  # atno 8009 bound_to 7997
  154.8868  140.2957  155.5397 H   0  0  0  0  0  0  0  0  0  0  0  0  # atno 8010 bound_to 7997
  139.7556  144.6970  151.0367 H   0  0  0  0  0  0  0  0  0  0  0  0  # atno 10167 bound_to 10162
  157.0558  131.0326  151.2664 H   0  0  0  0  0  0  0  0  0  0  0  0  # atno 10718 bound_to 10713
  154.5110  135.2788  155.1342 H   0  0  0  0  0  0  0  0  0  0  0  0  # atno 10763 bound_to 10752
  154.2938  135.6261  153.5400 H   0  0  0  0  0  0  0  0  0  0  0  0  # atno 10764 bound_to 10752
  152.9919  135.5680  154.5576 H   0  0  0  0  0  0  0  0  0  0  0  0  # atno 10765 bound_to 10752
  141.1411  133.6659  156.5766 H   0  0  0  0  0  0  0  0  0  0  0  0  # atno 11005 bound_to 11000
  145.9494  139.2723  143.1221 LP  0  0  0  0  0  0  0  0  0  0  0  0  # atno 17320 bound_to 7965
  145.9339  140.9028  143.0342 LP  0  0  0  0  0  0  0  0  0  0  0  0  # atno 17321 bound_to 7965
  140.7802  143.4757  151.0086 LP  0  0  0  0  0  0  0  0  0  0  0  0  # atno 17342 bound_to 10162
  139.8444  143.7521  152.3179 LP  0  0  0  0  0  0  0  0  0  0  0  0  # atno 17343 bound_to 10162
  157.4994  130.7870  149.7588 LP  0  0  0  0  0  0  0  0  0  0  0  0  # atno 17370 bound_to 10713
  155.9993  130.3889  150.2668 LP  0  0  0  0  0  0  0  0  0  0  0  0  # atno 17371 bound_to 10713
  140.3871  134.7473  157.4698 LP  0  0  0  0  0  0  0  0  0  0  0  0  # atno 17394 bound_to 11000
  140.0594  134.6017  155.8767 LP  0  0  0  0  0  0  0  0  0  0  0  0  # atno 17395 bound_to 11000

$$$$
