AV-unprocessed.smi:54|AV-procd|sdf|532|dock8
  -GOLD-   2262016413D 1   1.00000     0.00000
 Structure written by MMmdl.
 44 46  0  0  0  0  0  0  0  0  1 V2000
  152.3550  143.9629  160.3949 C   0  0  0  0  0  0  0  0  0  0  0  0
  152.3796  142.4297  160.4988 C   0  0  0  0  0  0  0  0  0  0  0  0
  153.7287  141.9293  161.0411 C   0  0  0  0  0  0  0  0  0  0  0  0
  152.0722  141.7915  159.1394 C   0  0  0  0  0  0  0  0  0  0  0  0
  151.7620  142.4659  158.1567 O   0  0  0  0  0  0  0  0  0  0  0  0
  152.1675  140.3430  159.0958 N   0  0  0  0  0  0  0  0  0  0  0  0
  151.9640  139.5387  158.0268 C   0  0  0  0  0  0  0  0  0  0  0  0
  150.8987  139.6301  157.2434 N   0  0  0  0  0  0  0  0  0  0  0  0
  150.8766  138.7387  156.2072 C   0  0  0  0  0  0  0  0  0  0  0  0
  151.8352  137.7908  155.9170 C   0  0  0  0  0  0  0  0  0  0  0  0
  151.4672  137.0669  154.7886 N   0  0  0  0  0  0  0  0  0  0  0  0
  150.3239  137.5870  154.4383 C   0  0  0  0  0  0  0  0  0  0  0  0
  149.8893  138.6056  155.2544 N   0  0  0  0  0  0  0  0  0  0  0  0
  148.6399  139.4284  155.1649 C   0  0  1  0  0  0  0  0  0  0  0  0
  148.3048  139.8213  156.4628 O   0  0  0  0  0  0  0  0  0  0  0  0
  148.2782  141.2440  156.5783 C   0  0  1  0  0  0  0  0  0  0  0  0
  148.7208  141.6929  157.9822 C   0  0  0  0  0  0  0  0  0  0  0  0
  149.0308  143.0698  157.9748 O   0  0  0  0  0  0  0  0  0  0  0  0
  149.1421  141.7527  155.4151 C   0  0  1  0  0  0  0  0  0  0  0  0
  150.5145  141.8111  155.7687 O   0  0  0  0  0  0  0  0  0  0  0  0
  148.8557  140.7120  154.3421 C   0  0  1  0  0  0  0  0  0  0  0  0
  149.8635  140.6425  153.3478 O   0  0  0  0  0  0  0  0  0  0  0  0
  152.9973  137.6838  156.7509 C   0  0  0  0  0  0  0  0  0  0  0  0
  153.9442  136.9078  156.6424 O   0  0  0  0  0  0  0  0  0  0  0  0
  152.9820  138.6124  157.7999 N   0  0  0  0  0  0  0  0  0  0  0  0
  147.8917  138.7553  154.7447 H   0  0  0  0  0  0  0  0  0  0  0  0
  147.2530  141.5687  156.3908 H   0  0  0  0  0  0  0  0  0  0  0  0
  148.8363  142.7502  155.0972 H   0  0  0  0  0  0  0  0  0  0  0  0
  147.9056  140.9519  153.8626 H   0  0  0  0  0  0  0  0  0  0  0  0
  151.3985  144.3194  160.0106 H   0  0  0  0  0  0  0  0  0  0  0  0
  153.1390  144.3328  159.7327 H   0  0  0  0  0  0  0  0  0  0  0  0
  152.5053  144.4216  161.3725 H   0  0  0  0  0  0  0  0  0  0  0  0
  151.6020  142.1254  161.2009 H   0  0  0  0  0  0  0  0  0  0  0  0
  153.7544  140.8403  161.0997 H   0  0  0  0  0  0  0  0  0  0  0  0
  153.9121  142.3147  162.0443 H   0  0  0  0  0  0  0  0  0  0  0  0
  154.5584  142.2481  160.4090 H   0  0  0  0  0  0  0  0  0  0  0  0
  152.3894  139.8889  159.9694 H   0  0  0  0  0  0  0  0  0  0  0  0
  149.7712  137.2395  153.5780 H   0  0  0  0  0  0  0  0  0  0  0  0
  147.9540  141.4821  158.7279 H   0  0  0  0  0  0  0  0  0  0  0  0
  149.6231  141.1584  158.2811 H   0  0  0  0  0  0  0  0  0  0  0  0
  148.6645  143.4558  157.1938 H   0  0  0  0  0  0  0  0  0  0  0  0
  150.8109  140.9333  155.9558 H   0  0  0  0  0  0  0  0  0  0  0  0
  149.5826  140.0288  152.6858 H   0  0  0  0  0  0  0  0  0  0  0  0
  153.7712  138.5947  158.4288 H   0  0  0  0  0  0  0  0  0  0  0  0
  1  2  1  0  0  0  0
  1 30  1  0  0  0  0
  1 31  1  0  0  0  0
  1 32  1  0  0  0  0
  2  3  1  0  0  0  0
  2  4  1  0  0  0  0
  2 33  1  0  0  0  0
  3 34  1  0  0  0  0
  3 35  1  0  0  0  0
  3 36  1  0  0  0  0
  4  5  2  0  0  0  0
  4  6  1  0  0  0  0
  6 37  1  0  0  0  0
  6  7  1  0  0  0  0
  7 25  1  0  0  0  0
  7  8  2  0  0  0  0
  8  9  1  0  0  0  0
  9 13  1  0  0  0  0
  9 10  2  0  0  0  0
 10 11  1  0  0  0  0
 10 23  1  0  0  0  0
 11 12  2  0  0  0  0
 12 13  1  0  0  0  0
 12 38  1  0  0  0  0
 13 14  1  0  0  0  0
 14 26  1  0  0  0  0
 14 21  1  0  0  0  0
 14 15  1  0  0  0  0
 15 16  1  0  0  0  0
 16 27  1  0  0  0  0
 16 17  1  0  0  0  0
 16 19  1  0  0  0  0
 17 18  1  0  0  0  0
 17 39  1  0  0  0  0
 17 40  1  0  0  0  0
 18 41  1  0  0  0  0
 19 28  1  0  0  0  0
 19 20  1  0  0  0  0
 19 21  1  0  0  0  0
 20 42  1  0  0  0  0
 21 29  1  0  0  0  0
 21 22  1  0  0  0  0
 22 43  1  0  0  0  0
 23 24  2  0  0  0  0
 23 25  1  0  0  0  0
 25 44  1  0  0  0  0
M  END
> <s_m_source_file>
AV-unprocessed.smi

> <i_m_source_file_index>
54

> <i_lp_mmshare_version>
43012

> <i_f3d_flags>
0

> <s_epik_input>
W0NIM11bQ0hdKFtDSDNdKUMoPU8pW05IXWMobjEpW25IXWMoPU8pYyhjMTIpbltjSF1uMltDQEBIXTNPW0NASF0oW0NIMl1bT0hdKVtDQEBIXShbT0hdKVtDQEhdM1tPSF0=

> <s_epik_cmdline>
J2VwaWtfcHl0aG9uJywgJy1waCcsICc3LjAnLCAnLXRuJywgJzgnLCAnLW1hJywgJzIwMCcsICctbWV0YWxfYmluZGluZycsICctaW1hZScsICc8aW5maWxlLm1hZT4nLCAnLW9tYWUnLCAnPG91dGZpbGUubWFlPic=

> <r_lp_tautomer_probability>
0.85571

> <r_epik_Ionization_Penalty>
0.0316551

> <r_epik_Ionization_Penalty_Charging>
0.0316043

> <r_epik_Ionization_Penalty_Neutral>
5.07097e-05

> <r_epik_State_Penalty>
3.15494e-07

> <r_epik_Charging_Adjusted_Penalty>
0.0316047

> <i_epik_Tot_Q>
0

> <i_epik_Tot_abs_Q>
0

> <r_epik_Metal_State_Penalty>
0.421206

> <b_epik_Metal_Only>
0

> <s_epik_Chemistry_Notes>
This compound contains an acetal/aminal-like group ( X-CH(R)-Y where X, Y are N, S, or O) that may be acid/base labile, releasing an aldehyde.

> <s_lp_Force_Field>
OPLS_2005

> <r_lp_Energy>
45.6479

> <b_lp_Chiralities_Consistent>
1

> <s_lp_Variant>
AV-unprocessed.smi:54-4

> <Gold.Version>
5.8.1

> <Gold.Id.Protein>
6NUR|6NUR_protein|mol2

> <Gold.PLP.Fitness>
46.1201

> <Gold.PLP.PLP>
-31.6471

> <Gold.PLP.part.hbond>
-5.1449

> <Gold.PLP.part.metal>
0.0000

> <Gold.PLP.part.buried>
-1.2745

> <Gold.PLP.part.nonpolar>
-25.5900

> <Gold.PLP.part.repulsive>
0.3991

> <Gold.PLP.ligand.clash>
0.0000

> <Gold.PLP.ligand.torsion>
1.3821

> <Gold.PLP.Chemscore.Hbond>
4.5974

> <Gold.PLP.Chemscore.CHOScore>
1.0000

> <Gold.PLP.Chemscore.Metal>
0.0000

> <Gold.Chemscore.Hbonds>
donor molecule, donor type, donor heavy atom, donor atom, acceptor molecule, acceptor atom, score
      L1  H    18    41       P1  8028  0.91
      L1  H    22    43       P1  7957  0.67
      P1  H  7989  7998       L1    22  0.35
      P1  H  8011  8017       L1    22  0.99
      P1  H 10752 10763       L1    24  0.54
      P1  H 10752 10765       L1    11  0.81
      L1  C    12    38       P1  7948  1.00

> <Gold.PLP.Chemscore.Internal.Correction>
0.4449

> <Gold.Rescore>
     Score         DG    S(hbond)    S(metal)    S(lipo)     H(rot)  DE(clash)    DE(int)     intcor
      8.57     -12.21       3.07        0.00      58.62       4.05       0.06       3.57       ----

> <Gold.Chemscore.Fitness>
8.5742

> <Gold.Chemscore.DG>
-12.2114

> <Gold.Chemscore.ZeroCoef>
-5.4800

> <Gold.Chemscore.Hbond>
3.0655

> <Gold.Chemscore.Metal>
0.0000

> <Gold.Chemscore.Lipo>
58.6234

> <Gold.Chemscore.Internal_Hbond>
0.0000

> <Gold.Chemscore.DEClash>
0.0626

> <Gold.Chemscore.DEInternal>
3.5747

> <Gold.Chemscore.Rot>
4.0493

> <Gold.Chemscore.Internal.Correction>
   9.000000E+99

> <Gold.Chemscore.Hbonds>
donor molecule, donor type, donor heavy atom, donor atom, acceptor molecule, acceptor atom, score
      L1  H    18    41       P1  8028  0.19
      L1  H    22    43       P1  7957  0.61
      P1  H  7989  7998       L1    22  0.33
      P1  H  8011  8017       L1    22  0.19
      P1  H 10752 10763       L1    24  0.51
      P1  H 10752 10765       L1    11  0.62

> <Gold.Chemscore.Hbond.Weighted>
-10.2387

> <Gold.Chemscore.Metal.Weighted>
-0.0000

> <Gold.Chemscore.Lipo.Weighted>
-6.8589

> <Gold.Chemscore.Internal_Hbond.Weighted>
0.0000

> <Gold.Chemscore.DEClash.Weighted>
0.0626

> <Gold.Chemscore.DEInternal.Weighted>
3.5747

> <Gold.Chemscore.Rot.Weighted>
10.3662

> <Gold.Chemscore.Internal.Correction.Weighted>
   9.000000E+99

> <Gold.Protein.RotatedTorsions>
[ 6907 6896 6895 6894 ] final   99.80 input  -60.11 | X-H torsion
[ 7974 7965 7964 7962 ] final   98.45 input  175.53 | X-H torsion
[ 8008 7997 7996 7995 ] final   51.79 input   59.86 | X-H torsion
[ 10167 10162 10161 10158 ] final -167.12 input  -65.29 | X-H torsion
[ 10718 10713 10712 10709 ] final  -92.60 input   66.30 | X-H torsion
[ 10763 10752 10751 10750 ] final  159.05 input  -60.55 | X-H torsion
[ 11005 11000 10999 10996 ] final   24.04 input  -57.11 | X-H torsion

> <Gold.Protein.ActiveResidues>
 VAL166  LYS551  ARG553  GLY616  TRP617  ASP618  TYR619  PRO620  LYS621  CYS622 
 ASP623  PHE694  ASN695  SER759  ASP760  ASP761  ALA762  ILE779  LEU786  VAL792 
 PHE793  MET794  SER795  GLU796  ALA797  LYS798  CYS799  TRP800  GLU811  SER814 

> <Gold.Protein.RotatedAtoms>
  152.5385  134.0373  159.8051 H   0  0  0  0  0  0  0  0  0  0  0  0  # atno 6907 bound_to 6896
  151.0535  133.5596  159.2647 H   0  0  0  0  0  0  0  0  0  0  0  0  # atno 6908 bound_to 6896
  151.2522  135.0633  159.9120 H   0  0  0  0  0  0  0  0  0  0  0  0  # atno 6909 bound_to 6896
  145.4120  139.2332  143.3243 H   0  0  0  0  0  0  0  0  0  0  0  0  # atno 7974 bound_to 7965
  155.4411  140.3454  155.4290 H   0  0  0  0  0  0  0  0  0  0  0  0  # atno 8008 bound_to 7997
  156.1278  140.1505  156.9140 H   0  0  0  0  0  0  0  0  0  0  0  0  # atno 8009 bound_to 7997
  154.4871  140.0852  156.7492 H   0  0  0  0  0  0  0  0  0  0  0  0  # atno 8010 bound_to 7997
  139.6070  144.0893  152.1803 H   0  0  0  0  0  0  0  0  0  0  0  0  # atno 10167 bound_to 10162
  156.0004  130.4994  150.5650 H   0  0  0  0  0  0  0  0  0  0  0  0  # atno 10718 bound_to 10713
  154.2257  135.2780  155.2908 H   0  0  0  0  0  0  0  0  0  0  0  0  # atno 10763 bound_to 10752
  154.5665  135.5631  153.7059 H   0  0  0  0  0  0  0  0  0  0  0  0  # atno 10764 bound_to 10752
  153.0031  135.6311  154.2397 H   0  0  0  0  0  0  0  0  0  0  0  0  # atno 10765 bound_to 10752
  140.3630  134.2104  155.7671 H   0  0  0  0  0  0  0  0  0  0  0  0  # atno 11005 bound_to 11000
  146.2700  140.4833  142.8818 LP  0  0  0  0  0  0  0  0  0  0  0  0  # atno 17320 bound_to 7965
  144.8302  140.6695  143.6296 LP  0  0  0  0  0  0  0  0  0  0  0  0  # atno 17321 bound_to 7965
  140.0503  144.5938  150.7341 LP  0  0  0  0  0  0  0  0  0  0  0  0  # atno 17342 bound_to 10162
  140.7292  143.2669  151.4014 LP  0  0  0  0  0  0  0  0  0  0  0  0  # atno 17343 bound_to 10162
  157.3554  131.0740  151.1680 LP  0  0  0  0  0  0  0  0  0  0  0  0  # atno 17370 bound_to 10713
  157.2482  130.6601  149.5920 LP  0  0  0  0  0  0  0  0  0  0  0  0  # atno 17371 bound_to 10713
  141.1978  133.8050  157.0611 LP  0  0  0  0  0  0  0  0  0  0  0  0  # atno 17394 bound_to 11000
  140.0611  134.9754  157.1306 LP  0  0  0  0  0  0  0  0  0  0  0  0  # atno 17395 bound_to 11000

$$$$
