AV-unprocessed.smi:2452|AV-procd|sdf|9686|dock7
  -GOLD-   2272013323D 1   1.00000     0.00000
 Structure written by MMmdl.
 34 35  0  0  0  0  0  0  0  0  1 V2000
  151.1837  138.1062  154.3838 C   0  0  0  0  0  0  0  0  0  0  0  0
  150.2864  139.3096  154.3471 C   0  0  0  0  0  0  0  0  0  0  0  0
  150.7070  140.4639  154.8378 N   0  0  0  0  0  0  0  0  0  0  0  0
  149.6502  141.3717  154.6691 O   0  0  0  0  0  0  0  0  0  0  0  0
  148.6048  140.7379  154.0714 C   0  0  0  0  0  0  0  0  0  0  0  0
  147.3704  141.5537  153.8699 C   0  0  0  0  0  0  0  0  0  0  0  0
  148.9724  139.4415  153.8264 C   0  0  0  0  0  0  0  0  0  0  0  0
  148.2256  138.3816  153.2507 N   0  0  0  0  0  0  0  0  0  0  0  0
  146.8921  138.2316  153.2501 C   0  0  0  0  0  0  0  0  0  0  0  0
  146.0907  139.0315  153.7323 O   0  0  0  0  0  0  0  0  0  0  0  0
  146.5292  137.0997  152.6319 N   0  0  0  0  0  0  0  0  0  0  0  0
  145.1543  136.6433  152.4620 C   0  0  0  0  0  0  0  0  0  0  0  0
  145.0981  135.1967  151.9433 C   0  0  1  0  0  0  0  0  0  0  0  0
  143.8713  134.4181  152.4142 C   0  0  0  0  0  0  0  0  0  0  0  0
  143.6725  133.3712  151.3277 C   0  0  0  0  0  0  0  0  0  0  0  0
  144.5611  133.8510  150.1763 C   0  0  0  0  0  0  0  0  0  0  0  0
  144.9477  135.1704  150.5328 O   0  0  0  0  0  0  0  0  0  0  0  0
  150.6082  137.1816  154.3377 H   0  0  0  0  0  0  0  0  0  0  0  0
  151.7750  138.0797  155.2997 H   0  0  0  0  0  0  0  0  0  0  0  0
  151.8744  138.1095  153.5404 H   0  0  0  0  0  0  0  0  0  0  0  0
  146.4750  140.9506  154.0208 H   0  0  0  0  0  0  0  0  0  0  0  0
  147.3401  141.9674  152.8621 H   0  0  0  0  0  0  0  0  0  0  0  0
  147.3332  142.3848  154.5743 H   0  0  0  0  0  0  0  0  0  0  0  0
  148.7558  137.7083  152.7174 H   0  0  0  0  0  0  0  0  0  0  0  0
  147.2545  136.5025  152.2631 H   0  0  0  0  0  0  0  0  0  0  0  0
  144.6189  136.7255  153.4094 H   0  0  0  0  0  0  0  0  0  0  0  0
  144.6527  137.3135  151.7634 H   0  0  0  0  0  0  0  0  0  0  0  0
  146.0036  134.6510  152.2162 H   0  0  0  0  0  0  0  0  0  0  0  0
  144.0071  133.9828  153.4047 H   0  0  0  0  0  0  0  0  0  0  0  0
  142.9992  135.0725  152.4516 H   0  0  0  0  0  0  0  0  0  0  0  0
  143.9785  132.3796  151.6633 H   0  0  0  0  0  0  0  0  0  0  0  0
  142.6246  133.3167  151.0308 H   0  0  0  0  0  0  0  0  0  0  0  0
  145.4523  133.2269  150.0944 H   0  0  0  0  0  0  0  0  0  0  0  0
  144.0470  133.8370  149.2148 H   0  0  0  0  0  0  0  0  0  0  0  0
  1  2  1  0  0  0  0
  1 18  1  0  0  0  0
  1 19  1  0  0  0  0
  1 20  1  0  0  0  0
  2  7  1  0  0  0  0
  2  3  2  0  0  0  0
  3  4  1  0  0  0  0
  4  5  1  0  0  0  0
  5  6  1  0  0  0  0
  5  7  2  0  0  0  0
  6 21  1  0  0  0  0
  6 22  1  0  0  0  0
  6 23  1  0  0  0  0
  7  8  1  0  0  0  0
  8  9  1  0  0  0  0
  8 24  1  0  0  0  0
  9 10  2  0  0  0  0
  9 11  1  0  0  0  0
 11 12  1  0  0  0  0
 11 25  1  0  0  0  0
 12 13  1  0  0  0  0
 12 26  1  0  0  0  0
 12 27  1  0  0  0  0
 13 17  1  0  0  0  0
 13 14  1  0  0  0  0
 13 28  1  0  0  0  0
 14 15  1  0  0  0  0
 14 29  1  0  0  0  0
 14 30  1  0  0  0  0
 15 16  1  0  0  0  0
 15 31  1  0  0  0  0
 15 32  1  0  0  0  0
 16 17  1  0  0  0  0
 16 33  1  0  0  0  0
 16 34  1  0  0  0  0
M  END
> <s_m_source_file>
AV-unprocessed.smi

> <i_m_source_file_index>
2452

> <i_lp_mmshare_version>
43012

> <i_f3d_flags>
0

> <s_epik_input>
W0NIM11jMW5vYyhbQ0gzXSljMVtOSF1DKD1PKVtOSF1bQ0gyXVtDQEBIXTJbQ0gyXVtDSDJdW0NIMl1PMg==

> <s_epik_cmdline>
J2VwaWtfcHl0aG9uJywgJy1waCcsICc3LjAnLCAnLXRuJywgJzgnLCAnLW1hJywgJzIwMCcsICctbWV0YWxfYmluZGluZycsICctaW1hZScsICc8aW5maWxlLm1hZT4nLCAnLW9tYWUnLCAnPG91dGZpbGUubWFlPic=

> <r_lp_tautomer_probability>
1

> <r_epik_Ionization_Penalty>
3.28451e-05

> <r_epik_Ionization_Penalty_Charging>
0

> <r_epik_Ionization_Penalty_Neutral>
3.28451e-05

> <r_epik_State_Penalty>
-0

> <r_epik_Charging_Adjusted_Penalty>
0

> <i_epik_Tot_Q>
0

> <i_epik_Tot_abs_Q>
0

> <r_epik_Metal_State_Penalty>
-0

> <b_epik_Metal_Only>
0

> <s_lp_Force_Field>
OPLS_2005

> <r_lp_Energy>
18.1661

> <b_lp_Chiralities_Consistent>
1

> <s_lp_Variant>
AV-unprocessed.smi:2452-2

> <Gold.Version>
5.8.1

> <Gold.Id.Protein>
6NUR|6NUR_protein|mol2

> <Gold.PLP.Fitness>
36.3030

> <Gold.PLP.PLP>
-29.0748

> <Gold.PLP.part.hbond>
-5.0627

> <Gold.PLP.part.metal>
0.0000

> <Gold.PLP.part.buried>
-0.9704

> <Gold.PLP.part.nonpolar>
-23.6240

> <Gold.PLP.part.repulsive>
0.8041

> <Gold.PLP.ligand.clash>
0.0000

> <Gold.PLP.ligand.torsion>
0.6573

> <Gold.PLP.Chemscore.Hbond>
2.8000

> <Gold.PLP.Chemscore.CHOScore>
0.0000

> <Gold.PLP.Chemscore.Metal>
0.0000

> <Gold.Chemscore.Hbonds>
donor molecule, donor type, donor heavy atom, donor atom, acceptor molecule, acceptor atom, score
      L1  H     8    24       P1  7948  1.00
      L1  H    11    25       P1  7948  1.00
      P1  H  7989  7998       L1     3  0.76

> <Gold.PLP.Chemscore.Internal.Correction>
0.1429

> <Gold.Rescore>
     Score         DG    S(hbond)    S(metal)    S(lipo)     H(rot)  DE(clash)    DE(int)     intcor
     13.81     -15.95       1.91        0.00      61.98       1.23       0.31       1.83       ----

> <Gold.Chemscore.Fitness>
13.8120

> <Gold.Chemscore.DG>
-15.9494

> <Gold.Chemscore.ZeroCoef>
-5.4800

> <Gold.Chemscore.Hbond>
1.9091

> <Gold.Chemscore.Metal>
0.0000

> <Gold.Chemscore.Lipo>
61.9773

> <Gold.Chemscore.Internal_Hbond>
0.0000

> <Gold.Chemscore.DEClash>
0.3120

> <Gold.Chemscore.DEInternal>
1.8254

> <Gold.Chemscore.Rot>
1.2337

> <Gold.Chemscore.Internal.Correction>
   9.000000E+99

> <Gold.Chemscore.Hbonds>
donor molecule, donor type, donor heavy atom, donor atom, acceptor molecule, acceptor atom, score
      L1  H     8    24       P1  7948  0.98
      L1  H    11    25       P1  7948  0.95
      P1  H  7989  7998       L1     3  0.02

> <Gold.Chemscore.Hbond.Weighted>
-6.3763

> <Gold.Chemscore.Metal.Weighted>
-0.0000

> <Gold.Chemscore.Lipo.Weighted>
-7.2513

> <Gold.Chemscore.Internal_Hbond.Weighted>
0.0000

> <Gold.Chemscore.DEClash.Weighted>
0.3120

> <Gold.Chemscore.DEInternal.Weighted>
1.8254

> <Gold.Chemscore.Rot.Weighted>
3.1582

> <Gold.Chemscore.Internal.Correction.Weighted>
   9.000000E+99

> <Gold.Protein.RotatedTorsions>
[ 6907 6896 6895 6894 ] final -126.35 input  -60.11 | X-H torsion
[ 7974 7965 7964 7962 ] final  124.76 input  175.53 | X-H torsion
[ 8008 7997 7996 7995 ] final   44.72 input   59.86 | X-H torsion
[ 10167 10162 10161 10158 ] final  157.09 input  -65.29 | X-H torsion
[ 10718 10713 10712 10709 ] final   40.94 input   66.30 | X-H torsion
[ 10763 10752 10751 10750 ] final  -43.08 input  -60.55 | X-H torsion
[ 11005 11000 10999 10996 ] final  -49.57 input  -57.11 | X-H torsion

> <Gold.Protein.ActiveResidues>
 VAL166  LYS551  ARG553  GLY616  TRP617  ASP618  TYR619  PRO620  LYS621  CYS622 
 ASP623  PHE694  ASN695  SER759  ASP760  ASP761  ALA762  ILE779  LEU786  VAL792 
 PHE793  MET794  SER795  GLU796  ALA797  LYS798  CYS799  TRP800  GLU811  SER814 

> <Gold.Protein.RotatedAtoms>
  150.8960  133.7180  159.2891 H   0  0  0  0  0  0  0  0  0  0  0  0  # atno 6907 bound_to 6896
  151.4715  135.1044  159.9762 H   0  0  0  0  0  0  0  0  0  0  0  0  # atno 6908 bound_to 6896
  152.4849  133.8299  159.7153 H   0  0  0  0  0  0  0  0  0  0  0  0  # atno 6909 bound_to 6896
  145.0807  139.3659  143.4911 H   0  0  0  0  0  0  0  0  0  0  0  0  # atno 7974 bound_to 7965
  155.3240  140.3398  155.4240 H   0  0  0  0  0  0  0  0  0  0  0  0  # atno 8008 bound_to 7997
  156.1895  140.1692  156.8157 H   0  0  0  0  0  0  0  0  0  0  0  0  # atno 8009 bound_to 7997
  154.5425  140.0722  156.8517 H   0  0  0  0  0  0  0  0  0  0  0  0  # atno 8010 bound_to 7997
  139.4822  144.4949  151.8254 H   0  0  0  0  0  0  0  0  0  0  0  0  # atno 10167 bound_to 10162
  157.3879  130.7790  149.7246 H   0  0  0  0  0  0  0  0  0  0  0  0  # atno 10718 bound_to 10713
  153.9896  135.6707  153.4753 H   0  0  0  0  0  0  0  0  0  0  0  0  # atno 10763 bound_to 10752
  153.0711  135.4974  154.8303 H   0  0  0  0  0  0  0  0  0  0  0  0  # atno 10764 bound_to 10752
  154.7117  135.3098  154.9149 H   0  0  0  0  0  0  0  0  0  0  0  0  # atno 10765 bound_to 10752
  141.0766  133.6664  156.3604 H   0  0  0  0  0  0  0  0  0  0  0  0  # atno 11005 bound_to 11000
  146.3531  140.0595  142.8630 LP  0  0  0  0  0  0  0  0  0  0  0  0  # atno 17320 bound_to 7965
  145.1182  140.9446  143.4616 LP  0  0  0  0  0  0  0  0  0  0  0  0  # atno 17321 bound_to 7965
  140.4437  144.1952  150.5893 LP  0  0  0  0  0  0  0  0  0  0  0  0  # atno 17342 bound_to 10162
  140.4657  143.2432  151.9158 LP  0  0  0  0  0  0  0  0  0  0  0  0  # atno 17343 bound_to 10162
  155.9791  130.4044  150.3607 LP  0  0  0  0  0  0  0  0  0  0  0  0  # atno 17370 bound_to 10713
  157.1719  131.0371  151.2791 LP  0  0  0  0  0  0  0  0  0  0  0  0  # atno 17371 bound_to 10713
  140.5559  134.5982  157.5420 LP  0  0  0  0  0  0  0  0  0  0  0  0  # atno 17394 bound_to 11000
  139.9579  134.7503  156.0301 LP  0  0  0  0  0  0  0  0  0  0  0  0  # atno 17395 bound_to 11000

$$$$
