AV-unprocessed.smi:116|AV-procd|sdf|1127|dock1
  -GOLD-   2262018253D 1   1.00000     0.00000
 Structure written by MMmdl.
 38 41  0  0  0  0  0  0  0  0  1 V2000
  149.0682  139.2661  156.1939 O   0  0  0  0  0  0  0  0  0  0  0  0
  148.8830  138.5699  157.1934 C   0  0  0  0  0  0  0  0  0  0  0  0
  147.5738  138.0486  157.5719 C   0  0  0  0  0  0  0  0  0  0  0  0
  146.5000  138.3393  156.8181 F   0  0  0  0  0  0  0  0  0  0  0  0
  147.4214  137.2687  158.6637 C   0  0  0  0  0  0  0  0  0  0  0  0
  148.4729  136.9162  159.4935 N   0  0  0  0  0  0  0  0  0  0  0  0
  148.2706  136.0137  160.6916 C   0  0  2  0  0  0  0  0  0  0  0  0
  146.8566  135.4225  160.6749 C   0  0  0  0  0  0  0  0  0  0  0  0
  146.0885  136.4409  161.4881 C   0  0  0  0  0  0  0  0  0  0  0  0
  147.1278  136.8529  162.5253 C   0  0  0  0  0  0  0  0  0  0  0  0
  148.3892  136.7679  161.8640 O   0  0  0  0  0  0  0  0  0  0  0  0
  149.7754  137.3781  159.2060 C   0  0  0  0  0  0  0  0  0  0  0  0
  150.7298  137.0601  159.9198 O   0  0  0  0  0  0  0  0  0  0  0  0
  149.9380  138.1978  158.0641 N   0  0  0  0  0  0  0  0  0  0  0  0
  151.2895  138.6202  157.7300 C   0  0  0  0  0  0  0  0  0  0  0  0
  151.5464  140.0144  158.2179 C   0  0  0  0  0  0  0  0  0  0  0  0
  150.9119  141.0807  157.7119 N   0  0  0  0  0  0  0  0  0  0  0  0
  151.3651  142.2448  158.3257 C   0  0  0  0  0  0  0  0  0  0  0  0
  150.9472  143.5681  158.0523 C   0  0  0  0  0  0  0  0  0  0  0  0
  151.4943  144.6638  158.7495 C   0  0  0  0  0  0  0  0  0  0  0  0
  152.4735  144.4563  159.7394 C   0  0  0  0  0  0  0  0  0  0  0  0
  152.9072  143.1507  160.0332 C   0  0  0  0  0  0  0  0  0  0  0  0
  152.3585  142.0607  159.3323 C   0  0  0  0  0  0  0  0  0  0  0  0
  152.7219  140.3465  159.4972 S   0  0  0  0  0  0  0  0  0  0  0  0
  146.4279  136.9069  158.8820 H   0  0  0  0  0  0  0  0  0  0  0  0
  149.0675  135.2695  160.6454 H   0  0  0  0  0  0  0  0  0  0  0  0
  146.4735  135.2784  159.6639 H   0  0  0  0  0  0  0  0  0  0  0  0
  146.8759  134.4596  161.1867 H   0  0  0  0  0  0  0  0  0  0  0  0
  145.8158  137.2934  160.8645 H   0  0  0  0  0  0  0  0  0  0  0  0
  145.1781  136.0379  161.9324 H   0  0  0  0  0  0  0  0  0  0  0  0
  146.9504  137.8530  162.9211 H   0  0  0  0  0  0  0  0  0  0  0  0
  147.1263  136.1521  163.3609 H   0  0  0  0  0  0  0  0  0  0  0  0
  152.0081  137.9196  158.1561 H   0  0  0  0  0  0  0  0  0  0  0  0
  151.4018  138.5527  156.6464 H   0  0  0  0  0  0  0  0  0  0  0  0
  150.1968  143.7415  157.2951 H   0  0  0  0  0  0  0  0  0  0  0  0
  151.1615  145.6661  158.5234 H   0  0  0  0  0  0  0  0  0  0  0  0
  152.8913  145.2983  160.2720 H   0  0  0  0  0  0  0  0  0  0  0  0
  153.6581  142.9853  160.7917 H   0  0  0  0  0  0  0  0  0  0  0  0
  1  2  2  0  0  0  0
  2 14  1  0  0  0  0
  2  3  1  0  0  0  0
  3  4  1  0  0  0  0
  3  5  2  0  0  0  0
  5  6  1  0  0  0  0
  5 25  1  0  0  0  0
  6  7  1  0  0  0  0
  6 12  1  0  0  0  0
  7 11  1  0  0  0  0
  7  8  1  0  0  0  0
  7 26  1  0  0  0  0
  8  9  1  0  0  0  0
  8 27  1  0  0  0  0
  8 28  1  0  0  0  0
  9 10  1  0  0  0  0
  9 29  1  0  0  0  0
  9 30  1  0  0  0  0
 10 11  1  0  0  0  0
 10 31  1  0  0  0  0
 10 32  1  0  0  0  0
 12 13  2  0  0  0  0
 12 14  1  0  0  0  0
 14 15  1  0  0  0  0
 15 16  1  0  0  0  0
 15 33  1  0  0  0  0
 15 34  1  0  0  0  0
 16 24  1  0  0  0  0
 16 17  2  0  0  0  0
 17 18  1  0  0  0  0
 18 23  2  0  0  0  0
 18 19  1  0  0  0  0
 19 20  2  0  0  0  0
 19 35  1  0  0  0  0
 20 21  1  0  0  0  0
 20 36  1  0  0  0  0
 21 22  2  0  0  0  0
 21 37  1  0  0  0  0
 22 23  1  0  0  0  0
 22 38  1  0  0  0  0
 23 24  1  0  0  0  0
M  END
> <s_m_source_file>
AV-unprocessed.smi

> <i_m_source_file_index>
116

> <i_lp_mmshare_version>
43012

> <i_f3d_flags>
0

> <s_epik_input>
TzFbQ0gyXVtDSDJdW0NIMl1bQ0BIXTFuKFtjSF1jKEYpYzI9TyljKD1PKW4yW0NIMl1jKG4zKXNjKGMzNClbY0hdW2NIXVtjSF1bY0hdNA==

> <s_epik_cmdline>
J2VwaWtfcHl0aG9uJywgJy1waCcsICc3LjAnLCAnLXRuJywgJzgnLCAnLW1hJywgJzIwMCcsICctbWV0YWxfYmluZGluZycsICctaW1hZScsICc8aW5maWxlLm1hZT4nLCAnLW9tYWUnLCAnPG91dGZpbGUubWFlPic=

> <r_lp_tautomer_probability>
1

> <r_epik_Ionization_Penalty>
4.2492e-05

> <r_epik_Ionization_Penalty_Charging>
2.84664e-09

> <r_epik_Ionization_Penalty_Neutral>
4.24891e-05

> <r_epik_State_Penalty>
-0

> <r_epik_Charging_Adjusted_Penalty>
2.84664e-09

> <i_epik_Tot_Q>
0

> <i_epik_Tot_abs_Q>
0

> <r_epik_Metal_State_Penalty>
-0

> <b_epik_Metal_Only>
0

> <s_epik_Chemistry_Notes>
This compound contains an acetal/aminal-like group ( X-CH(R)-Y where X, Y are N, S, or O) that may be acid/base labile, releasing an aldehyde.

> <s_lp_Force_Field>
OPLS_2005

> <r_lp_Energy>
31.0424

> <b_lp_Chiralities_Consistent>
1

> <s_lp_Variant>
AV-unprocessed.smi:116-1

> <Gold.Version>
5.8.1

> <Gold.Id.Protein>
6NUR|6NUR_protein|mol2

> <Gold.PLP.Fitness>
45.7083

> <Gold.PLP.PLP>
-40.8519

> <Gold.PLP.part.hbond>
-2.4259

> <Gold.PLP.part.metal>
0.0000

> <Gold.PLP.part.buried>
-6.4188

> <Gold.PLP.part.nonpolar>
-33.2537

> <Gold.PLP.part.repulsive>
0.0155

> <Gold.PLP.ligand.clash>
0.0000

> <Gold.PLP.ligand.torsion>
0.5792

> <Gold.PLP.Chemscore.Hbond>
2.0000

> <Gold.PLP.Chemscore.CHOScore>
0.0000

> <Gold.PLP.Chemscore.Metal>
0.0000

> <Gold.Chemscore.Hbonds>
donor molecule, donor type, donor heavy atom, donor atom, acceptor molecule, acceptor atom, score
      P1  H  6896  6908       L1    13  1.00
      P1  H  6931  6943       L1    11  1.00

> <Gold.PLP.Chemscore.Internal.Correction>
0.0148

> <Gold.Rescore>
     Score         DG    S(hbond)    S(metal)    S(lipo)     H(rot)  DE(clash)    DE(int)     intcor
     18.29     -19.16       1.87        0.00      96.86       1.52       0.05       0.82       ----

> <Gold.Chemscore.Fitness>
18.2945

> <Gold.Chemscore.DG>
-19.1638

> <Gold.Chemscore.ZeroCoef>
-5.4800

> <Gold.Chemscore.Hbond>
1.8669

> <Gold.Chemscore.Metal>
0.0000

> <Gold.Chemscore.Lipo>
96.8576

> <Gold.Chemscore.Internal_Hbond>
0.0000

> <Gold.Chemscore.DEClash>
0.0480

> <Gold.Chemscore.DEInternal>
0.8213

> <Gold.Chemscore.Rot>
1.5172

> <Gold.Chemscore.Internal.Correction>
   9.000000E+99

> <Gold.Chemscore.Hbonds>
donor molecule, donor type, donor heavy atom, donor atom, acceptor molecule, acceptor atom, score
      P1  H  6896  6908       L1    13  0.77
      P1  H  6931  6943       L1    11  0.59

> <Gold.Chemscore.Hbond.Weighted>
-6.2355

> <Gold.Chemscore.Metal.Weighted>
-0.0000

> <Gold.Chemscore.Lipo.Weighted>
-11.3323

> <Gold.Chemscore.Internal_Hbond.Weighted>
0.0000

> <Gold.Chemscore.DEClash.Weighted>
0.0480

> <Gold.Chemscore.DEInternal.Weighted>
0.8213

> <Gold.Chemscore.Rot.Weighted>
3.8841

> <Gold.Chemscore.Internal.Correction.Weighted>
   9.000000E+99

> <Gold.Protein.RotatedTorsions>
[ 6907 6896 6895 6894 ] final -149.37 input  -60.11 | X-H torsion
[ 7974 7965 7964 7962 ] final  137.86 input  175.53 | X-H torsion
[ 8008 7997 7996 7995 ] final  124.24 input   59.86 | X-H torsion
[ 10167 10162 10161 10158 ] final  136.51 input  -65.29 | X-H torsion
[ 10718 10713 10712 10709 ] final   15.24 input   66.30 | X-H torsion
[ 10763 10752 10751 10750 ] final   65.11 input  -60.55 | X-H torsion
[ 11005 11000 10999 10996 ] final  165.31 input  -57.11 | X-H torsion

> <Gold.Protein.ActiveResidues>
 VAL166  LYS551  ARG553  GLY616  TRP617  ASP618  TYR619  PRO620  LYS621  CYS622 
 ASP623  PHE694  ASN695  SER759  ASP760  ASP761  ALA762  ILE779  LEU786  VAL792 
 PHE793  MET794  SER795  GLU796  ALA797  LYS798  CYS799  TRP800  GLU811  SER814 

> <Gold.Protein.RotatedAtoms>
  151.1832  133.4712  159.2594 H   0  0  0  0  0  0  0  0  0  0  0  0  # atno 6907 bound_to 6896
  151.1238  135.0093  159.8561 H   0  0  0  0  0  0  0  0  0  0  0  0  # atno 6908 bound_to 6896
  152.5457  134.1741  159.8662 H   0  0  0  0  0  0  0  0  0  0  0  0  # atno 6909 bound_to 6896
  144.9427  139.4911  143.5564 H   0  0  0  0  0  0  0  0  0  0  0  0  # atno 7974 bound_to 7965
  156.2794  140.2744  156.1756 H   0  0  0  0  0  0  0  0  0  0  0  0  # atno 8008 bound_to 7997
  155.0609  140.0386  157.2594 H   0  0  0  0  0  0  0  0  0  0  0  0  # atno 8009 bound_to 7997
  154.7118  140.2670  155.6628 H   0  0  0  0  0  0  0  0  0  0  0  0  # atno 8010 bound_to 7997
  139.5177  144.6460  151.5437 H   0  0  0  0  0  0  0  0  0  0  0  0  # atno 10167 bound_to 10162
  157.0507  130.6268  149.5767 H   0  0  0  0  0  0  0  0  0  0  0  0  # atno 10718 bound_to 10713
  153.0083  135.5368  154.6616 H   0  0  0  0  0  0  0  0  0  0  0  0  # atno 10763 bound_to 10752
  154.5823  135.2851  155.0722 H   0  0  0  0  0  0  0  0  0  0  0  0  # atno 10764 bound_to 10752
  154.1847  135.6510  153.5096 H   0  0  0  0  0  0  0  0  0  0  0  0  # atno 10765 bound_to 10752
  140.2548  134.7949  157.3535 H   0  0  0  0  0  0  0  0  0  0  0  0  # atno 11005 bound_to 11000
  146.3292  139.8458  142.8882 LP  0  0  0  0  0  0  0  0  0  0  0  0  # atno 17320 bound_to 7965
  145.2966  141.0182  143.3633 LP  0  0  0  0  0  0  0  0  0  0  0  0  # atno 17321 bound_to 7965
  140.6246  143.9193  150.6554 LP  0  0  0  0  0  0  0  0  0  0  0  0  # atno 17342 bound_to 10162
  140.2478  143.3616  152.1432 LP  0  0  0  0  0  0  0  0  0  0  0  0  # atno 17343 bound_to 10162
  156.0008  130.5087  150.7657 LP  0  0  0  0  0  0  0  0  0  0  0  0  # atno 17370 bound_to 10713
  157.5032  131.0920  151.0288 LP  0  0  0  0  0  0  0  0  0  0  0  0  # atno 17371 bound_to 10713
  140.1522  134.4835  155.7953 LP  0  0  0  0  0  0  0  0  0  0  0  0  # atno 17394 bound_to 11000
  141.2197  133.6867  156.7399 LP  0  0  0  0  0  0  0  0  0  0  0  0  # atno 17395 bound_to 11000

$$$$
