AV-unprocessed.smi:3234|AV-procd|sdf|12357|dock8
  -GOLD-   2272018213D 1   1.00000     0.00000
 Structure written by MMmdl.
 37 39  0  0  0  0  0  0  0  0  4 V2000
  151.4344  139.5620  154.4923 O   0  0  0  0  0  0  0  0  0  0  0  0
  151.2770  140.2227  155.5254 C   0  0  0  0  0  0  0  0  0  0  0  0
  150.0965  140.8149  155.7807 N   0  0  0  0  0  0  0  0  0  0  0  0
  148.9247  140.8624  154.9778 C   0  0  0  0  0  0  0  0  0  0  0  0
  148.5301  139.6744  154.3239 C   0  0  0  0  0  0  0  0  0  0  0  0
  147.3628  139.6705  153.5336 C   0  0  0  0  0  0  0  0  0  0  0  0
  146.6252  140.7960  153.4179 N   0  3  0  0  0  0  0  0  0  0  0  0
  146.9519  141.9498  154.0389 C   0  0  0  0  0  0  0  0  0  0  0  0
  148.1081  142.0138  154.8426 C   0  0  0  0  0  0  0  0  0  0  0  0
  152.1813  140.4288  156.5211 N   0  5  0  0  0  0  0  0  0  0  0  0
  151.8400  140.8371  157.8853 C   0  0  1  0  0  0  0  0  0  0  0  0
  153.0305  140.6907  158.8344 C   0  0  0  0  0  0  0  0  0  0  0  0
  152.7745  141.7353  159.9316 C   0  0  0  0  0  0  0  0  0  0  0  0
  151.7315  142.6512  159.4129 N   0  3  1  0  0  0  0  0  0  0  0  0
  151.9801  144.0827  159.6872 C   0  0  0  0  0  0  0  0  0  0  0  0
  151.1127  145.0119  158.8722 C   0  0  0  0  0  0  0  0  0  0  0  0
  152.5719  144.8274  158.5145 C   0  0  0  0  0  0  0  0  0  0  0  0
  151.5333  142.3320  157.9861 C   0  0  0  0  0  0  0  0  0  0  0  0
  150.0173  141.2411  156.6924 H   0  0  0  0  0  0  0  0  0  0  0  0
  149.1194  138.7737  154.4212 H   0  0  0  0  0  0  0  0  0  0  0  0
  146.9980  138.8065  152.9976 H   0  0  0  0  0  0  0  0  0  0  0  0
  146.2793  142.7803  153.8822 H   0  0  0  0  0  0  0  0  0  0  0  0
  148.3404  142.9373  155.3508 H   0  0  0  0  0  0  0  0  0  0  0  0
  150.9986  140.2747  158.2939 H   0  0  0  0  0  0  0  0  0  0  0  0
  153.1254  139.6798  159.2324 H   0  0  0  0  0  0  0  0  0  0  0  0
  153.9631  140.9326  158.3210 H   0  0  0  0  0  0  0  0  0  0  0  0
  152.4130  141.2710  160.8504 H   0  0  0  0  0  0  0  0  0  0  0  0
  153.6965  142.2664  160.1744 H   0  0  0  0  0  0  0  0  0  0  0  0
  152.2650  144.3404  160.7059 H   0  0  0  0  0  0  0  0  0  0  0  0
  150.3721  144.5725  158.2061 H   0  0  0  0  0  0  0  0  0  0  0  0
  150.8265  145.9587  159.3260 H   0  0  0  0  0  0  0  0  0  0  0  0
  153.2478  145.6515  158.7338 H   0  0  0  0  0  0  0  0  0  0  0  0
  152.8021  144.2653  157.6110 H   0  0  0  0  0  0  0  0  0  0  0  0
  152.2361  142.9102  157.3823 H   0  0  0  0  0  0  0  0  0  0  0  0
  150.5225  142.5770  157.6583 H   0  0  0  0  0  0  0  0  0  0  0  0
  150.8731  142.3927  159.8779 H   0  0  0  0  0  0  0  0  0  0  0  0
  145.7828  140.7720  152.8429 H   0  0  0  0  0  0  0  0  0  0  0  0
  1  2  2  0  0  0  0
  2  3  1  0  0  0  0
  2 10  1  0  0  0  0
  3  4  1  0  0  0  0
  3 19  1  0  0  0  0
  4  9  1  0  0  0  0
  4  5  2  0  0  0  0
  5  6  1  0  0  0  0
  5 20  1  0  0  0  0
  6  7  2  0  0  0  0
  6 21  1  0  0  0  0
  7  8  1  0  0  0  0
  7 37  1  0  0  0  0
  8  9  2  0  0  0  0
  8 22  1  0  0  0  0
  9 23  1  0  0  0  0
 10 11  1  0  0  0  0
 11 18  1  0  0  0  0
 11 12  1  0  0  0  0
 11 24  1  0  0  0  0
 12 13  1  0  0  0  0
 12 25  1  0  0  0  0
 12 26  1  0  0  0  0
 13 14  1  0  0  0  0
 13 27  1  0  0  0  0
 13 28  1  0  0  0  0
 14 15  1  0  0  0  0
 14 18  1  0  0  0  0
 14 36  1  0  0  0  0
 15 17  1  0  0  0  0
 15 16  1  0  0  0  0
 15 29  1  0  0  0  0
 16 17  1  0  0  0  0
 16 30  1  0  0  0  0
 16 31  1  0  0  0  0
 17 32  1  0  0  0  0
 17 33  1  0  0  0  0
 18 34  1  0  0  0  0
 18 35  1  0  0  0  0
M  CHG  1   7   1
M  CHG  1  10  -1
M  CHG  1  14   1
M  END
> <s_m_source_file>
AV-unprocessed.smi

> <i_m_source_file_index>
3234

> <i_lp_mmshare_version>
43012

> <i_f3d_flags>
0

> <s_epik_input>
W2NIXTFbY0hdbltjSF1bY0hdYzFbTkhdQyg9TylbTkhdW0NAQEhdMltDSDJdW0NIMl1OKFtDSDJdMilbQ0hdM1tDSDJdW0NIMl0z

> <s_epik_cmdline>
J2VwaWtfcHl0aG9uJywgJy1waCcsICc3LjAnLCAnLXRuJywgJzgnLCAnLW1hJywgJzIwMCcsICctbWV0YWxfYmluZGluZycsICctaW1hZScsICc8aW5maWxlLm1hZT4nLCAnLW9tYWUnLCAnPG91dGZpbGUubWFlPic=

> <r_epik_Ionization_Penalty>
8.3234

> <r_epik_Ionization_Penalty_Charging>
8.3234

> <r_epik_Ionization_Penalty_Neutral>
3.58513e-06

> <r_epik_State_Penalty>
7.99376

> <r_epik_Charging_Adjusted_Penalty>
16.3172

> <i_epik_Tot_Q>
1

> <i_epik_Tot_abs_Q>
3

> <r_epik_Metal_State_Penalty>
3.98956

> <b_epik_Metal_Only>
1

> <s_lp_Force_Field>
OPLS_2005

> <r_lp_Energy>
39.5194

> <b_lp_Chiralities_Consistent>
1

> <s_lp_Variant>
AV-unprocessed.smi:3234-10

> <Gold.Version>
5.8.1

> <Gold.Id.Protein>
6NUR|6NUR_protein|mol2

> <Gold.PLP.Fitness>
46.9091

> <Gold.PLP.PLP>
-37.4290

> <Gold.PLP.part.hbond>
-2.6368

> <Gold.PLP.part.metal>
0.0000

> <Gold.PLP.part.buried>
-3.0226

> <Gold.PLP.part.nonpolar>
-32.4852

> <Gold.PLP.part.repulsive>
0.2804

> <Gold.PLP.ligand.clash>
0.6142

> <Gold.PLP.ligand.torsion>
1.2514

> <Gold.PLP.Chemscore.Hbond>
3.7725

> <Gold.PLP.Chemscore.CHOScore>
0.0000

> <Gold.PLP.Chemscore.Metal>
0.0000

> <Gold.Chemscore.Hbonds>
donor molecule, donor type, donor heavy atom, donor atom, acceptor molecule, acceptor atom, score
      L1  H     7    37       P1 10175  1.43
      P1  H  7989  7998       L1     1  0.80
      P1  H  7997  8009       L1    10  1.29

> <Gold.PLP.Chemscore.Internal.Correction>
1.2796

> <Gold.Rescore>
     Score         DG    S(hbond)    S(metal)    S(lipo)     H(rot)  DE(clash)    DE(int)     intcor
     17.52     -20.11       2.06        0.00      92.69       1.21       0.12       2.46       ----

> <Gold.Chemscore.Fitness>
17.5241

> <Gold.Chemscore.DG>
-20.1089

> <Gold.Chemscore.ZeroCoef>
-5.4800

> <Gold.Chemscore.Hbond>
2.0609

> <Gold.Chemscore.Metal>
0.0000

> <Gold.Chemscore.Lipo>
92.6917

> <Gold.Chemscore.Internal_Hbond>
0.0000

> <Gold.Chemscore.DEClash>
0.1214

> <Gold.Chemscore.DEInternal>
2.4633

> <Gold.Chemscore.Rot>
1.2108

> <Gold.Chemscore.Internal.Correction>
   9.000000E+99

> <Gold.Chemscore.Hbonds>
donor molecule, donor type, donor heavy atom, donor atom, acceptor molecule, acceptor atom, score
      L1  H     7    37       P1 10175  0.31
      P1  H  7989  7998       L1     1  0.12
      P1  H  7997  8009       L1    10  0.36

> <Gold.Chemscore.Hbond.Weighted>
-6.8835

> <Gold.Chemscore.Metal.Weighted>
-0.0000

> <Gold.Chemscore.Lipo.Weighted>
-10.8449

> <Gold.Chemscore.Internal_Hbond.Weighted>
0.0000

> <Gold.Chemscore.DEClash.Weighted>
0.1214

> <Gold.Chemscore.DEInternal.Weighted>
2.4633

> <Gold.Chemscore.Rot.Weighted>
3.0996

> <Gold.Chemscore.Internal.Correction.Weighted>
   9.000000E+99

> <Gold.Protein.RotatedTorsions>
[ 6907 6896 6895 6894 ] final   70.32 input  -60.11 | X-H torsion
[ 7974 7965 7964 7962 ] final  137.22 input  175.53 | X-H torsion
[ 8008 7997 7996 7995 ] final -168.81 input   59.86 | X-H torsion
[ 10167 10162 10161 10158 ] final  -71.08 input  -65.29 | X-H torsion
[ 10718 10713 10712 10709 ] final  -80.66 input   66.30 | X-H torsion
[ 10763 10752 10751 10750 ] final  127.06 input  -60.55 | X-H torsion
[ 11005 11000 10999 10996 ] final   51.71 input  -57.11 | X-H torsion

> <Gold.Protein.ActiveResidues>
 VAL166  LYS551  ARG553  GLY616  TRP617  ASP618  TYR619  PRO620  LYS621  CYS622 
 ASP623  PHE694  ASN695  SER759  ASP760  ASP761  ALA762  ILE779  LEU786  VAL792 
 PHE793  MET794  SER795  GLU796  ALA797  LYS798  CYS799  TRP800  GLU811  SER814 

> <Gold.Protein.RotatedAtoms>
  152.4742  134.4885  159.9687 H   0  0  0  0  0  0  0  0  0  0  0  0  # atno 6907 bound_to 6896
  151.4905  133.3520  159.2860 H   0  0  0  0  0  0  0  0  0  0  0  0  # atno 6908 bound_to 6896
  150.8770  134.8182  159.7258 H   0  0  0  0  0  0  0  0  0  0  0  0  # atno 6909 bound_to 6896
  144.9489  139.4842  143.5535 H   0  0  0  0  0  0  0  0  0  0  0  0  # atno 7974 bound_to 7965
  155.8965  140.1033  157.1381 H   0  0  0  0  0  0  0  0  0  0  0  0  # atno 8008 bound_to 7997
  154.4021  140.1301  156.4446 H   0  0  0  0  0  0  0  0  0  0  0  0  # atno 8009 bound_to 7997
  155.7473  140.3466  155.5135 H   0  0  0  0  0  0  0  0  0  0  0  0  # atno 8010 bound_to 7997
  140.5302  143.2322  151.7276 H   0  0  0  0  0  0  0  0  0  0  0  0  # atno 10167 bound_to 10162
  156.0065  130.4581  150.3834 H   0  0  0  0  0  0  0  0  0  0  0  0  # atno 10718 bound_to 10713
  153.7033  135.3280  155.3229 H   0  0  0  0  0  0  0  0  0  0  0  0  # atno 10763 bound_to 10752
  154.8406  135.4459  154.1388 H   0  0  0  0  0  0  0  0  0  0  0  0  # atno 10764 bound_to 10752
  153.2462  135.6976  153.7807 H   0  0  0  0  0  0  0  0  0  0  0  0  # atno 10765 bound_to 10752
  140.0909  134.5210  155.8853 H   0  0  0  0  0  0  0  0  0  0  0  0  # atno 11005 bound_to 11000
  146.3314  139.8560  142.8864 LP  0  0  0  0  0  0  0  0  0  0  0  0  # atno 17320 bound_to 7965
  145.2875  141.0157  143.3682 LP  0  0  0  0  0  0  0  0  0  0  0  0  # atno 17321 bound_to 7965
  139.4951  144.4126  152.0064 LP  0  0  0  0  0  0  0  0  0  0  0  0  # atno 17342 bound_to 10162
  140.3228  144.3408  150.6005 LP  0  0  0  0  0  0  0  0  0  0  0  0  # atno 17343 bound_to 10162
  157.1913  131.0416  151.2699 LP  0  0  0  0  0  0  0  0  0  0  0  0  # atno 17370 bound_to 10713
  157.4059  130.7358  149.6802 LP  0  0  0  0  0  0  0  0  0  0  0  0  # atno 17371 bound_to 10713
  141.2077  133.6667  156.6326 LP  0  0  0  0  0  0  0  0  0  0  0  0  # atno 17394 bound_to 11000
  140.3353  134.7894  157.4357 LP  0  0  0  0  0  0  0  0  0  0  0  0  # atno 17395 bound_to 11000

$$$$
