AV-unprocessed.smi:2067|AV-procd|sdf|8425|dock10
  -GOLD-   2272011123D 1   1.00000     0.00000
 Structure written by MMmdl.
 47 48  0  0  0  0  0  0  0  0  1 V2000
  152.3047  138.7863  158.6230 C   0  0  0  0  0  0  0  0  0  0  0  0
  151.9579  139.3725  157.2467 C   0  0  2  0  0  0  0  0  0  0  0  0
  150.6096  140.1198  157.2574 C   0  0  0  0  0  0  0  0  0  0  0  0
  150.3067  140.7455  155.8861 C   0  0  0  0  0  0  0  0  0  0  0  0
  150.3490  139.6931  154.7668 C   0  0  0  0  0  0  0  0  0  0  0  0
  151.6874  138.9339  154.7607 C   0  0  0  0  0  0  0  0  0  0  0  0
  151.9877  138.3007  156.1352 C   0  0  2  0  0  0  0  0  0  0  0  0
  151.0052  137.3115  156.4210 O   0  0  0  0  0  0  0  0  0  0  0  0
  150.7403  136.4194  155.3494 C   0  0  0  0  0  0  0  0  0  0  0  0
  150.4185  135.0395  155.9292 C   0  0  0  0  0  0  0  0  0  0  0  0
  149.6476  134.2329  154.9957 N   0  0  0  0  0  0  0  0  0  0  0  0
  149.7348  132.8525  154.8418 C   0  0  0  0  0  0  0  0  0  0  0  0
  150.5865  132.1030  155.5981 C   0  0  0  0  0  0  0  0  0  0  0  0
  151.4114  132.6514  156.6291 C   0  0  0  0  0  0  0  0  0  0  0  0
  152.0786  133.0777  157.4741 N   0  0  0  0  0  0  0  0  0  0  0  0
  150.6989  130.6536  155.4401 C   0  0  0  0  0  0  0  0  0  0  0  0
  151.4538  129.9537  156.1184 O   0  0  0  0  0  0  0  0  0  0  0  0
  149.8634  130.1058  154.4424 N   0  0  0  0  0  0  0  0  0  0  0  0
  149.8983  128.6776  154.1972 C   0  0  0  0  0  0  0  0  0  0  0  0
  148.9623  130.8551  153.6619 C   0  0  0  0  0  0  0  0  0  0  0  0
  148.2448  130.3095  152.8170 O   0  0  0  0  0  0  0  0  0  0  0  0
  148.9089  132.2513  153.8880 N   0  0  0  0  0  0  0  0  0  0  0  0
  147.9549  132.9567  153.0585 C   0  0  0  0  0  0  0  0  0  0  0  0
  151.5699  138.0461  158.9352 H   0  0  0  0  0  0  0  0  0  0  0  0
  152.3357  139.5655  159.3851 H   0  0  0  0  0  0  0  0  0  0  0  0
  153.2803  138.2999  158.6084 H   0  0  0  0  0  0  0  0  0  0  0  0
  152.7332  140.1042  157.0142 H   0  0  0  0  0  0  0  0  0  0  0  0
  149.8064  139.4348  157.5336 H   0  0  0  0  0  0  0  0  0  0  0  0
  150.6217  140.9004  158.0188 H   0  0  0  0  0  0  0  0  0  0  0  0
  149.3293  141.2282  155.9056 H   0  0  0  0  0  0  0  0  0  0  0  0
  151.0341  141.5303  155.6750 H   0  0  0  0  0  0  0  0  0  0  0  0
  149.5276  138.9875  154.8986 H   0  0  0  0  0  0  0  0  0  0  0  0
  150.1897  140.1727  153.8007 H   0  0  0  0  0  0  0  0  0  0  0  0
  151.6777  138.1738  153.9798 H   0  0  0  0  0  0  0  0  0  0  0  0
  152.4906  139.6241  154.4998 H   0  0  0  0  0  0  0  0  0  0  0  0
  152.9815  137.8485  156.1206 H   0  0  0  0  0  0  0  0  0  0  0  0
  149.8864  136.7652  154.7665 H   0  0  0  0  0  0  0  0  0  0  0  0
  151.5977  136.3730  154.6764 H   0  0  0  0  0  0  0  0  0  0  0  0
  151.3514  134.5396  156.1892 H   0  0  0  0  0  0  0  0  0  0  0  0
  149.8428  135.1465  156.8487 H   0  0  0  0  0  0  0  0  0  0  0  0
  149.4358  134.7327  154.1439 H   0  0  0  0  0  0  0  0  0  0  0  0
  150.0514  128.5291  153.1268 H   0  0  0  0  0  0  0  0  0  0  0  0
  148.9378  128.2742  154.5220 H   0  0  0  0  0  0  0  0  0  0  0  0
  150.7142  128.2000  154.7387 H   0  0  0  0  0  0  0  0  0  0  0  0
  148.2633  132.8209  152.0203 H   0  0  0  0  0  0  0  0  0  0  0  0
  147.9380  134.0153  153.3069 H   0  0  0  0  0  0  0  0  0  0  0  0
  146.9706  132.5235  153.2468 H   0  0  0  0  0  0  0  0  0  0  0  0
  1  2  1  0  0  0  0
  1 24  1  0  0  0  0
  1 25  1  0  0  0  0
  1 26  1  0  0  0  0
  2  7  1  0  0  0  0
  2  3  1  0  0  0  0
  2 27  1  0  0  0  0
  3  4  1  0  0  0  0
  3 28  1  0  0  0  0
  3 29  1  0  0  0  0
  4  5  1  0  0  0  0
  4 30  1  0  0  0  0
  4 31  1  0  0  0  0
  5  6  1  0  0  0  0
  5 32  1  0  0  0  0
  5 33  1  0  0  0  0
  6  7  1  0  0  0  0
  6 34  1  0  0  0  0
  6 35  1  0  0  0  0
  7  8  1  0  0  0  0
  7 36  1  0  0  0  0
  8  9  1  0  0  0  0
  9 10  1  0  0  0  0
  9 37  1  0  0  0  0
  9 38  1  0  0  0  0
 10 11  1  0  0  0  0
 10 39  1  0  0  0  0
 10 40  1  0  0  0  0
 11 12  1  0  0  0  0
 11 41  1  0  0  0  0
 12 22  1  0  0  0  0
 12 13  2  0  0  0  0
 13 14  1  0  0  0  0
 13 16  1  0  0  0  0
 14 15  3  0  0  0  0
 16 17  2  0  0  0  0
 16 18  1  0  0  0  0
 18 19  1  0  0  0  0
 18 20  1  0  0  0  0
 19 42  1  0  0  0  0
 19 43  1  0  0  0  0
 19 44  1  0  0  0  0
 20 21  2  0  0  0  0
 20 22  1  0  0  0  0
 22 23  1  0  0  0  0
 23 45  1  0  0  0  0
 23 46  1  0  0  0  0
 23 47  1  0  0  0  0
M  END
> <s_m_source_file>
AV-unprocessed.smi

> <i_m_source_file_index>
2067

> <i_lp_mmshare_version>
43012

> <i_f3d_flags>
0

> <s_epik_input>
W0NIM11bQ0BASF0xW0NIMl1bQ0gyXVtDSDJdW0NIMl1bQ0BIXTFPW0NIMl1bQ0gyXVtOSF1jMmMoQyNOKWMoPU8pbihbQ0gzXSljKD1PKW4yW0NIM10=

> <s_epik_cmdline>
J2VwaWtfcHl0aG9uJywgJy1waCcsICc3LjAnLCAnLXRuJywgJzgnLCAnLW1hJywgJzIwMCcsICctbWV0YWxfYmluZGluZycsICctaW1hZScsICc8aW5maWxlLm1hZT4nLCAnLW9tYWUnLCAnPG91dGZpbGUubWFlPic=

> <r_epik_Ionization_Penalty>
0.00056529

> <r_epik_Ionization_Penalty_Charging>
3.94678e-10

> <r_epik_Ionization_Penalty_Neutral>
0.000565289

> <r_epik_State_Penalty>
0.000354611

> <r_epik_Charging_Adjusted_Penalty>
0.000354611

> <i_epik_Tot_Q>
0

> <i_epik_Tot_abs_Q>
0

> <r_epik_Metal_State_Penalty>
-0

> <b_epik_Metal_Only>
0

> <s_lp_Force_Field>
OPLS_2005

> <r_lp_Energy>
32.9241

> <b_lp_Chiralities_Consistent>
1

> <s_lp_Variant>
AV-unprocessed.smi:2067-3

> <Gold.Version>
5.8.1

> <Gold.Id.Protein>
6NUR|6NUR_protein|mol2

> <Gold.PLP.Fitness>
38.9358

> <Gold.PLP.PLP>
-38.0162

> <Gold.PLP.part.hbond>
-1.0000

> <Gold.PLP.part.metal>
0.0000

> <Gold.PLP.part.buried>
-3.4356

> <Gold.PLP.part.nonpolar>
-34.4451

> <Gold.PLP.part.repulsive>
1.0399

> <Gold.PLP.ligand.clash>
10.1185

> <Gold.PLP.ligand.torsion>
0.5977

> <Gold.PLP.Chemscore.Hbond>
0.7040

> <Gold.PLP.Chemscore.CHOScore>
0.0000

> <Gold.PLP.Chemscore.Metal>
0.0000

> <Gold.Chemscore.Hbonds>
donor molecule, donor type, donor heavy atom, donor atom, acceptor molecule, acceptor atom, score
      P1  H  6896  6907       L1    15  0.70

> <Gold.PLP.Chemscore.Internal.Correction>
10.1216

> <Gold.Rescore>
     Score         DG    S(hbond)    S(metal)    S(lipo)     H(rot)  DE(clash)    DE(int)     intcor
      7.64     -11.00       0.58        0.00      69.19       1.76       0.18       3.18       ----

> <Gold.Chemscore.Fitness>
7.6391

> <Gold.Chemscore.DG>
-11.0021

> <Gold.Chemscore.ZeroCoef>
-5.4800

> <Gold.Chemscore.Hbond>
0.5773

> <Gold.Chemscore.Metal>
0.0000

> <Gold.Chemscore.Lipo>
69.1882

> <Gold.Chemscore.Internal_Hbond>
0.0000

> <Gold.Chemscore.DEClash>
0.1784

> <Gold.Chemscore.DEInternal>
3.1846

> <Gold.Chemscore.Rot>
1.7583

> <Gold.Chemscore.Internal.Correction>
   9.000000E+99

> <Gold.Chemscore.Hbonds>
donor molecule, donor type, donor heavy atom, donor atom, acceptor molecule, acceptor atom, score
      P1  H  6896  6907       L1    15  0.70

> <Gold.Chemscore.Hbond.Weighted>
-1.9283

> <Gold.Chemscore.Metal.Weighted>
-0.0000

> <Gold.Chemscore.Lipo.Weighted>
-8.0950

> <Gold.Chemscore.Internal_Hbond.Weighted>
0.0000

> <Gold.Chemscore.DEClash.Weighted>
0.1784

> <Gold.Chemscore.DEInternal.Weighted>
3.1846

> <Gold.Chemscore.Rot.Weighted>
4.5012

> <Gold.Chemscore.Internal.Correction.Weighted>
   9.000000E+99

> <Gold.Protein.RotatedTorsions>
[ 6907 6896 6895 6894 ] final  165.81 input  -60.11 | X-H torsion
[ 7974 7965 7964 7962 ] final -121.56 input  175.53 | X-H torsion
[ 8008 7997 7996 7995 ] final   80.08 input   59.86 | X-H torsion
[ 10167 10162 10161 10158 ] final  150.58 input  -65.29 | X-H torsion
[ 10718 10713 10712 10709 ] final  160.84 input   66.30 | X-H torsion
[ 10763 10752 10751 10750 ] final   30.07 input  -60.55 | X-H torsion
[ 11005 11000 10999 10996 ] final -152.74 input  -57.11 | X-H torsion

> <Gold.Protein.ActiveResidues>
 VAL166  LYS551  ARG553  GLY616  TRP617  ASP618  TYR619  PRO620  LYS621  CYS622 
 ASP623  PHE694  ASN695  SER759  ASP760  ASP761  ALA762  ILE779  LEU786  VAL792 
 PHE793  MET794  SER795  GLU796  ALA797  LYS798  CYS799  TRP800  GLU811  SER814 

> <Gold.Protein.RotatedAtoms>
  151.8887  133.3511  159.3790 H   0  0  0  0  0  0  0  0  0  0  0  0  # atno 6907 bound_to 6896
  150.7109  134.4945  159.5541 H   0  0  0  0  0  0  0  0  0  0  0  0  # atno 6908 bound_to 6896
  152.2511  134.8131  160.0496 H   0  0  0  0  0  0  0  0  0  0  0  0  # atno 6909 bound_to 6896
  145.0390  140.8129  143.4278 H   0  0  0  0  0  0  0  0  0  0  0  0  # atno 7974 bound_to 7965
  155.8786  140.3445  155.5872 H   0  0  0  0  0  0  0  0  0  0  0  0  # atno 8008 bound_to 7997
  155.7745  140.0850  157.2110 H   0  0  0  0  0  0  0  0  0  0  0  0  # atno 8009 bound_to 7997
  154.4023  140.1512  156.2968 H   0  0  0  0  0  0  0  0  0  0  0  0  # atno 8010 bound_to 7997
  139.4848  144.5510  151.7400 H   0  0  0  0  0  0  0  0  0  0  0  0  # atno 10167 bound_to 10162
  157.1448  131.0549  151.2309 H   0  0  0  0  0  0  0  0  0  0  0  0  # atno 10718 bound_to 10713
  153.0393  135.6473  154.0987 H   0  0  0  0  0  0  0  0  0  0  0  0  # atno 10763 bound_to 10752
  154.0697  135.2881  155.3312 H   0  0  0  0  0  0  0  0  0  0  0  0  # atno 10764 bound_to 10752
  154.6602  135.5394  153.8074 H   0  0  0  0  0  0  0  0  0  0  0  0  # atno 10765 bound_to 10752
  140.7156  134.3784  157.5191 H   0  0  0  0  0  0  0  0  0  0  0  0  # atno 11005 bound_to 11000
  145.1672  139.2425  143.5361 LP  0  0  0  0  0  0  0  0  0  0  0  0  # atno 17320 bound_to 7965
  146.3507  140.1414  142.8594 LP  0  0  0  0  0  0  0  0  0  0  0  0  # atno 17321 bound_to 7965
  140.5064  144.1091  150.5984 LP  0  0  0  0  0  0  0  0  0  0  0  0  # atno 17342 bound_to 10162
  140.4002  143.2708  151.9957 LP  0  0  0  0  0  0  0  0  0  0  0  0  # atno 17343 bound_to 10162
  157.4274  130.7471  149.6962 LP  0  0  0  0  0  0  0  0  0  0  0  0  # atno 17370 bound_to 10713
  155.9781  130.4054  150.3666 LP  0  0  0  0  0  0  0  0  0  0  0  0  # atno 17371 bound_to 10713
  139.8861  134.8920  156.2606 LP  0  0  0  0  0  0  0  0  0  0  0  0  # atno 17394 bound_to 11000
  141.0047  133.7130  156.1016 LP  0  0  0  0  0  0  0  0  0  0  0  0  # atno 17395 bound_to 11000

$$$$
