AV-unprocessed.smi:3068|AV-procd|sdf|11709|dock9
  -GOLD-   2272017113D 1   1.00000     0.00000
 Structure written by MMmdl.
 39 41  0  0  0  0  0  0  0  0  1 V2000
  154.2249  135.3285  159.4121 N   0  0  0  0  0  0  0  0  0  0  0  0
  154.3328  135.7058  160.5008 C   0  0  0  0  0  0  0  0  0  0  0  0
  154.4678  136.1810  161.8719 C   0  0  0  0  0  0  0  0  0  0  0  0
  154.4665  135.2395  162.8440 N   0  0  0  0  0  0  0  0  0  0  0  0
  154.5905  135.6665  164.1186 C   0  0  0  0  0  0  0  0  0  0  0  0
  154.7180  137.0342  164.4291 C   0  0  0  0  0  0  0  0  0  0  0  0
  154.7218  137.9797  163.4659 N   0  0  0  0  0  0  0  0  0  0  0  0
  154.5942  137.5651  162.1803 C   0  0  0  0  0  0  0  0  0  0  0  0
  154.5980  138.5389  161.1642 N   0  0  0  0  0  0  0  0  0  0  0  0
  154.5628  139.9647  161.4683 C   0  0  0  0  0  0  0  0  0  0  0  0
  153.4171  140.6919  160.7456 C   0  0  1  0  0  0  0  0  0  0  0  0
  153.3539  142.1801  161.1347 C   0  0  0  0  0  0  0  0  0  0  0  0
  152.3171  142.8907  160.3971 N   0  0  0  0  0  0  0  0  0  0  0  0
  152.2719  144.3033  160.7704 C   0  0  0  0  0  0  0  0  0  0  0  0
  151.1623  145.0688  160.0321 C   0  0  0  0  0  0  0  0  0  0  0  0
  151.3358  144.9254  158.5134 C   0  0  0  0  0  0  0  0  0  0  0  0
  151.4381  143.4405  158.1322 C   0  0  0  0  0  0  0  0  0  0  0  0
  152.5342  142.7332  158.9559 C   0  0  2  0  0  0  0  0  0  0  0  0
  152.6272  141.2423  158.5722 C   0  0  0  0  0  0  0  0  0  0  0  0
  153.6434  140.6062  159.3407 O   0  0  0  0  0  0  0  0  0  0  0  0
  154.5891  134.9141  164.8935 H   0  0  0  0  0  0  0  0  0  0  0  0
  154.8176  137.3702  165.4506 H   0  0  0  0  0  0  0  0  0  0  0  0
  154.4049  138.2541  160.2144 H   0  0  0  0  0  0  0  0  0  0  0  0
  154.4813  140.1048  162.5468 H   0  0  0  0  0  0  0  0  0  0  0  0
  155.5185  140.4026  161.1785 H   0  0  0  0  0  0  0  0  0  0  0  0
  152.4641  140.2192  160.9890 H   0  0  0  0  0  0  0  0  0  0  0  0
  153.1660  142.2669  162.2056 H   0  0  0  0  0  0  0  0  0  0  0  0
  154.3237  142.6450  160.9499 H   0  0  0  0  0  0  0  0  0  0  0  0
  152.1110  144.3929  161.8454 H   0  0  0  0  0  0  0  0  0  0  0  0
  153.2349  144.7722  160.5627 H   0  0  0  0  0  0  0  0  0  0  0  0
  150.1882  144.6790  160.3303 H   0  0  0  0  0  0  0  0  0  0  0  0
  151.1778  146.1213  160.3154 H   0  0  0  0  0  0  0  0  0  0  0  0
  150.5030  145.3954  157.9899 H   0  0  0  0  0  0  0  0  0  0  0  0
  152.2400  145.4472  158.1976 H   0  0  0  0  0  0  0  0  0  0  0  0
  150.4768  142.9545  158.3045 H   0  0  0  0  0  0  0  0  0  0  0  0
  151.6469  143.3471  157.0659 H   0  0  0  0  0  0  0  0  0  0  0  0
  153.4898  143.1945  158.6995 H   0  0  0  0  0  0  0  0  0  0  0  0
  151.6740  140.7362  158.7339 H   0  0  0  0  0  0  0  0  0  0  0  0
  152.8704  141.1353  157.5149 H   0  0  0  0  0  0  0  0  0  0  0  0
  1  2  3  0  0  0  0
  2  3  1  0  0  0  0
  3  8  1  0  0  0  0
  3  4  2  0  0  0  0
  4  5  1  0  0  0  0
  5  6  2  0  0  0  0
  5 21  1  0  0  0  0
  6  7  1  0  0  0  0
  6 22  1  0  0  0  0
  7  8  2  0  0  0  0
  8  9  1  0  0  0  0
  9 10  1  0  0  0  0
  9 23  1  0  0  0  0
 10 11  1  0  0  0  0
 10 24  1  0  0  0  0
 10 25  1  0  0  0  0
 11 20  1  0  0  0  0
 11 12  1  0  0  0  0
 11 26  1  0  0  0  0
 12 13  1  0  0  0  0
 12 27  1  0  0  0  0
 12 28  1  0  0  0  0
 13 18  1  0  0  0  0
 13 14  1  0  0  0  0
 14 15  1  0  0  0  0
 14 29  1  0  0  0  0
 14 30  1  0  0  0  0
 15 16  1  0  0  0  0
 15 31  1  0  0  0  0
 15 32  1  0  0  0  0
 16 17  1  0  0  0  0
 16 33  1  0  0  0  0
 16 34  1  0  0  0  0
 17 18  1  0  0  0  0
 17 35  1  0  0  0  0
 17 36  1  0  0  0  0
 18 19  1  0  0  0  0
 18 37  1  0  0  0  0
 19 20  1  0  0  0  0
 19 38  1  0  0  0  0
 19 39  1  0  0  0  0
M  END
> <s_m_source_file>
AV-unprocessed.smi

> <i_m_source_file_index>
3068

> <i_lp_mmshare_version>
43012

> <i_f3d_flags>
0

> <s_epik_input>
TiNDYzFuW2NIXVtjSF1uYzFbTkhdW0NIMl1bQ0BIXShbQ0gyXTIpT1tDSDJdW0NAQEhdKE4yMylbQ0gyXVtDSDJdW0NIMl1bQ0gyXTM=

> <s_epik_cmdline>
J2VwaWtfcHl0aG9uJywgJy1waCcsICc3LjAnLCAnLXRuJywgJzgnLCAnLW1hJywgJzIwMCcsICctbWV0YWxfYmluZGluZycsICctaW1hZScsICc8aW5maWxlLm1hZT4nLCAnLW9tYWUnLCAnPG91dGZpbGUubWFlPic=

> <r_epik_Ionization_Penalty>
1.22359

> <r_epik_Ionization_Penalty_Charging>
0

> <r_epik_Ionization_Penalty_Neutral>
1.22359

> <r_epik_State_Penalty>
1.29103

> <r_epik_Charging_Adjusted_Penalty>
1.29103

> <i_epik_Tot_Q>
0

> <i_epik_Tot_abs_Q>
0

> <r_epik_Metal_State_Penalty>
1.29103

> <b_epik_Metal_Only>
0

> <s_lp_Force_Field>
OPLS_2005

> <r_lp_Energy>
45.8407

> <b_lp_Chiralities_Consistent>
1

> <s_lp_Variant>
AV-unprocessed.smi:3068-12

> <Gold.Version>
5.8.1

> <Gold.Id.Protein>
6NUR|6NUR_protein|mol2

> <Gold.PLP.Fitness>
43.3324

> <Gold.PLP.PLP>
-40.4064

> <Gold.PLP.part.hbond>
-1.0000

> <Gold.PLP.part.metal>
0.0000

> <Gold.PLP.part.buried>
-5.9862

> <Gold.PLP.part.nonpolar>
-34.1918

> <Gold.PLP.part.repulsive>
0.0459

> <Gold.PLP.ligand.clash>
0.0000

> <Gold.PLP.ligand.torsion>
0.0375

> <Gold.PLP.Chemscore.Hbond>
1.0000

> <Gold.PLP.Chemscore.CHOScore>
0.0000

> <Gold.PLP.Chemscore.Metal>
0.0000

> <Gold.Chemscore.Hbonds>
donor molecule, donor type, donor heavy atom, donor atom, acceptor molecule, acceptor atom, score
      P1  H  6896  6907       L1     1  0.60

> <Gold.PLP.Chemscore.Internal.Correction>
0.0011

> <Gold.Rescore>
     Score         DG    S(hbond)    S(metal)    S(lipo)     H(rot)  DE(clash)    DE(int)     intcor
     18.75     -18.93       0.97        0.00     115.81       1.30       0.10       0.07       ----

> <Gold.Chemscore.Fitness>
18.7470

> <Gold.Chemscore.DG>
-18.9250

> <Gold.Chemscore.ZeroCoef>
-5.4800

> <Gold.Chemscore.Hbond>
0.9664

> <Gold.Chemscore.Metal>
0.0000

> <Gold.Chemscore.Lipo>
115.8124

> <Gold.Chemscore.Internal_Hbond>
0.0000

> <Gold.Chemscore.DEClash>
0.1045

> <Gold.Chemscore.DEInternal>
0.0736

> <Gold.Chemscore.Rot>
1.3019

> <Gold.Chemscore.Internal.Correction>
   9.000000E+99

> <Gold.Chemscore.Hbonds>
donor molecule, donor type, donor heavy atom, donor atom, acceptor molecule, acceptor atom, score
      P1  H  6896  6907       L1     1  0.04

> <Gold.Chemscore.Hbond.Weighted>
-3.2277

> <Gold.Chemscore.Metal.Weighted>
-0.0000

> <Gold.Chemscore.Lipo.Weighted>
-13.5500

> <Gold.Chemscore.Internal_Hbond.Weighted>
0.0000

> <Gold.Chemscore.DEClash.Weighted>
0.1045

> <Gold.Chemscore.DEInternal.Weighted>
0.0736

> <Gold.Chemscore.Rot.Weighted>
3.3327

> <Gold.Chemscore.Internal.Correction.Weighted>
   9.000000E+99

> <Gold.Protein.RotatedTorsions>
[ 6907 6896 6895 6894 ] final   88.95 input  -60.11 | X-H torsion
[ 7974 7965 7964 7962 ] final  -42.71 input  175.53 | X-H torsion
[ 8008 7997 7996 7995 ] final  -86.79 input   59.86 | X-H torsion
[ 10167 10162 10161 10158 ] final -113.48 input  -65.29 | X-H torsion
[ 10718 10713 10712 10709 ] final -177.63 input   66.30 | X-H torsion
[ 10763 10752 10751 10750 ] final   -0.68 input  -60.55 | X-H torsion
[ 11005 11000 10999 10996 ] final  -51.13 input  -57.11 | X-H torsion

> <Gold.Protein.ActiveResidues>
 VAL166  LYS551  ARG553  GLY616  TRP617  ASP618  TYR619  PRO620  LYS621  CYS622 
 ASP623  PHE694  ASN695  SER759  ASP760  ASP761  ALA762  ILE779  LEU786  VAL792 
 PHE793  MET794  SER795  GLU796  ALA797  LYS798  CYS799  TRP800  GLU811  SER814 

> <Gold.Protein.RotatedAtoms>
  152.5431  134.2041  159.8723 H   0  0  0  0  0  0  0  0  0  0  0  0  # atno 6907 bound_to 6896
  151.2028  133.4594  159.2604 H   0  0  0  0  0  0  0  0  0  0  0  0  # atno 6908 bound_to 6896
  151.0972  134.9964  159.8487 H   0  0  0  0  0  0  0  0  0  0  0  0  # atno 6909 bound_to 6896
  146.0090  140.6987  142.9234 H   0  0  0  0  0  0  0  0  0  0  0  0  # atno 7974 bound_to 7965
  154.6558  140.0574  157.0007 H   0  0  0  0  0  0  0  0  0  0  0  0  # atno 8008 bound_to 7997
  155.1302  140.3256  155.4457 H   0  0  0  0  0  0  0  0  0  0  0  0  # atno 8009 bound_to 7997
  156.2596  140.1982  156.6421 H   0  0  0  0  0  0  0  0  0  0  0  0  # atno 8010 bound_to 7997
  140.1114  143.4524  152.1750 H   0  0  0  0  0  0  0  0  0  0  0  0  # atno 10167 bound_to 10162
  156.8323  130.9657  151.3105 H   0  0  0  0  0  0  0  0  0  0  0  0  # atno 10718 bound_to 10713
  153.3350  135.6977  153.6915 H   0  0  0  0  0  0  0  0  0  0  0  0  # atno 10763 bound_to 10752
  153.5703  135.3517  155.2835 H   0  0  0  0  0  0  0  0  0  0  0  0  # atno 10764 bound_to 10752
  154.8625  135.4270  154.2548 H   0  0  0  0  0  0  0  0  0  0  0  0  # atno 10765 bound_to 10752
  141.0854  133.6643  156.3832 H   0  0  0  0  0  0  0  0  0  0  0  0  # atno 11005 bound_to 11000
  144.6946  140.3364  143.7207 LP  0  0  0  0  0  0  0  0  0  0  0  0  # atno 17320 bound_to 7965
  145.7372  139.1753  143.2397 LP  0  0  0  0  0  0  0  0  0  0  0  0  # atno 17321 bound_to 7965
  139.5617  144.7410  151.4136 LP  0  0  0  0  0  0  0  0  0  0  0  0  # atno 17342 bound_to 10162
  140.6923  143.7832  150.7274 LP  0  0  0  0  0  0  0  0  0  0  0  0  # atno 17343 bound_to 10162
  157.6400  130.8798  149.9431 LP  0  0  0  0  0  0  0  0  0  0  0  0  # atno 17370 bound_to 10713
  156.0927  130.3662  150.0364 LP  0  0  0  0  0  0  0  0  0  0  0  0  # atno 17371 bound_to 10713
  140.5375  134.6153  157.5369 LP  0  0  0  0  0  0  0  0  0  0  0  0  # atno 17394 bound_to 11000
  139.9672  134.7353  156.0115 LP  0  0  0  0  0  0  0  0  0  0  0  0  # atno 17395 bound_to 11000

$$$$
