AV-unprocessed.smi:281|AV-procd|sdf|2109|dock1
  -GOLD-   2262021403D 1   1.00000     0.00000
 Structure written by MMmdl.
 55 59  0  0  0  0  0  0  0  0  1 V2000
  147.0889  139.1418  152.9859 C   0  0  0  0  0  0  0  0  0  0  0  0
  146.3160  137.8878  153.4068 C   0  0  2  0  0  0  0  0  0  0  0  0
  146.9332  137.2202  154.6478 C   0  0  0  0  0  0  0  0  0  0  0  0
  146.2368  135.9738  154.9430 N   0  0  0  0  0  0  0  0  0  0  0  0
  146.4644  135.4632  156.1797 C   0  0  0  0  0  0  0  0  0  0  0  0
  146.0550  134.2013  156.4801 N   0  0  0  0  0  0  0  0  0  0  0  0
  146.2835  133.6868  157.6916 C   0  0  0  0  0  0  0  0  0  0  0  0
  146.8906  134.2515  158.7366 N   0  0  0  0  0  0  0  0  0  0  0  0
  147.2922  135.5223  158.4481 C   0  0  0  0  0  0  0  0  0  0  0  0
  147.1236  136.1977  157.2060 C   0  0  0  0  0  0  0  0  0  0  0  0
  147.6562  137.4787  157.2900 N   0  0  0  0  0  0  0  0  0  0  0  0
  148.1228  137.5517  158.5062 C   0  0  0  0  0  0  0  0  0  0  0  0
  147.9336  136.4267  159.2772 N   0  0  0  0  0  0  0  0  0  0  0  0
  148.3418  136.2399  160.6617 C   0  0  0  0  0  0  0  0  0  0  0  0
  147.1791  136.2621  161.6895 C   0  0  1  0  0  0  0  0  0  0  0  0
  146.5793  137.5413  161.6235 O   0  0  0  0  0  0  0  0  0  0  0  0
  146.1168  135.1871  161.4627 C   0  0  0  0  0  0  0  0  0  0  0  0
  146.4725  134.0695  162.4510 C   0  0  0  0  0  0  0  0  0  0  0  0
  147.5737  134.5466  163.2144 O   0  0  0  0  0  0  0  0  0  0  0  0
  147.6074  135.9621  163.1291 C   0  0  0  0  0  0  0  0  0  0  0  0
  146.2165  135.0529  153.8101 C   0  0  0  0  0  0  0  0  0  0  0  0
  145.6319  135.7447  152.5524 C   0  0  2  0  0  0  0  0  0  0  0  0
  144.1260  135.9730  152.6483 C   0  0  0  0  0  0  0  0  0  0  0  0
  143.5455  134.6423  152.1851 C   0  0  0  0  0  0  0  0  0  0  0  0
  144.4672  134.1403  151.2256 O   0  0  0  0  0  0  0  0  0  0  0  0
  145.6837  134.8820  151.2746 C   0  0  2  0  0  0  0  0  0  0  0  0
  146.8947  133.9524  151.1116 C   0  0  0  0  0  0  0  0  0  0  0  0
  146.3301  136.9705  152.3127 O   0  0  0  0  0  0  0  0  0  0  0  0
  147.0970  139.8840  153.7845 H   0  0  0  0  0  0  0  0  0  0  0  0
  146.6344  139.6028  152.1087 H   0  0  0  0  0  0  0  0  0  0  0  0
  148.1239  138.9035  152.7389 H   0  0  0  0  0  0  0  0  0  0  0  0
  145.2885  138.1809  153.6259 H   0  0  0  0  0  0  0  0  0  0  0  0
  147.9869  136.9997  154.4708 H   0  0  0  0  0  0  0  0  0  0  0  0
  146.8937  137.9104  155.4896 H   0  0  0  0  0  0  0  0  0  0  0  0
  145.9290  132.6784  157.8455 H   0  0  0  0  0  0  0  0  0  0  0  0
  148.6133  138.4390  158.8790 H   0  0  0  0  0  0  0  0  0  0  0  0
  148.8831  135.2953  160.7305 H   0  0  0  0  0  0  0  0  0  0  0  0
  149.0652  137.0196  160.9038 H   0  0  0  0  0  0  0  0  0  0  0  0
  145.7674  137.5165  162.1064 H   0  0  0  0  0  0  0  0  0  0  0  0
  145.1231  135.5657  161.7086 H   0  0  0  0  0  0  0  0  0  0  0  0
  146.0764  134.8407  160.4300 H   0  0  0  0  0  0  0  0  0  0  0  0
  145.6313  133.8537  163.1107 H   0  0  0  0  0  0  0  0  0  0  0  0
  146.7489  133.1458  161.9416 H   0  0  0  0  0  0  0  0  0  0  0  0
  148.5862  136.3678  163.3841 H   0  0  0  0  0  0  0  0  0  0  0  0
  146.8852  136.3620  163.8434 H   0  0  0  0  0  0  0  0  0  0  0  0
  147.2424  134.7333  153.6232 H   0  0  0  0  0  0  0  0  0  0  0  0
  145.6403  134.1599  154.0552 H   0  0  0  0  0  0  0  0  0  0  0  0
  143.7817  136.2590  153.6427 H   0  0  0  0  0  0  0  0  0  0  0  0
  143.8248  136.7583  151.9533 H   0  0  0  0  0  0  0  0  0  0  0  0
  143.4867  133.9388  153.0161 H   0  0  0  0  0  0  0  0  0  0  0  0
  142.5468  134.7485  151.7614 H   0  0  0  0  0  0  0  0  0  0  0  0
  145.6530  135.5536  150.4147 H   0  0  0  0  0  0  0  0  0  0  0  0
  147.8290  134.5116  151.1681 H   0  0  0  0  0  0  0  0  0  0  0  0
  146.8670  133.4508  150.1442 H   0  0  0  0  0  0  0  0  0  0  0  0
  146.9141  133.1781  151.8788 H   0  0  0  0  0  0  0  0  0  0  0  0
  1  2  1  0  0  0  0
  1 29  1  0  0  0  0
  1 30  1  0  0  0  0
  1 31  1  0  0  0  0
  2 28  1  0  0  0  0
  2  3  1  0  0  0  0
  2 32  1  0  0  0  0
  3  4  1  0  0  0  0
  3 33  1  0  0  0  0
  3 34  1  0  0  0  0
  4  5  1  0  0  0  0
  4 21  1  0  0  0  0
  5 10  1  0  0  0  0
  5  6  2  0  0  0  0
  6  7  1  0  0  0  0
  7  8  2  0  0  0  0
  7 35  1  0  0  0  0
  8  9  1  0  0  0  0
  9 13  1  0  0  0  0
  9 10  2  0  0  0  0
 10 11  1  0  0  0  0
 11 12  2  0  0  0  0
 12 13  1  0  0  0  0
 12 36  1  0  0  0  0
 13 14  1  0  0  0  0
 14 15  1  0  0  0  0
 14 37  1  0  0  0  0
 14 38  1  0  0  0  0
 15 20  1  0  0  0  0
 15 16  1  0  0  0  0
 15 17  1  0  0  0  0
 16 39  1  0  0  0  0
 17 18  1  0  0  0  0
 17 40  1  0  0  0  0
 17 41  1  0  0  0  0
 18 19  1  0  0  0  0
 18 42  1  0  0  0  0
 18 43  1  0  0  0  0
 19 20  1  0  0  0  0
 20 44  1  0  0  0  0
 20 45  1  0  0  0  0
 21 22  1  0  0  0  0
 21 46  1  0  0  0  0
 21 47  1  0  0  0  0
 22 26  1  0  0  0  0
 22 23  1  0  0  0  0
 22 28  1  0  0  0  0
 23 24  1  0  0  0  0
 23 48  1  0  0  0  0
 23 49  1  0  0  0  0
 24 25  1  0  0  0  0
 24 50  1  0  0  0  0
 24 51  1  0  0  0  0
 25 26  1  0  0  0  0
 26 27  1  0  0  0  0
 26 52  1  0  0  0  0
 27 53  1  0  0  0  0
 27 54  1  0  0  0  0
 27 55  1  0  0  0  0
M  END
> <s_m_source_file>
AV-unprocessed.smi

> <i_m_source_file_index>
281

> <i_lp_mmshare_version>
43012

> <i_f3d_flags>
0

> <s_epik_input>
W0NIM11bQ0BASF0xT1tDSDJdW0NIMl1bQ0BAXTEyW0NIMl1OKFtDSDJdW0NASF0oTzIpW0NIM10pYyhuW2NIXW4zKWMoYzM0KW5bY0hdbjRbQ0gyXVtDQEBdNShbT0hdKVtDSDJdW0NIMl1PW0NIMl01

> <s_epik_cmdline>
J2VwaWtfcHl0aG9uJywgJy1waCcsICc3LjAnLCAnLXRuJywgJzgnLCAnLW1hJywgJzIwMCcsICctbWV0YWxfYmluZGluZycsICctaW1hZScsICc8aW5maWxlLm1hZT4nLCAnLW9tYWUnLCAnPG91dGZpbGUubWFlPic=

> <r_lp_tautomer_probability>
1

> <r_epik_Ionization_Penalty>
0.00571331

> <r_epik_Ionization_Penalty_Charging>
0

> <r_epik_Ionization_Penalty_Neutral>
0.00571331

> <r_epik_State_Penalty>
0.00399586

> <r_epik_Charging_Adjusted_Penalty>
0.00399586

> <i_epik_Tot_Q>
0

> <i_epik_Tot_abs_Q>
0

> <r_epik_Metal_State_Penalty>
-0

> <b_epik_Metal_Only>
0

> <s_lp_Force_Field>
OPLS_2005

> <r_lp_Energy>
56.9386

> <b_lp_Chiralities_Consistent>
1

> <s_lp_Variant>
AV-unprocessed.smi:281-9

> <Gold.Version>
5.8.1

> <Gold.Id.Protein>
6NUR|6NUR_protein|mol2

> <Gold.PLP.Fitness>
35.1548

> <Gold.PLP.PLP>
-33.2310

> <Gold.PLP.part.hbond>
-2.3082

> <Gold.PLP.part.metal>
0.0000

> <Gold.PLP.part.buried>
-5.8774

> <Gold.PLP.part.nonpolar>
-26.3975

> <Gold.PLP.part.repulsive>
1.3033

> <Gold.PLP.ligand.clash>
0.0000

> <Gold.PLP.ligand.torsion>
0.6555

> <Gold.PLP.Chemscore.Hbond>
0.9737

> <Gold.PLP.Chemscore.CHOScore>
0.0000

> <Gold.PLP.Chemscore.Metal>
0.0000

> <Gold.Chemscore.Hbonds>
donor molecule, donor type, donor heavy atom, donor atom, acceptor molecule, acceptor atom, score
      P1  H  6934  6947       L1    16  0.99

> <Gold.PLP.Chemscore.Internal.Correction>
0.3139

> <Gold.Rescore>
     Score         DG    S(hbond)    S(metal)    S(lipo)     H(rot)  DE(clash)    DE(int)     intcor
      9.26     -12.54       0.97        0.00      78.42       2.09       0.02       3.26       ----

> <Gold.Chemscore.Fitness>
9.2639

> <Gold.Chemscore.DG>
-12.5433

> <Gold.Chemscore.ZeroCoef>
-5.4800

> <Gold.Chemscore.Hbond>
0.9718

> <Gold.Chemscore.Metal>
0.0000

> <Gold.Chemscore.Lipo>
78.4170

> <Gold.Chemscore.Internal_Hbond>
0.0000

> <Gold.Chemscore.DEClash>
0.0202

> <Gold.Chemscore.DEInternal>
3.2592

> <Gold.Chemscore.Rot>
2.0927

> <Gold.Chemscore.Internal.Correction>
   9.000000E+99

> <Gold.Chemscore.Hbonds>
donor molecule, donor type, donor heavy atom, donor atom, acceptor molecule, acceptor atom, score
      P1  H  6934  6947       L1    16  0.92

> <Gold.Chemscore.Hbond.Weighted>
-3.2459

> <Gold.Chemscore.Metal.Weighted>
-0.0000

> <Gold.Chemscore.Lipo.Weighted>
-9.1748

> <Gold.Chemscore.Internal_Hbond.Weighted>
0.0000

> <Gold.Chemscore.DEClash.Weighted>
0.0202

> <Gold.Chemscore.DEInternal.Weighted>
3.2592

> <Gold.Chemscore.Rot.Weighted>
5.3573

> <Gold.Chemscore.Internal.Correction.Weighted>
   9.000000E+99

> <Gold.Protein.RotatedTorsions>
[ 6907 6896 6895 6894 ] final  144.44 input  -60.11 | X-H torsion
[ 7974 7965 7964 7962 ] final   78.60 input  175.53 | X-H torsion
[ 8008 7997 7996 7995 ] final  -56.05 input   59.86 | X-H torsion
[ 10167 10162 10161 10158 ] final  135.44 input  -65.29 | X-H torsion
[ 10718 10713 10712 10709 ] final  171.75 input   66.30 | X-H torsion
[ 10763 10752 10751 10750 ] final   24.94 input  -60.55 | X-H torsion
[ 11005 11000 10999 10996 ] final -179.36 input  -57.11 | X-H torsion

> <Gold.Protein.ActiveResidues>
 VAL166  LYS551  ARG553  GLY616  TRP617  ASP618  TYR619  PRO620  LYS621  CYS622 
 ASP623  PHE694  ASN695  SER759  ASP760  ASP761  ALA762  ILE779  LEU786  VAL792 
 PHE793  MET794  SER795  GLU796  ALA797  LYS798  CYS799  TRP800  GLU811  SER814 

> <Gold.Protein.RotatedAtoms>
  152.1936  133.4791  159.5020 H   0  0  0  0  0  0  0  0  0  0  0  0  # atno 6907 bound_to 6896
  150.6956  134.1680  159.4210 H   0  0  0  0  0  0  0  0  0  0  0  0  # atno 6908 bound_to 6896
  151.9596  135.0130  160.0597 H   0  0  0  0  0  0  0  0  0  0  0  0  # atno 6909 bound_to 6896
  145.6751  139.2507  143.1846 H   0  0  0  0  0  0  0  0  0  0  0  0  # atno 7974 bound_to 7965
  154.4216  140.1138  156.5575 H   0  0  0  0  0  0  0  0  0  0  0  0  # atno 8008 bound_to 7997
  155.6345  140.3496  155.4675 H   0  0  0  0  0  0  0  0  0  0  0  0  # atno 8009 bound_to 7997
  155.9921  140.1181  157.0618 H   0  0  0  0  0  0  0  0  0  0  0  0  # atno 8010 bound_to 7997
  139.5217  144.6517  151.5283 H   0  0  0  0  0  0  0  0  0  0  0  0  # atno 10167 bound_to 10162
  156.9889  131.0142  151.2862 H   0  0  0  0  0  0  0  0  0  0  0  0  # atno 10718 bound_to 10713
  153.0727  135.6594  154.0212 H   0  0  0  0  0  0  0  0  0  0  0  0  # atno 10763 bound_to 10752
  153.9853  135.2951  155.3418 H   0  0  0  0  0  0  0  0  0  0  0  0  # atno 10764 bound_to 10752
  154.7107  135.5206  153.8731 H   0  0  0  0  0  0  0  0  0  0  0  0  # atno 10765 bound_to 10752
  140.4195  134.6618  157.4656 H   0  0  0  0  0  0  0  0  0  0  0  0  # atno 11005 bound_to 11000
  146.1012  140.7541  142.9548 LP  0  0  0  0  0  0  0  0  0  0  0  0  # atno 17320 bound_to 7965
  144.7044  140.3791  143.7130 LP  0  0  0  0  0  0  0  0  0  0  0  0  # atno 17321 bound_to 7965
  140.6324  143.9050  150.6617 LP  0  0  0  0  0  0  0  0  0  0  0  0  # atno 17342 bound_to 10162
  140.2358  143.3701  152.1528 LP  0  0  0  0  0  0  0  0  0  0  0  0  # atno 17343 bound_to 10162
  157.5473  130.8159  149.8101 LP  0  0  0  0  0  0  0  0  0  0  0  0  # atno 17370 bound_to 10713
  156.0215  130.3794  150.1949 LP  0  0  0  0  0  0  0  0  0  0  0  0  # atno 17371 bound_to 10713
  140.0210  134.6547  155.9240 LP  0  0  0  0  0  0  0  0  0  0  0  0  # atno 17394 bound_to 11000
  141.1789  133.6544  156.4941 LP  0  0  0  0  0  0  0  0  0  0  0  0  # atno 17395 bound_to 11000

$$$$
