AV-unprocessed.smi:699|AV-procd|sdf|3404|dock2
  -GOLD-   22720 0383D 1   1.00000     0.00000
 Structure written by MMmdl.
 35 36  0  0  0  0  0  0  0  0  2 V2000
  147.1902  134.7031  152.8224 N   0  0  0  0  0  0  0  0  0  0  0  0
  146.5364  133.9948  151.8982 C   0  0  0  0  0  0  0  0  0  0  0  0
  146.7949  132.8116  151.6838 O   0  0  0  0  0  0  0  0  0  0  0  0
  145.4263  134.7270  151.1129 C   0  0  1  0  0  0  0  0  0  0  0  0
  144.0534  134.0971  151.3908 C   0  0  0  0  0  0  0  0  0  0  0  0
  143.5066  134.8192  152.6250 C   0  0  0  0  0  0  0  0  0  0  0  0
  144.1198  136.2247  152.5936 C   0  0  0  0  0  0  0  0  0  0  0  0
  145.2093  136.2142  151.5037 C   0  0  1  0  0  0  0  0  0  0  0  0
  146.4136  136.9164  151.9521 N   0  0  0  0  0  0  0  0  0  0  0  0
  146.4211  138.0665  152.6408 C   0  0  0  0  0  0  0  0  0  0  0  0
  145.3970  138.6550  152.9868 O   0  0  0  0  0  0  0  0  0  0  0  0
  147.6770  138.4699  152.8999 N   0  0  0  0  0  0  0  0  0  0  0  0
  148.1148  139.6397  153.5793 C   0  0  0  0  0  0  0  0  0  0  0  0
  147.3215  140.8016  153.4514 C   0  0  0  0  0  0  0  0  0  0  0  0
  147.7048  141.9836  154.1170 C   0  0  0  0  0  0  0  0  0  0  0  0
  148.8202  141.9952  154.8777 N   0  3  0  0  0  0  0  0  0  0  0  0
  149.6030  140.9073  155.0412 C   0  0  0  0  0  0  0  0  0  0  0  0
  149.2700  139.6965  154.4006 C   0  0  0  0  0  0  0  0  0  0  0  0
  147.9299  134.2693  153.3554 H   0  0  0  0  0  0  0  0  0  0  0  0
  146.9495  135.6711  152.9799 H   0  0  0  0  0  0  0  0  0  0  0  0
  145.6584  134.6568  150.0488 H   0  0  0  0  0  0  0  0  0  0  0  0
  143.3963  134.2810  150.5399 H   0  0  0  0  0  0  0  0  0  0  0  0
  144.0940  133.0162  151.5345 H   0  0  0  0  0  0  0  0  0  0  0  0
  142.4165  134.8442  152.6325 H   0  0  0  0  0  0  0  0  0  0  0  0
  143.8245  134.2997  153.5298 H   0  0  0  0  0  0  0  0  0  0  0  0
  143.3631  136.9757  152.3645 H   0  0  0  0  0  0  0  0  0  0  0  0
  144.5265  136.4708  153.5756 H   0  0  0  0  0  0  0  0  0  0  0  0
  144.8079  136.7357  150.6325 H   0  0  0  0  0  0  0  0  0  0  0  0
  147.2992  136.4990  151.7049 H   0  0  0  0  0  0  0  0  0  0  0  0
  148.4097  137.8372  152.6134 H   0  0  0  0  0  0  0  0  0  0  0  0
  146.4274  140.7924  152.8445 H   0  0  0  0  0  0  0  0  0  0  0  0
  147.1556  142.9125  154.0657 H   0  0  0  0  0  0  0  0  0  0  0  0
  150.4644  141.0349  155.6805 H   0  0  0  0  0  0  0  0  0  0  0  0
  149.9008  138.8364  154.5631 H   0  0  0  0  0  0  0  0  0  0  0  0
  149.0799  142.8602  155.3526 H   0  0  0  0  0  0  0  0  0  0  0  0
  1  2  1  0  0  0  0
  1 19  1  0  0  0  0
  1 20  1  0  0  0  0
  2  3  2  0  0  0  0
  2  4  1  0  0  0  0
  4  8  1  0  0  0  0
  4  5  1  0  0  0  0
  4 21  1  0  0  0  0
  5  6  1  0  0  0  0
  5 22  1  0  0  0  0
  5 23  1  0  0  0  0
  6  7  1  0  0  0  0
  6 24  1  0  0  0  0
  6 25  1  0  0  0  0
  7  8  1  0  0  0  0
  7 26  1  0  0  0  0
  7 27  1  0  0  0  0
  8  9  1  0  0  0  0
  8 28  1  0  0  0  0
  9 10  1  0  0  0  0
  9 29  1  0  0  0  0
 10 11  2  0  0  0  0
 10 12  1  0  0  0  0
 12 13  1  0  0  0  0
 12 30  1  0  0  0  0
 13 18  1  0  0  0  0
 13 14  2  0  0  0  0
 14 15  1  0  0  0  0
 14 31  1  0  0  0  0
 15 16  2  0  0  0  0
 15 32  1  0  0  0  0
 16 17  1  0  0  0  0
 16 35  1  0  0  0  0
 17 18  2  0  0  0  0
 17 33  1  0  0  0  0
 18 34  1  0  0  0  0
M  CHG  1  16   1
M  END
> <s_m_source_file>
AV-unprocessed.smi

> <i_m_source_file_index>
699

> <i_lp_mmshare_version>
43012

> <i_f3d_flags>
0

> <s_epik_input>
W05IMl1DKD1PKVtDQEBIXTFbQ0gyXVtDSDJdW0NIMl1bQ0BIXTFbTkhdQyg9TylbTkhdYzJbY0hdW2NIXW5bY0hdW2NIXTI=

> <s_epik_cmdline>
J2VwaWtfcHl0aG9uJywgJy1waCcsICc3LjAnLCAnLXRuJywgJzgnLCAnLW1hJywgJzIwMCcsICctbWV0YWxfYmluZGluZycsICctaW1hZScsICc8aW5maWxlLm1hZT4nLCAnLW9tYWUnLCAnPG91dGZpbGUubWFlPic=

> <r_epik_Ionization_Penalty>
1.0332

> <r_epik_Ionization_Penalty_Charging>
1.03318

> <r_epik_Ionization_Penalty_Neutral>
1.91967e-05

> <r_epik_State_Penalty>
1.08452

> <r_epik_Charging_Adjusted_Penalty>
2.11769

> <i_epik_Tot_Q>
1

> <i_epik_Tot_abs_Q>
1

> <r_epik_Metal_State_Penalty>
1.18144

> <b_epik_Metal_Only>
0

> <s_lp_Force_Field>
OPLS_2005

> <r_lp_Energy>
24.8241

> <b_lp_Chiralities_Consistent>
1

> <s_lp_Variant>
AV-unprocessed.smi:699-6

> <Gold.Version>
5.8.1

> <Gold.Id.Protein>
6NUR|6NUR_protein|mol2

> <Gold.PLP.Fitness>
40.5345

> <Gold.PLP.PLP>
-29.4891

> <Gold.PLP.part.hbond>
-4.8210

> <Gold.PLP.part.metal>
0.0000

> <Gold.PLP.part.buried>
-2.3716

> <Gold.PLP.part.nonpolar>
-26.5385

> <Gold.PLP.part.repulsive>
4.3210

> <Gold.PLP.ligand.clash>
0.0000

> <Gold.PLP.ligand.torsion>
0.4850

> <Gold.PLP.Chemscore.Hbond>
4.0000

> <Gold.PLP.Chemscore.CHOScore>
0.0000

> <Gold.PLP.Chemscore.Metal>
0.0000

> <Gold.Chemscore.Hbonds>
donor molecule, donor type, donor heavy atom, donor atom, acceptor molecule, acceptor atom, score
      L1  H     9    29       P1  7948  1.00
      L1  H    12    30       P1  7948  1.00
      L1  H    16    35       P1  8028  2.00

> <Gold.PLP.Chemscore.Internal.Correction>
0.0155

> <Gold.Rescore>
     Score         DG    S(hbond)    S(metal)    S(lipo)     H(rot)  DE(clash)    DE(int)     intcor
     11.53     -17.97       2.91        0.00      56.48       1.50       1.52       4.92       ----

> <Gold.Chemscore.Fitness>
11.5251

> <Gold.Chemscore.DG>
-17.9657

> <Gold.Chemscore.ZeroCoef>
-5.4800

> <Gold.Chemscore.Hbond>
2.9125

> <Gold.Chemscore.Metal>
0.0000

> <Gold.Chemscore.Lipo>
56.4763

> <Gold.Chemscore.Internal_Hbond>
0.0000

> <Gold.Chemscore.DEClash>
1.5234

> <Gold.Chemscore.DEInternal>
4.9171

> <Gold.Chemscore.Rot>
1.5038

> <Gold.Chemscore.Internal.Correction>
   9.000000E+99

> <Gold.Chemscore.Hbonds>
donor molecule, donor type, donor heavy atom, donor atom, acceptor molecule, acceptor atom, score
      L1  H     9    29       P1  7948  0.98
      L1  H    12    30       P1  7948  0.95
      L1  H    16    35       P1  8028  0.95

> <Gold.Chemscore.Hbond.Weighted>
-9.7276

> <Gold.Chemscore.Metal.Weighted>
-0.0000

> <Gold.Chemscore.Lipo.Weighted>
-6.6077

> <Gold.Chemscore.Internal_Hbond.Weighted>
0.0000

> <Gold.Chemscore.DEClash.Weighted>
1.5234

> <Gold.Chemscore.DEInternal.Weighted>
4.9171

> <Gold.Chemscore.Rot.Weighted>
3.8496

> <Gold.Chemscore.Internal.Correction.Weighted>
   9.000000E+99

> <Gold.Protein.RotatedTorsions>
[ 6907 6896 6895 6894 ] final  -32.74 input  -60.11 | X-H torsion
[ 7974 7965 7964 7962 ] final  145.41 input  175.53 | X-H torsion
[ 8008 7997 7996 7995 ] final -132.95 input   59.86 | X-H torsion
[ 10167 10162 10161 10158 ] final   32.79 input  -65.29 | X-H torsion
[ 10718 10713 10712 10709 ] final  -62.40 input   66.30 | X-H torsion
[ 10763 10752 10751 10750 ] final  156.72 input  -60.55 | X-H torsion
[ 11005 11000 10999 10996 ] final   37.85 input  -57.11 | X-H torsion

> <Gold.Protein.ActiveResidues>
 VAL166  LYS551  ARG553  GLY616  TRP617  ASP618  TYR619  PRO620  LYS621  CYS622 
 ASP623  PHE694  ASN695  SER759  ASP760  ASP761  ALA762  ILE779  LEU786  VAL792 
 PHE793  MET794  SER795  GLU796  ALA797  LYS798  CYS799  TRP800  GLU811  SER814 

> <Gold.Protein.RotatedAtoms>
  151.0747  134.9821  159.8326 H   0  0  0  0  0  0  0  0  0  0  0  0  # atno 6907 bound_to 6896
  152.5413  134.2255  159.8814 H   0  0  0  0  0  0  0  0  0  0  0  0  # atno 6908 bound_to 6896
  151.2282  133.4421  159.2636 H   0  0  0  0  0  0  0  0  0  0  0  0  # atno 6909 bound_to 6896
  144.8755  139.5780  143.5867 H   0  0  0  0  0  0  0  0  0  0  0  0  # atno 7974 bound_to 7965
  155.3374  140.0470  157.3044 H   0  0  0  0  0  0  0  0  0  0  0  0  # atno 8008 bound_to 7997
  154.5296  140.2252  155.8794 H   0  0  0  0  0  0  0  0  0  0  0  0  # atno 8009 bound_to 7997
  156.1774  140.3082  155.9092 H   0  0  0  0  0  0  0  0  0  0  0  0  # atno 8010 bound_to 7997
  140.4466  144.1110  150.6183 H   0  0  0  0  0  0  0  0  0  0  0  0  # atno 10167 bound_to 10162
  156.0858  130.4208  150.1130 H   0  0  0  0  0  0  0  0  0  0  0  0  # atno 10718 bound_to 10713
  154.1888  135.2796  155.3028 H   0  0  0  0  0  0  0  0  0  0  0  0  # atno 10763 bound_to 10752
  154.5945  135.5549  153.7315 H   0  0  0  0  0  0  0  0  0  0  0  0  # atno 10764 bound_to 10752
  153.0118  135.6376  154.2027 H   0  0  0  0  0  0  0  0  0  0  0  0  # atno 10765 bound_to 10752
  140.2185  134.3670  155.8016 H   0  0  0  0  0  0  0  0  0  0  0  0  # atno 11005 bound_to 11000
  146.2959  139.7277  142.9127 LP  0  0  0  0  0  0  0  0  0  0  0  0  # atno 17320 bound_to 7965
  145.4051  141.0390  143.3048 LP  0  0  0  0  0  0  0  0  0  0  0  0  # atno 17321 bound_to 7965
  140.4256  143.2591  151.9660 LP  0  0  0  0  0  0  0  0  0  0  0  0  # atno 17342 bound_to 10162
  139.4793  144.5791  151.7963 LP  0  0  0  0  0  0  0  0  0  0  0  0  # atno 17343 bound_to 10162
  156.9151  130.9664  151.3557 LP  0  0  0  0  0  0  0  0  0  0  0  0  # atno 17370 bound_to 10713
  157.5991  130.8499  149.8775 LP  0  0  0  0  0  0  0  0  0  0  0  0  # atno 17371 bound_to 10713
  141.2224  133.7180  156.8536 LP  0  0  0  0  0  0  0  0  0  0  0  0  # atno 17394 bound_to 11000
  140.1875  134.8989  157.3021 LP  0  0  0  0  0  0  0  0  0  0  0  0  # atno 17395 bound_to 11000

$$$$
