AV-unprocessed.smi:1622|AV-procd|sdf|6500|dock9
  -GOLD-   22720 7163D 1   1.00000     0.00000
 Structure written by MMmdl.
 40 41  0  0  0  0  0  0  0  0  3 V2000
  149.3762  131.6325  154.7357 C   0  0  0  0  0  0  0  0  0  0  0  0
  148.7543  132.4367  153.5832 C   0  0  0  0  0  0  0  0  0  0  0  0
  147.9275  133.6745  154.0268 C   0  0  1  0  0  0  0  0  0  0  0  0
  148.7324  134.6218  154.9508 C   0  0  0  0  0  0  0  0  0  0  0  0
  148.5397  134.2999  156.3597 N   0  0  0  0  0  0  0  0  0  0  0  0
  148.9515  135.0492  157.3902 C   0  0  0  0  0  0  0  0  0  0  0  0
  149.5376  136.1137  157.1803 O   0  0  0  0  0  0  0  0  0  0  0  0
  148.6602  134.5160  158.5976 N   0  5  0  0  0  0  0  0  0  0  0  0
  148.1306  135.2865  159.5623 C   0  0  0  0  0  0  0  0  0  0  0  0
  148.2595  136.6209  159.5686 N   0  0  0  0  0  0  0  0  0  0  0  0
  147.6336  137.2228  160.6506 N   0  0  0  0  0  0  0  0  0  0  0  0
  147.0318  136.3326  161.4430 C   0  0  0  0  0  0  0  0  0  0  0  0
  146.2872  136.7241  162.6729 C   0  0  0  0  0  0  0  0  0  0  0  0
  147.1860  134.6651  160.9158 S   0  0  0  0  0  0  0  0  0  0  0  0
  147.3585  134.4081  152.8571 N   0  3  0  0  0  0  0  0  0  0  0  0
  146.8518  133.5552  151.7584 C   0  0  0  0  0  0  0  0  0  0  0  0
  145.8679  134.4130  150.9554 C   0  0  0  0  0  0  0  0  0  0  0  0
  145.5674  135.6291  151.8345 C   0  0  0  0  0  0  0  0  0  0  0  0
  146.2533  135.3391  153.1693 C   0  0  0  0  0  0  0  0  0  0  0  0
  149.9683  130.8036  154.3479 H   0  0  0  0  0  0  0  0  0  0  0  0
  148.6115  131.2078  155.3861 H   0  0  0  0  0  0  0  0  0  0  0  0
  150.0351  132.2493  155.3466 H   0  0  0  0  0  0  0  0  0  0  0  0
  149.5433  132.7371  152.8941 H   0  0  0  0  0  0  0  0  0  0  0  0
  148.1252  131.7674  152.9958 H   0  0  0  0  0  0  0  0  0  0  0  0
  147.0825  133.3002  154.6075 H   0  0  0  0  0  0  0  0  0  0  0  0
  149.7931  134.5795  154.6977 H   0  0  0  0  0  0  0  0  0  0  0  0
  148.4190  135.6570  154.8165 H   0  0  0  0  0  0  0  0  0  0  0  0
  148.0606  133.4380  156.5757 H   0  0  0  0  0  0  0  0  0  0  0  0
  145.4142  137.3203  162.4071 H   0  0  0  0  0  0  0  0  0  0  0  0
  146.9294  137.3122  163.3288 H   0  0  0  0  0  0  0  0  0  0  0  0
  145.9543  135.8381  163.2136 H   0  0  0  0  0  0  0  0  0  0  0  0
  147.6625  133.1801  151.1330 H   0  0  0  0  0  0  0  0  0  0  0  0
  146.3237  132.6965  152.1763 H   0  0  0  0  0  0  0  0  0  0  0  0
  146.3109  134.7316  150.0110 H   0  0  0  0  0  0  0  0  0  0  0  0
  144.9630  133.8518  150.7196 H   0  0  0  0  0  0  0  0  0  0  0  0
  145.9980  136.5234  151.3824 H   0  0  0  0  0  0  0  0  0  0  0  0
  144.4975  135.8031  151.9549 H   0  0  0  0  0  0  0  0  0  0  0  0
  145.5485  134.8543  153.8469 H   0  0  0  0  0  0  0  0  0  0  0  0
  146.6072  136.2543  153.6448 H   0  0  0  0  0  0  0  0  0  0  0  0
  148.1007  134.9699  152.4648 H   0  0  0  0  0  0  0  0  0  0  0  0
  1  2  1  0  0  0  0
  1 20  1  0  0  0  0
  1 21  1  0  0  0  0
  1 22  1  0  0  0  0
  2  3  1  0  0  0  0
  2 23  1  0  0  0  0
  2 24  1  0  0  0  0
  3  4  1  0  0  0  0
  3 15  1  0  0  0  0
  3 25  1  0  0  0  0
  4  5  1  0  0  0  0
  4 26  1  0  0  0  0
  4 27  1  0  0  0  0
  5  6  1  0  0  0  0
  5 28  1  0  0  0  0
  6  7  2  0  0  0  0
  6  8  1  0  0  0  0
  8  9  1  0  0  0  0
  9 14  1  0  0  0  0
  9 10  2  0  0  0  0
 10 11  1  0  0  0  0
 11 12  2  0  0  0  0
 12 13  1  0  0  0  0
 12 14  1  0  0  0  0
 13 29  1  0  0  0  0
 13 30  1  0  0  0  0
 13 31  1  0  0  0  0
 15 19  1  0  0  0  0
 15 16  1  0  0  0  0
 15 40  1  0  0  0  0
 16 17  1  0  0  0  0
 16 32  1  0  0  0  0
 16 33  1  0  0  0  0
 17 18  1  0  0  0  0
 17 34  1  0  0  0  0
 17 35  1  0  0  0  0
 18 19  1  0  0  0  0
 18 36  1  0  0  0  0
 18 37  1  0  0  0  0
 19 38  1  0  0  0  0
 19 39  1  0  0  0  0
M  CHG  1   8  -1
M  CHG  1  15   1
M  END
> <s_m_source_file>
AV-unprocessed.smi

> <i_m_source_file_index>
1622

> <i_lp_mmshare_version>
43012

> <i_f3d_flags>
0

> <s_epik_input>
W0NIMl0xW0NIMl1bQ0gyXVtDSDJdTjFbQ0BIXShbQ0gyXVtDSDNdKVtDSDJdW05IXUMoPU8pW05IXWMybm5jKHMyKVtDSDNd

> <s_epik_cmdline>
J2VwaWtfcHl0aG9uJywgJy1waCcsICc3LjAnLCAnLXRuJywgJzgnLCAnLW1hJywgJzIwMCcsICctbWV0YWxfYmluZGluZycsICctaW1hZScsICc8aW5maWxlLm1hZT4nLCAnLW9tYWUnLCAnPG91dGZpbGUubWFlPic=

> <r_lp_tautomer_probability>
1

> <r_epik_Ionization_Penalty>
4.34497

> <r_epik_Ionization_Penalty_Charging>
4.23453

> <r_epik_Ionization_Penalty_Neutral>
0.110433

> <r_epik_State_Penalty>
4.23293

> <r_epik_Charging_Adjusted_Penalty>
8.46746

> <i_epik_Tot_Q>
0

> <i_epik_Tot_abs_Q>
2

> <r_epik_Metal_State_Penalty>
0.701092

> <b_epik_Metal_Only>
1

> <s_lp_Force_Field>
OPLS_2005

> <r_lp_Energy>
26.9801

> <b_lp_Chiralities_Consistent>
1

> <s_lp_Variant>
AV-unprocessed.smi:1622-4

> <Gold.Version>
5.8.1

> <Gold.Id.Protein>
6NUR|6NUR_protein|mol2

> <Gold.PLP.Fitness>
43.1587

> <Gold.PLP.PLP>
-28.4118

> <Gold.PLP.part.hbond>
-4.0000

> <Gold.PLP.part.metal>
0.0000

> <Gold.PLP.part.buried>
-3.4911

> <Gold.PLP.part.nonpolar>
-21.9275

> <Gold.PLP.part.repulsive>
0.0316

> <Gold.PLP.ligand.clash>
0.0000

> <Gold.PLP.ligand.torsion>
1.2725

> <Gold.PLP.Chemscore.Hbond>
5.7120

> <Gold.PLP.Chemscore.CHOScore>
0.0000

> <Gold.PLP.Chemscore.Metal>
0.0000

> <Gold.Chemscore.Hbonds>
donor molecule, donor type, donor heavy atom, donor atom, acceptor molecule, acceptor atom, score
      L1  H    15    40       P1  7948  2.00
      P1  H  6896  6908       L1     8  1.19
      P1  H  6931  6943       L1    11  0.56
      P1  H  6934  6947       L1    11  0.96

> <Gold.PLP.Chemscore.Internal.Correction>
0.1559

> <Gold.Rescore>
     Score         DG    S(hbond)    S(metal)    S(lipo)     H(rot)  DE(clash)    DE(int)     intcor
     13.90     -16.78       2.57        0.00      61.29       1.73       0.00       2.87       ----

> <Gold.Chemscore.Fitness>
13.9045

> <Gold.Chemscore.DG>
-16.7803

> <Gold.Chemscore.ZeroCoef>
-5.4800

> <Gold.Chemscore.Hbond>
2.5661

> <Gold.Chemscore.Metal>
0.0000

> <Gold.Chemscore.Lipo>
61.2883

> <Gold.Chemscore.Internal_Hbond>
0.0000

> <Gold.Chemscore.DEClash>
0.0047

> <Gold.Chemscore.DEInternal>
2.8711

> <Gold.Chemscore.Rot>
1.7348

> <Gold.Chemscore.Internal.Correction>
   9.000000E+99

> <Gold.Chemscore.Hbonds>
donor molecule, donor type, donor heavy atom, donor atom, acceptor molecule, acceptor atom, score
      L1  H    15    40       P1  7948  0.73
      P1  H  6896  6908       L1     8  0.03
      P1  H  6931  6943       L1    11  0.26
      P1  H  6934  6947       L1    11  0.87

> <Gold.Chemscore.Hbond.Weighted>
-8.5707

> <Gold.Chemscore.Metal.Weighted>
-0.0000

> <Gold.Chemscore.Lipo.Weighted>
-7.1707

> <Gold.Chemscore.Internal_Hbond.Weighted>
0.0000

> <Gold.Chemscore.DEClash.Weighted>
0.0047

> <Gold.Chemscore.DEInternal.Weighted>
2.8711

> <Gold.Chemscore.Rot.Weighted>
4.4411

> <Gold.Chemscore.Internal.Correction.Weighted>
   9.000000E+99

> <Gold.Protein.RotatedTorsions>
[ 6907 6896 6895 6894 ] final  153.65 input  -60.11 | X-H torsion
[ 7974 7965 7964 7962 ] final -129.29 input  175.53 | X-H torsion
[ 8008 7997 7996 7995 ] final  127.20 input   59.86 | X-H torsion
[ 10167 10162 10161 10158 ] final -175.66 input  -65.29 | X-H torsion
[ 10718 10713 10712 10709 ] final -123.15 input   66.30 | X-H torsion
[ 10763 10752 10751 10750 ] final   98.35 input  -60.55 | X-H torsion
[ 11005 11000 10999 10996 ] final  -31.88 input  -57.11 | X-H torsion

> <Gold.Protein.ActiveResidues>
 VAL166  LYS551  ARG553  GLY616  TRP617  ASP618  TYR619  PRO620  LYS621  CYS622 
 ASP623  PHE694  ASN695  SER759  ASP760  ASP761  ALA762  ILE779  LEU786  VAL792 
 PHE793  MET794  SER795  GLU796  ALA797  LYS798  CYS799  TRP800  GLU811  SER814 

> <Gold.Protein.RotatedAtoms>
  152.0697  133.4100  159.4453 H   0  0  0  0  0  0  0  0  0  0  0  0  # atno 6907 bound_to 6896
  150.6864  134.3106  159.4754 H   0  0  0  0  0  0  0  0  0  0  0  0  # atno 6908 bound_to 6896
  152.0936  134.9389  160.0622 H   0  0  0  0  0  0  0  0  0  0  0  0  # atno 6909 bound_to 6896
  144.9587  140.7423  143.4743 H   0  0  0  0  0  0  0  0  0  0  0  0  # atno 7974 bound_to 7965
  156.2884  140.2674  156.2234 H   0  0  0  0  0  0  0  0  0  0  0  0  # atno 8008 bound_to 7997
  155.0145  140.0387  157.2431 H   0  0  0  0  0  0  0  0  0  0  0  0  # atno 8009 bound_to 7997
  154.7489  140.2739  155.6314 H   0  0  0  0  0  0  0  0  0  0  0  0  # atno 8010 bound_to 7997
  139.5570  144.1965  152.1175 H   0  0  0  0  0  0  0  0  0  0  0  0  # atno 10167 bound_to 10162
  156.1478  130.6512  150.9868 H   0  0  0  0  0  0  0  0  0  0  0  0  # atno 10718 bound_to 10713
  153.2880  135.4151  155.1140 H   0  0  0  0  0  0  0  0  0  0  0  0  # atno 10763 bound_to 10752
  154.8511  135.3511  154.6021 H   0  0  0  0  0  0  0  0  0  0  0  0  # atno 10764 bound_to 10752
  153.6442  135.7055  153.5289 H   0  0  0  0  0  0  0  0  0  0  0  0  # atno 10765 bound_to 10752
  140.9506  133.7223  156.1214 H   0  0  0  0  0  0  0  0  0  0  0  0  # atno 11005 bound_to 11000
  145.2733  139.1946  143.4830 LP  0  0  0  0  0  0  0  0  0  0  0  0  # atno 17320 bound_to 7965
  146.3346  140.2683  142.8605 LP  0  0  0  0  0  0  0  0  0  0  0  0  # atno 17321 bound_to 7965
  140.1471  144.5149  150.6709 LP  0  0  0  0  0  0  0  0  0  0  0  0  # atno 17342 bound_to 10162
  140.6844  143.2342  151.5300 LP  0  0  0  0  0  0  0  0  0  0  0  0  # atno 17343 bound_to 10162
  157.6631  131.0877  150.7791 LP  0  0  0  0  0  0  0  0  0  0  0  0  # atno 17370 bound_to 10713
  156.7862  130.4875  149.5392 LP  0  0  0  0  0  0  0  0  0  0  0  0  # atno 17371 bound_to 10713
  140.7608  134.3941  157.5526 LP  0  0  0  0  0  0  0  0  0  0  0  0  # atno 17394 bound_to 11000
  139.8846  134.8960  156.2692 LP  0  0  0  0  0  0  0  0  0  0  0  0  # atno 17395 bound_to 11000

$$$$
