AV-unprocessed.smi:950|AV-procd|sdf|4250|dock10
  -GOLD-   22720 2153D 1   1.00000     0.00000
 Structure written by MMmdl.
 34 35  0  0  0  0  0  0  0  0  1 V2000
  153.2280  143.3284  163.2609 C   0  0  0  0  0  0  0  0  0  0  0  0
  153.2994  142.3389  162.0930 C   0  0  0  0  0  0  0  0  0  0  0  0
  152.4598  142.7618  160.9349 C   0  0  0  0  0  0  0  0  0  0  0  0
  151.8695  141.9012  160.1024 N   0  0  0  0  0  0  0  0  0  0  0  0
  151.1798  142.5376  159.0649 C   0  0  0  0  0  0  0  0  0  0  0  0
  150.4629  141.7242  158.0248 C   0  0  0  0  0  0  0  0  0  0  0  0
  150.8684  142.0682  156.5765 C   0  0  0  0  0  0  0  0  0  0  0  0
  149.7403  142.0648  155.6502 N   0  0  0  0  0  0  0  0  0  0  0  0
  149.5209  141.1387  154.7058 C   0  0  0  0  0  0  0  0  0  0  0  0
  150.2349  140.1464  154.5558 O   0  0  0  0  0  0  0  0  0  0  0  0
  148.3116  141.3859  153.7952 C   0  0  0  0  0  0  0  0  0  0  0  0
  147.4485  142.6066  154.1641 C   0  0  0  0  0  0  0  0  0  0  0  0
  146.2051  141.7374  153.9537 C   0  0  0  0  0  0  0  0  0  0  0  0
  147.0955  140.5031  154.1225 C   0  0  0  0  0  0  0  0  0  0  0  0
  151.2601  143.9068  159.1257 C   0  0  0  0  0  0  0  0  0  0  0  0
  152.2115  144.4438  160.4830 S   0  0  0  0  0  0  0  0  0  0  0  0
  153.8569  142.9992  164.0880 H   0  0  0  0  0  0  0  0  0  0  0  0
  152.2077  143.4224  163.6341 H   0  0  0  0  0  0  0  0  0  0  0  0
  153.5663  144.3198  162.9583 H   0  0  0  0  0  0  0  0  0  0  0  0
  154.3321  142.2306  161.7593 H   0  0  0  0  0  0  0  0  0  0  0  0
  152.9718  141.3520  162.4204 H   0  0  0  0  0  0  0  0  0  0  0  0
  150.6388  140.6629  158.2045 H   0  0  0  0  0  0  0  0  0  0  0  0
  149.3858  141.8588  158.1290 H   0  0  0  0  0  0  0  0  0  0  0  0
  151.3752  143.0338  156.5439 H   0  0  0  0  0  0  0  0  0  0  0  0
  151.5876  141.3312  156.2181 H   0  0  0  0  0  0  0  0  0  0  0  0
  149.1035  142.8466  155.7041 H   0  0  0  0  0  0  0  0  0  0  0  0
  148.5572  141.3663  152.7317 H   0  0  0  0  0  0  0  0  0  0  0  0
  147.5542  142.9435  155.1968 H   0  0  0  0  0  0  0  0  0  0  0  0
  147.5279  143.4404  153.4661 H   0  0  0  0  0  0  0  0  0  0  0  0
  145.4351  141.8508  154.7175 H   0  0  0  0  0  0  0  0  0  0  0  0
  145.7945  141.8259  152.9468 H   0  0  0  0  0  0  0  0  0  0  0  0
  146.9026  139.7145  153.3950 H   0  0  0  0  0  0  0  0  0  0  0  0
  147.0892  140.1135  155.1424 H   0  0  0  0  0  0  0  0  0  0  0  0
  150.8248  144.6301  158.4524 H   0  0  0  0  0  0  0  0  0  0  0  0
  1  2  1  0  0  0  0
  1 17  1  0  0  0  0
  1 18  1  0  0  0  0
  1 19  1  0  0  0  0
  2  3  1  0  0  0  0
  2 20  1  0  0  0  0
  2 21  1  0  0  0  0
  3 16  1  0  0  0  0
  3  4  2  0  0  0  0
  4  5  1  0  0  0  0
  5  6  1  0  0  0  0
  5 15  2  0  0  0  0
  6  7  1  0  0  0  0
  6 22  1  0  0  0  0
  6 23  1  0  0  0  0
  7  8  1  0  0  0  0
  7 24  1  0  0  0  0
  7 25  1  0  0  0  0
  8  9  1  0  0  0  0
  8 26  1  0  0  0  0
  9 10  2  0  0  0  0
  9 11  1  0  0  0  0
 11 14  1  0  0  0  0
 11 12  1  0  0  0  0
 11 27  1  0  0  0  0
 12 13  1  0  0  0  0
 12 28  1  0  0  0  0
 12 29  1  0  0  0  0
 13 14  1  0  0  0  0
 13 30  1  0  0  0  0
 13 31  1  0  0  0  0
 14 32  1  0  0  0  0
 14 33  1  0  0  0  0
 15 16  1  0  0  0  0
 15 34  1  0  0  0  0
M  END
> <s_m_source_file>
AV-unprocessed.smi

> <i_m_source_file_index>
950

> <i_lp_mmshare_version>
43012

> <i_f3d_flags>
0

> <s_epik_input>
W0NIM11bQ0gyXWMxbmMoW2NIXXMxKVtDSDJdW0NIMl1bTkhdQyg9TylbQ0hdMltDSDJdW0NIMl1bQ0gyXTI=

> <s_epik_cmdline>
J2VwaWtfcHl0aG9uJywgJy1waCcsICc3LjAnLCAnLXRuJywgJzgnLCAnLW1hJywgJzIwMCcsICctbWV0YWxfYmluZGluZycsICctaW1hZScsICc8aW5maWxlLm1hZT4nLCAnLW9tYWUnLCAnPG91dGZpbGUubWFlPic=

> <r_epik_Ionization_Penalty>
0.00109666

> <r_epik_Ionization_Penalty_Charging>
0

> <r_epik_Ionization_Penalty_Neutral>
0.00109666

> <r_epik_State_Penalty>
0.000719322

> <r_epik_Charging_Adjusted_Penalty>
0.000719322

> <i_epik_Tot_Q>
0

> <i_epik_Tot_abs_Q>
0

> <r_epik_Metal_State_Penalty>
-0

> <b_epik_Metal_Only>
0

> <s_lp_Force_Field>
OPLS_2005

> <r_lp_Energy>
2.32113

> <b_lp_Chiralities_Consistent>
1

> <s_lp_Variant>
AV-unprocessed.smi:950-1

> <Gold.Version>
5.8.1

> <Gold.Id.Protein>
6NUR|6NUR_protein|mol2

> <Gold.PLP.Fitness>
43.6938

> <Gold.PLP.PLP>
-39.3431

> <Gold.PLP.part.hbond>
-2.3375

> <Gold.PLP.part.metal>
0.0000

> <Gold.PLP.part.buried>
-1.3500

> <Gold.PLP.part.nonpolar>
-33.9916

> <Gold.PLP.part.repulsive>
0.2454

> <Gold.PLP.ligand.clash>
0.0000

> <Gold.PLP.ligand.torsion>
0.9701

> <Gold.PLP.Chemscore.Hbond>
1.9600

> <Gold.PLP.Chemscore.CHOScore>
0.0000

> <Gold.PLP.Chemscore.Metal>
0.0000

> <Gold.Chemscore.Hbonds>
donor molecule, donor type, donor heavy atom, donor atom, acceptor molecule, acceptor atom, score
      L1  H     8    26       P1  8028  0.94
      P1  H  7989  7998       L1    10  1.00

> <Gold.PLP.Chemscore.Internal.Correction>
0.4109

> <Gold.Rescore>
     Score         DG    S(hbond)    S(metal)    S(lipo)     H(rot)  DE(clash)    DE(int)     intcor
     16.16     -17.43       1.06        0.00     105.00       1.51       0.22       1.05       ----

> <Gold.Chemscore.Fitness>
16.1614

> <Gold.Chemscore.DG>
-17.4336

> <Gold.Chemscore.ZeroCoef>
-5.4800

> <Gold.Chemscore.Hbond>
1.0577

> <Gold.Chemscore.Metal>
0.0000

> <Gold.Chemscore.Lipo>
105.0048

> <Gold.Chemscore.Internal_Hbond>
0.0000

> <Gold.Chemscore.DEClash>
0.2249

> <Gold.Chemscore.DEInternal>
1.0473

> <Gold.Chemscore.Rot>
1.5096

> <Gold.Chemscore.Internal.Correction>
   9.000000E+99

> <Gold.Chemscore.Hbonds>
donor molecule, donor type, donor heavy atom, donor atom, acceptor molecule, acceptor atom, score
      L1  H     8    26       P1  8028  0.92
      P1  H  7989  7998       L1    10  0.25

> <Gold.Chemscore.Hbond.Weighted>
-3.5326

> <Gold.Chemscore.Metal.Weighted>
-0.0000

> <Gold.Chemscore.Lipo.Weighted>
-12.2856

> <Gold.Chemscore.Internal_Hbond.Weighted>
0.0000

> <Gold.Chemscore.DEClash.Weighted>
0.2249

> <Gold.Chemscore.DEInternal.Weighted>
1.0473

> <Gold.Chemscore.Rot.Weighted>
3.8646

> <Gold.Chemscore.Internal.Correction.Weighted>
   9.000000E+99

> <Gold.Protein.RotatedTorsions>
[ 6907 6896 6895 6894 ] final   36.22 input  -60.11 | X-H torsion
[ 7974 7965 7964 7962 ] final   12.46 input  175.53 | X-H torsion
[ 8008 7997 7996 7995 ] final  128.17 input   59.86 | X-H torsion
[ 10167 10162 10161 10158 ] final   59.13 input  -65.29 | X-H torsion
[ 10718 10713 10712 10709 ] final  -22.45 input   66.30 | X-H torsion
[ 10763 10752 10751 10750 ] final -148.43 input  -60.55 | X-H torsion
[ 11005 11000 10999 10996 ] final  -93.56 input  -57.11 | X-H torsion

> <Gold.Protein.ActiveResidues>
 VAL166  LYS551  ARG553  GLY616  TRP617  ASP618  TYR619  PRO620  LYS621  CYS622 
 ASP623  PHE694  ASN695  SER759  ASP760  ASP761  ALA762  ILE779  LEU786  VAL792 
 PHE793  MET794  SER795  GLU796  ALA797  LYS798  CYS799  TRP800  GLU811  SER814 

> <Gold.Protein.RotatedAtoms>
  152.1267  134.9165  160.0560 H   0  0  0  0  0  0  0  0  0  0  0  0  # atno 6907 bound_to 6896
  152.0285  133.3922  159.4295 H   0  0  0  0  0  0  0  0  0  0  0  0  # atno 6908 bound_to 6896
  150.6853  134.3468  159.4935 H   0  0  0  0  0  0  0  0  0  0  0  0  # atno 6909 bound_to 6896
  146.2350  139.9333  142.8493 H   0  0  0  0  0  0  0  0  0  0  0  0  # atno 7974 bound_to 7965
  156.2908  140.2651  156.2391 H   0  0  0  0  0  0  0  0  0  0  0  0  # atno 8008 bound_to 7997
  154.9995  140.0388  157.2372 H   0  0  0  0  0  0  0  0  0  0  0  0  # atno 8009 bound_to 7997
  154.7614  140.2761  155.6216 H   0  0  0  0  0  0  0  0  0  0  0  0  # atno 8010 bound_to 7997
  140.1797  144.4194  150.6621 H   0  0  0  0  0  0  0  0  0  0  0  0  # atno 10167 bound_to 10162
  156.5044  130.4595  149.6683 H   0  0  0  0  0  0  0  0  0  0  0  0  # atno 10718 bound_to 10713
  154.8233  135.3334  154.6972 H   0  0  0  0  0  0  0  0  0  0  0  0  # atno 10763 bound_to 10752
  153.7602  135.6933  153.4931 H   0  0  0  0  0  0  0  0  0  0  0  0  # atno 10764 bound_to 10752
  153.2115  135.4480  155.0335 H   0  0  0  0  0  0  0  0  0  0  0  0  # atno 10765 bound_to 10752
  141.1494  133.7896  157.0176 H   0  0  0  0  0  0  0  0  0  0  0  0  # atno 11005 bound_to 11000
  145.2023  140.9860  143.4148 LP  0  0  0  0  0  0  0  0  0  0  0  0  # atno 17320 bound_to 7965
  144.9762  139.3829  143.6284 LP  0  0  0  0  0  0  0  0  0  0  0  0  # atno 17321 bound_to 7965
  140.6527  143.2229  151.6039 LP  0  0  0  0  0  0  0  0  0  0  0  0  # atno 17342 bound_to 10162
  139.5301  144.2941  152.1128 LP  0  0  0  0  0  0  0  0  0  0  0  0  # atno 17343 bound_to 10162
  156.3301  130.7327  151.2255 LP  0  0  0  0  0  0  0  0  0  0  0  0  # atno 17370 bound_to 10713
  157.7459  131.0432  150.4732 LP  0  0  0  0  0  0  0  0  0  0  0  0  # atno 17371 bound_to 10713
  140.0837  134.9633  157.1665 LP  0  0  0  0  0  0  0  0  0  0  0  0  # atno 17394 bound_to 11000
  140.3541  134.2566  155.7195 LP  0  0  0  0  0  0  0  0  0  0  0  0  # atno 17395 bound_to 11000

$$$$
