AV-unprocessed.smi:1827|AV-procd|sdf|7420|dock3
  -GOLD-   22720 9103D 1   1.00000     0.00000
 Structure written by MMmdl.
 44 45  0  0  0  0  0  0  0  0  2 V2000
  150.4285  132.6153  156.2803 C   0  0  0  0  0  0  0  0  0  0  0  0
  150.7894  134.0748  156.2604 C   0  0  0  0  0  0  0  0  0  0  0  0
  151.7155  134.5124  157.1036 N   0  0  0  0  0  0  0  0  0  0  0  0
  151.8615  135.8213  156.8055 N   0  0  0  0  0  0  0  0  0  0  0  0
  151.0456  136.2450  155.7810 C   0  0  0  0  0  0  0  0  0  0  0  0
  151.0532  137.6500  155.2779 C   0  0  0  0  0  0  0  0  0  0  0  0
  150.3222  135.1421  155.4305 C   0  0  0  0  0  0  0  0  0  0  0  0
  149.3676  135.1149  154.3829 N   0  0  0  0  0  0  0  0  0  0  0  0
  148.3582  134.2445  154.2316 C   0  0  0  0  0  0  0  0  0  0  0  0
  148.0917  133.3292  155.0097 O   0  0  0  0  0  0  0  0  0  0  0  0
  147.6492  134.5059  153.1241 N   0  0  0  0  0  0  0  0  0  0  0  0
  146.4826  133.7506  152.6771 C   0  0  2  0  0  0  0  0  0  0  0  0
  146.8967  132.6021  151.7384 C   0  0  0  0  0  0  0  0  0  0  0  0
  145.6663  131.8666  151.1830 C   0  0  0  0  0  0  0  0  0  0  0  0
  144.7499  132.8041  150.4852 N   0  3  1  0  0  0  0  0  0  0  0  0
  143.6226  132.1022  149.8184 C   0  0  0  0  0  0  0  0  0  0  0  0
  143.2659  132.7018  148.4543 C   0  0  0  0  0  0  0  0  0  0  0  0
  142.0291  132.4802  148.0039 N   0  0  0  0  0  0  0  0  0  0  0  0
  144.0942  133.3411  147.8082 O   0  0  0  0  0  0  0  0  0  0  0  0
  144.3042  133.9018  151.3851 C   0  0  0  0  0  0  0  0  0  0  0  0
  145.5046  134.6834  151.9446 C   0  0  0  0  0  0  0  0  0  0  0  0
  152.5207  136.4049  157.3005 H   0  0  0  0  0  0  0  0  0  0  0  0
  150.1812  132.2549  155.2819 H   0  0  0  0  0  0  0  0  0  0  0  0
  149.5704  132.4338  156.9270 H   0  0  0  0  0  0  0  0  0  0  0  0
  151.2534  132.0047  156.6493 H   0  0  0  0  0  0  0  0  0  0  0  0
  150.5229  137.7311  154.3289 H   0  0  0  0  0  0  0  0  0  0  0  0
  152.0733  138.0015  155.1224 H   0  0  0  0  0  0  0  0  0  0  0  0
  150.5694  138.3172  155.9913 H   0  0  0  0  0  0  0  0  0  0  0  0
  149.3984  135.8915  153.7390 H   0  0  0  0  0  0  0  0  0  0  0  0
  147.9372  135.2846  152.5497 H   0  0  0  0  0  0  0  0  0  0  0  0
  145.9735  133.3348  153.5491 H   0  0  0  0  0  0  0  0  0  0  0  0
  147.4887  132.9946  150.9101 H   0  0  0  0  0  0  0  0  0  0  0  0
  147.5368  131.8936  152.2658 H   0  0  0  0  0  0  0  0  0  0  0  0
  145.9974  131.0912  150.4913 H   0  0  0  0  0  0  0  0  0  0  0  0
  145.1306  131.3646  151.9906 H   0  0  0  0  0  0  0  0  0  0  0  0
  143.8946  131.0614  149.6382 H   0  0  0  0  0  0  0  0  0  0  0  0
  142.7498  132.0889  150.4733 H   0  0  0  0  0  0  0  0  0  0  0  0
  141.7369  132.8558  147.1131 H   0  0  0  0  0  0  0  0  0  0  0  0
  141.3833  131.9386  148.5610 H   0  0  0  0  0  0  0  0  0  0  0  0
  143.6524  134.5896  150.8458 H   0  0  0  0  0  0  0  0  0  0  0  0
  143.7136  133.4863  152.2030 H   0  0  0  0  0  0  0  0  0  0  0  0
  145.1524  135.4628  152.6215 H   0  0  0  0  0  0  0  0  0  0  0  0
  146.0169  135.1924  151.1265 H   0  0  0  0  0  0  0  0  0  0  0  0
  145.2894  133.2304  149.7448 H   0  0  0  0  0  0  0  0  0  0  0  0
  1  2  1  0  0  0  0
  1 23  1  0  0  0  0
  1 24  1  0  0  0  0
  1 25  1  0  0  0  0
  2  7  1  0  0  0  0
  2  3  2  0  0  0  0
  3  4  1  0  0  0  0
  4 22  1  0  0  0  0
  4  5  1  0  0  0  0
  5  6  1  0  0  0  0
  5  7  2  0  0  0  0
  6 26  1  0  0  0  0
  6 27  1  0  0  0  0
  6 28  1  0  0  0  0
  7  8  1  0  0  0  0
  8  9  1  0  0  0  0
  8 29  1  0  0  0  0
  9 10  2  0  0  0  0
  9 11  1  0  0  0  0
 11 12  1  0  0  0  0
 11 30  1  0  0  0  0
 12 21  1  0  0  0  0
 12 13  1  0  0  0  0
 12 31  1  0  0  0  0
 13 14  1  0  0  0  0
 13 32  1  0  0  0  0
 13 33  1  0  0  0  0
 14 15  1  0  0  0  0
 14 34  1  0  0  0  0
 14 35  1  0  0  0  0
 15 16  1  0  0  0  0
 15 20  1  0  0  0  0
 15 44  1  0  0  0  0
 16 17  1  0  0  0  0
 16 36  1  0  0  0  0
 16 37  1  0  0  0  0
 17 18  1  0  0  0  0
 17 19  2  0  0  0  0
 18 38  1  0  0  0  0
 18 39  1  0  0  0  0
 20 21  1  0  0  0  0
 20 40  1  0  0  0  0
 20 41  1  0  0  0  0
 21 42  1  0  0  0  0
 21 43  1  0  0  0  0
M  CHG  1  15   1
M  END
> <s_m_source_file>
AV-unprocessed.smi

> <i_m_source_file_index>
1827

> <i_lp_mmshare_version>
43012

> <i_f3d_flags>
0

> <s_epik_input>
W0NIM11jMW5bbkhdYyhbQ0gzXSljMVtOSF1DKD1PKVtOSF1bQ0hdMltDSDJdW0NIMl1OKFtDSDJdW0NIMl0yKVtDSDJdQyg9TylbTkgyXQ==

> <s_epik_cmdline>
J2VwaWtfcHl0aG9uJywgJy1waCcsICc3LjAnLCAnLXRuJywgJzgnLCAnLW1hJywgJzIwMCcsICctbWV0YWxfYmluZGluZycsICctaW1hZScsICc8aW5maWxlLm1hZT4nLCAnLW9tYWUnLCAnPG91dGZpbGUubWFlPic=

> <r_lp_tautomer_probability>
0.5

> <r_epik_Ionization_Penalty>
0.839233

> <r_epik_Ionization_Penalty_Charging>
0.838844

> <r_epik_Ionization_Penalty_Neutral>
0.000388936

> <r_epik_State_Penalty>
0.8734

> <r_epik_Charging_Adjusted_Penalty>
1.71224

> <i_epik_Tot_Q>
1

> <i_epik_Tot_abs_Q>
1

> <r_epik_Metal_State_Penalty>
0.890753

> <b_epik_Metal_Only>
0

> <s_lp_Force_Field>
OPLS_2005

> <r_lp_Energy>
15.4281

> <b_lp_Chiralities_Consistent>
1

> <s_lp_Variant>
AV-unprocessed.smi:1827-2

> <Gold.Version>
5.8.1

> <Gold.Id.Protein>
6NUR|6NUR_protein|mol2

> <Gold.PLP.Fitness>
41.7418

> <Gold.PLP.PLP>
-30.9501

> <Gold.PLP.part.hbond>
-6.8284

> <Gold.PLP.part.metal>
0.0000

> <Gold.PLP.part.buried>
-2.2410

> <Gold.PLP.part.nonpolar>
-25.7859

> <Gold.PLP.part.repulsive>
4.7883

> <Gold.PLP.ligand.clash>
0.0000

> <Gold.PLP.ligand.torsion>
1.3047

> <Gold.PLP.Chemscore.Hbond>
4.3545

> <Gold.PLP.Chemscore.CHOScore>
0.0000

> <Gold.PLP.Chemscore.Metal>
0.0000

> <Gold.Chemscore.Hbonds>
donor molecule, donor type, donor heavy atom, donor atom, acceptor molecule, acceptor atom, score
      L1  H     8    29       P1  7948  0.75
      L1  H    11    30       P1  7948  0.98
      L1  H    18    38       P1 10195  1.00
      L1  H    18    39       P1 10952  1.00
      P1  H  7918  7932       L1    19  0.62

> <Gold.PLP.Chemscore.Internal.Correction>
0.3375

> <Gold.Rescore>
     Score         DG    S(hbond)    S(metal)    S(lipo)     H(rot)  DE(clash)    DE(int)     intcor
     17.77     -21.25       4.06        0.00      62.30       1.98       1.95       1.52       ----

> <Gold.Chemscore.Fitness>
17.7725

> <Gold.Chemscore.DG>
-21.2458

> <Gold.Chemscore.ZeroCoef>
-5.4800

> <Gold.Chemscore.Hbond>
4.0593

> <Gold.Chemscore.Metal>
0.0000

> <Gold.Chemscore.Lipo>
62.2963

> <Gold.Chemscore.Internal_Hbond>
0.0000

> <Gold.Chemscore.DEClash>
1.9512

> <Gold.Chemscore.DEInternal>
1.5221

> <Gold.Chemscore.Rot>
1.9848

> <Gold.Chemscore.Internal.Correction>
   9.000000E+99

> <Gold.Chemscore.Hbonds>
donor molecule, donor type, donor heavy atom, donor atom, acceptor molecule, acceptor atom, score
      L1  H     8    29       P1  7948  0.44
      L1  H    11    30       P1  7948  0.90
      L1  H    18    38       P1 10195  0.84
      L1  H    18    39       P1 10952  0.97
      P1  H  7918  7932       L1    19  0.57

> <Gold.Chemscore.Hbond.Weighted>
-13.5581

> <Gold.Chemscore.Metal.Weighted>
-0.0000

> <Gold.Chemscore.Lipo.Weighted>
-7.2887

> <Gold.Chemscore.Internal_Hbond.Weighted>
0.0000

> <Gold.Chemscore.DEClash.Weighted>
1.9512

> <Gold.Chemscore.DEInternal.Weighted>
1.5221

> <Gold.Chemscore.Rot.Weighted>
5.0810

> <Gold.Chemscore.Internal.Correction.Weighted>
   9.000000E+99

> <Gold.Protein.RotatedTorsions>
[ 6907 6896 6895 6894 ] final  163.26 input  -60.11 | X-H torsion
[ 7974 7965 7964 7962 ] final  -33.21 input  175.53 | X-H torsion
[ 8008 7997 7996 7995 ] final   16.69 input   59.86 | X-H torsion
[ 10167 10162 10161 10158 ] final  126.05 input  -65.29 | X-H torsion
[ 10718 10713 10712 10709 ] final  -37.14 input   66.30 | X-H torsion
[ 10763 10752 10751 10750 ] final   99.00 input  -60.55 | X-H torsion
[ 11005 11000 10999 10996 ] final  -36.40 input  -57.11 | X-H torsion

> <Gold.Protein.ActiveResidues>
 VAL166  LYS551  ARG553  GLY616  TRP617  ASP618  TYR619  PRO620  LYS621  CYS622 
 ASP623  PHE694  ASN695  SER759  ASP760  ASP761  ALA762  ILE779  LEU786  VAL792 
 PHE793  MET794  SER795  GLU796  ALA797  LYS798  CYS799  TRP800  GLU811  SER814 

> <Gold.Protein.RotatedAtoms>
  151.9279  133.3603  159.3920 H   0  0  0  0  0  0  0  0  0  0  0  0  # atno 6907 bound_to 6896
  150.7023  134.4568  159.5371 H   0  0  0  0  0  0  0  0  0  0  0  0  # atno 6908 bound_to 6896
  152.2203  134.8419  160.0537 H   0  0  0  0  0  0  0  0  0  0  0  0  # atno 6909 bound_to 6896
  146.0929  140.5888  142.8856 H   0  0  0  0  0  0  0  0  0  0  0  0  # atno 7974 bound_to 7965
  154.8806  140.2972  155.5427 H   0  0  0  0  0  0  0  0  0  0  0  0  # atno 8008 bound_to 7997
  156.3022  140.2443  156.3742 H   0  0  0  0  0  0  0  0  0  0  0  0  # atno 8009 bound_to 7997
  154.8721  140.0401  157.1720 H   0  0  0  0  0  0  0  0  0  0  0  0  # atno 8010 bound_to 7997
  139.5652  144.6907  151.3930 H   0  0  0  0  0  0  0  0  0  0  0  0  # atno 10167 bound_to 10162
  156.3187  130.4262  149.7981 H   0  0  0  0  0  0  0  0  0  0  0  0  # atno 10718 bound_to 10713
  153.2960  135.4129  155.1209 H   0  0  0  0  0  0  0  0  0  0  0  0  # atno 10763 bound_to 10752
  154.8535  135.3530  154.5917 H   0  0  0  0  0  0  0  0  0  0  0  0  # atno 10764 bound_to 10752
  153.6341  135.7059  153.5323 H   0  0  0  0  0  0  0  0  0  0  0  0  # atno 10765 bound_to 10752
  140.9871  133.7024  156.1785 H   0  0  0  0  0  0  0  0  0  0  0  0  # atno 11005 bound_to 11000
  144.7373  140.4845  143.6894 LP  0  0  0  0  0  0  0  0  0  0  0  0  # atno 17320 bound_to 7965
  145.6004  139.1503  143.3132 LP  0  0  0  0  0  0  0  0  0  0  0  0  # atno 17321 bound_to 7965
  140.6935  143.7805  150.7291 LP  0  0  0  0  0  0  0  0  0  0  0  0  # atno 17342 bound_to 10162
  140.1294  143.4539  152.2264 LP  0  0  0  0  0  0  0  0  0  0  0  0  # atno 17343 bound_to 10162
  156.5297  130.8252  151.3233 LP  0  0  0  0  0  0  0  0  0  0  0  0  # atno 17370 bound_to 10713
  157.7407  130.9855  150.2395 LP  0  0  0  0  0  0  0  0  0  0  0  0  # atno 17371 bound_to 10713
  140.7097  134.4475  157.5582 LP  0  0  0  0  0  0  0  0  0  0  0  0  # atno 17394 bound_to 11000
  139.8975  134.8634  156.2039 LP  0  0  0  0  0  0  0  0  0  0  0  0  # atno 17395 bound_to 11000

$$$$
