AV-unprocessed.smi:1664|AV-procd|sdf|6668|dock8
  -GOLD-   22720 7383D 1   1.00000     0.00000
 Structure written by MMmdl.
 35 36  0  0  0  0  0  0  0  0  3 V2000
  144.7692  135.3214  154.0182 C   0  0  0  0  0  0  0  0  0  0  0  0
  146.2984  135.2069  153.8597 C   0  0  2  0  0  0  0  0  0  0  0  0
  146.8912  134.8053  155.1526 C   0  0  0  0  0  0  0  0  0  0  0  0
  147.3552  134.4901  156.1652 N   0  0  0  0  0  0  0  0  0  0  0  0
  146.8377  136.4961  153.4242 N   0  0  0  0  0  0  0  0  0  0  0  0
  146.6903  137.6954  154.0173 C   0  0  0  0  0  0  0  0  0  0  0  0
  146.0412  137.8572  155.0492 O   0  0  0  0  0  0  0  0  0  0  0  0
  147.3702  138.9139  153.3689 C   0  0  0  0  0  0  0  0  0  0  0  0
  148.4580  139.5157  154.1621 N   0  0  0  0  0  0  0  0  0  0  0  0
  149.6382  138.7590  154.3026 C   0  0  0  0  0  0  0  0  0  0  0  0
  150.6994  139.2097  155.0000 C   0  0  0  0  0  0  0  0  0  0  0  0
  151.9077  138.4245  155.1233 N   0  3  0  0  0  0  0  0  0  0  0  0
  151.9133  137.2803  154.6808 O   0  0  0  0  0  0  0  0  0  0  0  0
  152.8890  138.9230  155.6665 O   0  5  0  0  0  0  0  0  0  0  0  0
  150.5931  140.5170  155.6187 C   0  0  0  0  0  0  0  0  0  0  0  0
  149.4694  141.2485  155.4825 C   0  0  0  0  0  0  0  0  0  0  0  0
  148.3200  140.7603  154.7138 C   0  0  0  0  0  0  0  0  0  0  0  0
  147.2989  141.4318  154.5681 O   0  0  0  0  0  0  0  0  0  0  0  0
  146.5973  134.1416  152.8070 C   0  0  0  0  0  0  0  0  0  0  0  0
  146.5324  132.6601  153.1050 C   0  0  0  0  0  0  0  0  0  0  0  0
  147.8647  133.3166  152.8154 C   0  0  0  0  0  0  0  0  0  0  0  0
  144.3307  134.3590  154.2834 H   0  0  0  0  0  0  0  0  0  0  0  0
  144.2967  135.6542  153.0930 H   0  0  0  0  0  0  0  0  0  0  0  0
  144.4920  136.0252  154.8031 H   0  0  0  0  0  0  0  0  0  0  0  0
  147.3935  136.4719  152.5819 H   0  0  0  0  0  0  0  0  0  0  0  0
  147.7348  138.6208  152.3828 H   0  0  0  0  0  0  0  0  0  0  0  0
  146.5999  139.6603  153.1688 H   0  0  0  0  0  0  0  0  0  0  0  0
  149.6189  137.8029  153.7990 H   0  0  0  0  0  0  0  0  0  0  0  0
  151.4131  140.9189  156.1956 H   0  0  0  0  0  0  0  0  0  0  0  0
  149.4121  142.2199  155.9515 H   0  0  0  0  0  0  0  0  0  0  0  0
  146.2417  134.4230  151.8169 H   0  0  0  0  0  0  0  0  0  0  0  0
  146.3386  132.3464  154.1285 H   0  0  0  0  0  0  0  0  0  0  0  0
  146.1146  132.0131  152.3363 H   0  0  0  0  0  0  0  0  0  0  0  0
  148.3294  133.1053  151.8546 H   0  0  0  0  0  0  0  0  0  0  0  0
  148.5569  133.4396  153.6457 H   0  0  0  0  0  0  0  0  0  0  0  0
  1  2  1  0  0  0  0
  1 22  1  0  0  0  0
  1 23  1  0  0  0  0
  1 24  1  0  0  0  0
  2  3  1  0  0  0  0
  2  5  1  0  0  0  0
  2 19  1  0  0  0  0
  3  4  3  0  0  0  0
  5  6  1  0  0  0  0
  5 25  1  0  0  0  0
  6  7  2  0  0  0  0
  6  8  1  0  0  0  0
  8  9  1  0  0  0  0
  8 26  1  0  0  0  0
  8 27  1  0  0  0  0
  9 17  1  0  0  0  0
  9 10  1  0  0  0  0
 10 11  2  0  0  0  0
 10 28  1  0  0  0  0
 11 12  1  0  0  0  0
 11 15  1  0  0  0  0
 12 13  2  0  0  0  0
 12 14  1  0  0  0  0
 15 16  2  0  0  0  0
 15 29  1  0  0  0  0
 16 17  1  0  0  0  0
 16 30  1  0  0  0  0
 17 18  2  0  0  0  0
 19 21  1  0  0  0  0
 19 20  1  0  0  0  0
 19 31  1  0  0  0  0
 20 21  1  0  0  0  0
 20 32  1  0  0  0  0
 20 33  1  0  0  0  0
 21 34  1  0  0  0  0
 21 35  1  0  0  0  0
M  CHG  1  12   1
M  CHG  1  14  -1
M  END
> <s_m_source_file>
AV-unprocessed.smi

> <i_m_source_file_index>
1664

> <i_lp_mmshare_version>
43012

> <i_f3d_flags>
0

> <s_epik_input>
W0NIMl0xW0NIMl1bQ0hdMVtDQF0oW0NIM10pKEMjTilbTkhdQyg9TylbQ0gyXW4yW2NIXWMoW04rXSg9TylbTy1dKVtjSF1bY0hdYzI9Tw==

> <s_epik_cmdline>
J2VwaWtfcHl0aG9uJywgJy1waCcsICc3LjAnLCAnLXRuJywgJzgnLCAnLW1hJywgJzIwMCcsICctbWV0YWxfYmluZGluZycsICctaW1hZScsICc8aW5maWxlLm1hZT4nLCAnLW9tYWUnLCAnPG91dGZpbGUubWFlPic=

> <r_lp_tautomer_probability>
1

> <r_epik_Ionization_Penalty>
4.65324e-07

> <r_epik_Ionization_Penalty_Charging>
6.17383e-11

> <r_epik_Ionization_Penalty_Neutral>
4.65262e-07

> <r_epik_State_Penalty>
-0

> <r_epik_Charging_Adjusted_Penalty>
6.17383e-11

> <i_epik_Tot_Q>
0

> <i_epik_Tot_abs_Q>
2

> <r_epik_Metal_State_Penalty>
-0

> <b_epik_Metal_Only>
0

> <s_lp_Force_Field>
OPLS_2005

> <r_lp_Energy>
24.1204

> <b_lp_Chiralities_Consistent>
1

> <s_lp_Variant>
AV-unprocessed.smi:1664-2

> <Gold.Version>
5.8.1

> <Gold.Id.Protein>
6NUR|6NUR_protein|mol2

> <Gold.PLP.Fitness>
41.3591

> <Gold.PLP.PLP>
-30.2272

> <Gold.PLP.part.hbond>
-3.0000

> <Gold.PLP.part.metal>
0.0000

> <Gold.PLP.part.buried>
-1.2776

> <Gold.PLP.part.nonpolar>
-25.8553

> <Gold.PLP.part.repulsive>
0.3227

> <Gold.PLP.ligand.clash>
0.0000

> <Gold.PLP.ligand.torsion>
0.9296

> <Gold.PLP.Chemscore.Hbond>
2.8240

> <Gold.PLP.Chemscore.CHOScore>
1.0000

> <Gold.PLP.Chemscore.Metal>
0.0000

> <Gold.Chemscore.Hbonds>
donor molecule, donor type, donor heavy atom, donor atom, acceptor molecule, acceptor atom, score
      L1  H     5    25       P1  7948  0.98
      P1  H  7997  8010       L1    14  1.00
      P1  H 10752 10763       L1    13  0.90
      L1  C    10    28       P1  7948  0.95

> <Gold.PLP.Chemscore.Internal.Correction>
1.5191

> <Gold.Rescore>
     Score         DG    S(hbond)    S(metal)    S(lipo)     H(rot)  DE(clash)    DE(int)     intcor
     14.21     -15.72       2.73        0.00      51.94       1.94       0.09       1.43       ----

> <Gold.Chemscore.Fitness>
14.2095

> <Gold.Chemscore.DG>
-15.7241

> <Gold.Chemscore.ZeroCoef>
-5.4800

> <Gold.Chemscore.Hbond>
2.7335

> <Gold.Chemscore.Metal>
0.0000

> <Gold.Chemscore.Lipo>
51.9396

> <Gold.Chemscore.Internal_Hbond>
0.0000

> <Gold.Chemscore.DEClash>
0.0880

> <Gold.Chemscore.DEInternal>
1.4266

> <Gold.Chemscore.Rot>
1.9386

> <Gold.Chemscore.Internal.Correction>
   9.000000E+99

> <Gold.Chemscore.Hbonds>
donor molecule, donor type, donor heavy atom, donor atom, acceptor molecule, acceptor atom, score
      L1  H     5    25       P1  7948  0.93
      P1  H  7997  8010       L1    14  0.96
      P1  H 10752 10763       L1    13  0.87

> <Gold.Chemscore.Hbond.Weighted>
-9.1299

> <Gold.Chemscore.Metal.Weighted>
-0.0000

> <Gold.Chemscore.Lipo.Weighted>
-6.0769

> <Gold.Chemscore.Internal_Hbond.Weighted>
0.0000

> <Gold.Chemscore.DEClash.Weighted>
0.0880

> <Gold.Chemscore.DEInternal.Weighted>
1.4266

> <Gold.Chemscore.Rot.Weighted>
4.9627

> <Gold.Chemscore.Internal.Correction.Weighted>
   9.000000E+99

> <Gold.Protein.RotatedTorsions>
[ 6907 6896 6895 6894 ] final   30.12 input  -60.11 | X-H torsion
[ 7974 7965 7964 7962 ] final -155.38 input  175.53 | X-H torsion
[ 8008 7997 7996 7995 ] final   98.80 input   59.86 | X-H torsion
[ 10167 10162 10161 10158 ] final   11.44 input  -65.29 | X-H torsion
[ 10718 10713 10712 10709 ] final   24.06 input   66.30 | X-H torsion
[ 10763 10752 10751 10750 ] final   37.40 input  -60.55 | X-H torsion
[ 11005 11000 10999 10996 ] final  164.55 input  -57.11 | X-H torsion

> <Gold.Protein.ActiveResidues>
 VAL166  LYS551  ARG553  GLY616  TRP617  ASP618  TYR619  PRO620  LYS621  CYS622 
 ASP623  PHE694  ASN695  SER759  ASP760  ASP761  ALA762  ILE779  LEU786  VAL792 
 PHE793  MET794  SER795  GLU796  ALA797  LYS798  CYS799  TRP800  GLU811  SER814 

> <Gold.Protein.RotatedAtoms>
  152.0414  134.9709  160.0573 H   0  0  0  0  0  0  0  0  0  0  0  0  # atno 6907 bound_to 6896
  152.1146  133.4315  159.4655 H   0  0  0  0  0  0  0  0  0  0  0  0  # atno 6908 bound_to 6896
  150.6845  134.2526  159.4560 H   0  0  0  0  0  0  0  0  0  0  0  0  # atno 6909 bound_to 6896
  144.7643  140.4257  143.5953 H   0  0  0  0  0  0  0  0  0  0  0  0  # atno 7974 bound_to 7965
  156.1041  140.3238  155.7982 H   0  0  0  0  0  0  0  0  0  0  0  0  # atno 8008 bound_to 7997
  155.4786  140.0552  157.2987 H   0  0  0  0  0  0  0  0  0  0  0  0  # atno 8009 bound_to 7997
  154.4716  140.2014  155.9995 H   0  0  0  0  0  0  0  0  0  0  0  0  # atno 8010 bound_to 7997
  140.6132  143.8364  150.7088 H   0  0  0  0  0  0  0  0  0  0  0  0  # atno 10167 bound_to 10162
  157.1746  130.6775  149.6090 H   0  0  0  0  0  0  0  0  0  0  0  0  # atno 10718 bound_to 10713
  153.0039  135.6279  154.2139 H   0  0  0  0  0  0  0  0  0  0  0  0  # atno 10763 bound_to 10752
  154.1882  135.2810  155.3032 H   0  0  0  0  0  0  0  0  0  0  0  0  # atno 10764 bound_to 10752
  154.5780  135.5656  153.7218 H   0  0  0  0  0  0  0  0  0  0  0  0  # atno 10765 bound_to 10752
  140.2471  134.8006  157.3466 H   0  0  0  0  0  0  0  0  0  0  0  0  # atno 11005 bound_to 11000
  145.6520  139.1566  143.2856 LP  0  0  0  0  0  0  0  0  0  0  0  0  # atno 17320 bound_to 7965
  146.1736  140.6608  142.9222 LP  0  0  0  0  0  0  0  0  0  0  0  0  # atno 17321 bound_to 7965
  140.1937  143.4015  152.1844 LP  0  0  0  0  0  0  0  0  0  0  0  0  # atno 17342 bound_to 10162
  139.5377  144.7226  151.4837 LP  0  0  0  0  0  0  0  0  0  0  0  0  # atno 17343 bound_to 10162
  155.9733  130.4667  150.6299 LP  0  0  0  0  0  0  0  0  0  0  0  0  # atno 17370 bound_to 10713
  157.4010  131.0810  151.1308 LP  0  0  0  0  0  0  0  0  0  0  0  0  # atno 17371 bound_to 10713
  140.1595  134.4747  155.7904 LP  0  0  0  0  0  0  0  0  0  0  0  0  # atno 17394 bound_to 11000
  141.2205  133.6895  156.7519 LP  0  0  0  0  0  0  0  0  0  0  0  0  # atno 17395 bound_to 11000

$$$$
