AV-unprocessed.smi:1229|AV-procd|sdf|5151|dock1
  -GOLD-   22720 4223D 1   1.00000     0.00000
 Structure written by MMmdl.
 46 47  0  0  0  0  0  0  0  0  2 V2000
  150.8206  144.3487  158.3617 C   0  0  0  0  0  0  0  0  0  0  0  0
  151.5998  143.5128  159.3643 C   0  0  0  0  0  0  0  0  0  0  0  0
  152.1704  144.1415  160.4916 C   0  0  0  0  0  0  0  0  0  0  0  0
  152.8929  143.3681  161.4163 C   0  0  0  0  0  0  0  0  0  0  0  0
  153.0138  141.9893  161.1737 C   0  0  0  0  0  0  0  0  0  0  0  0
  152.4712  141.3800  160.0997 N   0  0  0  0  0  0  0  0  0  0  0  0
  151.7721  142.1125  159.1962 C   0  0  0  0  0  0  0  0  0  0  0  0
  151.1729  141.5363  158.0403 N   0  0  0  0  0  0  0  0  0  0  0  0
  151.5545  140.4414  157.3593 C   0  0  0  0  0  0  0  0  0  0  0  0
  152.5278  139.7357  157.6267 O   0  0  0  0  0  0  0  0  0  0  0  0
  150.7305  140.1950  156.3301 N   0  0  0  0  0  0  0  0  0  0  0  0
  150.8804  139.0895  155.3885 C   0  0  0  0  0  0  0  0  0  0  0  0
  149.7961  139.1098  154.2904 C   0  0  1  0  0  0  0  0  0  0  0  0
  150.3487  138.5468  153.1168 O   0  0  0  0  0  0  0  0  0  0  0  0
  148.5738  138.2573  154.6860 C   0  0  0  0  0  0  0  0  0  0  0  0
  147.6594  138.0091  153.5415 N   0  3  0  0  0  0  0  0  0  0  0  0
  146.4866  137.1807  153.9248 C   0  0  0  0  0  0  0  0  0  0  0  0
  145.6378  136.8147  152.6953 C   0  0  0  0  0  0  0  0  0  0  0  0
  145.1930  138.0728  151.9387 C   0  0  0  0  0  0  0  0  0  0  0  0
  146.4151  138.9296  151.5838 C   0  0  0  0  0  0  0  0  0  0  0  0
  147.2441  139.2529  152.8383 C   0  0  0  0  0  0  0  0  0  0  0  0
  150.7746  145.3942  158.6679 H   0  0  0  0  0  0  0  0  0  0  0  0
  149.7979  143.9820  158.2691 H   0  0  0  0  0  0  0  0  0  0  0  0
  151.2947  144.3069  157.3807 H   0  0  0  0  0  0  0  0  0  0  0  0
  152.0582  145.2043  160.6484 H   0  0  0  0  0  0  0  0  0  0  0  0
  153.3422  143.8196  162.2884 H   0  0  0  0  0  0  0  0  0  0  0  0
  153.5594  141.3580  161.8592 H   0  0  0  0  0  0  0  0  0  0  0  0
  150.3546  142.0158  157.6955 H   0  0  0  0  0  0  0  0  0  0  0  0
  149.9545  140.8228  156.1774 H   0  0  0  0  0  0  0  0  0  0  0  0
  151.8803  139.1155  154.9532 H   0  0  0  0  0  0  0  0  0  0  0  0
  150.8243  138.1566  155.9526 H   0  0  0  0  0  0  0  0  0  0  0  0
  149.4894  140.1345  154.0840 H   0  0  0  0  0  0  0  0  0  0  0  0
  149.8031  137.8239  152.8455 H   0  0  0  0  0  0  0  0  0  0  0  0
  148.9308  137.3093  155.0925 H   0  0  0  0  0  0  0  0  0  0  0  0
  148.0132  138.7377  155.4897 H   0  0  0  0  0  0  0  0  0  0  0  0
  146.8252  136.2631  154.4078 H   0  0  0  0  0  0  0  0  0  0  0  0
  145.8816  137.7204  154.6551 H   0  0  0  0  0  0  0  0  0  0  0  0
  146.2155  136.1715  152.0298 H   0  0  0  0  0  0  0  0  0  0  0  0
  144.7654  136.2371  153.0026 H   0  0  0  0  0  0  0  0  0  0  0  0
  144.6485  137.7979  151.0348 H   0  0  0  0  0  0  0  0  0  0  0  0
  144.5037  138.6506  152.5559 H   0  0  0  0  0  0  0  0  0  0  0  0
  147.0367  138.4006  150.8599 H   0  0  0  0  0  0  0  0  0  0  0  0
  146.0945  139.8528  151.1002 H   0  0  0  0  0  0  0  0  0  0  0  0
  146.6640  139.8801  153.5174 H   0  0  0  0  0  0  0  0  0  0  0  0
  148.1161  139.8352  152.5432 H   0  0  0  0  0  0  0  0  0  0  0  0
  148.1873  137.4573  152.8800 H   0  0  0  0  0  0  0  0  0  0  0  0
  1  2  1  0  0  0  0
  1 22  1  0  0  0  0
  1 23  1  0  0  0  0
  1 24  1  0  0  0  0
  2  7  1  0  0  0  0
  2  3  2  0  0  0  0
  3  4  1  0  0  0  0
  3 25  1  0  0  0  0
  4  5  2  0  0  0  0
  4 26  1  0  0  0  0
  5  6  1  0  0  0  0
  5 27  1  0  0  0  0
  6  7  2  0  0  0  0
  7  8  1  0  0  0  0
  8  9  1  0  0  0  0
  8 28  1  0  0  0  0
  9 10  2  0  0  0  0
  9 11  1  0  0  0  0
 11 12  1  0  0  0  0
 11 29  1  0  0  0  0
 12 13  1  0  0  0  0
 12 30  1  0  0  0  0
 12 31  1  0  0  0  0
 13 14  1  0  0  0  0
 13 15  1  0  0  0  0
 13 32  1  0  0  0  0
 14 33  1  0  0  0  0
 15 16  1  0  0  0  0
 15 34  1  0  0  0  0
 15 35  1  0  0  0  0
 16 21  1  0  0  0  0
 16 17  1  0  0  0  0
 16 46  1  0  0  0  0
 17 18  1  0  0  0  0
 17 36  1  0  0  0  0
 17 37  1  0  0  0  0
 18 19  1  0  0  0  0
 18 38  1  0  0  0  0
 18 39  1  0  0  0  0
 19 20  1  0  0  0  0
 19 40  1  0  0  0  0
 19 41  1  0  0  0  0
 20 21  1  0  0  0  0
 20 42  1  0  0  0  0
 20 43  1  0  0  0  0
 21 44  1  0  0  0  0
 21 45  1  0  0  0  0
M  CHG  1  16   1
M  END
> <s_m_source_file>
AV-unprocessed.smi

> <i_m_source_file_index>
1229

> <i_lp_mmshare_version>
43012

> <i_f3d_flags>
0

> <s_epik_input>
W0NIM11jMVtjSF1bY0hdW2NIXW5jMVtOSF1DKD1PKVtOSF1bQ0gyXVtDQEhdKFtPSF0pW0NIMl1OMltDSDJdW0NIMl1bQ0gyXVtDSDJdW0NIMl0y

> <s_epik_cmdline>
J2VwaWtfcHl0aG9uJywgJy1waCcsICc3LjAnLCAnLXRuJywgJzgnLCAnLW1hJywgJzIwMCcsICctbWV0YWxfYmluZGluZycsICctaW1hZScsICc8aW5maWxlLm1hZT4nLCAnLW9tYWUnLCAnPG91dGZpbGUubWFlPic=

> <r_epik_Ionization_Penalty>
0.00511007

> <r_epik_Ionization_Penalty_Charging>
0.00506051

> <r_epik_Ionization_Penalty_Neutral>
4.95577e-05

> <r_epik_State_Penalty>
0.00368188

> <r_epik_Charging_Adjusted_Penalty>
0.0087424

> <i_epik_Tot_Q>
1

> <i_epik_Tot_abs_Q>
1

> <r_epik_Metal_State_Penalty>
-0

> <b_epik_Metal_Only>
0

> <s_lp_Force_Field>
OPLS_2005

> <r_lp_Energy>
20.718

> <b_lp_Chiralities_Consistent>
1

> <s_lp_Variant>
AV-unprocessed.smi:1229-2

> <Gold.Version>
5.8.1

> <Gold.Id.Protein>
6NUR|6NUR_protein|mol2

> <Gold.PLP.Fitness>
45.3290

> <Gold.PLP.PLP>
-34.5326

> <Gold.PLP.part.hbond>
-4.8356

> <Gold.PLP.part.metal>
0.0000

> <Gold.PLP.part.buried>
-1.2971

> <Gold.PLP.part.nonpolar>
-28.9764

> <Gold.PLP.part.repulsive>
0.1649

> <Gold.PLP.ligand.clash>
0.0000

> <Gold.PLP.ligand.torsion>
0.6495

> <Gold.PLP.Chemscore.Hbond>
4.0000

> <Gold.PLP.Chemscore.CHOScore>
0.0000

> <Gold.PLP.Chemscore.Metal>
0.0000

> <Gold.Chemscore.Hbonds>
donor molecule, donor type, donor heavy atom, donor atom, acceptor molecule, acceptor atom, score
      L1  H    14    33       P1  7948  1.00
      L1  H    16    46       P1  7948  2.00
      P1  H  7997  8010       L1    10  0.78

> <Gold.PLP.Chemscore.Internal.Correction>
0.0955

> <Gold.Rescore>
     Score         DG    S(hbond)    S(metal)    S(lipo)     H(rot)  DE(clash)    DE(int)     intcor
     17.28     -18.71       2.55        0.00      90.75       2.31       0.10       1.33       ----

> <Gold.Chemscore.Fitness>
17.2762

> <Gold.Chemscore.DG>
-18.7057

> <Gold.Chemscore.ZeroCoef>
-5.4800

> <Gold.Chemscore.Hbond>
2.5510

> <Gold.Chemscore.Metal>
0.0000

> <Gold.Chemscore.Lipo>
90.7512

> <Gold.Chemscore.Internal_Hbond>
0.0000

> <Gold.Chemscore.DEClash>
0.1005

> <Gold.Chemscore.DEInternal>
1.3291

> <Gold.Chemscore.Rot>
2.3095

> <Gold.Chemscore.Internal.Correction>
   9.000000E+99

> <Gold.Chemscore.Hbonds>
donor molecule, donor type, donor heavy atom, donor atom, acceptor molecule, acceptor atom, score
      L1  H    14    33       P1  7948  0.43
      L1  H    16    46       P1  7948  1.00
      P1  H  7997  8010       L1    10  0.75

> <Gold.Chemscore.Hbond.Weighted>
-8.5202

> <Gold.Chemscore.Metal.Weighted>
-0.0000

> <Gold.Chemscore.Lipo.Weighted>
-10.6179

> <Gold.Chemscore.Internal_Hbond.Weighted>
0.0000

> <Gold.Chemscore.DEClash.Weighted>
0.1005

> <Gold.Chemscore.DEInternal.Weighted>
1.3291

> <Gold.Chemscore.Rot.Weighted>
5.9124

> <Gold.Chemscore.Internal.Correction.Weighted>
   9.000000E+99

> <Gold.Protein.RotatedTorsions>
[ 6907 6896 6895 6894 ] final  -97.66 input  -60.11 | X-H torsion
[ 7974 7965 7964 7962 ] final   74.26 input  175.53 | X-H torsion
[ 8008 7997 7996 7995 ] final   59.86 input   59.86 | X-H torsion
[ 10167 10162 10161 10158 ] final  -82.29 input  -65.29 | X-H torsion
[ 10718 10713 10712 10709 ] final  114.34 input   66.30 | X-H torsion
[ 10763 10752 10751 10750 ] final -166.38 input  -60.55 | X-H torsion
[ 11005 11000 10999 10996 ] final -114.63 input  -57.11 | X-H torsion

> <Gold.Protein.ActiveResidues>
 VAL166  LYS551  ARG553  GLY616  TRP617  ASP618  TYR619  PRO620  LYS621  CYS622 
 ASP623  PHE694  ASN695  SER759  ASP760  ASP761  ALA762  ILE779  LEU786  VAL792 
 PHE793  MET794  SER795  GLU796  ALA797  LYS798  CYS799  TRP800  GLU811  SER814 

> <Gold.Protein.RotatedAtoms>
  150.7023  134.1315  159.4071 H   0  0  0  0  0  0  0  0  0  0  0  0  # atno 6907 bound_to 6896
  151.9300  135.0258  160.0538 H   0  0  0  0  0  0  0  0  0  0  0  0  # atno 6908 bound_to 6896
  152.2183  133.4929  159.5185 H   0  0  0  0  0  0  0  0  0  0  0  0  # atno 6909 bound_to 6896
  145.7306  139.2682  143.1543 H   0  0  0  0  0  0  0  0  0  0  0  0  # atno 7974 bound_to 7965
  155.5730  140.3490  155.4520 H   0  0  0  0  0  0  0  0  0  0  0  0  # atno 8008 bound_to 7997
  156.0430  140.1300  157.0160 H   0  0  0  0  0  0  0  0  0  0  0  0  # atno 8009 bound_to 7997
  154.4400  140.1020  156.6250 H   0  0  0  0  0  0  0  0  0  0  0  0  # atno 8010 bound_to 7997
  140.4334  143.2540  151.8728 H   0  0  0  0  0  0  0  0  0  0  0  0  # atno 10167 bound_to 10162
  157.6287  131.0997  150.7171 H   0  0  0  0  0  0  0  0  0  0  0  0  # atno 10718 bound_to 10713
  154.6838  135.2959  154.9575 H   0  0  0  0  0  0  0  0  0  0  0  0  # atno 10763 bound_to 10752
  154.0561  135.6638  153.4810 H   0  0  0  0  0  0  0  0  0  0  0  0  # atno 10764 bound_to 10752
  153.0565  135.5141  154.7895 H   0  0  0  0  0  0  0  0  0  0  0  0  # atno 10765 bound_to 10752
  141.0539  133.9643  157.2788 H   0  0  0  0  0  0  0  0  0  0  0  0  # atno 11005 bound_to 11000
  146.0541  140.8039  142.9767 LP  0  0  0  0  0  0  0  0  0  0  0  0  # atno 17320 bound_to 7965
  144.6894  140.3098  143.7250 LP  0  0  0  0  0  0  0  0  0  0  0  0  # atno 17321 bound_to 7965
  139.4786  144.5310  151.8667 LP  0  0  0  0  0  0  0  0  0  0  0  0  # atno 17342 bound_to 10162
  140.4401  144.1997  150.5891 LP  0  0  0  0  0  0  0  0  0  0  0  0  # atno 17343 bound_to 10162
  156.7514  130.4770  149.5456 LP  0  0  0  0  0  0  0  0  0  0  0  0  # atno 17370 bound_to 10713
  156.1476  130.6287  151.0552 LP  0  0  0  0  0  0  0  0  0  0  0  0  # atno 17371 bound_to 10713
  139.9374  135.0195  156.8599 LP  0  0  0  0  0  0  0  0  0  0  0  0  # atno 17394 bound_to 11000
  140.6001  134.0180  155.7534 LP  0  0  0  0  0  0  0  0  0  0  0  0  # atno 17395 bound_to 11000

$$$$
