AV-unprocessed.smi:2147|AV-procd|sdf|8742|dock8
  -GOLD-   2272011513D 1   1.00000     0.00000
 Structure written by MMmdl.
 41 43  0  0  0  0  0  0  0  0  1 V2000
  147.9331  134.0090  155.0206 C   0  0  0  0  0  0  0  0  0  0  0  0
  149.2921  134.5965  155.3976 C   0  0  0  0  0  0  0  0  0  0  0  0
  150.1614  133.8426  155.8339 O   0  0  0  0  0  0  0  0  0  0  0  0
  149.4909  136.0626  155.2151 C   0  0  0  0  0  0  0  0  0  0  0  0
  150.7655  136.6164  154.9534 C   0  0  0  0  0  0  0  0  0  0  0  0
  150.9186  138.0059  154.7833 C   0  0  0  0  0  0  0  0  0  0  0  0
  149.8117  138.8731  154.8694 C   0  0  0  0  0  0  0  0  0  0  0  0
  150.0521  140.2179  154.6867 O   0  0  0  0  0  0  0  0  0  0  0  0
  149.0143  141.1354  155.0070 C   0  0  0  0  0  0  0  0  0  0  0  0
  149.2715  141.7189  156.4040 C   0  0  2  0  0  0  0  0  0  0  0  0
  148.2809  142.6932  156.6663 O   0  0  0  0  0  0  0  0  0  0  0  0
  150.6726  142.3489  156.5289 C   0  0  0  0  0  0  0  0  0  0  0  0
  151.5602  141.5716  157.3755 N   0  0  0  0  0  0  0  0  0  0  0  0
  152.0056  140.3208  157.1490 C   0  0  0  0  0  0  0  0  0  0  0  0
  152.8191  139.7897  158.0572 N   0  0  0  0  0  0  0  0  0  0  0  0
  152.9148  140.8163  158.9811 C   0  0  0  0  0  0  0  0  0  0  0  0
  153.6350  140.8941  160.1947 C   0  0  0  0  0  0  0  0  0  0  0  0
  153.5793  142.0614  160.9847 C   0  0  0  0  0  0  0  0  0  0  0  0
  152.8033  143.1655  160.5759 C   0  0  0  0  0  0  0  0  0  0  0  0
  152.0772  143.1115  159.3707 C   0  0  0  0  0  0  0  0  0  0  0  0
  152.1373  141.9460  158.5842 C   0  0  0  0  0  0  0  0  0  0  0  0
  148.5351  138.3198  155.1344 C   0  0  0  0  0  0  0  0  0  0  0  0
  148.3796  136.9306  155.3039 C   0  0  0  0  0  0  0  0  0  0  0  0
  147.1416  134.4616  155.6180 H   0  0  0  0  0  0  0  0  0  0  0  0
  147.9205  132.9332  155.1976 H   0  0  0  0  0  0  0  0  0  0  0  0
  147.7206  134.1825  153.9656 H   0  0  0  0  0  0  0  0  0  0  0  0
  151.6439  135.9932  154.8774 H   0  0  0  0  0  0  0  0  0  0  0  0
  151.8997  138.4111  154.5830 H   0  0  0  0  0  0  0  0  0  0  0  0
  148.9672  141.9399  154.2709 H   0  0  0  0  0  0  0  0  0  0  0  0
  148.0563  140.6121  154.9988 H   0  0  0  0  0  0  0  0  0  0  0  0
  149.1587  140.9280  157.1466 H   0  0  0  0  0  0  0  0  0  0  0  0
  148.6473  143.5470  156.4928 H   0  0  0  0  0  0  0  0  0  0  0  0
  151.1349  142.4387  155.5451 H   0  0  0  0  0  0  0  0  0  0  0  0
  150.6034  143.3603  156.9314 H   0  0  0  0  0  0  0  0  0  0  0  0
  151.7155  139.7688  156.2667 H   0  0  0  0  0  0  0  0  0  0  0  0
  154.2319  140.0542  160.5184 H   0  0  0  0  0  0  0  0  0  0  0  0
  154.1348  142.1096  161.9099 H   0  0  0  0  0  0  0  0  0  0  0  0
  152.7657  144.0544  161.1885 H   0  0  0  0  0  0  0  0  0  0  0  0
  151.4801  143.9544  159.0555 H   0  0  0  0  0  0  0  0  0  0  0  0
  147.6552  138.9400  155.2133 H   0  0  0  0  0  0  0  0  0  0  0  0
  147.3920  136.5400  155.5031 H   0  0  0  0  0  0  0  0  0  0  0  0
  1  2  1  0  0  0  0
  1 24  1  0  0  0  0
  1 25  1  0  0  0  0
  1 26  1  0  0  0  0
  2  3  2  0  0  0  0
  2  4  1  0  0  0  0
  4 23  1  0  0  0  0
  4  5  2  0  0  0  0
  5  6  1  0  0  0  0
  5 27  1  0  0  0  0
  6  7  2  0  0  0  0
  6 28  1  0  0  0  0
  7  8  1  0  0  0  0
  7 22  1  0  0  0  0
  8  9  1  0  0  0  0
  9 10  1  0  0  0  0
  9 29  1  0  0  0  0
  9 30  1  0  0  0  0
 10 11  1  0  0  0  0
 10 12  1  0  0  0  0
 10 31  1  0  0  0  0
 11 32  1  0  0  0  0
 12 13  1  0  0  0  0
 12 33  1  0  0  0  0
 12 34  1  0  0  0  0
 13 21  1  0  0  0  0
 13 14  1  0  0  0  0
 14 15  2  0  0  0  0
 14 35  1  0  0  0  0
 15 16  1  0  0  0  0
 16 21  2  0  0  0  0
 16 17  1  0  0  0  0
 17 18  2  0  0  0  0
 17 36  1  0  0  0  0
 18 19  1  0  0  0  0
 18 37  1  0  0  0  0
 19 20  2  0  0  0  0
 19 38  1  0  0  0  0
 20 21  1  0  0  0  0
 20 39  1  0  0  0  0
 22 23  2  0  0  0  0
 22 40  1  0  0  0  0
 23 41  1  0  0  0  0
M  END
> <s_m_source_file>
AV-unprocessed.smi

> <i_m_source_file_index>
2147

> <i_lp_mmshare_version>
43012

> <i_f3d_flags>
0

> <s_epik_input>
W0NIM11DKD1PKWMxW2NIXVtjSF1jKFtjSF1bY0hdMSlPW0NIMl1bQ0BIXShbT0hdKVtDSDJdbihbY0hdbjIpYyhjMjMpW2NIXVtjSF1bY0hdW2NIXTM=

> <s_epik_cmdline>
J2VwaWtfcHl0aG9uJywgJy1waCcsICc3LjAnLCAnLXRuJywgJzgnLCAnLW1hJywgJzIwMCcsICctbWV0YWxfYmluZGluZycsICctaW1hZScsICc8aW5maWxlLm1hZT4nLCAnLW9tYWUnLCAnPG91dGZpbGUubWFlPic=

> <r_lp_tautomer_probability>
0.99995

> <r_epik_Ionization_Penalty>
0.0583018

> <r_epik_Ionization_Penalty_Charging>
0

> <r_epik_Ionization_Penalty_Neutral>
0.0583018

> <r_epik_State_Penalty>
0.0504087

> <r_epik_Charging_Adjusted_Penalty>
0.0504087

> <i_epik_Tot_Q>
0

> <i_epik_Tot_abs_Q>
0

> <r_epik_Metal_State_Penalty>
5.26129e-05

> <b_epik_Metal_Only>
0

> <s_lp_Force_Field>
OPLS_2005

> <r_lp_Energy>
19.9149

> <b_lp_Chiralities_Consistent>
1

> <s_lp_Variant>
AV-unprocessed.smi:2147-1

> <Gold.Version>
5.8.1

> <Gold.Id.Protein>
6NUR|6NUR_protein|mol2

> <Gold.PLP.Fitness>
48.2024

> <Gold.PLP.PLP>
-42.0605

> <Gold.PLP.part.hbond>
-3.0000

> <Gold.PLP.part.metal>
0.0000

> <Gold.PLP.part.buried>
-1.6617

> <Gold.PLP.part.nonpolar>
-36.7227

> <Gold.PLP.part.repulsive>
0.1225

> <Gold.PLP.ligand.clash>
0.0000

> <Gold.PLP.ligand.torsion>
1.4535

> <Gold.PLP.Chemscore.Hbond>
3.0000

> <Gold.PLP.Chemscore.CHOScore>
0.0000

> <Gold.PLP.Chemscore.Metal>
0.0000

> <Gold.Chemscore.Hbonds>
donor molecule, donor type, donor heavy atom, donor atom, acceptor molecule, acceptor atom, score
      L1  H    11    32       P1  8028  0.80
      P1  H  7989  7998       L1     8  0.88
      P1  H  7997  8008       L1    15  0.80

> <Gold.PLP.Chemscore.Internal.Correction>
0.0489

> <Gold.Rescore>
     Score         DG    S(hbond)    S(metal)    S(lipo)     H(rot)  DE(clash)    DE(int)     intcor
     17.38     -20.28       1.99        0.00     122.30       2.40       1.53       1.37       ----

> <Gold.Chemscore.Fitness>
17.3784

> <Gold.Chemscore.DG>
-20.2778

> <Gold.Chemscore.ZeroCoef>
-5.4800

> <Gold.Chemscore.Hbond>
1.9864

> <Gold.Chemscore.Metal>
0.0000

> <Gold.Chemscore.Lipo>
122.2958

> <Gold.Chemscore.Internal_Hbond>
0.0000

> <Gold.Chemscore.DEClash>
1.5336

> <Gold.Chemscore.DEInternal>
1.3658

> <Gold.Chemscore.Rot>
2.4005

> <Gold.Chemscore.Internal.Correction>
   9.000000E+99

> <Gold.Chemscore.Hbonds>
donor molecule, donor type, donor heavy atom, donor atom, acceptor molecule, acceptor atom, score
      L1  H    11    32       P1  8028  0.50
      P1  H  7989  7998       L1     8  0.78
      P1  H  7997  8008       L1    15  0.04

> <Gold.Chemscore.Hbond.Weighted>
-6.6345

> <Gold.Chemscore.Metal.Weighted>
-0.0000

> <Gold.Chemscore.Lipo.Weighted>
-14.3086

> <Gold.Chemscore.Internal_Hbond.Weighted>
0.0000

> <Gold.Chemscore.DEClash.Weighted>
1.5336

> <Gold.Chemscore.DEInternal.Weighted>
1.3658

> <Gold.Chemscore.Rot.Weighted>
6.1453

> <Gold.Chemscore.Internal.Correction.Weighted>
   9.000000E+99

> <Gold.Protein.RotatedTorsions>
[ 6907 6896 6895 6894 ] final  -30.68 input  -60.11 | X-H torsion
[ 7974 7965 7964 7962 ] final  -36.25 input  175.53 | X-H torsion
[ 8008 7997 7996 7995 ] final  -92.11 input   59.86 | X-H torsion
[ 10167 10162 10161 10158 ] final  -75.39 input  -65.29 | X-H torsion
[ 10718 10713 10712 10709 ] final   54.67 input   66.30 | X-H torsion
[ 10763 10752 10751 10750 ] final   30.42 input  -60.55 | X-H torsion
[ 11005 11000 10999 10996 ] final -130.97 input  -57.11 | X-H torsion

> <Gold.Protein.ActiveResidues>
 VAL166  LYS551  ARG553  GLY616  TRP617  ASP618  TYR619  PRO620  LYS621  CYS622 
 ASP623  PHE694  ASN695  SER759  ASP760  ASP761  ALA762  ILE779  LEU786  VAL792 
 PHE793  MET794  SER795  GLU796  ALA797  LYS798  CYS799  TRP800  GLU811  SER814 

> <Gold.Protein.RotatedAtoms>
  151.1023  134.9979  159.8454 H   0  0  0  0  0  0  0  0  0  0  0  0  # atno 6907 bound_to 6896
  152.5438  134.1935  159.8693 H   0  0  0  0  0  0  0  0  0  0  0  0  # atno 6908 bound_to 6896
  151.1979  133.4584  159.2629 H   0  0  0  0  0  0  0  0  0  0  0  0  # atno 6909 bound_to 6896
  146.0677  140.6256  142.8967 H   0  0  0  0  0  0  0  0  0  0  0  0  # atno 7974 bound_to 7965
  154.7191  140.0512  157.0622 H   0  0  0  0  0  0  0  0  0  0  0  0  # atno 8008 bound_to 7997
  155.0452  140.3173  155.4692 H   0  0  0  0  0  0  0  0  0  0  0  0  # atno 8009 bound_to 7997
  156.2811  140.2125  156.5576 H   0  0  0  0  0  0  0  0  0  0  0  0  # atno 8010 bound_to 7997
  140.4947  143.2373  151.7851 H   0  0  0  0  0  0  0  0  0  0  0  0  # atno 10167 bound_to 10162
  157.5278  130.8609  149.8645 H   0  0  0  0  0  0  0  0  0  0  0  0  # atno 10718 bound_to 10713
  153.0373  135.6464  154.1042 H   0  0  0  0  0  0  0  0  0  0  0  0  # atno 10763 bound_to 10752
  154.0755  135.2877  155.3302 H   0  0  0  0  0  0  0  0  0  0  0  0  # atno 10764 bound_to 10752
  154.6566  135.5407  153.8030 H   0  0  0  0  0  0  0  0  0  0  0  0  # atno 10765 bound_to 10752
  140.9299  134.1333  157.4243 H   0  0  0  0  0  0  0  0  0  0  0  0  # atno 11005 bound_to 11000
  144.7212  140.4381  143.7006 LP  0  0  0  0  0  0  0  0  0  0  0  0  # atno 17320 bound_to 7965
  145.6447  139.1555  143.2896 LP  0  0  0  0  0  0  0  0  0  0  0  0  # atno 17321 bound_to 7965
  139.4858  144.4603  151.9549 LP  0  0  0  0  0  0  0  0  0  0  0  0  # atno 17342 bound_to 10162
  140.3690  144.2878  150.5922 LP  0  0  0  0  0  0  0  0  0  0  0  0  # atno 17343 bound_to 10162
  156.0400  130.3741  150.1461 LP  0  0  0  0  0  0  0  0  0  0  0  0  # atno 17370 bound_to 10713
  156.9647  130.9816  151.3472 LP  0  0  0  0  0  0  0  0  0  0  0  0  # atno 17371 bound_to 10713
  139.8794  135.0001  156.5994 LP  0  0  0  0  0  0  0  0  0  0  0  0  # atno 17394 bound_to 11000
  140.7876  133.8609  155.8619 LP  0  0  0  0  0  0  0  0  0  0  0  0  # atno 17395 bound_to 11000

$$$$
