AV-unprocessed.smi:948|AV-procd|sdf|4240|dock2
  -GOLD-   22720 2153D 1   1.00000     0.00000
 Structure written by MMmdl.
 18 18  0  0  0  0  0  0  0  0  2 V2000
  142.2960  132.7999  148.1685 N   0  3  0  0  0  0  0  0  0  0  0  0
  143.7106  132.8849  148.5684 C   0  0  0  0  0  0  0  0  0  0  0  0
  143.9076  132.4492  150.0268 C   0  0  0  0  0  0  0  0  0  0  0  0
  144.8000  133.3873  150.7803 C   0  0  0  0  0  0  0  0  0  0  0  0
  146.0375  133.1418  151.3352 C   0  0  0  0  0  0  0  0  0  0  0  0
  146.4277  134.3374  151.9130 N   0  0  0  0  0  0  0  0  0  0  0  0
  145.4508  135.2214  151.6928 C   0  0  0  0  0  0  0  0  0  0  0  0
  144.4303  134.7152  151.0103 N   0  0  0  0  0  0  0  0  0  0  0  0
  147.2897  134.5103  152.4108 H   0  0  0  0  0  0  0  0  0  0  0  0
  142.2026  133.0744  147.2010 H   0  0  0  0  0  0  0  0  0  0  0  0
  141.7442  133.4171  148.7472 H   0  0  0  0  0  0  0  0  0  0  0  0
  144.3020  132.2559  147.9022 H   0  0  0  0  0  0  0  0  0  0  0  0
  144.0508  133.9116  148.4284 H   0  0  0  0  0  0  0  0  0  0  0  0
  142.9387  132.3858  150.5239 H   0  0  0  0  0  0  0  0  0  0  0  0
  144.3251  131.4419  150.0528 H   0  0  0  0  0  0  0  0  0  0  0  0
  146.6489  132.2519  151.3675 H   0  0  0  0  0  0  0  0  0  0  0  0
  145.4869  136.2450  152.0357 H   0  0  0  0  0  0  0  0  0  0  0  0
  141.9690  131.8510  148.2816 H   0  0  0  0  0  0  0  0  0  0  0  0
  1  2  1  0  0  0  0
  1 10  1  0  0  0  0
  1 11  1  0  0  0  0
  1 18  1  0  0  0  0
  2  3  1  0  0  0  0
  2 12  1  0  0  0  0
  2 13  1  0  0  0  0
  3  4  1  0  0  0  0
  3 14  1  0  0  0  0
  3 15  1  0  0  0  0
  4  8  1  0  0  0  0
  4  5  2  0  0  0  0
  5  6  1  0  0  0  0
  5 16  1  0  0  0  0
  6  9  1  0  0  0  0
  6  7  1  0  0  0  0
  7  8  2  0  0  0  0
  7 17  1  0  0  0  0
M  CHG  1   1   1
M  END
> <s_m_source_file>
AV-unprocessed.smi

> <i_m_source_file_index>
948

> <i_lp_mmshare_version>
43012

> <i_f3d_flags>
0

> <s_epik_input>
W05IMl1bQ0gyXVtDSDJdYzFbY0hdW25IXVtjSF1uMQ==

> <s_epik_cmdline>
J2VwaWtfcHl0aG9uJywgJy1waCcsICc3LjAnLCAnLXRuJywgJzgnLCAnLW1hJywgJzIwMCcsICctbWV0YWxfYmluZGluZycsICctaW1hZScsICc8aW5maWxlLm1hZT4nLCAnLW9tYWUnLCAnPG91dGZpbGUubWFlPic=

> <r_lp_tautomer_probability>
0.5

> <r_epik_Ionization_Penalty>
0.0855475

> <r_epik_Ionization_Penalty_Charging>
0.085547

> <r_epik_Ionization_Penalty_Neutral>
5.68955e-07

> <r_epik_State_Penalty>
0.507598

> <r_epik_Charging_Adjusted_Penalty>
0.593145

> <i_epik_Tot_Q>
1

> <i_epik_Tot_abs_Q>
1

> <r_epik_Metal_State_Penalty>
0.442189

> <b_epik_Metal_Only>
0

> <s_lp_Force_Field>
OPLS_2005

> <r_lp_Energy>
1.58709

> <b_lp_Chiralities_Consistent>
1

> <s_lp_Variant>
AV-unprocessed.smi:948-2

> <Gold.Version>
5.8.1

> <Gold.Id.Protein>
6NUR|6NUR_protein|mol2

> <Gold.PLP.Fitness>
38.8610

> <Gold.PLP.PLP>
-21.5456

> <Gold.PLP.part.hbond>
-4.0000

> <Gold.PLP.part.metal>
0.0000

> <Gold.PLP.part.buried>
-5.0753

> <Gold.PLP.part.nonpolar>
-14.2015

> <Gold.PLP.part.repulsive>
0.5446

> <Gold.PLP.ligand.clash>
0.0000

> <Gold.PLP.ligand.torsion>
0.3407

> <Gold.PLP.Chemscore.Hbond>
5.0000

> <Gold.PLP.Chemscore.CHOScore>
0.9989

> <Gold.PLP.Chemscore.Metal>
0.0000

> <Gold.Chemscore.Hbonds>
donor molecule, donor type, donor heavy atom, donor atom, acceptor molecule, acceptor atom, score
      L1  H     1    10       P1 10195  1.00
      L1  H     1    11       P1 10186  1.62
      L1  H     1    18       P1 10952  0.38
      L1  H     6     9       P1  7948  0.02
      L1  C     5    16       P1 10747  0.01

> <Gold.PLP.Chemscore.Internal.Correction>
0.0000

> <Gold.Rescore>
     Score         DG    S(hbond)    S(metal)    S(lipo)     H(rot)  DE(clash)    DE(int)     intcor
     18.67     -19.22       3.97        0.00      37.27       1.51       0.14       0.40       ----

> <Gold.Chemscore.Fitness>
18.6742

> <Gold.Chemscore.DG>
-19.2184

> <Gold.Chemscore.ZeroCoef>
-5.4800

> <Gold.Chemscore.Hbond>
3.9671

> <Gold.Chemscore.Metal>
0.0000

> <Gold.Chemscore.Lipo>
37.2717

> <Gold.Chemscore.Internal_Hbond>
0.0000

> <Gold.Chemscore.DEClash>
0.1401

> <Gold.Chemscore.DEInternal>
0.4041

> <Gold.Chemscore.Rot>
1.5127

> <Gold.Chemscore.Internal.Correction>
   9.000000E+99

> <Gold.Chemscore.Hbonds>
donor molecule, donor type, donor heavy atom, donor atom, acceptor molecule, acceptor atom, score
      L1  H     1    10       P1 10195  0.98
      L1  H     1    11       P1 10186  0.80
      L1  H     1    18       P1 10952  0.38
      L1  H     6     9       P1  7948  0.04

> <Gold.Chemscore.Hbond.Weighted>
-13.2503

> <Gold.Chemscore.Metal.Weighted>
-0.0000

> <Gold.Chemscore.Lipo.Weighted>
-4.3608

> <Gold.Chemscore.Internal_Hbond.Weighted>
0.0000

> <Gold.Chemscore.DEClash.Weighted>
0.1401

> <Gold.Chemscore.DEInternal.Weighted>
0.4041

> <Gold.Chemscore.Rot.Weighted>
3.8726

> <Gold.Chemscore.Internal.Correction.Weighted>
   9.000000E+99

> <Gold.Protein.RotatedTorsions>
[ 6907 6896 6895 6894 ] final  159.09 input  -60.11 | X-H torsion
[ 7974 7965 7964 7962 ] final    5.91 input  175.53 | X-H torsion
[ 8008 7997 7996 7995 ] final -147.58 input   59.86 | X-H torsion
[ 10167 10162 10161 10158 ] final -106.90 input  -65.29 | X-H torsion
[ 10718 10713 10712 10709 ] final -155.78 input   66.30 | X-H torsion
[ 10763 10752 10751 10750 ] final  101.09 input  -60.55 | X-H torsion
[ 11005 11000 10999 10996 ] final  -74.48 input  -57.11 | X-H torsion

> <Gold.Protein.ActiveResidues>
 VAL166  LYS551  ARG553  GLY616  TRP617  ASP618  TYR619  PRO620  LYS621  CYS622 
 ASP623  PHE694  ASN695  SER759  ASP760  ASP761  ALA762  ILE779  LEU786  VAL792 
 PHE793  MET794  SER795  GLU796  ALA797  LYS798  CYS799  TRP800  GLU811  SER814 

> <Gold.Protein.RotatedAtoms>
  151.9908  133.3790  159.4143 H   0  0  0  0  0  0  0  0  0  0  0  0  # atno 6907 bound_to 6896
  150.6922  134.3939  159.5098 H   0  0  0  0  0  0  0  0  0  0  0  0  # atno 6908 bound_to 6896
  152.1672  134.8864  160.0588 H   0  0  0  0  0  0  0  0  0  0  0  0  # atno 6909 bound_to 6896
  146.2438  140.0312  142.8389 H   0  0  0  0  0  0  0  0  0  0  0  0  # atno 7974 bound_to 7965
  155.5778  140.0640  157.2791 H   0  0  0  0  0  0  0  0  0  0  0  0  # atno 8008 bound_to 7997
  154.4341  140.1857  156.0991 H   0  0  0  0  0  0  0  0  0  0  0  0  # atno 8009 bound_to 7997
  156.0328  140.3304  155.7162 H   0  0  0  0  0  0  0  0  0  0  0  0  # atno 8010 bound_to 7997
  140.1828  143.3953  152.1268 H   0  0  0  0  0  0  0  0  0  0  0  0  # atno 10167 bound_to 10162
  156.5175  130.8463  151.2669 H   0  0  0  0  0  0  0  0  0  0  0  0  # atno 10718 bound_to 10713
  153.3223  135.4056  155.1427 H   0  0  0  0  0  0  0  0  0  0  0  0  # atno 10763 bound_to 10752
  154.8603  135.3590  154.5580 H   0  0  0  0  0  0  0  0  0  0  0  0  # atno 10764 bound_to 10752
  153.6014  135.7071  153.5442 H   0  0  0  0  0  0  0  0  0  0  0  0  # atno 10765 bound_to 10752
  141.1635  133.6913  156.7370 H   0  0  0  0  0  0  0  0  0  0  0  0  # atno 11005 bound_to 11000
  145.1153  140.9430  143.4632 LP  0  0  0  0  0  0  0  0  0  0  0  0  # atno 17320 bound_to 7965
  145.0535  139.3162  143.5916 LP  0  0  0  0  0  0  0  0  0  0  0  0  # atno 17321 bound_to 7965
  139.5289  144.7135  151.5129 LP  0  0  0  0  0  0  0  0  0  0  0  0  # atno 17342 bound_to 10162
  140.6508  143.8700  150.6784 LP  0  0  0  0  0  0  0  0  0  0  0  0  # atno 17343 bound_to 10162
  157.7442  130.9929  150.2652 LP  0  0  0  0  0  0  0  0  0  0  0  0  # atno 17370 bound_to 10713
  156.3181  130.3782  149.7600 LP  0  0  0  0  0  0  0  0  0  0  0  0  # atno 17371 bound_to 10713
  140.2702  134.8398  157.3840 LP  0  0  0  0  0  0  0  0  0  0  0  0  # atno 17394 bound_to 11000
  140.1528  134.4828  155.7949 LP  0  0  0  0  0  0  0  0  0  0  0  0  # atno 17395 bound_to 11000

$$$$
