AV-unprocessed.smi:255|AV-procd|sdf|1954|dock6
  -GOLD-   2262021 93D 1   1.00000     0.00000
 Structure written by MMmdl.
 44 47  0  0  0  0  0  0  0  0  1 V2000
  152.3617  144.9882  158.9159 O   0  0  0  0  0  0  0  0  0  0  0  0
  151.7089  143.7371  158.8787 C   0  0  0  0  0  0  0  0  0  0  0  0
  152.7361  142.5981  159.0358 C   0  0  1  0  0  0  0  0  0  0  0  0
  153.3672  142.5411  160.4306 C   0  0  0  0  0  0  0  0  0  0  0  0
  153.8664  141.1019  160.5167 C   0  0  2  0  0  0  0  0  0  0  0  0
  155.0526  141.0051  159.9145 F   0  0  0  0  0  0  0  0  0  0  0  0
  152.8284  140.3085  159.7165 C   0  0  0  0  0  0  0  0  0  0  0  0
  152.1496  141.2704  158.8526 N   0  0  0  0  0  0  0  0  0  0  0  0
  151.7699  140.8234  157.6261 C   0  0  0  0  0  0  0  0  0  0  0  0
  152.6075  140.0341  156.9017 N   0  0  0  0  0  0  0  0  0  0  0  0
  152.2442  139.5854  155.6970 C   0  0  0  0  0  0  0  0  0  0  0  0
  151.1062  139.8008  155.0355 N   0  0  0  0  0  0  0  0  0  0  0  0
  150.2586  140.5905  155.7544 C   0  0  0  0  0  0  0  0  0  0  0  0
  150.5095  141.1423  157.0430 C   0  0  0  0  0  0  0  0  0  0  0  0
  149.4216  141.9084  157.4462 N   0  0  0  0  0  0  0  0  0  0  0  0
  148.5755  141.8091  156.4577 C   0  0  0  0  0  0  0  0  0  0  0  0
  148.9927  141.0277  155.4040 N   0  0  0  0  0  0  0  0  0  0  0  0
  148.2574  140.7459  154.1801 C   0  0  0  0  0  0  0  0  0  0  0  0
  148.0181  139.2370  153.9293 C   0  0  2  0  0  0  0  0  0  0  0  0
  149.2147  138.6553  153.4450 O   0  0  0  0  0  0  0  0  0  0  0  0
  146.8967  138.9845  152.9187 C   0  0  0  0  0  0  0  0  0  0  0  0
  145.7675  138.4131  153.7675 C   0  0  0  0  0  0  0  0  0  0  0  0
  146.4636  137.6667  154.7490 O   0  0  0  0  0  0  0  0  0  0  0  0
  147.5545  138.4661  155.1816 C   0  0  0  0  0  0  0  0  0  0  0  0
  153.5343  142.7230  158.3021 H   0  0  0  0  0  0  0  0  0  0  0  0
  153.9869  140.7443  161.5395 H   0  0  0  0  0  0  0  0  0  0  0  0
  151.7886  145.6129  159.3334 H   0  0  0  0  0  0  0  0  0  0  0  0
  150.9599  143.6974  159.6701 H   0  0  0  0  0  0  0  0  0  0  0  0
  151.1751  143.6645  157.9316 H   0  0  0  0  0  0  0  0  0  0  0  0
  154.1580  143.2783  160.5723 H   0  0  0  0  0  0  0  0  0  0  0  0
  152.6088  142.7097  161.1967 H   0  0  0  0  0  0  0  0  0  0  0  0
  153.2941  139.4953  159.1573 H   0  0  0  0  0  0  0  0  0  0  0  0
  152.0895  139.8723  160.3895 H   0  0  0  0  0  0  0  0  0  0  0  0
  152.9688  138.9643  155.1911 H   0  0  0  0  0  0  0  0  0  0  0  0
  147.6173  142.3077  156.4724 H   0  0  0  0  0  0  0  0  0  0  0  0
  147.3036  141.2731  154.2286 H   0  0  0  0  0  0  0  0  0  0  0  0
  148.8045  141.1847  153.3445 H   0  0  0  0  0  0  0  0  0  0  0  0
  149.0093  138.1413  152.6791 H   0  0  0  0  0  0  0  0  0  0  0  0
  146.5916  139.8790  152.3745 H   0  0  0  0  0  0  0  0  0  0  0  0
  147.1952  138.2397  152.1787 H   0  0  0  0  0  0  0  0  0  0  0  0
  145.1941  139.2085  154.2463 H   0  0  0  0  0  0  0  0  0  0  0  0
  145.0824  137.7884  153.1940 H   0  0  0  0  0  0  0  0  0  0  0  0
  148.3381  137.8607  155.6391 H   0  0  0  0  0  0  0  0  0  0  0  0
  147.1767  139.1469  155.9449 H   0  0  0  0  0  0  0  0  0  0  0  0
  1  2  1  0  0  0  0
  1 27  1  0  0  0  0
  2  3  1  0  0  0  0
  2 28  1  0  0  0  0
  2 29  1  0  0  0  0
  3 25  1  0  0  0  0
  3  8  1  0  0  0  0
  3  4  1  0  0  0  0
  4  5  1  0  0  0  0
  4 30  1  0  0  0  0
  4 31  1  0  0  0  0
  5 26  1  0  0  0  0
  5  6  1  0  0  0  0
  5  7  1  0  0  0  0
  7  8  1  0  0  0  0
  7 32  1  0  0  0  0
  7 33  1  0  0  0  0
  8  9  1  0  0  0  0
  9 14  1  0  0  0  0
  9 10  2  0  0  0  0
 10 11  1  0  0  0  0
 11 12  2  0  0  0  0
 11 34  1  0  0  0  0
 12 13  1  0  0  0  0
 13 17  1  0  0  0  0
 13 14  2  0  0  0  0
 14 15  1  0  0  0  0
 15 16  2  0  0  0  0
 16 17  1  0  0  0  0
 16 35  1  0  0  0  0
 17 18  1  0  0  0  0
 18 19  1  0  0  0  0
 18 36  1  0  0  0  0
 18 37  1  0  0  0  0
 19 24  1  0  0  0  0
 19 20  1  0  0  0  0
 19 21  1  0  0  0  0
 20 38  1  0  0  0  0
 21 22  1  0  0  0  0
 21 39  1  0  0  0  0
 21 40  1  0  0  0  0
 22 23  1  0  0  0  0
 22 41  1  0  0  0  0
 22 42  1  0  0  0  0
 23 24  1  0  0  0  0
 24 43  1  0  0  0  0
 24 44  1  0  0  0  0
M  END
> <s_m_source_file>
AV-unprocessed.smi

> <i_m_source_file_index>
255

> <i_lp_mmshare_version>
43012

> <i_f3d_flags>
0

> <s_epik_input>
W09IXVtDSDJdW0NAQEhdMVtDSDJdW0NASF0oRilbQ0gyXU4xYyhuW2NIXW4yKWMoYzIzKW5bY0hdbjNbQ0gyXVtDQEBdNChbT0hdKVtDSDJdW0NIMl1PW0NIMl00

> <s_epik_cmdline>
J2VwaWtfcHl0aG9uJywgJy1waCcsICc3LjAnLCAnLXRuJywgJzgnLCAnLW1hJywgJzIwMCcsICctbWV0YWxfYmluZGluZycsICctaW1hZScsICc8aW5maWxlLm1hZT4nLCAnLW9tYWUnLCAnPG91dGZpbGUubWFlPic=

> <r_lp_tautomer_probability>
1

> <r_epik_Ionization_Penalty>
0.0058098

> <r_epik_Ionization_Penalty_Charging>
0

> <r_epik_Ionization_Penalty_Neutral>
0.0058098

> <r_epik_State_Penalty>
0.00411166

> <r_epik_Charging_Adjusted_Penalty>
0.00411166

> <i_epik_Tot_Q>
0

> <i_epik_Tot_abs_Q>
0

> <r_epik_Metal_State_Penalty>
-0

> <b_epik_Metal_Only>
0

> <s_lp_Force_Field>
OPLS_2005

> <r_lp_Energy>
48.4918

> <b_lp_Chiralities_Consistent>
1

> <s_lp_Variant>
AV-unprocessed.smi:255-6

> <Gold.Version>
5.8.1

> <Gold.Id.Protein>
6NUR|6NUR_protein|mol2

> <Gold.PLP.Fitness>
50.7773

> <Gold.PLP.PLP>
-42.6431

> <Gold.PLP.part.hbond>
-4.0000

> <Gold.PLP.part.metal>
0.0000

> <Gold.PLP.part.buried>
-1.5502

> <Gold.PLP.part.nonpolar>
-36.4794

> <Gold.PLP.part.repulsive>
0.2349

> <Gold.PLP.ligand.clash>
0.0000

> <Gold.PLP.ligand.torsion>
0.8197

> <Gold.PLP.Chemscore.Hbond>
2.9920

> <Gold.PLP.Chemscore.CHOScore>
0.1497

> <Gold.PLP.Chemscore.Metal>
0.0000

> <Gold.Chemscore.Hbonds>
donor molecule, donor type, donor heavy atom, donor atom, acceptor molecule, acceptor atom, score
      L1  H    20    38       P1  7948  0.90
      P1  H  7989  7998       L1    12  1.00
      P1  H  7997  8010       L1    10  0.94
      L1  C    16    35       P1  8028  0.06

> <Gold.PLP.Chemscore.Internal.Correction>
0.3486

> <Gold.Rescore>
     Score         DG    S(hbond)    S(metal)    S(lipo)     H(rot)  DE(clash)    DE(int)     intcor
     11.19     -11.90       1.64        0.00      80.76       3.33       0.04       0.67       ----

> <Gold.Chemscore.Fitness>
11.1928

> <Gold.Chemscore.DG>
-11.9005

> <Gold.Chemscore.ZeroCoef>
-5.4800

> <Gold.Chemscore.Hbond>
1.6435

> <Gold.Chemscore.Metal>
0.0000

> <Gold.Chemscore.Lipo>
80.7633

> <Gold.Chemscore.Internal_Hbond>
0.0000

> <Gold.Chemscore.DEClash>
0.0357

> <Gold.Chemscore.DEInternal>
0.6720

> <Gold.Chemscore.Rot>
3.3273

> <Gold.Chemscore.Internal.Correction>
   9.000000E+99

> <Gold.Chemscore.Hbonds>
donor molecule, donor type, donor heavy atom, donor atom, acceptor molecule, acceptor atom, score
      L1  H    20    38       P1  7948  0.81
      P1  H  7989  7998       L1    12  0.25
      P1  H  7997  8010       L1    10  0.36

> <Gold.Chemscore.Hbond.Weighted>
-5.4891

> <Gold.Chemscore.Metal.Weighted>
-0.0000

> <Gold.Chemscore.Lipo.Weighted>
-9.4493

> <Gold.Chemscore.Internal_Hbond.Weighted>
0.0000

> <Gold.Chemscore.DEClash.Weighted>
0.0357

> <Gold.Chemscore.DEInternal.Weighted>
0.6720

> <Gold.Chemscore.Rot.Weighted>
8.5179

> <Gold.Chemscore.Internal.Correction.Weighted>
   9.000000E+99

> <Gold.Protein.RotatedTorsions>
[ 6907 6896 6895 6894 ] final  -11.77 input  -60.11 | X-H torsion
[ 7974 7965 7964 7962 ] final -125.74 input  175.53 | X-H torsion
[ 8008 7997 7996 7995 ] final   48.55 input   59.86 | X-H torsion
[ 10167 10162 10161 10158 ] final  -24.25 input  -65.29 | X-H torsion
[ 10718 10713 10712 10709 ] final -124.86 input   66.30 | X-H torsion
[ 10763 10752 10751 10750 ] final   94.62 input  -60.55 | X-H torsion
[ 11005 11000 10999 10996 ] final -129.82 input  -57.11 | X-H torsion

> <Gold.Protein.ActiveResidues>
 VAL166  LYS551  ARG553  GLY616  TRP617  ASP618  TYR619  PRO620  LYS621  CYS622 
 ASP623  PHE694  ASN695  SER759  ASP760  ASP761  ALA762  ILE779  LEU786  VAL792 
 PHE793  MET794  SER795  GLU796  ALA797  LYS798  CYS799  TRP800  GLU811  SER814 

> <Gold.Protein.RotatedAtoms>
  151.3810  135.0940  159.9495 H   0  0  0  0  0  0  0  0  0  0  0  0  # atno 6907 bound_to 6896
  152.5108  133.9072  159.7480 H   0  0  0  0  0  0  0  0  0  0  0  0  # atno 6908 bound_to 6896
  150.9505  133.6499  159.2802 H   0  0  0  0  0  0  0  0  0  0  0  0  # atno 6909 bound_to 6896
  144.9944  140.7762  143.4534 H   0  0  0  0  0  0  0  0  0  0  0  0  # atno 7974 bound_to 7965
  155.3876  140.3431  155.4249 H   0  0  0  0  0  0  0  0  0  0  0  0  # atno 8008 bound_to 7997
  156.1576  140.1590  156.8700 H   0  0  0  0  0  0  0  0  0  0  0  0  # atno 8009 bound_to 7997
  154.5109  140.0790  156.7969 H   0  0  0  0  0  0  0  0  0  0  0  0  # atno 8010 bound_to 7997
  140.7288  143.4370  151.0715 H   0  0  0  0  0  0  0  0  0  0  0  0  # atno 10167 bound_to 10162
  156.1625  130.6611  151.0069 H   0  0  0  0  0  0  0  0  0  0  0  0  # atno 10718 bound_to 10713
  153.2437  135.4283  155.0725 H   0  0  0  0  0  0  0  0  0  0  0  0  # atno 10763 bound_to 10752
  154.8352  135.3409  154.6612 H   0  0  0  0  0  0  0  0  0  0  0  0  # atno 10764 bound_to 10752
  153.7035  135.7027  153.5113 H   0  0  0  0  0  0  0  0  0  0  0  0  # atno 10765 bound_to 10752
  140.9399  134.1208  157.4160 H   0  0  0  0  0  0  0  0  0  0  0  0  # atno 11005 bound_to 11000
  145.2240  139.2145  143.5078 LP  0  0  0  0  0  0  0  0  0  0  0  0  # atno 17320 bound_to 7965
  146.3438  140.2104  142.8590 LP  0  0  0  0  0  0  0  0  0  0  0  0  # atno 17321 bound_to 7965
  139.8033  143.8053  152.3165 LP  0  0  0  0  0  0  0  0  0  0  0  0  # atno 17342 bound_to 10162
  139.8078  144.7348  150.9738 LP  0  0  0  0  0  0  0  0  0  0  0  0  # atno 17343 bound_to 10162
  157.6743  131.0854  150.7534 LP  0  0  0  0  0  0  0  0  0  0  0  0  # atno 17370 bound_to 10713
  156.7596  130.4794  149.5439 LP  0  0  0  0  0  0  0  0  0  0  0  0  # atno 17371 bound_to 10713
  139.8817  135.0033  156.6178 LP  0  0  0  0  0  0  0  0  0  0  0  0  # atno 17394 bound_to 11000
  140.7749  133.8708  155.8521 LP  0  0  0  0  0  0  0  0  0  0  0  0  # atno 17395 bound_to 11000

$$$$
