AV-unprocessed.smi:187|AV-procd|sdf|1471|dock7
  -GOLD-   2262019293D 1   1.00000     0.00000
 Structure written by MMmdl.
 53 56  0  0  0  0  0  0  0  0  1 V2000
  147.0484  142.0374  154.8644 C   0  0  0  0  0  0  0  0  0  0  0  0
  148.4820  141.4715  154.7848 C   0  0  1  0  0  0  0  0  0  0  0  0
  149.3077  142.0073  155.9736 C   0  0  0  0  0  0  0  0  0  0  0  0
  150.7261  141.4230  155.9931 C   0  0  0  0  0  0  0  0  0  0  0  0
  150.6577  139.8856  156.0129 C   0  0  2  0  0  0  0  0  0  0  0  0
  152.0622  139.2688  156.0115 C   0  0  0  0  0  0  0  0  0  0  0  0
  152.3882  138.4964  157.0509 N   0  0  0  0  0  0  0  0  0  0  0  0
  152.8442  139.4844  155.0872 O   0  0  0  0  0  0  0  0  0  0  0  0
  149.8418  139.3926  154.8031 C   0  0  0  0  0  0  0  0  0  0  0  0
  148.5106  139.9996  154.7652 N   0  0  0  0  0  0  0  0  0  0  0  0
  147.7523  139.3782  153.8304 C   0  0  0  0  0  0  0  0  0  0  0  0
  147.5132  139.9759  152.6326 N   0  0  0  0  0  0  0  0  0  0  0  0
  146.7871  139.3454  151.7043 C   0  0  0  0  0  0  0  0  0  0  0  0
  146.2231  138.1369  151.7640 N   0  0  0  0  0  0  0  0  0  0  0  0
  146.4695  137.5327  152.9620 C   0  0  0  0  0  0  0  0  0  0  0  0
  147.2253  138.0759  154.0379 C   0  0  0  0  0  0  0  0  0  0  0  0
  147.2820  137.1686  155.0880 N   0  0  0  0  0  0  0  0  0  0  0  0
  146.6013  136.1423  154.6544 C   0  0  0  0  0  0  0  0  0  0  0  0
  146.0550  136.2865  153.3982 N   0  0  0  0  0  0  0  0  0  0  0  0
  145.3009  135.3111  152.6668 C   0  0  0  0  0  0  0  0  0  0  0  0
  145.3041  133.8395  153.0840 C   0  0  0  0  0  0  0  0  0  0  0  0
  145.1342  133.4279  151.6033 C   0  0  0  0  0  0  0  0  0  0  0  0
  145.9749  132.2305  151.1260 C   0  0  0  0  0  0  0  0  0  0  0  0
  147.2612  132.2190  151.7096 O   0  0  0  0  0  0  0  0  0  0  0  0
  143.6851  133.2670  151.0965 C   0  0  0  0  0  0  0  0  0  0  0  0
  143.6219  133.1160  149.6933 O   0  0  0  0  0  0  0  0  0  0  0  0
  145.7562  134.8090  151.2937 C   0  0  0  0  0  0  0  0  0  0  0  0
  147.0636  143.1258  154.9254 H   0  0  0  0  0  0  0  0  0  0  0  0
  146.5256  141.6646  155.7460 H   0  0  0  0  0  0  0  0  0  0  0  0
  146.4506  141.7789  153.9908 H   0  0  0  0  0  0  0  0  0  0  0  0
  148.9463  141.8304  153.8648 H   0  0  0  0  0  0  0  0  0  0  0  0
  149.3620  143.0956  155.9304 H   0  0  0  0  0  0  0  0  0  0  0  0
  148.8065  141.7613  156.9109 H   0  0  0  0  0  0  0  0  0  0  0  0
  151.2742  141.7706  155.1158 H   0  0  0  0  0  0  0  0  0  0  0  0
  151.2654  141.7922  156.8663 H   0  0  0  0  0  0  0  0  0  0  0  0
  150.1424  139.5745  156.9238 H   0  0  0  0  0  0  0  0  0  0  0  0
  153.3017  138.0689  157.0944 H   0  0  0  0  0  0  0  0  0  0  0  0
  151.7182  138.3435  157.7905 H   0  0  0  0  0  0  0  0  0  0  0  0
  150.3632  139.6293  153.8738 H   0  0  0  0  0  0  0  0  0  0  0  0
  149.7529  138.3056  154.8461 H   0  0  0  0  0  0  0  0  0  0  0  0
  146.6376  139.8861  150.7816 H   0  0  0  0  0  0  0  0  0  0  0  0
  146.4756  135.2484  155.2478 H   0  0  0  0  0  0  0  0  0  0  0  0
  144.2806  135.6953  152.6195 H   0  0  0  0  0  0  0  0  0  0  0  0
  146.2626  133.5276  153.5037 H   0  0  0  0  0  0  0  0  0  0  0  0
  144.4822  133.5561  153.7418 H   0  0  0  0  0  0  0  0  0  0  0  0
  145.4788  131.2850  151.3465 H   0  0  0  0  0  0  0  0  0  0  0  0
  146.1105  132.2592  150.0446 H   0  0  0  0  0  0  0  0  0  0  0  0
  147.7090  131.4333  151.4361 H   0  0  0  0  0  0  0  0  0  0  0  0
  143.2080  132.3926  151.5391 H   0  0  0  0  0  0  0  0  0  0  0  0
  143.0711  134.1209  151.3836 H   0  0  0  0  0  0  0  0  0  0  0  0
  142.7757  133.4129  149.3959 H   0  0  0  0  0  0  0  0  0  0  0  0
  145.3100  135.3359  150.4496 H   0  0  0  0  0  0  0  0  0  0  0  0
  146.8436  134.7787  151.2016 H   0  0  0  0  0  0  0  0  0  0  0  0
  1  2  1  0  0  0  0
  1 28  1  0  0  0  0
  1 29  1  0  0  0  0
  1 30  1  0  0  0  0
  2 10  1  0  0  0  0
  2  3  1  0  0  0  0
  2 31  1  0  0  0  0
  3  4  1  0  0  0  0
  3 32  1  0  0  0  0
  3 33  1  0  0  0  0
  4  5  1  0  0  0  0
  4 34  1  0  0  0  0
  4 35  1  0  0  0  0
  5  6  1  0  0  0  0
  5  9  1  0  0  0  0
  5 36  1  0  0  0  0
  6  7  1  0  0  0  0
  6  8  2  0  0  0  0
  7 37  1  0  0  0  0
  7 38  1  0  0  0  0
  9 10  1  0  0  0  0
  9 39  1  0  0  0  0
  9 40  1  0  0  0  0
 10 11  1  0  0  0  0
 11 16  1  0  0  0  0
 11 12  2  0  0  0  0
 12 13  1  0  0  0  0
 13 14  2  0  0  0  0
 13 41  1  0  0  0  0
 14 15  1  0  0  0  0
 15 19  1  0  0  0  0
 15 16  2  0  0  0  0
 16 17  1  0  0  0  0
 17 18  2  0  0  0  0
 18 19  1  0  0  0  0
 18 42  1  0  0  0  0
 19 20  1  0  0  0  0
 20 27  1  0  0  0  0
 20 21  1  0  0  0  0
 20 43  1  0  0  0  0
 21 22  1  0  0  0  0
 21 44  1  0  0  0  0
 21 45  1  0  0  0  0
 22 23  1  0  0  0  0
 22 25  1  0  0  0  0
 22 27  1  0  0  0  0
 23 24  1  0  0  0  0
 23 46  1  0  0  0  0
 23 47  1  0  0  0  0
 24 48  1  0  0  0  0
 25 26  1  0  0  0  0
 25 49  1  0  0  0  0
 25 50  1  0  0  0  0
 26 51  1  0  0  0  0
 27 52  1  0  0  0  0
 27 53  1  0  0  0  0
M  END
> <s_m_source_file>
AV-unprocessed.smi

> <i_m_source_file_index>
187

> <i_lp_mmshare_version>
43012

> <i_f3d_flags>
0

> <s_epik_input>
W0NIM11bQ0BASF0xW0NIMl1bQ0gyXVtDQEBIXShDKD1PKVtOSDJdKVtDSDJdTjFjKG5bY0hdbjIpYyhjMjMpbltjSF1uM1tDSF0oW0NIMl00KVtDSDJdQzQoW0NIMl1bT0hdKVtDSDJdW09IXQ==

> <s_epik_cmdline>
J2VwaWtfcHl0aG9uJywgJy1waCcsICc3LjAnLCAnLXRuJywgJzgnLCAnLW1hJywgJzIwMCcsICctbWV0YWxfYmluZGluZycsICctaW1hZScsICc8aW5maWxlLm1hZT4nLCAnLW9tYWUnLCAnPG91dGZpbGUubWFlPic=

> <r_lp_tautomer_probability>
1

> <r_epik_Ionization_Penalty>
0.0017711

> <r_epik_Ionization_Penalty_Charging>
0

> <r_epik_Ionization_Penalty_Neutral>
0.0017711

> <r_epik_State_Penalty>
0.00107211

> <r_epik_Charging_Adjusted_Penalty>
0.00107211

> <i_epik_Tot_Q>
0

> <i_epik_Tot_abs_Q>
0

> <r_epik_Metal_State_Penalty>
-0

> <b_epik_Metal_Only>
0

> <s_lp_Force_Field>
OPLS_2005

> <r_lp_Energy>
43.5948

> <b_lp_Chiralities_Consistent>
1

> <s_lp_Variant>
AV-unprocessed.smi:187-4

> <Gold.Version>
5.8.1

> <Gold.Id.Protein>
6NUR|6NUR_protein|mol2

> <Gold.PLP.Fitness>
43.7314

> <Gold.PLP.PLP>
-35.0059

> <Gold.PLP.part.hbond>
-3.8709

> <Gold.PLP.part.metal>
0.0000

> <Gold.PLP.part.buried>
-2.3386

> <Gold.PLP.part.nonpolar>
-33.9472

> <Gold.PLP.part.repulsive>
4.3309

> <Gold.PLP.ligand.clash>
0.0000

> <Gold.PLP.ligand.torsion>
1.0307

> <Gold.PLP.Chemscore.Hbond>
3.3567

> <Gold.PLP.Chemscore.CHOScore>
0.0000

> <Gold.PLP.Chemscore.Metal>
0.0000

> <Gold.Chemscore.Hbonds>
donor molecule, donor type, donor heavy atom, donor atom, acceptor molecule, acceptor atom, score
      L1  H    24    48       P1 10747  0.83
      L1  H    26    51       P1 10186  0.98
      P1  H  7989  7998       L1     8  0.04
      P1  H  7997  8008       L1     8  1.00

> <Gold.PLP.Chemscore.Internal.Correction>
0.7168

> <Gold.Rescore>
     Score         DG    S(hbond)    S(metal)    S(lipo)     H(rot)  DE(clash)    DE(int)     intcor
     10.25     -12.41       2.93        0.00      63.03       3.99       0.54       1.63       ----

> <Gold.Chemscore.Fitness>
10.2493

> <Gold.Chemscore.DG>
-12.4148

> <Gold.Chemscore.ZeroCoef>
-5.4800

> <Gold.Chemscore.Hbond>
2.9266

> <Gold.Chemscore.Metal>
0.0000

> <Gold.Chemscore.Lipo>
63.0310

> <Gold.Chemscore.Internal_Hbond>
0.0000

> <Gold.Chemscore.DEClash>
0.5356

> <Gold.Chemscore.DEInternal>
1.6299

> <Gold.Chemscore.Rot>
3.9902

> <Gold.Chemscore.Internal.Correction>
   9.000000E+99

> <Gold.Chemscore.Hbonds>
donor molecule, donor type, donor heavy atom, donor atom, acceptor molecule, acceptor atom, score
      L1  H    24    48       P1 10747  0.83
      L1  H    26    51       P1 10186  0.91
      P1  H  7989  7998       L1     8  0.04
      P1  H  7997  8008       L1     8  0.79

> <Gold.Chemscore.Hbond.Weighted>
-9.7750

> <Gold.Chemscore.Metal.Weighted>
-0.0000

> <Gold.Chemscore.Lipo.Weighted>
-7.3746

> <Gold.Chemscore.Internal_Hbond.Weighted>
0.0000

> <Gold.Chemscore.DEClash.Weighted>
0.5356

> <Gold.Chemscore.DEInternal.Weighted>
1.6299

> <Gold.Chemscore.Rot.Weighted>
10.2148

> <Gold.Chemscore.Internal.Correction.Weighted>
   9.000000E+99

> <Gold.Protein.RotatedTorsions>
[ 6907 6896 6895 6894 ] final  -96.30 input  -60.11 | X-H torsion
[ 7974 7965 7964 7962 ] final   53.96 input  175.53 | X-H torsion
[ 8008 7997 7996 7995 ] final   -3.31 input   59.86 | X-H torsion
[ 10167 10162 10161 10158 ] final   14.82 input  -65.29 | X-H torsion
[ 10718 10713 10712 10709 ] final  -77.79 input   66.30 | X-H torsion
[ 10763 10752 10751 10750 ] final   92.96 input  -60.55 | X-H torsion
[ 11005 11000 10999 10996 ] final   21.69 input  -57.11 | X-H torsion

> <Gold.Protein.ActiveResidues>
 VAL166  LYS551  ARG553  GLY616  TRP617  ASP618  TYR619  PRO620  LYS621  CYS622 
 ASP623  PHE694  ASN695  SER759  ASP760  ASP761  ALA762  ILE779  LEU786  VAL792 
 PHE793  MET794  SER795  GLU796  ALA797  LYS798  CYS799  TRP800  GLU811  SER814 

> <Gold.Protein.RotatedAtoms>
  150.6985  134.1524  159.4145 H   0  0  0  0  0  0  0  0  0  0  0  0  # atno 6907 bound_to 6896
  151.9506  135.0168  160.0551 H   0  0  0  0  0  0  0  0  0  0  0  0  # atno 6908 bound_to 6896
  152.2014  133.4808  159.5097 H   0  0  0  0  0  0  0  0  0  0  0  0  # atno 6909 bound_to 6896
  145.9658  139.4102  143.0220 H   0  0  0  0  0  0  0  0  0  0  0  0  # atno 7974 bound_to 7965
  154.6263  140.2512  155.7488 H   0  0  0  0  0  0  0  0  0  0  0  0  # atno 8008 bound_to 7997
  156.2455  140.2916  156.0513 H   0  0  0  0  0  0  0  0  0  0  0  0  # atno 8009 bound_to 7997
  155.1817  140.0389  157.2873 H   0  0  0  0  0  0  0  0  0  0  0  0  # atno 8010 bound_to 7997
  140.5910  143.8796  150.6873 H   0  0  0  0  0  0  0  0  0  0  0  0  # atno 10167 bound_to 10162
  156.0135  130.4500  150.3398 H   0  0  0  0  0  0  0  0  0  0  0  0  # atno 10718 bound_to 10713
  153.2249  135.4343  155.0531 H   0  0  0  0  0  0  0  0  0  0  0  0  # atno 10763 bound_to 10752
  154.8268  135.3365  154.6872 H   0  0  0  0  0  0  0  0  0  0  0  0  # atno 10764 bound_to 10752
  153.7302  135.7011  153.5047 H   0  0  0  0  0  0  0  0  0  0  0  0  # atno 10765 bound_to 10752
  140.3888  134.1841  155.7663 H   0  0  0  0  0  0  0  0  0  0  0  0  # atno 11005 bound_to 11000
  145.7976  140.9786  143.1016 LP  0  0  0  0  0  0  0  0  0  0  0  0  # atno 17320 bound_to 7965
  144.6825  139.9760  143.7483 LP  0  0  0  0  0  0  0  0  0  0  0  0  # atno 17321 bound_to 7965
  140.2319  143.3729  152.1559 LP  0  0  0  0  0  0  0  0  0  0  0  0  # atno 17342 bound_to 10162
  139.5227  144.7062  151.5346 LP  0  0  0  0  0  0  0  0  0  0  0  0  # atno 17343 bound_to 10162
  157.1493  131.0317  151.2892 LP  0  0  0  0  0  0  0  0  0  0  0  0  # atno 17370 bound_to 10713
  157.4405  130.7541  149.7065 LP  0  0  0  0  0  0  0  0  0  0  0  0  # atno 17371 bound_to 10713
  141.1898  133.8231  157.0943 LP  0  0  0  0  0  0  0  0  0  0  0  0  # atno 17394 bound_to 11000
  140.0422  134.9848  157.0983 LP  0  0  0  0  0  0  0  0  0  0  0  0  # atno 17395 bound_to 11000

$$$$
