AV-unprocessed.smi:1285|AV-procd|sdf|5367|dock1
  -GOLD-   22720 4503D 1   1.00000     0.00000
 Structure written by MMmdl.
 46 47  0  0  0  0  0  0  0  0  1 V2000
  146.2905  138.3936  154.0448 C   0  0  0  0  0  0  0  0  0  0  0  0
  147.7753  138.3147  154.4448 C   0  0  0  0  0  0  0  0  0  0  0  0
  148.2571  139.3896  155.4709 C   0  0  1  0  0  0  0  0  0  0  0  0
  147.8331  140.7668  154.8930 C   0  0  0  0  0  0  0  0  0  0  0  0
  147.4972  139.1577  156.8179 C   0  0  0  0  0  0  0  0  0  0  0  0
  148.0029  138.0278  157.5978 N   0  0  0  0  0  0  0  0  0  0  0  0
  147.5456  137.6288  158.7958 C   0  0  0  0  0  0  0  0  0  0  0  0
  146.6227  138.1900  159.3873 O   0  0  0  0  0  0  0  0  0  0  0  0
  148.2377  136.4027  159.4099 C   0  0  2  0  0  0  0  0  0  0  0  0
  148.0811  135.1380  158.5407 C   0  0  0  0  0  0  0  0  0  0  0  0
  147.7790  136.1995  160.7787 N   0  0  0  0  0  0  0  0  0  0  0  0
  147.2871  135.1046  161.3631 C   0  0  0  0  0  0  0  0  0  0  0  0
  147.0126  135.2573  162.6509 N   0  0  0  0  0  0  0  0  0  0  0  0
  147.3977  136.5580  162.8130 C   0  0  0  0  0  0  0  0  0  0  0  0
  147.8754  137.1650  161.7269 N   0  0  0  0  0  0  0  0  0  0  0  0
  149.7362  139.3367  155.6476 N   0  0  0  0  0  0  0  0  0  0  0  0
  150.4969  138.9660  154.4481 C   0  0  0  0  0  0  0  0  0  0  0  0
  151.9958  138.7908  154.7468 C   0  0  0  0  0  0  0  0  0  0  0  0
  152.5140  139.9843  155.3217 O   0  0  0  0  0  0  0  0  0  0  0  0
  151.8393  140.3475  156.5200 C   0  0  0  0  0  0  0  0  0  0  0  0
  150.3411  140.5403  156.2309 C   0  0  0  0  0  0  0  0  0  0  0  0
  146.0505  137.6160  153.3198 H   0  0  0  0  0  0  0  0  0  0  0  0
  146.0421  139.3510  153.5869 H   0  0  0  0  0  0  0  0  0  0  0  0
  145.6321  138.2506  154.9011 H   0  0  0  0  0  0  0  0  0  0  0  0
  147.9490  137.3148  154.8440 H   0  0  0  0  0  0  0  0  0  0  0  0
  148.3844  138.3542  153.5418 H   0  0  0  0  0  0  0  0  0  0  0  0
  146.8080  140.7582  154.5219 H   0  0  0  0  0  0  0  0  0  0  0  0
  148.4712  141.0700  154.0624 H   0  0  0  0  0  0  0  0  0  0  0  0
  147.8809  141.5559  155.6440 H   0  0  0  0  0  0  0  0  0  0  0  0
  147.5928  140.0310  157.4626 H   0  0  0  0  0  0  0  0  0  0  0  0
  146.4273  139.0344  156.6495 H   0  0  0  0  0  0  0  0  0  0  0  0
  148.7626  137.5043  157.1879 H   0  0  0  0  0  0  0  0  0  0  0  0
  149.3056  136.6226  159.4624 H   0  0  0  0  0  0  0  0  0  0  0  0
  148.4708  135.3023  157.5354 H   0  0  0  0  0  0  0  0  0  0  0  0
  147.0390  134.8311  158.4431 H   0  0  0  0  0  0  0  0  0  0  0  0
  148.6320  134.3011  158.9709 H   0  0  0  0  0  0  0  0  0  0  0  0
  147.1308  134.1747  160.8360 H   0  0  0  0  0  0  0  0  0  0  0  0
  147.3304  137.0707  163.7612 H   0  0  0  0  0  0  0  0  0  0  0  0
  150.1318  138.0305  154.0278 H   0  0  0  0  0  0  0  0  0  0  0  0
  150.3822  139.7266  153.6762 H   0  0  0  0  0  0  0  0  0  0  0  0
  152.1594  137.9511  155.4242 H   0  0  0  0  0  0  0  0  0  0  0  0
  152.5412  138.5723  153.8286 H   0  0  0  0  0  0  0  0  0  0  0  0
  151.9901  139.5789  157.2795 H   0  0  0  0  0  0  0  0  0  0  0  0
  152.2724  141.2698  156.9074 H   0  0  0  0  0  0  0  0  0  0  0  0
  150.2234  141.3882  155.5559 H   0  0  0  0  0  0  0  0  0  0  0  0
  149.8537  140.8101  157.1659 H   0  0  0  0  0  0  0  0  0  0  0  0
  1  2  1  0  0  0  0
  1 22  1  0  0  0  0
  1 23  1  0  0  0  0
  1 24  1  0  0  0  0
  2  3  1  0  0  0  0
  2 25  1  0  0  0  0
  2 26  1  0  0  0  0
  3  4  1  0  0  0  0
  3  5  1  0  0  0  0
  3 16  1  0  0  0  0
  4 27  1  0  0  0  0
  4 28  1  0  0  0  0
  4 29  1  0  0  0  0
  5  6  1  0  0  0  0
  5 30  1  0  0  0  0
  5 31  1  0  0  0  0
  6  7  1  0  0  0  0
  6 32  1  0  0  0  0
  7  8  2  0  0  0  0
  7  9  1  0  0  0  0
  9 10  1  0  0  0  0
  9 11  1  0  0  0  0
  9 33  1  0  0  0  0
 10 34  1  0  0  0  0
 10 35  1  0  0  0  0
 10 36  1  0  0  0  0
 11 15  1  0  0  0  0
 11 12  1  0  0  0  0
 12 13  2  0  0  0  0
 12 37  1  0  0  0  0
 13 14  1  0  0  0  0
 14 15  2  0  0  0  0
 14 38  1  0  0  0  0
 16 21  1  0  0  0  0
 16 17  1  0  0  0  0
 17 18  1  0  0  0  0
 17 39  1  0  0  0  0
 17 40  1  0  0  0  0
 18 19  1  0  0  0  0
 18 41  1  0  0  0  0
 18 42  1  0  0  0  0
 19 20  1  0  0  0  0
 20 21  1  0  0  0  0
 20 43  1  0  0  0  0
 20 44  1  0  0  0  0
 21 45  1  0  0  0  0
 21 46  1  0  0  0  0
M  END
> <s_m_source_file>
AV-unprocessed.smi

> <i_m_source_file_index>
1285

> <i_lp_mmshare_version>
43012

> <i_f3d_flags>
0

> <s_epik_input>
W0NIMl0xW0NIMl1PW0NIMl1bQ0gyXU4xW0NAQF0oW0NIM10pKFtDSDJdW0NIM10pW0NIMl1bTkhdQyg9TylbQ0BIXShbQ0gzXSluMltjSF1uW2NIXW4y

> <s_epik_cmdline>
J2VwaWtfcHl0aG9uJywgJy1waCcsICc3LjAnLCAnLXRuJywgJzgnLCAnLW1hJywgJzIwMCcsICctbWV0YWxfYmluZGluZycsICctaW1hZScsICc8aW5maWxlLm1hZT4nLCAnLW9tYWUnLCAnPG91dGZpbGUubWFlPic=

> <r_lp_tautomer_probability>
1

> <r_epik_Ionization_Penalty>
0.285697

> <r_epik_Ionization_Penalty_Charging>
0

> <r_epik_Ionization_Penalty_Neutral>
0.285697

> <r_epik_State_Penalty>
0.278478

> <r_epik_Charging_Adjusted_Penalty>
0.278478

> <i_epik_Tot_Q>
0

> <i_epik_Tot_abs_Q>
0

> <r_epik_Metal_State_Penalty>
0.278477

> <b_epik_Metal_Only>
0

> <s_lp_Force_Field>
OPLS_2005

> <r_lp_Energy>
49.2775

> <b_lp_Chiralities_Consistent>
1

> <s_lp_Variant>
AV-unprocessed.smi:1285-1

> <Gold.Version>
5.8.1

> <Gold.Id.Protein>
6NUR|6NUR_protein|mol2

> <Gold.PLP.Fitness>
37.1553

> <Gold.PLP.PLP>
-30.7563

> <Gold.PLP.part.hbond>
-5.0000

> <Gold.PLP.part.metal>
0.0000

> <Gold.PLP.part.buried>
-4.3790

> <Gold.PLP.part.nonpolar>
-21.8116

> <Gold.PLP.part.repulsive>
0.0894

> <Gold.PLP.ligand.clash>
0.0000

> <Gold.PLP.ligand.torsion>
0.9449

> <Gold.PLP.Chemscore.Hbond>
2.6317

> <Gold.PLP.Chemscore.CHOScore>
0.0000

> <Gold.PLP.Chemscore.Metal>
0.0000

> <Gold.Chemscore.Hbonds>
donor molecule, donor type, donor heavy atom, donor atom, acceptor molecule, acceptor atom, score
      P1  H  6931  6943       L1    15  1.00
      P1  H  6934  6947       L1     8  0.62
      P1  H  7989  7998       L1    19  0.04
      P1  H  7997  8008       L1    19  1.00

> <Gold.PLP.Chemscore.Internal.Correction>
0.3937

> <Gold.Rescore>
     Score         DG    S(hbond)    S(metal)    S(lipo)     H(rot)  DE(clash)    DE(int)     intcor
     10.67     -12.83       2.51        0.00      49.70       2.68       0.20       1.95       ----

> <Gold.Chemscore.Fitness>
10.6746

> <Gold.Chemscore.DG>
-12.8288

> <Gold.Chemscore.ZeroCoef>
-5.4800

> <Gold.Chemscore.Hbond>
2.5149

> <Gold.Chemscore.Metal>
0.0000

> <Gold.Chemscore.Lipo>
49.7019

> <Gold.Chemscore.Internal_Hbond>
0.0000

> <Gold.Chemscore.DEClash>
0.2009

> <Gold.Chemscore.DEInternal>
1.9533

> <Gold.Chemscore.Rot>
2.6821

> <Gold.Chemscore.Internal.Correction>
   9.000000E+99

> <Gold.Chemscore.Hbonds>
donor molecule, donor type, donor heavy atom, donor atom, acceptor molecule, acceptor atom, score
      P1  H  6931  6943       L1    15  0.93
      P1  H  6934  6947       L1     8  0.53
      P1  H  7997  8008       L1    19  0.24

> <Gold.Chemscore.Hbond.Weighted>
-8.3999

> <Gold.Chemscore.Metal.Weighted>
-0.0000

> <Gold.Chemscore.Lipo.Weighted>
-5.8151

> <Gold.Chemscore.Internal_Hbond.Weighted>
0.0000

> <Gold.Chemscore.DEClash.Weighted>
0.2009

> <Gold.Chemscore.DEInternal.Weighted>
1.9533

> <Gold.Chemscore.Rot.Weighted>
6.8661

> <Gold.Chemscore.Internal.Correction.Weighted>
   9.000000E+99

> <Gold.Protein.RotatedTorsions>
[ 6907 6896 6895 6894 ] final  105.73 input  -60.11 | X-H torsion
[ 7974 7965 7964 7962 ] final  129.82 input  175.53 | X-H torsion
[ 8008 7997 7996 7995 ] final  -18.30 input   59.86 | X-H torsion
[ 10167 10162 10161 10158 ] final  159.47 input  -65.29 | X-H torsion
[ 10718 10713 10712 10709 ] final -161.62 input   66.30 | X-H torsion
[ 10763 10752 10751 10750 ] final -176.64 input  -60.55 | X-H torsion
[ 11005 11000 10999 10996 ] final -156.11 input  -57.11 | X-H torsion

> <Gold.Protein.ActiveResidues>
 VAL166  LYS551  ARG553  GLY616  TRP617  ASP618  TYR619  PRO620  LYS621  CYS622 
 ASP623  PHE694  ASN695  SER759  ASP760  ASP761  ALA762  ILE779  LEU786  VAL792 
 PHE793  MET794  SER795  GLU796  ALA797  LYS798  CYS799  TRP800  GLU811  SER814 

> <Gold.Protein.RotatedAtoms>
  152.5220  133.9485  159.7660 H   0  0  0  0  0  0  0  0  0  0  0  0  # atno 6907 bound_to 6896
  150.9800  133.6247  159.2731 H   0  0  0  0  0  0  0  0  0  0  0  0  # atno 6908 bound_to 6896
  151.3427  135.0873  159.9429 H   0  0  0  0  0  0  0  0  0  0  0  0  # atno 6909 bound_to 6896
  145.0245  139.4101  143.5180 H   0  0  0  0  0  0  0  0  0  0  0  0  # atno 7974 bound_to 7965
  154.4916  140.2119  155.9536 H   0  0  0  0  0  0  0  0  0  0  0  0  # atno 8008 bound_to 7997
  156.1313  140.3196  155.8322 H   0  0  0  0  0  0  0  0  0  0  0  0  # atno 8009 bound_to 7997
  155.4291  140.0502  157.3010 H   0  0  0  0  0  0  0  0  0  0  0  0  # atno 8010 bound_to 7997
  139.4833  144.4726  151.8555 H   0  0  0  0  0  0  0  0  0  0  0  0  # atno 10167 bound_to 10162
  156.5989  130.8802  151.2909 H   0  0  0  0  0  0  0  0  0  0  0  0  # atno 10718 bound_to 10713
  154.5699  135.2827  155.0837 H   0  0  0  0  0  0  0  0  0  0  0  0  # atno 10763 bound_to 10752
  154.2213  135.6390  153.5149 H   0  0  0  0  0  0  0  0  0  0  0  0  # atno 10764 bound_to 10752
  153.0054  135.5515  154.6319 H   0  0  0  0  0  0  0  0  0  0  0  0  # atno 10765 bound_to 10752
  140.6791  134.4164  157.5227 H   0  0  0  0  0  0  0  0  0  0  0  0  # atno 11005 bound_to 11000
  146.3490  139.9762  142.8701 LP  0  0  0  0  0  0  0  0  0  0  0  0  # atno 17320 bound_to 7965
  145.1851  140.9785  143.4243 LP  0  0  0  0  0  0  0  0  0  0  0  0  # atno 17321 bound_to 7965
  140.4196  144.2261  150.5887 LP  0  0  0  0  0  0  0  0  0  0  0  0  # atno 17342 bound_to 10162
  140.4886  143.2355  151.8851 LP  0  0  0  0  0  0  0  0  0  0  0  0  # atno 17343 bound_to 10162
  157.7285  130.9657  150.1744 LP  0  0  0  0  0  0  0  0  0  0  0  0  # atno 17370 bound_to 10713
  156.2486  130.3698  149.8257 LP  0  0  0  0  0  0  0  0  0  0  0  0  # atno 17371 bound_to 10713
  139.8957  134.8676  156.2119 LP  0  0  0  0  0  0  0  0  0  0  0  0  # atno 17394 bound_to 11000
  141.0332  133.6977  156.1466 LP  0  0  0  0  0  0  0  0  0  0  0  0  # atno 17395 bound_to 11000

$$$$
