AV-unprocessed.smi:3321|AV-procd|sdf|12772|dock2
  -GOLD-   2272019113D 1   1.00000     0.00000
 Structure written by MMmdl.
 40 41  0  0  0  0  0  0  0  0  1 V2000
  152.4835  138.3139  156.5593 C   0  0  0  0  0  0  0  0  0  0  0  0
  151.6246  139.5442  156.8921 C   0  0  1  0  0  0  0  0  0  0  0  0
  152.4734  140.5746  157.5180 N   0  0  0  0  0  0  0  0  0  0  0  0
  152.2993  140.6867  158.9636 C   0  0  0  0  0  0  0  0  0  0  0  0
  153.2597  141.7445  159.5330 C   0  0  0  0  0  0  0  0  0  0  0  0
  152.6513  143.0605  159.6177 N   0  0  0  0  0  0  0  0  0  0  0  0
  152.8676  144.1572  158.8101 C   0  0  0  0  0  0  0  0  0  0  0  0
  152.0773  145.1680  159.2774 C   0  0  0  0  0  0  0  0  0  0  0  0
  151.4040  144.5843  160.3868 C   0  0  0  0  0  0  0  0  0  0  0  0
  151.7484  143.3224  160.5872 N   0  0  0  0  0  0  0  0  0  0  0  0
  150.8928  140.0370  155.6213 C   0  0  0  0  0  0  0  0  0  0  0  0
  151.0953  139.4326  154.5661 O   0  0  0  0  0  0  0  0  0  0  0  0
  150.0545  141.1027  155.6849 N   0  0  0  0  0  0  0  0  0  0  0  0
  149.6902  141.7422  156.9568 C   0  0  0  0  0  0  0  0  0  0  0  0
  148.2160  141.4174  157.2638 C   0  0  0  0  0  0  0  0  0  0  0  0
  147.2978  141.8528  156.1048 C   0  0  0  0  0  0  0  0  0  0  0  0
  147.8140  141.3458  154.7438 C   0  0  0  0  0  0  0  0  0  0  0  0
  149.3034  141.6905  154.5669 C   0  0  0  0  0  0  0  0  0  0  0  0
  151.8870  137.5135  156.1202 H   0  0  0  0  0  0  0  0  0  0  0  0
  152.9539  137.9121  157.4574 H   0  0  0  0  0  0  0  0  0  0  0  0
  153.2770  138.5609  155.8526 H   0  0  0  0  0  0  0  0  0  0  0  0
  150.8939  139.2584  157.6475 H   0  0  0  0  0  0  0  0  0  0  0  0
  152.3457  141.4766  157.0814 H   0  0  0  0  0  0  0  0  0  0  0  0
  151.2755  140.9759  159.2006 H   0  0  0  0  0  0  0  0  0  0  0  0
  152.4781  139.7218  159.4406 H   0  0  0  0  0  0  0  0  0  0  0  0
  153.6094  141.4530  160.5243 H   0  0  0  0  0  0  0  0  0  0  0  0
  154.1459  141.8181  158.9012 H   0  0  0  0  0  0  0  0  0  0  0  0
  153.5609  144.1276  157.9827 H   0  0  0  0  0  0  0  0  0  0  0  0
  151.9941  146.1714  158.8872 H   0  0  0  0  0  0  0  0  0  0  0  0
  150.6802  145.0372  161.0483 H   0  0  0  0  0  0  0  0  0  0  0  0
  150.3185  141.4256  157.7900 H   0  0  0  0  0  0  0  0  0  0  0  0
  149.8298  142.8212  156.8767 H   0  0  0  0  0  0  0  0  0  0  0  0
  148.1087  140.3446  157.4298 H   0  0  0  0  0  0  0  0  0  0  0  0
  147.9077  141.9060  158.1884 H   0  0  0  0  0  0  0  0  0  0  0  0
  146.2798  141.5028  156.2772 H   0  0  0  0  0  0  0  0  0  0  0  0
  147.2488  142.9423  156.0820 H   0  0  0  0  0  0  0  0  0  0  0  0
  147.6792  140.2653  154.6776 H   0  0  0  0  0  0  0  0  0  0  0  0
  147.2273  141.7829  153.9355 H   0  0  0  0  0  0  0  0  0  0  0  0
  149.4333  142.7736  154.5820 H   0  0  0  0  0  0  0  0  0  0  0  0
  149.6546  141.3851  153.5836 H   0  0  0  0  0  0  0  0  0  0  0  0
  1  2  1  0  0  0  0
  1 19  1  0  0  0  0
  1 20  1  0  0  0  0
  1 21  1  0  0  0  0
  2  3  1  0  0  0  0
  2 11  1  0  0  0  0
  2 22  1  0  0  0  0
  3  4  1  0  0  0  0
  3 23  1  0  0  0  0
  4  5  1  0  0  0  0
  4 24  1  0  0  0  0
  4 25  1  0  0  0  0
  5  6  1  0  0  0  0
  5 26  1  0  0  0  0
  5 27  1  0  0  0  0
  6 10  1  0  0  0  0
  6  7  1  0  0  0  0
  7  8  2  0  0  0  0
  7 28  1  0  0  0  0
  8  9  1  0  0  0  0
  8 29  1  0  0  0  0
  9 10  2  0  0  0  0
  9 30  1  0  0  0  0
 11 12  2  0  0  0  0
 11 13  1  0  0  0  0
 13 18  1  0  0  0  0
 13 14  1  0  0  0  0
 14 15  1  0  0  0  0
 14 31  1  0  0  0  0
 14 32  1  0  0  0  0
 15 16  1  0  0  0  0
 15 33  1  0  0  0  0
 15 34  1  0  0  0  0
 16 17  1  0  0  0  0
 16 35  1  0  0  0  0
 16 36  1  0  0  0  0
 17 18  1  0  0  0  0
 17 37  1  0  0  0  0
 17 38  1  0  0  0  0
 18 39  1  0  0  0  0
 18 40  1  0  0  0  0
M  END
> <s_m_source_file>
AV-unprocessed.smi

> <i_m_source_file_index>
3321

> <i_lp_mmshare_version>
43012

> <i_f3d_flags>
0

> <s_epik_input>
W0NIMl0xW0NIMl1bQ0gyXVtDSDJdW0NIMl1OMUMoPU8pW0NASF0oW0NIM10pW05IXVtDSDJdW0NIMl1uMltjSF1bY0hdW2NIXW4y

> <s_epik_cmdline>
J2VwaWtfcHl0aG9uJywgJy1waCcsICc3LjAnLCAnLXRuJywgJzgnLCAnLW1hJywgJzIwMCcsICctbWV0YWxfYmluZGluZycsICctaW1hZScsICc8aW5maWxlLm1hZT4nLCAnLW9tYWUnLCAnPG91dGZpbGUubWFlPic=

> <r_lp_tautomer_probability>
1

> <r_epik_Ionization_Penalty>
0.736446

> <r_epik_Ionization_Penalty_Charging>
0

> <r_epik_Ionization_Penalty_Neutral>
0.736446

> <r_epik_State_Penalty>
0.761204

> <r_epik_Charging_Adjusted_Penalty>
0.761204

> <i_epik_Tot_Q>
0

> <i_epik_Tot_abs_Q>
0

> <r_epik_Metal_State_Penalty>
0.760551

> <b_epik_Metal_Only>
0

> <s_lp_Force_Field>
OPLS_2005

> <r_lp_Energy>
28.7251

> <b_lp_Chiralities_Consistent>
1

> <s_lp_Variant>
AV-unprocessed.smi:3321-4

> <Gold.Version>
5.8.1

> <Gold.Id.Protein>
6NUR|6NUR_protein|mol2

> <Gold.PLP.Fitness>
42.8650

> <Gold.PLP.PLP>
-40.3715

> <Gold.PLP.part.hbond>
-2.1694

> <Gold.PLP.part.metal>
0.0000

> <Gold.PLP.part.buried>
-1.9449

> <Gold.PLP.part.nonpolar>
-35.5392

> <Gold.PLP.part.repulsive>
0.1937

> <Gold.PLP.ligand.clash>
0.0000

> <Gold.PLP.ligand.torsion>
1.0617

> <Gold.PLP.Chemscore.Hbond>
1.5070

> <Gold.PLP.Chemscore.CHOScore>
0.0000

> <Gold.PLP.Chemscore.Metal>
0.0000

> <Gold.Chemscore.Hbonds>
donor molecule, donor type, donor heavy atom, donor atom, acceptor molecule, acceptor atom, score
      P1  H  7989  7998       L1    12  1.00
      P1  H  7997  8008       L1     3  0.58

> <Gold.PLP.Chemscore.Internal.Correction>
0.0959

> <Gold.Rescore>
     Score         DG    S(hbond)    S(metal)    S(lipo)     H(rot)  DE(clash)    DE(int)     intcor
     13.33     -14.43       0.94        0.00      87.37       1.73       0.05       1.06       ----

> <Gold.Chemscore.Fitness>
13.3294

> <Gold.Chemscore.DG>
-14.4338

> <Gold.Chemscore.ZeroCoef>
-5.4800

> <Gold.Chemscore.Hbond>
0.9445

> <Gold.Chemscore.Metal>
0.0000

> <Gold.Chemscore.Lipo>
87.3667

> <Gold.Chemscore.Internal_Hbond>
0.0000

> <Gold.Chemscore.DEClash>
0.0482

> <Gold.Chemscore.DEInternal>
1.0563

> <Gold.Chemscore.Rot>
1.7277

> <Gold.Chemscore.Internal.Correction>
   9.000000E+99

> <Gold.Chemscore.Hbonds>
donor molecule, donor type, donor heavy atom, donor atom, acceptor molecule, acceptor atom, score
      P1  H  7989  7998       L1    12  0.26
      P1  H  7997  8008       L1     3  0.06

> <Gold.Chemscore.Hbond.Weighted>
-3.1547

> <Gold.Chemscore.Metal.Weighted>
-0.0000

> <Gold.Chemscore.Lipo.Weighted>
-10.2219

> <Gold.Chemscore.Internal_Hbond.Weighted>
0.0000

> <Gold.Chemscore.DEClash.Weighted>
0.0482

> <Gold.Chemscore.DEInternal.Weighted>
1.0563

> <Gold.Chemscore.Rot.Weighted>
4.4228

> <Gold.Chemscore.Internal.Correction.Weighted>
   9.000000E+99

> <Gold.Protein.RotatedTorsions>
[ 6907 6896 6895 6894 ] final   -2.09 input  -60.11 | X-H torsion
[ 7974 7965 7964 7962 ] final  148.37 input  175.53 | X-H torsion
[ 8008 7997 7996 7995 ] final  -71.23 input   59.86 | X-H torsion
[ 10167 10162 10161 10158 ] final  -45.01 input  -65.29 | X-H torsion
[ 10718 10713 10712 10709 ] final   89.55 input   66.30 | X-H torsion
[ 10763 10752 10751 10750 ] final  -37.70 input  -60.55 | X-H torsion
[ 11005 11000 10999 10996 ] final -146.68 input  -57.11 | X-H torsion

> <Gold.Protein.ActiveResidues>
 VAL166  LYS551  ARG553  GLY616  TRP617  ASP618  TYR619  PRO620  LYS621  CYS622 
 ASP623  PHE694  ASN695  SER759  ASP760  ASP761  ALA762  ILE779  LEU786  VAL792 
 PHE793  MET794  SER795  GLU796  ALA797  LYS798  CYS799  TRP800  GLU811  SER814 

> <Gold.Protein.RotatedAtoms>
  151.5355  135.1068  159.9913 H   0  0  0  0  0  0  0  0  0  0  0  0  # atno 6907 bound_to 6896
  152.4559  133.7718  159.6813 H   0  0  0  0  0  0  0  0  0  0  0  0  # atno 6908 bound_to 6896
  150.8503  133.7732  159.3053 H   0  0  0  0  0  0  0  0  0  0  0  0  # atno 6909 bound_to 6896
  144.8519  139.6145  143.5970 H   0  0  0  0  0  0  0  0  0  0  0  0  # atno 7974 bound_to 7965
  154.5072  140.0819  156.7917 H   0  0  0  0  0  0  0  0  0  0  0  0  # atno 8008 bound_to 7997
  155.3868  140.3430  155.4231 H   0  0  0  0  0  0  0  0  0  0  0  0  # atno 8009 bound_to 7997
  156.1529  140.1564  156.8727 H   0  0  0  0  0  0  0  0  0  0  0  0  # atno 8010 bound_to 7997
  140.6874  143.2901  151.3578 H   0  0  0  0  0  0  0  0  0  0  0  0  # atno 10167 bound_to 10162
  157.6956  131.0337  150.3443 H   0  0  0  0  0  0  0  0  0  0  0  0  # atno 10718 bound_to 10713
  153.9007  135.6802  153.4755 H   0  0  0  0  0  0  0  0  0  0  0  0  # atno 10763 bound_to 10752
  153.1131  135.4774  154.9066 H   0  0  0  0  0  0  0  0  0  0  0  0  # atno 10764 bound_to 10752
  154.7577  135.3202  154.8393 H   0  0  0  0  0  0  0  0  0  0  0  0  # atno 10765 bound_to 10752
  140.7795  134.3096  157.5050 H   0  0  0  0  0  0  0  0  0  0  0  0  # atno 11005 bound_to 11000
  146.2792  139.6831  142.9241 LP  0  0  0  0  0  0  0  0  0  0  0  0  # atno 17320 bound_to 7965
  145.4483  141.0427  143.2819 LP  0  0  0  0  0  0  0  0  0  0  0  0  # atno 17321 bound_to 7965
  139.6246  144.0840  152.2422 LP  0  0  0  0  0  0  0  0  0  0  0  0  # atno 17342 bound_to 10162
  140.0295  144.6091  150.7499 LP  0  0  0  0  0  0  0  0  0  0  0  0  # atno 17343 bound_to 10162
  156.3900  130.3896  149.7037 LP  0  0  0  0  0  0  0  0  0  0  0  0  # atno 17370 bound_to 10713
  156.4390  130.7852  151.2873 LP  0  0  0  0  0  0  0  0  0  0  0  0  # atno 17371 bound_to 10713
  139.8744  134.9310  156.3516 LP  0  0  0  0  0  0  0  0  0  0  0  0  # atno 17394 bound_to 11000
  140.9496  133.7460  156.0254 LP  0  0  0  0  0  0  0  0  0  0  0  0  # atno 17395 bound_to 11000

$$$$
