AV-unprocessed.smi:1259|AV-procd|sdf|5292|dock9
  -GOLD-   22720 4413D 1   1.00000     0.00000
 Structure written by MMmdl.
 34 35  0  0  0  0  0  0  0  0  1 V2000
  147.0664  138.7114  152.3400 C   0  0  0  0  0  0  0  0  0  0  0  0
  147.2955  139.9515  153.1527 C   0  0  0  0  0  0  0  0  0  0  0  0
  148.3248  140.1974  154.1074 C   0  0  0  0  0  0  0  0  0  0  0  0
  148.0489  141.4702  154.5266 C   0  0  0  0  0  0  0  0  0  0  0  0
  148.7098  142.2325  155.4380 N   0  0  0  0  0  0  0  0  0  0  0  0
  149.4656  141.8356  156.4765 C   0  0  0  0  0  0  0  0  0  0  0  0
  149.7017  140.6666  156.7820 O   0  0  0  0  0  0  0  0  0  0  0  0
  149.9419  142.8891  157.1561 N   0  0  0  0  0  0  0  0  0  0  0  0
  150.7846  142.8184  158.3456 C   0  0  1  0  0  0  0  0  0  0  0  0
  151.9106  141.8071  158.0901 C   0  0  0  0  0  0  0  0  0  0  0  0
  151.3514  144.1647  158.7650 C   0  0  0  0  0  0  0  0  0  0  0  0
  152.7141  144.6149  158.2941 C   0  0  0  0  0  0  0  0  0  0  0  0
  152.4939  144.2666  159.7481 C   0  0  0  0  0  0  0  0  0  0  0  0
  146.9343  141.9269  153.8585 N   0  0  0  0  0  0  0  0  0  0  0  0
  146.2607  143.2074  153.9534 C   0  0  0  0  0  0  0  0  0  0  0  0
  146.4727  140.9843  153.0085 N   0  0  0  0  0  0  0  0  0  0  0  0
  147.7837  137.9324  152.5991 H   0  0  0  0  0  0  0  0  0  0  0  0
  147.1701  138.9165  151.2743 H   0  0  0  0  0  0  0  0  0  0  0  0
  146.0665  138.3105  152.5079 H   0  0  0  0  0  0  0  0  0  0  0  0
  149.1218  139.5374  154.4151 H   0  0  0  0  0  0  0  0  0  0  0  0
  148.6073  143.2295  155.3189 H   0  0  0  0  0  0  0  0  0  0  0  0
  149.6969  143.8127  156.8308 H   0  0  0  0  0  0  0  0  0  0  0  0
  150.1853  142.4319  159.1722 H   0  0  0  0  0  0  0  0  0  0  0  0
  152.5350  141.6828  158.9754 H   0  0  0  0  0  0  0  0  0  0  0  0
  152.5556  142.1284  157.2716 H   0  0  0  0  0  0  0  0  0  0  0  0
  151.5085  140.8264  157.8337 H   0  0  0  0  0  0  0  0  0  0  0  0
  150.5997  144.9496  158.8293 H   0  0  0  0  0  0  0  0  0  0  0  0
  153.2998  143.9199  157.6960 H   0  0  0  0  0  0  0  0  0  0  0  0
  152.8355  145.6661  158.0407 H   0  0  0  0  0  0  0  0  0  0  0  0
  152.4667  145.0850  160.4648 H   0  0  0  0  0  0  0  0  0  0  0  0
  152.9369  143.3421  160.1132 H   0  0  0  0  0  0  0  0  0  0  0  0
  146.8276  143.9592  153.4041 H   0  0  0  0  0  0  0  0  0  0  0  0
  146.1842  143.5095  154.9980 H   0  0  0  0  0  0  0  0  0  0  0  0
  145.2557  143.1421  153.5344 H   0  0  0  0  0  0  0  0  0  0  0  0
  1  2  1  0  0  0  0
  1 17  1  0  0  0  0
  1 18  1  0  0  0  0
  1 19  1  0  0  0  0
  2 16  2  0  0  0  0
  2  3  1  0  0  0  0
  3  4  2  0  0  0  0
  3 20  1  0  0  0  0
  4  5  1  0  0  0  0
  4 14  1  0  0  0  0
  5  6  1  0  0  0  0
  5 21  1  0  0  0  0
  6  7  2  0  0  0  0
  6  8  1  0  0  0  0
  8  9  1  0  0  0  0
  8 22  1  0  0  0  0
  9 10  1  0  0  0  0
  9 11  1  0  0  0  0
  9 23  1  0  0  0  0
 10 24  1  0  0  0  0
 10 25  1  0  0  0  0
 10 26  1  0  0  0  0
 11 13  1  0  0  0  0
 11 12  1  0  0  0  0
 11 27  1  0  0  0  0
 12 13  1  0  0  0  0
 12 28  1  0  0  0  0
 12 29  1  0  0  0  0
 13 30  1  0  0  0  0
 13 31  1  0  0  0  0
 14 15  1  0  0  0  0
 14 16  1  0  0  0  0
 15 32  1  0  0  0  0
 15 33  1  0  0  0  0
 15 34  1  0  0  0  0
M  END
> <s_m_source_file>
AV-unprocessed.smi

> <i_m_source_file_index>
1259

> <i_lp_mmshare_version>
43012

> <i_f3d_flags>
0

> <s_epik_input>
W0NIM11jMVtjSF1jKG4objEpW0NIM10pW05IXUMoPU8pW05IXVtDQEhdKFtDSDNdKVtDSF0yW0NIMl1bQ0gyXTI=

> <s_epik_cmdline>
J2VwaWtfcHl0aG9uJywgJy1waCcsICc3LjAnLCAnLXRuJywgJzgnLCAnLW1hJywgJzIwMCcsICctbWV0YWxfYmluZGluZycsICctaW1hZScsICc8aW5maWxlLm1hZT4nLCAnLW9tYWUnLCAnPG91dGZpbGUubWFlPic=

> <r_lp_tautomer_probability>
1

> <r_epik_Ionization_Penalty>
0.000100032

> <r_epik_Ionization_Penalty_Charging>
0

> <r_epik_Ionization_Penalty_Neutral>
0.000100032

> <r_epik_State_Penalty>
-0

> <r_epik_Charging_Adjusted_Penalty>
0

> <i_epik_Tot_Q>
0

> <i_epik_Tot_abs_Q>
0

> <r_epik_Metal_State_Penalty>
-0

> <b_epik_Metal_Only>
0

> <s_lp_Force_Field>
OPLS_2005

> <r_lp_Energy>
14.2964

> <b_lp_Chiralities_Consistent>
1

> <s_lp_Variant>
AV-unprocessed.smi:1259-2

> <Gold.Version>
5.8.1

> <Gold.Id.Protein>
6NUR|6NUR_protein|mol2

> <Gold.PLP.Fitness>
38.8729

> <Gold.PLP.PLP>
-33.5424

> <Gold.PLP.part.hbond>
-1.8948

> <Gold.PLP.part.metal>
0.0000

> <Gold.PLP.part.buried>
-0.7535

> <Gold.PLP.part.nonpolar>
-32.1541

> <Gold.PLP.part.repulsive>
2.1168

> <Gold.PLP.ligand.clash>
0.0000

> <Gold.PLP.ligand.torsion>
0.8051

> <Gold.PLP.Chemscore.Hbond>
1.9600

> <Gold.PLP.Chemscore.CHOScore>
0.0000

> <Gold.PLP.Chemscore.Metal>
0.0000

> <Gold.Chemscore.Hbonds>
donor molecule, donor type, donor heavy atom, donor atom, acceptor molecule, acceptor atom, score
      L1  H     5    21       P1  8028  1.00
      L1  H     8    22       P1  8028  0.94

> <Gold.PLP.Chemscore.Internal.Correction>
1.0607

> <Gold.Rescore>
     Score         DG    S(hbond)    S(metal)    S(lipo)     H(rot)  DE(clash)    DE(int)     intcor
     14.65     -18.85       1.91        0.00      86.02       1.20       1.32       2.88       ----

> <Gold.Chemscore.Fitness>
14.6532

> <Gold.Chemscore.DG>
-18.8549

> <Gold.Chemscore.ZeroCoef>
-5.4800

> <Gold.Chemscore.Hbond>
1.9101

> <Gold.Chemscore.Metal>
0.0000

> <Gold.Chemscore.Lipo>
86.0229

> <Gold.Chemscore.Internal_Hbond>
0.0000

> <Gold.Chemscore.DEClash>
1.3234

> <Gold.Chemscore.DEInternal>
2.8783

> <Gold.Chemscore.Rot>
1.1990

> <Gold.Chemscore.Internal.Correction>
   9.000000E+99

> <Gold.Chemscore.Hbonds>
donor molecule, donor type, donor heavy atom, donor atom, acceptor molecule, acceptor atom, score
      L1  H     5    21       P1  8028  0.93
      L1  H     8    22       P1  8028  0.89

> <Gold.Chemscore.Hbond.Weighted>
-6.3797

> <Gold.Chemscore.Metal.Weighted>
-0.0000

> <Gold.Chemscore.Lipo.Weighted>
-10.0647

> <Gold.Chemscore.Internal_Hbond.Weighted>
0.0000

> <Gold.Chemscore.DEClash.Weighted>
1.3234

> <Gold.Chemscore.DEInternal.Weighted>
2.8783

> <Gold.Chemscore.Rot.Weighted>
3.0695

> <Gold.Chemscore.Internal.Correction.Weighted>
   9.000000E+99

> <Gold.Protein.RotatedTorsions>
[ 6907 6896 6895 6894 ] final   18.07 input  -60.11 | X-H torsion
[ 7974 7965 7964 7962 ] final   33.07 input  175.53 | X-H torsion
[ 8008 7997 7996 7995 ] final  -27.52 input   59.86 | X-H torsion
[ 10167 10162 10161 10158 ] final    7.60 input  -65.29 | X-H torsion
[ 10718 10713 10712 10709 ] final   18.59 input   66.30 | X-H torsion
[ 10763 10752 10751 10750 ] final   29.89 input  -60.55 | X-H torsion
[ 11005 11000 10999 10996 ] final   50.26 input  -57.11 | X-H torsion

> <Gold.Protein.ActiveResidues>
 VAL166  LYS551  ARG553  GLY616  TRP617  ASP618  TYR619  PRO620  LYS621  CYS622 
 ASP623  PHE694  ASN695  SER759  ASP760  ASP761  ALA762  ILE779  LEU786  VAL792 
 PHE793  MET794  SER795  GLU796  ALA797  LYS798  CYS799  TRP800  GLU811  SER814 

> <Gold.Protein.RotatedAtoms>
  151.8595  135.0529  160.0467 H   0  0  0  0  0  0  0  0  0  0  0  0  # atno 6907 bound_to 6896
  152.2674  133.5347  159.5427 H   0  0  0  0  0  0  0  0  0  0  0  0  # atno 6908 bound_to 6896
  150.7139  134.0661  159.3890 H   0  0  0  0  0  0  0  0  0  0  0  0  # atno 6909 bound_to 6896
  146.1445  139.6444  142.9140 H   0  0  0  0  0  0  0  0  0  0  0  0  # atno 7974 bound_to 7965
  154.4373  140.1870  156.0945 H   0  0  0  0  0  0  0  0  0  0  0  0  # atno 8008 bound_to 7997
  156.0340  140.3327  155.7145 H   0  0  0  0  0  0  0  0  0  0  0  0  # atno 8009 bound_to 7997
  155.5797  140.0620  157.2777 H   0  0  0  0  0  0  0  0  0  0  0  0  # atno 8010 bound_to 7997
  140.6362  143.7880  150.7363 H   0  0  0  0  0  0  0  0  0  0  0  0  # atno 10167 bound_to 10162
  157.0985  130.6458  149.5866 H   0  0  0  0  0  0  0  0  0  0  0  0  # atno 10718 bound_to 10713
  153.0403  135.6478  154.0960 H   0  0  0  0  0  0  0  0  0  0  0  0  # atno 10763 bound_to 10752
  154.0668  135.2883  155.3317 H   0  0  0  0  0  0  0  0  0  0  0  0  # atno 10764 bound_to 10752
  154.6621  135.5387  153.8096 H   0  0  0  0  0  0  0  0  0  0  0  0  # atno 10765 bound_to 10752
  140.1033  134.5052  155.8743 H   0  0  0  0  0  0  0  0  0  0  0  0  # atno 11005 bound_to 11000
  145.4970  141.0438  143.2562 LP  0  0  0  0  0  0  0  0  0  0  0  0  # atno 17320 bound_to 7965
  144.7830  139.6485  143.7146 LP  0  0  0  0  0  0  0  0  0  0  0  0  # atno 17321 bound_to 7965
  140.1502  143.4364  152.2136 LP  0  0  0  0  0  0  0  0  0  0  0  0  # atno 17342 bound_to 10162
  139.5573  144.7381  151.4258 LP  0  0  0  0  0  0  0  0  0  0  0  0  # atno 17343 bound_to 10162
  155.9880  130.4921  150.7149 LP  0  0  0  0  0  0  0  0  0  0  0  0  # atno 17370 bound_to 10713
  157.4661  131.0888  151.0693 LP  0  0  0  0  0  0  0  0  0  0  0  0  # atno 17371 bound_to 10713
  141.2111  133.6703  156.6561 LP  0  0  0  0  0  0  0  0  0  0  0  0  # atno 17394 bound_to 11000
  140.3190  134.8023  157.4237 LP  0  0  0  0  0  0  0  0  0  0  0  0  # atno 17395 bound_to 11000

$$$$
