AV-unprocessed.smi:3085|AV-procd|sdf|11757|dock4
  -GOLD-   2272017143D 1   1.00000     0.00000
 Structure written by MMmdl.
 27 28  0  0  0  0  0  0  0  0  1 V2000
  152.1275  143.9308  161.6124 C   0  0  0  0  0  0  0  0  0  0  0  0
  152.4225  142.7266  160.7113 C   0  0  0  0  0  0  0  0  0  0  0  0
  151.7585  142.8407  159.3790 C   0  0  0  0  0  0  0  0  0  0  0  0
  151.8457  141.8663  158.4238 N   0  0  0  0  0  0  0  0  0  0  0  0
  151.1543  142.4345  157.4406 C   0  0  0  0  0  0  0  0  0  0  0  0
  150.8703  141.7971  156.1155 C   0  0  1  0  0  0  0  0  0  0  0  0
  151.4917  140.3913  155.9991 C   0  0  0  0  0  0  0  0  0  0  0  0
  151.1229  139.7777  154.7243 N   0  0  0  0  0  0  0  0  0  0  0  0
  149.6716  139.7535  154.5493 C   0  0  0  0  0  0  0  0  0  0  0  0
  149.0906  141.1700  154.7045 C   0  0  0  0  0  0  0  0  0  0  0  0
  149.4540  141.6986  155.9756 O   0  0  0  0  0  0  0  0  0  0  0  0
  150.6933  143.6422  157.7784 N   0  0  0  0  0  0  0  0  0  0  0  0
  151.0852  143.9376  159.0356 N   0  0  0  0  0  0  0  0  0  0  0  0
  150.1445  144.2698  157.2082 H   0  0  0  0  0  0  0  0  0  0  0  0
  152.6238  143.8244  162.5771 H   0  0  0  0  0  0  0  0  0  0  0  0
  151.0576  144.0304  161.7978 H   0  0  0  0  0  0  0  0  0  0  0  0
  152.4770  144.8578  161.1569 H   0  0  0  0  0  0  0  0  0  0  0  0
  153.4989  142.6304  160.5648 H   0  0  0  0  0  0  0  0  0  0  0  0
  152.0936  141.8084  161.1997 H   0  0  0  0  0  0  0  0  0  0  0  0
  151.2666  142.4492  155.3345 H   0  0  0  0  0  0  0  0  0  0  0  0
  152.5770  140.4513  156.0850 H   0  0  0  0  0  0  0  0  0  0  0  0
  151.1459  139.7662  156.8234 H   0  0  0  0  0  0  0  0  0  0  0  0
  151.4870  138.8310  154.6844 H   0  0  0  0  0  0  0  0  0  0  0  0
  149.4190  139.3494  153.5688 H   0  0  0  0  0  0  0  0  0  0  0  0
  149.2200  139.0900  155.2879 H   0  0  0  0  0  0  0  0  0  0  0  0
  149.4422  141.8270  153.9071 H   0  0  0  0  0  0  0  0  0  0  0  0
  148.0031  141.1386  154.6341 H   0  0  0  0  0  0  0  0  0  0  0  0
  1  2  1  0  0  0  0
  1 15  1  0  0  0  0
  1 16  1  0  0  0  0
  1 17  1  0  0  0  0
  2 18  1  0  0  0  0
  2 19  1  0  0  0  0
  2  3  1  0  0  0  0
  3  4  1  0  0  0  0
  3 13  2  0  0  0  0
  4  5  2  0  0  0  0
  5  6  1  0  0  0  0
  5 12  1  0  0  0  0
  6 11  1  0  0  0  0
  6  7  1  0  0  0  0
  6 20  1  0  0  0  0
  7  8  1  0  0  0  0
  7 21  1  0  0  0  0
  7 22  1  0  0  0  0
  8  9  1  0  0  0  0
  8 23  1  0  0  0  0
  9 10  1  0  0  0  0
  9 24  1  0  0  0  0
  9 25  1  0  0  0  0
 10 11  1  0  0  0  0
 10 26  1  0  0  0  0
 10 27  1  0  0  0  0
 12 13  1  0  0  0  0
 12 14  1  0  0  0  0
M  END
> <s_m_source_file>
AV-unprocessed.smi

> <i_m_source_file_index>
3085

> <i_lp_mmshare_version>
43012

> <i_f3d_flags>
0

> <s_epik_input>
W0NIM11bQ0gyXWMxbmMobltuSF0xKVtDQEBIXTJbQ0gyXVtOSF1bQ0gyXVtDSDJdTzI=

> <s_epik_cmdline>
J2VwaWtfcHl0aG9uJywgJy1waCcsICc3LjAnLCAnLXRuJywgJzgnLCAnLW1hJywgJzIwMCcsICctbWV0YWxfYmluZGluZycsICctaW1hZScsICc8aW5maWxlLm1hZT4nLCAnLW9tYWUnLCAnPG91dGZpbGUubWFlPic=

> <r_epik_Ionization_Penalty>
0.98256

> <r_epik_Ionization_Penalty_Charging>
0

> <r_epik_Ionization_Penalty_Neutral>
0.98256

> <r_epik_State_Penalty>
1.54989

> <r_epik_Charging_Adjusted_Penalty>
1.54989

> <i_epik_Tot_Q>
0

> <i_epik_Tot_abs_Q>
0

> <r_epik_Metal_State_Penalty>
1.76981

> <b_epik_Metal_Only>
0

> <s_lp_Force_Field>
OPLS_2005

> <r_lp_Energy>
9.32891

> <b_lp_Chiralities_Consistent>
1

> <s_lp_Variant>
AV-unprocessed.smi:3085-8

> <Gold.Version>
5.8.1

> <Gold.Id.Protein>
6NUR|6NUR_protein|mol2

> <Gold.PLP.Fitness>
34.9427

> <Gold.PLP.PLP>
-28.9674

> <Gold.PLP.part.hbond>
-2.0000

> <Gold.PLP.part.metal>
0.0000

> <Gold.PLP.part.buried>
-5.3119

> <Gold.PLP.part.nonpolar>
-21.7145

> <Gold.PLP.part.repulsive>
0.4884

> <Gold.PLP.ligand.clash>
0.0000

> <Gold.PLP.ligand.torsion>
0.0168

> <Gold.PLP.Chemscore.Hbond>
2.0000

> <Gold.PLP.Chemscore.CHOScore>
0.0000

> <Gold.PLP.Chemscore.Metal>
0.0000

> <Gold.Chemscore.Hbonds>
donor molecule, donor type, donor heavy atom, donor atom, acceptor molecule, acceptor atom, score
      L1  H    12    14       P1  8028  1.00
      P1  H  7989  7998       L1     8  1.00

> <Gold.PLP.Chemscore.Internal.Correction>
0.0090

> <Gold.Rescore>
     Score         DG    S(hbond)    S(metal)    S(lipo)     H(rot)  DE(clash)    DE(int)     intcor
     11.80     -11.83       1.02        0.00      53.13       1.28       0.01       0.02       ----

> <Gold.Chemscore.Fitness>
11.8005

> <Gold.Chemscore.DG>
-11.8295

> <Gold.Chemscore.ZeroCoef>
-5.4800

> <Gold.Chemscore.Hbond>
1.0220

> <Gold.Chemscore.Metal>
0.0000

> <Gold.Chemscore.Lipo>
53.1330

> <Gold.Chemscore.Internal_Hbond>
0.0000

> <Gold.Chemscore.DEClash>
0.0126

> <Gold.Chemscore.DEInternal>
0.0164

> <Gold.Chemscore.Rot>
1.2815

> <Gold.Chemscore.Internal.Correction>
   9.000000E+99

> <Gold.Chemscore.Hbonds>
donor molecule, donor type, donor heavy atom, donor atom, acceptor molecule, acceptor atom, score
      L1  H    12    14       P1  8028  0.69
      P1  H  7989  7998       L1     8  0.21

> <Gold.Chemscore.Hbond.Weighted>
-3.4135

> <Gold.Chemscore.Metal.Weighted>
-0.0000

> <Gold.Chemscore.Lipo.Weighted>
-6.2166

> <Gold.Chemscore.Internal_Hbond.Weighted>
0.0000

> <Gold.Chemscore.DEClash.Weighted>
0.0126

> <Gold.Chemscore.DEInternal.Weighted>
0.0164

> <Gold.Chemscore.Rot.Weighted>
3.2805

> <Gold.Chemscore.Internal.Correction.Weighted>
   9.000000E+99

> <Gold.Protein.RotatedTorsions>
[ 6907 6896 6895 6894 ] final -116.18 input  -60.11 | X-H torsion
[ 7974 7965 7964 7962 ] final  -92.65 input  175.53 | X-H torsion
[ 8008 7997 7996 7995 ] final -149.20 input   59.86 | X-H torsion
[ 10167 10162 10161 10158 ] final  -83.91 input  -65.29 | X-H torsion
[ 10718 10713 10712 10709 ] final  175.82 input   66.30 | X-H torsion
[ 10763 10752 10751 10750 ] final -142.62 input  -60.55 | X-H torsion
[ 11005 11000 10999 10996 ] final   17.13 input  -57.11 | X-H torsion

> <Gold.Protein.ActiveResidues>
 VAL166  LYS551  ARG553  GLY616  TRP617  ASP618  TYR619  PRO620  LYS621  CYS622 
 ASP623  PHE694  ASN695  SER759  ASP760  ASP761  ALA762  ILE779  LEU786  VAL792 
 PHE793  MET794  SER795  GLU796  ALA797  LYS798  CYS799  TRP800  GLU811  SER814 

> <Gold.Protein.RotatedAtoms>
  150.8035  133.8554  159.3216 H   0  0  0  0  0  0  0  0  0  0  0  0  # atno 6907 bound_to 6896
  151.6359  135.1016  160.0141 H   0  0  0  0  0  0  0  0  0  0  0  0  # atno 6908 bound_to 6896
  152.4124  133.6945  159.6445 H   0  0  0  0  0  0  0  0  0  0  0  0  # atno 6909 bound_to 6896
  145.3970  140.9534  143.2308 H   0  0  0  0  0  0  0  0  0  0  0  0  # atno 7974 bound_to 7965
  155.6037  140.0664  157.2725 H   0  0  0  0  0  0  0  0  0  0  0  0  # atno 8008 bound_to 7997
  154.4272  140.1813  156.1248 H   0  0  0  0  0  0  0  0  0  0  0  0  # atno 8009 bound_to 7997
  156.0139  140.3324  155.6972 H   0  0  0  0  0  0  0  0  0  0  0  0  # atno 8010 bound_to 7997
  140.4182  143.2595  151.8926 H   0  0  0  0  0  0  0  0  0  0  0  0  # atno 10167 bound_to 10162
  156.9293  130.9966  151.2990 H   0  0  0  0  0  0  0  0  0  0  0  0  # atno 10718 bound_to 10713
  154.8502  135.3491  154.6057 H   0  0  0  0  0  0  0  0  0  0  0  0  # atno 10763 bound_to 10752
  153.6665  135.6987  153.5165 H   0  0  0  0  0  0  0  0  0  0  0  0  # atno 10764 bound_to 10752
  153.2776  135.4273  155.1005 H   0  0  0  0  0  0  0  0  0  0  0  0  # atno 10765 bound_to 10752
  140.4393  134.1338  155.7689 H   0  0  0  0  0  0  0  0  0  0  0  0  # atno 11005 bound_to 11000
  144.8400  139.5487  143.6904 LP  0  0  0  0  0  0  0  0  0  0  0  0  # atno 17320 bound_to 7965
  146.2770  139.6779  142.9256 LP  0  0  0  0  0  0  0  0  0  0  0  0  # atno 17321 bound_to 7965
  139.4782  144.5465  151.8450 LP  0  0  0  0  0  0  0  0  0  0  0  0  # atno 17342 bound_to 10162
  140.4563  144.1785  150.5902 LP  0  0  0  0  0  0  0  0  0  0  0  0  # atno 17343 bound_to 10162
  157.5857  130.8408  149.8586 LP  0  0  0  0  0  0  0  0  0  0  0  0  # atno 17370 bound_to 10713
  156.0455  130.3729  150.1329 LP  0  0  0  0  0  0  0  0  0  0  0  0  # atno 17371 bound_to 10713
  141.1712  133.8605  157.1564 LP  0  0  0  0  0  0  0  0  0  0  0  0  # atno 17394 bound_to 11000
  140.0080  135.0000  157.0335 LP  0  0  0  0  0  0  0  0  0  0  0  0  # atno 17395 bound_to 11000

$$$$
