AV-unprocessed.smi:2471|AV-procd|sdf|9739|dock5
  -GOLD-   2272013383D 1   1.00000     0.00000
 Structure written by MMmdl.
 40 41  0  0  0  0  0  0  0  0  1 V2000
  145.7355  131.8560  149.5608 C   0  0  0  0  0  0  0  0  0  0  0  0
  145.1772  132.9228  150.4794 C   0  0  0  0  0  0  0  0  0  0  0  0
  143.8628  132.8341  150.9787 C   0  0  0  0  0  0  0  0  0  0  0  0
  143.4077  133.8551  151.8321 C   0  0  0  0  0  0  0  0  0  0  0  0
  144.2790  134.9152  152.1484 C   0  0  0  0  0  0  0  0  0  0  0  0
  145.5824  134.9304  151.6028 C   0  0  0  0  0  0  0  0  0  0  0  0
  146.3791  136.0430  151.9817 N   0  0  0  0  0  0  0  0  0  0  0  0
  145.9724  137.2522  152.4064 C   0  0  0  0  0  0  0  0  0  0  0  0
  144.8001  137.6033  152.5441 O   0  0  0  0  0  0  0  0  0  0  0  0
  147.0182  138.0494  152.6677 N   0  0  0  0  0  0  0  0  0  0  0  0
  146.9282  139.4255  153.1460 C   0  0  0  0  0  0  0  0  0  0  0  0
  147.8775  139.7118  154.3326 C   0  0  2  0  0  0  0  0  0  0  0  0
  148.4336  141.1544  154.3328 C   0  0  0  0  0  0  0  0  0  0  0  0
  149.3344  141.4120  155.5516 C   0  0  0  0  0  0  0  0  0  0  0  0
  150.4792  140.3913  155.6313 C   0  0  0  0  0  0  0  0  0  0  0  0
  149.9427  138.9493  155.6289 C   0  0  0  0  0  0  0  0  0  0  0  0
  149.0232  138.6742  154.4231 C   0  0  2  0  0  0  0  0  0  0  0  0
  149.8000  138.6666  153.2398 O   0  0  0  0  0  0  0  0  0  0  0  0
  146.0126  133.9399  150.7820 N   0  0  0  0  0  0  0  0  0  0  0  0
  144.9621  131.1487  149.2607 H   0  0  0  0  0  0  0  0  0  0  0  0
  146.5278  131.3015  150.0644 H   0  0  0  0  0  0  0  0  0  0  0  0
  146.1509  132.3072  148.6592 H   0  0  0  0  0  0  0  0  0  0  0  0
  143.2190  132.0071  150.7172 H   0  0  0  0  0  0  0  0  0  0  0  0
  142.4074  133.8271  152.2382 H   0  0  0  0  0  0  0  0  0  0  0  0
  143.9448  135.7074  152.8025 H   0  0  0  0  0  0  0  0  0  0  0  0
  147.3766  135.9001  151.9259 H   0  0  0  0  0  0  0  0  0  0  0  0
  147.9465  137.6787  152.5264 H   0  0  0  0  0  0  0  0  0  0  0  0
  147.1351  140.1108  152.3222 H   0  0  0  0  0  0  0  0  0  0  0  0
  145.8937  139.6043  153.4395 H   0  0  0  0  0  0  0  0  0  0  0  0
  147.2895  139.5997  155.2449 H   0  0  0  0  0  0  0  0  0  0  0  0
  148.9944  141.3374  153.4154 H   0  0  0  0  0  0  0  0  0  0  0  0
  147.6168  141.8764  154.3410 H   0  0  0  0  0  0  0  0  0  0  0  0
  149.7408  142.4228  155.5051 H   0  0  0  0  0  0  0  0  0  0  0  0
  148.7371  141.3615  156.4629 H   0  0  0  0  0  0  0  0  0  0  0  0
  151.1568  140.5353  154.7889 H   0  0  0  0  0  0  0  0  0  0  0  0
  151.0689  140.5651  156.5317 H   0  0  0  0  0  0  0  0  0  0  0  0
  150.7716  138.2405  155.6425 H   0  0  0  0  0  0  0  0  0  0  0  0
  149.3829  138.7782  156.5494 H   0  0  0  0  0  0  0  0  0  0  0  0
  148.5951  137.6768  154.5300 H   0  0  0  0  0  0  0  0  0  0  0  0
  149.7380  137.8089  152.8478 H   0  0  0  0  0  0  0  0  0  0  0  0
  1  2  1  0  0  0  0
  1 20  1  0  0  0  0
  1 21  1  0  0  0  0
  1 22  1  0  0  0  0
  2 19  1  0  0  0  0
  2  3  2  0  0  0  0
  3  4  1  0  0  0  0
  3 23  1  0  0  0  0
  4  5  2  0  0  0  0
  4 24  1  0  0  0  0
  5  6  1  0  0  0  0
  5 25  1  0  0  0  0
  6  7  1  0  0  0  0
  6 19  2  0  0  0  0
  7  8  1  0  0  0  0
  7 26  1  0  0  0  0
  8  9  2  0  0  0  0
  8 10  1  0  0  0  0
 10 11  1  0  0  0  0
 10 27  1  0  0  0  0
 11 12  1  0  0  0  0
 11 28  1  0  0  0  0
 11 29  1  0  0  0  0
 12 17  1  0  0  0  0
 12 13  1  0  0  0  0
 12 30  1  0  0  0  0
 13 14  1  0  0  0  0
 13 31  1  0  0  0  0
 13 32  1  0  0  0  0
 14 15  1  0  0  0  0
 14 33  1  0  0  0  0
 14 34  1  0  0  0  0
 15 16  1  0  0  0  0
 15 35  1  0  0  0  0
 15 36  1  0  0  0  0
 16 17  1  0  0  0  0
 16 37  1  0  0  0  0
 16 38  1  0  0  0  0
 17 18  1  0  0  0  0
 17 39  1  0  0  0  0
 18 40  1  0  0  0  0
M  END
> <s_m_source_file>
AV-unprocessed.smi

> <i_m_source_file_index>
2471

> <i_lp_mmshare_version>
43012

> <i_f3d_flags>
0

> <s_epik_input>
W0NIM11jMVtjSF1bY0hdW2NIXWMobjEpW05IXUMoPU8pW05IXVtDSDJdW0NAQEhdMltDSDJdW0NIMl1bQ0gyXVtDSDJdW0NASF0yW09IXQ==

> <s_epik_cmdline>
J2VwaWtfcHl0aG9uJywgJy1waCcsICc3LjAnLCAnLXRuJywgJzgnLCAnLW1hJywgJzIwMCcsICctbWV0YWxfYmluZGluZycsICctaW1hZScsICc8aW5maWxlLm1hZT4nLCAnLW9tYWUnLCAnPG91dGZpbGUubWFlPic=

> <r_lp_tautomer_probability>
1

> <r_epik_Ionization_Penalty>
8.52237e-05

> <r_epik_Ionization_Penalty_Charging>
0

> <r_epik_Ionization_Penalty_Neutral>
8.52237e-05

> <r_epik_State_Penalty>
-0

> <r_epik_Charging_Adjusted_Penalty>
0

> <i_epik_Tot_Q>
0

> <i_epik_Tot_abs_Q>
0

> <r_epik_Metal_State_Penalty>
-0

> <b_epik_Metal_Only>
0

> <s_lp_Force_Field>
OPLS_2005

> <r_lp_Energy>
16.1084

> <b_lp_Chiralities_Consistent>
1

> <s_lp_Variant>
AV-unprocessed.smi:2471-3

> <Gold.Version>
5.8.1

> <Gold.Id.Protein>
6NUR|6NUR_protein|mol2

> <Gold.PLP.Fitness>
41.6873

> <Gold.PLP.PLP>
-34.7604

> <Gold.PLP.part.hbond>
-3.7105

> <Gold.PLP.part.metal>
0.0000

> <Gold.PLP.part.buried>
-6.0780

> <Gold.PLP.part.nonpolar>
-26.7383

> <Gold.PLP.part.repulsive>
1.0523

> <Gold.PLP.ligand.clash>
0.4664

> <Gold.PLP.ligand.torsion>
0.7012

> <Gold.PLP.Chemscore.Hbond>
2.9280

> <Gold.PLP.Chemscore.CHOScore>
0.0000

> <Gold.PLP.Chemscore.Metal>
0.0000

> <Gold.Chemscore.Hbonds>
donor molecule, donor type, donor heavy atom, donor atom, acceptor molecule, acceptor atom, score
      L1  H     7    26       P1  7948  1.00
      L1  H    10    27       P1  7948  0.91
      L1  H    18    40       P1  7948  1.00

> <Gold.PLP.Chemscore.Internal.Correction>
0.0117

> <Gold.Rescore>
     Score         DG    S(hbond)    S(metal)    S(lipo)     H(rot)  DE(clash)    DE(int)     intcor
     16.23     -19.65       2.87        0.00      77.07       1.73       0.03       3.38       ----

> <Gold.Chemscore.Fitness>
16.2341

> <Gold.Chemscore.DG>
-19.6478

> <Gold.Chemscore.ZeroCoef>
-5.4800

> <Gold.Chemscore.Hbond>
2.8711

> <Gold.Chemscore.Metal>
0.0000

> <Gold.Chemscore.Lipo>
77.0695

> <Gold.Chemscore.Internal_Hbond>
0.0000

> <Gold.Chemscore.DEClash>
0.0331

> <Gold.Chemscore.DEInternal>
3.3806

> <Gold.Chemscore.Rot>
1.7339

> <Gold.Chemscore.Internal.Correction>
   9.000000E+99

> <Gold.Chemscore.Hbonds>
donor molecule, donor type, donor heavy atom, donor atom, acceptor molecule, acceptor atom, score
      L1  H     7    26       P1  7948  0.98
      L1  H    10    27       P1  7948  0.90
      L1  H    18    40       P1  7948  0.49

> <Gold.Chemscore.Hbond.Weighted>
-9.5893

> <Gold.Chemscore.Metal.Weighted>
-0.0000

> <Gold.Chemscore.Lipo.Weighted>
-9.0171

> <Gold.Chemscore.Internal_Hbond.Weighted>
0.0000

> <Gold.Chemscore.DEClash.Weighted>
0.0331

> <Gold.Chemscore.DEInternal.Weighted>
3.3806

> <Gold.Chemscore.Rot.Weighted>
4.4387

> <Gold.Chemscore.Internal.Correction.Weighted>
   9.000000E+99

> <Gold.Protein.RotatedTorsions>
[ 6907 6896 6895 6894 ] final  -38.37 input  -60.11 | X-H torsion
[ 7974 7965 7964 7962 ] final -162.63 input  175.53 | X-H torsion
[ 8008 7997 7996 7995 ] final  -12.76 input   59.86 | X-H torsion
[ 10167 10162 10161 10158 ] final  -68.81 input  -65.29 | X-H torsion
[ 10718 10713 10712 10709 ] final  154.90 input   66.30 | X-H torsion
[ 10763 10752 10751 10750 ] final  -90.64 input  -60.55 | X-H torsion
[ 11005 11000 10999 10996 ] final  -73.58 input  -57.11 | X-H torsion

> <Gold.Protein.ActiveResidues>
 VAL166  LYS551  ARG553  GLY616  TRP617  ASP618  TYR619  PRO620  LYS621  CYS622 
 ASP623  PHE694  ASN695  SER759  ASP760  ASP761  ALA762  ILE779  LEU786  VAL792 
 PHE793  MET794  SER795  GLU796  ALA797  LYS798  CYS799  TRP800  GLU811  SER814 

> <Gold.Protein.RotatedAtoms>
  151.0032  134.9339  159.7965 H   0  0  0  0  0  0  0  0  0  0  0  0  # atno 6907 bound_to 6896
  152.5283  134.3126  159.9129 H   0  0  0  0  0  0  0  0  0  0  0  0  # atno 6908 bound_to 6896
  151.3131  133.4030  159.2683 H   0  0  0  0  0  0  0  0  0  0  0  0  # atno 6909 bound_to 6896
  144.7351  140.3225  143.6168 H   0  0  0  0  0  0  0  0  0  0  0  0  # atno 7974 bound_to 7965
  154.5349  140.2267  155.8739 H   0  0  0  0  0  0  0  0  0  0  0  0  # atno 8008 bound_to 7997
  156.1801  140.3102  155.9096 H   0  0  0  0  0  0  0  0  0  0  0  0  # atno 8009 bound_to 7997
  155.3375  140.0448  157.3035 H   0  0  0  0  0  0  0  0  0  0  0  0  # atno 8010 bound_to 7997
  140.5479  143.2312  151.6967 H   0  0  0  0  0  0  0  0  0  0  0  0  # atno 10167 bound_to 10162
  157.2255  131.0728  151.1886 H   0  0  0  0  0  0  0  0  0  0  0  0  # atno 10718 bound_to 10713
  154.6679  135.5297  153.8100 H   0  0  0  0  0  0  0  0  0  0  0  0  # atno 10763 bound_to 10752
  153.0482  135.6521  154.0771 H   0  0  0  0  0  0  0  0  0  0  0  0  # atno 10764 bound_to 10752
  154.0673  135.2957  155.3294 H   0  0  0  0  0  0  0  0  0  0  0  0  # atno 10765 bound_to 10752
  141.1624  133.6883  156.7234 H   0  0  0  0  0  0  0  0  0  0  0  0  # atno 11005 bound_to 11000
  145.7554  139.1807  143.2297 LP  0  0  0  0  0  0  0  0  0  0  0  0  # atno 17320 bound_to 7965
  146.1028  140.7523  142.9541 LP  0  0  0  0  0  0  0  0  0  0  0  0  # atno 17321 bound_to 7965
  139.5015  144.3865  152.0323 LP  0  0  0  0  0  0  0  0  0  0  0  0  # atno 17342 bound_to 10162
  140.2980  144.3679  150.6068 LP  0  0  0  0  0  0  0  0  0  0  0  0  # atno 17343 bound_to 10162
  157.3532  130.7093  149.6454 LP  0  0  0  0  0  0  0  0  0  0  0  0  # atno 17370 bound_to 10713
  155.9679  130.4246  150.4618 LP  0  0  0  0  0  0  0  0  0  0  0  0  # atno 17371 bound_to 10713
  140.2799  134.8325  157.3924 LP  0  0  0  0  0  0  0  0  0  0  0  0  # atno 17394 bound_to 11000
  140.1443  134.4932  155.8008 LP  0  0  0  0  0  0  0  0  0  0  0  0  # atno 17395 bound_to 11000

$$$$
