AV-unprocessed.smi:290|AV-procd|sdf|2229|dock8
  -GOLD-   2262022 83D 1   1.00000     0.00000
 Structure written by MMmdl.
 59 62  0  0  0  0  0  0  0  0  2 V2000
  148.3748  140.6044  157.4977 C   0  0  0  0  0  0  0  0  0  0  0  0
  149.7958  141.1049  157.8109 C   0  0  2  0  0  0  0  0  0  0  0  0
  149.7464  142.1618  158.7682 O   0  0  0  0  0  0  0  0  0  0  0  0
  150.3250  143.3384  158.2250 C   0  0  0  0  0  0  0  0  0  0  0  0
  151.3493  142.8189  157.2253 C   0  0  0  0  0  0  0  0  0  0  0  0
  150.6371  141.6208  156.6152 C   0  0  2  0  0  0  0  0  0  0  0  0
  149.8017  142.0927  155.5696 O   0  0  0  0  0  0  0  0  0  0  0  0
  151.6222  140.5837  156.0241 C   0  0  0  0  0  0  0  0  0  0  0  0
  150.9944  139.3140  155.6929 N   0  0  0  0  0  0  0  0  0  0  0  0
  150.7943  138.7962  154.4334 C   0  0  0  0  0  0  0  0  0  0  0  0
  150.1950  137.6377  154.3970 N   0  0  0  0  0  0  0  0  0  0  0  0
  149.9670  137.3288  155.7331 C   0  0  0  0  0  0  0  0  0  0  0  0
  149.3610  136.2307  156.4090 C   0  0  0  0  0  0  0  0  0  0  0  0
  148.8147  135.1708  155.7556 N   0  0  0  0  0  0  0  0  0  0  0  0
  149.7346  134.1314  155.2984 C   0  0  0  0  0  0  0  0  0  0  0  0
  149.1885  133.6217  153.9606 C   0  0  0  0  0  0  0  0  0  0  0  0
  147.7072  134.0086  154.0262 C   0  0  2  0  0  0  0  0  0  0  0  0
  146.9874  134.0523  152.7212 N   0  3  2  0  0  0  0  0  0  0  0  0
  145.5470  134.3570  152.8926 C   0  0  0  0  0  0  0  0  0  0  0  0
  147.2243  132.8954  151.8149 C   0  0  0  0  0  0  0  0  0  0  0  0
  146.6894  131.5843  152.4121 C   0  0  0  0  0  0  0  0  0  0  0  0
  146.9773  130.5064  151.5463 O   0  0  0  0  0  0  0  0  0  0  0  0
  147.7313  135.3412  154.7878 C   0  0  1  0  0  0  0  0  0  0  0  0
  146.3854  135.6728  155.4573 C   0  0  0  0  0  0  0  0  0  0  0  0
  149.3358  136.2746  157.7677 N   0  0  0  0  0  0  0  0  0  0  0  0
  149.8587  137.3152  158.4225 C   0  0  0  0  0  0  0  0  0  0  0  0
  150.4453  138.4040  157.9239 N   0  0  0  0  0  0  0  0  0  0  0  0
  150.4779  138.3682  156.5614 C   0  0  0  0  0  0  0  0  0  0  0  0
  147.2045  133.2811  154.6670 H   0  0  0  0  0  0  0  0  0  0  0  0
  148.0022  136.1538  154.1152 H   0  0  0  0  0  0  0  0  0  0  0  0
  148.3894  139.7974  156.7655 H   0  0  0  0  0  0  0  0  0  0  0  0
  147.7450  141.4037  157.1065 H   0  0  0  0  0  0  0  0  0  0  0  0
  147.8944  140.2226  158.3984 H   0  0  0  0  0  0  0  0  0  0  0  0
  150.3404  140.3000  158.3048 H   0  0  0  0  0  0  0  0  0  0  0  0
  149.5511  143.9186  157.7206 H   0  0  0  0  0  0  0  0  0  0  0  0
  150.7697  143.9618  159.0009 H   0  0  0  0  0  0  0  0  0  0  0  0
  151.6549  143.5693  156.4949 H   0  0  0  0  0  0  0  0  0  0  0  0
  152.2412  142.4962  157.7645 H   0  0  0  0  0  0  0  0  0  0  0  0
  149.3198  142.8416  155.8855 H   0  0  0  0  0  0  0  0  0  0  0  0
  152.0948  140.9784  155.1237 H   0  0  0  0  0  0  0  0  0  0  0  0
  152.4307  140.3889  156.7296 H   0  0  0  0  0  0  0  0  0  0  0  0
  151.1020  139.3120  153.5353 H   0  0  0  0  0  0  0  0  0  0  0  0
  150.7569  134.4970  155.1889 H   0  0  0  0  0  0  0  0  0  0  0  0
  149.7419  133.3277  156.0354 H   0  0  0  0  0  0  0  0  0  0  0  0
  149.7058  134.1374  153.1519 H   0  0  0  0  0  0  0  0  0  0  0  0
  149.3435  132.5509  153.8262 H   0  0  0  0  0  0  0  0  0  0  0  0
  145.0402  133.5579  153.4348 H   0  0  0  0  0  0  0  0  0  0  0  0
  145.0499  134.4818  151.9314 H   0  0  0  0  0  0  0  0  0  0  0  0
  145.4110  135.2849  153.4489 H   0  0  0  0  0  0  0  0  0  0  0  0
  146.7540  133.0417  150.8434 H   0  0  0  0  0  0  0  0  0  0  0  0
  148.2932  132.8062  151.6150 H   0  0  0  0  0  0  0  0  0  0  0  0
  147.1670  131.3890  153.3723 H   0  0  0  0  0  0  0  0  0  0  0  0
  145.6162  131.6296  152.5954 H   0  0  0  0  0  0  0  0  0  0  0  0
  147.6087  130.7925  150.9033 H   0  0  0  0  0  0  0  0  0  0  0  0
  145.5928  135.7593  154.7139 H   0  0  0  0  0  0  0  0  0  0  0  0
  146.4244  136.6171  156.0001 H   0  0  0  0  0  0  0  0  0  0  0  0
  146.0932  134.8974  156.1662 H   0  0  0  0  0  0  0  0  0  0  0  0
  149.7965  137.2694  159.4999 H   0  0  0  0  0  0  0  0  0  0  0  0
  147.3786  134.8503  152.2407 H   0  0  0  0  0  0  0  0  0  0  0  0
  1  2  1  0  0  0  0
  1 31  1  0  0  0  0
  1 32  1  0  0  0  0
  1 33  1  0  0  0  0
  2  6  1  0  0  0  0
  2  3  1  0  0  0  0
  2 34  1  0  0  0  0
  3  4  1  0  0  0  0
  4  5  1  0  0  0  0
  4 35  1  0  0  0  0
  4 36  1  0  0  0  0
  5  6  1  0  0  0  0
  5 37  1  0  0  0  0
  5 38  1  0  0  0  0
  6  7  1  0  0  0  0
  6  8  1  0  0  0  0
  7 39  1  0  0  0  0
  8  9  1  0  0  0  0
  8 40  1  0  0  0  0
  8 41  1  0  0  0  0
  9 28  1  0  0  0  0
  9 10  1  0  0  0  0
 10 11  2  0  0  0  0
 10 42  1  0  0  0  0
 11 12  1  0  0  0  0
 12 28  2  0  0  0  0
 12 13  1  0  0  0  0
 13 14  1  0  0  0  0
 13 25  2  0  0  0  0
 14 23  1  0  0  0  0
 14 15  1  0  0  0  0
 15 16  1  0  0  0  0
 15 43  1  0  0  0  0
 15 44  1  0  0  0  0
 16 17  1  0  0  0  0
 16 45  1  0  0  0  0
 16 46  1  0  0  0  0
 17 29  1  0  0  0  0
 17 18  1  0  0  0  0
 17 23  1  0  0  0  0
 18 19  1  0  0  0  0
 18 20  1  0  0  0  0
 18 59  1  0  0  0  0
 19 47  1  0  0  0  0
 19 48  1  0  0  0  0
 19 49  1  0  0  0  0
 20 21  1  0  0  0  0
 20 50  1  0  0  0  0
 20 51  1  0  0  0  0
 21 22  1  0  0  0  0
 21 52  1  0  0  0  0
 21 53  1  0  0  0  0
 22 54  1  0  0  0  0
 23 30  1  0  0  0  0
 23 24  1  0  0  0  0
 24 55  1  0  0  0  0
 24 56  1  0  0  0  0
 24 57  1  0  0  0  0
 25 26  1  0  0  0  0
 26 27  2  0  0  0  0
 26 58  1  0  0  0  0
 27 28  1  0  0  0  0
M  CHG  1  18   1
M  END
> <s_m_source_file>
AV-unprocessed.smi

> <i_m_source_file_index>
290

> <i_lp_mmshare_version>
43012

> <i_f3d_flags>
0

> <s_epik_input>
W0NIMl0xW0NIMl1PW0NAQEhdKFtDSDNdKVtDQEBdMShbT0hdKVtDSDJdbihbY0hdbjIpYyhjMjMpbltjSF1uYzNONFtDSDJdW0NIMl1bQ0BIXShbQ0BIXTRbQ0gzXSlOKFtDSDNdKVtDSDJdW0NIMl1bT0hd

> <s_epik_cmdline>
J2VwaWtfcHl0aG9uJywgJy1waCcsICc3LjAnLCAnLXRuJywgJzgnLCAnLW1hJywgJzIwMCcsICctbWV0YWxfYmluZGluZycsICctaW1hZScsICc8aW5maWxlLm1hZT4nLCAnLW9tYWUnLCAnPG91dGZpbGUubWFlPic=

> <r_lp_tautomer_probability>
1

> <r_epik_Ionization_Penalty>
0.0036983

> <r_epik_Ionization_Penalty_Charging>
0.0032725

> <r_epik_Ionization_Penalty_Neutral>
0.000425798

> <r_epik_State_Penalty>
-0

> <r_epik_Charging_Adjusted_Penalty>
0.0032725

> <i_epik_Tot_Q>
1

> <i_epik_Tot_abs_Q>
1

> <r_epik_Metal_State_Penalty>
-0

> <b_epik_Metal_Only>
0

> <s_lp_Force_Field>
OPLS_2005

> <r_lp_Energy>
60.087

> <b_lp_Chiralities_Consistent>
1

> <s_lp_Variant>
AV-unprocessed.smi:290-15

> <Gold.Version>
5.8.1

> <Gold.Id.Protein>
6NUR|6NUR_protein|mol2

> <Gold.PLP.Fitness>
45.8174

> <Gold.PLP.PLP>
-34.3404

> <Gold.PLP.part.hbond>
-3.5671

> <Gold.PLP.part.metal>
0.0000

> <Gold.PLP.part.buried>
-5.3499

> <Gold.PLP.part.nonpolar>
-25.3967

> <Gold.PLP.part.repulsive>
0.3465

> <Gold.PLP.ligand.clash>
0.0000

> <Gold.PLP.ligand.torsion>
0.5834

> <Gold.PLP.Chemscore.Hbond>
3.8625

> <Gold.PLP.Chemscore.CHOScore>
0.1794

> <Gold.PLP.Chemscore.Metal>
0.0000

> <Gold.Chemscore.Hbonds>
donor molecule, donor type, donor heavy atom, donor atom, acceptor molecule, acceptor atom, score
      L1  H     7    39       P1  8028  0.94
      L1  H    18    59       P1  7948  1.69
      L1  H    22    54       P1 10747  0.93
      L1  C    10    42       P1  7957  0.13

> <Gold.PLP.Chemscore.Internal.Correction>
0.5180

> <Gold.Rescore>
     Score         DG    S(hbond)    S(metal)    S(lipo)     H(rot)  DE(clash)    DE(int)     intcor
     11.09     -14.27       2.96        0.00      70.76       3.67       0.05       3.12       ----

> <Gold.Chemscore.Fitness>
11.0934

> <Gold.Chemscore.DG>
-14.2664

> <Gold.Chemscore.ZeroCoef>
-5.4800

> <Gold.Chemscore.Hbond>
2.9615

> <Gold.Chemscore.Metal>
0.0000

> <Gold.Chemscore.Lipo>
70.7638

> <Gold.Chemscore.Internal_Hbond>
0.0000

> <Gold.Chemscore.DEClash>
0.0544

> <Gold.Chemscore.DEInternal>
3.1185

> <Gold.Chemscore.Rot>
3.6658

> <Gold.Chemscore.Internal.Correction>
   9.000000E+99

> <Gold.Chemscore.Hbonds>
donor molecule, donor type, donor heavy atom, donor atom, acceptor molecule, acceptor atom, score
      L1  H     7    39       P1  8028  0.90
      L1  H    18    59       P1  7948  0.75
      L1  H    22    54       P1 10747  0.86

> <Gold.Chemscore.Hbond.Weighted>
-9.8914

> <Gold.Chemscore.Metal.Weighted>
-0.0000

> <Gold.Chemscore.Lipo.Weighted>
-8.2794

> <Gold.Chemscore.Internal_Hbond.Weighted>
0.0000

> <Gold.Chemscore.DEClash.Weighted>
0.0544

> <Gold.Chemscore.DEInternal.Weighted>
3.1185

> <Gold.Chemscore.Rot.Weighted>
9.3844

> <Gold.Chemscore.Internal.Correction.Weighted>
   9.000000E+99

> <Gold.Protein.RotatedTorsions>
[ 6907 6896 6895 6894 ] final  -75.89 input  -60.11 | X-H torsion
[ 7974 7965 7964 7962 ] final -136.82 input  175.53 | X-H torsion
[ 8008 7997 7996 7995 ] final  118.02 input   59.86 | X-H torsion
[ 10167 10162 10161 10158 ] final  -58.94 input  -65.29 | X-H torsion
[ 10718 10713 10712 10709 ] final   -5.83 input   66.30 | X-H torsion
[ 10763 10752 10751 10750 ] final   -0.90 input  -60.55 | X-H torsion
[ 11005 11000 10999 10996 ] final   87.03 input  -57.11 | X-H torsion

> <Gold.Protein.ActiveResidues>
 VAL166  LYS551  ARG553  GLY616  TRP617  ASP618  TYR619  PRO620  LYS621  CYS622 
 ASP623  PHE694  ASN695  SER759  ASP760  ASP761  ALA762  ILE779  LEU786  VAL792 
 PHE793  MET794  SER795  GLU796  ALA797  LYS798  CYS799  TRP800  GLU811  SER814 

> <Gold.Protein.RotatedAtoms>
  150.7044  134.4654  159.5399 H   0  0  0  0  0  0  0  0  0  0  0  0  # atno 6907 bound_to 6896
  152.2320  134.8309  160.0481 H   0  0  0  0  0  0  0  0  0  0  0  0  # atno 6908 bound_to 6896
  151.9122  133.3529  159.3904 H   0  0  0  0  0  0  0  0  0  0  0  0  # atno 6909 bound_to 6896
  144.8894  140.6621  143.5155 H   0  0  0  0  0  0  0  0  0  0  0  0  # atno 7974 bound_to 7965
  156.2525  140.2883  156.0770 H   0  0  0  0  0  0  0  0  0  0  0  0  # atno 8008 bound_to 7997
  155.1609  140.0399  157.2859 H   0  0  0  0  0  0  0  0  0  0  0  0  # atno 8009 bound_to 7997
  154.6394  140.2518  155.7347 H   0  0  0  0  0  0  0  0  0  0  0  0  # atno 8010 bound_to 7997
  140.6166  143.2404  151.5582 H   0  0  0  0  0  0  0  0  0  0  0  0  # atno 10167 bound_to 10162
  156.7408  130.5209  149.5824 H   0  0  0  0  0  0  0  0  0  0  0  0  # atno 10718 bound_to 10713
  153.3379  135.6979  153.6892 H   0  0  0  0  0  0  0  0  0  0  0  0  # atno 10763 bound_to 10752
  153.5668  135.3524  155.2822 H   0  0  0  0  0  0  0  0  0  0  0  0  # atno 10764 bound_to 10752
  154.8631  135.4262  154.2585 H   0  0  0  0  0  0  0  0  0  0  0  0  # atno 10765 bound_to 10752
  139.8930  134.8395  156.2802 H   0  0  0  0  0  0  0  0  0  0  0  0  # atno 11005 bound_to 11000
  145.3810  139.1637  143.4281 LP  0  0  0  0  0  0  0  0  0  0  0  0  # atno 17320 bound_to 7965
  146.3045  140.3890  142.8692 LP  0  0  0  0  0  0  0  0  0  0  0  0  # atno 17321 bound_to 7965
  139.5403  144.2665  152.1338 LP  0  0  0  0  0  0  0  0  0  0  0  0  # atno 17342 bound_to 10162
  140.1875  144.4784  150.6496 LP  0  0  0  0  0  0  0  0  0  0  0  0  # atno 17343 bound_to 10162
  156.1466  130.6281  151.0539 LP  0  0  0  0  0  0  0  0  0  0  0  0  # atno 17370 bound_to 10713
  157.6819  131.0835  150.7346 LP  0  0  0  0  0  0  0  0  0  0  0  0  # atno 17371 bound_to 10713
  141.0043  133.7133  156.1010 LP  0  0  0  0  0  0  0  0  0  0  0  0  # atno 17394 bound_to 11000
  140.7455  134.4103  157.5549 LP  0  0  0  0  0  0  0  0  0  0  0  0  # atno 17395 bound_to 11000

$$$$
