AV-unprocessed.smi:544|AV-procd|sdf|2878|dock6
  -GOLD-   2262023373D 1   1.00000     0.00000
 Structure written by MMmdl.
 49 51  0  0  0  0  0  0  0  0  1 V2000
  143.1791  131.1694  157.7643 C   0  0  0  0  0  0  0  0  0  0  0  0
  144.6105  131.5810  157.4131 C   0  0  0  0  0  0  0  0  0  0  0  0
  144.6057  132.9417  157.0209 O   0  0  0  0  0  0  0  0  0  0  0  0
  145.9047  133.4624  156.7949 C   0  0  0  0  0  0  0  0  0  0  0  0
  146.0730  134.8346  157.4743 C   0  0  0  0  0  0  0  0  0  0  0  0
  147.4658  135.2394  157.6621 N   0  0  0  0  0  0  0  0  0  0  0  0
  148.1836  135.3125  158.8167 C   0  0  0  0  0  0  0  0  0  0  0  0
  147.6276  135.0134  160.0604 N   0  0  0  0  0  0  0  0  0  0  0  0
  147.0365  133.7322  160.4414 C   0  0  0  0  0  0  0  0  0  0  0  0
  147.5374  133.2560  161.8151 C   0  0  0  0  0  0  0  0  0  0  0  0
  147.2393  134.3113  162.8886 C   0  0  0  0  0  0  0  0  0  0  0  0
  147.7750  135.6856  162.4499 C   0  0  2  0  0  0  0  0  0  0  0  0
  147.4177  136.7802  163.4642 C   0  0  0  0  0  0  0  0  0  0  0  0
  147.2526  136.0309  161.0403 C   0  0  0  0  0  0  0  0  0  0  0  0
  149.4671  135.6455  158.6560 N   0  0  0  0  0  0  0  0  0  0  0  0
  149.5776  135.8168  157.2853 C   0  0  0  0  0  0  0  0  0  0  0  0
  148.3945  135.5651  156.6696 C   0  0  0  0  0  0  0  0  0  0  0  0
  148.2408  135.6305  155.2085 C   0  0  0  0  0  0  0  0  0  0  0  0
  147.1933  135.3683  154.6217 O   0  0  0  0  0  0  0  0  0  0  0  0
  149.3752  136.0072  154.5705 N   0  0  0  0  0  0  0  0  0  0  0  0
  150.5901  136.2904  155.1313 C   0  0  0  0  0  0  0  0  0  0  0  0
  151.5324  136.6319  154.4168 O   0  0  0  0  0  0  0  0  0  0  0  0
  150.7049  136.1762  156.4930 N   0  0  0  0  0  0  0  0  0  0  0  0
  151.9854  136.4483  157.1488 C   0  0  0  0  0  0  0  0  0  0  0  0
  149.3187  136.0832  153.5654 H   0  0  0  0  0  0  0  0  0  0  0  0
  143.1383  130.1247  158.0727 H   0  0  0  0  0  0  0  0  0  0  0  0
  142.5154  131.2926  156.9079 H   0  0  0  0  0  0  0  0  0  0  0  0
  142.7875  131.7761  158.5813 H   0  0  0  0  0  0  0  0  0  0  0  0
  145.2617  131.4387  158.2767 H   0  0  0  0  0  0  0  0  0  0  0  0
  144.9909  130.9567  156.6031 H   0  0  0  0  0  0  0  0  0  0  0  0
  146.6446  132.7549  157.1636 H   0  0  0  0  0  0  0  0  0  0  0  0
  146.0819  133.5678  155.7238 H   0  0  0  0  0  0  0  0  0  0  0  0
  145.5451  135.6028  156.9116 H   0  0  0  0  0  0  0  0  0  0  0  0
  145.5893  134.8198  158.4501 H   0  0  0  0  0  0  0  0  0  0  0  0
  145.9517  133.8444  160.4666 H   0  0  0  0  0  0  0  0  0  0  0  0
  147.2343  132.9865  159.6760 H   0  0  0  0  0  0  0  0  0  0  0  0
  147.0614  132.3115  162.0790 H   0  0  0  0  0  0  0  0  0  0  0  0
  148.6089  133.0614  161.7766 H   0  0  0  0  0  0  0  0  0  0  0  0
  146.1618  134.3696  163.0489 H   0  0  0  0  0  0  0  0  0  0  0  0
  147.6817  134.0136  163.8398 H   0  0  0  0  0  0  0  0  0  0  0  0
  148.8635  135.6244  162.3993 H   0  0  0  0  0  0  0  0  0  0  0  0
  146.3373  136.8962  163.5579 H   0  0  0  0  0  0  0  0  0  0  0  0
  147.8310  137.7429  163.1630 H   0  0  0  0  0  0  0  0  0  0  0  0
  147.8148  136.5451  164.4521 H   0  0  0  0  0  0  0  0  0  0  0  0
  147.6572  136.9941  160.7270 H   0  0  0  0  0  0  0  0  0  0  0  0
  146.1672  136.1390  161.0501 H   0  0  0  0  0  0  0  0  0  0  0  0
  152.8043  135.9372  156.6403 H   0  0  0  0  0  0  0  0  0  0  0  0
  151.9999  136.1146  158.1865 H   0  0  0  0  0  0  0  0  0  0  0  0
  152.1931  137.5187  157.1408 H   0  0  0  0  0  0  0  0  0  0  0  0
  1  2  1  0  0  0  0
  1 26  1  0  0  0  0
  1 27  1  0  0  0  0
  1 28  1  0  0  0  0
  2  3  1  0  0  0  0
  2 29  1  0  0  0  0
  2 30  1  0  0  0  0
  3  4  1  0  0  0  0
  4  5  1  0  0  0  0
  4 31  1  0  0  0  0
  4 32  1  0  0  0  0
  5  6  1  0  0  0  0
  5 33  1  0  0  0  0
  5 34  1  0  0  0  0
  6 17  1  0  0  0  0
  6  7  1  0  0  0  0
  7  8  1  0  0  0  0
  7 15  2  0  0  0  0
  8 14  1  0  0  0  0
  8  9  1  0  0  0  0
  9 10  1  0  0  0  0
  9 35  1  0  0  0  0
  9 36  1  0  0  0  0
 10 11  1  0  0  0  0
 10 37  1  0  0  0  0
 10 38  1  0  0  0  0
 11 12  1  0  0  0  0
 11 39  1  0  0  0  0
 11 40  1  0  0  0  0
 12 13  1  0  0  0  0
 12 14  1  0  0  0  0
 12 41  1  0  0  0  0
 13 42  1  0  0  0  0
 13 43  1  0  0  0  0
 13 44  1  0  0  0  0
 14 45  1  0  0  0  0
 14 46  1  0  0  0  0
 15 16  1  0  0  0  0
 16 23  1  0  0  0  0
 16 17  2  0  0  0  0
 17 18  1  0  0  0  0
 18 19  2  0  0  0  0
 18 20  1  0  0  0  0
 20 25  1  0  0  0  0
 20 21  1  0  0  0  0
 21 22  2  0  0  0  0
 21 23  1  0  0  0  0
 23 24  1  0  0  0  0
 24 47  1  0  0  0  0
 24 48  1  0  0  0  0
 24 49  1  0  0  0  0
M  END
> <s_m_source_file>
AV-unprocessed.smi

> <i_m_source_file_index>
544

> <i_lp_mmshare_version>
43012

> <i_f3d_flags>
0

> <s_epik_input>
W0NIM11uMWMoPU8pW25IXWMoPU8pYyhjMTIpbihbQ0gyXVtDSDJdT1tDSDJdW0NIM10pYyhuMilOM1tDSDJdW0NIMl1bQ0gyXVtDQEBIXShbQ0gzXSlbQ0gyXTM=

> <s_epik_cmdline>
J2VwaWtfcHl0aG9uJywgJy1waCcsICc3LjAnLCAnLXRuJywgJzgnLCAnLW1hJywgJzIwMCcsICctbWV0YWxfYmluZGluZycsICctaW1hZScsICc8aW5maWxlLm1hZT4nLCAnLW9tYWUnLCAnPG91dGZpbGUubWFlPic=

> <r_lp_tautomer_probability>
1

> <r_epik_Ionization_Penalty>
0.000382477

> <r_epik_Ionization_Penalty_Charging>
0.000119472

> <r_epik_Ionization_Penalty_Neutral>
0.000263005

> <r_epik_State_Penalty>
-0

> <r_epik_Charging_Adjusted_Penalty>
0.000119472

> <i_epik_Tot_Q>
0

> <i_epik_Tot_abs_Q>
0

> <r_epik_Metal_State_Penalty>
0.0919313

> <b_epik_Metal_Only>
0

> <s_lp_Force_Field>
OPLS_2005

> <r_lp_Energy>
37.0872

> <b_lp_Chiralities_Consistent>
1

> <s_lp_Variant>
AV-unprocessed.smi:544-2

> <Gold.Version>
5.8.1

> <Gold.Id.Protein>
6NUR|6NUR_protein|mol2

> <Gold.PLP.Fitness>
36.9109

> <Gold.PLP.PLP>
-30.9262

> <Gold.PLP.part.hbond>
-3.0000

> <Gold.PLP.part.metal>
0.0000

> <Gold.PLP.part.buried>
-2.6688

> <Gold.PLP.part.nonpolar>
-25.3915

> <Gold.PLP.part.repulsive>
0.9111

> <Gold.PLP.ligand.clash>
0.0000

> <Gold.PLP.ligand.torsion>
1.7862

> <Gold.PLP.Chemscore.Hbond>
3.0000

> <Gold.PLP.Chemscore.CHOScore>
0.0000

> <Gold.PLP.Chemscore.Metal>
0.0000

> <Gold.Chemscore.Hbonds>
donor molecule, donor type, donor heavy atom, donor atom, acceptor molecule, acceptor atom, score
      L1  H    20    25       P1  7948  1.00
      P1  H  6896  6909       L1    15  1.00
      P1  H 10752 10764       L1    22  1.00

> <Gold.PLP.Chemscore.Internal.Correction>
0.5570

> <Gold.Rescore>
     Score         DG    S(hbond)    S(metal)    S(lipo)     H(rot)  DE(clash)    DE(int)     intcor
     16.93     -19.02       2.93        0.00      66.81       1.58       0.29       1.80       ----

> <Gold.Chemscore.Fitness>
16.9331

> <Gold.Chemscore.DG>
-19.0208

> <Gold.Chemscore.ZeroCoef>
-5.4800

> <Gold.Chemscore.Hbond>
2.9253

> <Gold.Chemscore.Metal>
0.0000

> <Gold.Chemscore.Lipo>
66.8072

> <Gold.Chemscore.Internal_Hbond>
0.0000

> <Gold.Chemscore.DEClash>
0.2906

> <Gold.Chemscore.DEInternal>
1.7971

> <Gold.Chemscore.Rot>
1.5806

> <Gold.Chemscore.Internal.Correction>
   9.000000E+99

> <Gold.Chemscore.Hbonds>
donor molecule, donor type, donor heavy atom, donor atom, acceptor molecule, acceptor atom, score
      L1  H    20    25       P1  7948  0.74
      P1  H  6896  6909       L1    15  0.89
      P1  H 10752 10764       L1    22  0.99

> <Gold.Chemscore.Hbond.Weighted>
-9.7706

> <Gold.Chemscore.Metal.Weighted>
-0.0000

> <Gold.Chemscore.Lipo.Weighted>
-7.8164

> <Gold.Chemscore.Internal_Hbond.Weighted>
0.0000

> <Gold.Chemscore.DEClash.Weighted>
0.2906

> <Gold.Chemscore.DEInternal.Weighted>
1.7971

> <Gold.Chemscore.Rot.Weighted>
4.0463

> <Gold.Chemscore.Internal.Correction.Weighted>
   9.000000E+99

> <Gold.Protein.RotatedTorsions>
[ 6907 6896 6895 6894 ] final   49.18 input  -60.11 | X-H torsion
[ 7974 7965 7964 7962 ] final -107.64 input  175.53 | X-H torsion
[ 8008 7997 7996 7995 ] final  -34.89 input   59.86 | X-H torsion
[ 10167 10162 10161 10158 ] final  -81.90 input  -65.29 | X-H torsion
[ 10718 10713 10712 10709 ] final -157.36 input   66.30 | X-H torsion
[ 10763 10752 10751 10750 ] final  -80.37 input  -60.55 | X-H torsion
[ 11005 11000 10999 10996 ] final -104.28 input  -57.11 | X-H torsion

> <Gold.Protein.ActiveResidues>
 VAL166  LYS551  ARG553  GLY616  TRP617  ASP618  TYR619  PRO620  LYS621  CYS622 
 ASP623  PHE694  ASN695  SER759  ASP760  ASP761  ALA762  ILE779  LEU786  VAL792 
 PHE793  MET794  SER795  GLU796  ALA797  LYS798  CYS799  TRP800  GLU811  SER814 

> <Gold.Protein.RotatedAtoms>
  152.2879  134.7755  160.0383 H   0  0  0  0  0  0  0  0  0  0  0  0  # atno 6907 bound_to 6896
  151.8311  133.3403  159.3622 H   0  0  0  0  0  0  0  0  0  0  0  0  # atno 6908 bound_to 6896
  150.7217  134.5411  159.5792 H   0  0  0  0  0  0  0  0  0  0  0  0  # atno 6909 bound_to 6896
  145.2029  140.9064  143.3359 H   0  0  0  0  0  0  0  0  0  0  0  0  # atno 7974 bound_to 7965
  154.4109  140.1672  156.2123 H   0  0  0  0  0  0  0  0  0  0  0  0  # atno 8008 bound_to 7997
  155.9434  140.3406  155.6323 H   0  0  0  0  0  0  0  0  0  0  0  0  # atno 8009 bound_to 7997
  155.6961  140.0739  157.2419 H   0  0  0  0  0  0  0  0  0  0  0  0  # atno 8010 bound_to 7997
  140.4369  143.2528  151.8681 H   0  0  0  0  0  0  0  0  0  0  0  0  # atno 10167 bound_to 10162
  156.5392  130.8556  151.2743 H   0  0  0  0  0  0  0  0  0  0  0  0  # atno 10718 bound_to 10713
  154.5504  135.5663  153.6917 H   0  0  0  0  0  0  0  0  0  0  0  0  # atno 10763 bound_to 10752
  152.9988  135.6249  154.2382 H   0  0  0  0  0  0  0  0  0  0  0  0  # atno 10764 bound_to 10752
  154.2316  135.2865  155.2867 H   0  0  0  0  0  0  0  0  0  0  0  0  # atno 10765 bound_to 10752
  141.1108  133.8710  157.1591 H   0  0  0  0  0  0  0  0  0  0  0  0  # atno 11005 bound_to 11000
  144.9931  139.3670  143.6205 LP  0  0  0  0  0  0  0  0  0  0  0  0  # atno 17320 bound_to 7965
  146.3414  139.9121  142.8778 LP  0  0  0  0  0  0  0  0  0  0  0  0  # atno 17321 bound_to 7965
  139.4787  144.5272  151.8718 LP  0  0  0  0  0  0  0  0  0  0  0  0  # atno 17342 bound_to 10162
  140.4363  144.2047  150.5889 LP  0  0  0  0  0  0  0  0  0  0  0  0  # atno 17343 bound_to 10162
  157.7408  130.9858  150.2403 LP  0  0  0  0  0  0  0  0  0  0  0  0  # atno 17370 bound_to 10713
  156.2987  130.3755  149.7771 LP  0  0  0  0  0  0  0  0  0  0  0  0  # atno 17371 bound_to 10713
  140.0000  135.0031  157.0169 LP  0  0  0  0  0  0  0  0  0  0  0  0  # atno 17394 bound_to 11000
  140.4781  134.1317  155.7213 LP  0  0  0  0  0  0  0  0  0  0  0  0  # atno 17395 bound_to 11000

$$$$
