AV-unprocessed.smi:1855|AV-procd|sdf|7531|dock4
  -GOLD-   22720 9243D 1   1.00000     0.00000
 Structure written by MMmdl.
 43 45  0  0  0  0  0  0  0  0  1 V2000
  148.3926  145.0828  161.3027 C   0  0  0  0  0  0  0  0  0  0  0  0
  148.9402  144.0344  160.5181 O   0  0  0  0  0  0  0  0  0  0  0  0
  150.1704  144.2320  159.9249 C   0  0  0  0  0  0  0  0  0  0  0  0
  151.0163  145.3327  160.2130 C   0  0  0  0  0  0  0  0  0  0  0  0
  152.2582  145.4665  159.5652 C   0  0  0  0  0  0  0  0  0  0  0  0
  152.6679  144.5055  158.6250 C   0  0  0  0  0  0  0  0  0  0  0  0
  151.8362  143.4099  158.3313 C   0  0  0  0  0  0  0  0  0  0  0  0
  150.5835  143.2666  158.9785 C   0  0  0  0  0  0  0  0  0  0  0  0
  149.7167  142.2216  158.7445 O   0  0  0  0  0  0  0  0  0  0  0  0
  150.1288  141.1622  157.8931 C   0  0  0  0  0  0  0  0  0  0  0  0
  150.2327  141.6981  156.4580 C   0  0  0  0  0  0  0  0  0  0  0  0
  149.9903  140.6570  155.4681 N   0  0  0  0  0  0  0  0  0  0  0  0
  150.7507  139.5679  155.1895 C   0  0  0  0  0  0  0  0  0  0  0  0
  152.0259  139.2699  155.9234 C   0  0  0  0  0  0  0  0  0  0  0  0
  151.7128  138.5990  157.1814 N   0  0  0  0  0  0  0  0  0  0  0  0
  152.6016  138.3017  158.1401 C   0  0  0  0  0  0  0  0  0  0  0  0
  153.8014  138.5663  158.0848 O   0  0  0  0  0  0  0  0  0  0  0  0
  150.2966  138.7770  154.2166 N   0  0  0  0  0  0  0  0  0  0  0  0
  149.1338  139.4113  153.8262 C   0  0  0  0  0  0  0  0  0  0  0  0
  148.1926  139.0699  152.8288 C   0  0  0  0  0  0  0  0  0  0  0  0
  147.0675  139.8886  152.5988 C   0  0  0  0  0  0  0  0  0  0  0  0
  146.8668  141.0565  153.3624 C   0  0  0  0  0  0  0  0  0  0  0  0
  147.7894  141.4113  154.3651 C   0  0  0  0  0  0  0  0  0  0  0  0
  148.9123  140.5921  154.5895 C   0  0  0  0  0  0  0  0  0  0  0  0
  147.4224  144.7708  161.6891 H   0  0  0  0  0  0  0  0  0  0  0  0
  148.2363  145.9851  160.7102 H   0  0  0  0  0  0  0  0  0  0  0  0
  149.0290  145.3154  162.1575 H   0  0  0  0  0  0  0  0  0  0  0  0
  150.7350  146.0896  160.9292 H   0  0  0  0  0  0  0  0  0  0  0  0
  152.8972  146.3074  159.7911 H   0  0  0  0  0  0  0  0  0  0  0  0
  153.6217  144.6076  158.1286 H   0  0  0  0  0  0  0  0  0  0  0  0
  152.1829  142.6897  157.6061 H   0  0  0  0  0  0  0  0  0  0  0  0
  151.0966  140.7718  158.2114 H   0  0  0  0  0  0  0  0  0  0  0  0
  149.4052  140.3468  157.9289 H   0  0  0  0  0  0  0  0  0  0  0  0
  149.5327  142.5192  156.3073 H   0  0  0  0  0  0  0  0  0  0  0  0
  151.2269  142.1119  156.2867 H   0  0  0  0  0  0  0  0  0  0  0  0
  152.6773  138.6523  155.3025 H   0  0  0  0  0  0  0  0  0  0  0  0
  152.5666  140.1947  156.1244 H   0  0  0  0  0  0  0  0  0  0  0  0
  150.7498  138.3344  157.3294 H   0  0  0  0  0  0  0  0  0  0  0  0
  152.1120  137.7892  158.9825 H   0  0  0  0  0  0  0  0  0  0  0  0
  148.3391  138.1783  152.2372 H   0  0  0  0  0  0  0  0  0  0  0  0
  146.3563  139.6200  151.8317 H   0  0  0  0  0  0  0  0  0  0  0  0
  146.0053  141.6812  153.1774 H   0  0  0  0  0  0  0  0  0  0  0  0
  147.6410  142.3082  154.9479 H   0  0  0  0  0  0  0  0  0  0  0  0
  1  2  1  0  0  0  0
  1 25  1  0  0  0  0
  1 26  1  0  0  0  0
  1 27  1  0  0  0  0
  2  3  1  0  0  0  0
  3  8  1  0  0  0  0
  3  4  2  0  0  0  0
  4  5  1  0  0  0  0
  4 28  1  0  0  0  0
  5  6  2  0  0  0  0
  5 29  1  0  0  0  0
  6  7  1  0  0  0  0
  6 30  1  0  0  0  0
  7  8  2  0  0  0  0
  7 31  1  0  0  0  0
  8  9  1  0  0  0  0
  9 10  1  0  0  0  0
 10 11  1  0  0  0  0
 10 32  1  0  0  0  0
 10 33  1  0  0  0  0
 11 12  1  0  0  0  0
 11 34  1  0  0  0  0
 11 35  1  0  0  0  0
 12 24  1  0  0  0  0
 12 13  1  0  0  0  0
 13 14  1  0  0  0  0
 13 18  2  0  0  0  0
 14 15  1  0  0  0  0
 14 36  1  0  0  0  0
 14 37  1  0  0  0  0
 15 16  1  0  0  0  0
 15 38  1  0  0  0  0
 16 17  2  0  0  0  0
 16 39  1  0  0  0  0
 18 19  1  0  0  0  0
 19 24  2  0  0  0  0
 19 20  1  0  0  0  0
 20 21  2  0  0  0  0
 20 40  1  0  0  0  0
 21 22  1  0  0  0  0
 21 41  1  0  0  0  0
 22 23  2  0  0  0  0
 22 42  1  0  0  0  0
 23 24  1  0  0  0  0
 23 43  1  0  0  0  0
M  END
> <s_m_source_file>
AV-unprocessed.smi

> <i_m_source_file_index>
1855

> <i_lp_mmshare_version>
43012

> <i_f3d_flags>
0

> <s_epik_input>
W0NIM11PYzFbY0hdW2NIXVtjSF1bY0hdYzFPW0NIMl1bQ0gyXW4oYyhuMilbQ0gyXVtOSF1bQ0hdPU8pYyhjMjMpW2NIXVtjSF1bY0hdW2NIXTM=

> <s_epik_cmdline>
J2VwaWtfcHl0aG9uJywgJy1waCcsICc3LjAnLCAnLXRuJywgJzgnLCAnLW1hJywgJzIwMCcsICctbWV0YWxfYmluZGluZycsICctaW1hZScsICc8aW5maWxlLm1hZT4nLCAnLW9tYWUnLCAnPG91dGZpbGUubWFlPic=

> <r_lp_tautomer_probability>
1

> <r_epik_Ionization_Penalty>
0.0587233

> <r_epik_Ionization_Penalty_Charging>
0

> <r_epik_Ionization_Penalty_Neutral>
0.0587233

> <r_epik_State_Penalty>
0.0508012

> <r_epik_Charging_Adjusted_Penalty>
0.0508012

> <i_epik_Tot_Q>
0

> <i_epik_Tot_abs_Q>
0

> <r_epik_Metal_State_Penalty>
0.0461886

> <b_epik_Metal_Only>
0

> <s_lp_Force_Field>
OPLS_2005

> <r_lp_Energy>
14.9723

> <b_lp_Chiralities_Consistent>
1

> <s_lp_Variant>
AV-unprocessed.smi:1855-1

> <Gold.Version>
5.8.1

> <Gold.Id.Protein>
6NUR|6NUR_protein|mol2

> <Gold.PLP.Fitness>
48.5832

> <Gold.PLP.PLP>
-44.6756

> <Gold.PLP.part.hbond>
-2.4150

> <Gold.PLP.part.metal>
0.0000

> <Gold.PLP.part.buried>
5.6129

> <Gold.PLP.part.nonpolar>
-48.8716

> <Gold.PLP.part.repulsive>
0.5376

> <Gold.PLP.ligand.clash>
0.0000

> <Gold.PLP.ligand.torsion>
0.7013

> <Gold.PLP.Chemscore.Hbond>
1.7137

> <Gold.PLP.Chemscore.CHOScore>
0.0000

> <Gold.PLP.Chemscore.Metal>
0.0000

> <Gold.Chemscore.Hbonds>
donor molecule, donor type, donor heavy atom, donor atom, acceptor molecule, acceptor atom, score
      P1  H  6933  6944       L1     2  0.67
      P1  H  7997  8010       L1    17  1.00

> <Gold.PLP.Chemscore.Internal.Correction>
0.1690

> <Gold.Rescore>
     Score         DG    S(hbond)    S(metal)    S(lipo)     H(rot)  DE(clash)    DE(int)     intcor
     15.25     -18.80       1.46        0.00     132.06       2.74       2.67       0.88       ----

> <Gold.Chemscore.Fitness>
15.2457

> <Gold.Chemscore.DG>
-18.7962

> <Gold.Chemscore.ZeroCoef>
-5.4800

> <Gold.Chemscore.Hbond>
1.4596

> <Gold.Chemscore.Metal>
0.0000

> <Gold.Chemscore.Lipo>
132.0627

> <Gold.Chemscore.Internal_Hbond>
0.0000

> <Gold.Chemscore.DEClash>
2.6735

> <Gold.Chemscore.DEInternal>
0.8770

> <Gold.Chemscore.Rot>
2.7383

> <Gold.Chemscore.Internal.Correction>
   9.000000E+99

> <Gold.Chemscore.Hbonds>
donor molecule, donor type, donor heavy atom, donor atom, acceptor molecule, acceptor atom, score
      P1  H  6933  6944       L1     2  0.40
      P1  H  7997  8010       L1    17  0.95

> <Gold.Chemscore.Hbond.Weighted>
-4.8750

> <Gold.Chemscore.Metal.Weighted>
-0.0000

> <Gold.Chemscore.Lipo.Weighted>
-15.4513

> <Gold.Chemscore.Internal_Hbond.Weighted>
0.0000

> <Gold.Chemscore.DEClash.Weighted>
2.6735

> <Gold.Chemscore.DEInternal.Weighted>
0.8770

> <Gold.Chemscore.Rot.Weighted>
7.0102

> <Gold.Chemscore.Internal.Correction.Weighted>
   9.000000E+99

> <Gold.Protein.RotatedTorsions>
[ 6907 6896 6895 6894 ] final  -91.72 input  -60.11 | X-H torsion
[ 7974 7965 7964 7962 ] final   97.34 input  175.53 | X-H torsion
[ 8008 7997 7996 7995 ] final   39.61 input   59.86 | X-H torsion
[ 10167 10162 10161 10158 ] final  -92.34 input  -65.29 | X-H torsion
[ 10718 10713 10712 10709 ] final    1.35 input   66.30 | X-H torsion
[ 10763 10752 10751 10750 ] final   51.53 input  -60.55 | X-H torsion
[ 11005 11000 10999 10996 ] final  -34.47 input  -57.11 | X-H torsion

> <Gold.Protein.ActiveResidues>
 VAL166  LYS551  ARG553  GLY616  TRP617  ASP618  TYR619  PRO620  LYS621  CYS622 
 ASP623  PHE694  ASN695  SER759  ASP760  ASP761  ALA762  ILE779  LEU786  VAL792 
 PHE793  MET794  SER795  GLU796  ALA797  LYS798  CYS799  TRP800  GLU811  SER814 

> <Gold.Protein.RotatedAtoms>
  150.6896  134.2234  159.4405 H   0  0  0  0  0  0  0  0  0  0  0  0  # atno 6907 bound_to 6896
  152.0189  134.9832  160.0579 H   0  0  0  0  0  0  0  0  0  0  0  0  # atno 6908 bound_to 6896
  152.1417  133.4433  159.4807 H   0  0  0  0  0  0  0  0  0  0  0  0  # atno 6909 bound_to 6896
  145.4268  139.2315  143.3166 H   0  0  0  0  0  0  0  0  0  0  0  0  # atno 7974 bound_to 7965
  155.2395  140.3344  155.4294 H   0  0  0  0  0  0  0  0  0  0  0  0  # atno 8008 bound_to 7997
  156.2262  140.1830  156.7403 H   0  0  0  0  0  0  0  0  0  0  0  0  # atno 8009 bound_to 7997
  154.5902  140.0639  156.9213 H   0  0  0  0  0  0  0  0  0  0  0  0  # atno 8010 bound_to 7997
  140.3358  143.2969  151.9891 H   0  0  0  0  0  0  0  0  0  0  0  0  # atno 10167 bound_to 10162
  156.8469  130.5540  149.5673 H   0  0  0  0  0  0  0  0  0  0  0  0  # atno 10718 bound_to 10713
  152.9785  135.5842  154.4431 H   0  0  0  0  0  0  0  0  0  0  0  0  # atno 10763 bound_to 10752
  154.4029  135.2769  155.2087 H   0  0  0  0  0  0  0  0  0  0  0  0  # atno 10764 bound_to 10752
  154.3910  135.6125  153.5897 H   0  0  0  0  0  0  0  0  0  0  0  0  # atno 10765 bound_to 10752
  140.9718  133.7105  156.1537 H   0  0  0  0  0  0  0  0  0  0  0  0  # atno 11005 bound_to 11000
  146.2628  140.4999  142.8846 LP  0  0  0  0  0  0  0  0  0  0  0  0  # atno 17320 bound_to 7965
  144.8209  140.6548  143.6353 LP  0  0  0  0  0  0  0  0  0  0  0  0  # atno 17321 bound_to 7965
  139.4848  144.6197  151.7278 LP  0  0  0  0  0  0  0  0  0  0  0  0  # atno 17342 bound_to 10162
  140.5355  144.0663  150.6069 LP  0  0  0  0  0  0  0  0  0  0  0  0  # atno 17343 bound_to 10162
  156.0849  130.5850  150.9631 LP  0  0  0  0  0  0  0  0  0  0  0  0  # atno 17370 bound_to 10713
  157.6325  131.0919  150.8414 LP  0  0  0  0  0  0  0  0  0  0  0  0  # atno 17371 bound_to 10713
  140.7317  134.4247  157.5565 LP  0  0  0  0  0  0  0  0  0  0  0  0  # atno 17394 bound_to 11000
  139.8915  134.8777  156.2315 LP  0  0  0  0  0  0  0  0  0  0  0  0  # atno 17395 bound_to 11000

$$$$
