AV-unprocessed.smi:249|AV-procd|sdf|1899|dock8
  -GOLD-   2262020573D 1   1.00000     0.00000
 Structure written by MMmdl.
 64 67  0  0  0  0  0  0  0  0  2 V2000
  146.2887  130.0814  151.5872 C   0  0  0  0  0  0  0  0  0  0  0  0
  146.8153  131.1753  152.5284 C   0  0  0  0  0  0  0  0  0  0  0  0
  147.4182  132.3344  151.8049 N   0  3  1  0  0  0  0  0  0  0  0  0
  146.4977  132.9980  150.8393 C   0  0  0  0  0  0  0  0  0  0  0  0
  145.4012  133.8064  151.5579 C   0  0  0  0  0  0  0  0  0  0  0  0
  146.0140  134.8522  152.5167 C   0  0  1  0  0  0  0  0  0  0  0  0
  145.0119  135.6677  153.2184 N   0  0  0  0  0  0  0  0  0  0  0  0
  143.7165  135.8469  152.5740 C   0  0  0  0  0  0  0  0  0  0  0  0
  145.4601  136.7681  153.8681 C   0  0  0  0  0  0  0  0  0  0  0  0
  145.3916  136.7648  155.2229 N   0  0  0  0  0  0  0  0  0  0  0  0
  145.8582  137.8049  155.9200 C   0  0  0  0  0  0  0  0  0  0  0  0
  146.4319  138.9216  155.4681 N   0  0  0  0  0  0  0  0  0  0  0  0
  146.4911  138.9336  154.1057 C   0  0  0  0  0  0  0  0  0  0  0  0
  146.0139  137.9161  153.2330 C   0  0  0  0  0  0  0  0  0  0  0  0
  146.2338  138.2857  151.9108 N   0  0  0  0  0  0  0  0  0  0  0  0
  146.8236  139.4461  151.9971 C   0  0  0  0  0  0  0  0  0  0  0  0
  147.0520  139.8916  153.2795 N   0  0  0  0  0  0  0  0  0  0  0  0
  147.7165  141.1238  153.6612 C   0  0  0  0  0  0  0  0  0  0  0  0
  149.0961  140.9357  154.3552 C   0  0  2  0  0  0  0  0  0  0  0  0
  149.5220  139.4524  154.2273 C   0  0  0  0  0  0  0  0  0  0  0  0
  150.9216  139.3046  154.3515 O   0  0  0  0  0  0  0  0  0  0  0  0
  149.1231  141.4103  155.8419 C   0  0  2  0  0  0  0  0  0  0  0  0
  150.4778  141.3656  156.5403 C   0  0  0  0  0  0  0  0  0  0  0  0
  150.1128  141.3790  158.0211 C   0  0  0  0  0  0  0  0  0  0  0  0
  148.8197  140.7987  158.1120 O   0  0  0  0  0  0  0  0  0  0  0  0
  148.3214  140.5283  156.8086 C   0  0  0  0  0  0  0  0  0  0  0  0
  147.0247  134.1686  153.4665 C   0  0  0  0  0  0  0  0  0  0  0  0
  148.0718  133.3560  152.6780 C   0  0  1  0  0  0  0  0  0  0  0  0
  149.1726  132.7770  153.5850 C   0  0  0  0  0  0  0  0  0  0  0  0
  145.9996  129.1973  152.1558 H   0  0  0  0  0  0  0  0  0  0  0  0
  147.0505  129.7754  150.8698 H   0  0  0  0  0  0  0  0  0  0  0  0
  145.4071  130.4031  151.0338 H   0  0  0  0  0  0  0  0  0  0  0  0
  146.0224  131.5007  153.2014 H   0  0  0  0  0  0  0  0  0  0  0  0
  147.5682  130.7023  153.1561 H   0  0  0  0  0  0  0  0  0  0  0  0
  147.0837  133.6691  150.2099 H   0  0  0  0  0  0  0  0  0  0  0  0
  146.0539  132.2773  150.1546 H   0  0  0  0  0  0  0  0  0  0  0  0
  144.7749  134.3075  150.8189 H   0  0  0  0  0  0  0  0  0  0  0  0
  144.7473  133.1187  152.0931 H   0  0  0  0  0  0  0  0  0  0  0  0
  146.5789  135.5506  151.8976 H   0  0  0  0  0  0  0  0  0  0  0  0
  143.0369  136.4127  153.2130 H   0  0  0  0  0  0  0  0  0  0  0  0
  143.2582  134.8768  152.3802 H   0  0  0  0  0  0  0  0  0  0  0  0
  143.8088  136.3717  151.6234 H   0  0  0  0  0  0  0  0  0  0  0  0
  145.7690  137.7268  156.9935 H   0  0  0  0  0  0  0  0  0  0  0  0
  147.1348  139.9989  151.1224 H   0  0  0  0  0  0  0  0  0  0  0  0
  147.8346  141.7414  152.7699 H   0  0  0  0  0  0  0  0  0  0  0  0
  147.0288  141.6618  154.3143 H   0  0  0  0  0  0  0  0  0  0  0  0
  149.8378  141.5232  153.8130 H   0  0  0  0  0  0  0  0  0  0  0  0
  149.0802  138.8379  155.0102 H   0  0  0  0  0  0  0  0  0  0  0  0
  149.1981  139.0369  153.2726 H   0  0  0  0  0  0  0  0  0  0  0  0
  151.1612  138.4423  154.0480 H   0  0  0  0  0  0  0  0  0  0  0  0
  148.7302  142.4264  155.9028 H   0  0  0  0  0  0  0  0  0  0  0  0
  151.0032  140.4414  156.2953 H   0  0  0  0  0  0  0  0  0  0  0  0
  151.1294  142.2022  156.2976 H   0  0  0  0  0  0  0  0  0  0  0  0
  150.8349  140.8340  158.6289 H   0  0  0  0  0  0  0  0  0  0  0  0
  150.0606  142.4025  158.3939 H   0  0  0  0  0  0  0  0  0  0  0  0
  147.2493  140.7211  156.7647 H   0  0  0  0  0  0  0  0  0  0  0  0
  148.4848  139.4717  156.5920 H   0  0  0  0  0  0  0  0  0  0  0  0
  147.5335  134.9195  154.0712 H   0  0  0  0  0  0  0  0  0  0  0  0
  146.5106  133.5097  154.1653 H   0  0  0  0  0  0  0  0  0  0  0  0
  148.5798  134.0478  152.0039 H   0  0  0  0  0  0  0  0  0  0  0  0
  149.7544  133.5793  154.0395 H   0  0  0  0  0  0  0  0  0  0  0  0
  149.8650  132.1526  153.0195 H   0  0  0  0  0  0  0  0  0  0  0  0
  148.7650  132.1825  154.4025 H   0  0  0  0  0  0  0  0  0  0  0  0
  148.1623  131.9378  151.2486 H   0  0  0  0  0  0  0  0  0  0  0  0
  1  2  1  0  0  0  0
  1 30  1  0  0  0  0
  1 31  1  0  0  0  0
  1 32  1  0  0  0  0
  2  3  1  0  0  0  0
  2 33  1  0  0  0  0
  2 34  1  0  0  0  0
  3 28  1  0  0  0  0
  3  4  1  0  0  0  0
  3 64  1  0  0  0  0
  4  5  1  0  0  0  0
  4 35  1  0  0  0  0
  4 36  1  0  0  0  0
  5  6  1  0  0  0  0
  5 37  1  0  0  0  0
  5 38  1  0  0  0  0
  6  7  1  0  0  0  0
  6 27  1  0  0  0  0
  6 39  1  0  0  0  0
  7  8  1  0  0  0  0
  7  9  1  0  0  0  0
  8 40  1  0  0  0  0
  8 41  1  0  0  0  0
  8 42  1  0  0  0  0
  9 14  1  0  0  0  0
  9 10  2  0  0  0  0
 10 11  1  0  0  0  0
 11 12  2  0  0  0  0
 11 43  1  0  0  0  0
 12 13  1  0  0  0  0
 13 17  1  0  0  0  0
 13 14  2  0  0  0  0
 14 15  1  0  0  0  0
 15 16  2  0  0  0  0
 16 17  1  0  0  0  0
 16 44  1  0  0  0  0
 17 18  1  0  0  0  0
 18 19  1  0  0  0  0
 18 45  1  0  0  0  0
 18 46  1  0  0  0  0
 19 20  1  0  0  0  0
 19 22  1  0  0  0  0
 19 47  1  0  0  0  0
 20 21  1  0  0  0  0
 20 48  1  0  0  0  0
 20 49  1  0  0  0  0
 21 50  1  0  0  0  0
 22 26  1  0  0  0  0
 22 23  1  0  0  0  0
 22 51  1  0  0  0  0
 23 24  1  0  0  0  0
 23 52  1  0  0  0  0
 23 53  1  0  0  0  0
 24 25  1  0  0  0  0
 24 54  1  0  0  0  0
 24 55  1  0  0  0  0
 25 26  1  0  0  0  0
 26 56  1  0  0  0  0
 26 57  1  0  0  0  0
 27 28  1  0  0  0  0
 27 58  1  0  0  0  0
 27 59  1  0  0  0  0
 28 29  1  0  0  0  0
 28 60  1  0  0  0  0
 29 61  1  0  0  0  0
 29 62  1  0  0  0  0
 29 63  1  0  0  0  0
M  CHG  1   3   1
M  END
> <s_m_source_file>
AV-unprocessed.smi

> <i_m_source_file_index>
249

> <i_lp_mmshare_version>
43012

> <i_f3d_flags>
0

> <s_epik_input>
W0NIM11bQ0gyXU4xW0NIMl1bQ0gyXVtDQEhdKFtDSDJdW0NASF0xW0NIM10pTihbQ0gzXSljKG5bY0hdbjIpYyhjMjMpbltjSF1uM1tDSDJdW0NASF0oW0NIMl1bT0hdKVtDQEBIXTRbQ0gyXVtDSDJdT1tDSDJdNA==

> <s_epik_cmdline>
J2VwaWtfcHl0aG9uJywgJy1waCcsICc3LjAnLCAnLXRuJywgJzgnLCAnLW1hJywgJzIwMCcsICctbWV0YWxfYmluZGluZycsICctaW1hZScsICc8aW5maWxlLm1hZT4nLCAnLW9tYWUnLCAnPG91dGZpbGUubWFlPic=

> <r_lp_tautomer_probability>
1

> <r_epik_Ionization_Penalty>
0.00294688

> <r_epik_Ionization_Penalty_Charging>
0.00169971

> <r_epik_Ionization_Penalty_Neutral>
0.00124717

> <r_epik_State_Penalty>
-0

> <r_epik_Charging_Adjusted_Penalty>
0.00169971

> <i_epik_Tot_Q>
1

> <i_epik_Tot_abs_Q>
1

> <r_epik_Metal_State_Penalty>
-0

> <b_epik_Metal_Only>
0

> <s_lp_Force_Field>
OPLS_2005

> <r_lp_Energy>
54.564

> <b_lp_Chiralities_Consistent>
1

> <s_lp_Variant>
AV-unprocessed.smi:249-2

> <Gold.Version>
5.8.1

> <Gold.Id.Protein>
6NUR|6NUR_protein|mol2

> <Gold.PLP.Fitness>
49.0022

> <Gold.PLP.PLP>
-43.7078

> <Gold.PLP.part.hbond>
-2.3170

> <Gold.PLP.part.metal>
0.0000

> <Gold.PLP.part.buried>
-1.9325

> <Gold.PLP.part.nonpolar>
-39.6913

> <Gold.PLP.part.repulsive>
0.4798

> <Gold.PLP.ligand.clash>
0.0000

> <Gold.PLP.ligand.torsion>
1.7168

> <Gold.PLP.Chemscore.Hbond>
2.0000

> <Gold.PLP.Chemscore.CHOScore>
0.5999

> <Gold.PLP.Chemscore.Metal>
0.0000

> <Gold.Chemscore.Hbonds>
donor molecule, donor type, donor heavy atom, donor atom, acceptor molecule, acceptor atom, score
      L1  H     3    64       P1 10747  1.00
      P1  H  7989  7998       L1    21  1.00
      L1  C    16    44       P1  7957  0.56

> <Gold.PLP.Chemscore.Internal.Correction>
0.9284

> <Gold.Rescore>
     Score         DG    S(hbond)    S(metal)    S(lipo)     H(rot)  DE(clash)    DE(int)     intcor
     11.80     -15.37       1.90        0.00      93.82       2.90       0.19       3.37       ----

> <Gold.Chemscore.Fitness>
11.8028

> <Gold.Chemscore.DG>
-15.3667

> <Gold.Chemscore.ZeroCoef>
-5.4800

> <Gold.Chemscore.Hbond>
1.8969

> <Gold.Chemscore.Metal>
0.0000

> <Gold.Chemscore.Lipo>
93.8177

> <Gold.Chemscore.Internal_Hbond>
0.0000

> <Gold.Chemscore.DEClash>
0.1918

> <Gold.Chemscore.DEInternal>
3.3721

> <Gold.Chemscore.Rot>
2.9006

> <Gold.Chemscore.Internal.Correction>
   9.000000E+99

> <Gold.Chemscore.Hbonds>
donor molecule, donor type, donor heavy atom, donor atom, acceptor molecule, acceptor atom, score
      L1  H     3    64       P1 10747  0.99
      P1  H  7989  7998       L1    21  0.44

> <Gold.Chemscore.Hbond.Weighted>
-6.3357

> <Gold.Chemscore.Metal.Weighted>
-0.0000

> <Gold.Chemscore.Lipo.Weighted>
-10.9767

> <Gold.Chemscore.Internal_Hbond.Weighted>
0.0000

> <Gold.Chemscore.DEClash.Weighted>
0.1918

> <Gold.Chemscore.DEInternal.Weighted>
3.3721

> <Gold.Chemscore.Rot.Weighted>
7.4256

> <Gold.Chemscore.Internal.Correction.Weighted>
   9.000000E+99

> <Gold.Protein.RotatedTorsions>
[ 6907 6896 6895 6894 ] final   54.46 input  -60.11 | X-H torsion
[ 7974 7965 7964 7962 ] final -165.20 input  175.53 | X-H torsion
[ 8008 7997 7996 7995 ] final  154.87 input   59.86 | X-H torsion
[ 10167 10162 10161 10158 ] final    9.97 input  -65.29 | X-H torsion
[ 10718 10713 10712 10709 ] final  -93.92 input   66.30 | X-H torsion
[ 10763 10752 10751 10750 ] final  -46.25 input  -60.55 | X-H torsion
[ 11005 11000 10999 10996 ] final   13.97 input  -57.11 | X-H torsion

> <Gold.Protein.ActiveResidues>
 VAL166  LYS551  ARG553  GLY616  TRP617  ASP618  TYR619  PRO620  LYS621  CYS622 
 ASP623  PHE694  ASN695  SER759  ASP760  ASP761  ALA762  ILE779  LEU786  VAL792 
 PHE793  MET794  SER795  GLU796  ALA797  LYS798  CYS799  TRP800  GLU811  SER814 

> <Gold.Protein.RotatedAtoms>
  152.3441  134.7095  160.0255 H   0  0  0  0  0  0  0  0  0  0  0  0  # atno 6907 bound_to 6896
  151.7470  133.3320  159.3389 H   0  0  0  0  0  0  0  0  0  0  0  0  # atno 6908 bound_to 6896
  150.7498  134.6159  159.6155 H   0  0  0  0  0  0  0  0  0  0  0  0  # atno 6909 bound_to 6896
  144.7276  140.2849  143.6230 H   0  0  0  0  0  0  0  0  0  0  0  0  # atno 7974 bound_to 7965
  156.2508  140.1955  156.6713 H   0  0  0  0  0  0  0  0  0  0  0  0  # atno 8008 bound_to 7997
  154.6390  140.0586  156.9849 H   0  0  0  0  0  0  0  0  0  0  0  0  # atno 8009 bound_to 7997
  155.1592  140.3258  155.4417 H   0  0  0  0  0  0  0  0  0  0  0  0  # atno 8010 bound_to 7997
  140.6223  143.8178  150.7190 H   0  0  0  0  0  0  0  0  0  0  0  0  # atno 10167 bound_to 10162
  156.0020  130.5047  150.5849 H   0  0  0  0  0  0  0  0  0  0  0  0  # atno 10718 bound_to 10713
  154.0419  135.6643  153.4791 H   0  0  0  0  0  0  0  0  0  0  0  0  # atno 10763 bound_to 10752
  153.0498  135.5091  154.7834 H   0  0  0  0  0  0  0  0  0  0  0  0  # atno 10764 bound_to 10752
  154.6813  135.3045  154.9575 H   0  0  0  0  0  0  0  0  0  0  0  0  # atno 10765 bound_to 10752
  140.4748  134.0995  155.7739 H   0  0  0  0  0  0  0  0  0  0  0  0  # atno 11005 bound_to 11000
  145.7912  139.1928  143.2102 LP  0  0  0  0  0  0  0  0  0  0  0  0  # atno 17320 bound_to 7965
  146.0754  140.7823  142.9667 LP  0  0  0  0  0  0  0  0  0  0  0  0  # atno 17321 bound_to 7965
  140.1771  143.4146  152.1960 LP  0  0  0  0  0  0  0  0  0  0  0  0  # atno 17342 bound_to 10162
  139.5449  144.7289  151.4615 LP  0  0  0  0  0  0  0  0  0  0  0  0  # atno 17343 bound_to 10162
  157.3723  131.0767  151.1547 LP  0  0  0  0  0  0  0  0  0  0  0  0  # atno 17370 bound_to 10713
  157.2296  130.6519  149.5844 LP  0  0  0  0  0  0  0  0  0  0  0  0  # atno 17371 bound_to 10713
  141.1560  133.8882  157.1976 LP  0  0  0  0  0  0  0  0  0  0  0  0  # atno 17394 bound_to 11000
  139.9863  135.0081  156.9870 LP  0  0  0  0  0  0  0  0  0  0  0  0  # atno 17395 bound_to 11000

$$$$
