AV-unprocessed.smi:48|AV-procd|sdf|450|dock10
  -GOLD-   2262016323D 1   1.00000     0.00000
 Structure written by MMmdl.
 30 32  0  0  0  0  0  0  0  0  1 V2000
  148.4410  138.5713  152.9745 O   0  0  0  0  0  0  0  0  0  0  0  0
  148.0587  138.7860  154.3165 C   0  0  0  0  0  0  0  0  0  0  0  0
  149.2479  138.5264  155.2585 C   0  0  2  0  0  0  0  0  0  0  0  0
  149.1201  139.2783  156.4577 O   0  0  0  0  0  0  0  0  0  0  0  0
  150.3589  139.3339  157.0933 C   0  0  2  0  0  0  0  0  0  0  0  0
  150.5021  140.6801  157.7332 N   0  0  0  0  0  0  0  0  0  0  0  0
  149.6812  141.7408  157.5916 C   0  0  0  0  0  0  0  0  0  0  0  0
  149.9923  142.8523  158.2572 N   0  0  0  0  0  0  0  0  0  0  0  0
  151.1527  142.4678  158.9084 C   0  0  0  0  0  0  0  0  0  0  0  0
  152.0263  143.1474  159.7917 C   0  0  0  0  0  0  0  0  0  0  0  0
  151.7307  144.7849  160.2495 Cl  0  0  0  0  0  0  0  0  0  0  0  0
  153.1041  142.4826  160.2719 N   0  0  0  0  0  0  0  0  0  0  0  0
  153.3105  141.2135  159.8993 C   0  0  0  0  0  0  0  0  0  0  0  0
  152.5804  140.4494  159.0794 N   0  0  0  0  0  0  0  0  0  0  0  0
  151.4926  141.1201  158.5973 C   0  0  0  0  0  0  0  0  0  0  0  0
  151.4455  139.0445  156.0341 C   0  0  2  0  0  0  0  0  0  0  0  0
  152.4903  139.9985  155.9463 O   0  0  0  0  0  0  0  0  0  0  0  0
  150.6463  138.8959  154.7403 C   0  0  2  0  0  0  0  0  0  0  0  0
  150.6156  140.0893  153.9761 O   0  0  0  0  0  0  0  0  0  0  0  0
  149.2504  137.4731  155.5456 H   0  0  0  0  0  0  0  0  0  0  0  0
  150.3867  138.6284  157.9251 H   0  0  0  0  0  0  0  0  0  0  0  0
  151.8876  138.0811  156.2913 H   0  0  0  0  0  0  0  0  0  0  0  0
  151.0568  138.1079  154.1079 H   0  0  0  0  0  0  0  0  0  0  0  0
  148.8599  137.7261  152.9130 H   0  0  0  0  0  0  0  0  0  0  0  0
  147.6656  139.7965  154.4323 H   0  0  0  0  0  0  0  0  0  0  0  0
  147.2437  138.1020  154.5538 H   0  0  0  0  0  0  0  0  0  0  0  0
  148.8019  141.6933  156.9659 H   0  0  0  0  0  0  0  0  0  0  0  0
  154.1873  140.7418  160.3175 H   0  0  0  0  0  0  0  0  0  0  0  0
  152.1053  140.8602  156.0021 H   0  0  0  0  0  0  0  0  0  0  0  0
  150.2696  139.8861  153.1204 H   0  0  0  0  0  0  0  0  0  0  0  0
  1  2  1  0  0  0  0
  1 24  1  0  0  0  0
  2  3  1  0  0  0  0
  2 25  1  0  0  0  0
  2 26  1  0  0  0  0
  3 20  1  0  0  0  0
  3 18  1  0  0  0  0
  3  4  1  0  0  0  0
  4  5  1  0  0  0  0
  5 21  1  0  0  0  0
  5  6  1  0  0  0  0
  5 16  1  0  0  0  0
  6 15  1  0  0  0  0
  6  7  1  0  0  0  0
  7  8  2  0  0  0  0
  7 27  1  0  0  0  0
  8  9  1  0  0  0  0
  9 15  2  0  0  0  0
  9 10  1  0  0  0  0
 10 11  1  0  0  0  0
 10 12  2  0  0  0  0
 12 13  1  0  0  0  0
 13 14  2  0  0  0  0
 13 28  1  0  0  0  0
 14 15  1  0  0  0  0
 16 22  1  0  0  0  0
 16 17  1  0  0  0  0
 16 18  1  0  0  0  0
 17 29  1  0  0  0  0
 18 23  1  0  0  0  0
 18 19  1  0  0  0  0
 19 30  1  0  0  0  0
M  END
> <s_m_source_file>
AV-unprocessed.smi

> <i_m_source_file_index>
48

> <i_lp_mmshare_version>
43012

> <i_f3d_flags>
0

> <s_epik_input>
W09IXVtDSDJdW0NASF0xT1tDQEhdKFtDQEhdKFtPSF0pW0NAQEhdMVtPSF0pbihbY0hdbjIpYyhjMjMpbltjSF1uYzNDbA==

> <s_epik_cmdline>
J2VwaWtfcHl0aG9uJywgJy1waCcsICc3LjAnLCAnLXRuJywgJzgnLCAnLW1hJywgJzIwMCcsICctbWV0YWxfYmluZGluZycsICctaW1hZScsICc8aW5maWxlLm1hZT4nLCAnLW9tYWUnLCAnPG91dGZpbGUubWFlPic=

> <r_lp_tautomer_probability>
1

> <r_epik_Ionization_Penalty>
3.45505e-06

> <r_epik_Ionization_Penalty_Charging>
0

> <r_epik_Ionization_Penalty_Neutral>
3.45505e-06

> <r_epik_State_Penalty>
-0

> <r_epik_Charging_Adjusted_Penalty>
0

> <i_epik_Tot_Q>
0

> <i_epik_Tot_abs_Q>
0

> <r_epik_Metal_State_Penalty>
-0

> <b_epik_Metal_Only>
0

> <s_epik_Chemistry_Notes>
This compound contains an acetal/aminal-like group ( X-CH(R)-Y where X, Y are N, S, or O) that may be acid/base labile, releasing an aldehyde.

> <s_lp_Force_Field>
OPLS_2005

> <r_lp_Energy>
43.6519

> <b_lp_Chiralities_Consistent>
1

> <s_lp_Variant>
AV-unprocessed.smi:48-4

> <Gold.Version>
5.8.1

> <Gold.Id.Protein>
6NUR|6NUR_protein|mol2

> <Gold.PLP.Fitness>
41.3706

> <Gold.PLP.PLP>
-30.5646

> <Gold.PLP.part.hbond>
-4.9431

> <Gold.PLP.part.metal>
0.0000

> <Gold.PLP.part.buried>
-4.9579

> <Gold.PLP.part.nonpolar>
-21.0173

> <Gold.PLP.part.repulsive>
0.1430

> <Gold.PLP.ligand.clash>
0.0000

> <Gold.PLP.ligand.torsion>
0.4403

> <Gold.PLP.Chemscore.Hbond>
3.8953

> <Gold.PLP.Chemscore.CHOScore>
0.0000

> <Gold.PLP.Chemscore.Metal>
0.0000

> <Gold.Chemscore.Hbonds>
donor molecule, donor type, donor heavy atom, donor atom, acceptor molecule, acceptor atom, score
      L1  H     1    24       P1  7948  0.85
      L1  H    19    30       P1  7957  0.91
      P1  H  7989  7998       L1    19  0.37
      P1  H  7997  8010       L1    17  1.00

> <Gold.PLP.Chemscore.Internal.Correction>
0.0006

> <Gold.Rescore>
     Score         DG    S(hbond)    S(metal)    S(lipo)     H(rot)  DE(clash)    DE(int)     intcor
     10.72     -11.34       2.89        0.00      50.82       3.80       0.10       0.52       ----

> <Gold.Chemscore.Fitness>
10.7157

> <Gold.Chemscore.DG>
-11.3353

> <Gold.Chemscore.ZeroCoef>
-5.4800

> <Gold.Chemscore.Hbond>
2.8868

> <Gold.Chemscore.Metal>
0.0000

> <Gold.Chemscore.Lipo>
50.8201

> <Gold.Chemscore.Internal_Hbond>
0.0000

> <Gold.Chemscore.DEClash>
0.0959

> <Gold.Chemscore.DEInternal>
0.5237

> <Gold.Chemscore.Rot>
3.8017

> <Gold.Chemscore.Internal.Correction>
   9.000000E+99

> <Gold.Chemscore.Hbonds>
donor molecule, donor type, donor heavy atom, donor atom, acceptor molecule, acceptor atom, score
      L1  H     1    24       P1  7948  0.83
      L1  H    19    30       P1  7957  0.88
      P1  H  7989  7998       L1    19  0.03
      P1  H  7997  8010       L1    17  0.65

> <Gold.Chemscore.Hbond.Weighted>
-9.6418

> <Gold.Chemscore.Metal.Weighted>
-0.0000

> <Gold.Chemscore.Lipo.Weighted>
-5.9460

> <Gold.Chemscore.Internal_Hbond.Weighted>
0.0000

> <Gold.Chemscore.DEClash.Weighted>
0.0959

> <Gold.Chemscore.DEInternal.Weighted>
0.5237

> <Gold.Chemscore.Rot.Weighted>
9.7324

> <Gold.Chemscore.Internal.Correction.Weighted>
   9.000000E+99

> <Gold.Protein.RotatedTorsions>
[ 6907 6896 6895 6894 ] final  -67.60 input  -60.11 | X-H torsion
[ 7974 7965 7964 7962 ] final  -73.64 input  175.53 | X-H torsion
[ 8008 7997 7996 7995 ] final   80.46 input   59.86 | X-H torsion
[ 10167 10162 10161 10158 ] final  -86.54 input  -65.29 | X-H torsion
[ 10718 10713 10712 10709 ] final -157.57 input   66.30 | X-H torsion
[ 10763 10752 10751 10750 ] final -177.06 input  -60.55 | X-H torsion
[ 11005 11000 10999 10996 ] final  147.95 input  -57.11 | X-H torsion

> <Gold.Protein.ActiveResidues>
 VAL166  LYS551  ARG553  GLY616  TRP617  ASP618  TYR619  PRO620  LYS621  CYS622 
 ASP623  PHE694  ASN695  SER759  ASP760  ASP761  ALA762  ILE779  LEU786  VAL792 
 PHE793  MET794  SER795  GLU796  ALA797  LYS798  CYS799  TRP800  GLU811  SER814 

> <Gold.Protein.RotatedAtoms>
  150.7401  134.5858  159.5961 H   0  0  0  0  0  0  0  0  0  0  0  0  # atno 6907 bound_to 6896
  152.3259  134.7318  160.0311 H   0  0  0  0  0  0  0  0  0  0  0  0  # atno 6908 bound_to 6896
  151.7818  133.3314  159.3510 H   0  0  0  0  0  0  0  0  0  0  0  0  # atno 6909 bound_to 6896
  145.6495  140.9287  143.0992 H   0  0  0  0  0  0  0  0  0  0  0  0  # atno 7974 bound_to 7965
  155.8838  140.3442  155.5907 H   0  0  0  0  0  0  0  0  0  0  0  0  # atno 8008 bound_to 7997
  155.7689  140.0842  157.2137 H   0  0  0  0  0  0  0  0  0  0  0  0  # atno 8009 bound_to 7997
  154.4027  140.1522  156.2906 H   0  0  0  0  0  0  0  0  0  0  0  0  # atno 8010 bound_to 7997
  140.3931  143.2696  151.9238 H   0  0  0  0  0  0  0  0  0  0  0  0  # atno 10167 bound_to 10162
  156.5421  130.8568  151.2752 H   0  0  0  0  0  0  0  0  0  0  0  0  # atno 10718 bound_to 10713
  154.5648  135.2823  155.0885 H   0  0  0  0  0  0  0  0  0  0  0  0  # atno 10763 bound_to 10752
  154.2280  135.6379  153.5170 H   0  0  0  0  0  0  0  0  0  0  0  0  # atno 10764 bound_to 10752
  153.0039  135.5530  154.6253 H   0  0  0  0  0  0  0  0  0  0  0  0  # atno 10765 bound_to 10752
  140.0919  134.9036  157.1663 H   0  0  0  0  0  0  0  0  0  0  0  0  # atno 11005 bound_to 11000
  144.7128  139.8308  143.7409 LP  0  0  0  0  0  0  0  0  0  0  0  0  # atno 17320 bound_to 7965
  146.1215  139.4234  143.0225 LP  0  0  0  0  0  0  0  0  0  0  0  0  # atno 17321 bound_to 7965
  139.4788  144.5707  151.8092 LP  0  0  0  0  0  0  0  0  0  0  0  0  # atno 17342 bound_to 10162
  140.4818  144.1438  150.5934 LP  0  0  0  0  0  0  0  0  0  0  0  0  # atno 17343 bound_to 10162
  157.7403  130.9848  150.2371 LP  0  0  0  0  0  0  0  0  0  0  0  0  # atno 17370 bound_to 10713
  156.2962  130.3752  149.7794 LP  0  0  0  0  0  0  0  0  0  0  0  0  # atno 17371 bound_to 10713
  140.3341  134.2777  155.7223 LP  0  0  0  0  0  0  0  0  0  0  0  0  # atno 17394 bound_to 11000
  141.2080  133.7789  157.0084 LP  0  0  0  0  0  0  0  0  0  0  0  0  # atno 17395 bound_to 11000

$$$$
