AV-unprocessed.smi:1695|AV-procd|sdf|6794|dock6
  -GOLD-   22720 7553D 1   1.00000     0.00000
 Structure written by MMmdl.
 52 54  0  0  0  0  0  0  0  0  3 V2000
  152.3412  141.1503  158.6946 C   0  0  0  0  0  0  0  0  0  0  0  0
  151.3912  140.7677  157.5724 C   0  0  0  0  0  0  0  0  0  0  0  0
  150.7061  141.7973  156.8882 C   0  0  0  0  0  0  0  0  0  0  0  0
  149.8429  141.4155  155.8681 C   0  0  0  0  0  0  0  0  0  0  0  0
  149.0361  142.1755  155.0181 N   0  3  0  0  0  0  0  0  0  0  0  0
  148.3612  141.3489  154.1719 C   0  0  0  0  0  0  0  0  0  0  0  0
  148.7207  140.0712  154.4738 N   0  0  0  0  0  0  0  0  0  0  0  0
  148.2938  138.8009  153.8720 C   0  0  0  0  0  0  0  0  0  0  0  0
  147.0651  138.9538  152.9533 C   0  0  1  0  0  0  0  0  0  0  0  0
  147.4665  138.7802  151.6081 O   0  0  0  0  0  0  0  0  0  0  0  0
  145.9741  137.9160  153.2832 C   0  0  0  0  0  0  0  0  0  0  0  0
  146.2331  136.5946  152.6553 N   0  3  1  0  0  0  0  0  0  0  0  0
  145.9370  135.4678  153.5761 C   0  0  0  0  0  0  0  0  0  0  0  0
  146.3539  134.1177  152.9615 C   0  0  0  0  0  0  0  0  0  0  0  0
  145.7331  133.8625  151.5720 C   0  0  1  0  0  0  0  0  0  0  0  0
  144.2523  133.4459  151.6480 C   0  0  0  0  0  0  0  0  0  0  0  0
  143.6447  133.5828  152.8292 N   0  0  0  0  0  0  0  0  0  0  0  0
  143.6603  133.0071  150.6644 O   0  0  0  0  0  0  0  0  0  0  0  0
  145.9629  135.0963  150.6735 C   0  0  0  0  0  0  0  0  0  0  0  0
  145.5555  136.4232  151.3429 C   0  0  0  0  0  0  0  0  0  0  0  0
  149.6485  140.0646  155.5209 C   0  0  0  0  0  0  0  0  0  0  0  0
  150.3176  139.0377  156.1825 C   0  0  0  0  0  0  0  0  0  0  0  0
  151.1996  139.4056  157.2235 C   0  0  0  0  0  0  0  0  0  0  0  0
  151.9421  138.3077  157.9661 C   0  0  0  0  0  0  0  0  0  0  0  0
  152.3850  142.2315  158.8297 H   0  0  0  0  0  0  0  0  0  0  0  0
  153.3511  140.8006  158.4784 H   0  0  0  0  0  0  0  0  0  0  0  0
  152.0163  140.7100  159.6375 H   0  0  0  0  0  0  0  0  0  0  0  0
  150.8480  142.8364  157.1480 H   0  0  0  0  0  0  0  0  0  0  0  0
  147.6651  141.6523  153.4028 H   0  0  0  0  0  0  0  0  0  0  0  0
  149.1411  138.4040  153.3107 H   0  0  0  0  0  0  0  0  0  0  0  0
  148.0952  138.0907  154.6759 H   0  0  0  0  0  0  0  0  0  0  0  0
  146.6730  139.9641  153.0596 H   0  0  0  0  0  0  0  0  0  0  0  0
  148.0389  139.4942  151.3707 H   0  0  0  0  0  0  0  0  0  0  0  0
  145.9224  137.8062  154.3680 H   0  0  0  0  0  0  0  0  0  0  0  0
  144.9929  138.2764  152.9696 H   0  0  0  0  0  0  0  0  0  0  0  0
  146.4828  135.6085  154.5097 H   0  0  0  0  0  0  0  0  0  0  0  0
  144.8778  135.4717  153.8344 H   0  0  0  0  0  0  0  0  0  0  0  0
  147.4406  134.0930  152.8703 H   0  0  0  0  0  0  0  0  0  0  0  0
  146.0964  133.3075  153.6453 H   0  0  0  0  0  0  0  0  0  0  0  0
  146.2732  133.0273  151.1227 H   0  0  0  0  0  0  0  0  0  0  0  0
  142.6741  133.3243  152.9337 H   0  0  0  0  0  0  0  0  0  0  0  0
  144.1603  133.9461  153.6180 H   0  0  0  0  0  0  0  0  0  0  0  0
  147.0201  135.1464  150.4091 H   0  0  0  0  0  0  0  0  0  0  0  0
  145.4272  134.9818  149.7300 H   0  0  0  0  0  0  0  0  0  0  0  0
  144.4749  136.4758  151.4767 H   0  0  0  0  0  0  0  0  0  0  0  0
  145.8182  137.2409  150.6735 H   0  0  0  0  0  0  0  0  0  0  0  0
  150.1727  138.0011  155.9164 H   0  0  0  0  0  0  0  0  0  0  0  0
  151.6824  137.3203  157.5832 H   0  0  0  0  0  0  0  0  0  0  0  0
  151.6948  138.3283  159.0276 H   0  0  0  0  0  0  0  0  0  0  0  0
  153.0197  138.4337  157.8584 H   0  0  0  0  0  0  0  0  0  0  0  0
  147.2276  136.5579  152.4822 H   0  0  0  0  0  0  0  0  0  0  0  0
  148.9530  143.1843  155.0118 H   0  0  0  0  0  0  0  0  0  0  0  0
  1  2  1  0  0  0  0
  1 25  1  0  0  0  0
  1 26  1  0  0  0  0
  1 27  1  0  0  0  0
  2 23  1  0  0  0  0
  2  3  2  0  0  0  0
  3  4  1  0  0  0  0
  3 28  1  0  0  0  0
  4 21  2  0  0  0  0
  4  5  1  0  0  0  0
  5  6  2  0  0  0  0
  5 52  1  0  0  0  0
  6  7  1  0  0  0  0
  6 29  1  0  0  0  0
  7  8  1  0  0  0  0
  7 21  1  0  0  0  0
  8  9  1  0  0  0  0
  8 30  1  0  0  0  0
  8 31  1  0  0  0  0
  9 10  1  0  0  0  0
  9 11  1  0  0  0  0
  9 32  1  0  0  0  0
 10 33  1  0  0  0  0
 11 12  1  0  0  0  0
 11 34  1  0  0  0  0
 11 35  1  0  0  0  0
 12 20  1  0  0  0  0
 12 13  1  0  0  0  0
 12 51  1  0  0  0  0
 13 14  1  0  0  0  0
 13 36  1  0  0  0  0
 13 37  1  0  0  0  0
 14 15  1  0  0  0  0
 14 38  1  0  0  0  0
 14 39  1  0  0  0  0
 15 16  1  0  0  0  0
 15 19  1  0  0  0  0
 15 40  1  0  0  0  0
 16 17  1  0  0  0  0
 16 18  2  0  0  0  0
 17 41  1  0  0  0  0
 17 42  1  0  0  0  0
 19 20  1  0  0  0  0
 19 43  1  0  0  0  0
 19 44  1  0  0  0  0
 20 45  1  0  0  0  0
 20 46  1  0  0  0  0
 21 22  1  0  0  0  0
 22 23  2  0  0  0  0
 22 47  1  0  0  0  0
 23 24  1  0  0  0  0
 24 48  1  0  0  0  0
 24 49  1  0  0  0  0
 24 50  1  0  0  0  0
M  CHG  1   5   1
M  CHG  1  12   1
M  END
> <s_m_source_file>
AV-unprocessed.smi

> <i_m_source_file_index>
1695

> <i_lp_mmshare_version>
43012

> <i_f3d_flags>
0

> <s_epik_input>
W0NIM11jKFtjSF0xKWMoW0NIM10pW2NIXWMoYzEyKW4oW2NIXW4yKVtDSDJdW0NASF0oW09IXSlbQ0gyXU4zW0NIMl1bQ0gyXVtDSF0oQyg9TylbTkgyXSlbQ0gyXVtDSDJdMw==

> <s_epik_cmdline>
J2VwaWtfcHl0aG9uJywgJy1waCcsICc3LjAnLCAnLXRuJywgJzgnLCAnLW1hJywgJzIwMCcsICctbWV0YWxfYmluZGluZycsICctaW1hZScsICc8aW5maWxlLm1hZT4nLCAnLW9tYWUnLCAnPG91dGZpbGUubWFlPic=

> <r_epik_Ionization_Penalty>
1.20173

> <r_epik_Ionization_Penalty_Charging>
1.20172

> <r_epik_Ionization_Penalty_Neutral>
1.7852e-06

> <r_epik_State_Penalty>
1.28089

> <r_epik_Charging_Adjusted_Penalty>
2.48261

> <i_epik_Tot_Q>
2

> <i_epik_Tot_abs_Q>
2

> <r_epik_Metal_State_Penalty>
1.35652

> <b_epik_Metal_Only>
0

> <s_lp_Force_Field>
OPLS_2005

> <r_lp_Energy>
25.0715

> <b_lp_Chiralities_Consistent>
1

> <s_lp_Variant>
AV-unprocessed.smi:1695-6

> <Gold.Version>
5.8.1

> <Gold.Id.Protein>
6NUR|6NUR_protein|mol2

> <Gold.PLP.Fitness>
51.5917

> <Gold.PLP.PLP>
-39.5981

> <Gold.PLP.part.hbond>
-5.9174

> <Gold.PLP.part.metal>
0.0000

> <Gold.PLP.part.buried>
-4.7027

> <Gold.PLP.part.nonpolar>
-29.5833

> <Gold.PLP.part.repulsive>
0.4609

> <Gold.PLP.ligand.clash>
0.0000

> <Gold.PLP.ligand.torsion>
1.7340

> <Gold.PLP.Chemscore.Hbond>
5.1371

> <Gold.PLP.Chemscore.CHOScore>
0.0000

> <Gold.PLP.Chemscore.Metal>
0.0000

> <Gold.Chemscore.Hbonds>
donor molecule, donor type, donor heavy atom, donor atom, acceptor molecule, acceptor atom, score
      L1  H     5    52       P1  8028  2.00
      L1  H    10    33       P1  7957  0.96
      L1  H    12    51       P1  7948  2.00
      L1  H    17    41       P1 10957  0.01
      P1  H  7954  7966       L1    10  0.17

> <Gold.PLP.Chemscore.Internal.Correction>
0.0501

> <Gold.Rescore>
     Score         DG    S(hbond)    S(metal)    S(lipo)     H(rot)  DE(clash)    DE(int)     intcor
     17.97     -20.82       3.79        0.00      86.60       2.91       0.07       2.79       ----

> <Gold.Chemscore.Fitness>
17.9715

> <Gold.Chemscore.DG>
-20.8243

> <Gold.Chemscore.ZeroCoef>
-5.4800

> <Gold.Chemscore.Hbond>
3.7929

> <Gold.Chemscore.Metal>
0.0000

> <Gold.Chemscore.Lipo>
86.6013

> <Gold.Chemscore.Internal_Hbond>
0.0000

> <Gold.Chemscore.DEClash>
0.0673

> <Gold.Chemscore.DEInternal>
2.7855

> <Gold.Chemscore.Rot>
2.9127

> <Gold.Chemscore.Internal.Correction>
   9.000000E+99

> <Gold.Chemscore.Hbonds>
donor molecule, donor type, donor heavy atom, donor atom, acceptor molecule, acceptor atom, score
      L1  H     5    52       P1  8028  0.99
      L1  H    10    33       P1  7957  0.88
      L1  H    12    51       P1  7948  1.00
      L1  H    17    41       P1 10957  0.01

> <Gold.Chemscore.Hbond.Weighted>
-12.6684

> <Gold.Chemscore.Metal.Weighted>
-0.0000

> <Gold.Chemscore.Lipo.Weighted>
-10.1324

> <Gold.Chemscore.Internal_Hbond.Weighted>
0.0000

> <Gold.Chemscore.DEClash.Weighted>
0.0673

> <Gold.Chemscore.DEInternal.Weighted>
2.7855

> <Gold.Chemscore.Rot.Weighted>
7.4565

> <Gold.Chemscore.Internal.Correction.Weighted>
   9.000000E+99

> <Gold.Protein.RotatedTorsions>
[ 6907 6896 6895 6894 ] final   45.81 input  -60.11 | X-H torsion
[ 7974 7965 7964 7962 ] final   75.89 input  175.53 | X-H torsion
[ 8008 7997 7996 7995 ] final  -89.11 input   59.86 | X-H torsion
[ 10167 10162 10161 10158 ] final  155.70 input  -65.29 | X-H torsion
[ 10718 10713 10712 10709 ] final   65.77 input   66.30 | X-H torsion
[ 10763 10752 10751 10750 ] final  138.02 input  -60.55 | X-H torsion
[ 11005 11000 10999 10996 ] final  -53.61 input  -57.11 | X-H torsion

> <Gold.Protein.ActiveResidues>
 VAL166  LYS551  ARG553  GLY616  TRP617  ASP618  TYR619  PRO620  LYS621  CYS622 
 ASP623  PHE694  ASN695  SER759  ASP760  ASP761  ALA762  ILE779  LEU786  VAL792 
 PHE793  MET794  SER795  GLU796  ALA797  LYS798  CYS799  TRP800  GLU811  SER814 

> <Gold.Protein.RotatedAtoms>
  152.2489  134.8153  160.0448 H   0  0  0  0  0  0  0  0  0  0  0  0  # atno 6907 bound_to 6896
  151.8840  133.3496  159.3784 H   0  0  0  0  0  0  0  0  0  0  0  0  # atno 6908 bound_to 6896
  150.7077  134.4917  159.5563 H   0  0  0  0  0  0  0  0  0  0  0  0  # atno 6909 bound_to 6896
  145.7099  139.2611  143.1657 H   0  0  0  0  0  0  0  0  0  0  0  0  # atno 7974 bound_to 7965
  154.6827  140.0545  157.0282 H   0  0  0  0  0  0  0  0  0  0  0  0  # atno 8008 bound_to 7997
  155.0928  140.3221  155.4550 H   0  0  0  0  0  0  0  0  0  0  0  0  # atno 8009 bound_to 7997
  156.2700  140.2045  156.6055 H   0  0  0  0  0  0  0  0  0  0  0  0  # atno 8010 bound_to 7997
  139.4821  144.5075  151.8076 H   0  0  0  0  0  0  0  0  0  0  0  0  # atno 10167 bound_to 10162
  157.6127  130.9232  150.0021 H   0  0  0  0  0  0  0  0  0  0  0  0  # atno 10718 bound_to 10713
  153.8827  135.3042  155.3445 H   0  0  0  0  0  0  0  0  0  0  0  0  # atno 10763 bound_to 10752
  154.7754  135.4864  153.9736 H   0  0  0  0  0  0  0  0  0  0  0  0  # atno 10764 bound_to 10752
  153.1342  135.6810  153.9226 H   0  0  0  0  0  0  0  0  0  0  0  0  # atno 10765 bound_to 10752
  141.0984  133.6621  156.4197 H   0  0  0  0  0  0  0  0  0  0  0  0  # atno 11005 bound_to 11000
  146.0722  140.7856  142.9682 LP  0  0  0  0  0  0  0  0  0  0  0  0  # atno 17320 bound_to 7965
  144.6945  140.3360  143.7207 LP  0  0  0  0  0  0  0  0  0  0  0  0  # atno 17321 bound_to 7965
  140.4574  144.1770  150.5903 LP  0  0  0  0  0  0  0  0  0  0  0  0  # atno 17342 bound_to 10162
  140.4521  143.2482  151.9334 LP  0  0  0  0  0  0  0  0  0  0  0  0  # atno 17343 bound_to 10162
  156.1236  130.3645  149.9846 LP  0  0  0  0  0  0  0  0  0  0  0  0  # atno 17370 bound_to 10713
  156.7921  130.9260  151.3646 LP  0  0  0  0  0  0  0  0  0  0  0  0  # atno 17371 bound_to 10713
  140.5082  134.6420  157.5274 LP  0  0  0  0  0  0  0  0  0  0  0  0  # atno 17394 bound_to 11000
  139.9828  134.7110  155.9828 LP  0  0  0  0  0  0  0  0  0  0  0  0  # atno 17395 bound_to 11000

$$$$
