AV-unprocessed.smi:66|AV-procd|sdf|618|dock1
  -GOLD-   2262016513D 1   1.00000     0.00000
 Structure written by MMmdl.
 28 30  0  0  0  0  0  0  0  0  2 V2000
  154.1427  139.7650  158.8609 O   0  0  0  0  0  0  0  0  0  0  0  0
  153.3014  140.4100  159.5234 C   0  0  0  0  0  0  0  0  0  0  0  0
  153.4716  140.8458  160.6841 O   0  5  0  0  0  0  0  0  0  0  0  0
  151.9481  140.6792  158.8489 C   0  0  1  0  0  0  0  0  0  0  0  0
  151.5481  142.1617  158.9356 C   0  0  0  0  0  0  0  0  0  0  0  0
  150.6642  142.3548  157.7076 C   0  0  1  0  0  0  0  0  0  0  0  0
  150.5755  143.7053  157.3054 O   0  0  0  0  0  0  0  0  0  0  0  0
  151.3372  141.4746  156.6553 C   0  0  0  0  0  0  0  0  0  0  0  0
  151.9678  140.3987  157.4095 N   0  0  0  0  0  0  0  0  0  0  0  0
  151.9776  139.1349  156.9086 C   0  0  0  0  0  0  0  0  0  0  0  0
  152.5009  138.1252  157.6543 N   0  0  0  0  0  0  0  0  0  0  0  0
  152.5230  136.8739  157.1864 C   0  0  0  0  0  0  0  0  0  0  0  0
  152.0807  136.4123  156.0150 N   0  0  0  0  0  0  0  0  0  0  0  0
  151.5600  137.4195  155.2609 C   0  0  0  0  0  0  0  0  0  0  0  0
  151.0152  137.3379  153.9974 N   0  0  0  0  0  0  0  0  0  0  0  0
  150.6399  138.6154  153.6633 C   0  0  0  0  0  0  0  0  0  0  0  0
  150.8856  139.5128  154.5792 N   0  0  0  0  0  0  0  0  0  0  0  0
  151.4676  138.7943  155.6215 C   0  0  0  0  0  0  0  0  0  0  0  0
  150.9389  136.4794  153.4716 H   0  0  0  0  0  0  0  0  0  0  0  0
  151.1728  140.0728  159.3199 H   0  0  0  0  0  0  0  0  0  0  0  0
  151.0300  142.4004  159.8648 H   0  0  0  0  0  0  0  0  0  0  0  0
  152.4251  142.8086  158.8668 H   0  0  0  0  0  0  0  0  0  0  0  0
  149.6641  141.9733  157.9183 H   0  0  0  0  0  0  0  0  0  0  0  0
  149.7864  143.8123  156.7964 H   0  0  0  0  0  0  0  0  0  0  0  0
  150.6083  141.1187  155.9260 H   0  0  0  0  0  0  0  0  0  0  0  0
  152.1176  142.0194  156.1224 H   0  0  0  0  0  0  0  0  0  0  0  0
  152.9578  136.1382  157.8465 H   0  0  0  0  0  0  0  0  0  0  0  0
  150.1799  138.8605  152.7172 H   0  0  0  0  0  0  0  0  0  0  0  0
  1  2  2  0  0  0  0
  2  3  1  0  0  0  0
  2  4  1  0  0  0  0
  4  5  1  0  0  0  0
  4 20  1  0  0  0  0
  4  9  1  0  0  0  0
  5  6  1  0  0  0  0
  5 21  1  0  0  0  0
  5 22  1  0  0  0  0
  6  7  1  0  0  0  0
  6  8  1  0  0  0  0
  6 23  1  0  0  0  0
  7 24  1  0  0  0  0
  8 25  1  0  0  0  0
  8 26  1  0  0  0  0
  8  9  1  0  0  0  0
  9 10  1  0  0  0  0
 10 11  1  0  0  0  0
 10 18  2  0  0  0  0
 11 12  2  0  0  0  0
 12 27  1  0  0  0  0
 12 13  1  0  0  0  0
 13 14  2  0  0  0  0
 14 15  1  0  0  0  0
 14 18  1  0  0  0  0
 15 16  1  0  0  0  0
 15 19  1  0  0  0  0
 16 17  2  0  0  0  0
 16 28  1  0  0  0  0
 17 18  1  0  0  0  0
M  CHG  1   3  -1
M  END
> <s_m_source_file>
AV-unprocessed.smi

> <i_m_source_file_index>
66

> <i_lp_mmshare_version>
43012

> <i_f3d_flags>
0

> <s_epik_input>
Tz1DKFtPSF0pW0NAQEhdMVtDSDJdW0NAQEhdKFtPSF0pW0NIMl1OMWMobltjSF1uMiljKGMyMylbbkhdW2NIXW4z

> <s_epik_cmdline>
J2VwaWtfcHl0aG9uJywgJy1waCcsICc3LjAnLCAnLXRuJywgJzgnLCAnLW1hJywgJzIwMCcsICctbWV0YWxfYmluZGluZycsICctaW1hZScsICc8aW5maWxlLm1hZT4nLCAnLW9tYWUnLCAnPG91dGZpbGUubWFlPic=

> <r_lp_tautomer_probability>
0.955585

> <r_epik_Ionization_Penalty>
0.00455415

> <r_epik_Ionization_Penalty_Charging>
0.000248217

> <r_epik_Ionization_Penalty_Neutral>
0.00430593

> <r_epik_State_Penalty>
0.0207074

> <r_epik_Charging_Adjusted_Penalty>
0.0209557

> <i_epik_Tot_Q>
-1

> <i_epik_Tot_abs_Q>
1

> <r_epik_Metal_State_Penalty>
0.337372

> <b_epik_Metal_Only>
0

> <s_lp_Force_Field>
OPLS_2005

> <r_lp_Energy>
25.5493

> <b_lp_Chiralities_Consistent>
1

> <s_lp_Variant>
AV-unprocessed.smi:66-2

> <Gold.Version>
5.8.1

> <Gold.Id.Protein>
6NUR|6NUR_protein|mol2

> <Gold.PLP.Fitness>
44.3212

> <Gold.PLP.PLP>
-25.8122

> <Gold.PLP.part.hbond>
-5.6210

> <Gold.PLP.part.metal>
0.0000

> <Gold.PLP.part.buried>
-4.8894

> <Gold.PLP.part.nonpolar>
-14.9819

> <Gold.PLP.part.repulsive>
0.2045

> <Gold.PLP.ligand.clash>
0.0000

> <Gold.PLP.ligand.torsion>
0.3950

> <Gold.PLP.Chemscore.Hbond>
5.3380

> <Gold.PLP.Chemscore.CHOScore>
1.0231

> <Gold.PLP.Chemscore.Metal>
0.0000

> <Gold.Chemscore.Hbonds>
donor molecule, donor type, donor heavy atom, donor atom, acceptor molecule, acceptor atom, score
      L1  H     7    24       P1  8028  0.96
      L1  H    15    19       P1  7949  0.58
      P1  H  7989  7998       L1    17  0.95
      P1  H  7997  8008       L1     1  1.95
      P1  H 10752 10764       L1    13  1.00
      L1  C    16    28       P1  7957  0.96

> <Gold.PLP.Chemscore.Internal.Correction>
0.2158

> <Gold.Rescore>
     Score         DG    S(hbond)    S(metal)    S(lipo)     H(rot)  DE(clash)    DE(int)     intcor
      9.07     -14.41       2.80        0.00      35.60       1.78       0.30       5.04       ----

> <Gold.Chemscore.Fitness>
9.0697

> <Gold.Chemscore.DG>
-14.4148

> <Gold.Chemscore.ZeroCoef>
-5.4800

> <Gold.Chemscore.Hbond>
2.7957

> <Gold.Chemscore.Metal>
0.0000

> <Gold.Chemscore.Lipo>
35.5977

> <Gold.Chemscore.Internal_Hbond>
0.0000

> <Gold.Chemscore.DEClash>
0.3043

> <Gold.Chemscore.DEInternal>
5.0408

> <Gold.Chemscore.Rot>
1.7842

> <Gold.Chemscore.Internal.Correction>
   9.000000E+99

> <Gold.Chemscore.Hbonds>
donor molecule, donor type, donor heavy atom, donor atom, acceptor molecule, acceptor atom, score
      L1  H     7    24       P1  8028  0.91
      L1  H    15    19       P1  7949  0.11
      P1  H  7989  7998       L1    17  0.22
      P1  H  7997  8008       L1     1  0.92
      P1  H 10752 10764       L1    13  0.39

> <Gold.Chemscore.Hbond.Weighted>
-9.3375

> <Gold.Chemscore.Metal.Weighted>
-0.0000

> <Gold.Chemscore.Lipo.Weighted>
-4.1649

> <Gold.Chemscore.Internal_Hbond.Weighted>
0.0000

> <Gold.Chemscore.DEClash.Weighted>
0.3043

> <Gold.Chemscore.DEInternal.Weighted>
5.0408

> <Gold.Chemscore.Rot.Weighted>
4.5676

> <Gold.Chemscore.Internal.Correction.Weighted>
   9.000000E+99

> <Gold.Protein.RotatedTorsions>
[ 6907 6896 6895 6894 ] final  163.20 input  -60.11 | X-H torsion
[ 7974 7965 7964 7962 ] final  106.99 input  175.53 | X-H torsion
[ 8008 7997 7996 7995 ] final -124.75 input   59.86 | X-H torsion
[ 10167 10162 10161 10158 ] final   88.70 input  -65.29 | X-H torsion
[ 10718 10713 10712 10709 ] final   19.61 input   66.30 | X-H torsion
[ 10763 10752 10751 10750 ] final  -41.91 input  -60.55 | X-H torsion
[ 11005 11000 10999 10996 ] final  108.82 input  -57.11 | X-H torsion

> <Gold.Protein.ActiveResidues>
 VAL166  LYS551  ARG553  GLY616  TRP617  ASP618  TYR619  PRO620  LYS621  CYS622 
 ASP623  PHE694  ASN695  SER759  ASP760  ASP761  ALA762  ILE779  LEU786  VAL792 
 PHE793  MET794  SER795  GLU796  ALA797  LYS798  CYS799  TRP800  GLU811  SER814 

> <Gold.Protein.RotatedAtoms>
  151.9289  133.3605  159.3923 H   0  0  0  0  0  0  0  0  0  0  0  0  # atno 6907 bound_to 6896
  150.7021  134.4558  159.5367 H   0  0  0  0  0  0  0  0  0  0  0  0  # atno 6908 bound_to 6896
  152.2195  134.8426  160.0538 H   0  0  0  0  0  0  0  0  0  0  0  0  # atno 6909 bound_to 6896
  145.2994  139.2574  143.3822 H   0  0  0  0  0  0  0  0  0  0  0  0  # atno 7974 bound_to 7965
  155.2020  140.0416  157.2919 H   0  0  0  0  0  0  0  0  0  0  0  0  # atno 8008 bound_to 7997
  154.6068  140.2466  155.7692 H   0  0  0  0  0  0  0  0  0  0  0  0  # atno 8009 bound_to 7997
  156.2355  140.2923  156.0310 H   0  0  0  0  0  0  0  0  0  0  0  0  # atno 8010 bound_to 7997
  139.8646  144.6526  150.9019 H   0  0  0  0  0  0  0  0  0  0  0  0  # atno 10167 bound_to 10162
  157.1129  130.6516  149.5902 H   0  0  0  0  0  0  0  0  0  0  0  0  # atno 10718 bound_to 10713
  153.9704  135.6729  153.4747 H   0  0  0  0  0  0  0  0  0  0  0  0  # atno 10763 bound_to 10752
  153.0795  135.4930  154.8471 H   0  0  0  0  0  0  0  0  0  0  0  0  # atno 10764 bound_to 10752
  154.7222  135.3119  154.8989 H   0  0  0  0  0  0  0  0  0  0  0  0  # atno 10765 bound_to 10752
  139.8851  134.9441  156.6030 H   0  0  0  0  0  0  0  0  0  0  0  0  # atno 11005 bound_to 11000
  146.3157  140.3504  142.8655 LP  0  0  0  0  0  0  0  0  0  0  0  0  # atno 17320 bound_to 7965
  144.9106  140.7753  143.5810 LP  0  0  0  0  0  0  0  0  0  0  0  0  # atno 17321 bound_to 7965
  140.7770  143.3715  151.1641 LP  0  0  0  0  0  0  0  0  0  0  0  0  # atno 17342 bound_to 10162
  139.7341  143.9026  152.3029 LP  0  0  0  0  0  0  0  0  0  0  0  0  # atno 17343 bound_to 10162
  155.9846  130.4872  150.6992 LP  0  0  0  0  0  0  0  0  0  0  0  0  # atno 17370 bound_to 10713
  157.4544  131.0876  151.0812 LP  0  0  0  0  0  0  0  0  0  0  0  0  # atno 17371 bound_to 10713
  140.7869  133.8614  155.8613 LP  0  0  0  0  0  0  0  0  0  0  0  0  # atno 17394 bound_to 11000
  140.9711  134.1529  157.4575 LP  0  0  0  0  0  0  0  0  0  0  0  0  # atno 17395 bound_to 11000

$$$$
