AV-unprocessed.smi:1667|AV-procd|sdf|6680|dock8
  -GOLD-   22720 7393D 1   1.00000     0.00000
 Structure written by MMmdl.
 46 48  0  0  0  0  0  0  0  0  2 V2000
  150.4959  134.8504  156.7698 C   0  0  0  0  0  0  0  0  0  0  0  0
  150.4093  135.8301  155.6052 C   0  0  0  0  0  0  0  0  0  0  0  0
  149.4388  135.8077  154.8509 O   0  0  0  0  0  0  0  0  0  0  0  0
  151.4303  136.6905  155.4730 N   0  0  0  0  0  0  0  0  0  0  0  0
  151.5750  137.6805  154.4069 C   0  0  2  0  0  0  0  0  0  0  0  0
  152.9063  138.4228  154.5900 C   0  0  0  0  0  0  0  0  0  0  0  0
  150.4354  138.6596  154.3424 C   0  0  0  0  0  0  0  0  0  0  0  0
  149.3018  138.5288  153.5934 N   0  3  0  0  0  0  0  0  0  0  0  0
  148.4583  139.6171  153.8112 C   0  0  0  0  0  0  0  0  0  0  0  0
  147.2110  139.9242  153.2766 C   0  0  0  0  0  0  0  0  0  0  0  0
  146.6086  141.1188  153.7228 C   0  0  0  0  0  0  0  0  0  0  0  0
  147.2432  141.9532  154.6658 C   0  0  0  0  0  0  0  0  0  0  0  0
  148.5083  141.6307  155.1998 C   0  0  0  0  0  0  0  0  0  0  0  0
  149.1000  140.4509  154.7484 C   0  0  0  0  0  0  0  0  0  0  0  0
  150.3179  139.8271  155.0425 N   0  0  0  0  0  0  0  0  0  0  0  0
  151.2247  140.4580  156.0159 C   0  0  0  0  0  0  0  0  0  0  0  0
  150.5176  140.9055  157.3122 C   0  0  1  0  0  0  0  0  0  0  0  0
  149.9617  139.7584  157.9196 O   0  0  0  0  0  0  0  0  0  0  0  0
  151.4369  141.6616  158.2600 C   0  0  0  0  0  0  0  0  0  0  0  0
  152.4752  140.9908  158.9433 C   0  0  0  0  0  0  0  0  0  0  0  0
  153.3138  141.6958  159.8282 C   0  0  0  0  0  0  0  0  0  0  0  0
  153.1156  143.0736  160.0396 C   0  0  0  0  0  0  0  0  0  0  0  0
  152.0836  143.7482  159.3591 C   0  0  0  0  0  0  0  0  0  0  0  0
  151.8961  145.0746  159.5562 F   0  0  0  0  0  0  0  0  0  0  0  0
  151.2494  143.0448  158.4687 C   0  0  0  0  0  0  0  0  0  0  0  0
  151.6132  137.1401  153.4606 H   0  0  0  0  0  0  0  0  0  0  0  0
  150.7675  135.3680  157.6903 H   0  0  0  0  0  0  0  0  0  0  0  0
  151.2478  134.0876  156.5663 H   0  0  0  0  0  0  0  0  0  0  0  0
  149.5382  134.3531  156.9290 H   0  0  0  0  0  0  0  0  0  0  0  0
  152.1836  136.6332  156.1430 H   0  0  0  0  0  0  0  0  0  0  0  0
  153.0835  139.1278  153.7777 H   0  0  0  0  0  0  0  0  0  0  0  0
  153.7456  137.7267  154.6065 H   0  0  0  0  0  0  0  0  0  0  0  0
  152.9217  138.9854  155.5242 H   0  0  0  0  0  0  0  0  0  0  0  0
  146.7213  139.2840  152.5576 H   0  0  0  0  0  0  0  0  0  0  0  0
  145.6393  141.3989  153.3364 H   0  0  0  0  0  0  0  0  0  0  0  0
  146.7494  142.8587  154.9871 H   0  0  0  0  0  0  0  0  0  0  0  0
  148.9845  142.2759  155.9233 H   0  0  0  0  0  0  0  0  0  0  0  0
  152.0178  139.7423  156.2381 H   0  0  0  0  0  0  0  0  0  0  0  0
  151.7090  141.3071  155.5339 H   0  0  0  0  0  0  0  0  0  0  0  0
  149.6757  141.5512  157.0622 H   0  0  0  0  0  0  0  0  0  0  0  0
  150.5376  139.4786  158.6150 H   0  0  0  0  0  0  0  0  0  0  0  0
  152.6318  139.9330  158.7895 H   0  0  0  0  0  0  0  0  0  0  0  0
  154.1079  141.1793  160.3472 H   0  0  0  0  0  0  0  0  0  0  0  0
  153.7581  143.6141  160.7190 H   0  0  0  0  0  0  0  0  0  0  0  0
  150.4626  143.5717  157.9491 H   0  0  0  0  0  0  0  0  0  0  0  0
  149.1255  137.7486  152.9739 H   0  0  0  0  0  0  0  0  0  0  0  0
  1  2  1  0  0  0  0
  1 27  1  0  0  0  0
  1 28  1  0  0  0  0
  1 29  1  0  0  0  0
  2  3  2  0  0  0  0
  2  4  1  0  0  0  0
  4  5  1  0  0  0  0
  4 30  1  0  0  0  0
  5 26  1  0  0  0  0
  5  6  1  0  0  0  0
  5  7  1  0  0  0  0
  6 31  1  0  0  0  0
  6 32  1  0  0  0  0
  6 33  1  0  0  0  0
  7 15  1  0  0  0  0
  7  8  2  0  0  0  0
  8  9  1  0  0  0  0
  8 46  1  0  0  0  0
  9 14  2  0  0  0  0
  9 10  1  0  0  0  0
 10 11  2  0  0  0  0
 10 34  1  0  0  0  0
 11 12  1  0  0  0  0
 11 35  1  0  0  0  0
 12 13  2  0  0  0  0
 12 36  1  0  0  0  0
 13 14  1  0  0  0  0
 13 37  1  0  0  0  0
 14 15  1  0  0  0  0
 15 16  1  0  0  0  0
 16 17  1  0  0  0  0
 16 38  1  0  0  0  0
 16 39  1  0  0  0  0
 17 18  1  0  0  0  0
 17 19  1  0  0  0  0
 17 40  1  0  0  0  0
 18 41  1  0  0  0  0
 19 25  1  0  0  0  0
 19 20  2  0  0  0  0
 20 21  1  0  0  0  0
 20 42  1  0  0  0  0
 21 22  2  0  0  0  0
 21 43  1  0  0  0  0
 22 23  1  0  0  0  0
 22 44  1  0  0  0  0
 23 24  1  0  0  0  0
 23 25  2  0  0  0  0
 25 45  1  0  0  0  0
M  CHG  1   8   1
M  END
> <s_m_source_file>
AV-unprocessed.smi

> <i_m_source_file_index>
1667

> <i_lp_mmshare_version>
43012

> <i_f3d_flags>
0

> <s_epik_input>
W0NIM11DKD1PKVtOSF1bQ0BASF0oW0NIM10pYyhuMSluKGMoYzEyKVtjSF1bY0hdW2NIXVtjSF0yKVtDSDJdW0NASF0oW09IXSljM1tjSF1bY0hdW2NIXWMoRilbY0hdMw==

> <s_epik_cmdline>
J2VwaWtfcHl0aG9uJywgJy1waCcsICc3LjAnLCAnLXRuJywgJzgnLCAnLW1hJywgJzIwMCcsICctbWV0YWxfYmluZGluZycsICctaW1hZScsICc8aW5maWxlLm1hZT4nLCAnLW9tYWUnLCAnPG91dGZpbGUubWFlPic=

> <r_epik_Ionization_Penalty>
0.950383

> <r_epik_Ionization_Penalty_Charging>
0.950379

> <r_epik_Ionization_Penalty_Neutral>
3.60962e-06

> <r_epik_State_Penalty>
0.994584

> <r_epik_Charging_Adjusted_Penalty>
1.94496

> <i_epik_Tot_Q>
1

> <i_epik_Tot_abs_Q>
1

> <r_epik_Metal_State_Penalty>
1.10485

> <b_epik_Metal_Only>
0

> <s_lp_Force_Field>
OPLS_2005

> <r_lp_Energy>
10.8153

> <b_lp_Chiralities_Consistent>
1

> <s_lp_Variant>
AV-unprocessed.smi:1667-8

> <Gold.Version>
5.8.1

> <Gold.Id.Protein>
6NUR|6NUR_protein|mol2

> <Gold.PLP.Fitness>
59.4909

> <Gold.PLP.PLP>
-55.4822

> <Gold.PLP.part.hbond>
-2.0000

> <Gold.PLP.part.metal>
0.0000

> <Gold.PLP.part.buried>
-0.1029

> <Gold.PLP.part.nonpolar>
-56.1445

> <Gold.PLP.part.repulsive>
0.8715

> <Gold.PLP.ligand.clash>
0.0000

> <Gold.PLP.ligand.torsion>
1.0178

> <Gold.PLP.Chemscore.Hbond>
2.0000

> <Gold.PLP.Chemscore.CHOScore>
0.0000

> <Gold.PLP.Chemscore.Metal>
0.0000

> <Gold.Chemscore.Hbonds>
donor molecule, donor type, donor heavy atom, donor atom, acceptor molecule, acceptor atom, score
      L1  H     8    46       P1  7948  2.00

> <Gold.PLP.Chemscore.Internal.Correction>
0.0442

> <Gold.Rescore>
     Score         DG    S(hbond)    S(metal)    S(lipo)     H(rot)  DE(clash)    DE(int)     intcor
     15.95     -18.18       1.00        0.00     135.54       2.53       1.91       0.32       ----

> <Gold.Chemscore.Fitness>
15.9492

> <Gold.Chemscore.DG>
-18.1802

> <Gold.Chemscore.ZeroCoef>
-5.4800

> <Gold.Chemscore.Hbond>
0.9962

> <Gold.Chemscore.Metal>
0.0000

> <Gold.Chemscore.Lipo>
135.5422

> <Gold.Chemscore.Internal_Hbond>
0.0000

> <Gold.Chemscore.DEClash>
1.9149

> <Gold.Chemscore.DEInternal>
0.3161

> <Gold.Chemscore.Rot>
2.5335

> <Gold.Chemscore.Internal.Correction>
   9.000000E+99

> <Gold.Chemscore.Hbonds>
donor molecule, donor type, donor heavy atom, donor atom, acceptor molecule, acceptor atom, score
      L1  H     8    46       P1  7948  0.99

> <Gold.Chemscore.Hbond.Weighted>
-3.3274

> <Gold.Chemscore.Metal.Weighted>
-0.0000

> <Gold.Chemscore.Lipo.Weighted>
-15.8584

> <Gold.Chemscore.Internal_Hbond.Weighted>
0.0000

> <Gold.Chemscore.DEClash.Weighted>
1.9149

> <Gold.Chemscore.DEInternal.Weighted>
0.3161

> <Gold.Chemscore.Rot.Weighted>
6.4856

> <Gold.Chemscore.Internal.Correction.Weighted>
   9.000000E+99

> <Gold.Protein.RotatedTorsions>
[ 6907 6896 6895 6894 ] final  -41.40 input  -60.11 | X-H torsion
[ 7974 7965 7964 7962 ] final  162.41 input  175.53 | X-H torsion
[ 8008 7997 7996 7995 ] final  136.07 input   59.86 | X-H torsion
[ 10167 10162 10161 10158 ] final  141.67 input  -65.29 | X-H torsion
[ 10718 10713 10712 10709 ] final -152.27 input   66.30 | X-H torsion
[ 10763 10752 10751 10750 ] final   77.30 input  -60.55 | X-H torsion
[ 11005 11000 10999 10996 ] final   12.62 input  -57.11 | X-H torsion

> <Gold.Protein.ActiveResidues>
 VAL166  LYS551  ARG553  GLY616  TRP617  ASP618  TYR619  PRO620  LYS621  CYS622 
 ASP623  PHE694  ASN695  SER759  ASP760  ASP761  ALA762  ILE779  LEU786  VAL792 
 PHE793  MET794  SER795  GLU796  ALA797  LYS798  CYS799  TRP800  GLU811  SER814 

> <Gold.Protein.RotatedAtoms>
  150.9672  134.9051  159.7765 H   0  0  0  0  0  0  0  0  0  0  0  0  # atno 6907 bound_to 6896
  152.5177  134.3591  159.9288 H   0  0  0  0  0  0  0  0  0  0  0  0  # atno 6908 bound_to 6896
  151.3601  133.3852  159.2723 H   0  0  0  0  0  0  0  0  0  0  0  0  # atno 6909 bound_to 6896
  144.7638  139.8037  143.6323 H   0  0  0  0  0  0  0  0  0  0  0  0  # atno 7974 bound_to 7965
  156.3004  140.2454  156.3685 H   0  0  0  0  0  0  0  0  0  0  0  0  # atno 8008 bound_to 7997
  154.8811  140.0412  157.1802 H   0  0  0  0  0  0  0  0  0  0  0  0  # atno 8009 bound_to 7997
  154.8695  140.2933  155.5494 H   0  0  0  0  0  0  0  0  0  0  0  0  # atno 8010 bound_to 7997
  139.5014  144.6156  151.6170 H   0  0  0  0  0  0  0  0  0  0  0  0  # atno 10167 bound_to 10162
  156.4703  130.8255  151.2484 H   0  0  0  0  0  0  0  0  0  0  0  0  # atno 10718 bound_to 10713
  153.0788  135.4919  154.8460 H   0  0  0  0  0  0  0  0  0  0  0  0  # atno 10763 bound_to 10752
  154.7123  135.3022  154.9180 H   0  0  0  0  0  0  0  0  0  0  0  0  # atno 10764 bound_to 10752
  153.9870  135.6783  153.4805 H   0  0  0  0  0  0  0  0  0  0  0  0  # atno 10765 bound_to 10752
  140.4900  134.0850  155.7769 H   0  0  0  0  0  0  0  0  0  0  0  0  # atno 11005 bound_to 11000
  146.1726  139.4883  142.9918 LP  0  0  0  0  0  0  0  0  0  0  0  0  # atno 17320 bound_to 7965
  145.6535  141.0257  143.1747 LP  0  0  0  0  0  0  0  0  0  0  0  0  # atno 17321 bound_to 7965
  140.5844  143.9890  150.6287 LP  0  0  0  0  0  0  0  0  0  0  0  0  # atno 17342 bound_to 10162
  140.3050  143.3235  152.0935 LP  0  0  0  0  0  0  0  0  0  0  0  0  # atno 17343 bound_to 10162
  157.7492  131.0078  150.3205 LP  0  0  0  0  0  0  0  0  0  0  0  0  # atno 17370 bound_to 10713
  156.3626  130.3849  149.7239 LP  0  0  0  0  0  0  0  0  0  0  0  0  # atno 17371 bound_to 10713
  141.1489  133.9005  157.2147 LP  0  0  0  0  0  0  0  0  0  0  0  0  # atno 17394 bound_to 11000
  139.9775  135.0109  156.9668 LP  0  0  0  0  0  0  0  0  0  0  0  0  # atno 17395 bound_to 11000

$$$$
