AV-unprocessed.smi:1403|AV-procd|sdf|5697|dock8
  -GOLD-   22720 5323D 1   1.00000     0.00000
 Structure written by MMmdl.
 36 37  0  0  0  0  0  0  0  0  1 V2000
  151.7800  144.8925  158.6051 C   0  0  0  0  0  0  0  0  0  0  0  0
  152.2837  143.4451  158.4735 C   0  0  2  0  0  0  0  0  0  0  0  0
  151.4643  142.7320  157.4972 N   0  0  0  0  0  0  0  0  0  0  0  0
  151.6066  141.4433  157.1520 C   0  0  0  0  0  0  0  0  0  0  0  0
  152.4882  140.7141  157.6080 O   0  0  0  0  0  0  0  0  0  0  0  0
  150.6146  140.9069  156.1111 C   0  0  0  0  0  0  0  0  0  0  0  0
  150.8857  139.5108  155.7400 N   0  0  0  0  0  0  0  0  0  0  0  0
  149.9155  138.5349  155.9191 C   0  0  0  0  0  0  0  0  0  0  0  0
  150.0963  137.2344  155.5879 C   0  0  0  0  0  0  0  0  0  0  0  0
  151.3594  136.7879  155.0099 C   0  0  0  0  0  0  0  0  0  0  0  0
  151.6196  135.6330  154.6799 O   0  0  0  0  0  0  0  0  0  0  0  0
  152.3090  137.7994  154.8432 N   0  0  0  0  0  0  0  0  0  0  0  0
  152.1283  139.1417  155.1801 C   0  0  0  0  0  0  0  0  0  0  0  0
  153.0316  139.9546  154.9869 O   0  0  0  0  0  0  0  0  0  0  0  0
  152.2492  142.6846  159.8136 C   0  0  2  0  0  0  0  0  0  0  0  0
  152.5143  143.5529  161.0462 C   0  0  0  0  0  0  0  0  0  0  0  0
  153.0796  142.5469  162.0217 C   0  0  0  0  0  0  0  0  0  0  0  0
  153.9343  141.6825  161.1027 C   0  0  0  0  0  0  0  0  0  0  0  0
  153.2695  141.6858  159.8429 O   0  0  0  0  0  0  0  0  0  0  0  0
  153.1988  137.5384  154.4439 H   0  0  0  0  0  0  0  0  0  0  0  0
  152.3983  145.4676  159.2943 H   0  0  0  0  0  0  0  0  0  0  0  0
  150.7538  144.9239  158.9729 H   0  0  0  0  0  0  0  0  0  0  0  0
  151.8050  145.4069  157.6439 H   0  0  0  0  0  0  0  0  0  0  0  0
  153.3183  143.4678  158.1264 H   0  0  0  0  0  0  0  0  0  0  0  0
  150.7135  143.2544  157.0693 H   0  0  0  0  0  0  0  0  0  0  0  0
  149.5905  141.0061  156.4777 H   0  0  0  0  0  0  0  0  0  0  0  0
  150.6683  141.5511  155.2323 H   0  0  0  0  0  0  0  0  0  0  0  0
  148.9623  138.8208  156.3405 H   0  0  0  0  0  0  0  0  0  0  0  0
  149.3014  136.5209  155.7502 H   0  0  0  0  0  0  0  0  0  0  0  0
  151.2911  142.1768  159.9364 H   0  0  0  0  0  0  0  0  0  0  0  0
  153.2620  144.3169  160.8278 H   0  0  0  0  0  0  0  0  0  0  0  0
  151.6174  144.0491  161.4186 H   0  0  0  0  0  0  0  0  0  0  0  0
  153.6501  143.0040  162.8305 H   0  0  0  0  0  0  0  0  0  0  0  0
  152.2751  141.9542  162.4591 H   0  0  0  0  0  0  0  0  0  0  0  0
  154.9220  142.1265  160.9730 H   0  0  0  0  0  0  0  0  0  0  0  0
  154.0654  140.6694  161.4835 H   0  0  0  0  0  0  0  0  0  0  0  0
  1  2  1  0  0  0  0
  1 21  1  0  0  0  0
  1 22  1  0  0  0  0
  1 23  1  0  0  0  0
  2  3  1  0  0  0  0
  2 15  1  0  0  0  0
  2 24  1  0  0  0  0
  3  4  1  0  0  0  0
  3 25  1  0  0  0  0
  4  5  2  0  0  0  0
  4  6  1  0  0  0  0
  6  7  1  0  0  0  0
  6 26  1  0  0  0  0
  6 27  1  0  0  0  0
  7 13  1  0  0  0  0
  7  8  1  0  0  0  0
  8  9  2  0  0  0  0
  8 28  1  0  0  0  0
  9 10  1  0  0  0  0
  9 29  1  0  0  0  0
 10 11  2  0  0  0  0
 10 12  1  0  0  0  0
 12 20  1  0  0  0  0
 12 13  1  0  0  0  0
 13 14  2  0  0  0  0
 15 19  1  0  0  0  0
 15 16  1  0  0  0  0
 15 30  1  0  0  0  0
 16 17  1  0  0  0  0
 16 31  1  0  0  0  0
 16 32  1  0  0  0  0
 17 18  1  0  0  0  0
 17 33  1  0  0  0  0
 17 34  1  0  0  0  0
 18 19  1  0  0  0  0
 18 35  1  0  0  0  0
 18 36  1  0  0  0  0
M  END
> <s_m_source_file>
AV-unprocessed.smi

> <i_m_source_file_index>
1403

> <i_lp_mmshare_version>
43012

> <i_f3d_flags>
0

> <s_epik_input>
TzFbQ0gyXVtDSDJdW0NIMl1bQ0BIXTFbQ0BIXShbQ0gzXSlbTkhdQyg9TylbQ0gyXW4yW2NIXVtjSF1jKD1PKVtuSF1jMj1P

> <s_epik_cmdline>
J2VwaWtfcHl0aG9uJywgJy1waCcsICc3LjAnLCAnLXRuJywgJzgnLCAnLW1hJywgJzIwMCcsICctbWV0YWxfYmluZGluZycsICctaW1hZScsICc8aW5maWxlLm1hZT4nLCAnLW9tYWUnLCAnPG91dGZpbGUubWFlPic=

> <r_lp_tautomer_probability>
0.999537

> <r_epik_Ionization_Penalty>
0.00331407

> <r_epik_Ionization_Penalty_Charging>
0.00331405

> <r_epik_Ionization_Penalty_Neutral>
2.30132e-08

> <r_epik_State_Penalty>
0.00234266

> <r_epik_Charging_Adjusted_Penalty>
0.00565671

> <i_epik_Tot_Q>
0

> <i_epik_Tot_abs_Q>
0

> <r_epik_Metal_State_Penalty>
0.365604

> <b_epik_Metal_Only>
0

> <s_lp_Force_Field>
OPLS_2005

> <r_lp_Energy>
18.7727

> <b_lp_Chiralities_Consistent>
1

> <s_lp_Variant>
AV-unprocessed.smi:1403-1

> <Gold.Version>
5.8.1

> <Gold.Id.Protein>
6NUR|6NUR_protein|mol2

> <Gold.PLP.Fitness>
45.3096

> <Gold.PLP.PLP>
-39.7044

> <Gold.PLP.part.hbond>
-3.1665

> <Gold.PLP.part.metal>
0.0000

> <Gold.PLP.part.buried>
-5.5535

> <Gold.PLP.part.nonpolar>
-31.7475

> <Gold.PLP.part.repulsive>
0.3589

> <Gold.PLP.ligand.clash>
0.0000

> <Gold.PLP.ligand.torsion>
0.6609

> <Gold.PLP.Chemscore.Hbond>
2.3045

> <Gold.PLP.Chemscore.CHOScore>
0.0000

> <Gold.PLP.Chemscore.Metal>
0.0000

> <Gold.Chemscore.Hbonds>
donor molecule, donor type, donor heavy atom, donor atom, acceptor molecule, acceptor atom, score
      P1  H  7989  7998       L1    14  0.07
      P1  H  7997  8009       L1    14  1.00
      P1  H 10752 10764       L1    11  0.47

> <Gold.PLP.Chemscore.Internal.Correction>
0.0135

> <Gold.Rescore>
     Score         DG    S(hbond)    S(metal)    S(lipo)     H(rot)  DE(clash)    DE(int)     intcor
      9.16     -15.59       1.67        0.00      83.27       2.04       0.28       6.15       ----

> <Gold.Chemscore.Fitness>
9.1593

> <Gold.Chemscore.DG>
-15.5894

> <Gold.Chemscore.ZeroCoef>
-5.4800

> <Gold.Chemscore.Hbond>
1.6731

> <Gold.Chemscore.Metal>
0.0000

> <Gold.Chemscore.Lipo>
83.2666

> <Gold.Chemscore.Internal_Hbond>
0.0000

> <Gold.Chemscore.DEClash>
0.2776

> <Gold.Chemscore.DEInternal>
6.1524

> <Gold.Chemscore.Rot>
2.0395

> <Gold.Chemscore.Internal.Correction>
   9.000000E+99

> <Gold.Chemscore.Hbonds>
donor molecule, donor type, donor heavy atom, donor atom, acceptor molecule, acceptor atom, score
      P1  H  7997  8009       L1    14  1.00
      P1  H 10752 10764       L1    11  0.28

> <Gold.Chemscore.Hbond.Weighted>
-5.5883

> <Gold.Chemscore.Metal.Weighted>
-0.0000

> <Gold.Chemscore.Lipo.Weighted>
-9.7422

> <Gold.Chemscore.Internal_Hbond.Weighted>
0.0000

> <Gold.Chemscore.DEClash.Weighted>
0.2776

> <Gold.Chemscore.DEInternal.Weighted>
6.1524

> <Gold.Chemscore.Rot.Weighted>
5.2211

> <Gold.Chemscore.Internal.Correction.Weighted>
   9.000000E+99

> <Gold.Protein.RotatedTorsions>
[ 6907 6896 6895 6894 ] final  168.89 input  -60.11 | X-H torsion
[ 7974 7965 7964 7962 ] final  -90.73 input  175.53 | X-H torsion
[ 8008 7997 7996 7995 ] final -126.54 input   59.86 | X-H torsion
[ 10167 10162 10161 10158 ] final   38.54 input  -65.29 | X-H torsion
[ 10718 10713 10712 10709 ] final   47.45 input   66.30 | X-H torsion
[ 10763 10752 10751 10750 ] final  -70.90 input  -60.55 | X-H torsion
[ 11005 11000 10999 10996 ] final  -66.38 input  -57.11 | X-H torsion

> <Gold.Protein.ActiveResidues>
 VAL166  LYS551  ARG553  GLY616  TRP617  ASP618  TYR619  PRO620  LYS621  CYS622 
 ASP623  PHE694  ASN695  SER759  ASP760  ASP761  ALA762  ILE779  LEU786  VAL792 
 PHE793  MET794  SER795  GLU796  ALA797  LYS798  CYS799  TRP800  GLU811  SER814 

> <Gold.Protein.RotatedAtoms>
  151.8405  133.3423  159.3641 H   0  0  0  0  0  0  0  0  0  0  0  0  # atno 6907 bound_to 6896
  150.7236  134.5396  159.5750 H   0  0  0  0  0  0  0  0  0  0  0  0  # atno 6908 bound_to 6896
  152.2869  134.7767  160.0437 H   0  0  0  0  0  0  0  0  0  0  0  0  # atno 6909 bound_to 6896
  145.4225  140.9552  143.2173 H   0  0  0  0  0  0  0  0  0  0  0  0  # atno 7974 bound_to 7965
  155.2314  140.0425  157.2962 H   0  0  0  0  0  0  0  0  0  0  0  0  # atno 8008 bound_to 7997
  154.5886  140.2420  155.7923 H   0  0  0  0  0  0  0  0  0  0  0  0  # atno 8009 bound_to 7997
  156.2243  140.2959  156.0037 H   0  0  0  0  0  0  0  0  0  0  0  0  # atno 8010 bound_to 7997
  140.3927  144.1831  150.6131 H   0  0  0  0  0  0  0  0  0  0  0  0  # atno 10167 bound_to 10162
  157.4586  130.8182  149.7863 H   0  0  0  0  0  0  0  0  0  0  0  0  # atno 10718 bound_to 10713
  154.4241  135.5979  153.6028 H   0  0  0  0  0  0  0  0  0  0  0  0  # atno 10763 bound_to 10752
  152.9795  135.5959  154.3919 H   0  0  0  0  0  0  0  0  0  0  0  0  # atno 10764 bound_to 10752
  154.3748  135.2841  155.2224 H   0  0  0  0  0  0  0  0  0  0  0  0  # atno 10765 bound_to 10752
  141.1480  133.6698  156.6130 H   0  0  0  0  0  0  0  0  0  0  0  0  # atno 11005 bound_to 11000
  144.8235  139.5749  143.6976 LP  0  0  0  0  0  0  0  0  0  0  0  0  # atno 17320 bound_to 7965
  146.2649  139.6496  142.9336 LP  0  0  0  0  0  0  0  0  0  0  0  0  # atno 17321 bound_to 7965
  140.4823  143.2375  151.8937 LP  0  0  0  0  0  0  0  0  0  0  0  0  # atno 17342 bound_to 10162
  139.4788  144.5256  151.8740 LP  0  0  0  0  0  0  0  0  0  0  0  0  # atno 17343 bound_to 10162
  156.0018  130.3876  150.2576 LP  0  0  0  0  0  0  0  0  0  0  0  0  # atno 17370 bound_to 10713
  157.0752  131.0128  151.3176 LP  0  0  0  0  0  0  0  0  0  0  0  0  # atno 17371 bound_to 10713
  140.3599  134.7696  157.4527 LP  0  0  0  0  0  0  0  0  0  0  0  0  # atno 17394 bound_to 11000
  140.0793  134.5753  155.8557 LP  0  0  0  0  0  0  0  0  0  0  0  0  # atno 17395 bound_to 11000

$$$$
