AV-unprocessed.smi:1978|AV-procd|sdf|7996|dock7
  -GOLD-   2272010183D 1   1.00000     0.00000
 Structure written by MMmdl.
 45 46  0  0  0  0  0  0  0  0  2 V2000
  152.1255  145.1295  160.7850 C   0  0  0  0  0  0  0  0  0  0  0  0
  151.5259  144.2051  159.7817 C   0  0  0  0  0  0  0  0  0  0  0  0
  151.0418  144.3909  158.5172 C   0  0  0  0  0  0  0  0  0  0  0  0
  150.6195  143.0877  158.1422 C   0  0  0  0  0  0  0  0  0  0  0  0
  150.0405  142.8473  156.8702 N   0  0  0  0  0  0  0  0  0  0  0  0
  149.7073  141.6603  156.3354 C   0  0  0  0  0  0  0  0  0  0  0  0
  149.8655  140.5670  156.8795 O   0  0  0  0  0  0  0  0  0  0  0  0
  149.1594  141.8083  155.1198 N   0  0  0  0  0  0  0  0  0  0  0  0
  148.6828  140.7198  154.2694 C   0  0  0  0  0  0  0  0  0  0  0  0
  147.3939  141.0917  153.4941 C   0  0  2  0  0  0  0  0  0  0  0  0
  146.7199  142.3873  153.9980 C   0  0  0  0  0  0  0  0  0  0  0  0
  146.4426  139.9334  153.4394 N   0  3  1  0  0  0  0  0  0  0  0  0
  146.7880  138.9242  152.3940 C   0  0  0  0  0  0  0  0  0  0  0  0
  145.6490  137.9167  152.1860 C   0  0  0  0  0  0  0  0  0  0  0  0
  145.3195  137.2049  153.4992 C   0  0  0  0  0  0  0  0  0  0  0  0
  144.9975  138.2425  154.5790 C   0  0  0  0  0  0  0  0  0  0  0  0
  146.1368  139.2720  154.7529 C   0  0  2  0  0  0  0  0  0  0  0  0
  145.7451  140.2585  155.8725 C   0  0  0  0  0  0  0  0  0  0  0  0
  150.8289  142.1877  159.0906 N   0  0  0  0  0  0  0  0  0  0  0  0
  151.4112  142.8992  160.1460 O   0  0  0  0  0  0  0  0  0  0  0  0
  152.2158  146.1382  160.3818 H   0  0  0  0  0  0  0  0  0  0  0  0
  153.1201  144.7915  161.0761 H   0  0  0  0  0  0  0  0  0  0  0  0
  151.5079  145.1783  161.6820 H   0  0  0  0  0  0  0  0  0  0  0  0
  150.9967  145.3121  157.9557 H   0  0  0  0  0  0  0  0  0  0  0  0
  149.8496  143.6678  156.3143 H   0  0  0  0  0  0  0  0  0  0  0  0
  149.0690  142.7446  154.7530 H   0  0  0  0  0  0  0  0  0  0  0  0
  149.4789  140.4896  153.5607 H   0  0  0  0  0  0  0  0  0  0  0  0
  148.5496  139.8209  154.8702 H   0  0  0  0  0  0  0  0  0  0  0  0
  147.7508  141.2937  152.4874 H   0  0  0  0  0  0  0  0  0  0  0  0
  147.3707  143.2505  153.8603 H   0  0  0  0  0  0  0  0  0  0  0  0
  146.4777  142.3321  155.0594 H   0  0  0  0  0  0  0  0  0  0  0  0
  145.8007  142.6025  153.4542 H   0  0  0  0  0  0  0  0  0  0  0  0
  146.9970  139.4002  151.4381 H   0  0  0  0  0  0  0  0  0  0  0  0
  147.6942  138.3888  152.6801 H   0  0  0  0  0  0  0  0  0  0  0  0
  144.7640  138.4305  151.8080 H   0  0  0  0  0  0  0  0  0  0  0  0
  145.9312  137.1851  151.4283 H   0  0  0  0  0  0  0  0  0  0  0  0
  144.4760  136.5278  153.3607 H   0  0  0  0  0  0  0  0  0  0  0  0
  146.1658  136.5927  153.8136 H   0  0  0  0  0  0  0  0  0  0  0  0
  144.0718  138.7589  154.3199 H   0  0  0  0  0  0  0  0  0  0  0  0
  144.8079  137.7289  155.5224 H   0  0  0  0  0  0  0  0  0  0  0  0
  147.0270  138.7329  155.0802 H   0  0  0  0  0  0  0  0  0  0  0  0
  145.3738  139.7250  156.7479 H   0  0  0  0  0  0  0  0  0  0  0  0
  144.9593  140.9413  155.5481 H   0  0  0  0  0  0  0  0  0  0  0  0
  146.5936  140.8473  156.2198 H   0  0  0  0  0  0  0  0  0  0  0  0
  145.5656  140.3395  153.1460 H   0  0  0  0  0  0  0  0  0  0  0  0
  1  2  1  0  0  0  0
  1 21  1  0  0  0  0
  1 22  1  0  0  0  0
  1 23  1  0  0  0  0
  2 20  1  0  0  0  0
  2  3  2  0  0  0  0
  3  4  1  0  0  0  0
  3 24  1  0  0  0  0
  4  5  1  0  0  0  0
  4 19  2  0  0  0  0
  5  6  1  0  0  0  0
  5 25  1  0  0  0  0
  6  7  2  0  0  0  0
  6  8  1  0  0  0  0
  8  9  1  0  0  0  0
  8 26  1  0  0  0  0
  9 10  1  0  0  0  0
  9 27  1  0  0  0  0
  9 28  1  0  0  0  0
 10 11  1  0  0  0  0
 10 12  1  0  0  0  0
 10 29  1  0  0  0  0
 11 30  1  0  0  0  0
 11 31  1  0  0  0  0
 11 32  1  0  0  0  0
 12 17  1  0  0  0  0
 12 13  1  0  0  0  0
 12 45  1  0  0  0  0
 13 14  1  0  0  0  0
 13 33  1  0  0  0  0
 13 34  1  0  0  0  0
 14 15  1  0  0  0  0
 14 35  1  0  0  0  0
 14 36  1  0  0  0  0
 15 16  1  0  0  0  0
 15 37  1  0  0  0  0
 15 38  1  0  0  0  0
 16 17  1  0  0  0  0
 16 39  1  0  0  0  0
 16 40  1  0  0  0  0
 17 18  1  0  0  0  0
 17 41  1  0  0  0  0
 18 42  1  0  0  0  0
 18 43  1  0  0  0  0
 18 44  1  0  0  0  0
 19 20  1  0  0  0  0
M  CHG  1  12   1
M  END
> <s_m_source_file>
AV-unprocessed.smi

> <i_m_source_file_index>
1978

> <i_lp_mmshare_version>
43012

> <i_f3d_flags>
0

> <s_epik_input>
W0NIM11jMVtjSF1jKG5vMSlbTkhdQyg9TylbTkhdW0NIMl1bQ0BIXShbQ0gzXSlOMltDSDJdW0NIMl1bQ0gyXVtDSDJdW0NASF0yW0NIM10=

> <s_epik_cmdline>
J2VwaWtfcHl0aG9uJywgJy1waCcsICc3LjAnLCAnLXRuJywgJzgnLCAnLW1hJywgJzIwMCcsICctbWV0YWxfYmluZGluZycsICctaW1hZScsICc8aW5maWxlLm1hZT4nLCAnLW9tYWUnLCAnPG91dGZpbGUubWFlPic=

> <r_epik_Ionization_Penalty>
0.00265971

> <r_epik_Ionization_Penalty_Charging>
0.00262393

> <r_epik_Ionization_Penalty_Neutral>
3.57846e-05

> <r_epik_State_Penalty>
0.00182566

> <r_epik_Charging_Adjusted_Penalty>
0.00444959

> <i_epik_Tot_Q>
1

> <i_epik_Tot_abs_Q>
1

> <r_epik_Metal_State_Penalty>
0.0216344

> <b_epik_Metal_Only>
0

> <s_lp_Force_Field>
OPLS_2005

> <r_lp_Energy>
21.464

> <b_lp_Chiralities_Consistent>
1

> <s_lp_Variant>
AV-unprocessed.smi:1978-5

> <Gold.Version>
5.8.1

> <Gold.Id.Protein>
6NUR|6NUR_protein|mol2

> <Gold.PLP.Fitness>
42.3283

> <Gold.PLP.PLP>
-34.2286

> <Gold.PLP.part.hbond>
-3.3392

> <Gold.PLP.part.metal>
0.0000

> <Gold.PLP.part.buried>
-4.6803

> <Gold.PLP.part.nonpolar>
-26.8131

> <Gold.PLP.part.repulsive>
0.2851

> <Gold.PLP.ligand.clash>
0.1408

> <Gold.PLP.ligand.torsion>
1.1528

> <Gold.PLP.Chemscore.Hbond>
3.4696

> <Gold.PLP.Chemscore.CHOScore>
0.0000

> <Gold.PLP.Chemscore.Metal>
0.0000

> <Gold.Chemscore.Hbonds>
donor molecule, donor type, donor heavy atom, donor atom, acceptor molecule, acceptor atom, score
      L1  H     5    25       P1  8028  1.00
      L1  H     8    26       P1  8028  0.47
      L1  H    12    45       P1 10175  2.00

> <Gold.PLP.Chemscore.Internal.Correction>
0.1375

> <Gold.Rescore>
     Score         DG    S(hbond)    S(metal)    S(lipo)     H(rot)  DE(clash)    DE(int)     intcor
     15.16     -18.55       2.46        0.00      75.49       1.55       0.01       3.38       ----

> <Gold.Chemscore.Fitness>
15.1583

> <Gold.Chemscore.DG>
-18.5537

> <Gold.Chemscore.ZeroCoef>
-5.4800

> <Gold.Chemscore.Hbond>
2.4557

> <Gold.Chemscore.Metal>
0.0000

> <Gold.Chemscore.Lipo>
75.4943

> <Gold.Chemscore.Internal_Hbond>
0.0000

> <Gold.Chemscore.DEClash>
0.0148

> <Gold.Chemscore.DEInternal>
3.3805

> <Gold.Chemscore.Rot>
1.5474

> <Gold.Chemscore.Internal.Correction>
   9.000000E+99

> <Gold.Chemscore.Hbonds>
donor molecule, donor type, donor heavy atom, donor atom, acceptor molecule, acceptor atom, score
      L1  H     5    25       P1  8028  0.94
      L1  H     8    26       P1  8028  0.47
      L1  H    12    45       P1 10175  0.93

> <Gold.Chemscore.Hbond.Weighted>
-8.2021

> <Gold.Chemscore.Metal.Weighted>
-0.0000

> <Gold.Chemscore.Lipo.Weighted>
-8.8328

> <Gold.Chemscore.Internal_Hbond.Weighted>
0.0000

> <Gold.Chemscore.DEClash.Weighted>
0.0148

> <Gold.Chemscore.DEInternal.Weighted>
3.3805

> <Gold.Chemscore.Rot.Weighted>
3.9612

> <Gold.Chemscore.Internal.Correction.Weighted>
   9.000000E+99

> <Gold.Protein.RotatedTorsions>
[ 6907 6896 6895 6894 ] final  -76.56 input  -60.11 | X-H torsion
[ 7974 7965 7964 7962 ] final   37.25 input  175.53 | X-H torsion
[ 8008 7997 7996 7995 ] final  128.68 input   59.86 | X-H torsion
[ 10167 10162 10161 10158 ] final -125.83 input  -65.29 | X-H torsion
[ 10718 10713 10712 10709 ] final   17.59 input   66.30 | X-H torsion
[ 10763 10752 10751 10750 ] final  164.96 input  -60.55 | X-H torsion
[ 11005 11000 10999 10996 ] final  -39.37 input  -57.11 | X-H torsion

> <Gold.Protein.ActiveResidues>
 VAL166  LYS551  ARG553  GLY616  TRP617  ASP618  TYR619  PRO620  LYS621  CYS622 
 ASP623  PHE694  ASN695  SER759  ASP760  ASP761  ALA762  ILE779  LEU786  VAL792 
 PHE793  MET794  SER795  GLU796  ALA797  LYS798  CYS799  TRP800  GLU811  SER814 

> <Gold.Protein.RotatedAtoms>
  150.7024  134.4553  159.5355 H   0  0  0  0  0  0  0  0  0  0  0  0  # atno 6907 bound_to 6896
  152.2238  134.8385  160.0491 H   0  0  0  0  0  0  0  0  0  0  0  0  # atno 6908 bound_to 6896
  151.9225  133.3554  159.3939 H   0  0  0  0  0  0  0  0  0  0  0  0  # atno 6909 bound_to 6896
  146.1151  139.5917  142.9326 H   0  0  0  0  0  0  0  0  0  0  0  0  # atno 7974 bound_to 7965
  156.2920  140.2639  156.2474 H   0  0  0  0  0  0  0  0  0  0  0  0  # atno 8008 bound_to 7997
  154.9916  140.0388  157.2340 H   0  0  0  0  0  0  0  0  0  0  0  0  # atno 8009 bound_to 7997
  154.7681  140.2773  155.6165 H   0  0  0  0  0  0  0  0  0  0  0  0  # atno 8010 bound_to 7997
  139.9779  143.5774  152.2389 H   0  0  0  0  0  0  0  0  0  0  0  0  # atno 10167 bound_to 10162
  157.0843  130.6401  149.5834 H   0  0  0  0  0  0  0  0  0  0  0  0  # atno 10718 bound_to 10713
  154.3169  135.2756  155.2539 H   0  0  0  0  0  0  0  0  0  0  0  0  # atno 10763 bound_to 10752
  154.4909  135.5833  153.6462 H   0  0  0  0  0  0  0  0  0  0  0  0  # atno 10764 bound_to 10752
  152.9881  135.6134  154.3350 H   0  0  0  0  0  0  0  0  0  0  0  0  # atno 10765 bound_to 10752
  141.0097  133.6914  156.2178 H   0  0  0  0  0  0  0  0  0  0  0  0  # atno 11005 bound_to 11000
  145.5583  141.0407  143.2240 LP  0  0  0  0  0  0  0  0  0  0  0  0  # atno 17320 bound_to 7965
  144.7546  139.7107  143.7259 LP  0  0  0  0  0  0  0  0  0  0  0  0  # atno 17321 bound_to 7965
  139.6431  144.7656  151.2298 LP  0  0  0  0  0  0  0  0  0  0  0  0  # atno 17342 bound_to 10162
  140.7499  143.6283  150.8447 LP  0  0  0  0  0  0  0  0  0  0  0  0  # atno 17343 bound_to 10162
  155.9915  130.4970  150.7301 LP  0  0  0  0  0  0  0  0  0  0  0  0  # atno 17370 bound_to 10713
  157.4774  131.0899  151.0575 LP  0  0  0  0  0  0  0  0  0  0  0  0  # atno 17371 bound_to 10713
  140.6754  134.4824  157.5588 LP  0  0  0  0  0  0  0  0  0  0  0  0  # atno 17394 bound_to 11000
  139.9083  134.8400  156.1623 LP  0  0  0  0  0  0  0  0  0  0  0  0  # atno 17395 bound_to 11000

$$$$
