AV-unprocessed.smi:157|AV-procd|sdf|1300|dock3
  -GOLD-   2262018583D 1   1.00000     0.00000
 Structure written by MMmdl.
 35 37  0  0  0  0  0  0  0  0  1 V2000
  149.6860  135.6737  154.3086 O   0  0  0  0  0  0  0  0  0  0  0  0
  149.4359  136.6506  155.2971 C   0  0  0  0  0  0  0  0  0  0  0  0
  150.7021  137.4750  155.5778 C   0  0  2  0  0  0  0  0  0  0  0  0
  150.3896  138.5174  156.5001 O   0  0  0  0  0  0  0  0  0  0  0  0
  151.0722  139.6886  156.1615 C   0  0  1  0  0  0  0  0  0  0  0  0
  151.8462  140.1542  157.3555 N   0  0  0  0  0  0  0  0  0  0  0  0
  152.7527  139.4415  158.0377 C   0  0  0  0  0  0  0  0  0  0  0  0
  153.3065  140.0837  159.0519 N   0  0  0  0  0  0  0  0  0  0  0  0
  152.6998  141.3383  159.0269 C   0  0  0  0  0  0  0  0  0  0  0  0
  151.7912  141.4039  157.9802 C   0  0  0  0  0  0  0  0  0  0  0  0
  150.9367  142.3591  157.4637 N   0  0  0  0  0  0  0  0  0  0  0  0
  150.6130  143.3587  158.2221 C   0  0  0  0  0  0  0  0  0  0  0  0
  151.0642  143.7050  159.4877 N   0  0  0  0  0  0  0  0  0  0  0  0
  152.4720  143.7584  159.8435 C   0  0  0  0  0  0  0  0  0  0  0  0
  153.1098  142.3763  160.0318 C   0  0  1  0  0  0  0  0  0  0  0  0
  152.7658  141.8752  161.3073 O   0  0  0  0  0  0  0  0  0  0  0  0
  152.0211  139.3451  155.0155 C   0  0  0  0  0  0  0  0  0  0  0  0
  151.2781  138.2035  154.3579 C   0  0  1  0  0  0  0  0  0  0  0  0
  152.1649  137.3949  153.6125 O   0  0  0  0  0  0  0  0  0  0  0  0
  151.4691  136.8542  156.0448 H   0  0  0  0  0  0  0  0  0  0  0  0
  150.3574  140.4770  155.9249 H   0  0  0  0  0  0  0  0  0  0  0  0
  154.1939  142.4931  160.0211 H   0  0  0  0  0  0  0  0  0  0  0  0
  150.4822  138.5881  153.7184 H   0  0  0  0  0  0  0  0  0  0  0  0
  149.7117  136.0999  153.4656 H   0  0  0  0  0  0  0  0  0  0  0  0
  148.6133  137.2924  154.9801 H   0  0  0  0  0  0  0  0  0  0  0  0
  149.1144  136.1412  156.2059 H   0  0  0  0  0  0  0  0  0  0  0  0
  153.0171  138.4262  157.7806 H   0  0  0  0  0  0  0  0  0  0  0  0
  149.8782  144.0742  157.8505 H   0  0  0  0  0  0  0  0  0  0  0  0
  150.5271  144.3714  160.0238 H   0  0  0  0  0  0  0  0  0  0  0  0
  152.9896  144.2767  159.0350 H   0  0  0  0  0  0  0  0  0  0  0  0
  152.6074  144.3728  160.7340 H   0  0  0  0  0  0  0  0  0  0  0  0
  153.3212  141.1329  161.4917 H   0  0  0  0  0  0  0  0  0  0  0  0
  152.1867  140.2040  154.3645 H   0  0  0  0  0  0  0  0  0  0  0  0
  152.9788  139.0073  155.4169 H   0  0  0  0  0  0  0  0  0  0  0  0
  151.8000  137.2695  152.7494 H   0  0  0  0  0  0  0  0  0  0  0  0
  1  2  1  0  0  0  0
  1 24  1  0  0  0  0
  2  3  1  0  0  0  0
  2 25  1  0  0  0  0
  2 26  1  0  0  0  0
  3 20  1  0  0  0  0
  3 18  1  0  0  0  0
  3  4  1  0  0  0  0
  4  5  1  0  0  0  0
  5 21  1  0  0  0  0
  5  6  1  0  0  0  0
  5 17  1  0  0  0  0
  6 10  1  0  0  0  0
  6  7  1  0  0  0  0
  7  8  2  0  0  0  0
  7 27  1  0  0  0  0
  8  9  1  0  0  0  0
  9 15  1  0  0  0  0
  9 10  2  0  0  0  0
 10 11  1  0  0  0  0
 11 12  2  0  0  0  0
 12 13  1  0  0  0  0
 12 28  1  0  0  0  0
 13 14  1  0  0  0  0
 13 29  1  0  0  0  0
 14 15  1  0  0  0  0
 14 30  1  0  0  0  0
 14 31  1  0  0  0  0
 15 22  1  0  0  0  0
 15 16  1  0  0  0  0
 16 32  1  0  0  0  0
 17 18  1  0  0  0  0
 17 33  1  0  0  0  0
 17 34  1  0  0  0  0
 18 23  1  0  0  0  0
 18 19  1  0  0  0  0
 19 35  1  0  0  0  0
M  END
> <s_m_source_file>
AV-unprocessed.smi

> <i_m_source_file_index>
157

> <i_lp_mmshare_version>
43012

> <i_f3d_flags>
0

> <s_epik_input>
W09IXVtDSDJdW0NASF0xT1tDQEhdKFtDSDJdW0NAQEhdMVtPSF0pbihbY0hdbjIpYyhjMjMpTj1bQ0hdW05IXVtDSDJdW0NASF0zW09IXQ==

> <s_epik_cmdline>
J2VwaWtfcHl0aG9uJywgJy1waCcsICc3LjAnLCAnLXRuJywgJzgnLCAnLW1hJywgJzIwMCcsICctbWV0YWxfYmluZGluZycsICctaW1hZScsICc8aW5maWxlLm1hZT4nLCAnLW9tYWUnLCAnPG91dGZpbGUubWFlPic=

> <r_lp_tautomer_probability>
1

> <r_epik_Ionization_Penalty>
0.0357149

> <r_epik_Ionization_Penalty_Charging>
0.0355056

> <r_epik_Ionization_Penalty_Neutral>
0.000209255

> <r_epik_State_Penalty>
0.0296046

> <r_epik_Charging_Adjusted_Penalty>
0.0651102

> <i_epik_Tot_Q>
0

> <i_epik_Tot_abs_Q>
0

> <r_epik_Metal_State_Penalty>
3.03559e-05

> <b_epik_Metal_Only>
0

> <s_epik_Chemistry_Notes>
This compound has an imine and may undergo hydrolysis. This compound contains an acetal/aminal-like group ( X-CH(R)-Y where X, Y are N, S, or O) that may be acid/base labile, releasing an aldehyde.

> <s_lp_Force_Field>
OPLS_2005

> <r_lp_Energy>
44.6585

> <b_lp_Chiralities_Consistent>
1

> <s_lp_Variant>
AV-unprocessed.smi:157-10

> <Gold.Version>
5.8.1

> <Gold.Id.Protein>
6NUR|6NUR_protein|mol2

> <Gold.PLP.Fitness>
44.4543

> <Gold.PLP.PLP>
-32.4853

> <Gold.PLP.part.hbond>
-3.0000

> <Gold.PLP.part.metal>
0.0000

> <Gold.PLP.part.buried>
-5.2719

> <Gold.PLP.part.nonpolar>
-24.1152

> <Gold.PLP.part.repulsive>
0.1445

> <Gold.PLP.ligand.clash>
0.0000

> <Gold.PLP.ligand.torsion>
0.0283

> <Gold.PLP.Chemscore.Hbond>
3.0000

> <Gold.PLP.Chemscore.CHOScore>
1.0052

> <Gold.PLP.Chemscore.Metal>
0.0000

> <Gold.Chemscore.Hbonds>
donor molecule, donor type, donor heavy atom, donor atom, acceptor molecule, acceptor atom, score
      L1  H     1    24       P1  7948  0.84
      L1  H    19    35       P1  7949  0.91
      P1  H 10752 10763       L1    19  0.96
      L1  C    12    28       P1  8028  1.00
      L1  C    12    28       P1  8029  0.12

> <Gold.PLP.Chemscore.Internal.Correction>
0.0102

> <Gold.Rescore>
     Score         DG    S(hbond)    S(metal)    S(lipo)     H(rot)  DE(clash)    DE(int)     intcor
     11.77     -11.79       2.73        0.00      55.61       3.64       0.01       0.02       ----

> <Gold.Chemscore.Fitness>
11.7704

> <Gold.Chemscore.DG>
-11.7923

> <Gold.Chemscore.ZeroCoef>
-5.4800

> <Gold.Chemscore.Hbond>
2.7290

> <Gold.Chemscore.Metal>
0.0000

> <Gold.Chemscore.Lipo>
55.6084

> <Gold.Chemscore.Internal_Hbond>
0.0000

> <Gold.Chemscore.DEClash>
0.0060

> <Gold.Chemscore.DEInternal>
0.0159

> <Gold.Chemscore.Rot>
3.6362

> <Gold.Chemscore.Internal.Correction>
   9.000000E+99

> <Gold.Chemscore.Hbonds>
donor molecule, donor type, donor heavy atom, donor atom, acceptor molecule, acceptor atom, score
      L1  H     1    24       P1  7948  0.16
      L1  H    19    35       P1  7949  0.89
      P1  H 10752 10763       L1    19  0.46

> <Gold.Chemscore.Hbond.Weighted>
-9.1148

> <Gold.Chemscore.Metal.Weighted>
-0.0000

> <Gold.Chemscore.Lipo.Weighted>
-6.5062

> <Gold.Chemscore.Internal_Hbond.Weighted>
0.0000

> <Gold.Chemscore.DEClash.Weighted>
0.0060

> <Gold.Chemscore.DEInternal.Weighted>
0.0159

> <Gold.Chemscore.Rot.Weighted>
9.3087

> <Gold.Chemscore.Internal.Correction.Weighted>
   9.000000E+99

> <Gold.Protein.RotatedTorsions>
[ 6907 6896 6895 6894 ] final  -52.84 input  -60.11 | X-H torsion
[ 7974 7965 7964 7962 ] final    0.47 input  175.53 | X-H torsion
[ 8008 7997 7996 7995 ] final  141.91 input   59.86 | X-H torsion
[ 10167 10162 10161 10158 ] final   -2.39 input  -65.29 | X-H torsion
[ 10718 10713 10712 10709 ] final -152.21 input   66.30 | X-H torsion
[ 10763 10752 10751 10750 ] final   28.42 input  -60.55 | X-H torsion
[ 11005 11000 10999 10996 ] final -159.76 input  -57.11 | X-H torsion

> <Gold.Protein.ActiveResidues>
 VAL166  LYS551  ARG553  GLY616  TRP617  ASP618  TYR619  PRO620  LYS621  CYS622 
 ASP623  PHE694  ASN695  SER759  ASP760  ASP761  ALA762  ILE779  LEU786  VAL792 
 PHE793  MET794  SER795  GLU796  ALA797  LYS798  CYS799  TRP800  GLU811  SER814 

> <Gold.Protein.RotatedAtoms>
  150.8481  134.7796  159.6986 H   0  0  0  0  0  0  0  0  0  0  0  0  # atno 6907 bound_to 6896
  152.4552  134.5303  159.9819 H   0  0  0  0  0  0  0  0  0  0  0  0  # atno 6908 bound_to 6896
  151.5429  133.3392  159.2974 H   0  0  0  0  0  0  0  0  0  0  0  0  # atno 6909 bound_to 6896
  146.2434  140.1133  142.8343 H   0  0  0  0  0  0  0  0  0  0  0  0  # atno 7974 bound_to 7965
  156.2958  140.2302  156.4642 H   0  0  0  0  0  0  0  0  0  0  0  0  # atno 8008 bound_to 7997
  154.7991  140.0449  157.1280 H   0  0  0  0  0  0  0  0  0  0  0  0  # atno 8009 bound_to 7997
  154.9554  140.3047  155.5059 H   0  0  0  0  0  0  0  0  0  0  0  0  # atno 8010 bound_to 7997
  140.6849  143.6663  150.8223 H   0  0  0  0  0  0  0  0  0  0  0  0  # atno 10167 bound_to 10162
  156.4695  130.8251  151.2481 H   0  0  0  0  0  0  0  0  0  0  0  0  # atno 10718 bound_to 10713
  153.0493  135.6513  154.0735 H   0  0  0  0  0  0  0  0  0  0  0  0  # atno 10763 bound_to 10752
  154.0427  135.2902  155.3354 H   0  0  0  0  0  0  0  0  0  0  0  0  # atno 10764 bound_to 10752
  154.6771  135.5334  153.8280 H   0  0  0  0  0  0  0  0  0  0  0  0  # atno 10765 bound_to 10752
  140.6390  134.4571  157.5232 H   0  0  0  0  0  0  0  0  0  0  0  0  # atno 11005 bound_to 11000
  145.0469  140.8988  143.5019 LP  0  0  0  0  0  0  0  0  0  0  0  0  # atno 17320 bound_to 7965
  145.1223  139.2685  143.5582 LP  0  0  0  0  0  0  0  0  0  0  0  0  # atno 17321 bound_to 7965
  140.0368  143.5387  152.2736 LP  0  0  0  0  0  0  0  0  0  0  0  0  # atno 17342 bound_to 10162
  139.6199  144.7627  151.2762 LP  0  0  0  0  0  0  0  0  0  0  0  0  # atno 17343 bound_to 10162
  157.7492  131.0081  150.3215 LP  0  0  0  0  0  0  0  0  0  0  0  0  # atno 17370 bound_to 10713
  156.3633  130.3851  149.7233 LP  0  0  0  0  0  0  0  0  0  0  0  0  # atno 17371 bound_to 10713
  139.9087  134.8392  156.1608 LP  0  0  0  0  0  0  0  0  0  0  0  0  # atno 17394 bound_to 11000
  141.0620  133.6837  156.1971 LP  0  0  0  0  0  0  0  0  0  0  0  0  # atno 17395 bound_to 11000

$$$$
