AV-unprocessed.smi:1703|AV-procd|sdf|6867|dock5
  -GOLD-   22720 8 63D 1   1.00000     0.00000
 Structure written by MMmdl.
 49 51  0  0  0  0  0  0  0  0  2 V2000
  149.2321  141.3019  156.4087 C   0  0  0  0  0  0  0  0  0  0  0  0
  149.5578  141.1993  154.9089 C   0  0  2  0  0  0  0  0  0  0  0  0
  148.3535  140.7576  154.0536 C   0  0  0  0  0  0  0  0  0  0  0  0
  148.0396  139.3385  154.2123 N   0  0  0  0  0  0  0  0  0  0  0  0
  146.9119  138.9106  153.3834 C   0  0  0  0  0  0  0  0  0  0  0  0
  146.2005  137.6201  153.8392 C   0  0  2  0  0  0  0  0  0  0  0  0
  147.0308  136.5139  153.5445 O   0  0  0  0  0  0  0  0  0  0  0  0
  144.8437  137.4463  153.1304 C   0  0  0  0  0  0  0  0  0  0  0  0
  144.3368  136.0657  153.1995 N   0  0  0  0  0  0  0  0  0  0  0  0
  143.8158  135.3799  154.2574 C   0  0  0  0  0  0  0  0  0  0  0  0
  143.6390  135.8955  155.6505 C   0  0  0  0  0  0  0  0  0  0  0  0
  143.2893  134.8901  156.5786 O   0  0  0  0  0  0  0  0  0  0  0  0
  143.4901  134.1343  153.8080 N   0  3  0  0  0  0  0  0  0  0  0  0
  143.8068  134.0206  152.4544 C   0  0  0  0  0  0  0  0  0  0  0  0
  143.6600  132.9548  151.5720 C   0  0  0  0  0  0  0  0  0  0  0  0
  144.0917  133.1669  150.2464 C   0  0  0  0  0  0  0  0  0  0  0  0
  144.6441  134.3999  149.8432 C   0  0  0  0  0  0  0  0  0  0  0  0
  144.7855  135.4739  150.7465 C   0  0  0  0  0  0  0  0  0  0  0  0
  144.3546  135.2574  152.0557 C   0  0  0  0  0  0  0  0  0  0  0  0
  149.2324  138.5569  153.9120 C   0  0  0  0  0  0  0  0  0  0  0  0
  150.4216  138.9510  154.8065 C   0  0  1  0  0  0  0  0  0  0  0  0
  151.6993  138.1925  154.4327 C   0  0  0  0  0  0  0  0  0  0  0  0
  150.6779  140.3471  154.6654 O   0  0  0  0  0  0  0  0  0  0  0  0
  148.4472  142.0374  156.5851 H   0  0  0  0  0  0  0  0  0  0  0  0
  150.1094  141.6120  156.9766 H   0  0  0  0  0  0  0  0  0  0  0  0
  148.8857  140.3536  156.8190 H   0  0  0  0  0  0  0  0  0  0  0  0
  149.8546  142.1956  154.5799 H   0  0  0  0  0  0  0  0  0  0  0  0
  147.4964  141.3760  154.3155 H   0  0  0  0  0  0  0  0  0  0  0  0
  148.5727  140.9637  153.0048 H   0  0  0  0  0  0  0  0  0  0  0  0
  146.1836  139.7215  153.3322 H   0  0  0  0  0  0  0  0  0  0  0  0
  147.2555  138.7600  152.3589 H   0  0  0  0  0  0  0  0  0  0  0  0
  146.0222  137.6351  154.9131 H   0  0  0  0  0  0  0  0  0  0  0  0
  147.6094  136.7530  152.8370 H   0  0  0  0  0  0  0  0  0  0  0  0
  144.0968  138.0850  153.6029 H   0  0  0  0  0  0  0  0  0  0  0  0
  144.8945  137.7653  152.0895 H   0  0  0  0  0  0  0  0  0  0  0  0
  144.5654  136.3685  155.9766 H   0  0  0  0  0  0  0  0  0  0  0  0
  142.8636  136.6617  155.6543 H   0  0  0  0  0  0  0  0  0  0  0  0
  142.4436  134.5419  156.3400 H   0  0  0  0  0  0  0  0  0  0  0  0
  143.2390  132.0089  151.8797 H   0  0  0  0  0  0  0  0  0  0  0  0
  143.9992  132.3676  149.5252 H   0  0  0  0  0  0  0  0  0  0  0  0
  144.9672  134.5247  148.8199 H   0  0  0  0  0  0  0  0  0  0  0  0
  145.2141  136.4109  150.4248 H   0  0  0  0  0  0  0  0  0  0  0  0
  149.0209  137.4955  154.0478 H   0  0  0  0  0  0  0  0  0  0  0  0
  149.5046  138.6878  152.8633 H   0  0  0  0  0  0  0  0  0  0  0  0
  150.1835  138.7294  155.8471 H   0  0  0  0  0  0  0  0  0  0  0  0
  151.5602  137.1162  154.5340 H   0  0  0  0  0  0  0  0  0  0  0  0
  152.5279  138.4830  155.0790 H   0  0  0  0  0  0  0  0  0  0  0  0
  151.9922  138.3970  153.4024 H   0  0  0  0  0  0  0  0  0  0  0  0
  143.0811  133.4171  154.3934 H   0  0  0  0  0  0  0  0  0  0  0  0
  1  2  1  0  0  0  0
  1 24  1  0  0  0  0
  1 25  1  0  0  0  0
  1 26  1  0  0  0  0
  2 23  1  0  0  0  0
  2  3  1  0  0  0  0
  2 27  1  0  0  0  0
  3  4  1  0  0  0  0
  3 28  1  0  0  0  0
  3 29  1  0  0  0  0
  4  5  1  0  0  0  0
  4 20  1  0  0  0  0
  5  6  1  0  0  0  0
  5 30  1  0  0  0  0
  5 31  1  0  0  0  0
  6  7  1  0  0  0  0
  6  8  1  0  0  0  0
  6 32  1  0  0  0  0
  7 33  1  0  0  0  0
  8  9  1  0  0  0  0
  8 34  1  0  0  0  0
  8 35  1  0  0  0  0
  9 19  1  0  0  0  0
  9 10  1  0  0  0  0
 10 11  1  0  0  0  0
 10 13  2  0  0  0  0
 11 12  1  0  0  0  0
 11 36  1  0  0  0  0
 11 37  1  0  0  0  0
 12 38  1  0  0  0  0
 13 14  1  0  0  0  0
 13 49  1  0  0  0  0
 14 19  2  0  0  0  0
 14 15  1  0  0  0  0
 15 16  2  0  0  0  0
 15 39  1  0  0  0  0
 16 17  1  0  0  0  0
 16 40  1  0  0  0  0
 17 18  2  0  0  0  0
 17 41  1  0  0  0  0
 18 19  1  0  0  0  0
 18 42  1  0  0  0  0
 20 21  1  0  0  0  0
 20 43  1  0  0  0  0
 20 44  1  0  0  0  0
 21 22  1  0  0  0  0
 21 23  1  0  0  0  0
 21 45  1  0  0  0  0
 22 46  1  0  0  0  0
 22 47  1  0  0  0  0
 22 48  1  0  0  0  0
M  CHG  1  13   1
M  END
> <s_m_source_file>
AV-unprocessed.smi

> <i_m_source_file_index>
1703

> <i_lp_mmshare_version>
43012

> <i_f3d_flags>
0

> <s_epik_input>
W0NIM11bQ0BASF0xW0NIMl1OKFtDSDJdW0NASF0oTzEpW0NIM10pW0NIMl1bQ0BIXShbT0hdKVtDSDJdbihjKG4yKVtDSDJdW09IXSljKGMyMylbY0hdW2NIXVtjSF1bY0hdMw==

> <s_epik_cmdline>
J2VwaWtfcHl0aG9uJywgJy1waCcsICc3LjAnLCAnLXRuJywgJzgnLCAnLW1hJywgJzIwMCcsICctbWV0YWxfYmluZGluZycsICctaW1hZScsICc8aW5maWxlLm1hZT4nLCAnLW9tYWUnLCAnPG91dGZpbGUubWFlPic=

> <r_epik_Ionization_Penalty>
1.7682

> <r_epik_Ionization_Penalty_Charging>
1.55298

> <r_epik_Ionization_Penalty_Neutral>
0.215215

> <r_epik_State_Penalty>
1.83821

> <r_epik_Charging_Adjusted_Penalty>
3.39119

> <i_epik_Tot_Q>
1

> <i_epik_Tot_abs_Q>
1

> <r_epik_Metal_State_Penalty>
5.89206

> <b_epik_Metal_Only>
0

> <s_lp_Force_Field>
OPLS_2005

> <r_lp_Energy>
34.6201

> <b_lp_Chiralities_Consistent>
1

> <s_lp_Variant>
AV-unprocessed.smi:1703-15

> <Gold.Version>
5.8.1

> <Gold.Id.Protein>
6NUR|6NUR_protein|mol2

> <Gold.PLP.Fitness>
49.3930

> <Gold.PLP.PLP>
-35.9687

> <Gold.PLP.part.hbond>
-4.0000

> <Gold.PLP.part.metal>
0.0000

> <Gold.PLP.part.buried>
-1.2186

> <Gold.PLP.part.nonpolar>
-31.8514

> <Gold.PLP.part.repulsive>
0.2191

> <Gold.PLP.ligand.clash>
0.0000

> <Gold.PLP.ligand.torsion>
0.6756

> <Gold.PLP.Chemscore.Hbond>
4.9040

> <Gold.PLP.Chemscore.CHOScore>
0.0000

> <Gold.PLP.Chemscore.Metal>
0.0000

> <Gold.Chemscore.Hbonds>
donor molecule, donor type, donor heavy atom, donor atom, acceptor molecule, acceptor atom, score
      L1  H     7    33       P1  7948  0.90
      L1  H    12    38       P1 11000  0.73
      L1  H    13    49       P1 10957  2.00
      P1  H  7989  7998       L1    23  1.00

> <Gold.PLP.Chemscore.Internal.Correction>
0.0634

> <Gold.Rescore>
     Score         DG    S(hbond)    S(metal)    S(lipo)     H(rot)  DE(clash)    DE(int)     intcor
     17.01     -19.59       3.37        0.00      89.07       2.96       0.96       1.62       ----

> <Gold.Chemscore.Fitness>
17.0051

> <Gold.Chemscore.DG>
-19.5940

> <Gold.Chemscore.ZeroCoef>
-5.4800

> <Gold.Chemscore.Hbond>
3.3708

> <Gold.Chemscore.Metal>
0.0000

> <Gold.Chemscore.Lipo>
89.0716

> <Gold.Chemscore.Internal_Hbond>
0.0000

> <Gold.Chemscore.DEClash>
0.9650

> <Gold.Chemscore.DEInternal>
1.6239

> <Gold.Chemscore.Rot>
2.9555

> <Gold.Chemscore.Internal.Correction>
   9.000000E+99

> <Gold.Chemscore.Hbonds>
donor molecule, donor type, donor heavy atom, donor atom, acceptor molecule, acceptor atom, score
      L1  H     7    33       P1  7948  0.88
      L1  H    12    38       P1 11000  0.32
      L1  H    13    49       P1 10957  0.98
      P1  H  7989  7998       L1    23  0.81

> <Gold.Chemscore.Hbond.Weighted>
-11.2586

> <Gold.Chemscore.Metal.Weighted>
-0.0000

> <Gold.Chemscore.Lipo.Weighted>
-10.4214

> <Gold.Chemscore.Internal_Hbond.Weighted>
0.0000

> <Gold.Chemscore.DEClash.Weighted>
0.9650

> <Gold.Chemscore.DEInternal.Weighted>
1.6239

> <Gold.Chemscore.Rot.Weighted>
7.5660

> <Gold.Chemscore.Internal.Correction.Weighted>
   9.000000E+99

> <Gold.Protein.RotatedTorsions>
[ 6907 6896 6895 6894 ] final  -92.44 input  -60.11 | X-H torsion
[ 7974 7965 7964 7962 ] final  173.01 input  175.53 | X-H torsion
[ 8008 7997 7996 7995 ] final  -85.77 input   59.86 | X-H torsion
[ 10167 10162 10161 10158 ] final  -22.51 input  -65.29 | X-H torsion
[ 10718 10713 10712 10709 ] final   84.57 input   66.30 | X-H torsion
[ 10763 10752 10751 10750 ] final   84.49 input  -60.55 | X-H torsion
[ 11005 11000 10999 10996 ] final  120.43 input  -57.11 | X-H torsion

> <Gold.Protein.ActiveResidues>
 VAL166  LYS551  ARG553  GLY616  TRP617  ASP618  TYR619  PRO620  LYS621  CYS622 
 ASP623  PHE694  ASN695  SER759  ASP760  ASP761  ALA762  ILE779  LEU786  VAL792 
 PHE793  MET794  SER795  GLU796  ALA797  LYS798  CYS799  TRP800  GLU811  SER814 

> <Gold.Protein.RotatedAtoms>
  150.6906  134.2122  159.4363 H   0  0  0  0  0  0  0  0  0  0  0  0  # atno 6907 bound_to 6896
  152.0083  134.9888  160.0576 H   0  0  0  0  0  0  0  0  0  0  0  0  # atno 6908 bound_to 6896
  152.1513  133.4489  159.4852 H   0  0  0  0  0  0  0  0  0  0  0  0  # atno 6909 bound_to 6896
  144.7254  139.9583  143.6434 H   0  0  0  0  0  0  0  0  0  0  0  0  # atno 7974 bound_to 7965
  154.6444  140.0587  156.9883 H   0  0  0  0  0  0  0  0  0  0  0  0  # atno 8008 bound_to 7997
  155.1467  140.3270  155.4421 H   0  0  0  0  0  0  0  0  0  0  0  0  # atno 8009 bound_to 7997
  156.2546  140.1954  156.6581 H   0  0  0  0  0  0  0  0  0  0  0  0  # atno 8010 bound_to 7997
  140.7286  143.4528  151.0491 H   0  0  0  0  0  0  0  0  0  0  0  0  # atno 10167 bound_to 10162
  157.6900  131.0138  150.2692 H   0  0  0  0  0  0  0  0  0  0  0  0  # atno 10718 bound_to 10713
  153.1387  135.4652  154.9462 H   0  0  0  0  0  0  0  0  0  0  0  0  # atno 10763 bound_to 10752
  154.7728  135.3164  154.8156 H   0  0  0  0  0  0  0  0  0  0  0  0  # atno 10764 bound_to 10752
  153.8683  135.6906  153.4830 H   0  0  0  0  0  0  0  0  0  0  0  0  # atno 10765 bound_to 10752
  139.9185  134.9634  156.7806 H   0  0  0  0  0  0  0  0  0  0  0  0  # atno 11005 bound_to 11000
  146.0657  139.3648  143.0554 LP  0  0  0  0  0  0  0  0  0  0  0  0  # atno 17320 bound_to 7965
  145.8034  140.9760  143.0987 LP  0  0  0  0  0  0  0  0  0  0  0  0  # atno 17321 bound_to 7965
  139.8206  143.7825  152.3176 LP  0  0  0  0  0  0  0  0  0  0  0  0  # atno 17342 bound_to 10162
  139.7906  144.7411  150.9960 LP  0  0  0  0  0  0  0  0  0  0  0  0  # atno 17343 bound_to 10162
  156.3258  130.3792  149.7535 LP  0  0  0  0  0  0  0  0  0  0  0  0  # atno 17370 bound_to 10713
  156.5090  130.8163  151.3162 LP  0  0  0  0  0  0  0  0  0  0  0  0  # atno 17371 bound_to 10713
  140.6547  133.9699  155.7773 LP  0  0  0  0  0  0  0  0  0  0  0  0  # atno 17394 bound_to 11000
  141.0684  134.0242  157.3561 LP  0  0  0  0  0  0  0  0  0  0  0  0  # atno 17395 bound_to 11000

$$$$
