AV-unprocessed.smi:1542|AV-procd|sdf|6204|dock5
  -GOLD-   22720 6373D 1   1.00000     0.00000
 Structure written by MMmdl.
 46 48  0  0  0  0  0  0  0  0  2 V2000
  148.0769  139.7579  153.3572 O   0  0  0  0  0  0  0  0  0  0  0  0
  147.9790  141.1209  153.7121 C   0  0  0  0  0  0  0  0  0  0  0  0
  149.1054  141.5041  154.6826 C   0  0  0  0  0  0  0  0  0  0  0  0
  148.7608  141.2049  156.1525 C   0  0  0  0  0  0  0  0  0  0  0  0
  149.7727  141.7446  157.1166 C   0  0  0  0  0  0  0  0  0  0  0  0
  150.1127  143.0547  157.2891 N   0  3  0  0  0  0  0  0  0  0  0  0
  151.1293  143.1617  158.2382 C   0  0  0  0  0  0  0  0  0  0  0  0
  151.7912  144.2768  158.7427 C   0  0  0  0  0  0  0  0  0  0  0  0
  152.7982  144.0354  159.7002 C   0  0  0  0  0  0  0  0  0  0  0  0
  153.1146  142.7267  160.1186 C   0  0  0  0  0  0  0  0  0  0  0  0
  152.4353  141.6043  159.6007 C   0  0  0  0  0  0  0  0  0  0  0  0
  151.4371  141.8522  158.6584 C   0  0  0  0  0  0  0  0  0  0  0  0
  150.5769  141.0120  157.9411 N   0  0  0  0  0  0  0  0  0  0  0  0
  150.6520  139.5554  158.1492 C   0  0  0  0  0  0  0  0  0  0  0  0
  151.2994  138.7489  156.9810 C   0  0  0  0  0  0  0  0  0  0  0  0
  152.3183  137.9610  157.5702 O   0  0  0  0  0  0  0  0  0  0  0  0
  150.2595  137.7888  156.3527 C   0  0  0  0  0  0  0  0  0  0  0  0
  150.8148  136.9752  155.1695 C   0  0  0  0  0  0  0  0  0  0  0  0
  151.4289  137.8873  154.0993 C   0  0  0  0  0  0  0  0  0  0  0  0
  152.5169  138.7837  154.7050 C   0  0  0  0  0  0  0  0  0  0  0  0
  151.9635  139.6158  155.8753 C   0  0  0  0  0  0  0  0  0  0  0  0
  148.5187  139.6944  152.5239 H   0  0  0  0  0  0  0  0  0  0  0  0
  148.0463  141.7204  152.8038 H   0  0  0  0  0  0  0  0  0  0  0  0
  147.0011  141.3133  154.1546 H   0  0  0  0  0  0  0  0  0  0  0  0
  150.0229  140.9887  154.3948 H   0  0  0  0  0  0  0  0  0  0  0  0
  149.3056  142.5711  154.5770 H   0  0  0  0  0  0  0  0  0  0  0  0
  147.7849  141.6292  156.3882 H   0  0  0  0  0  0  0  0  0  0  0  0
  148.6809  140.1289  156.3086 H   0  0  0  0  0  0  0  0  0  0  0  0
  151.5535  145.2797  158.4199 H   0  0  0  0  0  0  0  0  0  0  0  0
  153.3409  144.8705  160.1192 H   0  0  0  0  0  0  0  0  0  0  0  0
  153.8957  142.5798  160.8506 H   0  0  0  0  0  0  0  0  0  0  0  0
  152.6913  140.6059  159.9235 H   0  0  0  0  0  0  0  0  0  0  0  0
  151.1695  139.3802  159.0934 H   0  0  0  0  0  0  0  0  0  0  0  0
  149.6371  139.2064  158.3406 H   0  0  0  0  0  0  0  0  0  0  0  0
  152.3873  138.1968  158.4829 H   0  0  0  0  0  0  0  0  0  0  0  0
  149.8700  137.1062  157.1095 H   0  0  0  0  0  0  0  0  0  0  0  0
  149.4052  138.3690  156.0025 H   0  0  0  0  0  0  0  0  0  0  0  0
  151.5673  136.2703  155.5248 H   0  0  0  0  0  0  0  0  0  0  0  0
  150.0184  136.3744  154.7298 H   0  0  0  0  0  0  0  0  0  0  0  0
  151.8484  137.2850  153.2929 H   0  0  0  0  0  0  0  0  0  0  0  0
  150.6494  138.5058  153.6524 H   0  0  0  0  0  0  0  0  0  0  0  0
  153.3530  138.1710  155.0435 H   0  0  0  0  0  0  0  0  0  0  0  0
  152.9169  139.4477  153.9382 H   0  0  0  0  0  0  0  0  0  0  0  0
  151.2329  140.3129  155.4640 H   0  0  0  0  0  0  0  0  0  0  0  0
  152.7654  140.2233  156.2964 H   0  0  0  0  0  0  0  0  0  0  0  0
  149.6793  143.8193  156.7875 H   0  0  0  0  0  0  0  0  0  0  0  0
  1  2  1  0  0  0  0
  1 22  1  0  0  0  0
  2  3  1  0  0  0  0
  2 23  1  0  0  0  0
  2 24  1  0  0  0  0
  3  4  1  0  0  0  0
  3 25  1  0  0  0  0
  3 26  1  0  0  0  0
  4  5  1  0  0  0  0
  4 27  1  0  0  0  0
  4 28  1  0  0  0  0
  5 13  1  0  0  0  0
  5  6  2  0  0  0  0
  6  7  1  0  0  0  0
  6 46  1  0  0  0  0
  7 12  2  0  0  0  0
  7  8  1  0  0  0  0
  8  9  2  0  0  0  0
  8 29  1  0  0  0  0
  9 10  1  0  0  0  0
  9 30  1  0  0  0  0
 10 11  2  0  0  0  0
 10 31  1  0  0  0  0
 11 12  1  0  0  0  0
 11 32  1  0  0  0  0
 12 13  1  0  0  0  0
 13 14  1  0  0  0  0
 14 15  1  0  0  0  0
 14 33  1  0  0  0  0
 14 34  1  0  0  0  0
 15 21  1  0  0  0  0
 15 16  1  0  0  0  0
 15 17  1  0  0  0  0
 16 35  1  0  0  0  0
 17 18  1  0  0  0  0
 17 36  1  0  0  0  0
 17 37  1  0  0  0  0
 18 19  1  0  0  0  0
 18 38  1  0  0  0  0
 18 39  1  0  0  0  0
 19 20  1  0  0  0  0
 19 40  1  0  0  0  0
 19 41  1  0  0  0  0
 20 21  1  0  0  0  0
 20 42  1  0  0  0  0
 20 43  1  0  0  0  0
 21 44  1  0  0  0  0
 21 45  1  0  0  0  0
M  CHG  1   6   1
M  END
> <s_m_source_file>
AV-unprocessed.smi

> <i_m_source_file_index>
1542

> <i_lp_mmshare_version>
43012

> <i_f3d_flags>
0

> <s_epik_input>
W09IXVtDSDJdW0NIMl1bQ0gyXWMobjEpbihjKGMxMilbY0hdW2NIXVtjSF1bY0hdMilbQ0gyXUMzKFtPSF0pW0NIMl1bQ0gyXVtDSDJdW0NIMl1bQ0gyXTM=

> <s_epik_cmdline>
J2VwaWtfcHl0aG9uJywgJy1waCcsICc3LjAnLCAnLXRuJywgJzgnLCAnLW1hJywgJzIwMCcsICctbWV0YWxfYmluZGluZycsICctaW1hZScsICc8aW5maWxlLm1hZT4nLCAnLW9tYWUnLCAnPG91dGZpbGUubWFlPic=

> <r_epik_Ionization_Penalty>
0.555973

> <r_epik_Ionization_Penalty_Charging>
0.555973

> <r_epik_Ionization_Penalty_Neutral>
2.09159e-07

> <r_epik_State_Penalty>
0.566728

> <r_epik_Charging_Adjusted_Penalty>
1.1227

> <i_epik_Tot_Q>
1

> <i_epik_Tot_abs_Q>
1

> <r_epik_Metal_State_Penalty>
4.37256

> <b_epik_Metal_Only>
0

> <s_lp_Force_Field>
OPLS_2005

> <r_lp_Energy>
23.0728

> <b_lp_Chiralities_Consistent>
1

> <s_lp_Variant>
AV-unprocessed.smi:1542-2

> <Gold.Version>
5.8.1

> <Gold.Id.Protein>
6NUR|6NUR_protein|mol2

> <Gold.PLP.Fitness>
51.0243

> <Gold.PLP.PLP>
-44.5203

> <Gold.PLP.part.hbond>
-2.0000

> <Gold.PLP.part.metal>
0.0000

> <Gold.PLP.part.buried>
-6.0504

> <Gold.PLP.part.nonpolar>
-37.4631

> <Gold.PLP.part.repulsive>
0.0080

> <Gold.PLP.ligand.clash>
0.0000

> <Gold.PLP.ligand.torsion>
1.4022

> <Gold.PLP.Chemscore.Hbond>
3.0000

> <Gold.PLP.Chemscore.CHOScore>
0.0000

> <Gold.PLP.Chemscore.Metal>
0.0000

> <Gold.Chemscore.Hbonds>
donor molecule, donor type, donor heavy atom, donor atom, acceptor molecule, acceptor atom, score
      L1  H     1    22       P1  7957  1.00
      L1  H     6    46       P1  8028  2.00

> <Gold.PLP.Chemscore.Internal.Correction>
0.3084

> <Gold.Rescore>
     Score         DG    S(hbond)    S(metal)    S(lipo)     H(rot)  DE(clash)    DE(int)     intcor
     18.89     -20.49       1.99        0.00     132.97       2.82       0.22       1.38       ----

> <Gold.Chemscore.Fitness>
18.8918

> <Gold.Chemscore.DG>
-20.4863

> <Gold.Chemscore.ZeroCoef>
-5.4800

> <Gold.Chemscore.Hbond>
1.9944

> <Gold.Chemscore.Metal>
0.0000

> <Gold.Chemscore.Lipo>
132.9740

> <Gold.Chemscore.Internal_Hbond>
0.0000

> <Gold.Chemscore.DEClash>
0.2190

> <Gold.Chemscore.DEInternal>
1.3756

> <Gold.Chemscore.Rot>
2.8175

> <Gold.Chemscore.Internal.Correction>
   9.000000E+99

> <Gold.Chemscore.Hbonds>
donor molecule, donor type, donor heavy atom, donor atom, acceptor molecule, acceptor atom, score
      L1  H     1    22       P1  7957  1.00
      L1  H     6    46       P1  8028  0.97

> <Gold.Chemscore.Hbond.Weighted>
-6.6612

> <Gold.Chemscore.Metal.Weighted>
-0.0000

> <Gold.Chemscore.Lipo.Weighted>
-15.5580

> <Gold.Chemscore.Internal_Hbond.Weighted>
0.0000

> <Gold.Chemscore.DEClash.Weighted>
0.2190

> <Gold.Chemscore.DEInternal.Weighted>
1.3756

> <Gold.Chemscore.Rot.Weighted>
7.2128

> <Gold.Chemscore.Internal.Correction.Weighted>
   9.000000E+99

> <Gold.Protein.RotatedTorsions>
[ 6907 6896 6895 6894 ] final  141.57 input  -60.11 | X-H torsion
[ 7974 7965 7964 7962 ] final  124.77 input  175.53 | X-H torsion
[ 8008 7997 7996 7995 ] final   17.34 input   59.86 | X-H torsion
[ 10167 10162 10161 10158 ] final  -45.91 input  -65.29 | X-H torsion
[ 10718 10713 10712 10709 ] final    6.95 input   66.30 | X-H torsion
[ 10763 10752 10751 10750 ] final  150.14 input  -60.55 | X-H torsion
[ 11005 11000 10999 10996 ] final  122.75 input  -57.11 | X-H torsion

> <Gold.Protein.ActiveResidues>
 VAL166  LYS551  ARG553  GLY616  TRP617  ASP618  TYR619  PRO620  LYS621  CYS622 
 ASP623  PHE694  ASN695  SER759  ASP760  ASP761  ALA762  ILE779  LEU786  VAL792 
 PHE793  MET794  SER795  GLU796  ALA797  LYS798  CYS799  TRP800  GLU811  SER814 

> <Gold.Protein.RotatedAtoms>
  152.2294  133.5046  159.5206 H   0  0  0  0  0  0  0  0  0  0  0  0  # atno 6907 bound_to 6896
  150.7033  134.1237  159.4053 H   0  0  0  0  0  0  0  0  0  0  0  0  # atno 6908 bound_to 6896
  151.9158  135.0319  160.0569 H   0  0  0  0  0  0  0  0  0  0  0  0  # atno 6909 bound_to 6896
  145.0806  139.3660  143.4911 H   0  0  0  0  0  0  0  0  0  0  0  0  # atno 7974 bound_to 7965
  154.8901  140.2985  155.5376 H   0  0  0  0  0  0  0  0  0  0  0  0  # atno 8008 bound_to 7997
  156.3021  140.2426  156.3849 H   0  0  0  0  0  0  0  0  0  0  0  0  # atno 8009 bound_to 7997
  154.8628  140.0404  157.1664 H   0  0  0  0  0  0  0  0  0  0  0  0  # atno 8010 bound_to 7997
  140.6839  143.2856  151.3707 H   0  0  0  0  0  0  0  0  0  0  0  0  # atno 10167 bound_to 10162
  156.9297  130.5821  149.5649 H   0  0  0  0  0  0  0  0  0  0  0  0  # atno 10718 bound_to 10713
  154.0827  135.2858  155.3287 H   0  0  0  0  0  0  0  0  0  0  0  0  # atno 10763 bound_to 10752
  154.6673  135.5312  153.8097 H   0  0  0  0  0  0  0  0  0  0  0  0  # atno 10764 bound_to 10752
  153.0443  135.6549  154.1001 H   0  0  0  0  0  0  0  0  0  0  0  0  # atno 10765 bound_to 10752
  139.9282  134.9641  156.8156 H   0  0  0  0  0  0  0  0  0  0  0  0  # atno 11005 bound_to 11000
  146.3531  140.0595  142.8630 LP  0  0  0  0  0  0  0  0  0  0  0  0  # atno 17320 bound_to 7965
  145.1182  140.9446  143.4616 LP  0  0  0  0  0  0  0  0  0  0  0  0  # atno 17321 bound_to 7965
  139.6182  144.0961  152.2365 LP  0  0  0  0  0  0  0  0  0  0  0  0  # atno 17342 bound_to 10162
  140.0397  144.6017  150.7421 LP  0  0  0  0  0  0  0  0  0  0  0  0  # atno 17343 bound_to 10162
  156.0452  130.5530  150.8865 LP  0  0  0  0  0  0  0  0  0  0  0  0  # atno 17370 bound_to 10713
  157.5854  131.0945  150.9204 LP  0  0  0  0  0  0  0  0  0  0  0  0  # atno 17371 bound_to 10713
  140.6276  133.9935  155.7647 LP  0  0  0  0  0  0  0  0  0  0  0  0  # atno 17394 bound_to 11000
  141.0854  133.9999  157.3322 LP  0  0  0  0  0  0  0  0  0  0  0  0  # atno 17395 bound_to 11000

$$$$
