AV-unprocessed.smi:2496|AV-procd|sdf|9826|dock1
  -GOLD-   2272013453D 1   1.00000     0.00000
 Structure written by MMmdl.
 40 40  0  0  0  0  0  0  0  0  1 V2000
  153.1939  138.6245  155.3980 C   0  0  0  0  0  0  0  0  0  0  0  0
  151.8006  138.3183  154.9273 C   0  0  0  0  0  0  0  0  0  0  0  0
  151.5144  137.0948  154.5106 N   0  0  0  0  0  0  0  0  0  0  0  0
  150.2144  137.1632  154.1797 N   0  0  0  0  0  0  0  0  0  0  0  0
  149.6686  138.4089  154.3812 C   0  0  0  0  0  0  0  0  0  0  0  0
  148.2320  138.6880  154.0846 C   0  0  0  0  0  0  0  0  0  0  0  0
  150.6779  139.2007  154.8683 C   0  0  0  0  0  0  0  0  0  0  0  0
  150.6503  140.6594  155.2800 C   0  0  1  0  0  0  0  0  0  0  0  0
  149.4291  141.3976  154.7001 C   0  0  0  0  0  0  0  0  0  0  0  0
  150.7486  140.7614  156.8111 C   0  0  0  0  0  0  0  0  0  0  0  0
  150.6670  139.7575  157.5199 O   0  0  0  0  0  0  0  0  0  0  0  0
  150.9341  141.9964  157.3048 N   0  0  0  0  0  0  0  0  0  0  0  0
  151.1608  142.3363  158.7075 C   0  0  2  0  0  0  0  0  0  0  0  0
  150.0817  143.3398  159.1533 C   0  0  0  0  0  0  0  0  0  0  0  0
  152.6093  142.8606  158.8946 C   0  0  0  0  0  0  0  0  0  0  0  0
  153.0658  142.8046  160.3669 C   0  0  0  0  0  0  0  0  0  0  0  0
  152.7874  144.2912  158.3558 C   0  0  0  0  0  0  0  0  0  0  0  0
  149.7156  136.3602  153.8237 H   0  0  0  0  0  0  0  0  0  0  0  0
  153.1837  139.0055  156.4192 H   0  0  0  0  0  0  0  0  0  0  0  0
  153.6603  139.3805  154.7659 H   0  0  0  0  0  0  0  0  0  0  0  0
  153.8319  137.7400  155.3821 H   0  0  0  0  0  0  0  0  0  0  0  0
  147.7958  139.3402  154.8409 H   0  0  0  0  0  0  0  0  0  0  0  0
  147.6479  137.7678  154.0643 H   0  0  0  0  0  0  0  0  0  0  0  0
  148.1263  139.1754  153.1155 H   0  0  0  0  0  0  0  0  0  0  0  0
  151.5327  141.1691  154.8916 H   0  0  0  0  0  0  0  0  0  0  0  0
  148.4888  140.9776  155.0569 H   0  0  0  0  0  0  0  0  0  0  0  0
  149.4241  141.3404  153.6114 H   0  0  0  0  0  0  0  0  0  0  0  0
  149.4416  142.4543  154.9694 H   0  0  0  0  0  0  0  0  0  0  0  0
  150.9836  142.7583  156.6443 H   0  0  0  0  0  0  0  0  0  0  0  0
  151.0548  141.4336  159.3123 H   0  0  0  0  0  0  0  0  0  0  0  0
  150.1277  143.5338  160.2244 H   0  0  0  0  0  0  0  0  0  0  0  0
  149.0815  142.9575  158.9460 H   0  0  0  0  0  0  0  0  0  0  0  0
  150.1859  144.2930  158.6338 H   0  0  0  0  0  0  0  0  0  0  0  0
  153.2794  142.2134  158.3266 H   0  0  0  0  0  0  0  0  0  0  0  0
  152.4031  143.3872  161.0076 H   0  0  0  0  0  0  0  0  0  0  0  0
  154.0734  143.2049  160.4815 H   0  0  0  0  0  0  0  0  0  0  0  0
  153.0872  141.7843  160.7508 H   0  0  0  0  0  0  0  0  0  0  0  0
  152.1009  144.9856  158.8407 H   0  0  0  0  0  0  0  0  0  0  0  0
  152.6159  144.3445  157.2811 H   0  0  0  0  0  0  0  0  0  0  0  0
  153.8012  144.6524  158.5304 H   0  0  0  0  0  0  0  0  0  0  0  0
  1  2  1  0  0  0  0
  1 19  1  0  0  0  0
  1 20  1  0  0  0  0
  1 21  1  0  0  0  0
  2  7  1  0  0  0  0
  2  3  2  0  0  0  0
  3  4  1  0  0  0  0
  4 18  1  0  0  0  0
  4  5  1  0  0  0  0
  5  6  1  0  0  0  0
  5  7  2  0  0  0  0
  6 22  1  0  0  0  0
  6 23  1  0  0  0  0
  6 24  1  0  0  0  0
  7  8  1  0  0  0  0
  8  9  1  0  0  0  0
  8 10  1  0  0  0  0
  8 25  1  0  0  0  0
  9 26  1  0  0  0  0
  9 27  1  0  0  0  0
  9 28  1  0  0  0  0
 10 11  2  0  0  0  0
 10 12  1  0  0  0  0
 12 13  1  0  0  0  0
 12 29  1  0  0  0  0
 13 14  1  0  0  0  0
 13 15  1  0  0  0  0
 13 30  1  0  0  0  0
 14 31  1  0  0  0  0
 14 32  1  0  0  0  0
 14 33  1  0  0  0  0
 15 16  1  0  0  0  0
 15 17  1  0  0  0  0
 15 34  1  0  0  0  0
 16 35  1  0  0  0  0
 16 36  1  0  0  0  0
 16 37  1  0  0  0  0
 17 38  1  0  0  0  0
 17 39  1  0  0  0  0
 17 40  1  0  0  0  0
M  END
> <s_m_source_file>
AV-unprocessed.smi

> <i_m_source_file_index>
2496

> <i_lp_mmshare_version>
43012

> <i_f3d_flags>
0

> <s_epik_input>
W0NIM11jMW5bbkhdYyhbQ0gzXSljMVtDQEhdKFtDSDNdKUMoPU8pW05IXVtDQEhdKFtDSDNdKVtDSF0oW0NIM10pW0NIM10=

> <s_epik_cmdline>
J2VwaWtfcHl0aG9uJywgJy1waCcsICc3LjAnLCAnLXRuJywgJzgnLCAnLW1hJywgJzIwMCcsICctbWV0YWxfYmluZGluZycsICctaW1hZScsICc8aW5maWxlLm1hZT4nLCAnLW9tYWUnLCAnPG91dGZpbGUubWFlPic=

> <r_lp_tautomer_probability>
1

> <r_epik_Ionization_Penalty>
0.000456212

> <r_epik_Ionization_Penalty_Charging>
0

> <r_epik_Ionization_Penalty_Neutral>
0.000456212

> <r_epik_State_Penalty>
-0

> <r_epik_Charging_Adjusted_Penalty>
0

> <i_epik_Tot_Q>
0

> <i_epik_Tot_abs_Q>
0

> <r_epik_Metal_State_Penalty>
-0

> <b_epik_Metal_Only>
0

> <s_lp_Force_Field>
OPLS_2005

> <r_lp_Energy>
1.41326

> <b_lp_Chiralities_Consistent>
1

> <s_lp_Variant>
AV-unprocessed.smi:2496-2

> <Gold.Version>
5.8.1

> <Gold.Id.Protein>
6NUR|6NUR_protein|mol2

> <Gold.PLP.Fitness>
38.5212

> <Gold.PLP.PLP>
-35.3838

> <Gold.PLP.part.hbond>
-3.0000

> <Gold.PLP.part.metal>
0.0000

> <Gold.PLP.part.buried>
0.9201

> <Gold.PLP.part.nonpolar>
-34.1393

> <Gold.PLP.part.repulsive>
0.2683

> <Gold.PLP.ligand.clash>
0.0000

> <Gold.PLP.ligand.torsion>
0.7224

> <Gold.PLP.Chemscore.Hbond>
1.4905

> <Gold.PLP.Chemscore.CHOScore>
0.0000

> <Gold.PLP.Chemscore.Metal>
0.0000

> <Gold.Chemscore.Hbonds>
donor molecule, donor type, donor heavy atom, donor atom, acceptor molecule, acceptor atom, score
      L1  H     4    18       P1  7948  0.41
      P1  H 10752 10763       L1     3  0.99

> <Gold.PLP.Chemscore.Internal.Correction>
0.1108

> <Gold.Rescore>
     Score         DG    S(hbond)    S(metal)    S(lipo)     H(rot)  DE(clash)    DE(int)     intcor
     14.78     -16.83       1.02        0.00     100.05       1.47       0.11       1.93       ----

> <Gold.Chemscore.Fitness>
14.7849

> <Gold.Chemscore.DG>
-16.8334

> <Gold.Chemscore.ZeroCoef>
-5.4800

> <Gold.Chemscore.Hbond>
1.0182

> <Gold.Chemscore.Metal>
0.0000

> <Gold.Chemscore.Lipo>
100.0504

> <Gold.Chemscore.Internal_Hbond>
0.0000

> <Gold.Chemscore.DEClash>
0.1135

> <Gold.Chemscore.DEInternal>
1.9350

> <Gold.Chemscore.Rot>
1.4662

> <Gold.Chemscore.Internal.Correction>
   9.000000E+99

> <Gold.Chemscore.Hbonds>
donor molecule, donor type, donor heavy atom, donor atom, acceptor molecule, acceptor atom, score
      L1  H     4    18       P1  7948  0.20
      P1  H 10752 10763       L1     3  0.91

> <Gold.Chemscore.Hbond.Weighted>
-3.4009

> <Gold.Chemscore.Metal.Weighted>
-0.0000

> <Gold.Chemscore.Lipo.Weighted>
-11.7059

> <Gold.Chemscore.Internal_Hbond.Weighted>
0.0000

> <Gold.Chemscore.DEClash.Weighted>
0.1135

> <Gold.Chemscore.DEInternal.Weighted>
1.9350

> <Gold.Chemscore.Rot.Weighted>
3.7534

> <Gold.Chemscore.Internal.Correction.Weighted>
   9.000000E+99

> <Gold.Protein.RotatedTorsions>
[ 6907 6896 6895 6894 ] final  -45.20 input  -60.11 | X-H torsion
[ 7974 7965 7964 7962 ] final   10.05 input  175.53 | X-H torsion
[ 8008 7997 7996 7995 ] final -104.62 input   59.86 | X-H torsion
[ 10167 10162 10161 10158 ] final -119.65 input  -65.29 | X-H torsion
[ 10718 10713 10712 10709 ] final   46.99 input   66.30 | X-H torsion
[ 10763 10752 10751 10750 ] final   42.02 input  -60.55 | X-H torsion
[ 11005 11000 10999 10996 ] final  115.48 input  -57.11 | X-H torsion

> <Gold.Protein.ActiveResidues>
 VAL166  LYS551  ARG553  GLY616  TRP617  ASP618  TYR619  PRO620  LYS621  CYS622 
 ASP623  PHE694  ASN695  SER759  ASP760  ASP761  ALA762  ILE779  LEU786  VAL792 
 PHE793  MET794  SER795  GLU796  ALA797  LYS798  CYS799  TRP800  GLU811  SER814 

> <Gold.Protein.RotatedAtoms>
  150.9245  134.8662  159.7510 H   0  0  0  0  0  0  0  0  0  0  0  0  # atno 6907 bound_to 6896
  152.5009  134.4169  159.9477 H   0  0  0  0  0  0  0  0  0  0  0  0  # atno 6908 bound_to 6896
  151.4200  133.3661  159.2790 H   0  0  0  0  0  0  0  0  0  0  0  0  # atno 6909 bound_to 6896
  146.2394  139.9692  142.8449 H   0  0  0  0  0  0  0  0  0  0  0  0  # atno 7974 bound_to 7965
  154.8880  140.0417  157.1822 H   0  0  0  0  0  0  0  0  0  0  0  0  # atno 8008 bound_to 7997
  154.8570  140.2938  155.5542 H   0  0  0  0  0  0  0  0  0  0  0  0  # atno 8009 bound_to 7997
  156.2997  140.2454  156.3538 H   0  0  0  0  0  0  0  0  0  0  0  0  # atno 8010 bound_to 7997
  140.0444  143.5121  152.2114 H   0  0  0  0  0  0  0  0  0  0  0  0  # atno 10167 bound_to 10162
  157.4539  130.8155  149.7816 H   0  0  0  0  0  0  0  0  0  0  0  0  # atno 10718 bound_to 10713
  152.9893  135.6144  154.2882 H   0  0  0  0  0  0  0  0  0  0  0  0  # atno 10763 bound_to 10752
  154.2608  135.2782  155.2780 H   0  0  0  0  0  0  0  0  0  0  0  0  # atno 10764 bound_to 10752
  154.5207  135.5815  153.6735 H   0  0  0  0  0  0  0  0  0  0  0  0  # atno 10765 bound_to 10752
  139.9011  134.9584  156.7051 H   0  0  0  0  0  0  0  0  0  0  0  0  # atno 11005 bound_to 11000
  145.1698  140.9715  143.4328 LP  0  0  0  0  0  0  0  0  0  0  0  0  # atno 17320 bound_to 7965
  145.0039  139.3572  143.6153 LP  0  0  0  0  0  0  0  0  0  0  0  0  # atno 17321 bound_to 7965
  139.5993  144.7577  151.3210 LP  0  0  0  0  0  0  0  0  0  0  0  0  # atno 17342 bound_to 10162
  140.7245  143.7041  150.7821 LP  0  0  0  0  0  0  0  0  0  0  0  0  # atno 17343 bound_to 10162
  155.9999  130.3886  150.2648 LP  0  0  0  0  0  0  0  0  0  0  0  0  # atno 17370 bound_to 10713
  157.0822  131.0146  151.3152 LP  0  0  0  0  0  0  0  0  0  0  0  0  # atno 17371 bound_to 10713
  140.7120  133.9215  155.8090 LP  0  0  0  0  0  0  0  0  0  0  0  0  # atno 17394 bound_to 11000
  141.0293  134.0779  157.4032 LP  0  0  0  0  0  0  0  0  0  0  0  0  # atno 17395 bound_to 11000

$$$$
