AV-unprocessed.smi:1765|AV-procd|sdf|7134|dock5
  -GOLD-   22720 8373D 1   1.00000     0.00000
 Structure written by MMmdl.
 39 40  0  0  0  0  0  0  0  0  1 V2000
  144.4789  143.8139  155.5362 C   0  0  0  0  0  0  0  0  0  0  0  0
  145.7323  143.0903  155.3858 N   0  0  0  0  0  0  0  0  0  0  0  0
  146.3156  142.3681  156.3568 C   0  0  0  0  0  0  0  0  0  0  0  0
  145.8142  142.2679  157.4780 O   0  0  0  0  0  0  0  0  0  0  0  0
  147.5706  141.7317  155.9489 C   0  0  0  0  0  0  0  0  0  0  0  0
  148.0354  141.7000  154.5700 C   0  0  0  0  0  0  0  0  0  0  0  0
  149.2015  141.1035  154.2532 C   0  0  0  0  0  0  0  0  0  0  0  0
  150.0439  140.4667  155.2694 C   0  0  0  0  0  0  0  0  0  0  0  0
  151.1107  139.9216  154.9850 O   0  0  0  0  0  0  0  0  0  0  0  0
  149.5690  140.5150  156.5509 N   0  0  0  0  0  0  0  0  0  0  0  0
  150.3284  139.9069  157.6565 C   0  0  0  0  0  0  0  0  0  0  0  0
  151.5602  140.7262  158.0663 C   0  0  0  0  0  0  0  0  0  0  0  0
  152.6932  140.2541  157.9640 O   0  0  0  0  0  0  0  0  0  0  0  0
  151.3181  141.9691  158.5092 N   0  0  0  0  0  0  0  0  0  0  0  0
  152.3353  142.9210  158.9475 C   0  0  0  0  0  0  0  0  0  0  0  0
  152.1024  143.3347  160.4138 C   0  0  0  0  0  0  0  0  0  0  0  0
  152.1618  144.8630  160.4391 C   0  0  0  0  0  0  0  0  0  0  0  0
  151.6939  145.2838  159.0498 C   0  0  0  0  0  0  0  0  0  0  0  0
  152.2820  144.2213  158.1214 C   0  0  0  0  0  0  0  0  0  0  0  0
  148.3505  141.1427  156.8768 C   0  0  0  0  0  0  0  0  0  0  0  0
  144.2135  144.2968  154.5958 H   0  0  0  0  0  0  0  0  0  0  0  0
  144.5651  144.5848  156.3030 H   0  0  0  0  0  0  0  0  0  0  0  0
  143.6696  143.1365  155.8115 H   0  0  0  0  0  0  0  0  0  0  0  0
  146.1868  143.1371  154.4856 H   0  0  0  0  0  0  0  0  0  0  0  0
  147.4630  142.1511  153.7730 H   0  0  0  0  0  0  0  0  0  0  0  0
  149.5263  141.0936  153.2231 H   0  0  0  0  0  0  0  0  0  0  0  0
  149.6961  139.7855  158.5370 H   0  0  0  0  0  0  0  0  0  0  0  0
  150.6352  138.8945  157.3864 H   0  0  0  0  0  0  0  0  0  0  0  0
  150.3576  142.2775  158.5524 H   0  0  0  0  0  0  0  0  0  0  0  0
  153.3252  142.4702  158.8524 H   0  0  0  0  0  0  0  0  0  0  0  0
  151.1176  143.0113  160.7551 H   0  0  0  0  0  0  0  0  0  0  0  0
  152.8361  142.8906  161.0870 H   0  0  0  0  0  0  0  0  0  0  0  0
  151.5552  145.2935  161.2364 H   0  0  0  0  0  0  0  0  0  0  0  0
  153.1919  145.1878  160.5917 H   0  0  0  0  0  0  0  0  0  0  0  0
  150.6046  145.2517  159.0029 H   0  0  0  0  0  0  0  0  0  0  0  0
  152.0104  146.2935  158.7866 H   0  0  0  0  0  0  0  0  0  0  0  0
  153.2966  144.5097  157.8437 H   0  0  0  0  0  0  0  0  0  0  0  0
  151.7131  144.1274  157.1956 H   0  0  0  0  0  0  0  0  0  0  0  0
  148.1030  141.1145  157.9288 H   0  0  0  0  0  0  0  0  0  0  0  0
  1  2  1  0  0  0  0
  1 21  1  0  0  0  0
  1 22  1  0  0  0  0
  1 23  1  0  0  0  0
  2  3  1  0  0  0  0
  2 24  1  0  0  0  0
  3  4  2  0  0  0  0
  3  5  1  0  0  0  0
  5 20  2  0  0  0  0
  5  6  1  0  0  0  0
  6  7  2  0  0  0  0
  6 25  1  0  0  0  0
  7  8  1  0  0  0  0
  7 26  1  0  0  0  0
  8  9  2  0  0  0  0
  8 10  1  0  0  0  0
 10 11  1  0  0  0  0
 10 20  1  0  0  0  0
 11 12  1  0  0  0  0
 11 27  1  0  0  0  0
 11 28  1  0  0  0  0
 12 13  2  0  0  0  0
 12 14  1  0  0  0  0
 14 15  1  0  0  0  0
 14 29  1  0  0  0  0
 15 19  1  0  0  0  0
 15 16  1  0  0  0  0
 15 30  1  0  0  0  0
 16 17  1  0  0  0  0
 16 31  1  0  0  0  0
 16 32  1  0  0  0  0
 17 18  1  0  0  0  0
 17 33  1  0  0  0  0
 17 34  1  0  0  0  0
 18 19  1  0  0  0  0
 18 35  1  0  0  0  0
 18 36  1  0  0  0  0
 19 37  1  0  0  0  0
 19 38  1  0  0  0  0
 20 39  1  0  0  0  0
M  END
> <s_m_source_file>
AV-unprocessed.smi

> <i_m_source_file_index>
1765

> <i_lp_mmshare_version>
43012

> <i_f3d_flags>
0

> <s_epik_input>
W0NIM11bTkhdQyg9TyljMVtjSF1bY0hdYyg9TyluKFtjSF0xKVtDSDJdQyg9TylbTkhdW0NIXTJbQ0gyXVtDSDJdW0NIMl1bQ0gyXTI=

> <s_epik_cmdline>
J2VwaWtfcHl0aG9uJywgJy1waCcsICc3LjAnLCAnLXRuJywgJzgnLCAnLW1hJywgJzIwMCcsICctbWV0YWxfYmluZGluZycsICctaW1hZScsICc8aW5maWxlLm1hZT4nLCAnLW9tYWUnLCAnPG91dGZpbGUubWFlPic=

> <r_lp_tautomer_probability>
1

> <r_epik_Ionization_Penalty>
3.69544e-07

> <r_epik_Ionization_Penalty_Charging>
4.98828e-08

> <r_epik_Ionization_Penalty_Neutral>
3.19661e-07

> <r_epik_State_Penalty>
-0

> <r_epik_Charging_Adjusted_Penalty>
4.98828e-08

> <i_epik_Tot_Q>
0

> <i_epik_Tot_abs_Q>
0

> <r_epik_Metal_State_Penalty>
-0

> <b_epik_Metal_Only>
0

> <s_lp_Force_Field>
OPLS_2005

> <r_lp_Energy>
30.5558

> <b_lp_Chiralities_Consistent>
1

> <s_lp_Variant>
AV-unprocessed.smi:1765-1

> <Gold.Version>
5.8.1

> <Gold.Id.Protein>
6NUR|6NUR_protein|mol2

> <Gold.PLP.Fitness>
44.9881

> <Gold.PLP.PLP>
-39.6037

> <Gold.PLP.part.hbond>
-2.0000

> <Gold.PLP.part.metal>
0.0000

> <Gold.PLP.part.buried>
-5.3788

> <Gold.PLP.part.nonpolar>
-32.5379

> <Gold.PLP.part.repulsive>
0.2050

> <Gold.PLP.ligand.clash>
0.0000

> <Gold.PLP.ligand.torsion>
0.2281

> <Gold.PLP.Chemscore.Hbond>
1.9440

> <Gold.PLP.Chemscore.CHOScore>
0.0000

> <Gold.PLP.Chemscore.Metal>
0.0000

> <Gold.Chemscore.Hbonds>
donor molecule, donor type, donor heavy atom, donor atom, acceptor molecule, acceptor atom, score
      P1  H  7989  7998       L1     9  1.00
      P1  H  7997  8010       L1    13  0.81

> <Gold.PLP.Chemscore.Internal.Correction>
0.0087

> <Gold.Rescore>
     Score         DG    S(hbond)    S(metal)    S(lipo)     H(rot)  DE(clash)    DE(int)     intcor
     17.95     -18.18       1.90        0.00      87.52       1.52       0.01       0.21       ----

> <Gold.Chemscore.Fitness>
17.9517

> <Gold.Chemscore.DG>
-18.1789

> <Gold.Chemscore.ZeroCoef>
-5.4800

> <Gold.Chemscore.Hbond>
1.9050

> <Gold.Chemscore.Metal>
0.0000

> <Gold.Chemscore.Lipo>
87.5241

> <Gold.Chemscore.Internal_Hbond>
0.0000

> <Gold.Chemscore.DEClash>
0.0127

> <Gold.Chemscore.DEInternal>
0.2146

> <Gold.Chemscore.Rot>
1.5250

> <Gold.Chemscore.Internal.Correction>
   9.000000E+99

> <Gold.Chemscore.Hbonds>
donor molecule, donor type, donor heavy atom, donor atom, acceptor molecule, acceptor atom, score
      P1  H  7989  7998       L1     9  0.35
      P1  H  7997  8010       L1    13  0.76

> <Gold.Chemscore.Hbond.Weighted>
-6.3625

> <Gold.Chemscore.Metal.Weighted>
-0.0000

> <Gold.Chemscore.Lipo.Weighted>
-10.2403

> <Gold.Chemscore.Internal_Hbond.Weighted>
0.0000

> <Gold.Chemscore.DEClash.Weighted>
0.0127

> <Gold.Chemscore.DEInternal.Weighted>
0.2146

> <Gold.Chemscore.Rot.Weighted>
3.9039

> <Gold.Chemscore.Internal.Correction.Weighted>
   9.000000E+99

> <Gold.Protein.RotatedTorsions>
[ 6907 6896 6895 6894 ] final   58.73 input  -60.11 | X-H torsion
[ 7974 7965 7964 7962 ] final  -69.42 input  175.53 | X-H torsion
[ 8008 7997 7996 7995 ] final   45.72 input   59.86 | X-H torsion
[ 10167 10162 10161 10158 ] final   20.05 input  -65.29 | X-H torsion
[ 10718 10713 10712 10709 ] final  152.08 input   66.30 | X-H torsion
[ 10763 10752 10751 10750 ] final -152.74 input  -60.55 | X-H torsion
[ 11005 11000 10999 10996 ] final  -65.78 input  -57.11 | X-H torsion

> <Gold.Protein.ActiveResidues>
 VAL166  LYS551  ARG553  GLY616  TRP617  ASP618  TYR619  PRO620  LYS621  CYS622 
 ASP623  PHE694  ASN695  SER759  ASP760  ASP761  ALA762  ILE779  LEU786  VAL792 
 PHE793  MET794  SER795  GLU796  ALA797  LYS798  CYS799  TRP800  GLU811  SER814 

> <Gold.Protein.RotatedAtoms>
  152.3851  134.6530  160.0128 H   0  0  0  0  0  0  0  0  0  0  0  0  # atno 6907 bound_to 6896
  151.6781  133.3307  159.3221 H   0  0  0  0  0  0  0  0  0  0  0  0  # atno 6908 bound_to 6896
  150.7779  134.6741  159.6452 H   0  0  0  0  0  0  0  0  0  0  0  0  # atno 6909 bound_to 6896
  145.7040  140.9105  143.0716 H   0  0  0  0  0  0  0  0  0  0  0  0  # atno 7974 bound_to 7965
  155.3405  140.3408  155.4239 H   0  0  0  0  0  0  0  0  0  0  0  0  # atno 8008 bound_to 7997
  156.1815  140.1666  156.8300 H   0  0  0  0  0  0  0  0  0  0  0  0  # atno 8009 bound_to 7997
  154.5339  140.0739  156.8377 H   0  0  0  0  0  0  0  0  0  0  0  0  # atno 8010 bound_to 7997
  140.5533  143.9470  150.6592 H   0  0  0  0  0  0  0  0  0  0  0  0  # atno 10167 bound_to 10162
  157.2624  131.0801  151.1656 H   0  0  0  0  0  0  0  0  0  0  0  0  # atno 10718 bound_to 10713
  154.7974  135.3229  154.7633 H   0  0  0  0  0  0  0  0  0  0  0  0  # atno 10763 bound_to 10752
  153.8308  135.6879  153.4819 H   0  0  0  0  0  0  0  0  0  0  0  0  # atno 10764 bound_to 10752
  153.1673  135.4637  154.9796 H   0  0  0  0  0  0  0  0  0  0  0  0  # atno 10765 bound_to 10752
  141.1464  133.6687  156.6039 H   0  0  0  0  0  0  0  0  0  0  0  0  # atno 11005 bound_to 11000
  144.6960  139.8986  143.7457 LP  0  0  0  0  0  0  0  0  0  0  0  0  # atno 17320 bound_to 7965
  146.0772  139.3760  143.0486 LP  0  0  0  0  0  0  0  0  0  0  0  0  # atno 17321 bound_to 7965
  140.2902  143.3330  152.1070 LP  0  0  0  0  0  0  0  0  0  0  0  0  # atno 17342 bound_to 10162
  139.5037  144.6760  151.6127 LP  0  0  0  0  0  0  0  0  0  0  0  0  # atno 17343 bound_to 10162
  157.3161  130.6914  149.6243 LP  0  0  0  0  0  0  0  0  0  0  0  0  # atno 17370 bound_to 10713
  155.9664  130.4349  150.5069 LP  0  0  0  0  0  0  0  0  0  0  0  0  # atno 17371 bound_to 10713
  140.3667  134.7641  157.4571 LP  0  0  0  0  0  0  0  0  0  0  0  0  # atno 17394 bound_to 11000
  140.0742  134.5820  155.8609 LP  0  0  0  0  0  0  0  0  0  0  0  0  # atno 17395 bound_to 11000

$$$$
