AV-unprocessed.smi:709|AV-procd|sdf|3460|dock4
  -GOLD-   22720 0443D 1   1.00000     0.00000
 Structure written by MMmdl.
 48 50  0  0  0  0  0  0  0  0  1 V2000
  152.7269  137.1992  158.8711 C   0  0  0  0  0  0  0  0  0  0  0  0
  153.0929  137.1566  157.3861 C   0  0  0  0  0  0  0  0  0  0  0  0
  152.5601  135.9728  156.8174 O   0  0  0  0  0  0  0  0  0  0  0  0
  151.1568  135.8613  156.9944 C   0  0  2  0  0  0  0  0  0  0  0  0
  150.5041  134.6965  156.2423 C   0  0  0  0  0  0  0  0  0  0  0  0
  149.3305  135.6516  156.0142 C   0  0  2  0  0  0  0  0  0  0  0  0
  148.7015  135.4747  154.7097 N   0  0  0  0  0  0  0  0  0  0  0  0
  147.5144  134.8830  154.5194 C   0  0  0  0  0  0  0  0  0  0  0  0
  146.8360  134.4290  155.4403 O   0  0  0  0  0  0  0  0  0  0  0  0
  147.1840  134.8747  153.2145 N   0  0  0  0  0  0  0  0  0  0  0  0
  146.0512  134.3350  152.5782 C   0  0  0  0  0  0  0  0  0  0  0  0
  146.0860  133.4839  151.5213 C   0  0  0  0  0  0  0  0  0  0  0  0
  144.8680  132.9900  150.9250 C   0  0  0  0  0  0  0  0  0  0  0  0
  143.6977  133.3990  151.4336 C   0  0  0  0  0  0  0  0  0  0  0  0
  143.6370  134.2858  152.5216 N   0  0  0  0  0  0  0  0  0  0  0  0
  142.3098  134.6769  153.0034 C   0  0  0  0  0  0  0  0  0  0  0  0
  144.7562  134.7816  153.1288 C   0  0  0  0  0  0  0  0  0  0  0  0
  144.6719  135.5589  154.0830 O   0  0  0  0  0  0  0  0  0  0  0  0
  150.3380  136.8272  156.1017 C   0  0  0  0  0  0  0  0  0  0  0  0
  151.0103  137.3413  154.8214 C   0  0  0  0  0  0  0  0  0  0  0  0
  151.6839  138.6664  155.1827 C   0  0  0  0  0  0  0  0  0  0  0  0
  150.9055  139.2076  156.3864 C   0  0  0  0  0  0  0  0  0  0  0  0
  149.8736  138.1312  156.7415 C   0  0  0  0  0  0  0  0  0  0  0  0
  153.1191  138.1000  159.3434 H   0  0  0  0  0  0  0  0  0  0  0  0
  153.1366  136.3381  159.3996 H   0  0  0  0  0  0  0  0  0  0  0  0
  151.6452  137.1935  159.0072 H   0  0  0  0  0  0  0  0  0  0  0  0
  152.6927  138.0351  156.8782 H   0  0  0  0  0  0  0  0  0  0  0  0
  154.1777  137.1739  157.2714 H   0  0  0  0  0  0  0  0  0  0  0  0
  150.8524  135.9097  158.0429 H   0  0  0  0  0  0  0  0  0  0  0  0
  151.0369  134.4213  155.3299 H   0  0  0  0  0  0  0  0  0  0  0  0
  150.2749  133.8267  156.8582 H   0  0  0  0  0  0  0  0  0  0  0  0
  148.6302  135.6363  156.8533 H   0  0  0  0  0  0  0  0  0  0  0  0
  149.1991  135.8293  153.9059 H   0  0  0  0  0  0  0  0  0  0  0  0
  147.8288  135.3378  152.5903 H   0  0  0  0  0  0  0  0  0  0  0  0
  147.0120  133.1564  151.0786 H   0  0  0  0  0  0  0  0  0  0  0  0
  144.8994  132.3078  150.0883 H   0  0  0  0  0  0  0  0  0  0  0  0
  142.7441  133.0760  151.0422 H   0  0  0  0  0  0  0  0  0  0  0  0
  142.1782  134.3812  154.0450 H   0  0  0  0  0  0  0  0  0  0  0  0
  141.5019  134.2203  152.4307 H   0  0  0  0  0  0  0  0  0  0  0  0
  142.1819  135.7585  152.9381 H   0  0  0  0  0  0  0  0  0  0  0  0
  151.7237  136.6328  154.3993 H   0  0  0  0  0  0  0  0  0  0  0  0
  150.2648  137.5328  154.0491 H   0  0  0  0  0  0  0  0  0  0  0  0
  152.7227  138.4915  155.4654 H   0  0  0  0  0  0  0  0  0  0  0  0
  151.6841  139.3624  154.3432 H   0  0  0  0  0  0  0  0  0  0  0  0
  151.5846  139.3770  157.2228 H   0  0  0  0  0  0  0  0  0  0  0  0
  150.4198  140.1574  156.1608 H   0  0  0  0  0  0  0  0  0  0  0  0
  148.9022  138.4162  156.3364 H   0  0  0  0  0  0  0  0  0  0  0  0
  149.7482  138.0435  157.8211 H   0  0  0  0  0  0  0  0  0  0  0  0
  1  2  1  0  0  0  0
  1 24  1  0  0  0  0
  1 25  1  0  0  0  0
  1 26  1  0  0  0  0
  2  3  1  0  0  0  0
  2 27  1  0  0  0  0
  2 28  1  0  0  0  0
  3  4  1  0  0  0  0
  4 19  1  0  0  0  0
  4  5  1  0  0  0  0
  4 29  1  0  0  0  0
  5  6  1  0  0  0  0
  5 30  1  0  0  0  0
  5 31  1  0  0  0  0
  6  7  1  0  0  0  0
  6 19  1  0  0  0  0
  6 32  1  0  0  0  0
  7  8  1  0  0  0  0
  7 33  1  0  0  0  0
  8  9  2  0  0  0  0
  8 10  1  0  0  0  0
 10 11  1  0  0  0  0
 10 34  1  0  0  0  0
 11 17  1  0  0  0  0
 11 12  2  0  0  0  0
 12 13  1  0  0  0  0
 12 35  1  0  0  0  0
 13 14  2  0  0  0  0
 13 36  1  0  0  0  0
 14 15  1  0  0  0  0
 14 37  1  0  0  0  0
 15 16  1  0  0  0  0
 15 17  1  0  0  0  0
 16 38  1  0  0  0  0
 16 39  1  0  0  0  0
 16 40  1  0  0  0  0
 17 18  2  0  0  0  0
 19 23  1  0  0  0  0
 19 20  1  0  0  0  0
 20 21  1  0  0  0  0
 20 41  1  0  0  0  0
 20 42  1  0  0  0  0
 21 22  1  0  0  0  0
 21 43  1  0  0  0  0
 21 44  1  0  0  0  0
 22 23  1  0  0  0  0
 22 45  1  0  0  0  0
 22 46  1  0  0  0  0
 23 47  1  0  0  0  0
 23 48  1  0  0  0  0
M  END
> <s_m_source_file>
AV-unprocessed.smi

> <i_m_source_file_index>
709

> <i_lp_mmshare_version>
43012

> <i_f3d_flags>
0

> <s_epik_input>
W0NIMl0xW0NIMl1bQ0gyXVtDSDJdQzEyW0NASF0oT1tDSDJdW0NIM10pW0NIMl1bQ0BIXTJbTkhdQyg9TylbTkhdYzNbY0hdW2NIXVtjSF1uKFtDSDNdKWMzPU8=

> <s_epik_cmdline>
J2VwaWtfcHl0aG9uJywgJy1waCcsICc3LjAnLCAnLXRuJywgJzgnLCAnLW1hJywgJzIwMCcsICctbWV0YWxfYmluZGluZycsICctaW1hZScsICc8aW5maWxlLm1hZT4nLCAnLW9tYWUnLCAnPG91dGZpbGUubWFlPic=

> <r_lp_tautomer_probability>
1

> <r_epik_Ionization_Penalty>
2.50859e-05

> <r_epik_Ionization_Penalty_Charging>
5.10493e-06

> <r_epik_Ionization_Penalty_Neutral>
1.9981e-05

> <r_epik_State_Penalty>
-0

> <r_epik_Charging_Adjusted_Penalty>
5.10493e-06

> <i_epik_Tot_Q>
0

> <i_epik_Tot_abs_Q>
0

> <r_epik_Metal_State_Penalty>
-0

> <b_epik_Metal_Only>
0

> <s_lp_Force_Field>
OPLS_2005

> <r_lp_Energy>
49.811

> <b_lp_Chiralities_Consistent>
1

> <s_lp_Variant>
AV-unprocessed.smi:709-3

> <Gold.Version>
5.8.1

> <Gold.Id.Protein>
6NUR|6NUR_protein|mol2

> <Gold.PLP.Fitness>
41.6951

> <Gold.PLP.PLP>
-31.4159

> <Gold.PLP.part.hbond>
-3.0000

> <Gold.PLP.part.metal>
0.0000

> <Gold.PLP.part.buried>
-4.7971

> <Gold.PLP.part.nonpolar>
-23.3724

> <Gold.PLP.part.repulsive>
0.0605

> <Gold.PLP.ligand.clash>
0.0000

> <Gold.PLP.ligand.torsion>
0.7941

> <Gold.PLP.Chemscore.Hbond>
2.9440

> <Gold.PLP.Chemscore.CHOScore>
0.9051

> <Gold.PLP.Chemscore.Metal>
0.0000

> <Gold.Chemscore.Hbonds>
donor molecule, donor type, donor heavy atom, donor atom, acceptor molecule, acceptor atom, score
      L1  H     7    33       P1  7948  0.76
      L1  H    10    34       P1  7948  1.00
      P1  H 10752 10764       L1     3  1.00
      L1  C    14    37       P1 10186  0.69

> <Gold.PLP.Chemscore.Internal.Correction>
0.3202

> <Gold.Rescore>
     Score         DG    S(hbond)    S(metal)    S(lipo)     H(rot)  DE(clash)    DE(int)     intcor
     19.94     -20.99       2.92        0.00      79.04       1.36       0.05       1.00       ----

> <Gold.Chemscore.Fitness>
19.9408

> <Gold.Chemscore.DG>
-20.9893

> <Gold.Chemscore.ZeroCoef>
-5.4800

> <Gold.Chemscore.Hbond>
2.9169

> <Gold.Chemscore.Metal>
0.0000

> <Gold.Chemscore.Lipo>
79.0430

> <Gold.Chemscore.Internal_Hbond>
0.0000

> <Gold.Chemscore.DEClash>
0.0517

> <Gold.Chemscore.DEInternal>
0.9968

> <Gold.Chemscore.Rot>
1.3599

> <Gold.Chemscore.Internal.Correction>
   9.000000E+99

> <Gold.Chemscore.Hbonds>
donor molecule, donor type, donor heavy atom, donor atom, acceptor molecule, acceptor atom, score
      L1  H     7    33       P1  7948  0.61
      L1  H    10    34       P1  7948  0.98
      P1  H 10752 10764       L1     3  0.81

> <Gold.Chemscore.Hbond.Weighted>
-9.7426

> <Gold.Chemscore.Metal.Weighted>
-0.0000

> <Gold.Chemscore.Lipo.Weighted>
-9.2480

> <Gold.Chemscore.Internal_Hbond.Weighted>
0.0000

> <Gold.Chemscore.DEClash.Weighted>
0.0517

> <Gold.Chemscore.DEInternal.Weighted>
0.9968

> <Gold.Chemscore.Rot.Weighted>
3.4813

> <Gold.Chemscore.Internal.Correction.Weighted>
   9.000000E+99

> <Gold.Protein.RotatedTorsions>
[ 6907 6896 6895 6894 ] final  -97.95 input  -60.11 | X-H torsion
[ 7974 7965 7964 7962 ] final   17.64 input  175.53 | X-H torsion
[ 8008 7997 7996 7995 ] final   26.81 input   59.86 | X-H torsion
[ 10167 10162 10161 10158 ] final  118.67 input  -65.29 | X-H torsion
[ 10718 10713 10712 10709 ] final -169.05 input   66.30 | X-H torsion
[ 10763 10752 10751 10750 ] final  -30.96 input  -60.55 | X-H torsion
[ 11005 11000 10999 10996 ] final  -39.66 input  -57.11 | X-H torsion

> <Gold.Protein.ActiveResidues>
 VAL166  LYS551  ARG553  GLY616  TRP617  ASP618  TYR619  PRO620  LYS621  CYS622 
 ASP623  PHE694  ASN695  SER759  ASP760  ASP761  ALA762  ILE779  LEU786  VAL792 
 PHE793  MET794  SER795  GLU796  ALA797  LYS798  CYS799  TRP800  GLU811  SER814 

> <Gold.Protein.RotatedAtoms>
  150.7032  134.1269  159.4055 H   0  0  0  0  0  0  0  0  0  0  0  0  # atno 6907 bound_to 6896
  151.9255  135.0277  160.0534 H   0  0  0  0  0  0  0  0  0  0  0  0  # atno 6908 bound_to 6896
  152.2219  133.4955  159.5204 H   0  0  0  0  0  0  0  0  0  0  0  0  # atno 6909 bound_to 6896
  146.2212  139.8573  142.8611 H   0  0  0  0  0  0  0  0  0  0  0  0  # atno 7974 bound_to 7965
  155.0331  140.3161  155.4751 H   0  0  0  0  0  0  0  0  0  0  0  0  # atno 8008 bound_to 7997
  156.2870  140.2176  156.5395 H   0  0  0  0  0  0  0  0  0  0  0  0  # atno 8009 bound_to 7997
  154.7353  140.0478  157.0751 H   0  0  0  0  0  0  0  0  0  0  0  0  # atno 8010 bound_to 7997
  139.6096  144.7078  151.2874 H   0  0  0  0  0  0  0  0  0  0  0  0  # atno 10167 bound_to 10162
  156.7058  130.9214  151.3084 H   0  0  0  0  0  0  0  0  0  0  0  0  # atno 10718 bound_to 10713
  153.7896  135.6899  153.4874 H   0  0  0  0  0  0  0  0  0  0  0  0  # atno 10763 bound_to 10752
  153.1758  135.4525  154.9962 H   0  0  0  0  0  0  0  0  0  0  0  0  # atno 10764 bound_to 10752
  154.8050  135.3353  154.7393 H   0  0  0  0  0  0  0  0  0  0  0  0  # atno 10765 bound_to 10752
  141.0118  133.6904  156.2216 H   0  0  0  0  0  0  0  0  0  0  0  0  # atno 11005 bound_to 11000
  145.2740  141.0118  143.3755 LP  0  0  0  0  0  0  0  0  0  0  0  0  # atno 17320 bound_to 7965
  144.9201  139.4422  143.6545 LP  0  0  0  0  0  0  0  0  0  0  0  0  # atno 17321 bound_to 7965
  140.7309  143.6865  150.7957 LP  0  0  0  0  0  0  0  0  0  0  0  0  # atno 17342 bound_to 10162
  140.0457  143.5300  152.2697 LP  0  0  0  0  0  0  0  0  0  0  0  0  # atno 17343 bound_to 10162
  157.6955  130.9277  150.0633 LP  0  0  0  0  0  0  0  0  0  0  0  0  # atno 17370 bound_to 10713
  156.1696  130.3646  149.9184 LP  0  0  0  0  0  0  0  0  0  0  0  0  # atno 17371 bound_to 10713
  140.6721  134.4857  157.5587 LP  0  0  0  0  0  0  0  0  0  0  0  0  # atno 17394 bound_to 11000
  139.9094  134.8378  156.1584 LP  0  0  0  0  0  0  0  0  0  0  0  0  # atno 17395 bound_to 11000

$$$$
