AV-unprocessed.smi:2033|AV-procd|sdf|8259|dock7
  -GOLD-   2272010533D 1   1.00000     0.00000
 Structure written by MMmdl.
 33 34  0  0  0  0  0  0  0  0  1 V2000
  153.2844  142.3456  161.3259 C   0  0  0  0  0  0  0  0  0  0  0  0
  152.5181  142.7184  160.1030 C   0  0  0  0  0  0  0  0  0  0  0  0
  152.5399  143.9509  159.5811 N   0  0  0  0  0  0  0  0  0  0  0  0
  151.7477  144.0557  158.4462 N   0  0  0  0  0  0  0  0  0  0  0  0
  151.1498  142.8948  158.1449 C   0  0  0  0  0  0  0  0  0  0  0  0
  150.2838  142.7186  157.0334 N   0  0  0  0  0  0  0  0  0  0  0  0
  149.7252  141.5807  156.5846 C   0  0  0  0  0  0  0  0  0  0  0  0
  149.8809  140.4659  157.0836 O   0  0  0  0  0  0  0  0  0  0  0  0
  148.9616  141.8084  155.5058 N   0  0  0  0  0  0  0  0  0  0  0  0
  148.1841  140.8017  154.7830 C   0  0  2  0  0  0  0  0  0  0  0  0
  147.0651  140.2207  155.6847 C   0  0  0  0  0  0  0  0  0  0  0  0
  146.5472  138.8181  155.3025 C   0  0  0  0  0  0  0  0  0  0  0  0
  146.0967  138.6526  153.8369 C   0  0  0  0  0  0  0  0  0  0  0  0
  147.1341  139.0075  152.7441 C   0  0  0  0  0  0  0  0  0  0  0  0
  148.5268  138.9462  153.1873 N   0  0  0  0  0  0  0  0  0  0  0  0
  149.0877  139.7563  154.1017 C   0  0  0  0  0  0  0  0  0  0  0  0
  150.2756  139.6564  154.4062 O   0  0  0  0  0  0  0  0  0  0  0  0
  151.5085  141.5674  159.2363 S   0  0  0  0  0  0  0  0  0  0  0  0
  154.0156  143.1165  161.5717 H   0  0  0  0  0  0  0  0  0  0  0  0
  153.8113  141.4052  161.1642 H   0  0  0  0  0  0  0  0  0  0  0  0
  152.6040  142.2268  162.1690 H   0  0  0  0  0  0  0  0  0  0  0  0
  150.0615  143.5593  156.5207 H   0  0  0  0  0  0  0  0  0  0  0  0
  148.8874  142.7564  155.1663 H   0  0  0  0  0  0  0  0  0  0  0  0
  147.6984  141.3328  153.9633 H   0  0  0  0  0  0  0  0  0  0  0  0
  147.4217  140.1682  156.7144 H   0  0  0  0  0  0  0  0  0  0  0  0
  146.2278  140.9194  155.7000 H   0  0  0  0  0  0  0  0  0  0  0  0
  147.3128  138.0746  155.5290 H   0  0  0  0  0  0  0  0  0  0  0  0
  145.7103  138.5672  155.9549 H   0  0  0  0  0  0  0  0  0  0  0  0
  145.8002  137.6120  153.7021 H   0  0  0  0  0  0  0  0  0  0  0  0
  145.1914  139.2359  153.6659 H   0  0  0  0  0  0  0  0  0  0  0  0
  147.0137  138.3326  151.8964 H   0  0  0  0  0  0  0  0  0  0  0  0
  146.9324  140.0027  152.3466 H   0  0  0  0  0  0  0  0  0  0  0  0
  149.1138  138.2495  152.7516 H   0  0  0  0  0  0  0  0  0  0  0  0
  1  2  1  0  0  0  0
  1 19  1  0  0  0  0
  1 20  1  0  0  0  0
  1 21  1  0  0  0  0
  2 18  1  0  0  0  0
  2  3  2  0  0  0  0
  3  4  1  0  0  0  0
  4  5  2  0  0  0  0
  5  6  1  0  0  0  0
  5 18  1  0  0  0  0
  6  7  1  0  0  0  0
  6 22  1  0  0  0  0
  7  8  2  0  0  0  0
  7  9  1  0  0  0  0
  9 10  1  0  0  0  0
  9 23  1  0  0  0  0
 10 16  1  0  0  0  0
 10 11  1  0  0  0  0
 10 24  1  0  0  0  0
 11 12  1  0  0  0  0
 11 25  1  0  0  0  0
 11 26  1  0  0  0  0
 12 13  1  0  0  0  0
 12 27  1  0  0  0  0
 12 28  1  0  0  0  0
 13 14  1  0  0  0  0
 13 29  1  0  0  0  0
 13 30  1  0  0  0  0
 14 15  1  0  0  0  0
 14 31  1  0  0  0  0
 14 32  1  0  0  0  0
 15 16  1  0  0  0  0
 15 33  1  0  0  0  0
 16 17  2  0  0  0  0
M  END
> <s_m_source_file>
AV-unprocessed.smi

> <i_m_source_file_index>
2033

> <i_lp_mmshare_version>
43012

> <i_f3d_flags>
0

> <s_epik_input>
W0NIM11jMW5uYyhzMSlbTkhdQyg9TylbTkhdW0NAQEhdMltDSDJdW0NIMl1bQ0gyXVtDSDJdW05IXUMyPU8=

> <s_epik_cmdline>
J2VwaWtfcHl0aG9uJywgJy1waCcsICc3LjAnLCAnLXRuJywgJzgnLCAnLW1hJywgJzIwMCcsICctbWV0YWxfYmluZGluZycsICctaW1hZScsICc8aW5maWxlLm1hZT4nLCAnLW9tYWUnLCAnPG91dGZpbGUubWFlPic=

> <r_lp_tautomer_probability>
1

> <r_epik_Ionization_Penalty>
0.00079266

> <r_epik_Ionization_Penalty_Charging>
0

> <r_epik_Ionization_Penalty_Neutral>
0.00079266

> <r_epik_State_Penalty>
-0

> <r_epik_Charging_Adjusted_Penalty>
0

> <i_epik_Tot_Q>
0

> <i_epik_Tot_abs_Q>
0

> <r_epik_Metal_State_Penalty>
0.265831

> <b_epik_Metal_Only>
0

> <s_lp_Force_Field>
OPLS_2005

> <r_lp_Energy>
13.3352

> <b_lp_Chiralities_Consistent>
1

> <s_lp_Variant>
AV-unprocessed.smi:2033-1

> <Gold.Version>
5.8.1

> <Gold.Id.Protein>
6NUR|6NUR_protein|mol2

> <Gold.PLP.Fitness>
39.0613

> <Gold.PLP.PLP>
-28.4341

> <Gold.PLP.part.hbond>
-5.0000

> <Gold.PLP.part.metal>
0.0000

> <Gold.PLP.part.buried>
-4.9348

> <Gold.PLP.part.nonpolar>
-19.5279

> <Gold.PLP.part.repulsive>
0.4542

> <Gold.PLP.ligand.clash>
0.0000

> <Gold.PLP.ligand.torsion>
0.0336

> <Gold.PLP.Chemscore.Hbond>
3.5477

> <Gold.PLP.Chemscore.CHOScore>
0.0000

> <Gold.PLP.Chemscore.Metal>
0.0000

> <Gold.Chemscore.Hbonds>
donor molecule, donor type, donor heavy atom, donor atom, acceptor molecule, acceptor atom, score
      L1  H     6    22       P1  8028  1.00
      L1  H     9    23       P1  8028  0.94
      L1  H    15    33       P1  7948  0.52
      P1  H  7989  7998       L1    17  1.00

> <Gold.PLP.Chemscore.Internal.Correction>
0.0513

> <Gold.Rescore>
     Score         DG    S(hbond)    S(metal)    S(lipo)     H(rot)  DE(clash)    DE(int)     intcor
     16.02     -19.72       3.32        0.00      48.87       1.00       0.13       3.57       ----

> <Gold.Chemscore.Fitness>
16.0190

> <Gold.Chemscore.DG>
-19.7228

> <Gold.Chemscore.ZeroCoef>
-5.4800

> <Gold.Chemscore.Hbond>
3.3188

> <Gold.Chemscore.Metal>
0.0000

> <Gold.Chemscore.Lipo>
48.8722

> <Gold.Chemscore.Internal_Hbond>
0.0000

> <Gold.Chemscore.DEClash>
0.1303

> <Gold.Chemscore.DEInternal>
3.5735

> <Gold.Chemscore.Rot>
1.0000

> <Gold.Chemscore.Internal.Correction>
   9.000000E+99

> <Gold.Chemscore.Hbonds>
donor molecule, donor type, donor heavy atom, donor atom, acceptor molecule, acceptor atom, score
      L1  H     6    22       P1  8028  0.98
      L1  H     9    23       P1  8028  0.87
      L1  H    15    33       P1  7948  0.51
      P1  H  7989  7998       L1    17  0.90

> <Gold.Chemscore.Hbond.Weighted>
-11.0847

> <Gold.Chemscore.Metal.Weighted>
-0.0000

> <Gold.Chemscore.Lipo.Weighted>
-5.7181

> <Gold.Chemscore.Internal_Hbond.Weighted>
0.0000

> <Gold.Chemscore.DEClash.Weighted>
0.1303

> <Gold.Chemscore.DEInternal.Weighted>
3.5735

> <Gold.Chemscore.Rot.Weighted>
2.5600

> <Gold.Chemscore.Internal.Correction.Weighted>
   9.000000E+99

> <Gold.Protein.RotatedTorsions>
[ 6907 6896 6895 6894 ] final  -45.47 input  -60.11 | X-H torsion
[ 7974 7965 7964 7962 ] final -100.52 input  175.53 | X-H torsion
[ 8008 7997 7996 7995 ] final -147.87 input   59.86 | X-H torsion
[ 10167 10162 10161 10158 ] final -108.93 input  -65.29 | X-H torsion
[ 10718 10713 10712 10709 ] final  -50.99 input   66.30 | X-H torsion
[ 10763 10752 10751 10750 ] final   45.10 input  -60.55 | X-H torsion
[ 11005 11000 10999 10996 ] final  178.14 input  -57.11 | X-H torsion

> <Gold.Protein.ActiveResidues>
 VAL166  LYS551  ARG553  GLY616  TRP617  ASP618  TYR619  PRO620  LYS621  CYS622 
 ASP623  PHE694  ASN695  SER759  ASP760  ASP761  ALA762  ILE779  LEU786  VAL792 
 PHE793  MET794  SER795  GLU796  ALA797  LYS798  CYS799  TRP800  GLU811  SER814 

> <Gold.Protein.RotatedAtoms>
  150.9216  134.8633  159.7492 H   0  0  0  0  0  0  0  0  0  0  0  0  # atno 6907 bound_to 6896
  152.4995  134.4210  159.9490 H   0  0  0  0  0  0  0  0  0  0  0  0  # atno 6908 bound_to 6896
  151.4243  133.3649  159.2795 H   0  0  0  0  0  0  0  0  0  0  0  0  # atno 6909 bound_to 6896
  145.2936  140.9359  143.2864 H   0  0  0  0  0  0  0  0  0  0  0  0  # atno 7974 bound_to 7965
  155.5825  140.0645  157.2779 H   0  0  0  0  0  0  0  0  0  0  0  0  # atno 8008 bound_to 7997
  154.4328  140.1849  156.1038 H   0  0  0  0  0  0  0  0  0  0  0  0  # atno 8009 bound_to 7997
  156.0294  140.3308  155.7127 H   0  0  0  0  0  0  0  0  0  0  0  0  # atno 8010 bound_to 7997
  140.1608  143.4122  152.1427 H   0  0  0  0  0  0  0  0  0  0  0  0  # atno 10167 bound_to 10162
  156.1751  130.4150  149.9589 H   0  0  0  0  0  0  0  0  0  0  0  0  # atno 10718 bound_to 10713
  152.9830  135.6050  154.3381 H   0  0  0  0  0  0  0  0  0  0  0  0  # atno 10763 bound_to 10752
  154.3080  135.2771  155.2581 H   0  0  0  0  0  0  0  0  0  0  0  0  # atno 10764 bound_to 10752
  154.4804  135.5918  153.6441 H   0  0  0  0  0  0  0  0  0  0  0  0  # atno 10765 bound_to 10752
  140.3918  134.6856  157.4512 H   0  0  0  0  0  0  0  0  0  0  0  0  # atno 11005 bound_to 11000
  144.9152  139.4479  143.6567 LP  0  0  0  0  0  0  0  0  0  0  0  0  # atno 17320 bound_to 7965
  146.3176  139.7983  142.8971 LP  0  0  0  0  0  0  0  0  0  0  0  0  # atno 17321 bound_to 7965
  139.5382  144.7231  151.4822 LP  0  0  0  0  0  0  0  0  0  0  0  0  # atno 17342 bound_to 10162
  140.6644  143.8429  150.6925 LP  0  0  0  0  0  0  0  0  0  0  0  0  # atno 17343 bound_to 10162
  156.7378  130.9068  151.3630 LP  0  0  0  0  0  0  0  0  0  0  0  0  # atno 17370 bound_to 10713
  157.6830  130.9158  150.0314 LP  0  0  0  0  0  0  0  0  0  0  0  0  # atno 17371 bound_to 10713
  140.0401  134.6280  155.8992 LP  0  0  0  0  0  0  0  0  0  0  0  0  # atno 17394 bound_to 11000
  141.1888  133.6563  156.5340 LP  0  0  0  0  0  0  0  0  0  0  0  0  # atno 17395 bound_to 11000

$$$$
