AV-unprocessed.smi:1414|AV-procd|sdf|5762|dock8
  -GOLD-   22720 5403D 1   1.00000     0.00000
 Structure written by MMmdl.
 45 46  0  0  0  0  0  0  0  0  1 V2000
  148.6606  140.6792  154.1352 C   0  0  0  0  0  0  0  0  0  0  0  0
  149.6304  139.7922  154.9239 C   0  0  1  0  0  0  0  0  0  0  0  0
  149.6403  138.3481  154.4008 C   0  0  0  0  0  0  0  0  0  0  0  0
  150.6748  137.5488  155.0726 N   0  0  0  0  0  0  0  0  0  0  0  0
  150.2598  136.1208  155.9696 S   0  0  0  0  0  0  0  0  0  0  0  0
  151.4839  135.3131  156.0820 O   0  0  0  0  0  0  0  0  0  0  0  0
  149.5485  136.5451  157.1857 O   0  0  0  0  0  0  0  0  0  0  0  0
  149.0887  135.2216  154.8565 C   0  0  0  0  0  0  0  0  0  0  0  0
  149.6052  133.8227  154.4770 C   0  0  0  0  0  0  0  0  0  0  0  0
  148.8815  133.2601  153.3418 N   0  0  0  0  0  0  0  0  0  0  0  0
  147.5527  133.2811  153.1698 C   0  0  0  0  0  0  0  0  0  0  0  0
  146.7707  133.8011  153.9641 O   0  0  0  0  0  0  0  0  0  0  0  0
  147.1992  132.6456  152.0399 N   0  0  0  0  0  0  0  0  0  0  0  0
  145.8970  132.4850  151.4954 C   0  0  0  0  0  0  0  0  0  0  0  0
  144.8486  133.2566  152.0374 C   0  0  0  0  0  0  0  0  0  0  0  0
  143.5462  133.0976  151.5271 C   0  0  0  0  0  0  0  0  0  0  0  0
  143.3405  132.1601  150.4964 C   0  0  0  0  0  0  0  0  0  0  0  0
  144.3293  131.4019  149.9776 N   0  0  0  0  0  0  0  0  0  0  0  0
  145.5768  131.5616  150.4695 C   0  0  0  0  0  0  0  0  0  0  0  0
  152.0067  138.1697  155.1828 C   0  0  0  0  0  0  0  0  0  0  0  0
  151.9429  139.6704  155.5413 C   0  0  2  0  0  0  0  0  0  0  0  0
  151.8180  139.9455  157.0474 C   0  0  0  0  0  0  0  0  0  0  0  0
  150.9339  140.3471  154.7952 O   0  0  0  0  0  0  0  0  0  0  0  0
  147.6399  140.3023  154.2041 H   0  0  0  0  0  0  0  0  0  0  0  0
  148.9314  140.7211  153.0798 H   0  0  0  0  0  0  0  0  0  0  0  0
  148.6648  141.6988  154.5210 H   0  0  0  0  0  0  0  0  0  0  0  0
  149.3160  139.8041  155.9672 H   0  0  0  0  0  0  0  0  0  0  0  0
  148.6600  137.8928  154.5414 H   0  0  0  0  0  0  0  0  0  0  0  0
  149.8424  138.3380  153.3293 H   0  0  0  0  0  0  0  0  0  0  0  0
  148.1064  135.1878  155.3264 H   0  0  0  0  0  0  0  0  0  0  0  0
  148.9892  135.8240  153.9535 H   0  0  0  0  0  0  0  0  0  0  0  0
  150.6529  133.8824  154.1828 H   0  0  0  0  0  0  0  0  0  0  0  0
  149.5611  133.1465  155.3308 H   0  0  0  0  0  0  0  0  0  0  0  0
  149.4402  132.8057  152.6341 H   0  0  0  0  0  0  0  0  0  0  0  0
  147.9409  132.1794  151.5384 H   0  0  0  0  0  0  0  0  0  0  0  0
  145.0379  133.9655  152.8303 H   0  0  0  0  0  0  0  0  0  0  0  0
  142.7237  133.6791  151.9167 H   0  0  0  0  0  0  0  0  0  0  0  0
  142.3544  132.0110  150.0821 H   0  0  0  0  0  0  0  0  0  0  0  0
  146.3200  130.9104  150.0362 H   0  0  0  0  0  0  0  0  0  0  0  0
  152.6244  137.6323  155.9022 H   0  0  0  0  0  0  0  0  0  0  0  0
  152.4979  138.0583  154.2160 H   0  0  0  0  0  0  0  0  0  0  0  0
  152.8887  140.1155  155.2311 H   0  0  0  0  0  0  0  0  0  0  0  0
  152.6627  139.5248  157.5930 H   0  0  0  0  0  0  0  0  0  0  0  0
  150.9138  139.5104  157.4630 H   0  0  0  0  0  0  0  0  0  0  0  0
  151.7956  141.0166  157.2481 H   0  0  0  0  0  0  0  0  0  0  0  0
  1  2  1  0  0  0  0
  1 24  1  0  0  0  0
  1 25  1  0  0  0  0
  1 26  1  0  0  0  0
  2 23  1  0  0  0  0
  2  3  1  0  0  0  0
  2 27  1  0  0  0  0
  3  4  1  0  0  0  0
  3 28  1  0  0  0  0
  3 29  1  0  0  0  0
  4  5  1  0  0  0  0
  4 20  1  0  0  0  0
  5  6  2  0  0  0  0
  5  7  2  0  0  0  0
  5  8  1  0  0  0  0
  8  9  1  0  0  0  0
  8 30  1  0  0  0  0
  8 31  1  0  0  0  0
  9 10  1  0  0  0  0
  9 32  1  0  0  0  0
  9 33  1  0  0  0  0
 10 11  1  0  0  0  0
 10 34  1  0  0  0  0
 11 12  2  0  0  0  0
 11 13  1  0  0  0  0
 13 14  1  0  0  0  0
 13 35  1  0  0  0  0
 14 19  1  0  0  0  0
 14 15  2  0  0  0  0
 15 16  1  0  0  0  0
 15 36  1  0  0  0  0
 16 17  2  0  0  0  0
 16 37  1  0  0  0  0
 17 18  1  0  0  0  0
 17 38  1  0  0  0  0
 18 19  2  0  0  0  0
 19 39  1  0  0  0  0
 20 21  1  0  0  0  0
 20 40  1  0  0  0  0
 20 41  1  0  0  0  0
 21 22  1  0  0  0  0
 21 23  1  0  0  0  0
 21 42  1  0  0  0  0
 22 43  1  0  0  0  0
 22 44  1  0  0  0  0
 22 45  1  0  0  0  0
M  END
> <s_m_source_file>
AV-unprocessed.smi

> <i_m_source_file_index>
1414

> <i_lp_mmshare_version>
43012

> <i_f3d_flags>
0

> <s_epik_input>
W0NIM11bQ0BASF0xW0NIMl1OKFtDSDJdW0NASF0oTzEpW0NIM10pUyg9TykoPU8pW0NIMl1bQ0gyXVtOSF1DKD1PKVtOSF1jMltjSF1bY0hdW2NIXW5bY0hdMg==

> <s_epik_cmdline>
J2VwaWtfcHl0aG9uJywgJy1waCcsICc3LjAnLCAnLXRuJywgJzgnLCAnLW1hJywgJzIwMCcsICctbWV0YWxfYmluZGluZycsICctaW1hZScsICc8aW5maWxlLm1hZT4nLCAnLW9tYWUnLCAnPG91dGZpbGUubWFlPic=

> <r_epik_Ionization_Penalty>
0.00437531

> <r_epik_Ionization_Penalty_Charging>
0

> <r_epik_Ionization_Penalty_Neutral>
0.00437531

> <r_epik_State_Penalty>
0.00312896

> <r_epik_Charging_Adjusted_Penalty>
0.00312896

> <i_epik_Tot_Q>
0

> <i_epik_Tot_abs_Q>
0

> <r_epik_Metal_State_Penalty>
-0

> <b_epik_Metal_Only>
0

> <s_lp_Force_Field>
OPLS_2005

> <r_lp_Energy>
7.0755

> <b_lp_Chiralities_Consistent>
1

> <s_lp_Variant>
AV-unprocessed.smi:1414-3

> <Gold.Version>
5.8.1

> <Gold.Id.Protein>
6NUR|6NUR_protein|mol2

> <Gold.PLP.Fitness>
57.0007

> <Gold.PLP.PLP>
-40.7053

> <Gold.PLP.part.hbond>
-4.5362

> <Gold.PLP.part.metal>
0.0000

> <Gold.PLP.part.buried>
-4.5530

> <Gold.PLP.part.nonpolar>
-33.0288

> <Gold.PLP.part.repulsive>
0.3149

> <Gold.PLP.ligand.clash>
0.0000

> <Gold.PLP.ligand.torsion>
1.3919

> <Gold.PLP.Chemscore.Hbond>
3.2496

> <Gold.PLP.Chemscore.CHOScore>
2.4002

> <Gold.PLP.Chemscore.Metal>
0.0000

> <Gold.Chemscore.Hbonds>
donor molecule, donor type, donor heavy atom, donor atom, acceptor molecule, acceptor atom, score
      L1  H    13    35       P1 10747  0.83
      P1  H  7989  7998       L1    23  1.00
      P1  H 10752 10763       L1     6  1.00
      P1  H 10785 10796       L1    18  0.45
      L1  C    17    38       P1 10186  0.22
      L1  C    17    38       P1 10952  1.00
      L1  C    19    39       P1 10747  0.70

> <Gold.PLP.Chemscore.Internal.Correction>
2.1299

> <Gold.Rescore>
     Score         DG    S(hbond)    S(metal)    S(lipo)     H(rot)  DE(clash)    DE(int)     intcor
     16.32     -21.89       3.03        0.00      88.22       1.57       1.38       4.20       ----

> <Gold.Chemscore.Fitness>
16.3187

> <Gold.Chemscore.DG>
-21.8944

> <Gold.Chemscore.ZeroCoef>
-5.4800

> <Gold.Chemscore.Hbond>
3.0265

> <Gold.Chemscore.Metal>
0.0000

> <Gold.Chemscore.Lipo>
88.2212

> <Gold.Chemscore.Internal_Hbond>
0.0000

> <Gold.Chemscore.DEClash>
1.3767

> <Gold.Chemscore.DEInternal>
4.1990

> <Gold.Chemscore.Rot>
1.5687

> <Gold.Chemscore.Internal.Correction>
   9.000000E+99

> <Gold.Chemscore.Hbonds>
donor molecule, donor type, donor heavy atom, donor atom, acceptor molecule, acceptor atom, score
      L1  H    13    35       P1 10747  0.82
      P1  H  7989  7998       L1    23  0.53
      P1  H 10752 10763       L1     6  0.93
      P1  H 10785 10796       L1    18  0.13

> <Gold.Chemscore.Hbond.Weighted>
-10.1085

> <Gold.Chemscore.Metal.Weighted>
-0.0000

> <Gold.Chemscore.Lipo.Weighted>
-10.3219

> <Gold.Chemscore.Internal_Hbond.Weighted>
0.0000

> <Gold.Chemscore.DEClash.Weighted>
1.3767

> <Gold.Chemscore.DEInternal.Weighted>
4.1990

> <Gold.Chemscore.Rot.Weighted>
4.0160

> <Gold.Chemscore.Internal.Correction.Weighted>
   9.000000E+99

> <Gold.Protein.RotatedTorsions>
[ 6907 6896 6895 6894 ] final -153.41 input  -60.11 | X-H torsion
[ 7974 7965 7964 7962 ] final -153.86 input  175.53 | X-H torsion
[ 8008 7997 7996 7995 ] final -127.14 input   59.86 | X-H torsion
[ 10167 10162 10161 10158 ] final  -38.90 input  -65.29 | X-H torsion
[ 10718 10713 10712 10709 ] final   19.15 input   66.30 | X-H torsion
[ 10763 10752 10751 10750 ] final   98.30 input  -60.55 | X-H torsion
[ 11005 11000 10999 10996 ] final -122.33 input  -57.11 | X-H torsion

> <Gold.Protein.ActiveResidues>
 VAL166  LYS551  ARG553  GLY616  TRP617  ASP618  TYR619  PRO620  LYS621  CYS622 
 ASP623  PHE694  ASN695  SER759  ASP760  ASP761  ALA762  ILE779  LEU786  VAL792 
 PHE793  MET794  SER795  GLU796  ALA797  LYS798  CYS799  TRP800  GLU811  SER814 

> <Gold.Protein.RotatedAtoms>
  151.2421  133.4394  159.2607 H   0  0  0  0  0  0  0  0  0  0  0  0  # atno 6907 bound_to 6896
  151.0695  134.9789  159.8312 H   0  0  0  0  0  0  0  0  0  0  0  0  # atno 6908 bound_to 6896
  152.5410  134.2367  159.8899 H   0  0  0  0  0  0  0  0  0  0  0  0  # atno 6909 bound_to 6896
  144.7719  140.4468  143.5901 H   0  0  0  0  0  0  0  0  0  0  0  0  # atno 7974 bound_to 7965
  155.2413  140.0429  157.2975 H   0  0  0  0  0  0  0  0  0  0  0  0  # atno 8008 bound_to 7997
  154.5826  140.2405  155.8002 H   0  0  0  0  0  0  0  0  0  0  0  0  # atno 8009 bound_to 7997
  156.2204  140.2971  155.9947 H   0  0  0  0  0  0  0  0  0  0  0  0  # atno 8010 bound_to 7997
  140.7079  143.3248  151.2706 H   0  0  0  0  0  0  0  0  0  0  0  0  # atno 10167 bound_to 10162
  157.1064  130.6490  149.5886 H   0  0  0  0  0  0  0  0  0  0  0  0  # atno 10718 bound_to 10713
  153.2874  135.4153  155.1135 H   0  0  0  0  0  0  0  0  0  0  0  0  # atno 10763 bound_to 10752
  154.8509  135.3510  154.6029 H   0  0  0  0  0  0  0  0  0  0  0  0  # atno 10764 bound_to 10752
  153.6450  135.7055  153.5286 H   0  0  0  0  0  0  0  0  0  0  0  0  # atno 10765 bound_to 10752
  141.0003  134.0412  157.3546 H   0  0  0  0  0  0  0  0  0  0  0  0  # atno 11005 bound_to 11000
  145.6300  139.1535  143.2975 LP  0  0  0  0  0  0  0  0  0  0  0  0  # atno 17320 bound_to 7965
  146.1871  140.6404  142.9162 LP  0  0  0  0  0  0  0  0  0  0  0  0  # atno 17321 bound_to 7965
  139.6713  144.0016  152.2754 LP  0  0  0  0  0  0  0  0  0  0  0  0  # atno 17342 bound_to 10162
  139.9615  144.6554  150.8075 LP  0  0  0  0  0  0  0  0  0  0  0  0  # atno 17343 bound_to 10162
  155.9861  130.4894  150.7063 LP  0  0  0  0  0  0  0  0  0  0  0  0  # atno 17370 bound_to 10713
  157.4597  131.0882  151.0759 LP  0  0  0  0  0  0  0  0  0  0  0  0  # atno 17371 bound_to 10713
  139.9035  135.0172  156.7381 LP  0  0  0  0  0  0  0  0  0  0  0  0  # atno 17394 bound_to 11000
  140.6900  133.9399  155.7960 LP  0  0  0  0  0  0  0  0  0  0  0  0  # atno 17395 bound_to 11000

$$$$
