AV-unprocessed.smi:1775|AV-procd|sdf|7172|dock4
  -GOLD-   22720 8413D 1   1.00000     0.00000
 Structure written by MMmdl.
 37 39  0  0  0  0  0  0  0  0  2 V2000
  146.9155  132.2893  154.3469 O   0  0  0  0  0  0  0  0  0  0  0  0
  147.6383  133.0814  153.7426 C   0  0  0  0  0  0  0  0  0  0  0  0
  148.9268  133.3447  154.0257 N   0  0  0  0  0  0  0  0  0  0  0  0
  149.7551  132.7771  155.0084 C   0  0  0  0  0  0  0  0  0  0  0  0
  150.5128  131.6591  154.8334 C   0  0  0  0  0  0  0  0  0  0  0  0
  151.3668  131.1230  155.8859 C   0  0  0  0  0  0  0  0  0  0  0  0
  152.1465  129.8262  155.7595 C   0  0  0  0  0  0  0  0  0  0  0  0
  151.7814  128.9531  156.6985 F   0  0  0  0  0  0  0  0  0  0  0  0
  151.9524  129.2658  154.5656 F   0  0  0  0  0  0  0  0  0  0  0  0
  153.4495  130.0656  155.8991 F   0  0  0  0  0  0  0  0  0  0  0  0
  151.2999  131.8698  157.0462 C   0  0  0  0  0  0  0  0  0  0  0  0
  150.6019  133.0001  157.2916 N   0  5  0  0  0  0  0  0  0  0  0  0
  149.8090  133.4943  156.2991 C   0  0  0  0  0  0  0  0  0  0  0  0
  149.1434  134.5187  156.4561 O   0  0  0  0  0  0  0  0  0  0  0  0
  147.2210  133.8240  152.7057 N   0  0  0  0  0  0  0  0  0  0  0  0
  145.8827  133.8366  152.1184 C   0  0  0  0  0  0  0  0  0  0  0  0
  145.4406  132.4870  151.5726 C   0  0  0  0  0  0  0  0  0  0  0  0
  145.6171  132.1357  150.1144 C   0  0  0  0  0  0  0  0  0  0  0  0
  144.2320  132.3658  150.6764 C   0  0  0  0  0  0  0  0  0  0  0  0
  145.6727  134.9358  151.0875 C   0  0  0  0  0  0  0  0  0  0  0  0
  145.3797  136.3550  151.5100 C   0  0  0  0  0  0  0  0  0  0  0  0
  144.3057  135.5279  150.8390 C   0  0  0  0  0  0  0  0  0  0  0  0
  149.3634  134.0807  153.4905 H   0  0  0  0  0  0  0  0  0  0  0  0
  150.5210  131.1406  153.8887 H   0  0  0  0  0  0  0  0  0  0  0  0
  151.8946  131.5010  157.9089 H   0  0  0  0  0  0  0  0  0  0  0  0
  147.8951  134.4461  152.2842 H   0  0  0  0  0  0  0  0  0  0  0  0
  145.2236  134.0655  152.9571 H   0  0  0  0  0  0  0  0  0  0  0  0
  145.5923  131.6640  152.2686 H   0  0  0  0  0  0  0  0  0  0  0  0
  146.0179  132.8977  149.4493 H   0  0  0  0  0  0  0  0  0  0  0  0
  145.9003  131.1125  149.8758 H   0  0  0  0  0  0  0  0  0  0  0  0
  143.5920  131.4965  150.8133 H   0  0  0  0  0  0  0  0  0  0  0  0
  143.7193  133.2821  150.3907 H   0  0  0  0  0  0  0  0  0  0  0  0
  146.2966  134.8290  150.2019 H   0  0  0  0  0  0  0  0  0  0  0  0
  145.2694  136.5544  152.5739 H   0  0  0  0  0  0  0  0  0  0  0  0
  145.8378  137.1541  150.9307 H   0  0  0  0  0  0  0  0  0  0  0  0
  144.0467  135.7769  149.8119 H   0  0  0  0  0  0  0  0  0  0  0  0
  143.4795  135.1851  151.4585 H   0  0  0  0  0  0  0  0  0  0  0  0
  1  2  2  0  0  0  0
  2  3  1  0  0  0  0
  2 15  1  0  0  0  0
  3  4  1  0  0  0  0
  3 23  1  0  0  0  0
  4 13  1  0  0  0  0
  4  5  2  0  0  0  0
  5  6  1  0  0  0  0
  5 24  1  0  0  0  0
  6  7  1  0  0  0  0
  6 11  2  0  0  0  0
  7  8  1  0  0  0  0
  7  9  1  0  0  0  0
  7 10  1  0  0  0  0
 11 12  1  0  0  0  0
 11 25  1  0  0  0  0
 12 13  1  0  0  0  0
 13 14  2  0  0  0  0
 15 16  1  0  0  0  0
 15 26  1  0  0  0  0
 16 17  1  0  0  0  0
 16 20  1  0  0  0  0
 16 27  1  0  0  0  0
 17 19  1  0  0  0  0
 17 18  1  0  0  0  0
 17 28  1  0  0  0  0
 18 19  1  0  0  0  0
 18 29  1  0  0  0  0
 18 30  1  0  0  0  0
 19 31  1  0  0  0  0
 19 32  1  0  0  0  0
 20 22  1  0  0  0  0
 20 21  1  0  0  0  0
 20 33  1  0  0  0  0
 21 22  1  0  0  0  0
 21 34  1  0  0  0  0
 21 35  1  0  0  0  0
 22 36  1  0  0  0  0
 22 37  1  0  0  0  0
M  CHG  1  12  -1
M  END
> <s_m_source_file>
AV-unprocessed.smi

> <i_m_source_file_index>
1775

> <i_lp_mmshare_version>
43012

> <i_f3d_flags>
0

> <s_epik_input>
W0NIMl0xW0NIMl1bQ0hdMVtDSF0oW0NIXTJbQ0gyXVtDSDJdMilbTkhdQyg9TylbTkhdYzNbY0hdYyhDKEYpKEYpRilbY0hdW25IXWMzPU8=

> <s_epik_cmdline>
J2VwaWtfcHl0aG9uJywgJy1waCcsICc3LjAnLCAnLXRuJywgJzgnLCAnLW1hJywgJzIwMCcsICctbWV0YWxfYmluZGluZycsICctaW1hZScsICc8aW5maWxlLm1hZT4nLCAnLW9tYWUnLCAnPG91dGZpbGUubWFlPic=

> <r_lp_tautomer_probability>
1

> <r_epik_Ionization_Penalty>
3.19177

> <r_epik_Ionization_Penalty_Charging>
0.180322

> <r_epik_Ionization_Penalty_Neutral>
3.01145

> <r_epik_State_Penalty>
3.00772

> <r_epik_Charging_Adjusted_Penalty>
3.18804

> <i_epik_Tot_Q>
-1

> <i_epik_Tot_abs_Q>
1

> <r_epik_Metal_State_Penalty>
0.454354

> <b_epik_Metal_Only>
1

> <s_lp_Force_Field>
OPLS_2005

> <r_lp_Energy>
38.3623

> <b_lp_Chiralities_Consistent>
1

> <s_lp_Variant>
AV-unprocessed.smi:1775-2

> <Gold.Version>
5.8.1

> <Gold.Id.Protein>
6NUR|6NUR_protein|mol2

> <Gold.PLP.Fitness>
43.5612

> <Gold.PLP.PLP>
-36.1337

> <Gold.PLP.part.hbond>
-2.0000

> <Gold.PLP.part.metal>
0.0000

> <Gold.PLP.part.buried>
-5.1325

> <Gold.PLP.part.nonpolar>
-29.8017

> <Gold.PLP.part.repulsive>
0.0780

> <Gold.PLP.ligand.clash>
0.0000

> <Gold.PLP.ligand.torsion>
1.9015

> <Gold.PLP.Chemscore.Hbond>
3.0000

> <Gold.PLP.Chemscore.CHOScore>
0.0000

> <Gold.PLP.Chemscore.Metal>
0.0000

> <Gold.Chemscore.Hbonds>
donor molecule, donor type, donor heavy atom, donor atom, acceptor molecule, acceptor atom, score
      L1  H    15    26       P1  7948  0.91
      P1  H  6896  6909       L1    12  1.95

> <Gold.PLP.Chemscore.Internal.Correction>
2.2306

> <Gold.Rescore>
     Score         DG    S(hbond)    S(metal)    S(lipo)     H(rot)  DE(clash)    DE(int)     intcor
     13.45     -15.47       1.86        0.00      64.74       1.49       0.06       1.96       ----

> <Gold.Chemscore.Fitness>
13.4475

> <Gold.Chemscore.DG>
-15.4690

> <Gold.Chemscore.ZeroCoef>
-5.4800

> <Gold.Chemscore.Hbond>
1.8622

> <Gold.Chemscore.Metal>
0.0000

> <Gold.Chemscore.Lipo>
64.7382

> <Gold.Chemscore.Internal_Hbond>
0.0000

> <Gold.Chemscore.DEClash>
0.0591

> <Gold.Chemscore.DEInternal>
1.9624

> <Gold.Chemscore.Rot>
1.4864

> <Gold.Chemscore.Internal.Correction>
   9.000000E+99

> <Gold.Chemscore.Hbonds>
donor molecule, donor type, donor heavy atom, donor atom, acceptor molecule, acceptor atom, score
      L1  H    15    26       P1  7948  0.30
      P1  H  6896  6909       L1    12  0.61

> <Gold.Chemscore.Hbond.Weighted>
-6.2198

> <Gold.Chemscore.Metal.Weighted>
-0.0000

> <Gold.Chemscore.Lipo.Weighted>
-7.5744

> <Gold.Chemscore.Internal_Hbond.Weighted>
0.0000

> <Gold.Chemscore.DEClash.Weighted>
0.0591

> <Gold.Chemscore.DEInternal.Weighted>
1.9624

> <Gold.Chemscore.Rot.Weighted>
3.8052

> <Gold.Chemscore.Internal.Correction.Weighted>
   9.000000E+99

> <Gold.Protein.RotatedTorsions>
[ 6907 6896 6895 6894 ] final  -15.04 input  -60.11 | X-H torsion
[ 7974 7965 7964 7962 ] final  -21.20 input  175.53 | X-H torsion
[ 8008 7997 7996 7995 ] final   37.89 input   59.86 | X-H torsion
[ 10167 10162 10161 10158 ] final  102.38 input  -65.29 | X-H torsion
[ 10718 10713 10712 10709 ] final  170.56 input   66.30 | X-H torsion
[ 10763 10752 10751 10750 ] final   33.04 input  -60.55 | X-H torsion
[ 11005 11000 10999 10996 ] final  -37.77 input  -57.11 | X-H torsion

> <Gold.Protein.ActiveResidues>
 VAL166  LYS551  ARG553  GLY616  TRP617  ASP618  TYR619  PRO620  LYS621  CYS622 
 ASP623  PHE694  ASN695  SER759  ASP760  ASP761  ALA762  ILE779  LEU786  VAL792 
 PHE793  MET794  SER795  GLU796  ALA797  LYS798  CYS799  TRP800  GLU811  SER814 

> <Gold.Protein.RotatedAtoms>
  151.3300  135.0839  159.9335 H   0  0  0  0  0  0  0  0  0  0  0  0  # atno 6907 bound_to 6896
  152.5237  133.9552  159.7701 H   0  0  0  0  0  0  0  0  0  0  0  0  # atno 6908 bound_to 6896
  150.9889  133.6117  159.2741 H   0  0  0  0  0  0  0  0  0  0  0  0  # atno 6909 bound_to 6896
  146.1746  140.4309  142.8519 H   0  0  0  0  0  0  0  0  0  0  0  0  # atno 7974 bound_to 7965
  155.2112  140.3323  155.4328 H   0  0  0  0  0  0  0  0  0  0  0  0  # atno 8008 bound_to 7997
  156.2370  140.1877  156.7142 H   0  0  0  0  0  0  0  0  0  0  0  0  # atno 8009 bound_to 7997
  154.6077  140.0613  156.9438 H   0  0  0  0  0  0  0  0  0  0  0  0  # atno 8010 bound_to 7997
  139.7355  144.7025  151.0656 H   0  0  0  0  0  0  0  0  0  0  0  0  # atno 10167 bound_to 10162
  157.0064  131.0191  151.2816 H   0  0  0  0  0  0  0  0  0  0  0  0  # atno 10718 bound_to 10713
  153.0231  135.6397  154.1450 H   0  0  0  0  0  0  0  0  0  0  0  0  # atno 10763 bound_to 10752
  154.1182  135.2848  155.3216 H   0  0  0  0  0  0  0  0  0  0  0  0  # atno 10764 bound_to 10752
  154.6282  135.5501  153.7713 H   0  0  0  0  0  0  0  0  0  0  0  0  # atno 10765 bound_to 10752
  140.9977  133.6971  156.1964 H   0  0  0  0  0  0  0  0  0  0  0  0  # atno 11005 bound_to 11000
  144.8216  140.6559  143.6349 LP  0  0  0  0  0  0  0  0  0  0  0  0  # atno 17320 bound_to 7965
  145.4247  139.1558  143.4055 LP  0  0  0  0  0  0  0  0  0  0  0  0  # atno 17321 bound_to 7965
  140.7778  143.4990  150.9796 LP  0  0  0  0  0  0  0  0  0  0  0  0  # atno 17342 bound_to 10162
  139.8678  143.7231  152.3169 LP  0  0  0  0  0  0  0  0  0  0  0  0  # atno 17343 bound_to 10162
  157.5353  130.8084  149.7964 LP  0  0  0  0  0  0  0  0  0  0  0  0  # atno 17370 bound_to 10713
  156.0152  130.3816  150.2134 LP  0  0  0  0  0  0  0  0  0  0  0  0  # atno 17371 bound_to 10713
  140.6940  134.4636  157.5588 LP  0  0  0  0  0  0  0  0  0  0  0  0  # atno 17394 bound_to 11000
  139.9023  134.8528  156.1846 LP  0  0  0  0  0  0  0  0  0  0  0  0  # atno 17395 bound_to 11000

$$$$
