AV-unprocessed.smi:1115|AV-procd|sdf|4806|dock2
  -GOLD-   22720 3353D 1   1.00000     0.00000
 Structure written by MMmdl.
 51 52  0  0  0  0  0  0  0  0  4 V2000
  152.0309  145.2278  157.8672 C   0  0  0  0  0  0  0  0  0  0  0  0
  152.1024  144.0003  158.6486 N   0  0  0  0  0  0  0  0  0  0  0  0
  152.6443  144.0226  160.0025 C   0  0  0  0  0  0  0  0  0  0  0  0
  151.7974  142.7646  158.0378 C   0  0  0  0  0  0  0  0  0  0  0  0
  152.2779  141.5222  158.5196 C   0  0  0  0  0  0  0  0  0  0  0  0
  151.9276  140.3291  157.8550 C   0  0  0  0  0  0  0  0  0  0  0  0
  151.1091  140.3788  156.7083 C   0  0  0  0  0  0  0  0  0  0  0  0
  150.7637  139.1479  156.0874 N   0  0  0  0  0  0  0  0  0  0  0  0
  150.3222  138.9193  154.8374 C   0  0  0  0  0  0  0  0  0  0  0  0
  150.2088  139.8516  154.0338 O   0  0  0  0  0  0  0  0  0  0  0  0
  150.0645  137.6022  154.6203 N   0  5  0  0  0  0  0  0  0  0  0  0
  149.7143  136.6410  155.6723 C   0  0  0  0  0  0  0  0  0  0  0  0
  148.2450  136.1186  155.4941 C   0  0  0  0  0  0  0  0  0  0  0  0
  147.7352  135.4858  156.8193 C   0  0  0  0  0  0  0  0  0  0  0  0
  147.3143  137.3430  155.2265 C   0  0  0  0  0  0  0  0  0  0  0  0
  148.2111  135.1089  154.3633 N   0  3  0  0  0  0  0  0  0  0  0  0
  149.0512  133.8850  154.5409 C   0  0  0  0  0  0  0  0  0  0  0  0
  149.1254  133.0877  153.2312 C   0  0  0  0  0  0  0  0  0  0  0  0
  147.8126  132.7124  152.8404 O   0  0  0  0  0  0  0  0  0  0  0  0
  146.9983  133.8482  152.5870 C   0  0  0  0  0  0  0  0  0  0  0  0
  146.8675  134.7078  153.8571 C   0  0  0  0  0  0  0  0  0  0  0  0
  150.6438  141.6417  156.2726 C   0  0  0  0  0  0  0  0  0  0  0  0
  151.0034  142.7600  156.9391 N   0  3  0  0  0  0  0  0  0  0  0  0
  152.6719  145.1610  156.9879 H   0  0  0  0  0  0  0  0  0  0  0  0
  152.3554  146.0892  158.4511 H   0  0  0  0  0  0  0  0  0  0  0  0
  151.0077  145.4139  157.5400 H   0  0  0  0  0  0  0  0  0  0  0  0
  153.6023  143.5034  160.0396 H   0  0  0  0  0  0  0  0  0  0  0  0
  151.9587  143.5382  160.6982 H   0  0  0  0  0  0  0  0  0  0  0  0
  152.8020  145.0439  160.3496 H   0  0  0  0  0  0  0  0  0  0  0  0
  152.9117  141.4620  159.3914 H   0  0  0  0  0  0  0  0  0  0  0  0
  152.2921  139.3815  158.2239 H   0  0  0  0  0  0  0  0  0  0  0  0
  150.9218  138.3213  156.6447 H   0  0  0  0  0  0  0  0  0  0  0  0
  150.3937  135.7880  155.6592 H   0  0  0  0  0  0  0  0  0  0  0  0
  149.8223  137.0765  156.6663 H   0  0  0  0  0  0  0  0  0  0  0  0
  147.6647  136.2211  157.6238 H   0  0  0  0  0  0  0  0  0  0  0  0
  148.3678  134.6773  157.1909 H   0  0  0  0  0  0  0  0  0  0  0  0
  146.7342  135.0730  156.6901 H   0  0  0  0  0  0  0  0  0  0  0  0
  147.3774  138.0970  156.0145 H   0  0  0  0  0  0  0  0  0  0  0  0
  146.2649  137.0479  155.1964 H   0  0  0  0  0  0  0  0  0  0  0  0
  147.5333  137.8489  154.2838 H   0  0  0  0  0  0  0  0  0  0  0  0
  150.0651  134.1377  154.8504 H   0  0  0  0  0  0  0  0  0  0  0  0
  148.6287  133.2488  155.3197 H   0  0  0  0  0  0  0  0  0  0  0  0
  149.6086  133.6692  152.4441 H   0  0  0  0  0  0  0  0  0  0  0  0
  149.7208  132.1858  153.3741 H   0  0  0  0  0  0  0  0  0  0  0  0
  147.4189  134.4327  151.7672 H   0  0  0  0  0  0  0  0  0  0  0  0
  146.0146  133.5100  152.2612 H   0  0  0  0  0  0  0  0  0  0  0  0
  146.3296  134.1618  154.6333 H   0  0  0  0  0  0  0  0  0  0  0  0
  146.2643  135.5726  153.5865 H   0  0  0  0  0  0  0  0  0  0  0  0
  149.9897  141.8057  155.4296 H   0  0  0  0  0  0  0  0  0  0  0  0
  150.6515  143.6537  156.5958 H   0  0  0  0  0  0  0  0  0  0  0  0
  148.6308  135.6168  153.5962 H   0  0  0  0  0  0  0  0  0  0  0  0
  1  2  1  0  0  0  0
  1 24  1  0  0  0  0
  1 25  1  0  0  0  0
  1 26  1  0  0  0  0
  2  3  1  0  0  0  0
  2  4  1  0  0  0  0
  3 27  1  0  0  0  0
  3 28  1  0  0  0  0
  3 29  1  0  0  0  0
  4 23  1  0  0  0  0
  4  5  2  0  0  0  0
  5  6  1  0  0  0  0
  5 30  1  0  0  0  0
  6  7  2  0  0  0  0
  6 31  1  0  0  0  0
  7  8  1  0  0  0  0
  7 22  1  0  0  0  0
  8  9  1  0  0  0  0
  8 32  1  0  0  0  0
  9 10  2  0  0  0  0
  9 11  1  0  0  0  0
 11 12  1  0  0  0  0
 12 13  1  0  0  0  0
 12 33  1  0  0  0  0
 12 34  1  0  0  0  0
 13 14  1  0  0  0  0
 13 15  1  0  0  0  0
 13 16  1  0  0  0  0
 14 35  1  0  0  0  0
 14 36  1  0  0  0  0
 14 37  1  0  0  0  0
 15 38  1  0  0  0  0
 15 39  1  0  0  0  0
 15 40  1  0  0  0  0
 16 21  1  0  0  0  0
 16 17  1  0  0  0  0
 16 51  1  0  0  0  0
 17 18  1  0  0  0  0
 17 41  1  0  0  0  0
 17 42  1  0  0  0  0
 18 19  1  0  0  0  0
 18 43  1  0  0  0  0
 18 44  1  0  0  0  0
 19 20  1  0  0  0  0
 20 21  1  0  0  0  0
 20 45  1  0  0  0  0
 20 46  1  0  0  0  0
 21 47  1  0  0  0  0
 21 48  1  0  0  0  0
 22 23  2  0  0  0  0
 22 49  1  0  0  0  0
 23 50  1  0  0  0  0
M  CHG  1  11  -1
M  CHG  1  16   1
M  CHG  1  23   1
M  END
> <s_m_source_file>
AV-unprocessed.smi

> <i_m_source_file_index>
1115

> <i_lp_mmshare_version>
43012

> <i_f3d_flags>
0

> <s_epik_input>
W0NIM11OKFtDSDNdKWMxW2NIXVtjSF1jKFtjSF1uMSlbTkhdQyg9TylbTkhdW0NIMl1DKFtDSDNdKShbQ0gzXSlOMltDSDJdW0NIMl1PW0NIMl1bQ0gyXTI=

> <s_epik_cmdline>
J2VwaWtfcHl0aG9uJywgJy1waCcsICc3LjAnLCAnLXRuJywgJzgnLCAnLW1hJywgJzIwMCcsICctbWV0YWxfYmluZGluZycsICctaW1hZScsICc8aW5maWxlLm1hZT4nLCAnLW9tYWUnLCAnPG91dGZpbGUubWFlPic=

> <r_lp_tautomer_probability>
0.999994

> <r_epik_Ionization_Penalty>
7.4335

> <r_epik_Ionization_Penalty_Charging>
7.4335

> <r_epik_Ionization_Penalty_Neutral>
3.43851e-06

> <r_epik_State_Penalty>
7.6346

> <r_epik_Charging_Adjusted_Penalty>
15.0681

> <i_epik_Tot_Q>
1

> <i_epik_Tot_abs_Q>
3

> <r_epik_Metal_State_Penalty>
3.83601

> <b_epik_Metal_Only>
1

> <s_lp_Force_Field>
OPLS_2005

> <r_lp_Energy>
31.3993

> <b_lp_Chiralities_Consistent>
1

> <s_lp_Variant>
AV-unprocessed.smi:1115-5

> <Gold.Version>
5.8.1

> <Gold.Id.Protein>
6NUR|6NUR_protein|mol2

> <Gold.PLP.Fitness>
47.9955

> <Gold.PLP.PLP>
-34.1170

> <Gold.PLP.part.hbond>
-3.0000

> <Gold.PLP.part.metal>
0.0000

> <Gold.PLP.part.buried>
-6.5155

> <Gold.PLP.part.nonpolar>
-26.5441

> <Gold.PLP.part.repulsive>
1.8709

> <Gold.PLP.ligand.clash>
0.0298

> <Gold.PLP.ligand.torsion>
0.7152

> <Gold.PLP.Chemscore.Hbond>
5.0000

> <Gold.PLP.Chemscore.CHOScore>
0.0000

> <Gold.PLP.Chemscore.Metal>
0.0000

> <Gold.Chemscore.Hbonds>
donor molecule, donor type, donor heavy atom, donor atom, acceptor molecule, acceptor atom, score
      L1  H    16    51       P1  7948  2.00
      L1  H    23    50       P1  8028  0.84
      P1  H  7989  7998       L1    10  1.00

> <Gold.PLP.Chemscore.Internal.Correction>
0.3389

> <Gold.Rescore>
     Score         DG    S(hbond)    S(metal)    S(lipo)     H(rot)  DE(clash)    DE(int)     intcor
     17.39     -20.00       2.92        0.00      72.70       1.46       0.85       1.76       ----

> <Gold.Chemscore.Fitness>
17.3915

> <Gold.Chemscore.DG>
-20.0039

> <Gold.Chemscore.ZeroCoef>
-5.4800

> <Gold.Chemscore.Hbond>
2.9246

> <Gold.Chemscore.Metal>
0.0000

> <Gold.Chemscore.Lipo>
72.6968

> <Gold.Chemscore.Internal_Hbond>
0.0000

> <Gold.Chemscore.DEClash>
0.8482

> <Gold.Chemscore.DEInternal>
1.7642

> <Gold.Chemscore.Rot>
1.4648

> <Gold.Chemscore.Internal.Correction>
   9.000000E+99

> <Gold.Chemscore.Hbonds>
donor molecule, donor type, donor heavy atom, donor atom, acceptor molecule, acceptor atom, score
      L1  H    16    51       P1  7948  0.98
      L1  H    23    50       P1  8028  0.41
      P1  H  7989  7998       L1    10  0.95

> <Gold.Chemscore.Hbond.Weighted>
-9.7683

> <Gold.Chemscore.Metal.Weighted>
-0.0000

> <Gold.Chemscore.Lipo.Weighted>
-8.5055

> <Gold.Chemscore.Internal_Hbond.Weighted>
0.0000

> <Gold.Chemscore.DEClash.Weighted>
0.8482

> <Gold.Chemscore.DEInternal.Weighted>
1.7642

> <Gold.Chemscore.Rot.Weighted>
3.7499

> <Gold.Chemscore.Internal.Correction.Weighted>
   9.000000E+99

> <Gold.Protein.RotatedTorsions>
[ 6907 6896 6895 6894 ] final   10.33 input  -60.11 | X-H torsion
[ 7974 7965 7964 7962 ] final -130.09 input  175.53 | X-H torsion
[ 8008 7997 7996 7995 ] final   49.37 input   59.86 | X-H torsion
[ 10167 10162 10161 10158 ] final  -79.30 input  -65.29 | X-H torsion
[ 10718 10713 10712 10709 ] final   13.93 input   66.30 | X-H torsion
[ 10763 10752 10751 10750 ] final -137.67 input  -60.55 | X-H torsion
[ 11005 11000 10999 10996 ] final   75.43 input  -57.11 | X-H torsion

> <Gold.Protein.ActiveResidues>
 VAL166  LYS551  ARG553  GLY616  TRP617  ASP618  TYR619  PRO620  LYS621  CYS622 
 ASP623  PHE694  ASN695  SER759  ASP760  ASP761  ALA762  ILE779  LEU786  VAL792 
 PHE793  MET794  SER795  GLU796  ALA797  LYS798  CYS799  TRP800  GLU811  SER814 

> <Gold.Protein.RotatedAtoms>
  151.7365  135.0863  160.0308 H   0  0  0  0  0  0  0  0  0  0  0  0  # atno 6907 bound_to 6896
  152.3507  133.6172  159.5951 H   0  0  0  0  0  0  0  0  0  0  0  0  # atno 6908 bound_to 6896
  150.7538  133.9495  159.3523 H   0  0  0  0  0  0  0  0  0  0  0  0  # atno 6909 bound_to 6896
  144.9508  140.7342  143.4789 H   0  0  0  0  0  0  0  0  0  0  0  0  # atno 7974 bound_to 7965
  155.4011  140.3438  155.4257 H   0  0  0  0  0  0  0  0  0  0  0  0  # atno 8008 bound_to 7997
  156.1503  140.1569  156.8813 H   0  0  0  0  0  0  0  0  0  0  0  0  # atno 8009 bound_to 7997
  154.5046  140.0805  156.7850 H   0  0  0  0  0  0  0  0  0  0  0  0  # atno 8010 bound_to 7997
  140.4605  143.2455  151.8355 H   0  0  0  0  0  0  0  0  0  0  0  0  # atno 10167 bound_to 10162
  157.0318  130.6196  149.5736 H   0  0  0  0  0  0  0  0  0  0  0  0  # atno 10718 bound_to 10713
  154.8656  135.3635  154.5261 H   0  0  0  0  0  0  0  0  0  0  0  0  # atno 10763 bound_to 10752
  153.5888  135.7016  153.5436 H   0  0  0  0  0  0  0  0  0  0  0  0  # atno 10764 bound_to 10752
  153.3391  135.4103  155.1519 H   0  0  0  0  0  0  0  0  0  0  0  0  # atno 10765 bound_to 10752
  139.9344  134.7516  156.1270 H   0  0  0  0  0  0  0  0  0  0  0  0  # atno 11005 bound_to 11000
  145.2847  139.1905  143.4772 LP  0  0  0  0  0  0  0  0  0  0  0  0  # atno 17320 bound_to 7965
  146.3320  140.2814  142.8610 LP  0  0  0  0  0  0  0  0  0  0  0  0  # atno 17321 bound_to 7965
  139.4806  144.5013  151.9056 LP  0  0  0  0  0  0  0  0  0  0  0  0  # atno 17342 bound_to 10162
  140.4099  144.2383  150.5889 LP  0  0  0  0  0  0  0  0  0  0  0  0  # atno 17343 bound_to 10162
  156.0067  130.5154  150.7853 LP  0  0  0  0  0  0  0  0  0  0  0  0  # atno 17370 bound_to 10713
  157.5172  131.0929  151.0124 LP  0  0  0  0  0  0  0  0  0  0  0  0  # atno 17371 bound_to 10713
  141.0950  133.6699  156.2626 LP  0  0  0  0  0  0  0  0  0  0  0  0  # atno 17394 bound_to 11000
  140.6115  134.5454  157.5534 LP  0  0  0  0  0  0  0  0  0  0  0  0  # atno 17395 bound_to 11000

$$$$
