AV-unprocessed.smi:1397|AV-procd|sdf|5679|dock1
  -GOLD-   22720 5303D 1   1.00000     0.00000
 Structure written by MMmdl.
 37 38  0  0  0  0  0  0  0  0  1 V2000
  149.2557  140.9736  156.3893 C   0  0  0  0  0  0  0  0  0  0  0  0
  148.7416  141.3318  154.9930 C   0  0  0  0  0  0  0  0  0  0  0  0
  149.4219  142.0924  154.3045 O   0  0  0  0  0  0  0  0  0  0  0  0
  147.5698  140.8047  154.5625 N   0  0  0  0  0  0  0  0  0  0  0  0
  147.0371  141.0474  153.2163 C   0  0  0  0  0  0  0  0  0  0  0  0
  147.1095  139.7416  152.4044 C   0  0  0  0  0  0  0  0  0  0  0  0
  146.3687  138.5919  153.1245 C   0  0  0  0  0  0  0  0  0  0  0  0
  146.5973  137.3215  152.4422 N   0  0  0  0  0  0  0  0  0  0  0  0
  145.6401  136.4524  152.0850 C   0  0  0  0  0  0  0  0  0  0  0  0
  144.4407  136.6416  152.2903 O   0  0  0  0  0  0  0  0  0  0  0  0
  146.1652  135.3695  151.4849 N   0  0  0  0  0  0  0  0  0  0  0  0
  145.4856  134.2289  150.9789 C   0  0  0  0  0  0  0  0  0  0  0  0
  146.3236  133.1972  150.4982 C   0  0  0  0  0  0  0  0  0  0  0  0
  145.7473  132.0227  149.9765 C   0  0  0  0  0  0  0  0  0  0  0  0
  144.3459  131.9101  149.9487 C   0  0  0  0  0  0  0  0  0  0  0  0
  143.5842  132.9836  150.4463 C   0  0  0  0  0  0  0  0  0  0  0  0
  144.1345  134.1099  150.9468 N   0  0  0  0  0  0  0  0  0  0  0  0
  146.8109  138.4783  154.5987 C   0  0  0  0  0  0  0  0  0  0  0  0
  146.7454  139.8436  155.3064 C   0  0  0  0  0  0  0  0  0  0  0  0
  149.3960  139.8967  156.4859 H   0  0  0  0  0  0  0  0  0  0  0  0
  148.5584  141.3119  157.1561 H   0  0  0  0  0  0  0  0  0  0  0  0
  150.2167  141.4525  156.5798 H   0  0  0  0  0  0  0  0  0  0  0  0
  146.0019  141.3833  153.2927 H   0  0  0  0  0  0  0  0  0  0  0  0
  147.5674  141.8405  152.6876 H   0  0  0  0  0  0  0  0  0  0  0  0
  146.6862  139.8999  151.4117 H   0  0  0  0  0  0  0  0  0  0  0  0
  148.1562  139.4718  152.2550 H   0  0  0  0  0  0  0  0  0  0  0  0
  145.2996  138.8138  153.1180 H   0  0  0  0  0  0  0  0  0  0  0  0
  147.5562  137.0860  152.2318 H   0  0  0  0  0  0  0  0  0  0  0  0
  147.1691  135.3556  151.3839 H   0  0  0  0  0  0  0  0  0  0  0  0
  147.3989  133.2999  150.5272 H   0  0  0  0  0  0  0  0  0  0  0  0
  146.3704  131.2227  149.6046 H   0  0  0  0  0  0  0  0  0  0  0  0
  143.8674  131.0252  149.5559 H   0  0  0  0  0  0  0  0  0  0  0  0
  142.5052  132.9381  150.4414 H   0  0  0  0  0  0  0  0  0  0  0  0
  146.1825  137.7573  155.1227 H   0  0  0  0  0  0  0  0  0  0  0  0
  147.8319  138.0966  154.6526 H   0  0  0  0  0  0  0  0  0  0  0  0
  147.0356  139.7325  156.3500 H   0  0  0  0  0  0  0  0  0  0  0  0
  145.7149  140.2012  155.3290 H   0  0  0  0  0  0  0  0  0  0  0  0
  1  2  1  0  0  0  0
  1 20  1  0  0  0  0
  1 21  1  0  0  0  0
  1 22  1  0  0  0  0
  2  3  2  0  0  0  0
  2  4  1  0  0  0  0
  4 19  1  0  0  0  0
  4  5  1  0  0  0  0
  5  6  1  0  0  0  0
  5 23  1  0  0  0  0
  5 24  1  0  0  0  0
  6  7  1  0  0  0  0
  6 25  1  0  0  0  0
  6 26  1  0  0  0  0
  7  8  1  0  0  0  0
  7 18  1  0  0  0  0
  7 27  1  0  0  0  0
  8  9  1  0  0  0  0
  8 28  1  0  0  0  0
  9 10  2  0  0  0  0
  9 11  1  0  0  0  0
 11 12  1  0  0  0  0
 11 29  1  0  0  0  0
 12 17  1  0  0  0  0
 12 13  2  0  0  0  0
 13 14  1  0  0  0  0
 13 30  1  0  0  0  0
 14 15  2  0  0  0  0
 14 31  1  0  0  0  0
 15 16  1  0  0  0  0
 15 32  1  0  0  0  0
 16 17  2  0  0  0  0
 16 33  1  0  0  0  0
 18 19  1  0  0  0  0
 18 34  1  0  0  0  0
 18 35  1  0  0  0  0
 19 36  1  0  0  0  0
 19 37  1  0  0  0  0
M  END
> <s_m_source_file>
AV-unprocessed.smi

> <i_m_source_file_index>
1397

> <i_lp_mmshare_version>
43012

> <i_f3d_flags>
0

> <s_epik_input>
W0NIM11DKD1PKU4xW0NIMl1bQ0gyXVtDSF0oW0NIMl1bQ0gyXTEpW05IXUMoPU8pW05IXWMyW2NIXVtjSF1bY0hdW2NIXW4y

> <s_epik_cmdline>
J2VwaWtfcHl0aG9uJywgJy1waCcsICc3LjAnLCAnLXRuJywgJzgnLCAnLW1hJywgJzIwMCcsICctbWV0YWxfYmluZGluZycsICctaW1hZScsICc8aW5maWxlLm1hZT4nLCAnLW9tYWUnLCAnPG91dGZpbGUubWFlPic=

> <r_lp_tautomer_probability>
1

> <r_epik_Ionization_Penalty>
4.8787e-05

> <r_epik_Ionization_Penalty_Charging>
0

> <r_epik_Ionization_Penalty_Neutral>
4.8787e-05

> <r_epik_State_Penalty>
-0

> <r_epik_Charging_Adjusted_Penalty>
0

> <i_epik_Tot_Q>
0

> <i_epik_Tot_abs_Q>
0

> <r_epik_Metal_State_Penalty>
-0

> <b_epik_Metal_Only>
0

> <s_lp_Force_Field>
OPLS_2005

> <r_lp_Energy>
25.5882

> <b_lp_Chiralities_Consistent>
1

> <s_lp_Variant>
AV-unprocessed.smi:1397-1

> <Gold.Version>
5.8.1

> <Gold.Id.Protein>
6NUR|6NUR_protein|mol2

> <Gold.PLP.Fitness>
37.9922

> <Gold.PLP.PLP>
-28.4514

> <Gold.PLP.part.hbond>
-4.0000

> <Gold.PLP.part.metal>
0.0000

> <Gold.PLP.part.buried>
0.8976

> <Gold.PLP.part.nonpolar>
-26.8585

> <Gold.PLP.part.repulsive>
1.5617

> <Gold.PLP.ligand.clash>
0.0000

> <Gold.PLP.ligand.torsion>
0.1422

> <Gold.PLP.Chemscore.Hbond>
2.2800

> <Gold.PLP.Chemscore.CHOScore>
0.9906

> <Gold.PLP.Chemscore.Metal>
0.0000

> <Gold.Chemscore.Hbonds>
donor molecule, donor type, donor heavy atom, donor atom, acceptor molecule, acceptor atom, score
      L1  H     8    28       P1  7948  1.00
      L1  H    11    29       P1  7948  0.98
      P1  H  8011  8017       L1     3  0.30
      L1  C    16    33       P1 10186  0.99

> <Gold.PLP.Chemscore.Internal.Correction>
0.0133

> <Gold.Rescore>
     Score         DG    S(hbond)    S(metal)    S(lipo)     H(rot)  DE(clash)    DE(int)     intcor
     15.19     -17.94       2.08        0.00      69.10       1.00       1.41       1.33       ----

> <Gold.Chemscore.Fitness>
15.1925

> <Gold.Chemscore.DG>
-17.9399

> <Gold.Chemscore.ZeroCoef>
-5.4800

> <Gold.Chemscore.Hbond>
2.0764

> <Gold.Chemscore.Metal>
0.0000

> <Gold.Chemscore.Lipo>
69.1006

> <Gold.Chemscore.Internal_Hbond>
0.0000

> <Gold.Chemscore.DEClash>
1.4137

> <Gold.Chemscore.DEInternal>
1.3337

> <Gold.Chemscore.Rot>
1.0000

> <Gold.Chemscore.Internal.Correction>
   9.000000E+99

> <Gold.Chemscore.Hbonds>
donor molecule, donor type, donor heavy atom, donor atom, acceptor molecule, acceptor atom, score
      L1  H     8    28       P1  7948  1.00
      L1  H    11    29       P1  7948  0.82
      P1  H  8011  8017       L1     3  0.30

> <Gold.Chemscore.Hbond.Weighted>
-6.9351

> <Gold.Chemscore.Metal.Weighted>
-0.0000

> <Gold.Chemscore.Lipo.Weighted>
-8.0848

> <Gold.Chemscore.Internal_Hbond.Weighted>
0.0000

> <Gold.Chemscore.DEClash.Weighted>
1.4137

> <Gold.Chemscore.DEInternal.Weighted>
1.3337

> <Gold.Chemscore.Rot.Weighted>
2.5600

> <Gold.Chemscore.Internal.Correction.Weighted>
   9.000000E+99

> <Gold.Protein.RotatedTorsions>
[ 6907 6896 6895 6894 ] final  153.64 input  -60.11 | X-H torsion
[ 7974 7965 7964 7962 ] final  -91.66 input  175.53 | X-H torsion
[ 8008 7997 7996 7995 ] final -128.58 input   59.86 | X-H torsion
[ 10167 10162 10161 10158 ] final   73.93 input  -65.29 | X-H torsion
[ 10718 10713 10712 10709 ] final   73.33 input   66.30 | X-H torsion
[ 10763 10752 10751 10750 ] final   75.85 input  -60.55 | X-H torsion
[ 11005 11000 10999 10996 ] final  158.05 input  -57.11 | X-H torsion

> <Gold.Protein.ActiveResidues>
 VAL166  LYS551  ARG553  GLY616  TRP617  ASP618  TYR619  PRO620  LYS621  CYS622 
 ASP623  PHE694  ASN695  SER759  ASP760  ASP761  ALA762  ILE779  LEU786  VAL792 
 PHE793  MET794  SER795  GLU796  ALA797  LYS798  CYS799  TRP800  GLU811  SER814 

> <Gold.Protein.RotatedAtoms>
  152.0698  133.4101  159.4454 H   0  0  0  0  0  0  0  0  0  0  0  0  # atno 6907 bound_to 6896
  150.6864  134.3104  159.4753 H   0  0  0  0  0  0  0  0  0  0  0  0  # atno 6908 bound_to 6896
  152.0935  134.9391  160.0622 H   0  0  0  0  0  0  0  0  0  0  0  0  # atno 6909 bound_to 6896
  145.4102  140.9544  143.2238 H   0  0  0  0  0  0  0  0  0  0  0  0  # atno 7974 bound_to 7965
  155.2650  140.0437  157.3001 H   0  0  0  0  0  0  0  0  0  0  0  0  # atno 8008 bound_to 7997
  154.5688  140.2367  155.8192 H   0  0  0  0  0  0  0  0  0  0  0  0  # atno 8009 bound_to 7997
  156.2106  140.3000  155.9731 H   0  0  0  0  0  0  0  0  0  0  0  0  # atno 8010 bound_to 7997
  140.0192  144.5554  150.7595 H   0  0  0  0  0  0  0  0  0  0  0  0  # atno 10167 bound_to 10162
  157.6542  130.9623  150.1054 H   0  0  0  0  0  0  0  0  0  0  0  0  # atno 10718 bound_to 10713
  153.0684  135.4973  154.8250 H   0  0  0  0  0  0  0  0  0  0  0  0  # atno 10763 bound_to 10752
  154.6987  135.2997  154.9376 H   0  0  0  0  0  0  0  0  0  0  0  0  # atno 10764 bound_to 10752
  154.0107  135.6754  153.4818 H   0  0  0  0  0  0  0  0  0  0  0  0  # atno 10765 bound_to 10752
  140.1828  134.8463  157.2822 H   0  0  0  0  0  0  0  0  0  0  0  0  # atno 11005 bound_to 11000
  144.8314  139.5622  143.6942 LP  0  0  0  0  0  0  0  0  0  0  0  0  # atno 17320 bound_to 7965
  146.2709  139.6632  142.9297 LP  0  0  0  0  0  0  0  0  0  0  0  0  # atno 17321 bound_to 7965
  140.7349  143.2735  151.3814 LP  0  0  0  0  0  0  0  0  0  0  0  0  # atno 17342 bound_to 10162
  139.6151  144.1019  152.2338 LP  0  0  0  0  0  0  0  0  0  0  0  0  # atno 17343 bound_to 10162
  156.1965  130.3657  149.8843 LP  0  0  0  0  0  0  0  0  0  0  0  0  # atno 17370 bound_to 10713
  156.6758  130.8838  151.3569 LP  0  0  0  0  0  0  0  0  0  0  0  0  # atno 17371 bound_to 10713
  140.2248  134.3980  155.7549 LP  0  0  0  0  0  0  0  0  0  0  0  0  # atno 17394 bound_to 11000
  141.2223  133.7184  156.8548 LP  0  0  0  0  0  0  0  0  0  0  0  0  # atno 17395 bound_to 11000

$$$$
