AV-unprocessed.smi:3058|AV-procd|sdf|11672|dock7
  -GOLD-   2272017 73D 1   1.00000     0.00000
 Structure written by MMmdl.
 38 40  0  0  0  0  0  0  0  0  1 V2000
  153.0088  140.1995  158.2952 O   0  0  0  0  0  0  0  0  0  0  0  0
  152.1159  141.0133  158.0573 C   0  0  0  0  0  0  0  0  0  0  0  0
  151.1990  140.8348  157.0927 N   0  0  0  0  0  0  0  0  0  0  0  0
  151.0558  139.6365  156.2691 C   0  0  0  0  0  0  0  0  0  0  0  0
  151.0784  139.9667  154.7635 C   0  0  0  0  0  0  0  0  0  0  0  0
  149.7177  140.3454  154.2030 C   0  0  0  0  0  0  0  0  0  0  0  0
  149.2098  141.6532  154.3502 C   0  0  0  0  0  0  0  0  0  0  0  0
  147.9290  141.9449  153.8436 C   0  0  0  0  0  0  0  0  0  0  0  0
  147.2099  140.9146  153.2061 C   0  0  0  0  0  0  0  0  0  0  0  0
  147.6876  139.6605  153.0546 N   0  0  0  0  0  0  0  0  0  0  0  0
  148.9157  139.3881  153.5459 C   0  0  0  0  0  0  0  0  0  0  0  0
  151.9739  142.2958  158.8941 C   0  0  1  0  0  0  0  0  0  0  0  0
  153.2614  143.1565  158.8936 C   0  0  0  0  0  0  0  0  0  0  0  0
  152.7632  144.5369  158.4233 C   0  0  2  0  0  0  0  0  0  0  0  0
  151.8755  145.1620  159.5165 C   0  0  0  0  0  0  0  0  0  0  0  0
  150.5880  144.3188  159.4322 C   0  0  0  0  0  0  0  0  0  0  0  0
  150.9286  143.2936  158.3335 C   0  0  1  0  0  0  0  0  0  0  0  0
  151.7362  144.1587  157.3655 C   0  0  0  0  0  0  0  0  0  0  0  0
  150.5076  141.5589  156.9625 H   0  0  0  0  0  0  0  0  0  0  0  0
  151.8729  138.9555  156.5070 H   0  0  0  0  0  0  0  0  0  0  0  0
  150.1369  139.1038  156.5195 H   0  0  0  0  0  0  0  0  0  0  0  0
  151.7761  140.7850  154.5810 H   0  0  0  0  0  0  0  0  0  0  0  0
  151.4627  139.1122  154.2054 H   0  0  0  0  0  0  0  0  0  0  0  0
  149.7839  142.4169  154.8537 H   0  0  0  0  0  0  0  0  0  0  0  0
  147.5060  142.9334  153.9452 H   0  0  0  0  0  0  0  0  0  0  0  0
  146.2239  141.1027  152.8075 H   0  0  0  0  0  0  0  0  0  0  0  0
  149.2647  138.3737  153.4199 H   0  0  0  0  0  0  0  0  0  0  0  0
  151.7088  142.0162  159.9153 H   0  0  0  0  0  0  0  0  0  0  0  0
  153.7221  143.2034  159.8809 H   0  0  0  0  0  0  0  0  0  0  0  0
  154.0144  142.7719  158.2029 H   0  0  0  0  0  0  0  0  0  0  0  0
  153.5606  145.1949  158.0769 H   0  0  0  0  0  0  0  0  0  0  0  0
  152.3403  145.1147  160.5019 H   0  0  0  0  0  0  0  0  0  0  0  0
  151.6632  146.2088  159.2958 H   0  0  0  0  0  0  0  0  0  0  0  0
  150.3330  143.8480  160.3824 H   0  0  0  0  0  0  0  0  0  0  0  0
  149.7431  144.9401  159.1324 H   0  0  0  0  0  0  0  0  0  0  0  0
  150.0491  142.8206  157.8949 H   0  0  0  0  0  0  0  0  0  0  0  0
  151.1775  145.0142  156.9819 H   0  0  0  0  0  0  0  0  0  0  0  0
  152.1644  143.6144  156.5236 H   0  0  0  0  0  0  0  0  0  0  0  0
  1  2  2  0  0  0  0
  2  3  1  0  0  0  0
  2 12  1  0  0  0  0
  3  4  1  0  0  0  0
  3 19  1  0  0  0  0
  4  5  1  0  0  0  0
  4 20  1  0  0  0  0
  4 21  1  0  0  0  0
  5  6  1  0  0  0  0
  5 22  1  0  0  0  0
  5 23  1  0  0  0  0
  6 11  1  0  0  0  0
  6  7  2  0  0  0  0
  7  8  1  0  0  0  0
  7 24  1  0  0  0  0
  8  9  2  0  0  0  0
  8 25  1  0  0  0  0
  9 10  1  0  0  0  0
  9 26  1  0  0  0  0
 10 11  2  0  0  0  0
 11 27  1  0  0  0  0
 12 17  1  0  0  0  0
 12 13  1  0  0  0  0
 12 28  1  0  0  0  0
 13 14  1  0  0  0  0
 13 29  1  0  0  0  0
 13 30  1  0  0  0  0
 14 18  1  0  0  0  0
 14 15  1  0  0  0  0
 14 31  1  0  0  0  0
 15 16  1  0  0  0  0
 15 32  1  0  0  0  0
 15 33  1  0  0  0  0
 16 17  1  0  0  0  0
 16 34  1  0  0  0  0
 16 35  1  0  0  0  0
 17 18  1  0  0  0  0
 17 36  1  0  0  0  0
 18 37  1  0  0  0  0
 18 38  1  0  0  0  0
M  END
> <s_m_source_file>
AV-unprocessed.smi

> <i_m_source_file_index>
3058

> <i_lp_mmshare_version>
43012

> <i_f3d_flags>
0

> <s_epik_input>
W0NIMl0xW0NIMl1bQ0BIXShbQ0gyXTIpW0NAQEhdKFtDSDJdW0NAQEhdMTIpQyg9TylbTkhdW0NIMl1bQ0gyXWMzW2NIXVtjSF1bY0hdbltjSF0z

> <s_epik_cmdline>
J2VwaWtfcHl0aG9uJywgJy1waCcsICc3LjAnLCAnLXRuJywgJzgnLCAnLW1hJywgJzIwMCcsICctbWV0YWxfYmluZGluZycsICctaW1hZScsICc8aW5maWxlLm1hZT4nLCAnLW9tYWUnLCAnPG91dGZpbGUubWFlPic=

> <r_epik_Ionization_Penalty>
0.0135821

> <r_epik_Ionization_Penalty_Charging>
0

> <r_epik_Ionization_Penalty_Neutral>
0.0135821

> <r_epik_State_Penalty>
0.0105782

> <r_epik_Charging_Adjusted_Penalty>
0.0105782

> <i_epik_Tot_Q>
0

> <i_epik_Tot_abs_Q>
0

> <r_epik_Metal_State_Penalty>
0.0103407

> <b_epik_Metal_Only>
0

> <s_lp_Force_Field>
OPLS_2005

> <r_lp_Energy>
47.0399

> <b_lp_Chiralities_Consistent>
1

> <s_lp_Variant>
AV-unprocessed.smi:3058-4

> <Gold.Version>
5.8.1

> <Gold.Id.Protein>
6NUR|6NUR_protein|mol2

> <Gold.PLP.Fitness>
49.0801

> <Gold.PLP.PLP>
-41.8711

> <Gold.PLP.part.hbond>
-1.0000

> <Gold.PLP.part.metal>
0.0000

> <Gold.PLP.part.buried>
-0.4418

> <Gold.PLP.part.nonpolar>
-40.5317

> <Gold.PLP.part.repulsive>
0.5410

> <Gold.PLP.ligand.clash>
0.0000

> <Gold.PLP.ligand.torsion>
0.5773

> <Gold.PLP.Chemscore.Hbond>
0.9600

> <Gold.PLP.Chemscore.CHOScore>
1.8175

> <Gold.PLP.Chemscore.Metal>
0.0000

> <Gold.Chemscore.Hbonds>
donor molecule, donor type, donor heavy atom, donor atom, acceptor molecule, acceptor atom, score
      P1  H  7997  8010       L1     1  0.96
      L1  C     9    26       P1 10175  0.68
      L1  C    11    27       P1  7948  0.73

> <Gold.PLP.Chemscore.Internal.Correction>
0.0312

> <Gold.Rescore>
     Score         DG    S(hbond)    S(metal)    S(lipo)     H(rot)  DE(clash)    DE(int)     intcor
     19.43     -20.22       0.87        0.00     131.17       1.37       0.13       0.67       ----

> <Gold.Chemscore.Fitness>
19.4275

> <Gold.Chemscore.DG>
-20.2235

> <Gold.Chemscore.ZeroCoef>
-5.4800

> <Gold.Chemscore.Hbond>
0.8659

> <Gold.Chemscore.Metal>
0.0000

> <Gold.Chemscore.Lipo>
131.1658

> <Gold.Chemscore.Internal_Hbond>
0.0000

> <Gold.Chemscore.DEClash>
0.1277

> <Gold.Chemscore.DEInternal>
0.6682

> <Gold.Chemscore.Rot>
1.3653

> <Gold.Chemscore.Internal.Correction>
   9.000000E+99

> <Gold.Chemscore.Hbonds>
donor molecule, donor type, donor heavy atom, donor atom, acceptor molecule, acceptor atom, score
      P1  H  7997  8010       L1     1  0.83

> <Gold.Chemscore.Hbond.Weighted>
-2.8922

> <Gold.Chemscore.Metal.Weighted>
-0.0000

> <Gold.Chemscore.Lipo.Weighted>
-15.3464

> <Gold.Chemscore.Internal_Hbond.Weighted>
0.0000

> <Gold.Chemscore.DEClash.Weighted>
0.1277

> <Gold.Chemscore.DEInternal.Weighted>
0.6682

> <Gold.Chemscore.Rot.Weighted>
3.4951

> <Gold.Chemscore.Internal.Correction.Weighted>
   9.000000E+99

> <Gold.Protein.RotatedTorsions>
[ 6907 6896 6895 6894 ] final   28.63 input  -60.11 | X-H torsion
[ 7974 7965 7964 7962 ] final  -64.86 input  175.53 | X-H torsion
[ 8008 7997 7996 7995 ] final   34.03 input   59.86 | X-H torsion
[ 10167 10162 10161 10158 ] final  -79.52 input  -65.29 | X-H torsion
[ 10718 10713 10712 10709 ] final -132.23 input   66.30 | X-H torsion
[ 10763 10752 10751 10750 ] final -152.97 input  -60.55 | X-H torsion
[ 11005 11000 10999 10996 ] final   16.59 input  -57.11 | X-H torsion

> <Gold.Protein.ActiveResidues>
 VAL166  LYS551  ARG553  GLY616  TRP617  ASP618  TYR619  PRO620  LYS621  CYS622 
 ASP623  PHE694  ASN695  SER759  ASP760  ASP761  ALA762  ILE779  LEU786  VAL792 
 PHE793  MET794  SER795  GLU796  ALA797  LYS798  CYS799  TRP800  GLU811  SER814 

> <Gold.Protein.RotatedAtoms>
  152.0197  134.9829  160.0570 H   0  0  0  0  0  0  0  0  0  0  0  0  # atno 6907 bound_to 6896
  152.1349  133.4424  159.4747 H   0  0  0  0  0  0  0  0  0  0  0  0  # atno 6908 bound_to 6896
  150.6859  134.2294  159.4471 H   0  0  0  0  0  0  0  0  0  0  0  0  # atno 6909 bound_to 6896
  145.7615  140.8859  143.0427 H   0  0  0  0  0  0  0  0  0  0  0  0  # atno 7974 bound_to 7965
  155.1481  140.3272  155.4437 H   0  0  0  0  0  0  0  0  0  0  0  0  # atno 8008 bound_to 7997
  156.2583  140.1981  156.6544 H   0  0  0  0  0  0  0  0  0  0  0  0  # atno 8009 bound_to 7997
  154.6493  140.0560  156.9923 H   0  0  0  0  0  0  0  0  0  0  0  0  # atno 8010 bound_to 7997
  140.4586  143.2460  151.8382 H   0  0  0  0  0  0  0  0  0  0  0  0  # atno 10167 bound_to 10162
  156.2325  130.7046  151.0873 H   0  0  0  0  0  0  0  0  0  0  0  0  # atno 10718 bound_to 10713
  154.7959  135.3224  154.7668 H   0  0  0  0  0  0  0  0  0  0  0  0  # atno 10763 bound_to 10752
  153.8346  135.6876  153.4814 H   0  0  0  0  0  0  0  0  0  0  0  0  # atno 10764 bound_to 10752
  153.1650  135.4645  154.9767 H   0  0  0  0  0  0  0  0  0  0  0  0  # atno 10765 bound_to 10752
  140.4454  134.1279  155.7695 H   0  0  0  0  0  0  0  0  0  0  0  0  # atno 11005 bound_to 11000
  144.6829  139.9729  143.7482 LP  0  0  0  0  0  0  0  0  0  0  0  0  # atno 17320 bound_to 7965
  146.0259  139.3292  143.0784 LP  0  0  0  0  0  0  0  0  0  0  0  0  # atno 17321 bound_to 7965
  139.4804  144.5035  151.9029 LP  0  0  0  0  0  0  0  0  0  0  0  0  # atno 17342 bound_to 10162
  140.4121  144.2356  150.5888 LP  0  0  0  0  0  0  0  0  0  0  0  0  # atno 17343 bound_to 10162
  157.7139  131.0720  150.6399 LP  0  0  0  0  0  0  0  0  0  0  0  0  # atno 17370 bound_to 10713
  156.6467  130.4473  149.5733 LP  0  0  0  0  0  0  0  0  0  0  0  0  # atno 17371 bound_to 10713
  141.1687  133.8651  157.1636 LP  0  0  0  0  0  0  0  0  0  0  0  0  # atno 17394 bound_to 11000
  140.0042  135.0015  157.0256 LP  0  0  0  0  0  0  0  0  0  0  0  0  # atno 17395 bound_to 11000

$$$$
