AV-unprocessed.smi:1024|AV-procd|sdf|4465|dock4
  -GOLD-   22720 2443D 1   1.00000     0.00000
 Structure written by MMmdl.
 47 49  0  0  0  0  0  0  0  0  1 V2000
  146.8047  138.8256  151.0608 O   0  0  0  0  0  0  0  0  0  0  0  0
  146.6560  138.3067  152.1682 C   0  0  0  0  0  0  0  0  0  0  0  0
  147.2798  138.7742  153.2628 N   0  0  0  0  0  0  0  0  0  0  0  0
  148.2041  139.9013  153.2903 C   0  0  0  0  0  0  0  0  0  0  0  0
  148.8271  140.0851  154.6836 C   0  0  0  0  0  0  0  0  0  0  0  0
  150.1262  139.4504  154.7713 N   0  0  0  0  0  0  0  0  0  0  0  0
  150.6774  138.5430  153.8763 C   0  0  0  0  0  0  0  0  0  0  0  0
  151.9194  138.2113  154.3688 C   0  0  0  0  0  0  0  0  0  0  0  0
  152.1507  138.8975  155.5588 N   0  0  0  0  0  0  0  0  0  0  0  0
  151.0453  139.6104  155.7332 C   0  0  0  0  0  0  0  0  0  0  0  0
  145.8352  137.2484  152.3901 N   0  0  0  0  0  0  0  0  0  0  0  0
  145.9019  136.3175  153.5272 C   0  0  0  0  0  0  0  0  0  0  0  0
  146.4927  134.9810  153.0375 C   0  0  0  0  0  0  0  0  0  0  0  0
  145.6865  134.3485  151.8685 C   0  0  0  0  0  0  0  0  0  0  0  0
  146.5230  133.1837  151.2766 C   0  0  0  0  0  0  0  0  0  0  0  0
  145.7609  132.3481  150.2326 C   0  0  0  0  0  0  0  0  0  0  0  0
  144.4563  131.7893  150.8152 C   0  0  0  0  0  0  0  0  0  0  0  0
  143.5803  132.9135  151.3831 C   0  0  0  0  0  0  0  0  0  0  0  0
  144.3517  133.7612  152.4117 C   0  0  0  0  0  0  0  0  0  0  0  0
  145.4424  135.4416  150.7855 C   0  0  0  0  0  0  0  0  0  0  0  0
  144.9018  136.7617  151.3692 C   0  0  0  0  0  0  0  0  0  0  0  0
  147.1019  138.3093  154.1412 H   0  0  0  0  0  0  0  0  0  0  0  0
  148.9811  139.7684  152.5356 H   0  0  0  0  0  0  0  0  0  0  0  0
  147.6498  140.7974  153.0101 H   0  0  0  0  0  0  0  0  0  0  0  0
  148.9434  141.1452  154.9131 H   0  0  0  0  0  0  0  0  0  0  0  0
  148.1829  139.6614  155.4553 H   0  0  0  0  0  0  0  0  0  0  0  0
  150.1550  138.2174  152.9888 H   0  0  0  0  0  0  0  0  0  0  0  0
  152.6580  137.5364  153.9619 H   0  0  0  0  0  0  0  0  0  0  0  0
  150.9003  140.2638  156.5812 H   0  0  0  0  0  0  0  0  0  0  0  0
  146.4906  136.6876  154.3663 H   0  0  0  0  0  0  0  0  0  0  0  0
  144.9001  136.1696  153.9317 H   0  0  0  0  0  0  0  0  0  0  0  0
  147.5197  135.1609  152.7152 H   0  0  0  0  0  0  0  0  0  0  0  0
  146.5636  134.2830  153.8725 H   0  0  0  0  0  0  0  0  0  0  0  0
  147.4423  133.5667  150.8319 H   0  0  0  0  0  0  0  0  0  0  0  0
  146.8385  132.5199  152.0831 H   0  0  0  0  0  0  0  0  0  0  0  0
  145.5443  132.9526  149.3514 H   0  0  0  0  0  0  0  0  0  0  0  0
  146.3903  131.5266  149.8895 H   0  0  0  0  0  0  0  0  0  0  0  0
  143.9092  131.2397  150.0486 H   0  0  0  0  0  0  0  0  0  0  0  0
  144.6875  131.0729  151.6045 H   0  0  0  0  0  0  0  0  0  0  0  0
  143.2129  133.5427  150.5728 H   0  0  0  0  0  0  0  0  0  0  0  0
  142.6952  132.4844  151.8533 H   0  0  0  0  0  0  0  0  0  0  0  0
  144.5653  133.1295  153.2751 H   0  0  0  0  0  0  0  0  0  0  0  0
  143.6975  134.5486  152.7830 H   0  0  0  0  0  0  0  0  0  0  0  0
  146.3821  135.6577  150.2750 H   0  0  0  0  0  0  0  0  0  0  0  0
  144.7662  135.0881  150.0087 H   0  0  0  0  0  0  0  0  0  0  0  0
  143.9174  136.6155  151.8140 H   0  0  0  0  0  0  0  0  0  0  0  0
  144.7487  137.4831  150.5654 H   0  0  0  0  0  0  0  0  0  0  0  0
  1  2  2  0  0  0  0
  2  3  1  0  0  0  0
  2 11  1  0  0  0  0
  3  4  1  0  0  0  0
  3 22  1  0  0  0  0
  4  5  1  0  0  0  0
  4 23  1  0  0  0  0
  4 24  1  0  0  0  0
  5  6  1  0  0  0  0
  5 25  1  0  0  0  0
  5 26  1  0  0  0  0
  6 10  1  0  0  0  0
  6  7  1  0  0  0  0
  7  8  2  0  0  0  0
  7 27  1  0  0  0  0
  8  9  1  0  0  0  0
  8 28  1  0  0  0  0
  9 10  2  0  0  0  0
 10 29  1  0  0  0  0
 11 21  1  0  0  0  0
 11 12  1  0  0  0  0
 12 13  1  0  0  0  0
 12 30  1  0  0  0  0
 12 31  1  0  0  0  0
 13 14  1  0  0  0  0
 13 32  1  0  0  0  0
 13 33  1  0  0  0  0
 14 19  1  0  0  0  0
 14 15  1  0  0  0  0
 14 20  1  0  0  0  0
 15 16  1  0  0  0  0
 15 34  1  0  0  0  0
 15 35  1  0  0  0  0
 16 17  1  0  0  0  0
 16 36  1  0  0  0  0
 16 37  1  0  0  0  0
 17 18  1  0  0  0  0
 17 38  1  0  0  0  0
 17 39  1  0  0  0  0
 18 19  1  0  0  0  0
 18 40  1  0  0  0  0
 18 41  1  0  0  0  0
 19 42  1  0  0  0  0
 19 43  1  0  0  0  0
 20 21  1  0  0  0  0
 20 44  1  0  0  0  0
 20 45  1  0  0  0  0
 21 46  1  0  0  0  0
 21 47  1  0  0  0  0
M  END
> <s_m_source_file>
AV-unprocessed.smi

> <i_m_source_file_index>
1024

> <i_lp_mmshare_version>
43012

> <i_f3d_flags>
0

> <s_epik_input>
W2NIXTFuW2NIXVtjSF1uMVtDSDJdW0NIMl1bTkhdQyg9TylOKFtDSDJdW0NIMl0yKVtDSDJdW0NIMl1DMjNbQ0gyXVtDSDJdW0NIMl1bQ0gyXVtDSDJdMw==

> <s_epik_cmdline>
J2VwaWtfcHl0aG9uJywgJy1waCcsICc3LjAnLCAnLXRuJywgJzgnLCAnLW1hJywgJzIwMCcsICctbWV0YWxfYmluZGluZycsICctaW1hZScsICc8aW5maWxlLm1hZT4nLCAnLW9tYWUnLCAnPG91dGZpbGUubWFlPic=

> <r_lp_tautomer_probability>
1

> <r_epik_Ionization_Penalty>
0.632392

> <r_epik_Ionization_Penalty_Charging>
0.632323

> <r_epik_Ionization_Penalty_Neutral>
6.90503e-05

> <r_epik_State_Penalty>
0.649284

> <r_epik_Charging_Adjusted_Penalty>
1.28161

> <i_epik_Tot_Q>
0

> <i_epik_Tot_abs_Q>
0

> <r_epik_Metal_State_Penalty>
0.309626

> <b_epik_Metal_Only>
0

> <s_lp_Force_Field>
OPLS_2005

> <r_lp_Energy>
42.875

> <b_lp_Chiralities_Consistent>
1

> <s_lp_Variant>
AV-unprocessed.smi:1024-2

> <Gold.Version>
5.8.1

> <Gold.Id.Protein>
6NUR|6NUR_protein|mol2

> <Gold.PLP.Fitness>
42.8291

> <Gold.PLP.PLP>
-36.2256

> <Gold.PLP.part.hbond>
-1.0000

> <Gold.PLP.part.metal>
0.0000

> <Gold.PLP.part.buried>
3.7124

> <Gold.PLP.part.nonpolar>
-38.5907

> <Gold.PLP.part.repulsive>
1.1590

> <Gold.PLP.ligand.clash>
0.0000

> <Gold.PLP.ligand.torsion>
0.5351

> <Gold.PLP.Chemscore.Hbond>
0.9120

> <Gold.PLP.Chemscore.CHOScore>
1.6344

> <Gold.PLP.Chemscore.Metal>
0.0000

> <Gold.Chemscore.Hbonds>
donor molecule, donor type, donor heavy atom, donor atom, acceptor molecule, acceptor atom, score
      P1  H  7954  7966       L1     1  0.91
      L1  C     7    27       P1  7948  0.99
      L1  C     7    27       P1  7949  0.03
      L1  C     7    27       P1  7957  0.60

> <Gold.PLP.Chemscore.Internal.Correction>
0.0345

> <Gold.Rescore>
     Score         DG    S(hbond)    S(metal)    S(lipo)     H(rot)  DE(clash)    DE(int)     intcor
     11.86     -15.35       0.94        0.00      90.95       1.52       3.05       0.43       ----

> <Gold.Chemscore.Fitness>
11.8643

> <Gold.Chemscore.DG>
-15.3476

> <Gold.Chemscore.ZeroCoef>
-5.4800

> <Gold.Chemscore.Hbond>
0.9354

> <Gold.Chemscore.Metal>
0.0000

> <Gold.Chemscore.Lipo>
90.9519

> <Gold.Chemscore.Internal_Hbond>
0.0000

> <Gold.Chemscore.DEClash>
3.0511

> <Gold.Chemscore.DEInternal>
0.4321

> <Gold.Chemscore.Rot>
1.5227

> <Gold.Chemscore.Internal.Correction>
   9.000000E+99

> <Gold.Chemscore.Hbonds>
donor molecule, donor type, donor heavy atom, donor atom, acceptor molecule, acceptor atom, score
      P1  H  7954  7966       L1     1  0.73

> <Gold.Chemscore.Hbond.Weighted>
-3.1242

> <Gold.Chemscore.Metal.Weighted>
-0.0000

> <Gold.Chemscore.Lipo.Weighted>
-10.6414

> <Gold.Chemscore.Internal_Hbond.Weighted>
0.0000

> <Gold.Chemscore.DEClash.Weighted>
3.0511

> <Gold.Chemscore.DEInternal.Weighted>
0.4321

> <Gold.Chemscore.Rot.Weighted>
3.8980

> <Gold.Chemscore.Internal.Correction.Weighted>
   9.000000E+99

> <Gold.Protein.RotatedTorsions>
[ 6907 6896 6895 6894 ] final  -54.36 input  -60.11 | X-H torsion
[ 7974 7965 7964 7962 ] final  133.63 input  175.53 | X-H torsion
[ 8008 7997 7996 7995 ] final  -54.00 input   59.86 | X-H torsion
[ 10167 10162 10161 10158 ] final -161.02 input  -65.29 | X-H torsion
[ 10718 10713 10712 10709 ] final -136.84 input   66.30 | X-H torsion
[ 10763 10752 10751 10750 ] final   85.76 input  -60.55 | X-H torsion
[ 11005 11000 10999 10996 ] final -155.30 input  -57.11 | X-H torsion

> <Gold.Protein.ActiveResidues>
 VAL166  LYS551  ARG553  GLY616  TRP617  ASP618  TYR619  PRO620  LYS621  CYS622 
 ASP623  PHE694  ASN695  SER759  ASP760  ASP761  ALA762  ILE779  LEU786  VAL792 
 PHE793  MET794  SER795  GLU796  ALA797  LYS798  CYS799  TRP800  GLU811  SER814 

> <Gold.Protein.RotatedAtoms>
  150.8345  134.7612  159.6881 H   0  0  0  0  0  0  0  0  0  0  0  0  # atno 6907 bound_to 6896
  152.4444  134.5522  159.9880 H   0  0  0  0  0  0  0  0  0  0  0  0  # atno 6908 bound_to 6896
  151.5675  133.3357  159.3019 H   0  0  0  0  0  0  0  0  0  0  0  0  # atno 6909 bound_to 6896
  144.9846  139.4469  143.5369 H   0  0  0  0  0  0  0  0  0  0  0  0  # atno 7974 bound_to 7965
  154.4149  140.1186  156.5244 H   0  0  0  0  0  0  0  0  0  0  0  0  # atno 8008 bound_to 7997
  155.6669  140.3496  155.4784 H   0  0  0  0  0  0  0  0  0  0  0  0  # atno 8009 bound_to 7997
  155.9666  140.1133  157.0839 H   0  0  0  0  0  0  0  0  0  0  0  0  # atno 8010 bound_to 7997
  139.6496  144.0109  152.2152 H   0  0  0  0  0  0  0  0  0  0  0  0  # atno 10167 bound_to 10162
  156.2814  130.7323  151.1321 H   0  0  0  0  0  0  0  0  0  0  0  0  # atno 10718 bound_to 10713
  153.1506  135.4605  154.9630 H   0  0  0  0  0  0  0  0  0  0  0  0  # atno 10763 bound_to 10752
  154.7821  135.3192  154.7969 H   0  0  0  0  0  0  0  0  0  0  0  0  # atno 10764 bound_to 10752
  153.8475  135.6924  153.4850 H   0  0  0  0  0  0  0  0  0  0  0  0  # atno 10765 bound_to 10752
  140.6880  134.4072  157.5221 H   0  0  0  0  0  0  0  0  0  0  0  0  # atno 11005 bound_to 11000
  146.3417  139.9140  142.8776 LP  0  0  0  0  0  0  0  0  0  0  0  0  # atno 17320 bound_to 7965
  145.2372  140.9995  143.3957 LP  0  0  0  0  0  0  0  0  0  0  0  0  # atno 17321 bound_to 7965
  139.9820  144.6422  150.7892 LP  0  0  0  0  0  0  0  0  0  0  0  0  # atno 17342 bound_to 10162
  140.7531  143.3002  151.3099 LP  0  0  0  0  0  0  0  0  0  0  0  0  # atno 17343 bound_to 10162
  157.7315  131.0607  150.5672 LP  0  0  0  0  0  0  0  0  0  0  0  0  # atno 17370 bound_to 10713
  156.5778  130.4296  149.5990 LP  0  0  0  0  0  0  0  0  0  0  0  0  # atno 17371 bound_to 10713
  139.8932  134.8737  156.2236 LP  0  0  0  0  0  0  0  0  0  0  0  0  # atno 17394 bound_to 11000
  141.0264  133.7012  156.1355 LP  0  0  0  0  0  0  0  0  0  0  0  0  # atno 17395 bound_to 11000

$$$$
