AV-unprocessed.smi:227|AV-procd|sdf|1735|dock6
  -GOLD-   2262020233D 1   1.00000     0.00000
 Structure written by MMmdl.
 54 58  0  0  0  0  0  0  0  0  1 V2000
  154.7129  141.2115  161.0301 O   0  0  0  0  0  0  0  0  0  0  0  0
  153.3321  141.2413  161.3245 C   0  0  0  0  0  0  0  0  0  0  0  0
  152.5300  141.8878  160.1703 C   0  0  2  0  0  0  0  0  0  0  0  0
  152.9282  141.3156  158.7819 C   0  0  0  0  0  0  0  0  0  0  0  0
  151.8216  141.1890  157.8435 N   0  0  0  0  0  0  0  0  0  0  0  0
  150.5806  141.7744  157.9447 C   0  0  0  0  0  0  0  0  0  0  0  0
  149.7573  141.5042  156.9706 N   0  0  0  0  0  0  0  0  0  0  0  0
  150.4735  140.6564  156.1334 C   0  0  0  0  0  0  0  0  0  0  0  0
  150.1941  139.9883  154.9034 C   0  0  0  0  0  0  0  0  0  0  0  0
  149.0179  140.0687  154.2199 N   0  0  0  0  0  0  0  0  0  0  0  0
  148.0745  138.9604  154.1853 C   0  0  2  0  0  0  0  0  0  0  0  0
  147.0315  139.4470  153.1644 C   0  0  0  0  0  0  0  0  0  0  0  0
  147.0175  140.9565  153.4432 C   0  0  0  0  0  0  0  0  0  0  0  0
  148.0195  141.0574  154.6079 C   0  0  1  0  0  0  0  0  0  0  0  0
  147.4322  140.4700  155.9180 C   0  0  1  0  0  0  0  0  0  0  0  0
  146.0769  141.0404  156.3748 C   0  0  0  0  0  0  0  0  0  0  0  0
  145.6326  140.3602  157.5292 O   0  0  0  0  0  0  0  0  0  0  0  0
  147.4353  138.9646  155.5888 C   0  0  0  0  0  0  0  0  0  0  0  0
  151.1736  139.1949  154.3941 N   0  0  0  0  0  0  0  0  0  0  0  0
  152.3467  139.0731  155.0197 C   0  0  0  0  0  0  0  0  0  0  0  0
  152.7471  139.6440  156.1557 N   0  0  0  0  0  0  0  0  0  0  0  0
  151.7705  140.4357  156.6825 C   0  0  0  0  0  0  0  0  0  0  0  0
  152.6248  143.4356  160.2232 C   0  0  1  0  0  0  0  0  0  0  0  0
  152.0970  144.1474  158.9885 C   0  0  0  0  0  0  0  0  0  0  0  0
  151.8958  145.5697  159.4982 C   0  0  0  0  0  0  0  0  0  0  0  0
  151.5314  145.4360  160.8667 O   0  0  0  0  0  0  0  0  0  0  0  0
  151.7602  144.0993  161.3015 C   0  0  0  0  0  0  0  0  0  0  0  0
  154.8347  140.7467  160.2156 H   0  0  0  0  0  0  0  0  0  0  0  0
  153.0224  140.2087  161.4820 H   0  0  0  0  0  0  0  0  0  0  0  0
  153.1702  141.7651  162.2667 H   0  0  0  0  0  0  0  0  0  0  0  0
  151.4820  141.6279  160.3277 H   0  0  0  0  0  0  0  0  0  0  0  0
  153.6926  141.9433  158.3230 H   0  0  0  0  0  0  0  0  0  0  0  0
  153.3930  140.3360  158.8933 H   0  0  0  0  0  0  0  0  0  0  0  0
  150.2989  142.4157  158.7660 H   0  0  0  0  0  0  0  0  0  0  0  0
  148.4863  137.9949  153.8980 H   0  0  0  0  0  0  0  0  0  0  0  0
  147.3604  139.2493  152.1435 H   0  0  0  0  0  0  0  0  0  0  0  0
  146.0556  138.9801  153.3036 H   0  0  0  0  0  0  0  0  0  0  0  0
  147.3904  141.5019  152.5752 H   0  0  0  0  0  0  0  0  0  0  0  0
  146.0269  141.3467  153.6724 H   0  0  0  0  0  0  0  0  0  0  0  0
  148.4042  142.0707  154.7290 H   0  0  0  0  0  0  0  0  0  0  0  0
  148.1552  140.6534  156.7152 H   0  0  0  0  0  0  0  0  0  0  0  0
  146.1722  142.1001  156.6119 H   0  0  0  0  0  0  0  0  0  0  0  0
  145.3157  140.9433  155.6011 H   0  0  0  0  0  0  0  0  0  0  0  0
  144.7224  140.1343  157.4127 H   0  0  0  0  0  0  0  0  0  0  0  0
  146.4411  138.5162  155.5927 H   0  0  0  0  0  0  0  0  0  0  0  0
  148.0512  138.4178  156.3039 H   0  0  0  0  0  0  0  0  0  0  0  0
  153.0669  138.4260  154.5412 H   0  0  0  0  0  0  0  0  0  0  0  0
  153.6599  143.7376  160.3887 H   0  0  0  0  0  0  0  0  0  0  0  0
  152.7717  144.1067  158.1343 H   0  0  0  0  0  0  0  0  0  0  0  0
  151.1397  143.7222  158.6835 H   0  0  0  0  0  0  0  0  0  0  0  0
  152.8300  146.1299  159.4409 H   0  0  0  0  0  0  0  0  0  0  0  0
  151.1381  146.1130  158.9332 H   0  0  0  0  0  0  0  0  0  0  0  0
  150.7947  143.5984  161.3860 H   0  0  0  0  0  0  0  0  0  0  0  0
  152.2337  144.0882  162.2834 H   0  0  0  0  0  0  0  0  0  0  0  0
  1  2  1  0  0  0  0
  1 28  1  0  0  0  0
  2  3  1  0  0  0  0
  2 29  1  0  0  0  0
  2 30  1  0  0  0  0
  3  4  1  0  0  0  0
  3 23  1  0  0  0  0
  3 31  1  0  0  0  0
  4  5  1  0  0  0  0
  4 32  1  0  0  0  0
  4 33  1  0  0  0  0
  5 22  1  0  0  0  0
  5  6  1  0  0  0  0
  6  7  2  0  0  0  0
  6 34  1  0  0  0  0
  7  8  1  0  0  0  0
  8 22  2  0  0  0  0
  8  9  1  0  0  0  0
  9 10  1  0  0  0  0
  9 19  2  0  0  0  0
 10 14  1  0  0  0  0
 10 11  1  0  0  0  0
 11 18  1  0  0  0  0
 11 12  1  0  0  0  0
 11 35  1  0  0  0  0
 12 13  1  0  0  0  0
 12 36  1  0  0  0  0
 12 37  1  0  0  0  0
 13 14  1  0  0  0  0
 13 38  1  0  0  0  0
 13 39  1  0  0  0  0
 14 15  1  0  0  0  0
 14 40  1  0  0  0  0
 15 16  1  0  0  0  0
 15 18  1  0  0  0  0
 15 41  1  0  0  0  0
 16 17  1  0  0  0  0
 16 42  1  0  0  0  0
 16 43  1  0  0  0  0
 17 44  1  0  0  0  0
 18 45  1  0  0  0  0
 18 46  1  0  0  0  0
 19 20  1  0  0  0  0
 20 21  2  0  0  0  0
 20 47  1  0  0  0  0
 21 22  1  0  0  0  0
 23 27  1  0  0  0  0
 23 24  1  0  0  0  0
 23 48  1  0  0  0  0
 24 25  1  0  0  0  0
 24 49  1  0  0  0  0
 24 50  1  0  0  0  0
 25 26  1  0  0  0  0
 25 51  1  0  0  0  0
 25 52  1  0  0  0  0
 26 27  1  0  0  0  0
 27 53  1  0  0  0  0
 27 54  1  0  0  0  0
M  END
> <s_m_source_file>
AV-unprocessed.smi

> <i_m_source_file_index>
227

> <i_lp_mmshare_version>
43012

> <i_f3d_flags>
0

> <s_epik_input>
W0NIMl0xT1tDSDJdW0NIMl1bQ0BIXTFbQ0BIXShbQ0gyXVtPSF0pW0NIMl1uKFtjSF1uMiljKGMyMyluW2NIXW5jM04oW0NASF00NSlbQ0BASF0oW0NIMl1bQ0gyXTQpW0NASF0oW0NIMl01KVtDSDJdW09IXQ==

> <s_epik_cmdline>
J2VwaWtfcHl0aG9uJywgJy1waCcsICc3LjAnLCAnLXRuJywgJzgnLCAnLW1hJywgJzIwMCcsICctbWV0YWxfYmluZGluZycsICctaW1hZScsICc8aW5maWxlLm1hZT4nLCAnLW9tYWUnLCAnPG91dGZpbGUubWFlPic=

> <r_lp_tautomer_probability>
1

> <r_epik_Ionization_Penalty>
0.0055791

> <r_epik_Ionization_Penalty_Charging>
0

> <r_epik_Ionization_Penalty_Neutral>
0.0055791

> <r_epik_State_Penalty>
0.00401299

> <r_epik_Charging_Adjusted_Penalty>
0.00401299

> <i_epik_Tot_Q>
0

> <i_epik_Tot_abs_Q>
0

> <r_epik_Metal_State_Penalty>
-0

> <b_epik_Metal_Only>
0

> <s_lp_Force_Field>
OPLS_2005

> <r_lp_Energy>
86.8427

> <b_lp_Chiralities_Consistent>
1

> <s_lp_Variant>
AV-unprocessed.smi:227-9

> <Gold.Version>
5.8.1

> <Gold.Id.Protein>
6NUR|6NUR_protein|mol2

> <Gold.PLP.Fitness>
50.4883

> <Gold.PLP.PLP>
-49.7925

> <Gold.PLP.part.hbond>
-2.9266

> <Gold.PLP.part.metal>
0.0000

> <Gold.PLP.part.buried>
-5.6748

> <Gold.PLP.part.nonpolar>
-41.7288

> <Gold.PLP.part.repulsive>
1.4357

> <Gold.PLP.ligand.clash>
0.0000

> <Gold.PLP.ligand.torsion>
1.2988

> <Gold.PLP.Chemscore.Hbond>
1.0000

> <Gold.PLP.Chemscore.CHOScore>
0.0000

> <Gold.PLP.Chemscore.Metal>
0.0000

> <Gold.Chemscore.Hbonds>
donor molecule, donor type, donor heavy atom, donor atom, acceptor molecule, acceptor atom, score
      P1  H  7989  7998       L1    19  0.07
      P1  H  7997  8008       L1    21  1.00

> <Gold.PLP.Chemscore.Internal.Correction>
0.2935

> <Gold.Rescore>
     Score         DG    S(hbond)    S(metal)    S(lipo)     H(rot)  DE(clash)    DE(int)     intcor
      6.24     -12.66       0.90        0.00     114.56       3.61       1.73       4.69       ----

> <Gold.Chemscore.Fitness>
6.2419

> <Gold.Chemscore.DG>
-12.6617

> <Gold.Chemscore.ZeroCoef>
-5.4800

> <Gold.Chemscore.Hbond>
0.9021

> <Gold.Chemscore.Metal>
0.0000

> <Gold.Chemscore.Lipo>
114.5555

> <Gold.Chemscore.Internal_Hbond>
0.0000

> <Gold.Chemscore.DEClash>
1.7302

> <Gold.Chemscore.DEInternal>
4.6897

> <Gold.Chemscore.Rot>
3.6071

> <Gold.Chemscore.Internal.Correction>
   9.000000E+99

> <Gold.Chemscore.Hbonds>
donor molecule, donor type, donor heavy atom, donor atom, acceptor molecule, acceptor atom, score
      P1  H  7997  8008       L1    21  0.93

> <Gold.Chemscore.Hbond.Weighted>
-3.0129

> <Gold.Chemscore.Metal.Weighted>
-0.0000

> <Gold.Chemscore.Lipo.Weighted>
-13.4030

> <Gold.Chemscore.Internal_Hbond.Weighted>
0.0000

> <Gold.Chemscore.DEClash.Weighted>
1.7302

> <Gold.Chemscore.DEInternal.Weighted>
4.6897

> <Gold.Chemscore.Rot.Weighted>
9.2342

> <Gold.Chemscore.Internal.Correction.Weighted>
   9.000000E+99

> <Gold.Protein.RotatedTorsions>
[ 6907 6896 6895 6894 ] final  114.82 input  -60.11 | X-H torsion
[ 7974 7965 7964 7962 ] final  -25.87 input  175.53 | X-H torsion
[ 8008 7997 7996 7995 ] final  -42.72 input   59.86 | X-H torsion
[ 10167 10162 10161 10158 ] final  136.50 input  -65.29 | X-H torsion
[ 10718 10713 10712 10709 ] final -100.68 input   66.30 | X-H torsion
[ 10763 10752 10751 10750 ] final    9.90 input  -60.55 | X-H torsion
[ 11005 11000 10999 10996 ] final  -51.94 input  -57.11 | X-H torsion

> <Gold.Protein.ActiveResidues>
 VAL166  LYS551  ARG553  GLY616  TRP617  ASP618  TYR619  PRO620  LYS621  CYS622 
 ASP623  PHE694  ASN695  SER759  ASP760  ASP761  ALA762  ILE779  LEU786  VAL792 
 PHE793  MET794  SER795  GLU796  ALA797  LYS798  CYS799  TRP800  GLU811  SER814 

> <Gold.Protein.RotatedAtoms>
  152.4779  133.8184  159.7039 H   0  0  0  0  0  0  0  0  0  0  0  0  # atno 6907 bound_to 6896
  150.8809  133.7364  159.2939 H   0  0  0  0  0  0  0  0  0  0  0  0  # atno 6908 bound_to 6896
  151.4868  135.1059  159.9845 H   0  0  0  0  0  0  0  0  0  0  0  0  # atno 6909 bound_to 6896
  146.1463  140.4944  142.8630 H   0  0  0  0  0  0  0  0  0  0  0  0  # atno 7974 bound_to 7965
  154.3998  140.1466  156.3401 H   0  0  0  0  0  0  0  0  0  0  0  0  # atno 8008 bound_to 7997
  155.8364  140.3464  155.5583 H   0  0  0  0  0  0  0  0  0  0  0  0  # atno 8009 bound_to 7997
  155.8134  140.0887  157.1881 H   0  0  0  0  0  0  0  0  0  0  0  0  # atno 8010 bound_to 7997
  139.5177  144.6461  151.5436 H   0  0  0  0  0  0  0  0  0  0  0  0  # atno 10167 bound_to 10162
  156.0170  130.5338  150.6852 H   0  0  0  0  0  0  0  0  0  0  0  0  # atno 10718 bound_to 10713
  153.2090  135.6866  153.8137 H   0  0  0  0  0  0  0  0  0  0  0  0  # atno 10763 bound_to 10752
  153.7376  135.3243  155.3299 H   0  0  0  0  0  0  0  0  0  0  0  0  # atno 10764 bound_to 10752
  154.8212  135.4650  154.0890 H   0  0  0  0  0  0  0  0  0  0  0  0  # atno 10765 bound_to 10752
  141.0898  133.6635  156.3951 H   0  0  0  0  0  0  0  0  0  0  0  0  # atno 11005 bound_to 11000
  144.7850  140.5918  143.6580 LP  0  0  0  0  0  0  0  0  0  0  0  0  # atno 17320 bound_to 7965
  145.4930  139.1487  143.3699 LP  0  0  0  0  0  0  0  0  0  0  0  0  # atno 17321 bound_to 7965
  140.6246  143.9193  150.6554 LP  0  0  0  0  0  0  0  0  0  0  0  0  # atno 17342 bound_to 10162
  140.2477  143.3616  152.1432 LP  0  0  0  0  0  0  0  0  0  0  0  0  # atno 17343 bound_to 10162
  157.4545  131.0876  151.0811 LP  0  0  0  0  0  0  0  0  0  0  0  0  # atno 17370 bound_to 10713
  157.1316  130.6105  149.5531 LP  0  0  0  0  0  0  0  0  0  0  0  0  # atno 17371 bound_to 10713
  140.5278  134.6241  157.5340 LP  0  0  0  0  0  0  0  0  0  0  0  0  # atno 17394 bound_to 11000
  139.9722  134.7274  156.0019 LP  0  0  0  0  0  0  0  0  0  0  0  0  # atno 17395 bound_to 11000

$$$$
