AV-unprocessed.smi:1659|AV-procd|sdf|6650|dock10
  -GOLD-   22720 7353D 1   1.00000     0.00000
 Structure written by MMmdl.
 43 44  0  0  0  0  0  0  0  0  1 V2000
  148.8420  130.8413  153.7045 C   0  0  0  0  0  0  0  0  0  0  0  0
  149.2920  132.1926  154.1430 C   0  0  0  0  0  0  0  0  0  0  0  0
  149.1105  133.4456  153.6287 C   0  0  0  0  0  0  0  0  0  0  0  0
  149.8077  134.2730  154.5487 C   0  0  0  0  0  0  0  0  0  0  0  0
  149.8601  135.6789  154.3682 N   0  0  0  0  0  0  0  0  0  0  0  0
  150.7346  136.5424  154.9122 C   0  0  0  0  0  0  0  0  0  0  0  0
  151.6526  136.2369  155.6737 O   0  0  0  0  0  0  0  0  0  0  0  0
  150.4861  137.8004  154.5198 N   0  0  0  0  0  0  0  0  0  0  0  0
  151.2548  138.9712  154.9268 C   0  0  0  0  0  0  0  0  0  0  0  0
  150.4455  139.8801  155.8652 C   0  0  0  0  0  0  0  0  0  0  0  0
  150.9867  141.3195  155.8994 C   0  0  0  0  0  0  0  0  0  0  0  0
  151.2906  141.7454  157.2741 N   0  0  0  0  0  0  0  0  0  0  0  0
  150.6624  143.0037  157.7054 C   0  0  0  0  0  0  0  0  0  0  0  0
  151.6919  144.1184  157.9732 C   0  0  0  0  0  0  0  0  0  0  0  0
  152.3595  144.0333  159.3538 C   0  0  0  0  0  0  0  0  0  0  0  0
  153.1971  142.7655  159.5758 C   0  0  0  0  0  0  0  0  0  0  0  0
  152.3704  141.4708  159.5060 C   0  0  0  0  0  0  0  0  0  0  0  0
  152.1106  141.0122  158.0652 C   0  0  0  0  0  0  0  0  0  0  0  0
  152.6525  139.9754  157.6800 O   0  0  0  0  0  0  0  0  0  0  0  0
  150.3654  133.5870  155.5346 N   0  0  0  0  0  0  0  0  0  0  0  0
  150.0368  132.2501  155.2802 O   0  0  0  0  0  0  0  0  0  0  0  0
  148.4674  130.8685  152.6812 H   0  0  0  0  0  0  0  0  0  0  0  0
  148.0430  130.4733  154.3481 H   0  0  0  0  0  0  0  0  0  0  0  0
  149.6651  130.1274  153.7434 H   0  0  0  0  0  0  0  0  0  0  0  0
  148.5655  133.7217  152.7383 H   0  0  0  0  0  0  0  0  0  0  0  0
  149.1552  136.0688  153.7604 H   0  0  0  0  0  0  0  0  0  0  0  0
  149.7108  137.9607  153.8932 H   0  0  0  0  0  0  0  0  0  0  0  0
  152.1556  138.6237  155.4333 H   0  0  0  0  0  0  0  0  0  0  0  0
  151.5871  139.5266  154.0481 H   0  0  0  0  0  0  0  0  0  0  0  0
  149.4009  139.8895  155.5518 H   0  0  0  0  0  0  0  0  0  0  0  0
  150.4604  139.4636  156.8731 H   0  0  0  0  0  0  0  0  0  0  0  0
  151.8694  141.3972  155.2642 H   0  0  0  0  0  0  0  0  0  0  0  0
  150.2606  141.9971  155.4462 H   0  0  0  0  0  0  0  0  0  0  0  0
  149.9766  143.3646  156.9385 H   0  0  0  0  0  0  0  0  0  0  0  0
  150.0388  142.8319  158.5837 H   0  0  0  0  0  0  0  0  0  0  0  0
  152.4475  144.1328  157.1866 H   0  0  0  0  0  0  0  0  0  0  0  0
  151.1802  145.0794  157.9102 H   0  0  0  0  0  0  0  0  0  0  0  0
  153.0028  144.9039  159.4854 H   0  0  0  0  0  0  0  0  0  0  0  0
  151.5974  144.1060  160.1308 H   0  0  0  0  0  0  0  0  0  0  0  0
  154.0184  142.7317  158.8581 H   0  0  0  0  0  0  0  0  0  0  0  0
  153.6657  142.8279  160.5584 H   0  0  0  0  0  0  0  0  0  0  0  0
  152.9216  140.6781  160.0138 H   0  0  0  0  0  0  0  0  0  0  0  0
  151.4305  141.5706  160.0500 H   0  0  0  0  0  0  0  0  0  0  0  0
  1  2  1  0  0  0  0
  1 22  1  0  0  0  0
  1 23  1  0  0  0  0
  1 24  1  0  0  0  0
  2 21  1  0  0  0  0
  2  3  2  0  0  0  0
  3  4  1  0  0  0  0
  3 25  1  0  0  0  0
  4  5  1  0  0  0  0
  4 20  2  0  0  0  0
  5  6  1  0  0  0  0
  5 26  1  0  0  0  0
  6  7  2  0  0  0  0
  6  8  1  0  0  0  0
  8  9  1  0  0  0  0
  8 27  1  0  0  0  0
  9 10  1  0  0  0  0
  9 28  1  0  0  0  0
  9 29  1  0  0  0  0
 10 11  1  0  0  0  0
 10 30  1  0  0  0  0
 10 31  1  0  0  0  0
 11 12  1  0  0  0  0
 11 32  1  0  0  0  0
 11 33  1  0  0  0  0
 12 18  1  0  0  0  0
 12 13  1  0  0  0  0
 13 14  1  0  0  0  0
 13 34  1  0  0  0  0
 13 35  1  0  0  0  0
 14 15  1  0  0  0  0
 14 36  1  0  0  0  0
 14 37  1  0  0  0  0
 15 16  1  0  0  0  0
 15 38  1  0  0  0  0
 15 39  1  0  0  0  0
 16 17  1  0  0  0  0
 16 40  1  0  0  0  0
 16 41  1  0  0  0  0
 17 18  1  0  0  0  0
 17 42  1  0  0  0  0
 17 43  1  0  0  0  0
 18 19  2  0  0  0  0
 20 21  1  0  0  0  0
M  END
> <s_m_source_file>
AV-unprocessed.smi

> <i_m_source_file_index>
1659

> <i_lp_mmshare_version>
43012

> <i_f3d_flags>
0

> <s_epik_input>
W0NIM11jMVtjSF1jKG5vMSlbTkhdQyg9TylbTkhdW0NIMl1bQ0gyXVtDSDJdTjJbQ0gyXVtDSDJdW0NIMl1bQ0gyXVtDSDJdQzI9Tw==

> <s_epik_cmdline>
J2VwaWtfcHl0aG9uJywgJy1waCcsICc3LjAnLCAnLXRuJywgJzgnLCAnLW1hJywgJzIwMCcsICctbWV0YWxfYmluZGluZycsICctaW1hZScsICc8aW5maWxlLm1hZT4nLCAnLW9tYWUnLCAnPG91dGZpbGUubWFlPic=

> <r_lp_tautomer_probability>
1

> <r_epik_Ionization_Penalty>
2.8543e-05

> <r_epik_Ionization_Penalty_Charging>
0

> <r_epik_Ionization_Penalty_Neutral>
2.8543e-05

> <r_epik_State_Penalty>
-0

> <r_epik_Charging_Adjusted_Penalty>
0

> <i_epik_Tot_Q>
0

> <i_epik_Tot_abs_Q>
0

> <r_epik_Metal_State_Penalty>
0.00845548

> <b_epik_Metal_Only>
0

> <s_lp_Force_Field>
OPLS_2005

> <r_lp_Energy>
16.7735

> <b_lp_Chiralities_Consistent>
1

> <s_lp_Variant>
AV-unprocessed.smi:1659-1

> <Gold.Version>
5.8.1

> <Gold.Id.Protein>
6NUR|6NUR_protein|mol2

> <Gold.PLP.Fitness>
51.4166

> <Gold.PLP.PLP>
-44.5007

> <Gold.PLP.part.hbond>
-3.4260

> <Gold.PLP.part.metal>
0.0000

> <Gold.PLP.part.buried>
-4.8335

> <Gold.PLP.part.nonpolar>
-36.5585

> <Gold.PLP.part.repulsive>
0.1886

> <Gold.PLP.ligand.clash>
0.0000

> <Gold.PLP.ligand.torsion>
0.6356

> <Gold.PLP.Chemscore.Hbond>
2.7200

> <Gold.PLP.Chemscore.CHOScore>
0.0000

> <Gold.PLP.Chemscore.Metal>
0.0000

> <Gold.Chemscore.Hbonds>
donor molecule, donor type, donor heavy atom, donor atom, acceptor molecule, acceptor atom, score
      L1  H     5    26       P1  7948  0.66
      P1  H  7997  8008       L1    19  0.99
      P1  H 10752 10763       L1     7  1.00

> <Gold.PLP.Chemscore.Internal.Correction>
0.0272

> <Gold.Rescore>
     Score         DG    S(hbond)    S(metal)    S(lipo)     H(rot)  DE(clash)    DE(int)     intcor
     16.27     -19.39       2.29        0.00      94.74       1.88       0.02       3.10       ----

> <Gold.Chemscore.Fitness>
16.2683

> <Gold.Chemscore.DG>
-19.3893

> <Gold.Chemscore.ZeroCoef>
-5.4800

> <Gold.Chemscore.Hbond>
2.2878

> <Gold.Chemscore.Metal>
0.0000

> <Gold.Chemscore.Lipo>
94.7421

> <Gold.Chemscore.Internal_Hbond>
0.0000

> <Gold.Chemscore.DEClash>
0.0241

> <Gold.Chemscore.DEInternal>
3.0969

> <Gold.Chemscore.Rot>
1.8816

> <Gold.Chemscore.Internal.Correction>
   9.000000E+99

> <Gold.Chemscore.Hbonds>
donor molecule, donor type, donor heavy atom, donor atom, acceptor molecule, acceptor atom, score
      L1  H     5    26       P1  7948  0.60
      P1  H  7997  8008       L1    19  0.85
      P1  H 10752 10763       L1     7  0.74

> <Gold.Chemscore.Hbond.Weighted>
-7.6414

> <Gold.Chemscore.Metal.Weighted>
-0.0000

> <Gold.Chemscore.Lipo.Weighted>
-11.0848

> <Gold.Chemscore.Internal_Hbond.Weighted>
0.0000

> <Gold.Chemscore.DEClash.Weighted>
0.0241

> <Gold.Chemscore.DEInternal.Weighted>
3.0969

> <Gold.Chemscore.Rot.Weighted>
4.8169

> <Gold.Chemscore.Internal.Correction.Weighted>
   9.000000E+99

> <Gold.Protein.RotatedTorsions>
[ 6907 6896 6895 6894 ] final  159.66 input  -60.11 | X-H torsion
[ 7974 7965 7964 7962 ] final   72.37 input  175.53 | X-H torsion
[ 8008 7997 7996 7995 ] final  -84.06 input   59.86 | X-H torsion
[ 10167 10162 10161 10158 ] final  -32.14 input  -65.29 | X-H torsion
[ 10718 10713 10712 10709 ] final -124.78 input   66.30 | X-H torsion
[ 10763 10752 10751 10750 ] final   69.89 input  -60.55 | X-H torsion
[ 11005 11000 10999 10996 ] final  -23.05 input  -57.11 | X-H torsion

> <Gold.Protein.ActiveResidues>
 VAL166  LYS551  ARG553  GLY616  TRP617  ASP618  TYR619  PRO620  LYS621  CYS622 
 ASP623  PHE694  ASN695  SER759  ASP760  ASP761  ALA762  ILE779  LEU786  VAL792 
 PHE793  MET794  SER795  GLU796  ALA797  LYS798  CYS799  TRP800  GLU811  SER814 

> <Gold.Protein.RotatedAtoms>
  151.9823  133.3762  159.4111 H   0  0  0  0  0  0  0  0  0  0  0  0  # atno 6907 bound_to 6896
  150.6933  134.4026  159.5135 H   0  0  0  0  0  0  0  0  0  0  0  0  # atno 6908 bound_to 6896
  152.1746  134.8805  160.0582 H   0  0  0  0  0  0  0  0  0  0  0  0  # atno 6909 bound_to 6896
  145.7542  139.2773  143.1414 H   0  0  0  0  0  0  0  0  0  0  0  0  # atno 7974 bound_to 7965
  154.6257  140.0610  156.9670 H   0  0  0  0  0  0  0  0  0  0  0  0  # atno 8008 bound_to 7997
  155.1745  140.3294  155.4368 H   0  0  0  0  0  0  0  0  0  0  0  0  # atno 8009 bound_to 7997
  156.2456  140.1908  156.6846 H   0  0  0  0  0  0  0  0  0  0  0  0  # atno 8010 bound_to 7997
  140.7226  143.3717  151.1766 H   0  0  0  0  0  0  0  0  0  0  0  0  # atno 10167 bound_to 10162
  156.1618  130.6607  151.0059 H   0  0  0  0  0  0  0  0  0  0  0  0  # atno 10718 bound_to 10713
  153.0312  135.5194  154.7358 H   0  0  0  0  0  0  0  0  0  0  0  0  # atno 10763 bound_to 10752
  154.6372  135.2907  155.0149 H   0  0  0  0  0  0  0  0  0  0  0  0  # atno 10764 bound_to 10752
  154.1080  135.6626  153.4932 H   0  0  0  0  0  0  0  0  0  0  0  0  # atno 10765 bound_to 10752
  140.8715  133.7717  156.0192 H   0  0  0  0  0  0  0  0  0  0  0  0  # atno 11005 bound_to 11000
  146.0327  140.8242  142.9868 LP  0  0  0  0  0  0  0  0  0  0  0  0  # atno 17320 bound_to 7965
  144.6843  140.2793  143.7294 LP  0  0  0  0  0  0  0  0  0  0  0  0  # atno 17321 bound_to 7965
  139.7290  143.9103  152.3013 LP  0  0  0  0  0  0  0  0  0  0  0  0  # atno 17342 bound_to 10162
  139.8886  144.6978  150.8796 LP  0  0  0  0  0  0  0  0  0  0  0  0  # atno 17343 bound_to 10162
  157.6738  131.0855  150.7547 LP  0  0  0  0  0  0  0  0  0  0  0  0  # atno 17370 bound_to 10713
  156.7609  130.4798  149.5437 LP  0  0  0  0  0  0  0  0  0  0  0  0  # atno 17371 bound_to 10713
  140.8567  134.2889  157.5252 LP  0  0  0  0  0  0  0  0  0  0  0  0  # atno 17394 bound_to 11000
  139.8712  134.9497  156.4032 LP  0  0  0  0  0  0  0  0  0  0  0  0  # atno 17395 bound_to 11000

$$$$
