AV-unprocessed.smi:767|AV-procd|sdf|3668|dock1
  -GOLD-   22720 1 73D 1   1.00000     0.00000
 Structure written by MMmdl.
 48 50  0  0  0  0  0  0  0  0  2 V2000
  142.8608  145.7459  155.1137 C   0  0  0  0  0  0  0  0  0  0  0  0
  143.9613  144.7531  154.8053 C   0  0  0  0  0  0  0  0  0  0  0  0
  144.5181  144.6235  153.5149 C   0  0  0  0  0  0  0  0  0  0  0  0
  145.5362  143.6723  153.2970 C   0  0  0  0  0  0  0  0  0  0  0  0
  145.9772  142.8699  154.3727 C   0  0  0  0  0  0  0  0  0  0  0  0
  147.0397  141.8046  154.1628 C   0  0  0  0  0  0  0  0  0  0  0  0
  147.6320  141.2552  155.4763 C   0  0  0  0  0  0  0  0  0  0  0  0
  148.5262  142.2084  156.1303 N   0  0  0  0  0  0  0  0  0  0  0  0
  149.2304  141.9722  157.2468 C   0  0  0  0  0  0  0  0  0  0  0  0
  149.1995  140.9121  157.8725 O   0  0  0  0  0  0  0  0  0  0  0  0
  149.9889  143.0210  157.5900 N   0  0  0  0  0  0  0  0  0  0  0  0
  150.9015  143.0305  158.7280 C   0  0  1  0  0  0  0  0  0  0  0  0
  152.1267  142.1293  158.5112 C   0  0  2  0  0  0  0  0  0  0  0  0
  152.3185  140.9083  159.3686 C   0  0  0  0  0  0  0  0  0  0  0  0
  153.2330  141.4165  160.4870 C   0  0  0  0  0  0  0  0  0  0  0  0
  153.0531  142.8311  160.4875 O   0  0  0  0  0  0  0  0  0  0  0  0
  152.9480  143.2510  159.1291 C   0  0  2  0  0  0  0  0  0  0  0  0
  151.8324  144.2670  158.8032 C   0  0  0  0  0  0  0  0  0  0  0  0
  152.0617  145.0620  157.5098 C   0  0  0  0  0  0  0  0  0  0  0  0
  151.5123  145.2872  159.8968 C   0  0  0  0  0  0  0  0  0  0  0  0
  145.3903  143.0517  155.6434 C   0  0  0  0  0  0  0  0  0  0  0  0
  144.4158  143.9721  155.8107 N   0  3  0  0  0  0  0  0  0  0  0  0
  142.3712  146.0821  154.1992 H   0  0  0  0  0  0  0  0  0  0  0  0
  143.2707  146.6179  155.6239 H   0  0  0  0  0  0  0  0  0  0  0  0
  142.1035  145.2948  155.7560 H   0  0  0  0  0  0  0  0  0  0  0  0
  144.1672  145.2393  152.6998 H   0  0  0  0  0  0  0  0  0  0  0  0
  145.9617  143.5523  152.3115 H   0  0  0  0  0  0  0  0  0  0  0  0
  146.6159  140.9848  153.5814 H   0  0  0  0  0  0  0  0  0  0  0  0
  147.8381  142.2266  153.5513 H   0  0  0  0  0  0  0  0  0  0  0  0
  146.8235  141.0232  156.1700 H   0  0  0  0  0  0  0  0  0  0  0  0
  148.1498  140.3122  155.2921 H   0  0  0  0  0  0  0  0  0  0  0  0
  148.6208  143.1139  155.6937 H   0  0  0  0  0  0  0  0  0  0  0  0
  149.9508  143.8546  157.0217 H   0  0  0  0  0  0  0  0  0  0  0  0
  150.4132  142.8230  159.6832 H   0  0  0  0  0  0  0  0  0  0  0  0
  152.3675  141.9894  157.4557 H   0  0  0  0  0  0  0  0  0  0  0  0
  151.3664  140.5615  159.7717 H   0  0  0  0  0  0  0  0  0  0  0  0
  152.7739  140.0804  158.8245 H   0  0  0  0  0  0  0  0  0  0  0  0
  152.9925  140.9810  161.4571 H   0  0  0  0  0  0  0  0  0  0  0  0
  154.2763  141.1923  160.2604 H   0  0  0  0  0  0  0  0  0  0  0  0
  153.9115  143.4182  158.6452 H   0  0  0  0  0  0  0  0  0  0  0  0
  152.8926  145.7603  157.6147 H   0  0  0  0  0  0  0  0  0  0  0  0
  151.1816  145.6425  157.2310 H   0  0  0  0  0  0  0  0  0  0  0  0
  152.2994  144.4092  156.6695 H   0  0  0  0  0  0  0  0  0  0  0  0
  152.3433  145.9744  160.0584 H   0  0  0  0  0  0  0  0  0  0  0  0
  151.3042  144.8026  160.8510 H   0  0  0  0  0  0  0  0  0  0  0  0
  150.6345  145.8824  159.6433 H   0  0  0  0  0  0  0  0  0  0  0  0
  145.6552  142.4798  156.5206 H   0  0  0  0  0  0  0  0  0  0  0  0
  143.9995  144.0774  156.7361 H   0  0  0  0  0  0  0  0  0  0  0  0
  1  2  1  0  0  0  0
  1 23  1  0  0  0  0
  1 24  1  0  0  0  0
  1 25  1  0  0  0  0
  2 22  1  0  0  0  0
  2  3  2  0  0  0  0
  3  4  1  0  0  0  0
  3 26  1  0  0  0  0
  4  5  2  0  0  0  0
  4 27  1  0  0  0  0
  5  6  1  0  0  0  0
  5 21  1  0  0  0  0
  6  7  1  0  0  0  0
  6 28  1  0  0  0  0
  6 29  1  0  0  0  0
  7  8  1  0  0  0  0
  7 30  1  0  0  0  0
  7 31  1  0  0  0  0
  8  9  1  0  0  0  0
  8 32  1  0  0  0  0
  9 10  2  0  0  0  0
  9 11  1  0  0  0  0
 11 12  1  0  0  0  0
 11 33  1  0  0  0  0
 12 18  1  0  0  0  0
 12 13  1  0  0  0  0
 12 34  1  0  0  0  0
 13 17  1  0  0  0  0
 13 14  1  0  0  0  0
 13 35  1  0  0  0  0
 14 15  1  0  0  0  0
 14 36  1  0  0  0  0
 14 37  1  0  0  0  0
 15 16  1  0  0  0  0
 15 38  1  0  0  0  0
 15 39  1  0  0  0  0
 16 17  1  0  0  0  0
 17 18  1  0  0  0  0
 17 40  1  0  0  0  0
 18 19  1  0  0  0  0
 18 20  1  0  0  0  0
 19 41  1  0  0  0  0
 19 42  1  0  0  0  0
 19 43  1  0  0  0  0
 20 44  1  0  0  0  0
 20 45  1  0  0  0  0
 20 46  1  0  0  0  0
 21 22  2  0  0  0  0
 21 47  1  0  0  0  0
 22 48  1  0  0  0  0
M  CHG  1  22   1
M  END
> <s_m_source_file>
AV-unprocessed.smi

> <i_m_source_file_index>
767

> <i_lp_mmshare_version>
43012

> <i_f3d_flags>
0

> <s_epik_input>
W0NIM11jMVtjSF1bY0hdYyhbY0hdbjEpW0NIMl1bQ0gyXVtOSF1DKD1PKVtOSF1bQ0BIXTJDKFtDSDNdKShbQ0gzXSlbQ0BIXShbQ0BASF0yMylPW0NIMl1bQ0gyXTM=

> <s_epik_cmdline>
J2VwaWtfcHl0aG9uJywgJy1waCcsICc3LjAnLCAnLXRuJywgJzgnLCAnLW1hJywgJzIwMCcsICctbWV0YWxfYmluZGluZycsICctaW1hZScsICc8aW5maWxlLm1hZT4nLCAnLW9tYWUnLCAnPG91dGZpbGUubWFlPic=

> <r_epik_Ionization_Penalty>
1.41853

> <r_epik_Ionization_Penalty_Charging>
1.41848

> <r_epik_Ionization_Penalty_Neutral>
5.17407e-05

> <r_epik_State_Penalty>
1.50205

> <r_epik_Charging_Adjusted_Penalty>
2.92053

> <i_epik_Tot_Q>
1

> <i_epik_Tot_abs_Q>
1

> <r_epik_Metal_State_Penalty>
1.5544

> <b_epik_Metal_Only>
0

> <s_lp_Force_Field>
OPLS_2005

> <r_lp_Energy>
39.2779

> <b_lp_Chiralities_Consistent>
1

> <s_lp_Variant>
AV-unprocessed.smi:767-12

> <Gold.Version>
5.8.1

> <Gold.Id.Protein>
6NUR|6NUR_protein|mol2

> <Gold.PLP.Fitness>
54.8504

> <Gold.PLP.PLP>
-49.8602

> <Gold.PLP.part.hbond>
-1.9648

> <Gold.PLP.part.metal>
0.0000

> <Gold.PLP.part.buried>
-8.4789

> <Gold.PLP.part.nonpolar>
-41.0520

> <Gold.PLP.part.repulsive>
0.1056

> <Gold.PLP.ligand.clash>
0.0000

> <Gold.PLP.ligand.torsion>
0.3056

> <Gold.PLP.Chemscore.Hbond>
1.8000

> <Gold.PLP.Chemscore.CHOScore>
0.0000

> <Gold.PLP.Chemscore.Metal>
0.0000

> <Gold.Chemscore.Hbonds>
donor molecule, donor type, donor heavy atom, donor atom, acceptor molecule, acceptor atom, score
      L1  H     8    32       P1  8028  1.00
      L1  H    11    33       P1  8028  0.86

> <Gold.PLP.Chemscore.Internal.Correction>
0.2014

> <Gold.Rescore>
     Score         DG    S(hbond)    S(metal)    S(lipo)     H(rot)  DE(clash)    DE(int)     intcor
     21.77     -23.44       1.73        0.00     137.48       1.52       1.43       0.24       ----

> <Gold.Chemscore.Fitness>
21.7718

> <Gold.Chemscore.DG>
-23.4374

> <Gold.Chemscore.ZeroCoef>
-5.4800

> <Gold.Chemscore.Hbond>
1.7282

> <Gold.Chemscore.Metal>
0.0000

> <Gold.Chemscore.Lipo>
137.4762

> <Gold.Chemscore.Internal_Hbond>
0.0000

> <Gold.Chemscore.DEClash>
1.4255

> <Gold.Chemscore.DEInternal>
0.2402

> <Gold.Chemscore.Rot>
1.5233

> <Gold.Chemscore.Internal.Correction>
   9.000000E+99

> <Gold.Chemscore.Hbonds>
donor molecule, donor type, donor heavy atom, donor atom, acceptor molecule, acceptor atom, score
      L1  H     8    32       P1  8028  0.98
      L1  H    11    33       P1  8028  0.81

> <Gold.Chemscore.Hbond.Weighted>
-5.7722

> <Gold.Chemscore.Metal.Weighted>
-0.0000

> <Gold.Chemscore.Lipo.Weighted>
-16.0847

> <Gold.Chemscore.Internal_Hbond.Weighted>
0.0000

> <Gold.Chemscore.DEClash.Weighted>
1.4255

> <Gold.Chemscore.DEInternal.Weighted>
0.2402

> <Gold.Chemscore.Rot.Weighted>
3.8995

> <Gold.Chemscore.Internal.Correction.Weighted>
   9.000000E+99

> <Gold.Protein.RotatedTorsions>
[ 6907 6896 6895 6894 ] final  -62.02 input  -60.11 | X-H torsion
[ 7974 7965 7964 7962 ] final  -25.02 input  175.53 | X-H torsion
[ 8008 7997 7996 7995 ] final  -90.77 input   59.86 | X-H torsion
[ 10167 10162 10161 10158 ] final  143.03 input  -65.29 | X-H torsion
[ 10718 10713 10712 10709 ] final   15.55 input   66.30 | X-H torsion
[ 10763 10752 10751 10750 ] final   -4.99 input  -60.55 | X-H torsion
[ 11005 11000 10999 10996 ] final -163.34 input  -57.11 | X-H torsion

> <Gold.Protein.ActiveResidues>
 VAL166  LYS551  ARG553  GLY616  TRP617  ASP618  TYR619  PRO620  LYS621  CYS622 
 ASP623  PHE694  ASN695  SER759  ASP760  ASP761  ALA762  ILE779  LEU786  VAL792 
 PHE793  MET794  SER795  GLU796  ALA797  LYS798  CYS799  TRP800  GLU811  SER814 

> <Gold.Protein.RotatedAtoms>
  150.7744  134.6626  159.6347 H   0  0  0  0  0  0  0  0  0  0  0  0  # atno 6907 bound_to 6896
  152.3808  134.6590  160.0152 H   0  0  0  0  0  0  0  0  0  0  0  0  # atno 6908 bound_to 6896
  151.6920  133.3274  159.3281 H   0  0  0  0  0  0  0  0  0  0  0  0  # atno 6909 bound_to 6896
  146.1518  140.4830  142.8608 H   0  0  0  0  0  0  0  0  0  0  0  0  # atno 7974 bound_to 7965
  154.7026  140.0527  157.0473 H   0  0  0  0  0  0  0  0  0  0  0  0  # atno 8008 bound_to 7997
  155.0663  140.3195  155.4625 H   0  0  0  0  0  0  0  0  0  0  0  0  # atno 8009 bound_to 7997
  156.2765  140.2089  156.5791 H   0  0  0  0  0  0  0  0  0  0  0  0  # atno 8010 bound_to 7997
  139.4979  144.6067  151.6362 H   0  0  0  0  0  0  0  0  0  0  0  0  # atno 10167 bound_to 10162
  157.0551  130.6286  149.5775 H   0  0  0  0  0  0  0  0  0  0  0  0  # atno 10718 bound_to 10713
  153.3923  135.7002  153.6485 H   0  0  0  0  0  0  0  0  0  0  0  0  # atno 10763 bound_to 10752
  153.5053  135.3643  155.2560 H   0  0  0  0  0  0  0  0  0  0  0  0  # atno 10764 bound_to 10752
  154.8703  135.4122  154.3243 H   0  0  0  0  0  0  0  0  0  0  0  0  # atno 10765 bound_to 10752
  140.5991  134.4965  157.5203 H   0  0  0  0  0  0  0  0  0  0  0  0  # atno 11005 bound_to 11000
  144.7913  140.6037  143.6540 LP  0  0  0  0  0  0  0  0  0  0  0  0  # atno 17320 bound_to 7965
  145.4806  139.1496  143.3764 LP  0  0  0  0  0  0  0  0  0  0  0  0  # atno 17321 bound_to 7965
  140.5731  144.0075  150.6227 LP  0  0  0  0  0  0  0  0  0  0  0  0  # atno 17342 bound_to 10162
  140.3199  143.3144  152.0795 LP  0  0  0  0  0  0  0  0  0  0  0  0  # atno 17343 bound_to 10162
  155.9995  130.5071  150.7610 LP  0  0  0  0  0  0  0  0  0  0  0  0  # atno 17370 bound_to 10713
  157.4999  131.0918  151.0327 LP  0  0  0  0  0  0  0  0  0  0  0  0  # atno 17371 bound_to 10713
  139.9240  134.8092  156.1124 LP  0  0  0  0  0  0  0  0  0  0  0  0  # atno 17394 bound_to 11000
  141.0884  133.6724  156.2486 LP  0  0  0  0  0  0  0  0  0  0  0  0  # atno 17395 bound_to 11000

$$$$
