AV-unprocessed.smi:109|AV-procd|sdf|1043|dock4
  -GOLD-   2262018 73D 1   1.00000     0.00000
 Structure written by MMmdl.
 58 61  0  0  0  0  0  0  0  0  1 V2000
  151.1199  139.7174  154.6453 O   0  0  0  0  0  0  0  0  0  0  0  0
  151.8725  139.5798  155.8312 C   0  0  0  0  0  0  0  0  0  0  0  0
  150.9377  139.6284  157.0517 C   0  0  0  0  0  0  0  0  0  0  0  0
  150.3585  141.0327  157.3545 C   0  0  2  0  0  0  0  0  0  0  0  0
  149.6331  141.5239  156.1808 N   0  0  0  0  0  0  0  0  0  0  0  0
  148.3498  141.1777  155.9347 C   0  0  0  0  0  0  0  0  0  0  0  0
  147.3182  142.0106  156.2304 N   0  0  0  0  0  0  0  0  0  0  0  0
  146.0603  141.6310  155.9870 C   0  0  0  0  0  0  0  0  0  0  0  0
  145.6216  140.4858  155.4590 N   0  0  0  0  0  0  0  0  0  0  0  0
  146.6552  139.6484  155.1535 C   0  0  0  0  0  0  0  0  0  0  0  0
  148.0357  139.9182  155.3633 C   0  0  0  0  0  0  0  0  0  0  0  0
  148.7949  138.8360  154.9410 N   0  0  0  0  0  0  0  0  0  0  0  0
  147.9092  137.9788  154.5098 C   0  0  0  0  0  0  0  0  0  0  0  0
  146.5933  138.3917  154.5897 N   0  0  0  0  0  0  0  0  0  0  0  0
  145.3273  137.6681  154.2252 C   0  0  2  0  0  0  0  0  0  0  0  0
  145.2736  136.4948  154.9709 O   0  0  0  0  0  0  0  0  0  0  0  0
  145.9545  135.4647  154.2698 C   0  0  1  0  0  0  0  0  0  0  0  0
  145.4845  134.0971  154.7876 C   0  0  0  0  0  0  0  0  0  0  0  0
  144.0774  134.0064  154.7263 O   0  0  0  0  0  0  0  0  0  0  0  0
  145.6209  135.7468  152.7942 C   0  0  2  0  0  0  0  0  0  0  0  0
  146.7347  135.4444  151.9773 O   0  0  0  0  0  0  0  0  0  0  0  0
  145.3103  137.2477  152.7460 C   0  0  1  0  0  0  0  0  0  0  0  0
  144.0407  137.4774  152.1695 O   0  0  0  0  0  0  0  0  0  0  0  0
  151.4427  142.0712  157.7653 C   0  0  0  0  0  0  0  0  0  0  0  0
  151.9869  141.8450  159.1985 C   0  0  0  0  0  0  0  0  0  0  0  0
  153.0335  142.8962  159.6044 C   0  0  0  0  0  0  0  0  0  0  0  0
  152.4820  144.3209  159.4722 C   0  0  0  0  0  0  0  0  0  0  0  0
  151.9640  144.5681  158.0508 C   0  0  0  0  0  0  0  0  0  0  0  0
  150.9088  143.5236  157.6557 C   0  0  0  0  0  0  0  0  0  0  0  0
  144.5264  138.3569  154.4963 H   0  0  0  0  0  0  0  0  0  0  0  0
  147.0221  135.5846  154.4613 H   0  0  0  0  0  0  0  0  0  0  0  0
  144.7601  135.1583  152.4721 H   0  0  0  0  0  0  0  0  0  0  0  0
  146.0420  137.8225  152.1768 H   0  0  0  0  0  0  0  0  0  0  0  0
  150.3432  139.1846  154.7198 H   0  0  0  0  0  0  0  0  0  0  0  0
  152.4177  138.6369  155.7867 H   0  0  0  0  0  0  0  0  0  0  0  0
  152.6081  140.3831  155.8787 H   0  0  0  0  0  0  0  0  0  0  0  0
  150.1289  138.9274  156.8538 H   0  0  0  0  0  0  0  0  0  0  0  0
  151.4614  139.2513  157.9313 H   0  0  0  0  0  0  0  0  0  0  0  0
  149.6843  140.9386  158.2058 H   0  0  0  0  0  0  0  0  0  0  0  0
  150.1037  142.2479  155.6570 H   0  0  0  0  0  0  0  0  0  0  0  0
  145.2967  142.3472  156.2528 H   0  0  0  0  0  0  0  0  0  0  0  0
  148.2055  137.0160  154.1220 H   0  0  0  0  0  0  0  0  0  0  0  0
  145.9030  133.3012  154.1711 H   0  0  0  0  0  0  0  0  0  0  0  0
  145.8223  133.9249  155.8099 H   0  0  0  0  0  0  0  0  0  0  0  0
  143.8313  133.0965  154.7922 H   0  0  0  0  0  0  0  0  0  0  0  0
  147.5139  135.7811  152.3915 H   0  0  0  0  0  0  0  0  0  0  0  0
  143.9268  138.4088  152.0562 H   0  0  0  0  0  0  0  0  0  0  0  0
  152.2809  141.9721  157.0734 H   0  0  0  0  0  0  0  0  0  0  0  0
  151.1610  141.8590  159.9112 H   0  0  0  0  0  0  0  0  0  0  0  0
  152.4575  140.8677  159.2883 H   0  0  0  0  0  0  0  0  0  0  0  0
  153.3577  142.7190  160.6302 H   0  0  0  0  0  0  0  0  0  0  0  0
  153.9198  142.7885  158.9777 H   0  0  0  0  0  0  0  0  0  0  0  0
  151.6747  144.4719  160.1899 H   0  0  0  0  0  0  0  0  0  0  0  0
  153.2579  145.0462  159.7191 H   0  0  0  0  0  0  0  0  0  0  0  0
  151.5393  145.5699  157.9798 H   0  0  0  0  0  0  0  0  0  0  0  0
  152.7951  144.5336  157.3453 H   0  0  0  0  0  0  0  0  0  0  0  0
  150.5819  143.7423  156.6391 H   0  0  0  0  0  0  0  0  0  0  0  0
  150.0288  143.6389  158.2901 H   0  0  0  0  0  0  0  0  0  0  0  0
  1  2  1  0  0  0  0
  1 34  1  0  0  0  0
  2  3  1  0  0  0  0
  2 35  1  0  0  0  0
  2 36  1  0  0  0  0
  3  4  1  0  0  0  0
  3 37  1  0  0  0  0
  3 38  1  0  0  0  0
  4  5  1  0  0  0  0
  4 24  1  0  0  0  0
  4 39  1  0  0  0  0
  5  6  1  0  0  0  0
  5 40  1  0  0  0  0
  6 11  1  0  0  0  0
  6  7  2  0  0  0  0
  7  8  1  0  0  0  0
  8  9  2  0  0  0  0
  8 41  1  0  0  0  0
  9 10  1  0  0  0  0
 10 14  1  0  0  0  0
 10 11  2  0  0  0  0
 11 12  1  0  0  0  0
 12 13  2  0  0  0  0
 13 14  1  0  0  0  0
 13 42  1  0  0  0  0
 14 15  1  0  0  0  0
 15 30  1  0  0  0  0
 15 22  1  0  0  0  0
 15 16  1  0  0  0  0
 16 17  1  0  0  0  0
 17 31  1  0  0  0  0
 17 18  1  0  0  0  0
 17 20  1  0  0  0  0
 18 19  1  0  0  0  0
 18 43  1  0  0  0  0
 18 44  1  0  0  0  0
 19 45  1  0  0  0  0
 20 32  1  0  0  0  0
 20 21  1  0  0  0  0
 20 22  1  0  0  0  0
 21 46  1  0  0  0  0
 22 33  1  0  0  0  0
 22 23  1  0  0  0  0
 23 47  1  0  0  0  0
 24 29  1  0  0  0  0
 24 25  1  0  0  0  0
 24 48  1  0  0  0  0
 25 26  1  0  0  0  0
 25 49  1  0  0  0  0
 25 50  1  0  0  0  0
 26 27  1  0  0  0  0
 26 51  1  0  0  0  0
 26 52  1  0  0  0  0
 27 28  1  0  0  0  0
 27 53  1  0  0  0  0
 27 54  1  0  0  0  0
 28 29  1  0  0  0  0
 28 55  1  0  0  0  0
 28 56  1  0  0  0  0
 29 57  1  0  0  0  0
 29 58  1  0  0  0  0
M  END
> <s_m_source_file>
AV-unprocessed.smi

> <i_m_source_file_index>
109

> <i_lp_mmshare_version>
43012

> <i_f3d_flags>
0

> <s_epik_input>
W0NIMl0xW0NIMl1bQ0gyXVtDSDJdW0NIMl1bQ0hdMVtDQEhdKFtDSDJdW0NIMl1bT0hdKVtOSF1jKG5bY0hdbjIpYyhjMjMpbltjSF1uM1tDQEBIXTRPW0NASF0oW0NIMl1bT0hdKVtDQEBIXShbT0hdKVtDQEhdNFtPSF0=

> <s_epik_cmdline>
J2VwaWtfcHl0aG9uJywgJy1waCcsICc3LjAnLCAnLXRuJywgJzgnLCAnLW1hJywgJzIwMCcsICctbWV0YWxfYmluZGluZycsICctaW1hZScsICc8aW5maWxlLm1hZT4nLCAnLW9tYWUnLCAnPG91dGZpbGUubWFlPic=

> <r_lp_tautomer_probability>
1

> <r_epik_Ionization_Penalty>
0.000793976

> <r_epik_Ionization_Penalty_Charging>
0

> <r_epik_Ionization_Penalty_Neutral>
0.000793976

> <r_epik_State_Penalty>
-0

> <r_epik_Charging_Adjusted_Penalty>
0

> <i_epik_Tot_Q>
0

> <i_epik_Tot_abs_Q>
0

> <r_epik_Metal_State_Penalty>
-0

> <b_epik_Metal_Only>
0

> <s_epik_Chemistry_Notes>
This compound contains an acetal/aminal-like group ( X-CH(R)-Y where X, Y are N, S, or O) that may be acid/base labile, releasing an aldehyde.

> <s_lp_Force_Field>
OPLS_2005

> <r_lp_Energy>
47.5794

> <b_lp_Chiralities_Consistent>
1

> <s_lp_Variant>
AV-unprocessed.smi:109-13

> <Gold.Version>
5.8.1

> <Gold.Id.Protein>
6NUR|6NUR_protein|mol2

> <Gold.PLP.Fitness>
50.2294

> <Gold.PLP.PLP>
-38.2400

> <Gold.PLP.part.hbond>
-4.8547

> <Gold.PLP.part.metal>
0.0000

> <Gold.PLP.part.buried>
-6.9147

> <Gold.PLP.part.nonpolar>
-27.8553

> <Gold.PLP.part.repulsive>
0.4004

> <Gold.PLP.ligand.clash>
0.0000

> <Gold.PLP.ligand.torsion>
1.4094

> <Gold.PLP.Chemscore.Hbond>
3.8320

> <Gold.PLP.Chemscore.CHOScore>
1.0000

> <Gold.PLP.Chemscore.Metal>
0.0000

> <Gold.Chemscore.Hbonds>
donor molecule, donor type, donor heavy atom, donor atom, acceptor molecule, acceptor atom, score
      L1  H    19    45       P1 10957  1.00
      L1  H    21    46       P1  7948  0.66
      L1  H    23    47       P1 10175  0.88
      P1  H  7989  7998       L1     1  1.00
      L1  C    13    42       P1  7948  1.00

> <Gold.PLP.Chemscore.Internal.Correction>
0.3123

> <Gold.Rescore>
     Score         DG    S(hbond)    S(metal)    S(lipo)     H(rot)  DE(clash)    DE(int)     intcor
     13.06     -16.23       3.89        0.00     100.37       5.47       0.11       3.07       ----

> <Gold.Chemscore.Fitness>
13.0586

> <Gold.Chemscore.DG>
-16.2321

> <Gold.Chemscore.ZeroCoef>
-5.4800

> <Gold.Chemscore.Hbond>
3.8927

> <Gold.Chemscore.Metal>
0.0000

> <Gold.Chemscore.Lipo>
100.3746

> <Gold.Chemscore.Internal_Hbond>
0.0000

> <Gold.Chemscore.DEClash>
0.1074

> <Gold.Chemscore.DEInternal>
3.0661

> <Gold.Chemscore.Rot>
5.4662

> <Gold.Chemscore.Internal.Correction>
   9.000000E+99

> <Gold.Chemscore.Hbonds>
donor molecule, donor type, donor heavy atom, donor atom, acceptor molecule, acceptor atom, score
      L1  H    19    45       P1 10957  0.98
      L1  H    21    46       P1  7948  0.65
      L1  H    23    47       P1 10175  0.85
      P1  H  7989  7998       L1     1  0.96

> <Gold.Chemscore.Hbond.Weighted>
-13.0018

> <Gold.Chemscore.Metal.Weighted>
-0.0000

> <Gold.Chemscore.Lipo.Weighted>
-11.7438

> <Gold.Chemscore.Internal_Hbond.Weighted>
0.0000

> <Gold.Chemscore.DEClash.Weighted>
0.1074

> <Gold.Chemscore.DEInternal.Weighted>
3.0661

> <Gold.Chemscore.Rot.Weighted>
13.9935

> <Gold.Chemscore.Internal.Correction.Weighted>
   9.000000E+99

> <Gold.Protein.RotatedTorsions>
[ 6907 6896 6895 6894 ] final  -91.86 input  -60.11 | X-H torsion
[ 7974 7965 7964 7962 ] final  -64.40 input  175.53 | X-H torsion
[ 8008 7997 7996 7995 ] final   57.49 input   59.86 | X-H torsion
[ 10167 10162 10161 10158 ] final  -33.10 input  -65.29 | X-H torsion
[ 10718 10713 10712 10709 ] final   28.92 input   66.30 | X-H torsion
[ 10763 10752 10751 10750 ] final -163.94 input  -60.55 | X-H torsion
[ 11005 11000 10999 10996 ] final   46.31 input  -57.11 | X-H torsion

> <Gold.Protein.ActiveResidues>
 VAL166  LYS551  ARG553  GLY616  TRP617  ASP618  TYR619  PRO620  LYS621  CYS622 
 ASP623  PHE694  ASN695  SER759  ASP760  ASP761  ALA762  ILE779  LEU786  VAL792 
 PHE793  MET794  SER795  GLU796  ALA797  LYS798  CYS799  TRP800  GLU811  SER814 

> <Gold.Protein.RotatedAtoms>
  150.6898  134.2212  159.4397 H   0  0  0  0  0  0  0  0  0  0  0  0  # atno 6907 bound_to 6896
  152.0168  134.9843  160.0579 H   0  0  0  0  0  0  0  0  0  0  0  0  # atno 6908 bound_to 6896
  152.1435  133.4443  159.4815 H   0  0  0  0  0  0  0  0  0  0  0  0  # atno 6909 bound_to 6896
  145.7672  140.8831  143.0399 H   0  0  0  0  0  0  0  0  0  0  0  0  # atno 7974 bound_to 7965
  155.5346  140.3483  155.4433 H   0  0  0  0  0  0  0  0  0  0  0  0  # atno 8008 bound_to 7997
  156.0694  140.1359  156.9873 H   0  0  0  0  0  0  0  0  0  0  0  0  # atno 8009 bound_to 7997
  154.4520  140.0969  156.6621 H   0  0  0  0  0  0  0  0  0  0  0  0  # atno 8010 bound_to 7997
  140.7210  143.3645  151.1897 H   0  0  0  0  0  0  0  0  0  0  0  0  # atno 10167 bound_to 10162
  157.2398  130.7063  149.6353 H   0  0  0  0  0  0  0  0  0  0  0  0  # atno 10718 bound_to 10713
  154.7075  135.2999  154.9248 H   0  0  0  0  0  0  0  0  0  0  0  0  # atno 10763 bound_to 10752
  154.0160  135.6688  153.4773 H   0  0  0  0  0  0  0  0  0  0  0  0  # atno 10764 bound_to 10752
  153.0728  135.5051  154.8254 H   0  0  0  0  0  0  0  0  0  0  0  0  # atno 10765 bound_to 10752
  140.1380  134.4620  155.8471 H   0  0  0  0  0  0  0  0  0  0  0  0  # atno 11005 bound_to 11000
  144.6819  139.9805  143.7483 LP  0  0  0  0  0  0  0  0  0  0  0  0  # atno 17320 bound_to 7965
  146.0206  139.3248  143.0815 LP  0  0  0  0  0  0  0  0  0  0  0  0  # atno 17321 bound_to 7965
  139.7204  143.9232  152.2983 LP  0  0  0  0  0  0  0  0  0  0  0  0  # atno 17342 bound_to 10162
  139.8987  144.6924  150.8689 LP  0  0  0  0  0  0  0  0  0  0  0  0  # atno 17343 bound_to 10162
  155.9670  130.4462  150.5531 LP  0  0  0  0  0  0  0  0  0  0  0  0  # atno 17370 bound_to 10713
  157.3391  131.0713  151.1802 LP  0  0  0  0  0  0  0  0  0  0  0  0  # atno 17371 bound_to 10713
  141.2181  133.6822  156.7194 LP  0  0  0  0  0  0  0  0  0  0  0  0  # atno 17394 bound_to 11000
  140.2758  134.8356  157.3888 LP  0  0  0  0  0  0  0  0  0  0  0  0  # atno 17395 bound_to 11000

$$$$
