AV-unprocessed.smi:1165|AV-procd|sdf|4930|dock5
  -GOLD-   22720 3513D 1   1.00000     0.00000
 Structure written by MMmdl.
 41 42  0  0  0  0  0  0  0  0  1 V2000
  149.8252  134.9042  155.3735 C   0  0  0  0  0  0  0  0  0  0  0  0
  150.6706  135.2291  156.6188 C   0  0  1  0  0  0  0  0  0  0  0  0
  151.5340  136.4947  156.4577 C   0  0  0  0  0  0  0  0  0  0  0  0
  150.7225  137.7182  156.5750 N   0  0  0  0  0  0  0  0  0  0  0  0
  151.4421  139.2174  156.0883 S   0  0  0  0  0  0  0  0  0  0  0  0
  152.8249  139.2599  156.5885 O   0  0  0  0  0  0  0  0  0  0  0  0
  151.1368  139.4344  154.6661 O   0  0  0  0  0  0  0  0  0  0  0  0
  150.4953  140.3134  157.0267 N   0  0  0  0  0  0  0  0  0  0  0  0
  150.8567  141.7294  157.0688 C   0  0  0  0  0  0  0  0  0  0  0  0
  152.0283  141.9497  158.0330 C   0  0  0  0  0  0  0  0  0  0  0  0
  151.8590  143.2136  158.8520 C   0  0  0  0  0  0  0  0  0  0  0  0
  152.3167  143.2828  160.1840 C   0  0  0  0  0  0  0  0  0  0  0  0
  152.1304  144.4793  160.9029 C   0  0  0  0  0  0  0  0  0  0  0  0
  151.4922  145.5575  160.2576 C   0  0  0  0  0  0  0  0  0  0  0  0
  151.0488  145.5016  158.9831 N   0  0  0  0  0  0  0  0  0  0  0  0
  151.2315  144.3510  158.3007 C   0  0  0  0  0  0  0  0  0  0  0  0
  149.8836  137.7361  157.7808 C   0  0  0  0  0  0  0  0  0  0  0  0
  149.0381  136.4541  157.8776 C   0  0  2  0  0  0  0  0  0  0  0  0
  148.2577  136.3812  159.1948 C   0  0  0  0  0  0  0  0  0  0  0  0
  149.8801  135.3088  157.8026 O   0  0  0  0  0  0  0  0  0  0  0  0
  150.4646  134.7212  154.5097 H   0  0  0  0  0  0  0  0  0  0  0  0
  149.1499  135.7162  155.1063 H   0  0  0  0  0  0  0  0  0  0  0  0
  149.2252  134.0083  155.5347 H   0  0  0  0  0  0  0  0  0  0  0  0
  151.3464  134.3863  156.7657 H   0  0  0  0  0  0  0  0  0  0  0  0
  152.3029  136.5162  157.2314 H   0  0  0  0  0  0  0  0  0  0  0  0
  152.0551  136.4724  155.5012 H   0  0  0  0  0  0  0  0  0  0  0  0
  150.2183  139.9273  157.9289 H   0  0  0  0  0  0  0  0  0  0  0  0
  151.1301  142.0602  156.0669 H   0  0  0  0  0  0  0  0  0  0  0  0
  149.9891  142.3131  157.3781 H   0  0  0  0  0  0  0  0  0  0  0  0
  152.1266  141.0960  158.7050 H   0  0  0  0  0  0  0  0  0  0  0  0
  152.9648  142.0152  157.4771 H   0  0  0  0  0  0  0  0  0  0  0  0
  152.8001  142.4359  160.6485 H   0  0  0  0  0  0  0  0  0  0  0  0
  152.4681  144.5691  161.9249 H   0  0  0  0  0  0  0  0  0  0  0  0
  151.3333  146.4896  160.7792 H   0  0  0  0  0  0  0  0  0  0  0  0
  150.8636  144.3365  157.2851 H   0  0  0  0  0  0  0  0  0  0  0  0
  150.5277  137.8393  158.6551 H   0  0  0  0  0  0  0  0  0  0  0  0
  149.2286  138.6072  157.7611 H   0  0  0  0  0  0  0  0  0  0  0  0
  148.3159  136.4338  157.0613 H   0  0  0  0  0  0  0  0  0  0  0  0
  147.5805  137.2296  159.2972 H   0  0  0  0  0  0  0  0  0  0  0  0
  148.9296  136.3827  160.0535 H   0  0  0  0  0  0  0  0  0  0  0  0
  147.6586  135.4716  159.2427 H   0  0  0  0  0  0  0  0  0  0  0  0
  1  2  1  0  0  0  0
  1 21  1  0  0  0  0
  1 22  1  0  0  0  0
  1 23  1  0  0  0  0
  2 20  1  0  0  0  0
  2  3  1  0  0  0  0
  2 24  1  0  0  0  0
  3  4  1  0  0  0  0
  3 25  1  0  0  0  0
  3 26  1  0  0  0  0
  4  5  1  0  0  0  0
  4 17  1  0  0  0  0
  5  6  2  0  0  0  0
  5  7  2  0  0  0  0
  5  8  1  0  0  0  0
  8  9  1  0  0  0  0
  8 27  1  0  0  0  0
  9 10  1  0  0  0  0
  9 28  1  0  0  0  0
  9 29  1  0  0  0  0
 10 11  1  0  0  0  0
 10 30  1  0  0  0  0
 10 31  1  0  0  0  0
 11 16  1  0  0  0  0
 11 12  2  0  0  0  0
 12 13  1  0  0  0  0
 12 32  1  0  0  0  0
 13 14  2  0  0  0  0
 13 33  1  0  0  0  0
 14 15  1  0  0  0  0
 14 34  1  0  0  0  0
 15 16  2  0  0  0  0
 16 35  1  0  0  0  0
 17 18  1  0  0  0  0
 17 36  1  0  0  0  0
 17 37  1  0  0  0  0
 18 19  1  0  0  0  0
 18 20  1  0  0  0  0
 18 38  1  0  0  0  0
 19 39  1  0  0  0  0
 19 40  1  0  0  0  0
 19 41  1  0  0  0  0
M  END
> <s_m_source_file>
AV-unprocessed.smi

> <i_m_source_file_index>
1165

> <i_lp_mmshare_version>
43012

> <i_f3d_flags>
0

> <s_epik_input>
W0NIM11bQ0BASF0xW0NIMl1OKFtDSDJdW0NASF0oTzEpW0NIM10pUyg9TykoPU8pW05IXVtDSDJdW0NIMl1jMltjSF1bY0hdW2NIXW5bY0hdMg==

> <s_epik_cmdline>
J2VwaWtfcHl0aG9uJywgJy1waCcsICc3LjAnLCAnLXRuJywgJzgnLCAnLW1hJywgJzIwMCcsICctbWV0YWxfYmluZGluZycsICctaW1hZScsICc8aW5maWxlLm1hZT4nLCAnLW9tYWUnLCAnPG91dGZpbGUubWFlPic=

> <r_epik_Ionization_Penalty>
0.0861056

> <r_epik_Ionization_Penalty_Charging>
0

> <r_epik_Ionization_Penalty_Neutral>
0.0861056

> <r_epik_State_Penalty>
0.0574425

> <r_epik_Charging_Adjusted_Penalty>
0.0574425

> <i_epik_Tot_Q>
0

> <i_epik_Tot_abs_Q>
0

> <r_epik_Metal_State_Penalty>
0.317425

> <b_epik_Metal_Only>
0

> <s_lp_Force_Field>
OPLS_2005

> <r_lp_Energy>
8.11282

> <b_lp_Chiralities_Consistent>
1

> <s_lp_Variant>
AV-unprocessed.smi:1165-3

> <Gold.Version>
5.8.1

> <Gold.Id.Protein>
6NUR|6NUR_protein|mol2

> <Gold.PLP.Fitness>
44.2425

> <Gold.PLP.PLP>
-35.0609

> <Gold.PLP.part.hbond>
-4.0000

> <Gold.PLP.part.metal>
0.0000

> <Gold.PLP.part.buried>
-5.6164

> <Gold.PLP.part.nonpolar>
-25.5962

> <Gold.PLP.part.repulsive>
0.2506

> <Gold.PLP.ligand.clash>
0.0000

> <Gold.PLP.ligand.torsion>
1.6110

> <Gold.PLP.Chemscore.Hbond>
2.8800

> <Gold.PLP.Chemscore.CHOScore>
1.0000

> <Gold.PLP.Chemscore.Metal>
0.0000

> <Gold.Chemscore.Hbonds>
donor molecule, donor type, donor heavy atom, donor atom, acceptor molecule, acceptor atom, score
      P1  H  6896  6909       L1    20  0.84
      P1  H  7989  7998       L1     7  1.00
      P1  H  7997  8008       L1     6  1.00
      L1  C    16    35       P1  8028  0.93

> <Gold.PLP.Chemscore.Internal.Correction>
0.7637

> <Gold.Rescore>
     Score         DG    S(hbond)    S(metal)    S(lipo)     H(rot)  DE(clash)    DE(int)     intcor
     19.84     -21.48       2.76        0.00      95.43       1.71       0.01       1.64       ----

> <Gold.Chemscore.Fitness>
19.8353

> <Gold.Chemscore.DG>
-21.4839

> <Gold.Chemscore.ZeroCoef>
-5.4800

> <Gold.Chemscore.Hbond>
2.7562

> <Gold.Chemscore.Metal>
0.0000

> <Gold.Chemscore.Lipo>
95.4305

> <Gold.Chemscore.Internal_Hbond>
0.0000

> <Gold.Chemscore.DEClash>
0.0060

> <Gold.Chemscore.DEInternal>
1.6426

> <Gold.Chemscore.Rot>
1.7060

> <Gold.Chemscore.Internal.Correction>
   9.000000E+99

> <Gold.Chemscore.Hbonds>
donor molecule, donor type, donor heavy atom, donor atom, acceptor molecule, acceptor atom, score
      P1  H  6896  6909       L1    20  0.70
      P1  H  7989  7998       L1     7  1.00
      P1  H  7997  8008       L1     6  0.97

> <Gold.Chemscore.Hbond.Weighted>
-9.2059

> <Gold.Chemscore.Metal.Weighted>
-0.0000

> <Gold.Chemscore.Lipo.Weighted>
-11.1654

> <Gold.Chemscore.Internal_Hbond.Weighted>
0.0000

> <Gold.Chemscore.DEClash.Weighted>
0.0060

> <Gold.Chemscore.DEInternal.Weighted>
1.6426

> <Gold.Chemscore.Rot.Weighted>
4.3674

> <Gold.Chemscore.Internal.Correction.Weighted>
   9.000000E+99

> <Gold.Protein.RotatedTorsions>
[ 6907 6896 6895 6894 ] final   32.69 input  -60.11 | X-H torsion
[ 7974 7965 7964 7962 ] final -144.53 input  175.53 | X-H torsion
[ 8008 7997 7996 7995 ] final  -33.10 input   59.86 | X-H torsion
[ 10167 10162 10161 10158 ] final  -95.48 input  -65.29 | X-H torsion
[ 10718 10713 10712 10709 ] final  -19.53 input   66.30 | X-H torsion
[ 10763 10752 10751 10750 ] final  151.83 input  -60.55 | X-H torsion
[ 11005 11000 10999 10996 ] final  176.48 input  -57.11 | X-H torsion

> <Gold.Protein.ActiveResidues>
 VAL166  LYS551  ARG553  GLY616  TRP617  ASP618  TYR619  PRO620  LYS621  CYS622 
 ASP623  PHE694  ASN695  SER759  ASP760  ASP761  ALA762  ILE779  LEU786  VAL792 
 PHE793  MET794  SER795  GLU796  ALA797  LYS798  CYS799  TRP800  GLU811  SER814 

> <Gold.Protein.RotatedAtoms>
  152.0780  134.9490  160.0573 H   0  0  0  0  0  0  0  0  0  0  0  0  # atno 6907 bound_to 6896
  152.0789  133.4138  159.4500 H   0  0  0  0  0  0  0  0  0  0  0  0  # atno 6908 bound_to 6896
  150.6836  134.2925  159.4716 H   0  0  0  0  0  0  0  0  0  0  0  0  # atno 6909 bound_to 6896
  144.8291  140.5699  143.5527 H   0  0  0  0  0  0  0  0  0  0  0  0  # atno 7974 bound_to 7965
  154.4159  140.1719  156.1834 H   0  0  0  0  0  0  0  0  0  0  0  0  # atno 8008 bound_to 7997
  155.9663  140.3389  155.6512 H   0  0  0  0  0  0  0  0  0  0  0  0  # atno 8009 bound_to 7997
  155.6683  140.0709  157.2520 H   0  0  0  0  0  0  0  0  0  0  0  0  # atno 8010 bound_to 7997
  140.3037  143.3146  152.0221 H   0  0  0  0  0  0  0  0  0  0  0  0  # atno 10167 bound_to 10162
  156.5444  130.4686  149.6483 H   0  0  0  0  0  0  0  0  0  0  0  0  # atno 10718 bound_to 10713
  154.1102  135.2839  155.3232 H   0  0  0  0  0  0  0  0  0  0  0  0  # atno 10763 bound_to 10752
  154.6495  135.5374  153.7888 H   0  0  0  0  0  0  0  0  0  0  0  0  # atno 10764 bound_to 10752
  153.0348  135.6506  154.1261 H   0  0  0  0  0  0  0  0  0  0  0  0  # atno 10765 bound_to 10752
  140.3736  134.7008  157.4408 H   0  0  0  0  0  0  0  0  0  0  0  0  # atno 11005 bound_to 11000
  145.4934  139.1487  143.3697 LP  0  0  0  0  0  0  0  0  0  0  0  0  # atno 17320 bound_to 7965
  146.2595  140.5073  142.8859 LP  0  0  0  0  0  0  0  0  0  0  0  0  # atno 17321 bound_to 7965
  139.4909  144.6436  151.6825 LP  0  0  0  0  0  0  0  0  0  0  0  0  # atno 17342 bound_to 10162
  140.5628  144.0239  150.6178 LP  0  0  0  0  0  0  0  0  0  0  0  0  # atno 17343 bound_to 10162
  156.2942  130.7141  151.1997 LP  0  0  0  0  0  0  0  0  0  0  0  0  # atno 17370 bound_to 10713
  157.7399  131.0523  150.5199 LP  0  0  0  0  0  0  0  0  0  0  0  0  # atno 17371 bound_to 10713
  140.0532  134.6100  155.8836 LP  0  0  0  0  0  0  0  0  0  0  0  0  # atno 17394 bound_to 11000
  141.1946  133.6584  156.5605 LP  0  0  0  0  0  0  0  0  0  0  0  0  # atno 17395 bound_to 11000

$$$$
