AV-unprocessed.smi:2473|AV-procd|sdf|9744|dock5
  -GOLD-   2272013383D 1   1.00000     0.00000
 Structure written by MMmdl.
 48 49  0  0  0  0  0  0  0  0  2 V2000
  153.1118  138.6843  154.7201 C   0  0  0  0  0  0  0  0  0  0  0  0
  151.5981  138.9419  154.7167 C   0  0  1  0  0  0  0  0  0  0  0  0
  150.8144  137.6588  155.0418 C   0  0  0  0  0  0  0  0  0  0  0  0
  149.2940  137.9072  155.0346 C   0  0  1  0  0  0  0  0  0  0  0  0
  148.5413  136.6115  155.3637 C   0  0  0  0  0  0  0  0  0  0  0  0
  148.1108  136.4097  156.4994 O   0  0  0  0  0  0  0  0  0  0  0  0
  148.4107  135.7274  154.3633 N   0  0  0  0  0  0  0  0  0  0  0  0
  147.7953  134.4092  154.4825 C   0  0  0  0  0  0  0  0  0  0  0  0
  147.8514  133.5999  153.1707 C   0  0  0  0  0  0  0  0  0  0  0  0
  146.7600  133.9386  152.1964 C   0  0  0  0  0  0  0  0  0  0  0  0
  146.6129  135.1211  151.5870 N   0  3  0  0  0  0  0  0  0  0  0  0
  145.5285  135.0985  150.7536 C   0  0  0  0  0  0  0  0  0  0  0  0
  144.9851  133.8454  150.8601 C   0  0  0  0  0  0  0  0  0  0  0  0
  145.7598  133.1547  151.7563 N   0  0  0  0  0  0  0  0  0  0  0  0
  145.5528  131.7722  152.1927 C   0  0  0  0  0  0  0  0  0  0  0  0
  148.9294  139.0372  156.0241 C   0  0  0  0  0  0  0  0  0  0  0  0
  149.6963  140.3575  155.7624 C   0  0  0  0  0  0  0  0  0  0  0  0
  149.2073  141.0348  154.4633 C   0  0  0  0  0  0  0  0  0  0  0  0
  149.4233  141.3284  156.9281 C   0  0  0  0  0  0  0  0  0  0  0  0
  151.2176  140.0683  155.7001 C   0  0  0  0  0  0  0  0  0  0  0  0
  153.4572  138.3576  155.7014 H   0  0  0  0  0  0  0  0  0  0  0  0
  153.6640  139.5866  154.4565 H   0  0  0  0  0  0  0  0  0  0  0  0
  153.3807  137.9121  153.9987 H   0  0  0  0  0  0  0  0  0  0  0  0
  151.3314  139.2559  153.7075 H   0  0  0  0  0  0  0  0  0  0  0  0
  151.0660  136.8846  154.3152 H   0  0  0  0  0  0  0  0  0  0  0  0
  151.1266  137.2795  156.0166 H   0  0  0  0  0  0  0  0  0  0  0  0
  149.0011  138.2153  154.0302 H   0  0  0  0  0  0  0  0  0  0  0  0
  148.7845  135.9784  153.4593 H   0  0  0  0  0  0  0  0  0  0  0  0
  148.2563  133.8484  155.2970 H   0  0  0  0  0  0  0  0  0  0  0  0
  146.7544  134.5652  154.7671 H   0  0  0  0  0  0  0  0  0  0  0  0
  148.8089  133.7470  152.6723 H   0  0  0  0  0  0  0  0  0  0  0  0
  147.7674  132.5329  153.3785 H   0  0  0  0  0  0  0  0  0  0  0  0
  145.2319  135.9534  150.1635 H   0  0  0  0  0  0  0  0  0  0  0  0
  144.1235  133.4062  150.3780 H   0  0  0  0  0  0  0  0  0  0  0  0
  144.7200  131.3354  151.6410 H   0  0  0  0  0  0  0  0  0  0  0  0
  145.3247  131.7618  153.2588 H   0  0  0  0  0  0  0  0  0  0  0  0
  146.4522  131.1887  152.0013 H   0  0  0  0  0  0  0  0  0  0  0  0
  147.8545  139.2227  155.9947 H   0  0  0  0  0  0  0  0  0  0  0  0
  149.1458  138.7028  157.0403 H   0  0  0  0  0  0  0  0  0  0  0  0
  149.7260  141.9787  154.2926 H   0  0  0  0  0  0  0  0  0  0  0  0
  148.1401  141.2549  154.5122 H   0  0  0  0  0  0  0  0  0  0  0  0
  149.3673  140.4183  153.5801 H   0  0  0  0  0  0  0  0  0  0  0  0
  149.9467  142.2750  156.7884 H   0  0  0  0  0  0  0  0  0  0  0  0
  149.7509  140.9124  157.8814 H   0  0  0  0  0  0  0  0  0  0  0  0
  148.3597  141.5518  157.0183 H   0  0  0  0  0  0  0  0  0  0  0  0
  151.5692  139.7894  156.6948 H   0  0  0  0  0  0  0  0  0  0  0  0
  151.7562  140.9807  155.4399 H   0  0  0  0  0  0  0  0  0  0  0  0
  147.2211  135.9184  151.7248 H   0  0  0  0  0  0  0  0  0  0  0  0
  1  2  1  0  0  0  0
  1 21  1  0  0  0  0
  1 22  1  0  0  0  0
  1 23  1  0  0  0  0
  2 20  1  0  0  0  0
  2  3  1  0  0  0  0
  2 24  1  0  0  0  0
  3  4  1  0  0  0  0
  3 25  1  0  0  0  0
  3 26  1  0  0  0  0
  4  5  1  0  0  0  0
  4 16  1  0  0  0  0
  4 27  1  0  0  0  0
  5  6  2  0  0  0  0
  5  7  1  0  0  0  0
  7  8  1  0  0  0  0
  7 28  1  0  0  0  0
  8  9  1  0  0  0  0
  8 29  1  0  0  0  0
  8 30  1  0  0  0  0
  9 10  1  0  0  0  0
  9 31  1  0  0  0  0
  9 32  1  0  0  0  0
 10 14  1  0  0  0  0
 10 11  2  0  0  0  0
 11 12  1  0  0  0  0
 11 48  1  0  0  0  0
 12 13  2  0  0  0  0
 12 33  1  0  0  0  0
 13 14  1  0  0  0  0
 13 34  1  0  0  0  0
 14 15  1  0  0  0  0
 15 35  1  0  0  0  0
 15 36  1  0  0  0  0
 15 37  1  0  0  0  0
 16 17  1  0  0  0  0
 16 38  1  0  0  0  0
 16 39  1  0  0  0  0
 17 18  1  0  0  0  0
 17 19  1  0  0  0  0
 17 20  1  0  0  0  0
 18 40  1  0  0  0  0
 18 41  1  0  0  0  0
 18 42  1  0  0  0  0
 19 43  1  0  0  0  0
 19 44  1  0  0  0  0
 19 45  1  0  0  0  0
 20 46  1  0  0  0  0
 20 47  1  0  0  0  0
M  CHG  1  11   1
M  END
> <s_m_source_file>
AV-unprocessed.smi

> <i_m_source_file_index>
2473

> <i_lp_mmshare_version>
43012

> <i_f3d_flags>
0

> <s_epik_input>
W0NIM11bQ0BASF0oW0NIMl0xKVtDSDJdW0NASF0oW0NIMl1DMShbQ0gzXSlbQ0gzXSlDKD1PKVtOSF1bQ0gyXVtDSDJdYzJuW2NIXVtjSF1uMltDSDNd

> <s_epik_cmdline>
J2VwaWtfcHl0aG9uJywgJy1waCcsICc3LjAnLCAnLXRuJywgJzgnLCAnLW1hJywgJzIwMCcsICctbWV0YWxfYmluZGluZycsICctaW1hZScsICc8aW5maWxlLm1hZT4nLCAnLW9tYWUnLCAnPG91dGZpbGUubWFlPic=

> <r_lp_tautomer_probability>
1

> <r_epik_Ionization_Penalty>
0.0796112

> <r_epik_Ionization_Penalty_Charging>
0

> <r_epik_Ionization_Penalty_Neutral>
0.0796112

> <r_epik_State_Penalty>
0.0704541

> <r_epik_Charging_Adjusted_Penalty>
0.0704541

> <i_epik_Tot_Q>
1

> <i_epik_Tot_abs_Q>
1

> <r_epik_Metal_State_Penalty>
0.409899

> <b_epik_Metal_Only>
0

> <s_lp_Force_Field>
OPLS_2005

> <r_lp_Energy>
16.0975

> <b_lp_Chiralities_Consistent>
1

> <s_lp_Variant>
AV-unprocessed.smi:2473-2

> <Gold.Version>
5.8.1

> <Gold.Id.Protein>
6NUR|6NUR_protein|mol2

> <Gold.PLP.Fitness>
40.7008

> <Gold.PLP.PLP>
-34.4477

> <Gold.PLP.part.hbond>
-2.0000

> <Gold.PLP.part.metal>
0.0000

> <Gold.PLP.part.buried>
-1.4079

> <Gold.PLP.part.nonpolar>
-29.4022

> <Gold.PLP.part.repulsive>
0.0865

> <Gold.PLP.ligand.clash>
0.0000

> <Gold.PLP.ligand.torsion>
0.7378

> <Gold.PLP.Chemscore.Hbond>
2.5680

> <Gold.PLP.Chemscore.CHOScore>
0.0000

> <Gold.PLP.Chemscore.Metal>
0.0000

> <Gold.Chemscore.Hbonds>
donor molecule, donor type, donor heavy atom, donor atom, acceptor molecule, acceptor atom, score
      L1  H     7    28       P1  7948  1.00
      L1  H    11    48       P1  7948  1.47

> <Gold.PLP.Chemscore.Internal.Correction>
0.0246

> <Gold.Rescore>
     Score         DG    S(hbond)    S(metal)    S(lipo)     H(rot)  DE(clash)    DE(int)     intcor
     16.46     -17.40       1.85        0.00      83.59       1.58       0.26       0.67       ----

> <Gold.Chemscore.Fitness>
16.4626

> <Gold.Chemscore.DG>
-17.3957

> <Gold.Chemscore.ZeroCoef>
-5.4800

> <Gold.Chemscore.Hbond>
1.8520

> <Gold.Chemscore.Metal>
0.0000

> <Gold.Chemscore.Lipo>
83.5854

> <Gold.Chemscore.Internal_Hbond>
0.0000

> <Gold.Chemscore.DEClash>
0.2583

> <Gold.Chemscore.DEInternal>
0.6748

> <Gold.Chemscore.Rot>
1.5818

> <Gold.Chemscore.Internal.Correction>
   9.000000E+99

> <Gold.Chemscore.Hbonds>
donor molecule, donor type, donor heavy atom, donor atom, acceptor molecule, acceptor atom, score
      L1  H     7    28       P1  7948  0.98
      L1  H    11    48       P1  7948  0.74

> <Gold.Chemscore.Hbond.Weighted>
-6.1856

> <Gold.Chemscore.Metal.Weighted>
-0.0000

> <Gold.Chemscore.Lipo.Weighted>
-9.7795

> <Gold.Chemscore.Internal_Hbond.Weighted>
0.0000

> <Gold.Chemscore.DEClash.Weighted>
0.2583

> <Gold.Chemscore.DEInternal.Weighted>
0.6748

> <Gold.Chemscore.Rot.Weighted>
4.0495

> <Gold.Chemscore.Internal.Correction.Weighted>
   9.000000E+99

> <Gold.Protein.RotatedTorsions>
[ 6907 6896 6895 6894 ] final  142.41 input  -60.11 | X-H torsion
[ 7974 7965 7964 7962 ] final   97.65 input  175.53 | X-H torsion
[ 8008 7997 7996 7995 ] final   14.22 input   59.86 | X-H torsion
[ 10167 10162 10161 10158 ] final   89.76 input  -65.29 | X-H torsion
[ 10718 10713 10712 10709 ] final  103.21 input   66.30 | X-H torsion
[ 10763 10752 10751 10750 ] final -118.58 input  -60.55 | X-H torsion
[ 11005 11000 10999 10996 ] final  -68.21 input  -57.11 | X-H torsion

> <Gold.Protein.ActiveResidues>
 VAL166  LYS551  ARG553  GLY616  TRP617  ASP618  TYR619  PRO620  LYS621  CYS622 
 ASP623  PHE694  ASN695  SER759  ASP760  ASP761  ALA762  ILE779  LEU786  VAL792 
 PHE793  MET794  SER795  GLU796  ALA797  LYS798  CYS799  TRP800  GLU811  SER814 

> <Gold.Protein.RotatedAtoms>
  152.2190  133.4969  159.5151 H   0  0  0  0  0  0  0  0  0  0  0  0  # atno 6907 bound_to 6896
  150.7008  134.1367  159.4099 H   0  0  0  0  0  0  0  0  0  0  0  0  # atno 6908 bound_to 6896
  151.9288  135.0266  160.0578 H   0  0  0  0  0  0  0  0  0  0  0  0  # atno 6909 bound_to 6896
  145.4226  139.2319  143.3188 H   0  0  0  0  0  0  0  0  0  0  0  0  # atno 7974 bound_to 7965
  154.8454  140.2921  155.5633 H   0  0  0  0  0  0  0  0  0  0  0  0  # atno 8008 bound_to 7997
  156.3014  140.2506  156.3335 H   0  0  0  0  0  0  0  0  0  0  0  0  # atno 8009 bound_to 7997
  154.9080  140.0389  157.1919 H   0  0  0  0  0  0  0  0  0  0  0  0  # atno 8010 bound_to 7997
  139.8540  144.6578  150.9135 H   0  0  0  0  0  0  0  0  0  0  0  0  # atno 10167 bound_to 10162
  157.6779  131.0773  150.5521 H   0  0  0  0  0  0  0  0  0  0  0  0  # atno 10718 bound_to 10713
  154.8591  135.4269  154.2161 H   0  0  0  0  0  0  0  0  0  0  0  0  # atno 10763 bound_to 10752
  153.3176  135.6980  153.7065 H   0  0  0  0  0  0  0  0  0  0  0  0  # atno 10764 bound_to 10752
  153.6133  135.3515  155.2960 H   0  0  0  0  0  0  0  0  0  0  0  0  # atno 10765 bound_to 10752
  141.1526  133.6736  156.6411 H   0  0  0  0  0  0  0  0  0  0  0  0  # atno 11005 bound_to 11000
  146.2649  140.4953  142.8838 LP  0  0  0  0  0  0  0  0  0  0  0  0  # atno 17320 bound_to 7965
  144.8235  140.6590  143.6337 LP  0  0  0  0  0  0  0  0  0  0  0  0  # atno 17321 bound_to 7965
  140.7784  143.3802  151.1491 LP  0  0  0  0  0  0  0  0  0  0  0  0  # atno 17342 bound_to 10162
  139.7437  143.8885  152.3057 LP  0  0  0  0  0  0  0  0  0  0  0  0  # atno 17343 bound_to 10162
  156.5825  130.4308  149.5971 LP  0  0  0  0  0  0  0  0  0  0  0  0  # atno 17370 bound_to 10713
  156.2649  130.6984  151.1764 LP  0  0  0  0  0  0  0  0  0  0  0  0  # atno 17371 bound_to 10713
  140.3392  134.7863  157.4385 LP  0  0  0  0  0  0  0  0  0  0  0  0  # atno 17394 bound_to 11000
  140.0952  134.5547  155.8406 LP  0  0  0  0  0  0  0  0  0  0  0  0  # atno 17395 bound_to 11000

$$$$
