AV-unprocessed.smi:2177|AV-procd|sdf|8849|dock7
  -GOLD-   2272012 43D 1   1.00000     0.00000
 Structure written by MMmdl.
 42 43  0  0  0  0  0  0  0  0  1 V2000
  152.7389  138.5714  158.2348 C   0  0  0  0  0  0  0  0  0  0  0  0
  152.3885  139.9591  158.6905 C   0  0  0  0  0  0  0  0  0  0  0  0
  153.1777  140.5805  159.5511 N   0  0  0  0  0  0  0  0  0  0  0  0
  152.5893  141.7756  159.7566 N   0  0  0  0  0  0  0  0  0  0  0  0
  153.2053  142.7211  160.6672 C   0  0  0  0  0  0  0  0  0  0  0  0
  151.4295  141.9130  159.0185 C   0  0  0  0  0  0  0  0  0  0  0  0
  150.5913  143.1496  159.0751 C   0  0  0  0  0  0  0  0  0  0  0  0
  151.2642  140.7504  158.3133 C   0  0  0  0  0  0  0  0  0  0  0  0
  150.1582  140.3684  157.3615 C   0  0  0  0  0  0  0  0  0  0  0  0
  150.7214  140.2104  155.9489 C   0  0  0  0  0  0  0  0  0  0  0  0
  151.0997  141.2008  155.3239 O   0  0  0  0  0  0  0  0  0  0  0  0
  150.7697  138.9596  155.4632 N   0  0  0  0  0  0  0  0  0  0  0  0
  151.2872  138.5684  154.1551 C   0  0  1  0  0  0  0  0  0  0  0  0
  152.6244  139.2902  153.9286 C   0  0  0  0  0  0  0  0  0  0  0  0
  151.4302  137.0343  154.0854 C   0  0  2  0  0  0  0  0  0  0  0  0
  150.1765  136.2557  154.4876 C   0  0  0  0  0  0  0  0  0  0  0  0
  150.7184  134.9115  154.9481 C   0  0  0  0  0  0  0  0  0  0  0  0
  152.2157  135.1608  155.1465 C   0  0  0  0  0  0  0  0  0  0  0  0
  152.3745  136.5678  155.0371 O   0  0  0  0  0  0  0  0  0  0  0  0
  151.9004  137.8905  158.3821 H   0  0  0  0  0  0  0  0  0  0  0  0
  153.5916  138.1678  158.7817 H   0  0  0  0  0  0  0  0  0  0  0  0
  152.9904  138.5627  157.1743 H   0  0  0  0  0  0  0  0  0  0  0  0
  153.7079  143.5022  160.0968 H   0  0  0  0  0  0  0  0  0  0  0  0
  153.9355  142.2201  161.3041 H   0  0  0  0  0  0  0  0  0  0  0  0
  152.4438  143.1753  161.3015 H   0  0  0  0  0  0  0  0  0  0  0  0
  149.8165  143.1397  158.3092 H   0  0  0  0  0  0  0  0  0  0  0  0
  151.2000  144.0405  158.9200 H   0  0  0  0  0  0  0  0  0  0  0  0
  150.1009  143.2380  160.0446 H   0  0  0  0  0  0  0  0  0  0  0  0
  149.6729  139.4377  157.6565 H   0  0  0  0  0  0  0  0  0  0  0  0
  149.3715  141.1234  157.3487 H   0  0  0  0  0  0  0  0  0  0  0  0
  150.4321  138.2154  156.0557 H   0  0  0  0  0  0  0  0  0  0  0  0
  150.5985  138.8946  153.3737 H   0  0  0  0  0  0  0  0  0  0  0  0
  153.0289  139.0790  152.9387 H   0  0  0  0  0  0  0  0  0  0  0  0
  153.3695  138.9868  154.6648 H   0  0  0  0  0  0  0  0  0  0  0  0
  152.5028  140.3712  154.0047 H   0  0  0  0  0  0  0  0  0  0  0  0
  151.7537  136.7261  153.0889 H   0  0  0  0  0  0  0  0  0  0  0  0
  149.6780  136.7504  155.3221 H   0  0  0  0  0  0  0  0  0  0  0  0
  149.4577  136.1644  153.6731 H   0  0  0  0  0  0  0  0  0  0  0  0
  150.2355  134.5928  155.8722 H   0  0  0  0  0  0  0  0  0  0  0  0
  150.5550  134.1363  154.1989 H   0  0  0  0  0  0  0  0  0  0  0  0
  152.5776  134.7994  156.1093 H   0  0  0  0  0  0  0  0  0  0  0  0
  152.7931  134.6727  154.3604 H   0  0  0  0  0  0  0  0  0  0  0  0
  1  2  1  0  0  0  0
  1 20  1  0  0  0  0
  1 21  1  0  0  0  0
  1 22  1  0  0  0  0
  2  8  1  0  0  0  0
  2  3  2  0  0  0  0
  3  4  1  0  0  0  0
  4  5  1  0  0  0  0
  4  6  1  0  0  0  0
  5 23  1  0  0  0  0
  5 24  1  0  0  0  0
  5 25  1  0  0  0  0
  6  7  1  0  0  0  0
  6  8  2  0  0  0  0
  7 26  1  0  0  0  0
  7 27  1  0  0  0  0
  7 28  1  0  0  0  0
  8  9  1  0  0  0  0
  9 10  1  0  0  0  0
  9 29  1  0  0  0  0
  9 30  1  0  0  0  0
 10 11  2  0  0  0  0
 10 12  1  0  0  0  0
 12 13  1  0  0  0  0
 12 31  1  0  0  0  0
 13 14  1  0  0  0  0
 13 15  1  0  0  0  0
 13 32  1  0  0  0  0
 14 33  1  0  0  0  0
 14 34  1  0  0  0  0
 14 35  1  0  0  0  0
 15 19  1  0  0  0  0
 15 16  1  0  0  0  0
 15 36  1  0  0  0  0
 16 17  1  0  0  0  0
 16 37  1  0  0  0  0
 16 38  1  0  0  0  0
 17 18  1  0  0  0  0
 17 39  1  0  0  0  0
 17 40  1  0  0  0  0
 18 19  1  0  0  0  0
 18 41  1  0  0  0  0
 18 42  1  0  0  0  0
M  END
> <s_m_source_file>
AV-unprocessed.smi

> <i_m_source_file_index>
2177

> <i_lp_mmshare_version>
43012

> <i_f3d_flags>
0

> <s_epik_input>
W0NIM11jMW5uKFtDSDNdKWMoW0NIM10pYzFbQ0gyXUMoPU8pW05IXVtDQEhdKFtDSDNdKVtDQEBIXTJbQ0gyXVtDSDJdW0NIMl1PMg==

> <s_epik_cmdline>
J2VwaWtfcHl0aG9uJywgJy1waCcsICc3LjAnLCAnLXRuJywgJzgnLCAnLW1hJywgJzIwMCcsICctbWV0YWxfYmluZGluZycsICctaW1hZScsICc8aW5maWxlLm1hZT4nLCAnLW9tYWUnLCAnPG91dGZpbGUubWFlPic=

> <r_lp_tautomer_probability>
1

> <r_epik_Ionization_Penalty>
0.00310467

> <r_epik_Ionization_Penalty_Charging>
0

> <r_epik_Ionization_Penalty_Neutral>
0.00310467

> <r_epik_State_Penalty>
0.00218493

> <r_epik_Charging_Adjusted_Penalty>
0.00218493

> <i_epik_Tot_Q>
0

> <i_epik_Tot_abs_Q>
0

> <r_epik_Metal_State_Penalty>
-0

> <b_epik_Metal_Only>
0

> <s_lp_Force_Field>
OPLS_2005

> <r_lp_Energy>
13.1065

> <b_lp_Chiralities_Consistent>
1

> <s_lp_Variant>
AV-unprocessed.smi:2177-2

> <Gold.Version>
5.8.1

> <Gold.Id.Protein>
6NUR|6NUR_protein|mol2

> <Gold.PLP.Fitness>
36.9842

> <Gold.PLP.PLP>
-32.0830

> <Gold.PLP.part.hbond>
-2.0000

> <Gold.PLP.part.metal>
0.0000

> <Gold.PLP.part.buried>
-4.9376

> <Gold.PLP.part.nonpolar>
-25.7747

> <Gold.PLP.part.repulsive>
0.1019

> <Gold.PLP.ligand.clash>
0.0000

> <Gold.PLP.ligand.torsion>
0.3098

> <Gold.PLP.Chemscore.Hbond>
1.8320

> <Gold.PLP.Chemscore.CHOScore>
0.0000

> <Gold.PLP.Chemscore.Metal>
0.0000

> <Gold.Chemscore.Hbonds>
donor molecule, donor type, donor heavy atom, donor atom, acceptor molecule, acceptor atom, score
      P1  H  7989  7998       L1    11  0.56

> <Gold.PLP.Chemscore.Internal.Correction>
0.0247

> <Gold.Rescore>
     Score         DG    S(hbond)    S(metal)    S(lipo)     H(rot)  DE(clash)    DE(int)     intcor
     14.26     -16.36       1.50        0.00      82.18       1.46       0.09       2.02       ----

> <Gold.Chemscore.Fitness>
14.2559

> <Gold.Chemscore.DG>
-16.3604

> <Gold.Chemscore.ZeroCoef>
-5.4800

> <Gold.Chemscore.Hbond>
1.5000

> <Gold.Chemscore.Metal>
0.0000

> <Gold.Chemscore.Lipo>
82.1775

> <Gold.Chemscore.Internal_Hbond>
0.0000

> <Gold.Chemscore.DEClash>
0.0884

> <Gold.Chemscore.DEInternal>
2.0161

> <Gold.Chemscore.Rot>
1.4627

> <Gold.Chemscore.Internal.Correction>
   9.000000E+99

> <Gold.Chemscore.Hbonds>
donor molecule, donor type, donor heavy atom, donor atom, acceptor molecule, acceptor atom, score
      P1  H  7989  7998       L1    11  0.53

> <Gold.Chemscore.Hbond.Weighted>
-5.0101

> <Gold.Chemscore.Metal.Weighted>
-0.0000

> <Gold.Chemscore.Lipo.Weighted>
-9.6148

> <Gold.Chemscore.Internal_Hbond.Weighted>
0.0000

> <Gold.Chemscore.DEClash.Weighted>
0.0884

> <Gold.Chemscore.DEInternal.Weighted>
2.0161

> <Gold.Chemscore.Rot.Weighted>
3.7445

> <Gold.Chemscore.Internal.Correction.Weighted>
   9.000000E+99

> <Gold.Protein.RotatedTorsions>
[ 6907 6896 6895 6894 ] final   -5.46 input  -60.11 | X-H torsion
[ 7974 7965 7964 7962 ] final  108.00 input  175.53 | X-H torsion
[ 8008 7997 7996 7995 ] final   44.63 input   59.86 | X-H torsion
[ 10167 10162 10161 10158 ] final   94.41 input  -65.29 | X-H torsion
[ 10718 10713 10712 10709 ] final  -50.95 input   66.30 | X-H torsion
[ 10763 10752 10751 10750 ] final  -29.92 input  -60.55 | X-H torsion
[ 11005 11000 10999 10996 ] final   29.49 input  -57.11 | X-H torsion

> <Gold.Protein.ActiveResidues>
 VAL166  LYS551  ARG553  GLY616  TRP617  ASP618  TYR619  PRO620  LYS621  CYS622 
 ASP623  PHE694  ASN695  SER759  ASP760  ASP761  ALA762  ILE779  LEU786  VAL792 
 PHE793  MET794  SER795  GLU796  ALA797  LYS798  CYS799  TRP800  GLU811  SER814 

> <Gold.Protein.RotatedAtoms>
  151.4812  135.1052  159.9777 H   0  0  0  0  0  0  0  0  0  0  0  0  # atno 6907 bound_to 6896
  152.4778  133.8177  159.7047 H   0  0  0  0  0  0  0  0  0  0  0  0  # atno 6908 bound_to 6896
  150.8828  133.7286  159.2953 H   0  0  0  0  0  0  0  0  0  0  0  0  # atno 6909 bound_to 6896
  145.2863  139.2615  143.3889 H   0  0  0  0  0  0  0  0  0  0  0  0  # atno 7974 bound_to 7965
  155.3225  140.3398  155.4241 H   0  0  0  0  0  0  0  0  0  0  0  0  # atno 8008 bound_to 7997
  156.1902  140.1695  156.8145 H   0  0  0  0  0  0  0  0  0  0  0  0  # atno 8009 bound_to 7997
  154.5433  140.0720  156.8529 H   0  0  0  0  0  0  0  0  0  0  0  0  # atno 8010 bound_to 7997
  139.8087  144.6783  150.9669 H   0  0  0  0  0  0  0  0  0  0  0  0  # atno 10167 bound_to 10162
  156.1754  130.4150  149.9585 H   0  0  0  0  0  0  0  0  0  0  0  0  # atno 10718 bound_to 10713
  153.7726  135.6911  153.4903 H   0  0  0  0  0  0  0  0  0  0  0  0  # atno 10763 bound_to 10752
  153.1864  135.4487  155.0093 H   0  0  0  0  0  0  0  0  0  0  0  0  # atno 10764 bound_to 10752
  154.8112  135.3378  154.7234 H   0  0  0  0  0  0  0  0  0  0  0  0  # atno 10765 bound_to 10752
  140.3044  134.2720  155.7747 H   0  0  0  0  0  0  0  0  0  0  0  0  # atno 11005 bound_to 11000
  146.3200  140.3343  142.8643 LP  0  0  0  0  0  0  0  0  0  0  0  0  # atno 17320 bound_to 7965
  144.9210  140.7868  143.5748 LP  0  0  0  0  0  0  0  0  0  0  0  0  # atno 17321 bound_to 7965
  140.7818  143.4207  151.0845 LP  0  0  0  0  0  0  0  0  0  0  0  0  # atno 17342 bound_to 10162
  139.7875  143.8266  152.3147 LP  0  0  0  0  0  0  0  0  0  0  0  0  # atno 17343 bound_to 10162
  156.7372  130.9066  151.3630 LP  0  0  0  0  0  0  0  0  0  0  0  0  # atno 17370 bound_to 10713
  157.6832  130.9160  150.0319 LP  0  0  0  0  0  0  0  0  0  0  0  0  # atno 17371 bound_to 10713
  141.2121  133.7667  156.9815 LP  0  0  0  0  0  0  0  0  0  0  0  0  # atno 17394 bound_to 11000
  140.1080  134.9494  157.2023 LP  0  0  0  0  0  0  0  0  0  0  0  0  # atno 17395 bound_to 11000

$$$$
