AV-unprocessed.smi:507|AV-procd|sdf|2753|dock2
  -GOLD-   2262023223D 1   1.00000     0.00000
 Structure written by MMmdl.
 34 35  0  0  0  0  0  0  0  0  2 V2000
  152.6610  143.0003  160.9751 C   0  0  0  0  0  0  0  0  0  0  0  0
  152.1488  142.5565  159.6161 C   0  0  0  0  0  0  0  0  0  0  0  0
  152.6211  141.3432  159.0665 C   0  0  0  0  0  0  0  0  0  0  0  0
  152.1701  140.8956  157.8056 C   0  0  0  0  0  0  0  0  0  0  0  0
  152.4916  139.7565  157.0874 N   0  0  0  0  0  0  0  0  0  0  0  0
  151.7509  139.9105  155.9939 C   0  0  0  0  0  0  0  0  0  0  0  0
  150.9887  141.0188  155.9167 N   0  0  0  0  0  0  0  0  0  0  0  0
  150.1105  141.4095  154.8287 C   0  0  0  0  0  0  0  0  0  0  0  0
  148.8657  140.5065  154.7294 C   0  0  1  0  0  0  0  0  0  0  0  0
  148.1097  140.8740  153.5909 O   0  0  0  0  0  0  0  0  0  0  0  0
  149.2359  139.0183  154.6204 C   0  0  0  0  0  0  0  0  0  0  0  0
  149.8197  138.7028  153.3047 N   0  3  0  0  0  0  0  0  0  0  0  0
  151.2289  141.7032  157.1029 C   0  0  0  0  0  0  0  0  0  0  0  0
  150.7498  142.9112  157.6400 C   0  0  0  0  0  0  0  0  0  0  0  0
  151.2089  143.3425  158.9020 C   0  0  0  0  0  0  0  0  0  0  0  0
  150.6849  144.6472  159.4755 C   0  0  0  0  0  0  0  0  0  0  0  0
  153.3710  142.2826  161.3869 H   0  0  0  0  0  0  0  0  0  0  0  0
  151.8363  143.0972  161.6814 H   0  0  0  0  0  0  0  0  0  0  0  0
  153.1664  143.9630  160.8970 H   0  0  0  0  0  0  0  0  0  0  0  0
  153.3362  140.7438  159.6106 H   0  0  0  0  0  0  0  0  0  0  0  0
  151.7675  139.1778  155.2002 H   0  0  0  0  0  0  0  0  0  0  0  0
  149.8207  142.4523  154.9674 H   0  0  0  0  0  0  0  0  0  0  0  0
  150.6832  141.3658  153.9014 H   0  0  0  0  0  0  0  0  0  0  0  0
  148.2459  140.6585  155.6145 H   0  0  0  0  0  0  0  0  0  0  0  0
  148.5868  140.6223  152.8144 H   0  0  0  0  0  0  0  0  0  0  0  0
  149.9348  138.7319  155.4074 H   0  0  0  0  0  0  0  0  0  0  0  0
  148.3453  138.4012  154.7450 H   0  0  0  0  0  0  0  0  0  0  0  0
  149.6319  139.4565  152.6593 H   0  0  0  0  0  0  0  0  0  0  0  0
  149.4099  137.8484  152.9547 H   0  0  0  0  0  0  0  0  0  0  0  0
  150.0343  143.5002  157.0857 H   0  0  0  0  0  0  0  0  0  0  0  0
  149.9743  145.1228  158.7990 H   0  0  0  0  0  0  0  0  0  0  0  0
  151.5039  145.3463  159.6456 H   0  0  0  0  0  0  0  0  0  0  0  0
  150.1767  144.4708  160.4237 H   0  0  0  0  0  0  0  0  0  0  0  0
  150.8175  138.5799  153.3995 H   0  0  0  0  0  0  0  0  0  0  0  0
  1  2  1  0  0  0  0
  1 17  1  0  0  0  0
  1 18  1  0  0  0  0
  1 19  1  0  0  0  0
  2 15  1  0  0  0  0
  2  3  2  0  0  0  0
  3  4  1  0  0  0  0
  3 20  1  0  0  0  0
  4 13  2  0  0  0  0
  4  5  1  0  0  0  0
  5  6  2  0  0  0  0
  6  7  1  0  0  0  0
  6 21  1  0  0  0  0
  7  8  1  0  0  0  0
  7 13  1  0  0  0  0
  8  9  1  0  0  0  0
  8 22  1  0  0  0  0
  8 23  1  0  0  0  0
  9 10  1  0  0  0  0
  9 11  1  0  0  0  0
  9 24  1  0  0  0  0
 10 25  1  0  0  0  0
 11 12  1  0  0  0  0
 11 26  1  0  0  0  0
 11 27  1  0  0  0  0
 12 28  1  0  0  0  0
 12 29  1  0  0  0  0
 12 34  1  0  0  0  0
 13 14  1  0  0  0  0
 14 15  2  0  0  0  0
 14 30  1  0  0  0  0
 15 16  1  0  0  0  0
 16 31  1  0  0  0  0
 16 32  1  0  0  0  0
 16 33  1  0  0  0  0
M  CHG  1  12   1
M  END
> <s_m_source_file>
AV-unprocessed.smi

> <i_m_source_file_index>
507

> <i_lp_mmshare_version>
43012

> <i_f3d_flags>
0

> <s_epik_input>
W0NIM11jKFtjSF0xKWMoW0NIM10pW2NIXWMoYzEyKW4oW2NIXW4yKVtDSDJdW0NASF0oW09IXSlbQ0gyXVtOSDJd

> <s_epik_cmdline>
J2VwaWtfcHl0aG9uJywgJy1waCcsICc3LjAnLCAnLXRuJywgJzgnLCAnLW1hJywgJzIwMCcsICctbWV0YWxfYmluZGluZycsICctaW1hZScsICc8aW5maWxlLm1hZT4nLCAnLW9tYWUnLCAnPG91dGZpbGUubWFlPic=

> <r_epik_Ionization_Penalty>
0.102893

> <r_epik_Ionization_Penalty_Charging>
0.0134096

> <r_epik_Ionization_Penalty_Neutral>
0.0894835

> <r_epik_State_Penalty>
0.093868

> <r_epik_Charging_Adjusted_Penalty>
0.107278

> <i_epik_Tot_Q>
1

> <i_epik_Tot_abs_Q>
1

> <r_epik_Metal_State_Penalty>
0.010477

> <b_epik_Metal_Only>
0

> <s_lp_Force_Field>
OPLS_2005

> <r_lp_Energy>
7.44215

> <b_lp_Chiralities_Consistent>
1

> <s_lp_Variant>
AV-unprocessed.smi:507-2

> <Gold.Version>
5.8.1

> <Gold.Id.Protein>
6NUR|6NUR_protein|mol2

> <Gold.PLP.Fitness>
48.9921

> <Gold.PLP.PLP>
-34.3330

> <Gold.PLP.part.hbond>
-4.0000

> <Gold.PLP.part.metal>
0.0000

> <Gold.PLP.part.buried>
-1.5587

> <Gold.PLP.part.nonpolar>
-27.9435

> <Gold.PLP.part.repulsive>
0.1022

> <Gold.PLP.ligand.clash>
0.0000

> <Gold.PLP.ligand.torsion>
0.1652

> <Gold.PLP.Chemscore.Hbond>
4.9913

> <Gold.PLP.Chemscore.CHOScore>
0.0000

> <Gold.PLP.Chemscore.Metal>
0.0000

> <Gold.Chemscore.Hbonds>
donor molecule, donor type, donor heavy atom, donor atom, acceptor molecule, acceptor atom, score
      L1  H    10    25       P1  7957  1.00
      L1  H    12    28       P1  7957  0.99
      L1  H    12    29       P1  7948  2.00
      P1  H  7997  8008       L1     5  1.00

> <Gold.PLP.Chemscore.Internal.Correction>
0.0158

> <Gold.Rescore>
     Score         DG    S(hbond)    S(metal)    S(lipo)     H(rot)  DE(clash)    DE(int)     intcor
     18.65     -21.44       3.27        0.00      92.68       2.27       1.62       1.17       ----

> <Gold.Chemscore.Fitness>
18.6478

> <Gold.Chemscore.DG>
-21.4361

> <Gold.Chemscore.ZeroCoef>
-5.4800

> <Gold.Chemscore.Hbond>
3.2718

> <Gold.Chemscore.Metal>
0.0000

> <Gold.Chemscore.Lipo>
92.6845

> <Gold.Chemscore.Internal_Hbond>
0.0000

> <Gold.Chemscore.DEClash>
1.6177

> <Gold.Chemscore.DEInternal>
1.1706

> <Gold.Chemscore.Rot>
2.2718

> <Gold.Chemscore.Internal.Correction>
   9.000000E+99

> <Gold.Chemscore.Hbonds>
donor molecule, donor type, donor heavy atom, donor atom, acceptor molecule, acceptor atom, score
      L1  H    10    25       P1  7957  0.93
      L1  H    12    28       P1  7957  0.92
      L1  H    12    29       P1  7948  0.89
      P1  H  7997  8008       L1     5  0.19

> <Gold.Chemscore.Hbond.Weighted>
-10.9280

> <Gold.Chemscore.Metal.Weighted>
-0.0000

> <Gold.Chemscore.Lipo.Weighted>
-10.8441

> <Gold.Chemscore.Internal_Hbond.Weighted>
0.0000

> <Gold.Chemscore.DEClash.Weighted>
1.6177

> <Gold.Chemscore.DEInternal.Weighted>
1.1706

> <Gold.Chemscore.Rot.Weighted>
5.8159

> <Gold.Chemscore.Internal.Correction.Weighted>
   9.000000E+99

> <Gold.Protein.RotatedTorsions>
[ 6907 6896 6895 6894 ] final  148.18 input  -60.11 | X-H torsion
[ 7974 7965 7964 7962 ] final    8.79 input  175.53 | X-H torsion
[ 8008 7997 7996 7995 ] final  -54.70 input   59.86 | X-H torsion
[ 10167 10162 10161 10158 ] final   71.69 input  -65.29 | X-H torsion
[ 10718 10713 10712 10709 ] final  165.17 input   66.30 | X-H torsion
[ 10763 10752 10751 10750 ] final -153.93 input  -60.55 | X-H torsion
[ 11005 11000 10999 10996 ] final   63.87 input  -57.11 | X-H torsion

> <Gold.Protein.ActiveResidues>
 VAL166  LYS551  ARG553  GLY616  TRP617  ASP618  TYR619  PRO620  LYS621  CYS622 
 ASP623  PHE694  ASN695  SER759  ASP760  ASP761  ALA762  ILE779  LEU786  VAL792 
 PHE793  MET794  SER795  GLU796  ALA797  LYS798  CYS799  TRP800  GLU811  SER814 

> <Gold.Protein.RotatedAtoms>
  152.1449  133.4486  159.4784 H   0  0  0  0  0  0  0  0  0  0  0  0  # atno 6907 bound_to 6896
  150.6889  134.2260  159.4424 H   0  0  0  0  0  0  0  0  0  0  0  0  # atno 6908 bound_to 6896
  152.0153  134.9853  160.0620 H   0  0  0  0  0  0  0  0  0  0  0  0  # atno 6909 bound_to 6896
  146.2412  139.9880  142.8429 H   0  0  0  0  0  0  0  0  0  0  0  0  # atno 7974 bound_to 7965
  154.4171  140.1170  156.5357 H   0  0  0  0  0  0  0  0  0  0  0  0  # atno 8008 bound_to 7997
  155.6559  140.3496  155.4746 H   0  0  0  0  0  0  0  0  0  0  0  0  # atno 8009 bound_to 7997
  155.9753  140.1149  157.0765 H   0  0  0  0  0  0  0  0  0  0  0  0  # atno 8010 bound_to 7997
  140.0434  144.5371  150.7417 H   0  0  0  0  0  0  0  0  0  0  0  0  # atno 10167 bound_to 10162
  157.0840  131.0400  151.2564 H   0  0  0  0  0  0  0  0  0  0  0  0  # atno 10718 bound_to 10713
  154.7894  135.3201  154.7812 H   0  0  0  0  0  0  0  0  0  0  0  0  # atno 10763 bound_to 10752
  153.8505  135.6862  153.4797 H   0  0  0  0  0  0  0  0  0  0  0  0  # atno 10764 bound_to 10752
  153.1558  135.4681  154.9642 H   0  0  0  0  0  0  0  0  0  0  0  0  # atno 10765 bound_to 10752
  139.9996  134.6463  155.9953 H   0  0  0  0  0  0  0  0  0  0  0  0  # atno 11005 bound_to 11000
  145.1530  140.9633  143.4422 LP  0  0  0  0  0  0  0  0  0  0  0  0  # atno 17320 bound_to 7965
  145.0187  139.3443  143.6083 LP  0  0  0  0  0  0  0  0  0  0  0  0  # atno 17321 bound_to 7965
  140.7250  143.2626  151.4152 LP  0  0  0  0  0  0  0  0  0  0  0  0  # atno 17342 bound_to 10162
  139.5999  144.1318  152.2186 LP  0  0  0  0  0  0  0  0  0  0  0  0  # atno 17343 bound_to 10162
  157.4777  130.7746  149.7383 LP  0  0  0  0  0  0  0  0  0  0  0  0  # atno 17370 bound_to 10713
  155.9916  130.3936  150.2978 LP  0  0  0  0  0  0  0  0  0  0  0  0  # atno 17371 bound_to 10713
  141.1631  133.6538  156.4387 LP  0  0  0  0  0  0  0  0  0  0  0  0  # atno 17394 bound_to 11000
  140.4753  134.6715  157.5147 LP  0  0  0  0  0  0  0  0  0  0  0  0  # atno 17395 bound_to 11000

$$$$
