AV-unprocessed.smi:3311|AV-procd|sdf|12726|dock1
  -GOLD-   2272019 63D 1   1.00000     0.00000
 Structure written by MMmdl.
 43 44  0  0  0  0  0  0  0  0  1 V2000
  146.8224  139.0516  151.2907 C   0  0  0  0  0  0  0  0  0  0  0  0
  146.3258  138.2966  152.5355 C   0  0  1  0  0  0  0  0  0  0  0  0
  146.4906  136.8570  152.3005 N   0  0  0  0  0  0  0  0  0  0  0  0
  145.6309  136.2742  151.2664 C   0  0  0  0  0  0  0  0  0  0  0  0
  145.3311  134.7786  151.5178 C   0  0  0  0  0  0  0  0  0  0  0  0
  144.6557  134.6945  152.7602 O   0  0  0  0  0  0  0  0  0  0  0  0
  144.3641  134.2594  150.4267 C   0  0  0  0  0  0  0  0  0  0  0  0
  144.0761  132.7512  150.5397 C   0  0  0  0  0  0  0  0  0  0  0  0
  145.3757  131.9349  150.5397 C   0  0  0  0  0  0  0  0  0  0  0  0
  146.3153  132.4016  151.6599 C   0  0  0  0  0  0  0  0  0  0  0  0
  146.6134  133.9081  151.5557 C   0  0  0  0  0  0  0  0  0  0  0  0
  147.0368  138.8094  153.8239 C   0  0  1  0  0  0  0  0  0  0  0  0
  148.5147  138.4111  153.9750 C   0  0  0  0  0  0  0  0  0  0  0  0
  146.8523  140.2404  154.0479 N   0  0  0  0  0  0  0  0  0  0  0  0
  147.3565  141.3042  153.3251 C   0  0  0  0  0  0  0  0  0  0  0  0
  146.9004  142.4509  153.9091 C   0  0  0  0  0  0  0  0  0  0  0  0
  146.1122  141.9841  154.9970 C   0  0  0  0  0  0  0  0  0  0  0  0
  146.0843  140.6640  155.0770 N   0  0  0  0  0  0  0  0  0  0  0  0
  146.7017  140.1285  151.4102 H   0  0  0  0  0  0  0  0  0  0  0  0
  146.2590  138.7577  150.4045 H   0  0  0  0  0  0  0  0  0  0  0  0
  147.8762  138.8559  151.0898 H   0  0  0  0  0  0  0  0  0  0  0  0
  145.2620  138.5205  152.6258 H   0  0  0  0  0  0  0  0  0  0  0  0
  147.4602  136.6609  152.0736 H   0  0  0  0  0  0  0  0  0  0  0  0
  144.6938  136.8167  151.1747 H   0  0  0  0  0  0  0  0  0  0  0  0
  146.1282  136.3738  150.3009 H   0  0  0  0  0  0  0  0  0  0  0  0
  145.0109  135.3524  153.3378 H   0  0  0  0  0  0  0  0  0  0  0  0
  143.4255  134.8147  150.4579 H   0  0  0  0  0  0  0  0  0  0  0  0
  144.7948  134.4548  149.4436 H   0  0  0  0  0  0  0  0  0  0  0  0
  143.5141  132.5474  151.4517 H   0  0  0  0  0  0  0  0  0  0  0  0
  143.4405  132.4339  149.7123 H   0  0  0  0  0  0  0  0  0  0  0  0
  145.1500  130.8748  150.6604 H   0  0  0  0  0  0  0  0  0  0  0  0
  145.8748  132.0380  149.5751 H   0  0  0  0  0  0  0  0  0  0  0  0
  145.8676  132.1801  152.6295 H   0  0  0  0  0  0  0  0  0  0  0  0
  147.2479  131.8384  151.6183 H   0  0  0  0  0  0  0  0  0  0  0  0
  147.1944  134.0883  150.6502 H   0  0  0  0  0  0  0  0  0  0  0  0
  147.2535  134.1997  152.3891 H   0  0  0  0  0  0  0  0  0  0  0  0
  146.5341  138.2988  154.6478 H   0  0  0  0  0  0  0  0  0  0  0  0
  148.6648  137.3550  153.7498 H   0  0  0  0  0  0  0  0  0  0  0  0
  148.8532  138.5788  154.9978 H   0  0  0  0  0  0  0  0  0  0  0  0
  149.1667  138.9965  153.3278 H   0  0  0  0  0  0  0  0  0  0  0  0
  147.9896  141.1583  152.4620 H   0  0  0  0  0  0  0  0  0  0  0  0
  147.0986  143.4675  153.6042 H   0  0  0  0  0  0  0  0  0  0  0  0
  145.5622  142.5613  155.7256 H   0  0  0  0  0  0  0  0  0  0  0  0
  1  2  1  0  0  0  0
  1 19  1  0  0  0  0
  1 20  1  0  0  0  0
  1 21  1  0  0  0  0
  2  3  1  0  0  0  0
  2 12  1  0  0  0  0
  2 22  1  0  0  0  0
  3  4  1  0  0  0  0
  3 23  1  0  0  0  0
  4  5  1  0  0  0  0
  4 24  1  0  0  0  0
  4 25  1  0  0  0  0
  5 11  1  0  0  0  0
  5  6  1  0  0  0  0
  5  7  1  0  0  0  0
  6 26  1  0  0  0  0
  7  8  1  0  0  0  0
  7 27  1  0  0  0  0
  7 28  1  0  0  0  0
  8  9  1  0  0  0  0
  8 29  1  0  0  0  0
  8 30  1  0  0  0  0
  9 10  1  0  0  0  0
  9 31  1  0  0  0  0
  9 32  1  0  0  0  0
 10 11  1  0  0  0  0
 10 33  1  0  0  0  0
 10 34  1  0  0  0  0
 11 35  1  0  0  0  0
 11 36  1  0  0  0  0
 12 13  1  0  0  0  0
 12 14  1  0  0  0  0
 12 37  1  0  0  0  0
 13 38  1  0  0  0  0
 13 39  1  0  0  0  0
 13 40  1  0  0  0  0
 14 18  1  0  0  0  0
 14 15  1  0  0  0  0
 15 16  2  0  0  0  0
 15 41  1  0  0  0  0
 16 17  1  0  0  0  0
 16 42  1  0  0  0  0
 17 18  2  0  0  0  0
 17 43  1  0  0  0  0
M  END
> <s_m_source_file>
AV-unprocessed.smi

> <i_m_source_file_index>
3311

> <i_lp_mmshare_version>
43012

> <i_f3d_flags>
0

> <s_epik_input>
bjFbY0hdW2NIXVtjSF1uMVtDQEBIXShbQ0gzXSlbQ0BIXShbQ0gzXSlbTkhdW0NIMl1DMihbT0hdKVtDSDJdW0NIMl1bQ0gyXVtDSDJdW0NIMl0y

> <s_epik_cmdline>
J2VwaWtfcHl0aG9uJywgJy1waCcsICc3LjAnLCAnLXRuJywgJzgnLCAnLW1hJywgJzIwMCcsICctbWV0YWxfYmluZGluZycsICctaW1hZScsICc8aW5maWxlLm1hZT4nLCAnLW9tYWUnLCAnPG91dGZpbGUubWFlPic=

> <r_lp_tautomer_probability>
1

> <r_epik_Ionization_Penalty>
2.222

> <r_epik_Ionization_Penalty_Charging>
0

> <r_epik_Ionization_Penalty_Neutral>
2.222

> <r_epik_State_Penalty>
2.36562

> <r_epik_Charging_Adjusted_Penalty>
2.36562

> <i_epik_Tot_Q>
0

> <i_epik_Tot_abs_Q>
0

> <r_epik_Metal_State_Penalty>
2.36435

> <b_epik_Metal_Only>
0

> <s_lp_Force_Field>
OPLS_2005

> <r_lp_Energy>
31.437

> <b_lp_Chiralities_Consistent>
1

> <s_lp_Variant>
AV-unprocessed.smi:3311-8

> <Gold.Version>
5.8.1

> <Gold.Id.Protein>
6NUR|6NUR_protein|mol2

> <Gold.PLP.Fitness>
41.2423

> <Gold.PLP.PLP>
-35.7175

> <Gold.PLP.part.hbond>
-1.0000

> <Gold.PLP.part.metal>
0.0000

> <Gold.PLP.part.buried>
-1.7584

> <Gold.PLP.part.nonpolar>
-32.7990

> <Gold.PLP.part.repulsive>
0.0826

> <Gold.PLP.ligand.clash>
0.0000

> <Gold.PLP.ligand.torsion>
0.3683

> <Gold.PLP.Chemscore.Hbond>
1.0000

> <Gold.PLP.Chemscore.CHOScore>
1.0000

> <Gold.PLP.Chemscore.Metal>
0.0000

> <Gold.Chemscore.Hbonds>
donor molecule, donor type, donor heavy atom, donor atom, acceptor molecule, acceptor atom, score
      L1  H     3    23       P1  7948  1.00
      L1  C    15    41       P1  7957  1.00

> <Gold.PLP.Chemscore.Internal.Correction>
0.2615

> <Gold.Rescore>
     Score         DG    S(hbond)    S(metal)    S(lipo)     H(rot)  DE(clash)    DE(int)     intcor
     14.00     -14.33       0.99        0.00      92.66       2.07       0.04       0.29       ----

> <Gold.Chemscore.Fitness>
13.9988

> <Gold.Chemscore.DG>
-14.3301

> <Gold.Chemscore.ZeroCoef>
-5.4800

> <Gold.Chemscore.Hbond>
0.9893

> <Gold.Chemscore.Metal>
0.0000

> <Gold.Chemscore.Lipo>
92.6622

> <Gold.Chemscore.Internal_Hbond>
0.0000

> <Gold.Chemscore.DEClash>
0.0415

> <Gold.Chemscore.DEInternal>
0.2898

> <Gold.Chemscore.Rot>
2.0686

> <Gold.Chemscore.Internal.Correction>
   9.000000E+99

> <Gold.Chemscore.Hbonds>
donor molecule, donor type, donor heavy atom, donor atom, acceptor molecule, acceptor atom, score
      L1  H     3    23       P1  7948  0.95

> <Gold.Chemscore.Hbond.Weighted>
-3.3044

> <Gold.Chemscore.Metal.Weighted>
-0.0000

> <Gold.Chemscore.Lipo.Weighted>
-10.8415

> <Gold.Chemscore.Internal_Hbond.Weighted>
0.0000

> <Gold.Chemscore.DEClash.Weighted>
0.0415

> <Gold.Chemscore.DEInternal.Weighted>
0.2898

> <Gold.Chemscore.Rot.Weighted>
5.2957

> <Gold.Chemscore.Internal.Correction.Weighted>
   9.000000E+99

> <Gold.Protein.RotatedTorsions>
[ 6907 6896 6895 6894 ] final  -92.38 input  -60.11 | X-H torsion
[ 7974 7965 7964 7962 ] final  -90.38 input  175.53 | X-H torsion
[ 8008 7997 7996 7995 ] final   17.65 input   59.86 | X-H torsion
[ 10167 10162 10161 10158 ] final   54.74 input  -65.29 | X-H torsion
[ 10718 10713 10712 10709 ] final -148.85 input   66.30 | X-H torsion
[ 10763 10752 10751 10750 ] final -163.51 input  -60.55 | X-H torsion
[ 11005 11000 10999 10996 ] final  131.59 input  -57.11 | X-H torsion

> <Gold.Protein.ActiveResidues>
 VAL166  LYS551  ARG553  GLY616  TRP617  ASP618  TYR619  PRO620  LYS621  CYS622 
 ASP623  PHE694  ASN695  SER759  ASP760  ASP761  ALA762  ILE779  LEU786  VAL792 
 PHE793  MET794  SER795  GLU796  ALA797  LYS798  CYS799  TRP800  GLU811  SER814 

> <Gold.Protein.RotatedAtoms>
  150.6905  134.2131  159.4366 H   0  0  0  0  0  0  0  0  0  0  0  0  # atno 6907 bound_to 6896
  152.0091  134.9883  160.0577 H   0  0  0  0  0  0  0  0  0  0  0  0  # atno 6908 bound_to 6896
  152.1505  133.4484  159.4848 H   0  0  0  0  0  0  0  0  0  0  0  0  # atno 6909 bound_to 6896
  145.4273  140.9554  143.2148 H   0  0  0  0  0  0  0  0  0  0  0  0  # atno 7974 bound_to 7965
  154.8945  140.2991  155.5352 H   0  0  0  0  0  0  0  0  0  0  0  0  # atno 8008 bound_to 7997
  156.3020  140.2418  156.3899 H   0  0  0  0  0  0  0  0  0  0  0  0  # atno 8009 bound_to 7997
  154.8584  140.0406  157.1638 H   0  0  0  0  0  0  0  0  0  0  0  0  # atno 8010 bound_to 7997
  140.2269  144.3729  150.6429 H   0  0  0  0  0  0  0  0  0  0  0  0  # atno 10167 bound_to 10162
  156.4256  130.8050  151.2275 H   0  0  0  0  0  0  0  0  0  0  0  0  # atno 10718 bound_to 10713
  154.7115  135.3007  154.9189 H   0  0  0  0  0  0  0  0  0  0  0  0  # atno 10763 bound_to 10752
  154.0089  135.6697  153.4768 H   0  0  0  0  0  0  0  0  0  0  0  0  # atno 10764 bound_to 10752
  153.0759  135.5035  154.8317 H   0  0  0  0  0  0  0  0  0  0  0  0  # atno 10765 bound_to 10752
  139.9739  134.9569  156.9461 H   0  0  0  0  0  0  0  0  0  0  0  0  # atno 11005 bound_to 11000
  144.8206  139.5799  143.6988 LP  0  0  0  0  0  0  0  0  0  0  0  0  # atno 17320 bound_to 7965
  146.2625  139.6444  142.9352 LP  0  0  0  0  0  0  0  0  0  0  0  0  # atno 17321 bound_to 7965
  140.6214  143.2177  151.6686 LP  0  0  0  0  0  0  0  0  0  0  0  0  # atno 17342 bound_to 10162
  139.5124  144.3477  152.0681 LP  0  0  0  0  0  0  0  0  0  0  0  0  # atno 17343 bound_to 10162
  157.7508  131.0214  150.3750 LP  0  0  0  0  0  0  0  0  0  0  0  0  # atno 17370 bound_to 10713
  156.4077  130.3928  149.6914 LP  0  0  0  0  0  0  0  0  0  0  0  0  # atno 17371 bound_to 10713
  140.5234  134.0884  155.7297 LP  0  0  0  0  0  0  0  0  0  0  0  0  # atno 17394 bound_to 11000
  141.1418  133.9125  157.2309 LP  0  0  0  0  0  0  0  0  0  0  0  0  # atno 17395 bound_to 11000

$$$$
