AV-unprocessed.smi:1547|AV-procd|sdf|6220|dock1
  -GOLD-   22720 6393D 1   1.00000     0.00000
 Structure written by MMmdl.
 40 41  0  0  0  0  0  0  0  0  2 V2000
  153.9873  141.8865  160.6301 C   0  0  0  0  0  0  0  0  0  0  0  0
  152.9453  142.4460  159.7071 C   0  0  0  0  0  0  0  0  0  0  0  0
  152.2401  141.7714  158.6686 C   0  0  0  0  0  0  0  0  0  0  0  0
  151.4300  142.7536  158.1673 C   0  0  0  0  0  0  0  0  0  0  0  0
  150.5252  142.6820  157.1549 N   0  0  0  0  0  0  0  0  0  0  0  0
  150.2784  141.6564  156.3211 C   0  0  0  0  0  0  0  0  0  0  0  0
  150.8723  140.5777  156.3175 O   0  0  0  0  0  0  0  0  0  0  0  0
  149.2842  141.9487  155.4700 N   0  0  0  0  0  0  0  0  0  0  0  0
  148.7825  141.0474  154.4391 C   0  0  0  0  0  0  0  0  0  0  0  0
  147.4517  141.5476  153.8463 C   0  0  0  0  0  0  0  0  0  0  0  0
  146.8106  142.5693  154.7058 N   0  3  0  0  0  0  0  0  0  0  0  0
  145.7051  143.3259  154.0674 C   0  0  0  0  0  0  0  0  0  0  0  0
  144.5649  143.4013  155.0913 C   0  0  0  0  0  0  0  0  0  0  0  0
  145.2157  143.0222  156.4173 C   0  0  0  0  0  0  0  0  0  0  0  0
  146.3039  142.0433  155.9899 C   0  0  0  0  0  0  0  0  0  0  0  0
  151.6521  143.9159  158.8719 N   0  0  0  0  0  0  0  0  0  0  0  0
  151.0396  145.2206  158.7142 C   0  0  0  0  0  0  0  0  0  0  0  0
  152.5919  143.7211  159.8223 N   0  0  0  0  0  0  0  0  0  0  0  0
  154.1491  140.8245  160.4440 H   0  0  0  0  0  0  0  0  0  0  0  0
  153.6899  141.9985  161.6729 H   0  0  0  0  0  0  0  0  0  0  0  0
  154.9424  142.3954  160.4977 H   0  0  0  0  0  0  0  0  0  0  0  0
  152.3289  140.7400  158.3621 H   0  0  0  0  0  0  0  0  0  0  0  0
  149.9643  143.5105  157.0214 H   0  0  0  0  0  0  0  0  0  0  0  0
  148.8498  142.8581  155.5356 H   0  0  0  0  0  0  0  0  0  0  0  0
  149.5357  140.9766  153.6539 H   0  0  0  0  0  0  0  0  0  0  0  0
  148.6759  140.0449  154.8568 H   0  0  0  0  0  0  0  0  0  0  0  0
  147.5957  141.9577  152.8455 H   0  0  0  0  0  0  0  0  0  0  0  0
  146.7708  140.7015  153.7421 H   0  0  0  0  0  0  0  0  0  0  0  0
  146.0674  144.3217  153.8106 H   0  0  0  0  0  0  0  0  0  0  0  0
  145.3580  142.8540  153.1466 H   0  0  0  0  0  0  0  0  0  0  0  0
  144.0888  144.3820  155.1210 H   0  0  0  0  0  0  0  0  0  0  0  0
  143.7979  142.6679  154.8390 H   0  0  0  0  0  0  0  0  0  0  0  0
  145.6656  143.9030  156.8774 H   0  0  0  0  0  0  0  0  0  0  0  0
  144.5111  142.5904  157.1288 H   0  0  0  0  0  0  0  0  0  0  0  0
  145.8662  141.0549  155.8377 H   0  0  0  0  0  0  0  0  0  0  0  0
  147.0998  141.9500  156.7294 H   0  0  0  0  0  0  0  0  0  0  0  0
  149.9540  145.1204  158.7221 H   0  0  0  0  0  0  0  0  0  0  0  0
  151.3511  145.6578  157.7655 H   0  0  0  0  0  0  0  0  0  0  0  0
  151.3372  145.8857  159.5260 H   0  0  0  0  0  0  0  0  0  0  0  0
  147.5182  143.2488  154.9453 H   0  0  0  0  0  0  0  0  0  0  0  0
  1  2  1  0  0  0  0
  1 19  1  0  0  0  0
  1 20  1  0  0  0  0
  1 21  1  0  0  0  0
  2 18  2  0  0  0  0
  2  3  1  0  0  0  0
  3  4  2  0  0  0  0
  3 22  1  0  0  0  0
  4  5  1  0  0  0  0
  4 16  1  0  0  0  0
  5  6  1  0  0  0  0
  5 23  1  0  0  0  0
  6  7  2  0  0  0  0
  6  8  1  0  0  0  0
  8  9  1  0  0  0  0
  8 24  1  0  0  0  0
  9 10  1  0  0  0  0
  9 25  1  0  0  0  0
  9 26  1  0  0  0  0
 10 11  1  0  0  0  0
 10 27  1  0  0  0  0
 10 28  1  0  0  0  0
 11 15  1  0  0  0  0
 11 12  1  0  0  0  0
 11 40  1  0  0  0  0
 12 13  1  0  0  0  0
 12 29  1  0  0  0  0
 12 30  1  0  0  0  0
 13 14  1  0  0  0  0
 13 31  1  0  0  0  0
 13 32  1  0  0  0  0
 14 15  1  0  0  0  0
 14 33  1  0  0  0  0
 14 34  1  0  0  0  0
 15 35  1  0  0  0  0
 15 36  1  0  0  0  0
 16 17  1  0  0  0  0
 16 18  1  0  0  0  0
 17 37  1  0  0  0  0
 17 38  1  0  0  0  0
 17 39  1  0  0  0  0
M  CHG  1  11   1
M  END
> <s_m_source_file>
AV-unprocessed.smi

> <i_m_source_file_index>
1547

> <i_lp_mmshare_version>
43012

> <i_f3d_flags>
0

> <s_epik_input>
W0NIM11jMVtjSF1jKG4objEpW0NIM10pW05IXUMoPU8pW05IXVtDSDJdW0NIMl1OMltDSDJdW0NIMl1bQ0gyXVtDSDJdMg==

> <s_epik_cmdline>
J2VwaWtfcHl0aG9uJywgJy1waCcsICc3LjAnLCAnLXRuJywgJzgnLCAnLW1hJywgJzIwMCcsICctbWV0YWxfYmluZGluZycsICctaW1hZScsICc8aW5maWxlLm1hZT4nLCAnLW9tYWUnLCAnPG91dGZpbGUubWFlPic=

> <r_lp_tautomer_probability>
1

> <r_epik_Ionization_Penalty>
0.00226577

> <r_epik_Ionization_Penalty_Charging>
0.00218899

> <r_epik_Ionization_Penalty_Neutral>
7.67743e-05

> <r_epik_State_Penalty>
0.00150446

> <r_epik_Charging_Adjusted_Penalty>
0.00369345

> <i_epik_Tot_Q>
1

> <i_epik_Tot_abs_Q>
1

> <r_epik_Metal_State_Penalty>
-0

> <b_epik_Metal_Only>
0

> <s_lp_Force_Field>
OPLS_2005

> <r_lp_Energy>
27.1917

> <b_lp_Chiralities_Consistent>
1

> <s_lp_Variant>
AV-unprocessed.smi:1547-1

> <Gold.Version>
5.8.1

> <Gold.Id.Protein>
6NUR|6NUR_protein|mol2

> <Gold.PLP.Fitness>
52.8514

> <Gold.PLP.PLP>
-41.7156

> <Gold.PLP.part.hbond>
-3.0000

> <Gold.PLP.part.metal>
0.0000

> <Gold.PLP.part.buried>
-7.7544

> <Gold.PLP.part.nonpolar>
-31.1713

> <Gold.PLP.part.repulsive>
0.3623

> <Gold.PLP.ligand.clash>
0.0000

> <Gold.PLP.ligand.torsion>
0.4525

> <Gold.PLP.Chemscore.Hbond>
4.0000

> <Gold.PLP.Chemscore.CHOScore>
0.0000

> <Gold.PLP.Chemscore.Metal>
0.0000

> <Gold.Chemscore.Hbonds>
donor molecule, donor type, donor heavy atom, donor atom, acceptor molecule, acceptor atom, score
      L1  H     5    23       P1  8028  0.78
      L1  H     8    24       P1  8028  1.00
      L1  H    11    40       P1  8028  1.72

> <Gold.PLP.Chemscore.Internal.Correction>
0.0408

> <Gold.Rescore>
     Score         DG    S(hbond)    S(metal)    S(lipo)     H(rot)  DE(clash)    DE(int)     intcor
     17.17     -19.21       2.50        0.00      79.03       1.52       0.45       1.58       ----

> <Gold.Chemscore.Fitness>
17.1692

> <Gold.Chemscore.DG>
-19.2053

> <Gold.Chemscore.ZeroCoef>
-5.4800

> <Gold.Chemscore.Hbond>
2.5028

> <Gold.Chemscore.Metal>
0.0000

> <Gold.Chemscore.Lipo>
79.0337

> <Gold.Chemscore.Internal_Hbond>
0.0000

> <Gold.Chemscore.DEClash>
0.4521

> <Gold.Chemscore.DEInternal>
1.5840

> <Gold.Chemscore.Rot>
1.5160

> <Gold.Chemscore.Internal.Correction>
   9.000000E+99

> <Gold.Chemscore.Hbonds>
donor molecule, donor type, donor heavy atom, donor atom, acceptor molecule, acceptor atom, score
      L1  H     5    23       P1  8028  0.74
      L1  H     8    24       P1  8028  0.98
      L1  H    11    40       P1  8028  0.25

> <Gold.Chemscore.Hbond.Weighted>
-8.3593

> <Gold.Chemscore.Metal.Weighted>
-0.0000

> <Gold.Chemscore.Lipo.Weighted>
-9.2469

> <Gold.Chemscore.Internal_Hbond.Weighted>
0.0000

> <Gold.Chemscore.DEClash.Weighted>
0.4521

> <Gold.Chemscore.DEInternal.Weighted>
1.5840

> <Gold.Chemscore.Rot.Weighted>
3.8809

> <Gold.Chemscore.Internal.Correction.Weighted>
   9.000000E+99

> <Gold.Protein.RotatedTorsions>
[ 6907 6896 6895 6894 ] final   30.18 input  -60.11 | X-H torsion
[ 7974 7965 7964 7962 ] final    0.45 input  175.53 | X-H torsion
[ 8008 7997 7996 7995 ] final -111.96 input   59.86 | X-H torsion
[ 10167 10162 10161 10158 ] final   39.60 input  -65.29 | X-H torsion
[ 10718 10713 10712 10709 ] final  -66.91 input   66.30 | X-H torsion
[ 10763 10752 10751 10750 ] final  -30.01 input  -60.55 | X-H torsion
[ 11005 11000 10999 10996 ] final   -6.14 input  -57.11 | X-H torsion

> <Gold.Protein.ActiveResidues>
 VAL166  LYS551  ARG553  GLY616  TRP617  ASP618  TYR619  PRO620  LYS621  CYS622 
 ASP623  PHE694  ASN695  SER759  ASP760  ASP761  ALA762  ILE779  LEU786  VAL792 
 PHE793  MET794  SER795  GLU796  ALA797  LYS798  CYS799  TRP800  GLU811  SER814 

> <Gold.Protein.RotatedAtoms>
  152.0422  134.9704  160.0573 H   0  0  0  0  0  0  0  0  0  0  0  0  # atno 6907 bound_to 6896
  152.1139  133.4311  159.4652 H   0  0  0  0  0  0  0  0  0  0  0  0  # atno 6908 bound_to 6896
  150.6845  134.2535  159.4563 H   0  0  0  0  0  0  0  0  0  0  0  0  # atno 6909 bound_to 6896
  146.2434  140.1136  142.8343 H   0  0  0  0  0  0  0  0  0  0  0  0  # atno 7974 bound_to 7965
  154.9979  140.0394  157.2347 H   0  0  0  0  0  0  0  0  0  0  0  0  # atno 8008 bound_to 7997
  154.7570  140.2777  155.6222 H   0  0  0  0  0  0  0  0  0  0  0  0  # atno 8009 bound_to 7997
  156.2896  140.2636  156.2338 H   0  0  0  0  0  0  0  0  0  0  0  0  # atno 8010 bound_to 7997
  140.3824  144.1962  150.6130 H   0  0  0  0  0  0  0  0  0  0  0  0  # atno 10167 bound_to 10162
  156.0586  130.4269  150.1778 H   0  0  0  0  0  0  0  0  0  0  0  0  # atno 10718 bound_to 10713
  153.7740  135.6910  153.4901 H   0  0  0  0  0  0  0  0  0  0  0  0  # atno 10763 bound_to 10752
  153.1856  135.4490  155.0082 H   0  0  0  0  0  0  0  0  0  0  0  0  # atno 10764 bound_to 10752
  154.8107  135.3376  154.7247 H   0  0  0  0  0  0  0  0  0  0  0  0  # atno 10765 bound_to 10752
  140.6988  133.9008  155.8668 H   0  0  0  0  0  0  0  0  0  0  0  0  # atno 11005 bound_to 11000
  145.0466  140.8986  143.5020 LP  0  0  0  0  0  0  0  0  0  0  0  0  # atno 17320 bound_to 7965
  145.1226  139.2684  143.5581 LP  0  0  0  0  0  0  0  0  0  0  0  0  # atno 17321 bound_to 7965
  140.4924  143.2343  151.8799 LP  0  0  0  0  0  0  0  0  0  0  0  0  # atno 17342 bound_to 10162
  139.4794  144.5151  151.8879 LP  0  0  0  0  0  0  0  0  0  0  0  0  # atno 17343 bound_to 10162
  156.9850  130.9876  151.3428 LP  0  0  0  0  0  0  0  0  0  0  0  0  # atno 17370 bound_to 10713
  157.5577  130.8224  149.8225 LP  0  0  0  0  0  0  0  0  0  0  0  0  # atno 17371 bound_to 10713
  141.0181  134.0927  157.4150 LP  0  0  0  0  0  0  0  0  0  0  0  0  # atno 17394 bound_to 11000
  139.8902  135.0111  156.6726 LP  0  0  0  0  0  0  0  0  0  0  0  0  # atno 17395 bound_to 11000

$$$$
