AV-unprocessed.smi:256|AV-procd|sdf|1958|dock6
  -GOLD-   2262021103D 1   1.00000     0.00000
 Structure written by MMmdl.
 62 65  0  0  0  0  0  0  0  0  2 V2000
  147.4071  141.5788  153.9794 C   0  0  0  0  0  0  0  0  0  0  0  0
  147.2173  140.0957  154.3299 C   0  0  0  0  0  0  0  0  0  0  0  0
  147.8751  139.1104  153.3257 C   0  0  1  0  0  0  0  0  0  0  0  0
  149.4028  139.3081  153.1638 C   0  0  0  0  0  0  0  0  0  0  0  0
  150.1469  138.7985  154.3142 N   0  0  0  0  0  0  0  0  0  0  0  0
  150.3921  139.6733  155.3270 C   0  0  0  0  0  0  0  0  0  0  0  0
  150.2712  141.0100  155.1059 N   0  0  0  0  0  0  0  0  0  0  0  0
  150.5497  141.8865  156.0742 C   0  0  0  0  0  0  0  0  0  0  0  0
  150.9582  141.6480  157.3207 N   0  0  0  0  0  0  0  0  0  0  0  0
  151.0631  140.3102  157.5596 C   0  0  0  0  0  0  0  0  0  0  0  0
  150.7927  139.2643  156.6320 C   0  0  0  0  0  0  0  0  0  0  0  0
  150.9896  138.0320  157.2445 N   0  0  0  0  0  0  0  0  0  0  0  0
  151.3718  138.3322  158.4554 C   0  0  0  0  0  0  0  0  0  0  0  0
  151.4587  139.6787  158.7259 N   0  0  0  0  0  0  0  0  0  0  0  0
  151.8676  140.2911  159.9812 C   0  0  0  0  0  0  0  0  0  0  0  0
  153.1420  141.1724  159.8674 C   0  0  0  0  0  0  0  0  0  0  0  0
  154.1380  140.4001  159.2224 O   0  0  0  0  0  0  0  0  0  0  0  0
  152.9466  142.4612  159.0390 C   0  0  0  0  0  0  0  0  0  0  0  0
  152.1254  143.5061  159.8141 C   0  0  0  0  0  0  0  0  0  0  0  0
  152.7588  143.7946  161.0557 O   0  0  0  0  0  0  0  0  0  0  0  0
  152.8428  142.6623  161.9144 C   0  0  0  0  0  0  0  0  0  0  0  0
  153.6930  141.5617  161.2536 C   0  0  0  0  0  0  0  0  0  0  0  0
  149.8650  137.3990  154.6254 C   0  0  0  0  0  0  0  0  0  0  0  0
  148.3544  137.1578  154.7982 C   0  0  0  0  0  0  0  0  0  0  0  0
  147.5881  137.6721  153.6322 N   0  3  1  0  0  0  0  0  0  0  0  0
  146.1537  137.2780  153.6865 C   0  0  0  0  0  0  0  0  0  0  0  0
  145.3667  137.6399  152.4113 C   0  0  0  0  0  0  0  0  0  0  0  0
  145.8703  136.9699  151.2629 O   0  0  0  0  0  0  0  0  0  0  0  0
  145.1942  135.7633  150.9453 C   0  0  0  0  0  0  0  0  0  0  0  0
  146.8372  142.2094  154.6620 H   0  0  0  0  0  0  0  0  0  0  0  0
  147.0640  141.7935  152.9671 H   0  0  0  0  0  0  0  0  0  0  0  0
  148.4491  141.8868  154.0563 H   0  0  0  0  0  0  0  0  0  0  0  0
  147.5812  139.9213  155.3413 H   0  0  0  0  0  0  0  0  0  0  0  0
  146.1436  139.9178  154.3677 H   0  0  0  0  0  0  0  0  0  0  0  0
  147.4486  139.3256  152.3465 H   0  0  0  0  0  0  0  0  0  0  0  0
  149.7397  138.7483  152.2903 H   0  0  0  0  0  0  0  0  0  0  0  0
  149.6358  140.3463  152.9397 H   0  0  0  0  0  0  0  0  0  0  0  0
  150.4338  142.9279  155.8114 H   0  0  0  0  0  0  0  0  0  0  0  0
  151.6104  137.5747  159.1879 H   0  0  0  0  0  0  0  0  0  0  0  0
  151.0279  140.8739  160.3588 H   0  0  0  0  0  0  0  0  0  0  0  0
  152.0255  139.4938  160.7089 H   0  0  0  0  0  0  0  0  0  0  0  0
  154.7264  140.0602  159.8792 H   0  0  0  0  0  0  0  0  0  0  0  0
  153.9201  142.8987  158.8117 H   0  0  0  0  0  0  0  0  0  0  0  0
  152.4835  142.2520  158.0746 H   0  0  0  0  0  0  0  0  0  0  0  0
  152.0539  144.4270  159.2352 H   0  0  0  0  0  0  0  0  0  0  0  0
  151.1051  143.1638  159.9875 H   0  0  0  0  0  0  0  0  0  0  0  0
  153.3014  142.9712  162.8537 H   0  0  0  0  0  0  0  0  0  0  0  0
  151.8431  142.3022  162.1597 H   0  0  0  0  0  0  0  0  0  0  0  0
  153.7528  140.6883  161.9040 H   0  0  0  0  0  0  0  0  0  0  0  0
  154.7126  141.9370  161.1514 H   0  0  0  0  0  0  0  0  0  0  0  0
  150.2371  136.7914  153.7996 H   0  0  0  0  0  0  0  0  0  0  0  0
  150.4141  137.0707  155.5088 H   0  0  0  0  0  0  0  0  0  0  0  0
  148.1783  136.0877  154.9123 H   0  0  0  0  0  0  0  0  0  0  0  0
  147.9929  137.6296  155.7123 H   0  0  0  0  0  0  0  0  0  0  0  0
  146.0955  136.2006  153.8408 H   0  0  0  0  0  0  0  0  0  0  0  0
  145.6737  137.7169  154.5609 H   0  0  0  0  0  0  0  0  0  0  0  0
  144.3067  137.4177  152.5436 H   0  0  0  0  0  0  0  0  0  0  0  0
  145.4189  138.7131  152.2300 H   0  0  0  0  0  0  0  0  0  0  0  0
  145.6024  135.3534  150.0217 H   0  0  0  0  0  0  0  0  0  0  0  0
  144.1282  135.9350  150.7913 H   0  0  0  0  0  0  0  0  0  0  0  0
  145.3203  135.0103  151.7230 H   0  0  0  0  0  0  0  0  0  0  0  0
  147.9615  137.1671  152.8410 H   0  0  0  0  0  0  0  0  0  0  0  0
  1  2  1  0  0  0  0
  1 30  1  0  0  0  0
  1 31  1  0  0  0  0
  1 32  1  0  0  0  0
  2  3  1  0  0  0  0
  2 33  1  0  0  0  0
  2 34  1  0  0  0  0
  3 25  1  0  0  0  0
  3  4  1  0  0  0  0
  3 35  1  0  0  0  0
  4  5  1  0  0  0  0
  4 36  1  0  0  0  0
  4 37  1  0  0  0  0
  5  6  1  0  0  0  0
  5 23  1  0  0  0  0
  6 11  1  0  0  0  0
  6  7  2  0  0  0  0
  7  8  1  0  0  0  0
  8  9  2  0  0  0  0
  8 38  1  0  0  0  0
  9 10  1  0  0  0  0
 10 14  1  0  0  0  0
 10 11  2  0  0  0  0
 11 12  1  0  0  0  0
 12 13  2  0  0  0  0
 13 14  1  0  0  0  0
 13 39  1  0  0  0  0
 14 15  1  0  0  0  0
 15 16  1  0  0  0  0
 15 40  1  0  0  0  0
 15 41  1  0  0  0  0
 16 22  1  0  0  0  0
 16 17  1  0  0  0  0
 16 18  1  0  0  0  0
 17 42  1  0  0  0  0
 18 19  1  0  0  0  0
 18 43  1  0  0  0  0
 18 44  1  0  0  0  0
 19 20  1  0  0  0  0
 19 45  1  0  0  0  0
 19 46  1  0  0  0  0
 20 21  1  0  0  0  0
 21 22  1  0  0  0  0
 21 47  1  0  0  0  0
 21 48  1  0  0  0  0
 22 49  1  0  0  0  0
 22 50  1  0  0  0  0
 23 24  1  0  0  0  0
 23 51  1  0  0  0  0
 23 52  1  0  0  0  0
 24 25  1  0  0  0  0
 24 53  1  0  0  0  0
 24 54  1  0  0  0  0
 25 26  1  0  0  0  0
 25 62  1  0  0  0  0
 26 27  1  0  0  0  0
 26 55  1  0  0  0  0
 26 56  1  0  0  0  0
 27 28  1  0  0  0  0
 27 57  1  0  0  0  0
 27 58  1  0  0  0  0
 28 29  1  0  0  0  0
 29 59  1  0  0  0  0
 29 60  1  0  0  0  0
 29 61  1  0  0  0  0
M  CHG  1  25   1
M  END
> <s_m_source_file>
AV-unprocessed.smi

> <i_m_source_file_index>
256

> <i_lp_mmshare_version>
43012

> <i_f3d_flags>
0

> <s_epik_input>
W0NIM11PW0NIMl1bQ0gyXU4xW0NIMl1bQ0gyXU4oW0NIMl1bQ0BIXTFbQ0gyXVtDSDNdKWMobltjSF1uMiljKGMyMyluW2NIXW4zW0NIMl1DNChbT0hdKVtDSDJdW0NIMl1PW0NIMl1bQ0gyXTQ=

> <s_epik_cmdline>
J2VwaWtfcHl0aG9uJywgJy1waCcsICc3LjAnLCAnLXRuJywgJzgnLCAnLW1hJywgJzIwMCcsICctbWV0YWxfYmluZGluZycsICctaW1hZScsICc8aW5maWxlLm1hZT4nLCAnLW9tYWUnLCAnPG91dGZpbGUubWFlPic=

> <r_lp_tautomer_probability>
1

> <r_epik_Ionization_Penalty>
0.233023

> <r_epik_Ionization_Penalty_Charging>
0.23295

> <r_epik_Ionization_Penalty_Neutral>
7.2493e-05

> <r_epik_State_Penalty>
0.223667

> <r_epik_Charging_Adjusted_Penalty>
0.456618

> <i_epik_Tot_Q>
1

> <i_epik_Tot_abs_Q>
1

> <r_epik_Metal_State_Penalty>
0.226879

> <b_epik_Metal_Only>
0

> <s_lp_Force_Field>
OPLS_2005

> <r_lp_Energy>
45.4801

> <b_lp_Chiralities_Consistent>
1

> <s_lp_Variant>
AV-unprocessed.smi:256-2

> <Gold.Version>
5.8.1

> <Gold.Id.Protein>
6NUR|6NUR_protein|mol2

> <Gold.PLP.Fitness>
50.6199

> <Gold.PLP.PLP>
-38.9434

> <Gold.PLP.part.hbond>
-3.0000

> <Gold.PLP.part.metal>
0.0000

> <Gold.PLP.part.buried>
4.8545

> <Gold.PLP.part.nonpolar>
-40.7756

> <Gold.PLP.part.repulsive>
0.6382

> <Gold.PLP.ligand.clash>
0.0000

> <Gold.PLP.ligand.torsion>
0.4808

> <Gold.PLP.Chemscore.Hbond>
3.0421

> <Gold.PLP.Chemscore.CHOScore>
1.0000

> <Gold.PLP.Chemscore.Metal>
0.0000

> <Gold.Chemscore.Hbonds>
donor molecule, donor type, donor heavy atom, donor atom, acceptor molecule, acceptor atom, score
      L1  H    25    62       P1  7948  2.00
      P1  H  7989  7998       L1     7  0.32
      P1  H  7997  8009       L1    17  0.64
      L1  C     8    38       P1  8028  1.00

> <Gold.PLP.Chemscore.Internal.Correction>
0.5119

> <Gold.Rescore>
     Score         DG    S(hbond)    S(metal)    S(lipo)     H(rot)  DE(clash)    DE(int)     intcor
     10.10     -16.40       1.44        0.00     109.99       2.65       3.29       3.01       ----

> <Gold.Chemscore.Fitness>
10.1022

> <Gold.Chemscore.DG>
-16.3983

> <Gold.Chemscore.ZeroCoef>
-5.4800

> <Gold.Chemscore.Hbond>
1.4442

> <Gold.Chemscore.Metal>
0.0000

> <Gold.Chemscore.Lipo>
109.9896

> <Gold.Chemscore.Internal_Hbond>
0.0000

> <Gold.Chemscore.DEClash>
3.2897

> <Gold.Chemscore.DEInternal>
3.0065

> <Gold.Chemscore.Rot>
2.6462

> <Gold.Chemscore.Internal.Correction>
   9.000000E+99

> <Gold.Chemscore.Hbonds>
donor molecule, donor type, donor heavy atom, donor atom, acceptor molecule, acceptor atom, score
      L1  H    25    62       P1  7948  1.00
      P1  H  7989  7998       L1     7  0.02
      P1  H  7997  8009       L1    17  0.40

> <Gold.Chemscore.Hbond.Weighted>
-4.8237

> <Gold.Chemscore.Metal.Weighted>
-0.0000

> <Gold.Chemscore.Lipo.Weighted>
-12.8688

> <Gold.Chemscore.Internal_Hbond.Weighted>
0.0000

> <Gold.Chemscore.DEClash.Weighted>
3.2897

> <Gold.Chemscore.DEInternal.Weighted>
3.0065

> <Gold.Chemscore.Rot.Weighted>
6.7742

> <Gold.Chemscore.Internal.Correction.Weighted>
   9.000000E+99

> <Gold.Protein.RotatedTorsions>
[ 6907 6896 6895 6894 ] final   55.16 input  -60.11 | X-H torsion
[ 7974 7965 7964 7962 ] final   40.23 input  175.53 | X-H torsion
[ 8008 7997 7996 7995 ] final  126.11 input   59.86 | X-H torsion
[ 10167 10162 10161 10158 ] final   47.73 input  -65.29 | X-H torsion
[ 10718 10713 10712 10709 ] final  -84.49 input   66.30 | X-H torsion
[ 10763 10752 10751 10750 ] final -125.19 input  -60.55 | X-H torsion
[ 11005 11000 10999 10996 ] final -117.54 input  -57.11 | X-H torsion

> <Gold.Protein.ActiveResidues>
 VAL166  LYS551  ARG553  GLY616  TRP617  ASP618  TYR619  PRO620  LYS621  CYS622 
 ASP623  PHE694  ASN695  SER759  ASP760  ASP761  ALA762  ILE779  LEU786  VAL792 
 PHE793  MET794  SER795  GLU796  ALA797  LYS798  CYS799  TRP800  GLU811  SER814 

> <Gold.Protein.RotatedAtoms>
  152.3511  134.7005  160.0235 H   0  0  0  0  0  0  0  0  0  0  0  0  # atno 6907 bound_to 6896
  151.7358  133.3314  159.3360 H   0  0  0  0  0  0  0  0  0  0  0  0  # atno 6908 bound_to 6896
  150.7540  134.6255  159.6203 H   0  0  0  0  0  0  0  0  0  0  0  0  # atno 6909 bound_to 6896
  146.0922  139.5558  142.9469 H   0  0  0  0  0  0  0  0  0  0  0  0  # atno 7974 bound_to 7965
  156.2854  140.2700  156.2059 H   0  0  0  0  0  0  0  0  0  0  0  0  # atno 8008 bound_to 7997
  155.0314  140.0386  157.2493 H   0  0  0  0  0  0  0  0  0  0  0  0  # atno 8009 bound_to 7997
  154.7351  140.2714  155.6427 H   0  0  0  0  0  0  0  0  0  0  0  0  # atno 8010 bound_to 7997
  140.3006  144.2939  150.6220 H   0  0  0  0  0  0  0  0  0  0  0  0  # atno 10167 bound_to 10162
  156.0006  130.4699  150.4418 H   0  0  0  0  0  0  0  0  0  0  0  0  # atno 10718 bound_to 10713
  154.8733  135.4038  154.3227 H   0  0  0  0  0  0  0  0  0  0  0  0  # atno 10763 bound_to 10752
  153.4053  135.7019  153.6402 H   0  0  0  0  0  0  0  0  0  0  0  0  # atno 10764 bound_to 10752
  153.5128  135.3704  155.2565 H   0  0  0  0  0  0  0  0  0  0  0  0  # atno 10765 bound_to 10752
  141.0348  133.9927  157.3088 H   0  0  0  0  0  0  0  0  0  0  0  0  # atno 11005 bound_to 11000
  145.6018  141.0354  143.2014 LP  0  0  0  0  0  0  0  0  0  0  0  0  # atno 17320 bound_to 7965
  144.7368  139.7562  143.7326 LP  0  0  0  0  0  0  0  0  0  0  0  0  # atno 17321 bound_to 7965
  140.5654  143.2187  151.7692 LP  0  0  0  0  0  0  0  0  0  0  0  0  # atno 17342 bound_to 10162
  139.4916  144.4291  151.9893 LP  0  0  0  0  0  0  0  0  0  0  0  0  # atno 17343 bound_to 10162
  157.2458  131.0535  151.2409 LP  0  0  0  0  0  0  0  0  0  0  0  0  # atno 17370 bound_to 10713
  157.3576  130.7114  149.6481 LP  0  0  0  0  0  0  0  0  0  0  0  0  # atno 17371 bound_to 10713
  139.9233  135.0201  156.8142 LP  0  0  0  0  0  0  0  0  0  0  0  0  # atno 17394 bound_to 11000
  140.6342  133.9877  155.7676 LP  0  0  0  0  0  0  0  0  0  0  0  0  # atno 17395 bound_to 11000

$$$$
