AV-unprocessed.smi:1561|AV-procd|sdf|6284|dock5
  -GOLD-   22720 6483D 1   1.00000     0.00000
 Structure written by MMmdl.
 33 34  0  0  0  0  0  0  0  0  1 V2000
  148.9512  141.3152  155.5373 C   0  0  0  0  0  0  0  0  0  0  0  0
  150.4427  141.2971  155.9306 C   0  0  1  0  0  0  0  0  0  0  0  0
  150.6619  141.5506  157.4302 C   0  0  0  0  0  0  0  0  0  0  0  0
  149.7159  141.5147  158.2177 O   0  0  0  0  0  0  0  0  0  0  0  0
  151.9241  141.8074  157.8098 N   0  0  0  0  0  0  0  0  0  0  0  0
  152.3642  142.0613  159.1780 C   0  0  0  0  0  0  0  0  0  0  0  0
  152.5667  143.5639  159.4492 C   0  0  2  0  0  0  0  0  0  0  0  0
  151.9251  144.0453  160.7344 C   0  0  0  0  0  0  0  0  0  0  0  0
  151.8719  145.5558  160.5203 C   0  0  0  0  0  0  0  0  0  0  0  0
  151.7660  145.7499  159.1126 O   0  0  0  0  0  0  0  0  0  0  0  0
  151.9126  144.5053  158.4365 C   0  0  0  0  0  0  0  0  0  0  0  0
  151.1092  140.0648  155.5243 N   0  0  0  0  0  0  0  0  0  0  0  0
  151.7887  139.1669  156.3226 C   0  0  0  0  0  0  0  0  0  0  0  0
  152.2102  138.1430  155.5239 C   0  0  0  0  0  0  0  0  0  0  0  0
  151.7236  138.4976  154.2353 C   0  0  0  0  0  0  0  0  0  0  0  0
  151.0591  139.6412  154.2395 N   0  0  0  0  0  0  0  0  0  0  0  0
  148.4876  142.2664  155.8012 H   0  0  0  0  0  0  0  0  0  0  0  0
  148.3845  140.5247  156.0311 H   0  0  0  0  0  0  0  0  0  0  0  0
  148.8328  141.1827  154.4616 H   0  0  0  0  0  0  0  0  0  0  0  0
  150.9234  142.1132  155.3884 H   0  0  0  0  0  0  0  0  0  0  0  0
  152.6373  141.8189  157.0953 H   0  0  0  0  0  0  0  0  0  0  0  0
  151.6667  141.6289  159.8976 H   0  0  0  0  0  0  0  0  0  0  0  0
  153.3095  141.5373  159.3207 H   0  0  0  0  0  0  0  0  0  0  0  0
  153.6348  143.7841  159.4938 H   0  0  0  0  0  0  0  0  0  0  0  0
  150.9132  143.6472  160.8266 H   0  0  0  0  0  0  0  0  0  0  0  0
  152.4847  143.7631  161.6268 H   0  0  0  0  0  0  0  0  0  0  0  0
  151.0398  146.0200  161.0501 H   0  0  0  0  0  0  0  0  0  0  0  0
  152.7953  146.0226  160.8651 H   0  0  0  0  0  0  0  0  0  0  0  0
  152.4993  144.6156  157.5243 H   0  0  0  0  0  0  0  0  0  0  0  0
  150.9204  144.1454  158.1600 H   0  0  0  0  0  0  0  0  0  0  0  0
  151.9148  139.3300  157.3829 H   0  0  0  0  0  0  0  0  0  0  0  0
  152.7751  137.2704  155.8162 H   0  0  0  0  0  0  0  0  0  0  0  0
  151.8288  137.9597  153.3047 H   0  0  0  0  0  0  0  0  0  0  0  0
  1  2  1  0  0  0  0
  1 17  1  0  0  0  0
  1 18  1  0  0  0  0
  1 19  1  0  0  0  0
  2  3  1  0  0  0  0
  2 12  1  0  0  0  0
  2 20  1  0  0  0  0
  3  4  2  0  0  0  0
  3  5  1  0  0  0  0
  5  6  1  0  0  0  0
  5 21  1  0  0  0  0
  6  7  1  0  0  0  0
  6 22  1  0  0  0  0
  6 23  1  0  0  0  0
  7 11  1  0  0  0  0
  7  8  1  0  0  0  0
  7 24  1  0  0  0  0
  8  9  1  0  0  0  0
  8 25  1  0  0  0  0
  8 26  1  0  0  0  0
  9 10  1  0  0  0  0
  9 27  1  0  0  0  0
  9 28  1  0  0  0  0
 10 11  1  0  0  0  0
 11 29  1  0  0  0  0
 11 30  1  0  0  0  0
 12 16  1  0  0  0  0
 12 13  1  0  0  0  0
 13 14  2  0  0  0  0
 13 31  1  0  0  0  0
 14 15  1  0  0  0  0
 14 32  1  0  0  0  0
 15 16  2  0  0  0  0
 15 33  1  0  0  0  0
M  END
> <s_m_source_file>
AV-unprocessed.smi

> <i_m_source_file_index>
1561

> <i_lp_mmshare_version>
43012

> <i_f3d_flags>
0

> <s_epik_input>
bjFbY0hdW2NIXVtjSF1uMVtDQEhdKFtDSDNdKUMoPU8pW05IXVtDSDJdW0NAQEhdMltDSDJdW0NIMl1PW0NIMl0y

> <s_epik_cmdline>
J2VwaWtfcHl0aG9uJywgJy1waCcsICc3LjAnLCAnLXRuJywgJzgnLCAnLW1hJywgJzIwMCcsICctbWV0YWxfYmluZGluZycsICctaW1hZScsICc8aW5maWxlLm1hZT4nLCAnLW9tYWUnLCAnPG91dGZpbGUubWFlPic=

> <r_lp_tautomer_probability>
1

> <r_epik_Ionization_Penalty>
3.82077e-05

> <r_epik_Ionization_Penalty_Charging>
0

> <r_epik_Ionization_Penalty_Neutral>
3.82077e-05

> <r_epik_State_Penalty>
-0

> <r_epik_Charging_Adjusted_Penalty>
0

> <i_epik_Tot_Q>
0

> <i_epik_Tot_abs_Q>
0

> <r_epik_Metal_State_Penalty>
-0

> <b_epik_Metal_Only>
0

> <s_lp_Force_Field>
OPLS_2005

> <r_lp_Energy>
22.8323

> <b_lp_Chiralities_Consistent>
1

> <s_lp_Variant>
AV-unprocessed.smi:1561-2

> <Gold.Version>
5.8.1

> <Gold.Id.Protein>
6NUR|6NUR_protein|mol2

> <Gold.PLP.Fitness>
38.9809

> <Gold.PLP.PLP>
-36.1228

> <Gold.PLP.part.hbond>
-2.0000

> <Gold.PLP.part.metal>
0.0000

> <Gold.PLP.part.buried>
-2.9888

> <Gold.PLP.part.nonpolar>
-31.8799

> <Gold.PLP.part.repulsive>
0.3797

> <Gold.PLP.ligand.clash>
0.0000

> <Gold.PLP.ligand.torsion>
0.9815

> <Gold.PLP.Chemscore.Hbond>
1.0000

> <Gold.PLP.Chemscore.CHOScore>
0.5684

> <Gold.PLP.Chemscore.Metal>
0.0000

> <Gold.Chemscore.Hbonds>
donor molecule, donor type, donor heavy atom, donor atom, acceptor molecule, acceptor atom, score
      P1  H  7989  7998       L1    16  1.00
      L1  C    15    33       P1  7949  0.44

> <Gold.PLP.Chemscore.Internal.Correction>
0.1161

> <Gold.Rescore>
     Score         DG    S(hbond)    S(metal)    S(lipo)     H(rot)  DE(clash)    DE(int)     intcor
     13.38     -14.61       0.79        0.00      90.78       1.61       0.21       1.02       ----

> <Gold.Chemscore.Fitness>
13.3765

> <Gold.Chemscore.DG>
-14.6099

> <Gold.Chemscore.ZeroCoef>
-5.4800

> <Gold.Chemscore.Hbond>
0.7869

> <Gold.Chemscore.Metal>
0.0000

> <Gold.Chemscore.Lipo>
90.7831

> <Gold.Chemscore.Internal_Hbond>
0.0000

> <Gold.Chemscore.DEClash>
0.2101

> <Gold.Chemscore.DEInternal>
1.0234

> <Gold.Chemscore.Rot>
1.6094

> <Gold.Chemscore.Internal.Correction>
   9.000000E+99

> <Gold.Chemscore.Hbonds>
donor molecule, donor type, donor heavy atom, donor atom, acceptor molecule, acceptor atom, score
      P1  H  7989  7998       L1    16  0.32

> <Gold.Chemscore.Hbond.Weighted>
-2.6284

> <Gold.Chemscore.Metal.Weighted>
-0.0000

> <Gold.Chemscore.Lipo.Weighted>
-10.6216

> <Gold.Chemscore.Internal_Hbond.Weighted>
0.0000

> <Gold.Chemscore.DEClash.Weighted>
0.2101

> <Gold.Chemscore.DEInternal.Weighted>
1.0234

> <Gold.Chemscore.Rot.Weighted>
4.1201

> <Gold.Chemscore.Internal.Correction.Weighted>
   9.000000E+99

> <Gold.Protein.RotatedTorsions>
[ 6907 6896 6895 6894 ] final  169.13 input  -60.11 | X-H torsion
[ 7974 7965 7964 7962 ] final  -28.05 input  175.53 | X-H torsion
[ 8008 7997 7996 7995 ] final   85.82 input   59.86 | X-H torsion
[ 10167 10162 10161 10158 ] final  141.45 input  -65.29 | X-H torsion
[ 10718 10713 10712 10709 ] final   41.18 input   66.30 | X-H torsion
[ 10763 10752 10751 10750 ] final -141.62 input  -60.55 | X-H torsion
[ 11005 11000 10999 10996 ] final  115.60 input  -57.11 | X-H torsion

> <Gold.Protein.ActiveResidues>
 VAL166  LYS551  ARG553  GLY616  TRP617  ASP618  TYR619  PRO620  LYS621  CYS622 
 ASP623  PHE694  ASN695  SER759  ASP760  ASP761  ALA762  ILE779  LEU786  VAL792 
 PHE793  MET794  SER795  GLU796  ALA797  LYS798  CYS799  TRP800  GLU811  SER814 

> <Gold.Protein.RotatedAtoms>
  151.8368  133.3417  159.3630 H   0  0  0  0  0  0  0  0  0  0  0  0  # atno 6907 bound_to 6896
  150.7247  134.5429  159.5766 H   0  0  0  0  0  0  0  0  0  0  0  0  # atno 6908 bound_to 6896
  152.2895  134.7739  160.0432 H   0  0  0  0  0  0  0  0  0  0  0  0  # atno 6909 bound_to 6896
  146.1315  140.5232  142.8691 H   0  0  0  0  0  0  0  0  0  0  0  0  # atno 7974 bound_to 7965
  155.9549  140.3398  155.6439 H   0  0  0  0  0  0  0  0  0  0  0  0  # atno 8008 bound_to 7997
  155.6873  140.0745  157.2480 H   0  0  0  0  0  0  0  0  0  0  0  0  # atno 8009 bound_to 7997
  154.4130  140.1663  156.2035 H   0  0  0  0  0  0  0  0  0  0  0  0  # atno 8010 bound_to 7997
  139.5020  144.6171  151.6139 H   0  0  0  0  0  0  0  0  0  0  0  0  # atno 10167 bound_to 10162
  157.3907  130.7805  149.7267 H   0  0  0  0  0  0  0  0  0  0  0  0  # atno 10718 bound_to 10713
  154.8539  135.3519  154.5897 H   0  0  0  0  0  0  0  0  0  0  0  0  # atno 10763 bound_to 10752
  153.6507  135.6994  153.5214 H   0  0  0  0  0  0  0  0  0  0  0  0  # atno 10764 bound_to 10752
  153.2896  135.4238  155.1113 H   0  0  0  0  0  0  0  0  0  0  0  0  # atno 10765 bound_to 10752
  139.9015  134.9586  156.7070 H   0  0  0  0  0  0  0  0  0  0  0  0  # atno 11005 bound_to 11000
  144.7695  140.5606  143.6680 LP  0  0  0  0  0  0  0  0  0  0  0  0  # atno 17320 bound_to 7965
  145.5250  139.1476  143.3531 LP  0  0  0  0  0  0  0  0  0  0  0  0  # atno 17321 bound_to 7965
  140.5862  143.9860  150.6297 LP  0  0  0  0  0  0  0  0  0  0  0  0  # atno 17342 bound_to 10162
  140.3025  143.3251  152.0957 LP  0  0  0  0  0  0  0  0  0  0  0  0  # atno 17343 bound_to 10162
  155.9797  130.4037  150.3569 LP  0  0  0  0  0  0  0  0  0  0  0  0  # atno 17370 bound_to 10713
  157.1684  131.0362  151.2807 LP  0  0  0  0  0  0  0  0  0  0  0  0  # atno 17371 bound_to 10713
  140.7105  133.9227  155.8081 LP  0  0  0  0  0  0  0  0  0  0  0  0  # atno 17394 bound_to 11000
  141.0303  134.0765  157.4021 LP  0  0  0  0  0  0  0  0  0  0  0  0  # atno 17395 bound_to 11000

$$$$
