AV-unprocessed.smi:1565|AV-procd|sdf|6300|dock5
  -GOLD-   22720 6503D 1   1.00000     0.00000
 Structure written by MMmdl.
 39 40  0  0  0  0  0  0  0  0  2 V2000
  149.8391  145.2075  160.9538 C   0  0  0  0  0  0  0  0  0  0  0  0
  150.7307  144.3394  160.0596 C   0  0  2  0  0  0  0  0  0  0  0  0
  151.8561  143.6600  160.8598 C   0  0  0  0  0  0  0  0  0  0  0  0
  152.7568  142.9460  159.9610 N   0  0  0  0  0  0  0  0  0  0  0  0
  153.6264  142.0216  160.5784 C   0  0  0  0  0  0  0  0  0  0  0  0
  153.5590  141.8090  161.9750 C   0  0  0  0  0  0  0  0  0  0  0  0
  154.4376  140.8853  162.5729 C   0  0  0  0  0  0  0  0  0  0  0  0
  155.3589  140.1845  161.7619 C   0  0  0  0  0  0  0  0  0  0  0  0
  156.3481  139.2055  162.3350 C   0  0  0  0  0  0  0  0  0  0  0  0
  157.4454  139.0971  161.7765 O   0  0  0  0  0  0  0  0  0  0  0  0
  155.8445  138.5199  163.4001 N   0  5  0  0  0  0  0  0  0  0  0  0
  155.9512  137.0689  163.5709 C   0  0  0  0  0  0  0  0  0  0  0  0
  154.5648  136.3960  163.5121 C   0  0  0  0  0  0  0  0  0  0  0  0
  153.7743  136.9494  164.4317 F   0  0  0  0  0  0  0  0  0  0  0  0
  154.0044  136.5726  162.3146 F   0  0  0  0  0  0  0  0  0  0  0  0
  154.6530  135.0895  163.7663 F   0  0  0  0  0  0  0  0  0  0  0  0
  155.3548  140.4703  160.3796 C   0  0  0  0  0  0  0  0  0  0  0  0
  154.5136  141.3541  159.8009 N   0  0  0  0  0  0  0  0  0  0  0  0
  153.2955  143.7904  158.8973 C   0  0  0  0  0  0  0  0  0  0  0  0
  152.1648  144.5090  158.1352 C   0  0  1  0  0  0  0  0  0  0  0  0
  151.3936  143.5891  157.1717 C   0  0  0  0  0  0  0  0  0  0  0  0
  151.2973  145.1780  159.0535 O   0  0  0  0  0  0  0  0  0  0  0  0
  149.3704  144.6119  161.7375 H   0  0  0  0  0  0  0  0  0  0  0  0
  149.0443  145.6764  160.3731 H   0  0  0  0  0  0  0  0  0  0  0  0
  150.4135  146.0005  161.4334 H   0  0  0  0  0  0  0  0  0  0  0  0
  150.1028  143.5790  159.5949 H   0  0  0  0  0  0  0  0  0  0  0  0
  152.4318  144.4071  161.4079 H   0  0  0  0  0  0  0  0  0  0  0  0
  151.4155  142.9956  161.6019 H   0  0  0  0  0  0  0  0  0  0  0  0
  152.8416  142.3315  162.5901 H   0  0  0  0  0  0  0  0  0  0  0  0
  154.3965  140.7263  163.6408 H   0  0  0  0  0  0  0  0  0  0  0  0
  156.6026  136.6123  162.8238 H   0  0  0  0  0  0  0  0  0  0  0  0
  156.4126  136.8311  164.5300 H   0  0  0  0  0  0  0  0  0  0  0  0
  156.0417  139.9744  159.7092 H   0  0  0  0  0  0  0  0  0  0  0  0
  153.9639  144.5291  159.3423 H   0  0  0  0  0  0  0  0  0  0  0  0
  153.8891  143.1979  158.1999 H   0  0  0  0  0  0  0  0  0  0  0  0
  152.6210  145.2894  157.5255 H   0  0  0  0  0  0  0  0  0  0  0  0
  152.0562  143.1987  156.3991 H   0  0  0  0  0  0  0  0  0  0  0  0
  150.5909  144.1330  156.6736 H   0  0  0  0  0  0  0  0  0  0  0  0
  150.9531  142.7320  157.6806 H   0  0  0  0  0  0  0  0  0  0  0  0
  1  2  1  0  0  0  0
  1 23  1  0  0  0  0
  1 24  1  0  0  0  0
  1 25  1  0  0  0  0
  2 22  1  0  0  0  0
  2  3  1  0  0  0  0
  2 26  1  0  0  0  0
  3  4  1  0  0  0  0
  3 27  1  0  0  0  0
  3 28  1  0  0  0  0
  4  5  1  0  0  0  0
  4 19  1  0  0  0  0
  5 18  1  0  0  0  0
  5  6  2  0  0  0  0
  6  7  1  0  0  0  0
  6 29  1  0  0  0  0
  7  8  2  0  0  0  0
  7 30  1  0  0  0  0
  8  9  1  0  0  0  0
  8 17  1  0  0  0  0
  9 10  2  0  0  0  0
  9 11  1  0  0  0  0
 11 12  1  0  0  0  0
 12 13  1  0  0  0  0
 12 31  1  0  0  0  0
 12 32  1  0  0  0  0
 13 14  1  0  0  0  0
 13 15  1  0  0  0  0
 13 16  1  0  0  0  0
 17 18  2  0  0  0  0
 17 33  1  0  0  0  0
 19 20  1  0  0  0  0
 19 34  1  0  0  0  0
 19 35  1  0  0  0  0
 20 21  1  0  0  0  0
 20 22  1  0  0  0  0
 20 36  1  0  0  0  0
 21 37  1  0  0  0  0
 21 38  1  0  0  0  0
 21 39  1  0  0  0  0
M  CHG  1  11  -1
M  END
> <s_m_source_file>
AV-unprocessed.smi

> <i_m_source_file_index>
1565

> <i_lp_mmshare_version>
43012

> <i_f3d_flags>
0

> <s_epik_input>
W0NIM11bQ0BASF0xW0NIMl1OKFtDSDJdW0NASF0oTzEpW0NIM10pYzJbY0hdW2NIXWMoW2NIXW4yKUMoPU8pW05IXVtDSDJdQyhGKShGKUY=

> <s_epik_cmdline>
J2VwaWtfcHl0aG9uJywgJy1waCcsICc3LjAnLCAnLXRuJywgJzgnLCAnLW1hJywgJzIwMCcsICctbWV0YWxfYmluZGluZycsICctaW1hZScsICc8aW5maWxlLm1hZT4nLCAnLW9tYWUnLCAnPG91dGZpbGUubWFlPic=

> <r_lp_tautomer_probability>
1

> <r_epik_Ionization_Penalty>
6.78525

> <r_epik_Ionization_Penalty_Charging>
6.78469

> <r_epik_Ionization_Penalty_Neutral>
0.000559052

> <r_epik_State_Penalty>
6.78469

> <r_epik_Charging_Adjusted_Penalty>
13.5694

> <i_epik_Tot_Q>
-1

> <i_epik_Tot_abs_Q>
1

> <r_epik_Metal_State_Penalty>
2.70441

> <b_epik_Metal_Only>
1

> <s_lp_Force_Field>
OPLS_2005

> <r_lp_Energy>
29.3636

> <b_lp_Chiralities_Consistent>
1

> <s_lp_Variant>
AV-unprocessed.smi:1565-4

> <Gold.Version>
5.8.1

> <Gold.Id.Protein>
6NUR|6NUR_protein|mol2

> <Gold.PLP.Fitness>
40.9723

> <Gold.PLP.PLP>
-42.8919

> <Gold.PLP.part.hbond>
0.0000

> <Gold.PLP.part.metal>
0.0000

> <Gold.PLP.part.buried>
-1.1134

> <Gold.PLP.part.nonpolar>
-40.7923

> <Gold.PLP.part.repulsive>
0.1289

> <Gold.PLP.ligand.clash>
0.0000

> <Gold.PLP.ligand.torsion>
1.1285

> <Gold.PLP.Chemscore.Hbond>
0.0000

> <Gold.PLP.Chemscore.CHOScore>
0.0000

> <Gold.PLP.Chemscore.Metal>
0.0000

> <Gold.PLP.Chemscore.Internal.Correction>
0.3374

> <Gold.Rescore>
     Score         DG    S(hbond)    S(metal)    S(lipo)     H(rot)  DE(clash)    DE(int)     intcor
     13.62     -15.27       0.00        0.00     111.93       1.29       0.70       0.95       ----

> <Gold.Chemscore.Fitness>
13.6194

> <Gold.Chemscore.DG>
-15.2678

> <Gold.Chemscore.ZeroCoef>
-5.4800

> <Gold.Chemscore.Hbond>
0.0001

> <Gold.Chemscore.Metal>
0.0000

> <Gold.Chemscore.Lipo>
111.9263

> <Gold.Chemscore.Internal_Hbond>
0.0000

> <Gold.Chemscore.DEClash>
0.7006

> <Gold.Chemscore.DEInternal>
0.9477

> <Gold.Chemscore.Rot>
1.2921

> <Gold.Chemscore.Internal.Correction>
   9.000000E+99

> <Gold.Chemscore.Hbond.Weighted>
-0.0002

> <Gold.Chemscore.Metal.Weighted>
-0.0000

> <Gold.Chemscore.Lipo.Weighted>
-13.0954

> <Gold.Chemscore.Internal_Hbond.Weighted>
0.0000

> <Gold.Chemscore.DEClash.Weighted>
0.7006

> <Gold.Chemscore.DEInternal.Weighted>
0.9477

> <Gold.Chemscore.Rot.Weighted>
3.3078

> <Gold.Chemscore.Internal.Correction.Weighted>
   9.000000E+99

> <Gold.Protein.RotatedTorsions>
[ 6907 6896 6895 6894 ] final  -54.90 input  -60.11 | X-H torsion
[ 7974 7965 7964 7962 ] final  -62.37 input  175.53 | X-H torsion
[ 8008 7997 7996 7995 ] final   19.92 input   59.86 | X-H torsion
[ 10167 10162 10161 10158 ] final  104.20 input  -65.29 | X-H torsion
[ 10718 10713 10712 10709 ] final   65.60 input   66.30 | X-H torsion
[ 10763 10752 10751 10750 ] final  114.61 input  -60.55 | X-H torsion
[ 11005 11000 10999 10996 ] final   67.17 input  -57.11 | X-H torsion

> <Gold.Protein.ActiveResidues>
 VAL166  LYS551  ARG553  GLY616  TRP617  ASP618  TYR619  PRO620  LYS621  CYS622 
 ASP623  PHE694  ASN695  SER759  ASP760  ASP761  ALA762  ILE779  LEU786  VAL792 
 PHE793  MET794  SER795  GLU796  ALA797  LYS798  CYS799  TRP800  GLU811  SER814 

> <Gold.Protein.RotatedAtoms>
  150.8298  134.7546  159.6843 H   0  0  0  0  0  0  0  0  0  0  0  0  # atno 6907 bound_to 6896
  152.4404  134.5599  159.9901 H   0  0  0  0  0  0  0  0  0  0  0  0  # atno 6908 bound_to 6896
  151.5762  133.3346  159.3035 H   0  0  0  0  0  0  0  0  0  0  0  0  # atno 6909 bound_to 6896
  145.7921  140.8703  143.0275 H   0  0  0  0  0  0  0  0  0  0  0  0  # atno 7974 bound_to 7965
  154.9279  140.3036  155.5183 H   0  0  0  0  0  0  0  0  0  0  0  0  # atno 8008 bound_to 7997
  156.3005  140.2359  156.4272 H   0  0  0  0  0  0  0  0  0  0  0  0  # atno 8009 bound_to 7997
  154.8266  140.0420  157.1437 H   0  0  0  0  0  0  0  0  0  0  0  0  # atno 8010 bound_to 7997
  139.7198  144.7060  151.0891 H   0  0  0  0  0  0  0  0  0  0  0  0  # atno 10167 bound_to 10162
  157.6116  130.9223  149.9999 H   0  0  0  0  0  0  0  0  0  0  0  0  # atno 10718 bound_to 10713
  153.5098  135.3620  155.2581 H   0  0  0  0  0  0  0  0  0  0  0  0  # atno 10763 bound_to 10752
  154.8743  135.4020  154.3382 H   0  0  0  0  0  0  0  0  0  0  0  0  # atno 10764 bound_to 10752
  153.4033  135.7075  153.6477 H   0  0  0  0  0  0  0  0  0  0  0  0  # atno 10765 bound_to 10752
  139.9787  134.6780  156.0304 H   0  0  0  0  0  0  0  0  0  0  0  0  # atno 11005 bound_to 11000
  144.6780  140.0139  143.7484 LP  0  0  0  0  0  0  0  0  0  0  0  0  # atno 17320 bound_to 7965
  145.9965  139.3057  143.0953 LP  0  0  0  0  0  0  0  0  0  0  0  0  # atno 17321 bound_to 7965
  140.7751  143.5182  150.9569 LP  0  0  0  0  0  0  0  0  0  0  0  0  # atno 17342 bound_to 10162
  139.8868  143.7003  152.3150 LP  0  0  0  0  0  0  0  0  0  0  0  0  # atno 17343 bound_to 10162
  156.1221  130.3645  149.9870 LP  0  0  0  0  0  0  0  0  0  0  0  0  # atno 17370 bound_to 10713
  156.7948  130.9269  151.3646 LP  0  0  0  0  0  0  0  0  0  0  0  0  # atno 17371 bound_to 10713
  141.1461  133.6556  156.3873 LP  0  0  0  0  0  0  0  0  0  0  0  0  # atno 17394 bound_to 11000
  140.5141  134.6367  157.5295 LP  0  0  0  0  0  0  0  0  0  0  0  0  # atno 17395 bound_to 11000

$$$$
