AV-unprocessed.smi:1191|AV-procd|sdf|4986|dock2
  -GOLD-   22720 3583D 1   1.00000     0.00000
 Structure written by MMmdl.
 47 48  0  0  0  0  0  0  0  0  2 V2000
  147.6111  141.0222  154.0124 C   0  0  0  0  0  0  0  0  0  0  0  0
  148.8841  140.4044  154.5111 C   0  0  0  0  0  0  0  0  0  0  0  0
  149.7649  140.8899  155.5177 C   0  0  0  0  0  0  0  0  0  0  0  0
  150.7575  139.9527  155.5790 C   0  0  0  0  0  0  0  0  0  0  0  0
  151.9731  139.8918  156.4447 C   0  0  0  0  0  0  0  0  0  0  0  0
  150.4499  138.9809  154.6432 N   0  0  0  0  0  0  0  0  0  0  0  0
  151.1736  137.7632  154.3118 C   0  0  0  0  0  0  0  0  0  0  0  0
  150.5683  136.5506  155.0202 C   0  0  0  0  0  0  0  0  0  0  0  0
  151.1861  135.9938  155.9274 O   0  0  0  0  0  0  0  0  0  0  0  0
  149.3567  136.1546  154.6004 N   0  0  0  0  0  0  0  0  0  0  0  0
  148.5996  135.0421  155.1594 C   0  0  0  0  0  0  0  0  0  0  0  0
  148.4726  133.8855  154.1498 C   0  0  0  0  0  0  0  0  0  0  0  0
  147.4954  134.1859  153.0741 N   0  3  1  0  0  0  0  0  0  0  0  0
  147.3804  133.0795  152.0895 C   0  0  0  0  0  0  0  0  0  0  0  0
  146.4892  133.4846  150.9047 C   0  0  0  0  0  0  0  0  0  0  0  0
  145.1048  133.9422  151.3857 C   0  0  0  0  0  0  0  0  0  0  0  0
  145.2196  135.0437  152.4561 C   0  0  2  0  0  0  0  0  0  0  0  0
  145.6238  136.4075  151.8693 C   0  0  0  0  0  0  0  0  0  0  0  0
  146.1623  134.5972  153.5925 C   0  0  0  0  0  0  0  0  0  0  0  0
  149.2987  139.2602  153.9929 N   0  0  0  0  0  0  0  0  0  0  0  0
  147.4367  141.9940  154.4744 H   0  0  0  0  0  0  0  0  0  0  0  0
  146.7532  140.3888  154.2389 H   0  0  0  0  0  0  0  0  0  0  0  0
  147.6419  141.1698  152.9325 H   0  0  0  0  0  0  0  0  0  0  0  0
  149.6807  141.7913  156.1066 H   0  0  0  0  0  0  0  0  0  0  0  0
  152.0188  140.7524  157.1125 H   0  0  0  0  0  0  0  0  0  0  0  0
  152.8810  139.8884  155.8412 H   0  0  0  0  0  0  0  0  0  0  0  0
  151.9691  138.9914  157.0592 H   0  0  0  0  0  0  0  0  0  0  0  0
  151.1537  137.6101  153.2314 H   0  0  0  0  0  0  0  0  0  0  0  0
  152.2202  137.8809  154.5947 H   0  0  0  0  0  0  0  0  0  0  0  0
  148.9248  136.6736  153.8488 H   0  0  0  0  0  0  0  0  0  0  0  0
  149.1187  134.7185  156.0606 H   0  0  0  0  0  0  0  0  0  0  0  0
  147.6126  135.3848  155.4754 H   0  0  0  0  0  0  0  0  0  0  0  0
  149.4525  133.7135  153.7021 H   0  0  0  0  0  0  0  0  0  0  0  0
  148.1994  132.9564  154.6525 H   0  0  0  0  0  0  0  0  0  0  0  0
  148.3689  132.8133  151.7128 H   0  0  0  0  0  0  0  0  0  0  0  0
  146.9776  132.1925  152.5811 H   0  0  0  0  0  0  0  0  0  0  0  0
  146.9703  134.2828  150.3386 H   0  0  0  0  0  0  0  0  0  0  0  0
  146.3829  132.6451  150.2172 H   0  0  0  0  0  0  0  0  0  0  0  0
  144.5051  134.2868  150.5427 H   0  0  0  0  0  0  0  0  0  0  0  0
  144.5753  133.0867  151.8072 H   0  0  0  0  0  0  0  0  0  0  0  0
  144.2275  135.1785  152.8891 H   0  0  0  0  0  0  0  0  0  0  0  0
  146.6214  136.3841  151.4309 H   0  0  0  0  0  0  0  0  0  0  0  0
  145.6220  137.1797  152.6392 H   0  0  0  0  0  0  0  0  0  0  0  0
  144.9268  136.7212  151.0916 H   0  0  0  0  0  0  0  0  0  0  0  0
  145.7174  133.7587  154.1310 H   0  0  0  0  0  0  0  0  0  0  0  0
  146.2629  135.4068  154.3146 H   0  0  0  0  0  0  0  0  0  0  0  0
  147.8695  134.9738  152.5645 H   0  0  0  0  0  0  0  0  0  0  0  0
  1  2  1  0  0  0  0
  1 21  1  0  0  0  0
  1 22  1  0  0  0  0
  1 23  1  0  0  0  0
  2 20  2  0  0  0  0
  2  3  1  0  0  0  0
  3  4  2  0  0  0  0
  3 24  1  0  0  0  0
  4  5  1  0  0  0  0
  4  6  1  0  0  0  0
  5 25  1  0  0  0  0
  5 26  1  0  0  0  0
  5 27  1  0  0  0  0
  6  7  1  0  0  0  0
  6 20  1  0  0  0  0
  7  8  1  0  0  0  0
  7 28  1  0  0  0  0
  7 29  1  0  0  0  0
  8  9  2  0  0  0  0
  8 10  1  0  0  0  0
 10 11  1  0  0  0  0
 10 30  1  0  0  0  0
 11 12  1  0  0  0  0
 11 31  1  0  0  0  0
 11 32  1  0  0  0  0
 12 13  1  0  0  0  0
 12 33  1  0  0  0  0
 12 34  1  0  0  0  0
 13 19  1  0  0  0  0
 13 14  1  0  0  0  0
 13 47  1  0  0  0  0
 14 15  1  0  0  0  0
 14 35  1  0  0  0  0
 14 36  1  0  0  0  0
 15 16  1  0  0  0  0
 15 37  1  0  0  0  0
 15 38  1  0  0  0  0
 16 17  1  0  0  0  0
 16 39  1  0  0  0  0
 16 40  1  0  0  0  0
 17 18  1  0  0  0  0
 17 19  1  0  0  0  0
 17 41  1  0  0  0  0
 18 42  1  0  0  0  0
 18 43  1  0  0  0  0
 18 44  1  0  0  0  0
 19 45  1  0  0  0  0
 19 46  1  0  0  0  0
M  CHG  1  13   1
M  END
> <s_m_source_file>
AV-unprocessed.smi

> <i_m_source_file_index>
1191

> <i_lp_mmshare_version>
43012

> <i_f3d_flags>
0

> <s_epik_input>
W0NIM11jMVtjSF1jKFtDSDNdKW4objEpW0NIMl1DKD1PKVtOSF1bQ0gyXVtDSDJdTjJbQ0gyXVtDSDJdW0NIMl1bQ0BASF0oW0NIM10pW0NIMl0y

> <s_epik_cmdline>
J2VwaWtfcHl0aG9uJywgJy1waCcsICc3LjAnLCAnLXRuJywgJzgnLCAnLW1hJywgJzIwMCcsICctbWV0YWxfYmluZGluZycsICctaW1hZScsICc8aW5maWxlLm1hZT4nLCAnLW9tYWUnLCAnPG91dGZpbGUubWFlPic=

> <r_lp_tautomer_probability>
1

> <r_epik_Ionization_Penalty>
0.00249932

> <r_epik_Ionization_Penalty_Charging>
0.00230623

> <r_epik_Ionization_Penalty_Neutral>
0.000193092

> <r_epik_State_Penalty>
-0

> <r_epik_Charging_Adjusted_Penalty>
0.00230623

> <i_epik_Tot_Q>
1

> <i_epik_Tot_abs_Q>
1

> <r_epik_Metal_State_Penalty>
-0

> <b_epik_Metal_Only>
0

> <s_lp_Force_Field>
OPLS_2005

> <r_lp_Energy>
16.3649

> <b_lp_Chiralities_Consistent>
1

> <s_lp_Variant>
AV-unprocessed.smi:1191-3

> <Gold.Version>
5.8.1

> <Gold.Id.Protein>
6NUR|6NUR_protein|mol2

> <Gold.PLP.Fitness>
45.6002

> <Gold.PLP.PLP>
-36.0059

> <Gold.PLP.part.hbond>
-3.0000

> <Gold.PLP.part.metal>
0.0000

> <Gold.PLP.part.buried>
-2.1750

> <Gold.PLP.part.nonpolar>
-32.8235

> <Gold.PLP.part.repulsive>
2.2757

> <Gold.PLP.ligand.clash>
0.0000

> <Gold.PLP.ligand.torsion>
0.4851

> <Gold.PLP.Chemscore.Hbond>
3.5120

> <Gold.PLP.Chemscore.CHOScore>
0.0000

> <Gold.PLP.Chemscore.Metal>
0.0000

> <Gold.Chemscore.Hbonds>
donor molecule, donor type, donor heavy atom, donor atom, acceptor molecule, acceptor atom, score
      L1  H    10    30       P1  7948  0.53
      L1  H    13    47       P1  7948  2.00
      P1  H 10752 10765       L1     9  0.44

> <Gold.PLP.Chemscore.Internal.Correction>
0.0285

> <Gold.Rescore>
     Score         DG    S(hbond)    S(metal)    S(lipo)     H(rot)  DE(clash)    DE(int)     intcor
     15.54     -16.36       1.69        0.00      81.11       1.67       0.20       0.62       ----

> <Gold.Chemscore.Fitness>
15.5356

> <Gold.Chemscore.DG>
-16.3552

> <Gold.Chemscore.ZeroCoef>
-5.4800

> <Gold.Chemscore.Hbond>
1.6913

> <Gold.Chemscore.Metal>
0.0000

> <Gold.Chemscore.Lipo>
81.1148

> <Gold.Chemscore.Internal_Hbond>
0.0000

> <Gold.Chemscore.DEClash>
0.2024

> <Gold.Chemscore.DEInternal>
0.6171

> <Gold.Chemscore.Rot>
1.6657

> <Gold.Chemscore.Internal.Correction>
   9.000000E+99

> <Gold.Chemscore.Hbonds>
donor molecule, donor type, donor heavy atom, donor atom, acceptor molecule, acceptor atom, score
      L1  H    10    30       P1  7948  0.51
      L1  H    13    47       P1  7948  0.93
      P1  H 10752 10765       L1     9  0.05

> <Gold.Chemscore.Hbond.Weighted>
-5.6488

> <Gold.Chemscore.Metal.Weighted>
-0.0000

> <Gold.Chemscore.Lipo.Weighted>
-9.4904

> <Gold.Chemscore.Internal_Hbond.Weighted>
0.0000

> <Gold.Chemscore.DEClash.Weighted>
0.2024

> <Gold.Chemscore.DEInternal.Weighted>
0.6171

> <Gold.Chemscore.Rot.Weighted>
4.2641

> <Gold.Chemscore.Internal.Correction.Weighted>
   9.000000E+99

> <Gold.Protein.RotatedTorsions>
[ 6907 6896 6895 6894 ] final  -53.36 input  -60.11 | X-H torsion
[ 7974 7965 7964 7962 ] final   62.24 input  175.53 | X-H torsion
[ 8008 7997 7996 7995 ] final -168.04 input   59.86 | X-H torsion
[ 10167 10162 10161 10158 ] final  -51.62 input  -65.29 | X-H torsion
[ 10718 10713 10712 10709 ] final  153.02 input   66.30 | X-H torsion
[ 10763 10752 10751 10750 ] final -173.89 input  -60.55 | X-H torsion
[ 11005 11000 10999 10996 ] final -164.60 input  -57.11 | X-H torsion

> <Gold.Protein.ActiveResidues>
 VAL166  LYS551  ARG553  GLY616  TRP617  ASP618  TYR619  PRO620  LYS621  CYS622 
 ASP623  PHE694  ASN695  SER759  ASP760  ASP761  ALA762  ILE779  LEU786  VAL792 
 PHE793  MET794  SER795  GLU796  ALA797  LYS798  CYS799  TRP800  GLU811  SER814 

> <Gold.Protein.RotatedAtoms>
  150.8433  134.7733  159.6950 H   0  0  0  0  0  0  0  0  0  0  0  0  # atno 6907 bound_to 6896
  152.4516  134.5378  159.9840 H   0  0  0  0  0  0  0  0  0  0  0  0  # atno 6908 bound_to 6896
  151.5514  133.3379  159.2989 H   0  0  0  0  0  0  0  0  0  0  0  0  # atno 6909 bound_to 6896
  145.8756  139.3408  143.0736 H   0  0  0  0  0  0  0  0  0  0  0  0  # atno 7974 bound_to 7965
  155.8860  140.1017  157.1452 H   0  0  0  0  0  0  0  0  0  0  0  0  # atno 8008 bound_to 7997
  154.4010  140.1320  156.4320 H   0  0  0  0  0  0  0  0  0  0  0  0  # atno 8009 bound_to 7997
  155.7588  140.3463  155.5190 H   0  0  0  0  0  0  0  0  0  0  0  0  # atno 8010 bound_to 7997
  140.6579  143.2613  151.4530 H   0  0  0  0  0  0  0  0  0  0  0  0  # atno 10167 bound_to 10162
  157.2503  131.0777  151.1734 H   0  0  0  0  0  0  0  0  0  0  0  0  # atno 10718 bound_to 10713
  154.6026  135.2856  155.0519 H   0  0  0  0  0  0  0  0  0  0  0  0  # atno 10763 bound_to 10752
  154.1778  135.6462  153.5030 H   0  0  0  0  0  0  0  0  0  0  0  0  # atno 10764 bound_to 10752
  153.0163  135.5416  154.6750 H   0  0  0  0  0  0  0  0  0  0  0  0  # atno 10765 bound_to 10752
  140.5850  134.5102  157.5184 H   0  0  0  0  0  0  0  0  0  0  0  0  # atno 11005 bound_to 11000
  145.9085  140.9196  143.0466 LP  0  0  0  0  0  0  0  0  0  0  0  0  # atno 17320 bound_to 7965
  144.6726  140.1128  143.7454 LP  0  0  0  0  0  0  0  0  0  0  0  0  # atno 17321 bound_to 7965
  139.5806  144.1719  152.1962 LP  0  0  0  0  0  0  0  0  0  0  0  0  # atno 17342 bound_to 10162
  140.1043  144.5512  150.6967 LP  0  0  0  0  0  0  0  0  0  0  0  0  # atno 17343 bound_to 10162
  157.3285  130.6973  149.6310 LP  0  0  0  0  0  0  0  0  0  0  0  0  # atno 17370 bound_to 10713
  155.9666  130.4314  150.4920 LP  0  0  0  0  0  0  0  0  0  0  0  0  # atno 17371 bound_to 10713
  139.9300  134.7983  156.0959 LP  0  0  0  0  0  0  0  0  0  0  0  0  # atno 17394 bound_to 11000
  141.0971  133.6691  156.2671 LP  0  0  0  0  0  0  0  0  0  0  0  0  # atno 17395 bound_to 11000

$$$$
