AV-unprocessed.smi:160|AV-procd|sdf|1350|dock4
  -GOLD-   2262019 53D 1   1.00000     0.00000
 Structure written by MMmdl.
 29 30  0  0  0  0  0  0  0  0  1 V2000
  155.0325  137.6550  158.5777 N   0  0  0  0  0  0  0  0  0  0  0  0
  153.7684  137.2851  158.8085 C   0  0  0  0  0  0  0  0  0  0  0  0
  153.4798  136.3753  159.5843 O   0  0  0  0  0  0  0  0  0  0  0  0
  152.7070  138.0443  158.0615 C   0  0  0  0  0  0  0  0  0  0  0  0
  151.3847  137.7311  158.1990 N   0  0  0  0  0  0  0  0  0  0  0  0
  150.8695  138.6415  157.3826 C   0  0  0  0  0  0  0  0  0  0  0  0
  151.7768  139.4282  156.7946 N   0  0  0  0  0  0  0  0  0  0  0  0
  151.5789  140.5688  155.8387 C   0  0  1  0  0  0  0  0  0  0  0  0
  150.9304  140.0619  154.7139 O   0  0  0  0  0  0  0  0  0  0  0  0
  149.5677  140.4880  154.6604 C   0  0  1  0  0  0  0  0  0  0  0  0
  148.6479  139.2778  154.4299 C   0  0  0  0  0  0  0  0  0  0  0  0
  149.0303  138.5938  153.2557 O   0  0  0  0  0  0  0  0  0  0  0  0
  149.2973  141.2175  155.9865 C   0  0  2  0  0  0  0  0  0  0  0  0
  148.4442  142.3251  155.7756 O   0  0  0  0  0  0  0  0  0  0  0  0
  150.6828  141.6786  156.4133 C   0  0  1  0  0  0  0  0  0  0  0  0
  150.7769  141.8247  157.8189 O   0  0  0  0  0  0  0  0  0  0  0  0
  153.0021  139.0549  157.2427 N   0  0  0  0  0  0  0  0  0  0  0  0
  152.5904  140.9014  155.6024 H   0  0  0  0  0  0  0  0  0  0  0  0
  149.4825  141.1975  153.8349 H   0  0  0  0  0  0  0  0  0  0  0  0
  148.8624  140.5414  156.7241 H   0  0  0  0  0  0  0  0  0  0  0  0
  150.9505  142.6124  155.9166 H   0  0  0  0  0  0  0  0  0  0  0  0
  155.7897  137.1815  159.0481 H   0  0  0  0  0  0  0  0  0  0  0  0
  155.2206  138.4069  157.9304 H   0  0  0  0  0  0  0  0  0  0  0  0
  149.8076  138.7363  157.2092 H   0  0  0  0  0  0  0  0  0  0  0  0
  148.6569  138.6002  155.2838 H   0  0  0  0  0  0  0  0  0  0  0  0
  147.6187  139.6101  154.2914 H   0  0  0  0  0  0  0  0  0  0  0  0
  149.3495  139.2258  152.6298 H   0  0  0  0  0  0  0  0  0  0  0  0
  148.9770  143.0896  155.6196 H   0  0  0  0  0  0  0  0  0  0  0  0
  150.7787  142.7464  158.0270 H   0  0  0  0  0  0  0  0  0  0  0  0
  1  2  1  0  0  0  0
  1 22  1  0  0  0  0
  1 23  1  0  0  0  0
  2  3  2  0  0  0  0
  2  4  1  0  0  0  0
  4 17  2  0  0  0  0
  4  5  1  0  0  0  0
  5  6  2  0  0  0  0
  6  7  1  0  0  0  0
  6 24  1  0  0  0  0
  7  8  1  0  0  0  0
  7 17  1  0  0  0  0
  8 18  1  0  0  0  0
  8 15  1  0  0  0  0
  8  9  1  0  0  0  0
  9 10  1  0  0  0  0
 10 19  1  0  0  0  0
 10 11  1  0  0  0  0
 10 13  1  0  0  0  0
 11 12  1  0  0  0  0
 11 25  1  0  0  0  0
 11 26  1  0  0  0  0
 12 27  1  0  0  0  0
 13 20  1  0  0  0  0
 13 14  1  0  0  0  0
 13 15  1  0  0  0  0
 14 28  1  0  0  0  0
 15 21  1  0  0  0  0
 15 16  1  0  0  0  0
 16 29  1  0  0  0  0
M  END
> <s_m_source_file>
AV-unprocessed.smi

> <i_m_source_file_index>
160

> <i_lp_mmshare_version>
43012

> <i_f3d_flags>
0

> <s_epik_input>
W05IMl1DKD1PKWMxbltjSF1uKG4xKVtDQEBIXTJPW0NASF0oW0NIMl1bT0hdKVtDQEBIXShbT0hdKVtDQEhdMltPSF0=

> <s_epik_cmdline>
J2VwaWtfcHl0aG9uJywgJy1waCcsICc3LjAnLCAnLXRuJywgJzgnLCAnLW1hJywgJzIwMCcsICctbWV0YWxfYmluZGluZycsICctaW1hZScsICc8aW5maWxlLm1hZT4nLCAnLW9tYWUnLCAnPG91dGZpbGUubWFlPic=

> <r_lp_tautomer_probability>
1

> <r_epik_Ionization_Penalty>
1.06932e-05

> <r_epik_Ionization_Penalty_Charging>
0

> <r_epik_Ionization_Penalty_Neutral>
1.06932e-05

> <r_epik_State_Penalty>
-0

> <r_epik_Charging_Adjusted_Penalty>
0

> <i_epik_Tot_Q>
0

> <i_epik_Tot_abs_Q>
0

> <r_epik_Metal_State_Penalty>
0.0142097

> <b_epik_Metal_Only>
0

> <s_epik_Chemistry_Notes>
This compound contains an acetal/aminal-like group ( X-CH(R)-Y where X, Y are N, S, or O) that may be acid/base labile, releasing an aldehyde.

> <s_lp_Force_Field>
OPLS_2005

> <r_lp_Energy>
40.695

> <b_lp_Chiralities_Consistent>
1

> <s_lp_Variant>
AV-unprocessed.smi:160-8

> <Gold.Version>
5.8.1

> <Gold.Id.Protein>
6NUR|6NUR_protein|mol2

> <Gold.PLP.Fitness>
37.7712

> <Gold.PLP.PLP>
-23.0086

> <Gold.PLP.part.hbond>
-5.7975

> <Gold.PLP.part.metal>
0.0000

> <Gold.PLP.part.buried>
-4.6075

> <Gold.PLP.part.nonpolar>
-12.6259

> <Gold.PLP.part.repulsive>
0.1518

> <Gold.PLP.ligand.clash>
0.0000

> <Gold.PLP.ligand.torsion>
0.0162

> <Gold.PLP.Chemscore.Hbond>
4.9280

> <Gold.PLP.Chemscore.CHOScore>
0.0000

> <Gold.PLP.Chemscore.Metal>
0.0000

> <Gold.Chemscore.Hbonds>
donor molecule, donor type, donor heavy atom, donor atom, acceptor molecule, acceptor atom, score
      L1  H    12    27       P1  7957  1.00
      L1  H    14    28       P1  8028  0.80
      P1  H  6896  6908       L1     3  1.00
      P1  H  7989  7998       L1     9  1.00
      P1  H  7997  8010       L1    17  1.00

> <Gold.PLP.Chemscore.Internal.Correction>
0.0110

> <Gold.Rescore>
     Score         DG    S(hbond)    S(metal)    S(lipo)     H(rot)  DE(clash)    DE(int)     intcor
     12.46     -12.64       4.44        0.00      23.12       4.06       0.00       0.17       ----

> <Gold.Chemscore.Fitness>
12.4636

> <Gold.Chemscore.DG>
-12.6379

> <Gold.Chemscore.ZeroCoef>
-5.4800

> <Gold.Chemscore.Hbond>
4.4449

> <Gold.Chemscore.Metal>
0.0000

> <Gold.Chemscore.Lipo>
23.1249

> <Gold.Chemscore.Internal_Hbond>
0.0000

> <Gold.Chemscore.DEClash>
0.0000

> <Gold.Chemscore.DEInternal>
0.1744

> <Gold.Chemscore.Rot>
4.0600

> <Gold.Chemscore.Internal.Correction>
   9.000000E+99

> <Gold.Chemscore.Hbonds>
donor molecule, donor type, donor heavy atom, donor atom, acceptor molecule, acceptor atom, score
      L1  H    12    27       P1  7957  0.99
      L1  H    14    28       P1  8028  0.79
      P1  H  6896  6908       L1     3  0.95
      P1  H  7989  7998       L1     9  0.18
      P1  H  7997  8010       L1    17  0.99

> <Gold.Chemscore.Hbond.Weighted>
-14.8459

> <Gold.Chemscore.Metal.Weighted>
-0.0000

> <Gold.Chemscore.Lipo.Weighted>
-2.7056

> <Gold.Chemscore.Internal_Hbond.Weighted>
0.0000

> <Gold.Chemscore.DEClash.Weighted>
0.0000

> <Gold.Chemscore.DEInternal.Weighted>
0.1744

> <Gold.Chemscore.Rot.Weighted>
10.3936

> <Gold.Chemscore.Internal.Correction.Weighted>
   9.000000E+99

> <Gold.Protein.RotatedTorsions>
[ 6907 6896 6895 6894 ] final  -66.24 input  -60.11 | X-H torsion
[ 7974 7965 7964 7962 ] final  -66.64 input  175.53 | X-H torsion
[ 8008 7997 7996 7995 ] final   41.99 input   59.86 | X-H torsion
[ 10167 10162 10161 10158 ] final  114.73 input  -65.29 | X-H torsion
[ 10718 10713 10712 10709 ] final  103.25 input   66.30 | X-H torsion
[ 10763 10752 10751 10750 ] final   83.52 input  -60.55 | X-H torsion
[ 11005 11000 10999 10996 ] final  125.83 input  -57.11 | X-H torsion

> <Gold.Protein.ActiveResidues>
 VAL166  LYS551  ARG553  GLY616  TRP617  ASP618  TYR619  PRO620  LYS621  CYS622 
 ASP623  PHE694  ASN695  SER759  ASP760  ASP761  ALA762  ILE779  LEU786  VAL792 
 PHE793  MET794  SER795  GLU796  ALA797  LYS798  CYS799  TRP800  GLU811  SER814 

> <Gold.Protein.RotatedAtoms>
  150.7477  134.6049  159.6055 H   0  0  0  0  0  0  0  0  0  0  0  0  # atno 6907 bound_to 6896
  152.3400  134.7144  160.0275 H   0  0  0  0  0  0  0  0  0  0  0  0  # atno 6908 bound_to 6896
  151.7600  133.3297  159.3451 H   0  0  0  0  0  0  0  0  0  0  0  0  # atno 6909 bound_to 6896
  145.7392  140.8961  143.0539 H   0  0  0  0  0  0  0  0  0  0  0  0  # atno 7974 bound_to 7965
  155.2788  140.3371  155.4260 H   0  0  0  0  0  0  0  0  0  0  0  0  # atno 8008 bound_to 7997
  156.2099  140.1766  156.7759 H   0  0  0  0  0  0  0  0  0  0  0  0  # atno 8009 bound_to 7997
  154.5672  140.0676  156.8894 H   0  0  0  0  0  0  0  0  0  0  0  0  # atno 8010 bound_to 7997
  139.6367  144.7120  151.2320 H   0  0  0  0  0  0  0  0  0  0  0  0  # atno 10167 bound_to 10162
  157.6778  131.0774  150.5527 H   0  0  0  0  0  0  0  0  0  0  0  0  # atno 10718 bound_to 10713
  153.1299  135.4688  154.9332 H   0  0  0  0  0  0  0  0  0  0  0  0  # atno 10763 bound_to 10752
  154.7654  135.3143  154.8298 H   0  0  0  0  0  0  0  0  0  0  0  0  # atno 10764 bound_to 10752
  153.8843  135.6891  153.4818 H   0  0  0  0  0  0  0  0  0  0  0  0  # atno 10765 bound_to 10752
  139.9426  134.9634  156.8617 H   0  0  0  0  0  0  0  0  0  0  0  0  # atno 11005 bound_to 11000
  144.6874  139.9437  143.7476 LP  0  0  0  0  0  0  0  0  0  0  0  0  # atno 17320 bound_to 7965
  146.0464  139.3469  143.0666 LP  0  0  0  0  0  0  0  0  0  0  0  0  # atno 17321 bound_to 7965
  140.7469  143.6383  150.8358 LP  0  0  0  0  0  0  0  0  0  0  0  0  # atno 17342 bound_to 10162
  140.0015  143.5739  152.2873 LP  0  0  0  0  0  0  0  0  0  0  0  0  # atno 17343 bound_to 10162
  156.5831  130.4309  149.5968 LP  0  0  0  0  0  0  0  0  0  0  0  0  # atno 17370 bound_to 10713
  156.2644  130.6981  151.1760 LP  0  0  0  0  0  0  0  0  0  0  0  0  # atno 17371 bound_to 10713
  140.5914  134.0258  155.7501 LP  0  0  0  0  0  0  0  0  0  0  0  0  # atno 17394 bound_to 11000
  141.1065  133.9684  157.2987 LP  0  0  0  0  0  0  0  0  0  0  0  0  # atno 17395 bound_to 11000

$$$$
