AV-unprocessed.smi:1644|AV-procd|sdf|6593|dock3
  -GOLD-   22720 7293D 1   1.00000     0.00000
 Structure written by MMmdl.
 48 50  0  0  0  0  0  0  0  0  2 V2000
  154.3632  136.7604  164.3143 C   0  0  0  0  0  0  0  0  0  0  0  0
  153.8584  137.5267  163.0867 C   0  0  0  0  0  0  0  0  0  0  0  0
  154.9805  137.8367  162.0824 C   0  0  0  0  0  0  0  0  0  0  0  0
  154.4992  138.6511  160.8626 C   0  0  1  0  0  0  0  0  0  0  0  0
  155.6068  139.0432  160.0149 N   0  5  0  0  0  0  0  0  0  0  0  0
  155.4078  138.5346  158.7768 C   0  0  0  0  0  0  0  0  0  0  0  0
  156.1473  138.6640  157.8020 O   0  0  0  0  0  0  0  0  0  0  0  0
  154.2642  137.8264  158.7233 N   0  0  0  0  0  0  0  0  0  0  0  0
  153.7732  137.1047  157.5441 C   0  0  0  0  0  0  0  0  0  0  0  0
  152.7541  137.9470  156.7492 C   0  0  2  0  0  0  0  0  0  0  0  0
  153.4483  138.9806  156.0776 O   0  0  0  0  0  0  0  0  0  0  0  0
  151.6969  138.5885  157.6679 C   0  0  0  0  0  0  0  0  0  0  0  0
  151.3397  139.9306  157.2438 N   0  0  0  0  0  0  0  0  0  0  0  0
  150.7304  140.2779  156.0943 C   0  0  0  0  0  0  0  0  0  0  0  0
  150.4974  141.5718  155.8948 N   0  0  0  0  0  0  0  0  0  0  0  0
  151.0199  142.1293  157.0491 C   0  0  0  0  0  0  0  0  0  0  0  0
  151.0941  143.4773  157.4626 C   0  0  0  0  0  0  0  0  0  0  0  0
  151.6804  143.8249  158.7005 C   0  0  0  0  0  0  0  0  0  0  0  0
  151.7408  145.2876  159.1036 C   0  0  0  0  0  0  0  0  0  0  0  0
  152.2017  142.8145  159.5481 C   0  0  0  0  0  0  0  0  0  0  0  0
  152.8333  143.1630  160.8841 C   0  0  0  0  0  0  0  0  0  0  0  0
  152.1374  141.4627  159.1494 C   0  0  0  0  0  0  0  0  0  0  0  0
  151.5525  141.1297  157.9150 C   0  0  0  0  0  0  0  0  0  0  0  0
  153.6586  137.8194  159.9151 C   0  0  0  0  0  0  0  0  0  0  0  0
  152.6143  137.2450  160.2255 O   0  0  0  0  0  0  0  0  0  0  0  0
  153.5479  136.5609  165.0100 H   0  0  0  0  0  0  0  0  0  0  0  0
  155.1240  137.3307  164.8480 H   0  0  0  0  0  0  0  0  0  0  0  0
  154.7992  135.8028  164.0289 H   0  0  0  0  0  0  0  0  0  0  0  0
  153.0786  136.9445  162.5949 H   0  0  0  0  0  0  0  0  0  0  0  0
  153.3890  138.4549  163.4146 H   0  0  0  0  0  0  0  0  0  0  0  0
  155.7927  138.3618  162.5889 H   0  0  0  0  0  0  0  0  0  0  0  0
  155.4031  136.8913  161.7390 H   0  0  0  0  0  0  0  0  0  0  0  0
  153.9029  139.5029  161.1920 H   0  0  0  0  0  0  0  0  0  0  0  0
  154.6310  136.8749  156.9098 H   0  0  0  0  0  0  0  0  0  0  0  0
  153.3553  136.1338  157.8159 H   0  0  0  0  0  0  0  0  0  0  0  0
  152.2464  137.3254  156.0098 H   0  0  0  0  0  0  0  0  0  0  0  0
  154.2701  138.6328  155.7644 H   0  0  0  0  0  0  0  0  0  0  0  0
  150.7883  137.9850  157.6723 H   0  0  0  0  0  0  0  0  0  0  0  0
  152.0510  138.6251  158.6990 H   0  0  0  0  0  0  0  0  0  0  0  0
  150.4438  139.5377  155.3615 H   0  0  0  0  0  0  0  0  0  0  0  0
  150.6955  144.2459  156.8168 H   0  0  0  0  0  0  0  0  0  0  0  0
  151.1302  145.4636  159.9892 H   0  0  0  0  0  0  0  0  0  0  0  0
  151.3729  145.9346  158.3072 H   0  0  0  0  0  0  0  0  0  0  0  0
  152.7664  145.5836  159.3243 H   0  0  0  0  0  0  0  0  0  0  0  0
  153.1239  142.2665  161.4325 H   0  0  0  0  0  0  0  0  0  0  0  0
  152.1329  143.7217  161.5053 H   0  0  0  0  0  0  0  0  0  0  0  0
  153.7265  143.7701  160.7360 H   0  0  0  0  0  0  0  0  0  0  0  0
  152.5368  140.6828  159.7809 H   0  0  0  0  0  0  0  0  0  0  0  0
  1  2  1  0  0  0  0
  1 26  1  0  0  0  0
  1 27  1  0  0  0  0
  1 28  1  0  0  0  0
  2  3  1  0  0  0  0
  2 29  1  0  0  0  0
  2 30  1  0  0  0  0
  3  4  1  0  0  0  0
  3 31  1  0  0  0  0
  3 32  1  0  0  0  0
  4 24  1  0  0  0  0
  4  5  1  0  0  0  0
  4 33  1  0  0  0  0
  5  6  1  0  0  0  0
  6  7  2  0  0  0  0
  6  8  1  0  0  0  0
  8  9  1  0  0  0  0
  8 24  1  0  0  0  0
  9 10  1  0  0  0  0
  9 34  1  0  0  0  0
  9 35  1  0  0  0  0
 10 11  1  0  0  0  0
 10 12  1  0  0  0  0
 10 36  1  0  0  0  0
 11 37  1  0  0  0  0
 12 13  1  0  0  0  0
 12 38  1  0  0  0  0
 12 39  1  0  0  0  0
 13 23  1  0  0  0  0
 13 14  1  0  0  0  0
 14 15  2  0  0  0  0
 14 40  1  0  0  0  0
 15 16  1  0  0  0  0
 16 23  2  0  0  0  0
 16 17  1  0  0  0  0
 17 18  2  0  0  0  0
 17 41  1  0  0  0  0
 18 19  1  0  0  0  0
 18 20  1  0  0  0  0
 19 42  1  0  0  0  0
 19 43  1  0  0  0  0
 19 44  1  0  0  0  0
 20 21  1  0  0  0  0
 20 22  2  0  0  0  0
 21 45  1  0  0  0  0
 21 46  1  0  0  0  0
 21 47  1  0  0  0  0
 22 23  1  0  0  0  0
 22 48  1  0  0  0  0
 24 25  2  0  0  0  0
M  CHG  1   5  -1
M  END
> <s_m_source_file>
AV-unprocessed.smi

> <i_m_source_file_index>
1644

> <i_lp_mmshare_version>
43012

> <i_f3d_flags>
0

> <s_epik_input>
W0NIM11bQ0gyXVtDSDJdW0NAQEhdMVtOSF1DKD1PKU4oQzE9TylbQ0gyXVtDQEhdKFtPSF0pW0NIMl1uKFtjSF1uMiljKGMyMylbY0hdYyhbQ0gzXSljKFtjSF0zKVtDSDNd

> <s_epik_cmdline>
J2VwaWtfcHl0aG9uJywgJy1waCcsICc3LjAnLCAnLXRuJywgJzgnLCAnLW1hJywgJzIwMCcsICctbWV0YWxfYmluZGluZycsICctaW1hZScsICc8aW5maWxlLm1hZT4nLCAnLW9tYWUnLCAnPG91dGZpbGUubWFlPic=

> <r_lp_tautomer_probability>
1

> <r_epik_Ionization_Penalty>
5.95212

> <r_epik_Ionization_Penalty_Charging>
5.84419

> <r_epik_Ionization_Penalty_Neutral>
0.107924

> <r_epik_State_Penalty>
5.94088

> <r_epik_Charging_Adjusted_Penalty>
11.7851

> <i_epik_Tot_Q>
-1

> <i_epik_Tot_abs_Q>
1

> <r_epik_Metal_State_Penalty>
1.99095

> <b_epik_Metal_Only>
1

> <s_lp_Force_Field>
OPLS_2005

> <r_lp_Energy>
18.6255

> <b_lp_Chiralities_Consistent>
1

> <s_lp_Variant>
AV-unprocessed.smi:1644-10

> <Gold.Version>
5.8.1

> <Gold.Id.Protein>
6NUR|6NUR_protein|mol2

> <Gold.PLP.Fitness>
51.9065

> <Gold.PLP.PLP>
-48.1555

> <Gold.PLP.part.hbond>
-2.2120

> <Gold.PLP.part.metal>
0.0000

> <Gold.PLP.part.buried>
-6.6940

> <Gold.PLP.part.nonpolar>
-40.0425

> <Gold.PLP.part.repulsive>
0.1280

> <Gold.PLP.ligand.clash>
0.0000

> <Gold.PLP.ligand.torsion>
1.0339

> <Gold.PLP.Chemscore.Hbond>
1.8873

> <Gold.PLP.Chemscore.CHOScore>
0.0000

> <Gold.PLP.Chemscore.Metal>
0.0000

> <Gold.Chemscore.Hbonds>
donor molecule, donor type, donor heavy atom, donor atom, acceptor molecule, acceptor atom, score
      P1  H  6896  6907       L1    25  0.42
      P1  H  7997  8010       L1     7  0.81

> <Gold.PLP.Chemscore.Internal.Correction>
0.1570

> <Gold.Rescore>
     Score         DG    S(hbond)    S(metal)    S(lipo)     H(rot)  DE(clash)    DE(int)     intcor
     18.90     -20.09       1.95        0.00     127.19       2.65       0.16       1.04       ----

> <Gold.Chemscore.Fitness>
18.8983

> <Gold.Chemscore.DG>
-20.0941

> <Gold.Chemscore.ZeroCoef>
-5.4800

> <Gold.Chemscore.Hbond>
1.9501

> <Gold.Chemscore.Metal>
0.0000

> <Gold.Chemscore.Lipo>
127.1912

> <Gold.Chemscore.Internal_Hbond>
0.0000

> <Gold.Chemscore.DEClash>
0.1581

> <Gold.Chemscore.DEInternal>
1.0378

> <Gold.Chemscore.Rot>
2.6486

> <Gold.Chemscore.Internal.Correction>
   9.000000E+99

> <Gold.Chemscore.Hbonds>
donor molecule, donor type, donor heavy atom, donor atom, acceptor molecule, acceptor atom, score
      P1  H  6896  6907       L1    25  0.44
      P1  H  7997  8010       L1     7  0.23

> <Gold.Chemscore.Hbond.Weighted>
-6.5132

> <Gold.Chemscore.Metal.Weighted>
-0.0000

> <Gold.Chemscore.Lipo.Weighted>
-14.8814

> <Gold.Chemscore.Internal_Hbond.Weighted>
0.0000

> <Gold.Chemscore.DEClash.Weighted>
0.1581

> <Gold.Chemscore.DEInternal.Weighted>
1.0378

> <Gold.Chemscore.Rot.Weighted>
6.7804

> <Gold.Chemscore.Internal.Correction.Weighted>
   9.000000E+99

> <Gold.Protein.RotatedTorsions>
[ 6907 6896 6895 6894 ] final   14.22 input  -60.11 | X-H torsion
[ 7974 7965 7964 7962 ] final -111.45 input  175.53 | X-H torsion
[ 8008 7997 7996 7995 ] final  -33.53 input   59.86 | X-H torsion
[ 10167 10162 10161 10158 ] final  -93.90 input  -65.29 | X-H torsion
[ 10718 10713 10712 10709 ] final -107.97 input   66.30 | X-H torsion
[ 10763 10752 10751 10750 ] final   35.27 input  -60.55 | X-H torsion
[ 11005 11000 10999 10996 ] final  132.78 input  -57.11 | X-H torsion

> <Gold.Protein.ActiveResidues>
 VAL166  LYS551  ARG553  GLY616  TRP617  ASP618  TYR619  PRO620  LYS621  CYS622 
 ASP623  PHE694  ASN695  SER759  ASP760  ASP761  ALA762  ILE779  LEU786  VAL792 
 PHE793  MET794  SER795  GLU796  ALA797  LYS798  CYS799  TRP800  GLU811  SER814 

> <Gold.Protein.RotatedAtoms>
  151.7988  135.0715  160.0397 H   0  0  0  0  0  0  0  0  0  0  0  0  # atno 6907 bound_to 6896
  152.3104  133.5742  159.5685 H   0  0  0  0  0  0  0  0  0  0  0  0  # atno 6908 bound_to 6896
  150.7317  134.0077  159.3701 H   0  0  0  0  0  0  0  0  0  0  0  0  # atno 6909 bound_to 6896
  145.1559  140.8853  143.3619 H   0  0  0  0  0  0  0  0  0  0  0  0  # atno 7974 bound_to 7965
  154.4146  140.1708  156.1903 H   0  0  0  0  0  0  0  0  0  0  0  0  # atno 8008 bound_to 7997
  155.9609  140.3393  155.6466 H   0  0  0  0  0  0  0  0  0  0  0  0  # atno 8009 bound_to 7997
  155.6749  140.0716  157.2497 H   0  0  0  0  0  0  0  0  0  0  0  0  # atno 8010 bound_to 7997
  140.3199  143.3055  152.0057 H   0  0  0  0  0  0  0  0  0  0  0  0  # atno 10167 bound_to 10162
  156.0463  130.5689  150.7896 H   0  0  0  0  0  0  0  0  0  0  0  0  # atno 10718 bound_to 10713
  153.0126  135.6338  154.1801 H   0  0  0  0  0  0  0  0  0  0  0  0  # atno 10763 bound_to 10752
  154.1542  135.2827  155.3128 H   0  0  0  0  0  0  0  0  0  0  0  0  # atno 10764 bound_to 10752
  154.6030  135.5581  153.7455 H   0  0  0  0  0  0  0  0  0  0  0  0  # atno 10765 bound_to 10752
  139.9811  134.9548  156.9631 H   0  0  0  0  0  0  0  0  0  0  0  0  # atno 11005 bound_to 11000
  145.0382  139.3283  143.5990 LP  0  0  0  0  0  0  0  0  0  0  0  0  # atno 17320 bound_to 7965
  146.3489  139.9745  142.8702 LP  0  0  0  0  0  0  0  0  0  0  0  0  # atno 17321 bound_to 7965
  139.4876  144.6319  151.7053 LP  0  0  0  0  0  0  0  0  0  0  0  0  # atno 17342 bound_to 10162
  140.5492  144.0452  150.6120 LP  0  0  0  0  0  0  0  0  0  0  0  0  # atno 17343 bound_to 10162
  157.5341  131.0938  150.9916 LP  0  0  0  0  0  0  0  0  0  0  0  0  # atno 17370 bound_to 10713
  157.0215  130.5676  149.5332 LP  0  0  0  0  0  0  0  0  0  0  0  0  # atno 17371 bound_to 10713
  140.5094  134.1017  155.7267 LP  0  0  0  0  0  0  0  0  0  0  0  0  # atno 17394 bound_to 11000
  141.1483  133.9015  157.2161 LP  0  0  0  0  0  0  0  0  0  0  0  0  # atno 17395 bound_to 11000

$$$$
