AV-unprocessed.smi:1450|AV-procd|sdf|5898|dock4
  -GOLD-   22720 5583D 1   1.00000     0.00000
 Structure written by MMmdl.
 31 32  0  0  0  0  0  0  0  0  1 V2000
  145.5487  138.2757  153.5347 O   0  0  0  0  0  0  0  0  0  0  0  0
  146.5247  137.6467  153.1272 C   0  0  0  0  0  0  0  0  0  0  0  0
  146.4378  136.4339  152.5628 N   0  0  0  0  0  0  0  0  0  0  0  0
  145.2010  135.6829  152.3744 C   0  0  0  0  0  0  0  0  0  0  0  0
  145.2881  134.7141  151.1792 C   0  0  1  0  0  0  0  0  0  0  0  0
  146.4602  133.7441  151.2521 C   0  0  0  0  0  0  0  0  0  0  0  0
  145.9214  132.4507  150.6295 C   0  0  0  0  0  0  0  0  0  0  0  0
  144.6028  132.7519  150.1917 O   0  0  0  0  0  0  0  0  0  0  0  0
  144.0935  133.7747  151.0296 C   0  0  0  0  0  0  0  0  0  0  0  0
  147.7993  138.0714  153.1681 N   0  0  0  0  0  0  0  0  0  0  0  0
  148.3178  139.2778  153.7128 C   0  0  0  0  0  0  0  0  0  0  0  0
  147.5020  140.4268  153.6620 C   0  0  0  0  0  0  0  0  0  0  0  0
  147.9931  141.6418  154.1760 C   0  0  0  0  0  0  0  0  0  0  0  0
  149.2928  141.6627  154.7171 C   0  0  0  0  0  0  0  0  0  0  0  0
  150.0929  140.5769  154.7616 N   0  0  0  0  0  0  0  0  0  0  0  0
  149.6148  139.4140  154.2681 C   0  0  0  0  0  0  0  0  0  0  0  0
  147.2897  135.9929  152.2481 H   0  0  0  0  0  0  0  0  0  0  0  0
  144.9543  135.1375  153.2868 H   0  0  0  0  0  0  0  0  0  0  0  0
  144.3943  136.3997  152.2177 H   0  0  0  0  0  0  0  0  0  0  0  0
  145.3845  135.2856  150.2545 H   0  0  0  0  0  0  0  0  0  0  0  0
  147.3265  134.1289  150.7128 H   0  0  0  0  0  0  0  0  0  0  0  0
  146.7656  133.5599  152.2831 H   0  0  0  0  0  0  0  0  0  0  0  0
  146.5327  132.1042  149.7959 H   0  0  0  0  0  0  0  0  0  0  0  0
  145.8816  131.6552  151.3748 H   0  0  0  0  0  0  0  0  0  0  0  0
  143.7977  133.3495  151.9902 H   0  0  0  0  0  0  0  0  0  0  0  0
  143.2258  134.2616  150.5837 H   0  0  0  0  0  0  0  0  0  0  0  0
  148.4787  137.4738  152.7206 H   0  0  0  0  0  0  0  0  0  0  0  0
  146.5096  140.3801  153.2375 H   0  0  0  0  0  0  0  0  0  0  0  0
  147.3887  142.5366  154.1550 H   0  0  0  0  0  0  0  0  0  0  0  0
  149.7027  142.5771  155.1198 H   0  0  0  0  0  0  0  0  0  0  0  0
  150.3107  138.5910  154.3097 H   0  0  0  0  0  0  0  0  0  0  0  0
  1  2  2  0  0  0  0
  2  3  1  0  0  0  0
  2 10  1  0  0  0  0
  3  4  1  0  0  0  0
  3 17  1  0  0  0  0
  4  5  1  0  0  0  0
  4 18  1  0  0  0  0
  4 19  1  0  0  0  0
  5  9  1  0  0  0  0
  5  6  1  0  0  0  0
  5 20  1  0  0  0  0
  6  7  1  0  0  0  0
  6 21  1  0  0  0  0
  6 22  1  0  0  0  0
  7  8  1  0  0  0  0
  7 23  1  0  0  0  0
  7 24  1  0  0  0  0
  8  9  1  0  0  0  0
  9 25  1  0  0  0  0
  9 26  1  0  0  0  0
 10 11  1  0  0  0  0
 10 27  1  0  0  0  0
 11 16  1  0  0  0  0
 11 12  2  0  0  0  0
 12 13  1  0  0  0  0
 12 28  1  0  0  0  0
 13 14  2  0  0  0  0
 13 29  1  0  0  0  0
 14 15  1  0  0  0  0
 14 30  1  0  0  0  0
 15 16  2  0  0  0  0
 16 31  1  0  0  0  0
M  END
> <s_m_source_file>
AV-unprocessed.smi

> <i_m_source_file_index>
1450

> <i_lp_mmshare_version>
43012

> <i_f3d_flags>
0

> <s_epik_input>
W2NIXTFuW2NIXVtjSF1bY0hdYzFbTkhdQyg9TylbTkhdW0NIMl1bQ0BASF0yW0NIMl1bQ0gyXU9bQ0gyXTI=

> <s_epik_cmdline>
J2VwaWtfcHl0aG9uJywgJy1waCcsICc3LjAnLCAnLXRuJywgJzgnLCAnLW1hJywgJzIwMCcsICctbWV0YWxfYmluZGluZycsICctaW1hZScsICc8aW5maWxlLm1hZT4nLCAnLW9tYWUnLCAnPG91dGZpbGUubWFlPic=

> <r_epik_Ionization_Penalty>
0.00478342

> <r_epik_Ionization_Penalty_Charging>
0

> <r_epik_Ionization_Penalty_Neutral>
0.00478342

> <r_epik_State_Penalty>
0.0034384

> <r_epik_Charging_Adjusted_Penalty>
0.0034384

> <i_epik_Tot_Q>
0

> <i_epik_Tot_abs_Q>
0

> <r_epik_Metal_State_Penalty>
-0

> <b_epik_Metal_Only>
0

> <s_lp_Force_Field>
OPLS_2005

> <r_lp_Energy>
21.9504

> <b_lp_Chiralities_Consistent>
1

> <s_lp_Variant>
AV-unprocessed.smi:1450-2

> <Gold.Version>
5.8.1

> <Gold.Id.Protein>
6NUR|6NUR_protein|mol2

> <Gold.PLP.Fitness>
37.5757

> <Gold.PLP.PLP>
-26.8607

> <Gold.PLP.part.hbond>
-3.0330

> <Gold.PLP.part.metal>
0.0000

> <Gold.PLP.part.buried>
-0.7271

> <Gold.PLP.part.nonpolar>
-23.8712

> <Gold.PLP.part.repulsive>
0.9115

> <Gold.PLP.ligand.clash>
0.0000

> <Gold.PLP.ligand.torsion>
0.4038

> <Gold.PLP.Chemscore.Hbond>
2.8400

> <Gold.PLP.Chemscore.CHOScore>
1.0000

> <Gold.PLP.Chemscore.Metal>
0.0000

> <Gold.Chemscore.Hbonds>
donor molecule, donor type, donor heavy atom, donor atom, acceptor molecule, acceptor atom, score
      L1  H     3    17       P1  7948  0.93
      L1  H    10    27       P1  7948  1.00
      P1  H  7989  7998       L1    15  0.90
      L1  C    14    30       P1  8028  1.00

> <Gold.PLP.Chemscore.Internal.Correction>
0.0027

> <Gold.Rescore>
     Score         DG    S(hbond)    S(metal)    S(lipo)     H(rot)  DE(clash)    DE(int)     intcor
     15.12     -17.09       2.17        0.00      64.45       1.24       0.34       1.63       ----

> <Gold.Chemscore.Fitness>
15.1225

> <Gold.Chemscore.DG>
-17.0927

> <Gold.Chemscore.ZeroCoef>
-5.4800

> <Gold.Chemscore.Hbond>
2.1688

> <Gold.Chemscore.Metal>
0.0000

> <Gold.Chemscore.Lipo>
64.4497

> <Gold.Chemscore.Internal_Hbond>
0.0000

> <Gold.Chemscore.DEClash>
0.3405

> <Gold.Chemscore.DEInternal>
1.6297

> <Gold.Chemscore.Rot>
1.2390

> <Gold.Chemscore.Internal.Correction>
   9.000000E+99

> <Gold.Chemscore.Hbonds>
donor molecule, donor type, donor heavy atom, donor atom, acceptor molecule, acceptor atom, score
      L1  H     3    17       P1  7948  0.90
      L1  H    10    27       P1  7948  0.95
      P1  H  7989  7998       L1    15  0.14

> <Gold.Chemscore.Hbond.Weighted>
-7.2438

> <Gold.Chemscore.Metal.Weighted>
-0.0000

> <Gold.Chemscore.Lipo.Weighted>
-7.5406

> <Gold.Chemscore.Internal_Hbond.Weighted>
0.0000

> <Gold.Chemscore.DEClash.Weighted>
0.3405

> <Gold.Chemscore.DEInternal.Weighted>
1.6297

> <Gold.Chemscore.Rot.Weighted>
3.1718

> <Gold.Chemscore.Internal.Correction.Weighted>
   9.000000E+99

> <Gold.Protein.RotatedTorsions>
[ 6907 6896 6895 6894 ] final   28.01 input  -60.11 | X-H torsion
[ 7974 7965 7964 7962 ] final  111.26 input  175.53 | X-H torsion
[ 8008 7997 7996 7995 ] final  -56.66 input   59.86 | X-H torsion
[ 10167 10162 10161 10158 ] final   37.93 input  -65.29 | X-H torsion
[ 10718 10713 10712 10709 ] final -106.16 input   66.30 | X-H torsion
[ 10763 10752 10751 10750 ] final   93.37 input  -60.55 | X-H torsion
[ 11005 11000 10999 10996 ] final -155.90 input  -57.11 | X-H torsion

> <Gold.Protein.ActiveResidues>
 VAL166  LYS551  ARG553  GLY616  TRP617  ASP618  TYR619  PRO620  LYS621  CYS622 
 ASP623  PHE694  ASN695  SER759  ASP760  ASP761  ALA762  ILE779  LEU786  VAL792 
 PHE793  MET794  SER795  GLU796  ALA797  LYS798  CYS799  TRP800  GLU811  SER814 

> <Gold.Protein.RotatedAtoms>
  152.0107  134.9878  160.0567 H   0  0  0  0  0  0  0  0  0  0  0  0  # atno 6907 bound_to 6896
  152.1431  133.4471  159.4785 H   0  0  0  0  0  0  0  0  0  0  0  0  # atno 6908 bound_to 6896
  150.6867  134.2199  159.4435 H   0  0  0  0  0  0  0  0  0  0  0  0  # atno 6909 bound_to 6896
  145.2445  139.2765  143.4100 H   0  0  0  0  0  0  0  0  0  0  0  0  # atno 7974 bound_to 7965
  154.4238  140.1124  156.5674 H   0  0  0  0  0  0  0  0  0  0  0  0  # atno 8008 bound_to 7997
  155.6248  140.3495  155.4644 H   0  0  0  0  0  0  0  0  0  0  0  0  # atno 8009 bound_to 7997
  155.9995  140.1196  157.0550 H   0  0  0  0  0  0  0  0  0  0  0  0  # atno 8010 bound_to 7997
  140.3986  144.1755  150.6133 H   0  0  0  0  0  0  0  0  0  0  0  0  # atno 10167 bound_to 10162
  156.0378  130.5599  150.7642 H   0  0  0  0  0  0  0  0  0  0  0  0  # atno 10718 bound_to 10713
  153.2296  135.4328  155.0580 H   0  0  0  0  0  0  0  0  0  0  0  0  # atno 10763 bound_to 10752
  154.8290  135.3376  154.6807 H   0  0  0  0  0  0  0  0  0  0  0  0  # atno 10764 bound_to 10752
  153.7235  135.7015  153.5063 H   0  0  0  0  0  0  0  0  0  0  0  0  # atno 10765 bound_to 10752
  140.6814  134.4140  157.5226 H   0  0  0  0  0  0  0  0  0  0  0  0  # atno 11005 bound_to 11000
  146.3319  140.2818  142.8610 LP  0  0  0  0  0  0  0  0  0  0  0  0  # atno 17320 bound_to 7965
  144.9559  140.8226  143.5543 LP  0  0  0  0  0  0  0  0  0  0  0  0  # atno 17321 bound_to 7965
  140.4764  143.2394  151.9017 LP  0  0  0  0  0  0  0  0  0  0  0  0  # atno 17342 bound_to 10162
  139.4785  144.5316  151.8659 LP  0  0  0  0  0  0  0  0  0  0  0  0  # atno 17343 bound_to 10162
  157.5153  131.0928  151.0147 LP  0  0  0  0  0  0  0  0  0  0  0  0  # atno 17370 bound_to 10713
  157.0492  130.5780  149.5367 LP  0  0  0  0  0  0  0  0  0  0  0  0  # atno 17371 bound_to 10713
  139.8950  134.8692  156.2149 LP  0  0  0  0  0  0  0  0  0  0  0  0  # atno 17394 bound_to 11000
  141.0314  133.6986  156.1437 LP  0  0  0  0  0  0  0  0  0  0  0  0  # atno 17395 bound_to 11000

$$$$
