AV-unprocessed.smi:414|AV-procd|sdf|2517|dock10
  -GOLD-   2262022463D 1   1.00000     0.00000
 Structure written by MMmdl.
 37 38  0  0  0  0  0  0  0  0  2 V2000
  146.2852  133.2223  151.6309 C   0  0  0  0  0  0  0  0  0  0  0  0
  147.0544  133.1075  152.9547 C   0  0  2  0  0  0  0  0  0  0  0  0
  146.7274  134.2796  153.8997 C   0  0  0  0  0  0  0  0  0  0  0  0
  147.4991  134.1718  155.2269 C   0  0  0  0  0  0  0  0  0  0  0  0
  149.0224  134.0576  155.0091 C   0  0  2  0  0  0  0  0  0  0  0  0
  149.5845  135.3130  154.5150 N   0  0  0  0  0  0  0  0  0  0  0  0
  150.6910  135.9105  154.9823 C   0  0  0  0  0  0  0  0  0  0  0  0
  151.3586  135.4635  155.9160 O   0  0  0  0  0  0  0  0  0  0  0  0
  151.0794  137.2338  154.3101 C   0  0  0  0  0  0  0  0  0  0  0  0
  151.2868  138.3208  155.2800 N   0  0  0  0  0  0  0  0  0  0  0  0
  150.1787  138.7503  156.0315 C   0  0  0  0  0  0  0  0  0  0  0  0
  150.2784  139.7350  156.9447 C   0  0  0  0  0  0  0  0  0  0  0  0
  151.5792  140.3622  157.1443 C   0  0  0  0  0  0  0  0  0  0  0  0
  151.6876  141.2677  157.9689 O   0  0  0  0  0  0  0  0  0  0  0  0
  152.6253  139.9065  156.3947 N   0  5  0  0  0  0  0  0  0  0  0  0
  152.5098  138.9013  155.4723 C   0  0  0  0  0  0  0  0  0  0  0  0
  153.4678  138.5026  154.8089 O   0  0  0  0  0  0  0  0  0  0  0  0
  149.3528  132.9072  154.0388 C   0  0  0  0  0  0  0  0  0  0  0  0
  148.5737  133.0169  152.7160 C   0  0  0  0  0  0  0  0  0  0  0  0
  146.5515  134.1341  151.0953 H   0  0  0  0  0  0  0  0  0  0  0  0
  145.2086  133.2393  151.8022 H   0  0  0  0  0  0  0  0  0  0  0  0
  146.5013  132.3770  150.9766 H   0  0  0  0  0  0  0  0  0  0  0  0
  146.7353  132.1844  153.4408 H   0  0  0  0  0  0  0  0  0  0  0  0
  146.9682  135.2255  153.4127 H   0  0  0  0  0  0  0  0  0  0  0  0
  145.6564  134.3052  154.1041 H   0  0  0  0  0  0  0  0  0  0  0  0
  147.2677  135.0264  155.8637 H   0  0  0  0  0  0  0  0  0  0  0  0
  147.1510  133.2912  155.7680 H   0  0  0  0  0  0  0  0  0  0  0  0
  149.4940  133.8277  155.9664 H   0  0  0  0  0  0  0  0  0  0  0  0
  149.0997  135.7563  153.7480 H   0  0  0  0  0  0  0  0  0  0  0  0
  151.9749  137.0977  153.7002 H   0  0  0  0  0  0  0  0  0  0  0  0
  150.2912  137.4984  153.6042 H   0  0  0  0  0  0  0  0  0  0  0  0
  149.2544  138.2301  155.8273 H   0  0  0  0  0  0  0  0  0  0  0  0
  149.4184  140.0500  157.5173 H   0  0  0  0  0  0  0  0  0  0  0  0
  150.4249  132.8780  153.8398 H   0  0  0  0  0  0  0  0  0  0  0  0
  149.1082  131.9575  154.5163 H   0  0  0  0  0  0  0  0  0  0  0  0
  148.8010  132.1540  152.0892 H   0  0  0  0  0  0  0  0  0  0  0  0
  148.9131  133.8935  152.1626 H   0  0  0  0  0  0  0  0  0  0  0  0
  1  2  1  0  0  0  0
  1 20  1  0  0  0  0
  1 21  1  0  0  0  0
  1 22  1  0  0  0  0
  2 19  1  0  0  0  0
  2  3  1  0  0  0  0
  2 23  1  0  0  0  0
  3  4  1  0  0  0  0
  3 24  1  0  0  0  0
  3 25  1  0  0  0  0
  4  5  1  0  0  0  0
  4 26  1  0  0  0  0
  4 27  1  0  0  0  0
  5  6  1  0  0  0  0
  5 18  1  0  0  0  0
  5 28  1  0  0  0  0
  6  7  1  0  0  0  0
  6 29  1  0  0  0  0
  7  8  2  0  0  0  0
  7  9  1  0  0  0  0
  9 10  1  0  0  0  0
  9 30  1  0  0  0  0
  9 31  1  0  0  0  0
 10 16  1  0  0  0  0
 10 11  1  0  0  0  0
 11 12  2  0  0  0  0
 11 32  1  0  0  0  0
 12 13  1  0  0  0  0
 12 33  1  0  0  0  0
 13 14  2  0  0  0  0
 13 15  1  0  0  0  0
 15 16  1  0  0  0  0
 16 17  2  0  0  0  0
 18 19  1  0  0  0  0
 18 34  1  0  0  0  0
 18 35  1  0  0  0  0
 19 36  1  0  0  0  0
 19 37  1  0  0  0  0
M  CHG  1  15  -1
M  END
> <s_m_source_file>
AV-unprocessed.smi

> <i_m_source_file_index>
414

> <i_lp_mmshare_version>
43012

> <i_f3d_flags>
0

> <s_epik_input>
W0NIM11bQ0BASF0xW0NIMl1bQ0gyXVtDQEhdKFtDSDJdW0NIMl0xKVtOSF1DKD1PKVtDSDJdbjJbY0hdW2NIXWMoPU8pW25IXWMyPU8=

> <s_epik_cmdline>
J2VwaWtfcHl0aG9uJywgJy1waCcsICc3LjAnLCAnLXRuJywgJzgnLCAnLW1hJywgJzIwMCcsICctbWV0YWxfYmluZGluZycsICctaW1hZScsICc8aW5maWxlLm1hZT4nLCAnLW9tYWUnLCAnPG91dGZpbGUubWFlPic=

> <r_lp_tautomer_probability>
0.999537

> <r_epik_Ionization_Penalty>
3.11551

> <r_epik_Ionization_Penalty_Charging>
2.90498e-08

> <r_epik_Ionization_Penalty_Neutral>
3.11551

> <r_epik_State_Penalty>
3.11459

> <r_epik_Charging_Adjusted_Penalty>
3.11459

> <i_epik_Tot_Q>
-1

> <i_epik_Tot_abs_Q>
1

> <r_epik_Metal_State_Penalty>
0.463083

> <b_epik_Metal_Only>
1

> <s_lp_Force_Field>
OPLS_2005

> <r_lp_Energy>
16.6581

> <b_lp_Chiralities_Consistent>
1

> <s_lp_Variant>
AV-unprocessed.smi:414-4

> <Gold.Version>
5.8.1

> <Gold.Id.Protein>
6NUR|6NUR_protein|mol2

> <Gold.PLP.Fitness>
39.5316

> <Gold.PLP.PLP>
-28.3912

> <Gold.PLP.part.hbond>
-3.7420

> <Gold.PLP.part.metal>
0.0000

> <Gold.PLP.part.buried>
-1.9909

> <Gold.PLP.part.nonpolar>
-22.9634

> <Gold.PLP.part.repulsive>
0.0867

> <Gold.PLP.ligand.clash>
0.0000

> <Gold.PLP.ligand.torsion>
0.2838

> <Gold.PLP.Chemscore.Hbond>
3.9000

> <Gold.PLP.Chemscore.CHOScore>
0.0000

> <Gold.PLP.Chemscore.Metal>
0.0000

> <Gold.Chemscore.Hbonds>
donor molecule, donor type, donor heavy atom, donor atom, acceptor molecule, acceptor atom, score
      L1  H     6    29       P1  7948  0.99
      P1  H  7997  8008       L1    15  2.00
      P1  H 10752 10764       L1     8  0.90

> <Gold.PLP.Chemscore.Internal.Correction>
0.0080

> <Gold.Rescore>
     Score         DG    S(hbond)    S(metal)    S(lipo)     H(rot)  DE(clash)    DE(int)     intcor
     13.16     -13.96       2.13        0.00      47.82       1.65       0.46       0.33       ----

> <Gold.Chemscore.Fitness>
13.1640

> <Gold.Chemscore.DG>
-13.9550

> <Gold.Chemscore.ZeroCoef>
-5.4800

> <Gold.Chemscore.Hbond>
2.1306

> <Gold.Chemscore.Metal>
0.0000

> <Gold.Chemscore.Lipo>
47.8235

> <Gold.Chemscore.Internal_Hbond>
0.0000

> <Gold.Chemscore.DEClash>
0.4636

> <Gold.Chemscore.DEInternal>
0.3274

> <Gold.Chemscore.Rot>
1.6549

> <Gold.Chemscore.Internal.Correction>
   9.000000E+99

> <Gold.Chemscore.Hbonds>
donor molecule, donor type, donor heavy atom, donor atom, acceptor molecule, acceptor atom, score
      L1  H     6    29       P1  7948  0.77
      P1  H  7997  8008       L1    15  0.39
      P1  H 10752 10764       L1     8  0.18

> <Gold.Chemscore.Hbond.Weighted>
-7.1161

> <Gold.Chemscore.Metal.Weighted>
-0.0000

> <Gold.Chemscore.Lipo.Weighted>
-5.5953

> <Gold.Chemscore.Internal_Hbond.Weighted>
0.0000

> <Gold.Chemscore.DEClash.Weighted>
0.4636

> <Gold.Chemscore.DEInternal.Weighted>
0.3274

> <Gold.Chemscore.Rot.Weighted>
4.2364

> <Gold.Chemscore.Internal.Correction.Weighted>
   9.000000E+99

> <Gold.Protein.RotatedTorsions>
[ 6907 6896 6895 6894 ] final   81.96 input  -60.11 | X-H torsion
[ 7974 7965 7964 7962 ] final  -63.43 input  175.53 | X-H torsion
[ 8008 7997 7996 7995 ] final  -56.18 input   59.86 | X-H torsion
[ 10167 10162 10161 10158 ] final  -31.69 input  -65.29 | X-H torsion
[ 10718 10713 10712 10709 ] final  149.36 input   66.30 | X-H torsion
[ 10763 10752 10751 10750 ] final  -32.38 input  -60.55 | X-H torsion
[ 11005 11000 10999 10996 ] final  137.79 input  -57.11 | X-H torsion

> <Gold.Protein.ActiveResidues>
 VAL166  LYS551  ARG553  GLY616  TRP617  ASP618  TYR619  PRO620  LYS621  CYS622 
 ASP623  PHE694  ASN695  SER759  ASP760  ASP761  ALA762  ILE779  LEU786  VAL792 
 PHE793  MET794  SER795  GLU796  ALA797  LYS798  CYS799  TRP800  GLU811  SER814 

> <Gold.Protein.RotatedAtoms>
  152.5284  134.3124  159.9118 H   0  0  0  0  0  0  0  0  0  0  0  0  # atno 6907 bound_to 6896
  151.3073  133.4089  159.2652 H   0  0  0  0  0  0  0  0  0  0  0  0  # atno 6908 bound_to 6896
  151.0068  134.9382  159.8042 H   0  0  0  0  0  0  0  0  0  0  0  0  # atno 6909 bound_to 6896
  145.7791  140.8772  143.0340 H   0  0  0  0  0  0  0  0  0  0  0  0  # atno 7974 bound_to 7965
  154.4221  140.1135  156.5597 H   0  0  0  0  0  0  0  0  0  0  0  0  # atno 8008 bound_to 7997
  155.6324  140.3496  155.4668 H   0  0  0  0  0  0  0  0  0  0  0  0  # atno 8009 bound_to 7997
  155.9937  140.1184  157.0604 H   0  0  0  0  0  0  0  0  0  0  0  0  # atno 8010 bound_to 7997
  140.7232  143.3751  151.1704 H   0  0  0  0  0  0  0  0  0  0  0  0  # atno 10167 bound_to 10162
  157.2971  131.0864  151.1418 H   0  0  0  0  0  0  0  0  0  0  0  0  # atno 10718 bound_to 10713
  153.8128  135.6881  153.4838 H   0  0  0  0  0  0  0  0  0  0  0  0  # atno 10763 bound_to 10752
  153.1617  135.4577  154.9780 H   0  0  0  0  0  0  0  0  0  0  0  0  # atno 10764 bound_to 10752
  154.7960  135.3319  154.7608 H   0  0  0  0  0  0  0  0  0  0  0  0  # atno 10765 bound_to 10752
  140.0138  134.9427  157.0333 H   0  0  0  0  0  0  0  0  0  0  0  0  # atno 11005 bound_to 11000
  144.6799  139.9963  143.7484 LP  0  0  0  0  0  0  0  0  0  0  0  0  # atno 17320 bound_to 7965
  146.0092  139.3156  143.0880 LP  0  0  0  0  0  0  0  0  0  0  0  0  # atno 17321 bound_to 7965
  139.7330  143.9043  152.3026 LP  0  0  0  0  0  0  0  0  0  0  0  0  # atno 17342 bound_to 10162
  139.8838  144.7003  150.8847 LP  0  0  0  0  0  0  0  0  0  0  0  0  # atno 17343 bound_to 10162
  157.2791  130.6741  149.6057 LP  0  0  0  0  0  0  0  0  0  0  0  0  # atno 17370 bound_to 10713
  155.9669  130.4455  150.5504 LP  0  0  0  0  0  0  0  0  0  0  0  0  # atno 17371 bound_to 10713
  140.4507  134.1585  155.7181 LP  0  0  0  0  0  0  0  0  0  0  0  0  # atno 17394 bound_to 11000
  141.1729  133.8573  157.1514 LP  0  0  0  0  0  0  0  0  0  0  0  0  # atno 17395 bound_to 11000

$$$$
