AV-unprocessed.smi:2186|AV-procd|sdf|8876|dock1
  -GOLD-   2272012 73D 1   1.00000     0.00000
 Structure written by MMmdl.
 43 44  0  0  0  0  0  0  0  0  1 V2000
  152.4257  144.3530  158.4893 C   0  0  0  0  0  0  0  0  0  0  0  0
  151.6708  143.6756  159.6425 C   0  0  0  0  0  0  0  0  0  0  0  0
  151.1469  144.6716  160.6873 C   0  0  0  0  0  0  0  0  0  0  0  0
  152.4694  142.5738  160.2646 C   0  0  0  0  0  0  0  0  0  0  0  0
  152.9635  141.5386  159.5789 N   0  0  0  0  0  0  0  0  0  0  0  0
  153.6601  140.6351  160.3883 C   0  0  0  0  0  0  0  0  0  0  0  0
  154.2701  139.4035  159.7848 C   0  0  0  0  0  0  0  0  0  0  0  0
  153.2296  138.2849  159.7145 C   0  0  0  0  0  0  0  0  0  0  0  0
  152.9673  137.6228  160.7184 O   0  0  0  0  0  0  0  0  0  0  0  0
  152.6404  138.0897  158.5243 N   0  0  0  0  0  0  0  0  0  0  0  0
  151.5937  137.1120  158.2583 C   0  0  0  0  0  0  0  0  0  0  0  0
  150.2199  137.7962  158.1321 C   0  0  0  0  0  0  0  0  0  0  0  0
  150.0774  138.6852  156.9808 N   0  0  0  0  0  0  0  0  0  0  0  0
  150.6185  138.0680  155.7746 C   0  0  0  0  0  0  0  0  0  0  0  0
  150.4770  138.9843  154.5472 C   0  0  0  0  0  0  0  0  0  0  0  0
  151.1230  140.2264  154.8053 O   0  0  0  0  0  0  0  0  0  0  0  0
  150.5989  140.8885  155.9518 C   0  0  0  0  0  0  0  0  0  0  0  0
  150.7303  139.9770  157.1848 C   0  0  0  0  0  0  0  0  0  0  0  0
  153.6979  141.0115  161.7081 C   0  0  0  0  0  0  0  0  0  0  0  0
  152.8494  142.5078  161.9822 S   0  0  0  0  0  0  0  0  0  0  0  0
  152.7091  143.6267  157.7269 H   0  0  0  0  0  0  0  0  0  0  0  0
  153.3363  144.8385  158.8418 H   0  0  0  0  0  0  0  0  0  0  0  0
  151.8092  145.1131  158.0092 H   0  0  0  0  0  0  0  0  0  0  0  0
  150.7922  143.2051  159.1997 H   0  0  0  0  0  0  0  0  0  0  0  0
  150.5446  144.1665  161.4429 H   0  0  0  0  0  0  0  0  0  0  0  0
  150.5224  145.4353  160.2236 H   0  0  0  0  0  0  0  0  0  0  0  0
  151.9661  145.1785  161.1982 H   0  0  0  0  0  0  0  0  0  0  0  0
  154.6530  139.6069  158.7837 H   0  0  0  0  0  0  0  0  0  0  0  0
  155.1216  139.0673  160.3774 H   0  0  0  0  0  0  0  0  0  0  0  0
  152.9153  138.6853  157.7564 H   0  0  0  0  0  0  0  0  0  0  0  0
  151.8389  136.5980  157.3285 H   0  0  0  0  0  0  0  0  0  0  0  0
  151.5945  136.3557  159.0439 H   0  0  0  0  0  0  0  0  0  0  0  0
  149.4318  137.0417  158.1123 H   0  0  0  0  0  0  0  0  0  0  0  0
  150.0563  138.3746  159.0428 H   0  0  0  0  0  0  0  0  0  0  0  0
  151.6722  137.8267  155.9233 H   0  0  0  0  0  0  0  0  0  0  0  0
  150.1074  137.1249  155.5794 H   0  0  0  0  0  0  0  0  0  0  0  0
  150.9313  138.5197  153.6717 H   0  0  0  0  0  0  0  0  0  0  0  0
  149.4255  139.1549  154.3110 H   0  0  0  0  0  0  0  0  0  0  0  0
  151.1459  141.8184  156.1075 H   0  0  0  0  0  0  0  0  0  0  0  0
  149.5552  141.1559  155.7797 H   0  0  0  0  0  0  0  0  0  0  0  0
  150.2978  140.4905  158.0429 H   0  0  0  0  0  0  0  0  0  0  0  0
  151.7873  139.8260  157.4101 H   0  0  0  0  0  0  0  0  0  0  0  0
  154.1675  140.4969  162.5335 H   0  0  0  0  0  0  0  0  0  0  0  0
  1  2  1  0  0  0  0
  1 21  1  0  0  0  0
  1 22  1  0  0  0  0
  1 23  1  0  0  0  0
  2  3  1  0  0  0  0
  2  4  1  0  0  0  0
  2 24  1  0  0  0  0
  3 25  1  0  0  0  0
  3 26  1  0  0  0  0
  3 27  1  0  0  0  0
  4 20  1  0  0  0  0
  4  5  2  0  0  0  0
  5  6  1  0  0  0  0
  6  7  1  0  0  0  0
  6 19  2  0  0  0  0
  7  8  1  0  0  0  0
  7 28  1  0  0  0  0
  7 29  1  0  0  0  0
  8  9  2  0  0  0  0
  8 10  1  0  0  0  0
 10 11  1  0  0  0  0
 10 30  1  0  0  0  0
 11 12  1  0  0  0  0
 11 31  1  0  0  0  0
 11 32  1  0  0  0  0
 12 13  1  0  0  0  0
 12 33  1  0  0  0  0
 12 34  1  0  0  0  0
 13 18  1  0  0  0  0
 13 14  1  0  0  0  0
 14 15  1  0  0  0  0
 14 35  1  0  0  0  0
 14 36  1  0  0  0  0
 15 16  1  0  0  0  0
 15 37  1  0  0  0  0
 15 38  1  0  0  0  0
 16 17  1  0  0  0  0
 17 18  1  0  0  0  0
 17 39  1  0  0  0  0
 17 40  1  0  0  0  0
 18 41  1  0  0  0  0
 18 42  1  0  0  0  0
 19 20  1  0  0  0  0
 19 43  1  0  0  0  0
M  END
> <s_m_source_file>
AV-unprocessed.smi

> <i_m_source_file_index>
2186

> <i_lp_mmshare_version>
43012

> <i_f3d_flags>
0

> <s_epik_input>
W0NIM11bQ0hdKFtDSDNdKWMxbmMoW2NIXXMxKVtDSDJdQyg9TylbTkhdW0NIMl1bQ0gyXU4yW0NIMl1bQ0gyXU9bQ0gyXVtDSDJdMg==

> <s_epik_cmdline>
J2VwaWtfcHl0aG9uJywgJy1waCcsICc3LjAnLCAnLXRuJywgJzgnLCAnLW1hJywgJzIwMCcsICctbWV0YWxfYmluZGluZycsICctaW1hZScsICc8aW5maWxlLm1hZT4nLCAnLW9tYWUnLCAnPG91dGZpbGUubWFlPic=

> <r_epik_Ionization_Penalty>
0.226788

> <r_epik_Ionization_Penalty_Charging>
0

> <r_epik_Ionization_Penalty_Neutral>
0.226788

> <r_epik_State_Penalty>
0.21727

> <r_epik_Charging_Adjusted_Penalty>
0.21727

> <i_epik_Tot_Q>
0

> <i_epik_Tot_abs_Q>
0

> <r_epik_Metal_State_Penalty>
0.217263

> <b_epik_Metal_Only>
0

> <s_lp_Force_Field>
OPLS_2005

> <r_lp_Energy>
12.6153

> <b_lp_Chiralities_Consistent>
1

> <s_lp_Variant>
AV-unprocessed.smi:2186-1

> <Gold.Version>
5.8.1

> <Gold.Id.Protein>
6NUR|6NUR_protein|mol2

> <Gold.PLP.Fitness>
42.4547

> <Gold.PLP.PLP>
-41.1845

> <Gold.PLP.part.hbond>
-0.8915

> <Gold.PLP.part.metal>
0.0000

> <Gold.PLP.part.buried>
-6.3730

> <Gold.PLP.part.nonpolar>
-34.8939

> <Gold.PLP.part.repulsive>
0.1559

> <Gold.PLP.ligand.clash>
0.0000

> <Gold.PLP.ligand.torsion>
0.9067

> <Gold.PLP.Chemscore.Hbond>
0.9750

> <Gold.PLP.Chemscore.CHOScore>
0.0000

> <Gold.PLP.Chemscore.Metal>
0.0000

> <Gold.Chemscore.Hbonds>
donor molecule, donor type, donor heavy atom, donor atom, acceptor molecule, acceptor atom, score
      P1  H  7989  7998       L1    16  1.00

> <Gold.PLP.Chemscore.Internal.Correction>
0.1586

> <Gold.Rescore>
     Score         DG    S(hbond)    S(metal)    S(lipo)     H(rot)  DE(clash)    DE(int)     intcor
     18.83     -19.75       1.94        0.00     104.20       1.73       0.00       0.92       ----

> <Gold.Chemscore.Fitness>
18.8281

> <Gold.Chemscore.DG>
-19.7474

> <Gold.Chemscore.ZeroCoef>
-5.4800

> <Gold.Chemscore.Hbond>
1.9444

> <Gold.Chemscore.Metal>
0.0000

> <Gold.Chemscore.Lipo>
104.1996

> <Gold.Chemscore.Internal_Hbond>
0.0000

> <Gold.Chemscore.DEClash>
0.0000

> <Gold.Chemscore.DEInternal>
0.9193

> <Gold.Chemscore.Rot>
1.7259

> <Gold.Chemscore.Internal.Correction>
   9.000000E+99

> <Gold.Chemscore.Hbonds>
donor molecule, donor type, donor heavy atom, donor atom, acceptor molecule, acceptor atom, score
      P1  H  7989  7998       L1    16  0.74

> <Gold.Chemscore.Hbond.Weighted>
-6.4943

> <Gold.Chemscore.Metal.Weighted>
-0.0000

> <Gold.Chemscore.Lipo.Weighted>
-12.1913

> <Gold.Chemscore.Internal_Hbond.Weighted>
0.0000

> <Gold.Chemscore.DEClash.Weighted>
0.0000

> <Gold.Chemscore.DEInternal.Weighted>
0.9193

> <Gold.Chemscore.Rot.Weighted>
4.4182

> <Gold.Chemscore.Internal.Correction.Weighted>
   9.000000E+99

> <Gold.Protein.RotatedTorsions>
[ 6907 6896 6895 6894 ] final   31.01 input  -60.11 | X-H torsion
[ 7974 7965 7964 7962 ] final -158.65 input  175.53 | X-H torsion
[ 8008 7997 7996 7995 ] final  153.15 input   59.86 | X-H torsion
[ 10167 10162 10161 10158 ] final  -19.01 input  -65.29 | X-H torsion
[ 10718 10713 10712 10709 ] final  -85.72 input   66.30 | X-H torsion
[ 10763 10752 10751 10750 ] final  124.01 input  -60.55 | X-H torsion
[ 11005 11000 10999 10996 ] final   69.78 input  -57.11 | X-H torsion

> <Gold.Protein.ActiveResidues>
 VAL166  LYS551  ARG553  GLY616  TRP617  ASP618  TYR619  PRO620  LYS621  CYS622 
 ASP623  PHE694  ASN695  SER759  ASP760  ASP761  ALA762  ILE779  LEU786  VAL792 
 PHE793  MET794  SER795  GLU796  ALA797  LYS798  CYS799  TRP800  GLU811  SER814 

> <Gold.Protein.RotatedAtoms>
  152.0541  134.9635  160.0574 H   0  0  0  0  0  0  0  0  0  0  0  0  # atno 6907 bound_to 6896
  152.1024  133.4252  159.4601 H   0  0  0  0  0  0  0  0  0  0  0  0  # atno 6908 bound_to 6896
  150.6840  134.2664  159.4613 H   0  0  0  0  0  0  0  0  0  0  0  0  # atno 6909 bound_to 6896
  144.7497  140.3797  143.6057 H   0  0  0  0  0  0  0  0  0  0  0  0  # atno 7974 bound_to 7965
  156.2595  140.2001  156.6445 H   0  0  0  0  0  0  0  0  0  0  0  0  # atno 8008 bound_to 7997
  154.6584  140.0563  157.0059 H   0  0  0  0  0  0  0  0  0  0  0  0  # atno 8009 bound_to 7997
  155.1313  140.3234  155.4476 H   0  0  0  0  0  0  0  0  0  0  0  0  # atno 8010 bound_to 7997
  140.7264  143.4860  151.0055 H   0  0  0  0  0  0  0  0  0  0  0  0  # atno 10167 bound_to 10162
  155.9994  130.4740  150.4606 H   0  0  0  0  0  0  0  0  0  0  0  0  # atno 10718 bound_to 10713
  153.6546  135.3357  155.3110 H   0  0  0  0  0  0  0  0  0  0  0  0  # atno 10763 bound_to 10752
  154.8529  135.4349  154.1868 H   0  0  0  0  0  0  0  0  0  0  0  0  # atno 10764 bound_to 10752
  153.2819  135.7009  153.7452 H   0  0  0  0  0  0  0  0  0  0  0  0  # atno 10765 bound_to 10752
  139.9635  134.7021  156.0596 H   0  0  0  0  0  0  0  0  0  0  0  0  # atno 11005 bound_to 11000
  145.6990  139.1657  143.2603 LP  0  0  0  0  0  0  0  0  0  0  0  0  # atno 17320 bound_to 7965
  146.1429  140.7033  142.9358 LP  0  0  0  0  0  0  0  0  0  0  0  0  # atno 17321 bound_to 7965
  139.8561  143.7375  152.3176 LP  0  0  0  0  0  0  0  0  0  0  0  0  # atno 17342 bound_to 10162
  139.7574  144.7517  151.0415 LP  0  0  0  0  0  0  0  0  0  0  0  0  # atno 17343 bound_to 10162
  157.2630  131.0571  151.2308 LP  0  0  0  0  0  0  0  0  0  0  0  0  # atno 17370 bound_to 10713
  157.3416  130.7036  149.6385 LP  0  0  0  0  0  0  0  0  0  0  0  0  # atno 17371 bound_to 10713
  141.1313  133.6586  156.3473 LP  0  0  0  0  0  0  0  0  0  0  0  0  # atno 17394 bound_to 11000
  140.5449  134.6085  157.5391 LP  0  0  0  0  0  0  0  0  0  0  0  0  # atno 17395 bound_to 11000

$$$$
