AV-unprocessed.smi:3165|AV-procd|sdf|12087|dock8
  -GOLD-   2272017513D 1   1.00000     0.00000
 Structure written by MMmdl.
 38 39  0  0  0  0  0  0  0  0  2 V2000
  148.8720  141.3018  156.4257 C   0  0  0  0  0  0  0  0  0  0  0  0
  150.2953  141.7723  156.0973 C   0  0  2  0  0  0  0  0  0  0  0  0
  151.3111  140.6309  156.3136 C   0  0  0  0  0  0  0  0  0  0  0  0
  150.9502  139.4121  155.6122 N   0  0  0  0  0  0  0  0  0  0  0  0
  151.2204  138.1068  155.9656 C   0  0  0  0  0  0  0  0  0  0  0  0
  150.6730  137.3052  155.0054 C   0  0  0  0  0  0  0  0  0  0  0  0
  150.0835  138.2239  154.0924 C   0  0  0  0  0  0  0  0  0  0  0  0
  150.2506  139.4845  154.4586 N   0  0  0  0  0  0  0  0  0  0  0  0
  150.6270  142.9501  156.9309 N   0  3  0  0  0  0  0  0  0  0  0  0
  150.4822  142.7448  158.3876 C   0  0  0  0  0  0  0  0  0  0  0  0
  151.5847  143.4819  159.1588 C   0  0  1  0  0  0  0  0  0  0  0  0
  151.2822  144.9872  159.2936 C   0  0  0  0  0  0  0  0  0  0  0  0
  152.3489  145.6774  160.1511 C   0  0  0  0  0  0  0  0  0  0  0  0
  152.4914  144.9431  161.4883 C   0  0  0  0  0  0  0  0  0  0  0  0
  152.7271  143.4432  161.2505 C   0  0  0  0  0  0  0  0  0  0  0  0
  151.6701  142.9061  160.4610 O   0  0  0  0  0  0  0  0  0  0  0  0
  148.5834  140.4563  155.8004 H   0  0  0  0  0  0  0  0  0  0  0  0
  148.1458  142.0973  156.2550 H   0  0  0  0  0  0  0  0  0  0  0  0
  148.7858  140.9895  157.4672 H   0  0  0  0  0  0  0  0  0  0  0  0
  150.3058  142.0617  155.0450 H   0  0  0  0  0  0  0  0  0  0  0  0
  152.3098  140.9393  155.9991 H   0  0  0  0  0  0  0  0  0  0  0  0
  151.3825  140.3936  157.3758 H   0  0  0  0  0  0  0  0  0  0  0  0
  151.7717  137.8599  156.8611 H   0  0  0  0  0  0  0  0  0  0  0  0
  150.6923  136.2262  154.9603 H   0  0  0  0  0  0  0  0  0  0  0  0
  149.5425  138.0136  153.1815 H   0  0  0  0  0  0  0  0  0  0  0  0
  151.5898  143.2005  156.7557 H   0  0  0  0  0  0  0  0  0  0  0  0
  149.5070  143.1126  158.7069 H   0  0  0  0  0  0  0  0  0  0  0  0
  150.5091  141.6776  158.6119 H   0  0  0  0  0  0  0  0  0  0  0  0
  152.5345  143.3492  158.6374 H   0  0  0  0  0  0  0  0  0  0  0  0
  151.2374  145.4547  158.3095 H   0  0  0  0  0  0  0  0  0  0  0  0
  150.3016  145.1268  159.7508 H   0  0  0  0  0  0  0  0  0  0  0  0
  153.3041  145.6719  159.6247 H   0  0  0  0  0  0  0  0  0  0  0  0
  152.0874  146.7229  160.3168 H   0  0  0  0  0  0  0  0  0  0  0  0
  153.3113  145.3687  162.0677 H   0  0  0  0  0  0  0  0  0  0  0  0
  151.5856  145.0798  162.0805 H   0  0  0  0  0  0  0  0  0  0  0  0
  153.6858  143.2722  160.7584 H   0  0  0  0  0  0  0  0  0  0  0  0
  152.7598  142.9133  162.2026 H   0  0  0  0  0  0  0  0  0  0  0  0
  150.0394  143.7206  156.6448 H   0  0  0  0  0  0  0  0  0  0  0  0
  1  2  1  0  0  0  0
  1 17  1  0  0  0  0
  1 18  1  0  0  0  0
  1 19  1  0  0  0  0
  2  3  1  0  0  0  0
  2  9  1  0  0  0  0
  2 20  1  0  0  0  0
  3  4  1  0  0  0  0
  3 21  1  0  0  0  0
  3 22  1  0  0  0  0
  4  8  1  0  0  0  0
  4  5  1  0  0  0  0
  5  6  2  0  0  0  0
  5 23  1  0  0  0  0
  6  7  1  0  0  0  0
  6 24  1  0  0  0  0
  7  8  2  0  0  0  0
  7 25  1  0  0  0  0
  9 10  1  0  0  0  0
  9 26  1  0  0  0  0
  9 38  1  0  0  0  0
 10 11  1  0  0  0  0
 10 27  1  0  0  0  0
 10 28  1  0  0  0  0
 11 16  1  0  0  0  0
 11 12  1  0  0  0  0
 11 29  1  0  0  0  0
 12 13  1  0  0  0  0
 12 30  1  0  0  0  0
 12 31  1  0  0  0  0
 13 14  1  0  0  0  0
 13 32  1  0  0  0  0
 13 33  1  0  0  0  0
 14 15  1  0  0  0  0
 14 34  1  0  0  0  0
 14 35  1  0  0  0  0
 15 16  1  0  0  0  0
 15 36  1  0  0  0  0
 15 37  1  0  0  0  0
M  CHG  1   9   1
M  END
> <s_m_source_file>
AV-unprocessed.smi

> <i_m_source_file_index>
3165

> <i_lp_mmshare_version>
43012

> <i_f3d_flags>
0

> <s_epik_input>
bjFbY0hdW2NIXVtjSF1uMVtDSDJdW0NAQEhdKFtDSDNdKVtOSF1bQ0gyXVtDQEBIXTJbQ0gyXVtDSDJdW0NIMl1bQ0gyXU8y

> <s_epik_cmdline>
J2VwaWtfcHl0aG9uJywgJy1waCcsICc3LjAnLCAnLXRuJywgJzgnLCAnLW1hJywgJzIwMCcsICctbWV0YWxfYmluZGluZycsICctaW1hZScsICc8aW5maWxlLm1hZT4nLCAnLW9tYWUnLCAnPG91dGZpbGUubWFlPic=

> <r_lp_tautomer_probability>
1

> <r_epik_Ionization_Penalty>
0.00849196

> <r_epik_Ionization_Penalty_Charging>
0.00848754

> <r_epik_Ionization_Penalty_Neutral>
4.42049e-06

> <r_epik_State_Penalty>
0.00639836

> <r_epik_Charging_Adjusted_Penalty>
0.0148859

> <i_epik_Tot_Q>
1

> <i_epik_Tot_abs_Q>
1

> <r_epik_Metal_State_Penalty>
0.00639878

> <b_epik_Metal_Only>
0

> <s_lp_Force_Field>
OPLS_2005

> <r_lp_Energy>
13.1527

> <b_lp_Chiralities_Consistent>
1

> <s_lp_Variant>
AV-unprocessed.smi:3165-3

> <Gold.Version>
5.8.1

> <Gold.Id.Protein>
6NUR|6NUR_protein|mol2

> <Gold.PLP.Fitness>
48.2912

> <Gold.PLP.PLP>
-35.3130

> <Gold.PLP.part.hbond>
-3.0000

> <Gold.PLP.part.metal>
0.0000

> <Gold.PLP.part.buried>
-3.0697

> <Gold.PLP.part.nonpolar>
-28.6349

> <Gold.PLP.part.repulsive>
0.2331

> <Gold.PLP.ligand.clash>
0.0000

> <Gold.PLP.ligand.torsion>
0.8422

> <Gold.PLP.Chemscore.Hbond>
3.0000

> <Gold.PLP.Chemscore.CHOScore>
1.8779

> <Gold.PLP.Chemscore.Metal>
0.0000

> <Gold.Chemscore.Hbonds>
donor molecule, donor type, donor heavy atom, donor atom, acceptor molecule, acceptor atom, score
      L1  H     9    38       P1  8028  2.00
      P1  H  7989  7998       L1     8  0.48
      L1  C     7    25       P1  7948  1.00
      L1  C     7    25       P1  7957  0.16

> <Gold.PLP.Chemscore.Internal.Correction>
0.0290

> <Gold.Rescore>
     Score         DG    S(hbond)    S(metal)    S(lipo)     H(rot)  DE(clash)    DE(int)     intcor
     17.79     -19.98       1.99        0.00     103.05       1.64       1.48       0.71       ----

> <Gold.Chemscore.Fitness>
17.7869

> <Gold.Chemscore.DG>
-19.9778

> <Gold.Chemscore.ZeroCoef>
-5.4800

> <Gold.Chemscore.Hbond>
1.9912

> <Gold.Chemscore.Metal>
0.0000

> <Gold.Chemscore.Lipo>
103.0508

> <Gold.Chemscore.Internal_Hbond>
0.0000

> <Gold.Chemscore.DEClash>
1.4849

> <Gold.Chemscore.DEInternal>
0.7059

> <Gold.Chemscore.Rot>
1.6444

> <Gold.Chemscore.Internal.Correction>
   9.000000E+99

> <Gold.Chemscore.Hbonds>
donor molecule, donor type, donor heavy atom, donor atom, acceptor molecule, acceptor atom, score
      L1  H     9    38       P1  8028  1.00
      P1  H  7989  7998       L1     8  0.06

> <Gold.Chemscore.Hbond.Weighted>
-6.6505

> <Gold.Chemscore.Metal.Weighted>
-0.0000

> <Gold.Chemscore.Lipo.Weighted>
-12.0569

> <Gold.Chemscore.Internal_Hbond.Weighted>
0.0000

> <Gold.Chemscore.DEClash.Weighted>
1.4849

> <Gold.Chemscore.DEInternal.Weighted>
0.7059

> <Gold.Chemscore.Rot.Weighted>
4.2097

> <Gold.Chemscore.Internal.Correction.Weighted>
   9.000000E+99

> <Gold.Protein.RotatedTorsions>
[ 6907 6896 6895 6894 ] final    8.89 input  -60.11 | X-H torsion
[ 7974 7965 7964 7962 ] final  -42.41 input  175.53 | X-H torsion
[ 8008 7997 7996 7995 ] final -165.00 input   59.86 | X-H torsion
[ 10167 10162 10161 10158 ] final    8.73 input  -65.29 | X-H torsion
[ 10718 10713 10712 10709 ] final  -13.78 input   66.30 | X-H torsion
[ 10763 10752 10751 10750 ] final -170.74 input  -60.55 | X-H torsion
[ 11005 11000 10999 10996 ] final  130.12 input  -57.11 | X-H torsion

> <Gold.Protein.ActiveResidues>
 VAL166  LYS551  ARG553  GLY616  TRP617  ASP618  TYR619  PRO620  LYS621  CYS622 
 ASP623  PHE694  ASN695  SER759  ASP760  ASP761  ALA762  ILE779  LEU786  VAL792 
 PHE793  MET794  SER795  GLU796  ALA797  LYS798  CYS799  TRP800  GLU811  SER814 

> <Gold.Protein.RotatedAtoms>
  151.7133  135.0908  160.0271 H   0  0  0  0  0  0  0  0  0  0  0  0  # atno 6907 bound_to 6896
  152.3648  133.6338  159.6050 H   0  0  0  0  0  0  0  0  0  0  0  0  # atno 6908 bound_to 6896
  150.7630  133.9282  159.3460 H   0  0  0  0  0  0  0  0  0  0  0  0  # atno 6909 bound_to 6896
  146.0118  140.6955  142.9220 H   0  0  0  0  0  0  0  0  0  0  0  0  # atno 7974 bound_to 7965
  155.8435  140.0952  157.1719 H   0  0  0  0  0  0  0  0  0  0  0  0  # atno 8008 bound_to 7997
  154.3982  140.1396  156.3819 H   0  0  0  0  0  0  0  0  0  0  0  0  # atno 8009 bound_to 7997
  155.8038  140.3452  155.5420 H   0  0  0  0  0  0  0  0  0  0  0  0  # atno 8010 bound_to 7997
  140.6297  143.8022  150.7279 H   0  0  0  0  0  0  0  0  0  0  0  0  # atno 10167 bound_to 10162
  156.6254  130.4887  149.6149 H   0  0  0  0  0  0  0  0  0  0  0  0  # atno 10718 bound_to 10713
  154.6382  135.2895  155.0135 H   0  0  0  0  0  0  0  0  0  0  0  0  # atno 10763 bound_to 10752
  154.1272  135.6539  153.4918 H   0  0  0  0  0  0  0  0  0  0  0  0  # atno 10764 bound_to 10752
  153.0313  135.5301  154.7238 H   0  0  0  0  0  0  0  0  0  0  0  0  # atno 10765 bound_to 10752
  139.9654  134.9592  156.9247 H   0  0  0  0  0  0  0  0  0  0  0  0  # atno 11005 bound_to 11000
  144.6956  140.3412  143.7199 LP  0  0  0  0  0  0  0  0  0  0  0  0  # atno 17320 bound_to 7965
  145.7330  139.1741  143.2420 LP  0  0  0  0  0  0  0  0  0  0  0  0  # atno 17321 bound_to 7965
  140.1631  143.4259  152.2053 LP  0  0  0  0  0  0  0  0  0  0  0  0  # atno 17342 bound_to 10162
  139.5512  144.7339  151.4429 LP  0  0  0  0  0  0  0  0  0  0  0  0  # atno 17343 bound_to 10162
  156.2277  130.6776  151.1433 LP  0  0  0  0  0  0  0  0  0  0  0  0  # atno 17370 bound_to 10713
  157.7215  131.0678  150.6113 LP  0  0  0  0  0  0  0  0  0  0  0  0  # atno 17371 bound_to 10713
  140.5408  134.0721  155.7341 LP  0  0  0  0  0  0  0  0  0  0  0  0  # atno 17394 bound_to 11000
  141.1333  133.9264  157.2488 LP  0  0  0  0  0  0  0  0  0  0  0  0  # atno 17395 bound_to 11000

$$$$
