AV-unprocessed.smi:912|AV-procd|sdf|4146|dock5
  -GOLD-   22720 2 53D 1   1.00000     0.00000
 Structure written by MMmdl.
 26 26  0  0  0  0  0  0  0  0  3 V2000
  146.5237  138.7118  151.6526 C   0  0  0  0  0  0  0  0  0  0  0  0
  147.7874  138.7745  152.4231 N   0  3  0  0  0  0  0  0  0  0  0  0
  147.7116  139.1446  153.8682 C   0  0  1  0  0  0  0  0  0  0  0  0
  146.8805  140.4451  154.0290 C   0  0  0  0  0  0  0  0  0  0  0  0
  147.0721  137.9593  154.6484 C   0  0  0  0  0  0  0  0  0  0  0  0
  147.6900  136.7762  154.4318 N   0  5  0  0  0  0  0  0  0  0  0  0
  146.0955  138.1522  155.3712 O   0  0  0  0  0  0  0  0  0  0  0  0
  149.1280  139.3984  154.4308 C   0  0  0  0  0  0  0  0  0  0  0  0
  150.1784  138.4516  154.3155 C   0  0  0  0  0  0  0  0  0  0  0  0
  151.4442  138.7643  154.8504 C   0  0  0  0  0  0  0  0  0  0  0  0
  151.7244  139.9296  155.4684 N   0  0  0  0  0  0  0  0  0  0  0  0
  150.7306  140.8342  155.5786 C   0  0  0  0  0  0  0  0  0  0  0  0
  149.4309  140.6202  155.0802 C   0  0  0  0  0  0  0  0  0  0  0  0
  146.7295  138.3151  150.6586 H   0  0  0  0  0  0  0  0  0  0  0  0
  146.0830  139.7002  151.5244 H   0  0  0  0  0  0  0  0  0  0  0  0
  145.7906  138.0578  152.1245 H   0  0  0  0  0  0  0  0  0  0  0  0
  148.2171  137.8608  152.3858 H   0  0  0  0  0  0  0  0  0  0  0  0
  146.8450  140.7836  155.0648 H   0  0  0  0  0  0  0  0  0  0  0  0
  145.8447  140.3192  153.7131 H   0  0  0  0  0  0  0  0  0  0  0  0
  147.3075  141.2578  153.4404 H   0  0  0  0  0  0  0  0  0  0  0  0
  148.2376  136.6482  153.5728 H   0  0  0  0  0  0  0  0  0  0  0  0
  150.0454  137.4939  153.8364 H   0  0  0  0  0  0  0  0  0  0  0  0
  152.2563  138.0561  154.7770 H   0  0  0  0  0  0  0  0  0  0  0  0
  150.9783  141.7588  156.0786 H   0  0  0  0  0  0  0  0  0  0  0  0
  148.6786  141.3855  155.2050 H   0  0  0  0  0  0  0  0  0  0  0  0
  148.3993  139.4338  151.9657 H   0  0  0  0  0  0  0  0  0  0  0  0
  1  2  1  0  0  0  0
  1 14  1  0  0  0  0
  1 15  1  0  0  0  0
  1 16  1  0  0  0  0
  2  3  1  0  0  0  0
  2 17  1  0  0  0  0
  2 26  1  0  0  0  0
  3  4  1  0  0  0  0
  3  5  1  0  0  0  0
  3  8  1  0  0  0  0
  4 18  1  0  0  0  0
  4 19  1  0  0  0  0
  4 20  1  0  0  0  0
  5  6  1  0  0  0  0
  5  7  2  0  0  0  0
  6 21  1  0  0  0  0
  8 13  1  0  0  0  0
  8  9  2  0  0  0  0
  9 10  1  0  0  0  0
  9 22  1  0  0  0  0
 10 11  2  0  0  0  0
 10 23  1  0  0  0  0
 11 12  1  0  0  0  0
 12 13  2  0  0  0  0
 12 24  1  0  0  0  0
 13 25  1  0  0  0  0
M  CHG  1   2   1
M  CHG  1   6  -1
M  END
> <s_m_source_file>
AV-unprocessed.smi

> <i_m_source_file_index>
912

> <i_lp_mmshare_version>
43012

> <i_f3d_flags>
0

> <s_epik_input>
W0NIM11bTkhdW0NAQF0oW0NIM10pKEMoPU8pW05IMl0pYzFbY0hdW2NIXW5bY0hdW2NIXTE=

> <s_epik_cmdline>
J2VwaWtfcHl0aG9uJywgJy1waCcsICc3LjAnLCAnLXRuJywgJzgnLCAnLW1hJywgJzIwMCcsICctbWV0YWxfYmluZGluZycsICctaW1hZScsICc8aW5maWxlLm1hZT4nLCAnLW9tYWUnLCAnPG91dGZpbGUubWFlPic=

> <r_epik_Ionization_Penalty>
6.88213

> <r_epik_Ionization_Penalty_Charging>
6.88153

> <r_epik_Ionization_Penalty_Neutral>
0.000601258

> <r_epik_State_Penalty>
7.02604

> <r_epik_Charging_Adjusted_Penalty>
13.9076

> <i_epik_Tot_Q>
0

> <i_epik_Tot_abs_Q>
2

> <r_epik_Metal_State_Penalty>
3.10652

> <b_epik_Metal_Only>
1

> <s_lp_Force_Field>
OPLS_2005

> <r_lp_Energy>
7.69215

> <b_lp_Chiralities_Consistent>
1

> <s_lp_Variant>
AV-unprocessed.smi:912-7

> <Gold.Version>
5.8.1

> <Gold.Id.Protein>
6NUR|6NUR_protein|mol2

> <Gold.PLP.Fitness>
36.5844

> <Gold.PLP.PLP>
-25.1401

> <Gold.PLP.part.hbond>
-3.9535

> <Gold.PLP.part.metal>
0.0000

> <Gold.PLP.part.buried>
-2.3478

> <Gold.PLP.part.nonpolar>
-19.6524

> <Gold.PLP.part.repulsive>
0.1104

> <Gold.PLP.ligand.clash>
0.0000

> <Gold.PLP.ligand.torsion>
0.2955

> <Gold.PLP.Chemscore.Hbond>
4.0088

> <Gold.PLP.Chemscore.CHOScore>
0.0000

> <Gold.PLP.Chemscore.Metal>
0.0000

> <Gold.Chemscore.Hbonds>
donor molecule, donor type, donor heavy atom, donor atom, acceptor molecule, acceptor atom, score
      L1  H     2    17       P1  7948  2.00
      L1  H     2    26       P1  7957  1.00
      L1  H     6    21       P1  7948  1.00

> <Gold.PLP.Chemscore.Internal.Correction>
0.0089

> <Gold.Rescore>
     Score         DG    S(hbond)    S(metal)    S(lipo)     H(rot)  DE(clash)    DE(int)     intcor
     16.70     -17.57       2.98        0.00      57.66       1.80       0.06       0.81       ----

> <Gold.Chemscore.Fitness>
16.7009

> <Gold.Chemscore.DG>
-17.5749

> <Gold.Chemscore.ZeroCoef>
-5.4800

> <Gold.Chemscore.Hbond>
2.9839

> <Gold.Chemscore.Metal>
0.0000

> <Gold.Chemscore.Lipo>
57.6590

> <Gold.Chemscore.Internal_Hbond>
0.0000

> <Gold.Chemscore.DEClash>
0.0601

> <Gold.Chemscore.DEInternal>
0.8139

> <Gold.Chemscore.Rot>
1.8037

> <Gold.Chemscore.Internal.Correction>
   9.000000E+99

> <Gold.Chemscore.Hbonds>
donor molecule, donor type, donor heavy atom, donor atom, acceptor molecule, acceptor atom, score
      L1  H     2    17       P1  7948  1.00
      L1  H     2    26       P1  7957  0.95
      L1  H     6    21       P1  7948  1.00

> <Gold.Chemscore.Hbond.Weighted>
-9.9662

> <Gold.Chemscore.Metal.Weighted>
-0.0000

> <Gold.Chemscore.Lipo.Weighted>
-6.7461

> <Gold.Chemscore.Internal_Hbond.Weighted>
0.0000

> <Gold.Chemscore.DEClash.Weighted>
0.0601

> <Gold.Chemscore.DEInternal.Weighted>
0.8139

> <Gold.Chemscore.Rot.Weighted>
4.6174

> <Gold.Chemscore.Internal.Correction.Weighted>
   9.000000E+99

> <Gold.Protein.RotatedTorsions>
[ 6907 6896 6895 6894 ] final   12.29 input  -60.11 | X-H torsion
[ 7974 7965 7964 7962 ] final   98.87 input  175.53 | X-H torsion
[ 8008 7997 7996 7995 ] final  -20.23 input   59.86 | X-H torsion
[ 10167 10162 10161 10158 ] final  135.64 input  -65.29 | X-H torsion
[ 10718 10713 10712 10709 ] final  170.37 input   66.30 | X-H torsion
[ 10763 10752 10751 10750 ] final  175.70 input  -60.55 | X-H torsion
[ 11005 11000 10999 10996 ] final    9.61 input  -57.11 | X-H torsion

> <Gold.Protein.ActiveResidues>
 VAL166  LYS551  ARG553  GLY616  TRP617  ASP618  TYR619  PRO620  LYS621  CYS622 
 ASP623  PHE694  ASN695  SER759  ASP760  ASP761  ALA762  ILE779  LEU786  VAL792 
 PHE793  MET794  SER795  GLU796  ALA797  LYS798  CYS799  TRP800  GLU811  SER814 

> <Gold.Protein.RotatedAtoms>
  151.7679  135.0794  160.0355 H   0  0  0  0  0  0  0  0  0  0  0  0  # atno 6907 bound_to 6896
  152.3308  133.5952  159.5817 H   0  0  0  0  0  0  0  0  0  0  0  0  # atno 6908 bound_to 6896
  150.7422  133.9786  159.3611 H   0  0  0  0  0  0  0  0  0  0  0  0  # atno 6909 bound_to 6896
  145.4064  139.2340  143.3272 H   0  0  0  0  0  0  0  0  0  0  0  0  # atno 7974 bound_to 7965
  154.4783  140.2067  155.9824 H   0  0  0  0  0  0  0  0  0  0  0  0  # atno 8008 bound_to 7997
  156.1125  140.3226  155.8063 H   0  0  0  0  0  0  0  0  0  0  0  0  # atno 8009 bound_to 7997
  155.4610  140.0524  157.2981 H   0  0  0  0  0  0  0  0  0  0  0  0  # atno 8010 bound_to 7997
  139.5209  144.6506  151.5312 H   0  0  0  0  0  0  0  0  0  0  0  0  # atno 10167 bound_to 10162
  157.0091  131.0199  151.2808 H   0  0  0  0  0  0  0  0  0  0  0  0  # atno 10718 bound_to 10713
  154.4711  135.2771  155.1642 H   0  0  0  0  0  0  0  0  0  0  0  0  # atno 10763 bound_to 10752
  154.3390  135.6174  153.5591 H   0  0  0  0  0  0  0  0  0  0  0  0  # atno 10764 bound_to 10752
  152.9864  135.5784  154.5093 H   0  0  0  0  0  0  0  0  0  0  0  0  # atno 10765 bound_to 10752
  140.5238  134.0533  155.7852 H   0  0  0  0  0  0  0  0  0  0  0  0  # atno 11005 bound_to 11000
  146.2727  140.4769  142.8808 LP  0  0  0  0  0  0  0  0  0  0  0  0  # atno 17320 bound_to 7965
  144.8339  140.6751  143.6273 LP  0  0  0  0  0  0  0  0  0  0  0  0  # atno 17321 bound_to 7965
  140.6310  143.9077  150.6605 LP  0  0  0  0  0  0  0  0  0  0  0  0  # atno 17342 bound_to 10162
  140.2381  143.3685  152.1510 LP  0  0  0  0  0  0  0  0  0  0  0  0  # atno 17343 bound_to 10162
  157.5334  130.8073  149.7943 LP  0  0  0  0  0  0  0  0  0  0  0  0  # atno 17370 bound_to 10713
  156.0143  130.3820  150.2162 LP  0  0  0  0  0  0  0  0  0  0  0  0  # atno 17371 bound_to 10713
  141.1320  133.9286  157.2516 LP  0  0  0  0  0  0  0  0  0  0  0  0  # atno 17394 bound_to 11000
  139.9591  135.0158  156.9212 LP  0  0  0  0  0  0  0  0  0  0  0  0  # atno 17395 bound_to 11000

$$$$
