AV-unprocessed.smi:1281|AV-procd|sdf|5359|dock10
  -GOLD-   22720 4503D 1   1.00000     0.00000
 Structure written by MMmdl.
 45 46  0  0  0  0  0  0  0  0  1 V2000
  156.1101  138.8558  163.2030 C   0  0  0  0  0  0  0  0  0  0  0  0
  156.9854  139.4504  164.1444 O   0  0  0  0  0  0  0  0  0  0  0  0
  156.6993  139.0584  165.4774 C   0  0  0  0  0  0  0  0  0  0  0  0
  157.2002  140.1413  166.4465 C   0  0  0  0  0  0  0  0  0  0  0  0
  156.5818  141.4439  166.1761 N   0  0  0  0  0  0  0  0  0  0  0  0
  155.7312  141.4464  165.0833 N   0  0  0  0  0  0  0  0  0  0  0  0
  155.1258  142.5345  164.7323 C   0  0  0  0  0  0  0  0  0  0  0  0
  154.2097  142.5801  163.5592 C   0  0  0  0  0  0  0  0  0  0  0  0
  153.2462  143.3472  163.5160 O   0  0  0  0  0  0  0  0  0  0  0  0
  154.5108  141.7316  162.5593 N   0  0  0  0  0  0  0  0  0  0  0  0
  153.7615  141.5974  161.3159 C   0  0  0  0  0  0  0  0  0  0  0  0
  153.5999  142.9505  160.6007 C   0  0  0  0  0  0  0  0  0  0  0  0
  152.7430  142.8520  159.3499 C   0  0  0  0  0  0  0  0  0  0  0  0
  152.0620  141.7316  159.0393 C   0  0  0  0  0  0  0  0  0  0  0  0
  151.2083  141.5686  157.7938 C   0  0  0  0  0  0  0  0  0  0  0  0
  151.4679  142.6741  156.7566 C   0  0  0  0  0  0  0  0  0  0  0  0
  151.5647  144.0502  157.4268 C   0  0  0  0  0  0  0  0  0  0  0  0
  152.7032  144.0909  158.4620 C   0  0  0  0  0  0  0  0  0  0  0  0
  155.3198  143.7672  165.4774 C   0  0  0  0  0  0  0  0  0  0  0  0
  156.1581  143.7511  166.5369 C   0  0  0  0  0  0  0  0  0  0  0  0
  156.8638  142.5363  166.9482 C   0  0  0  0  0  0  0  0  0  0  0  0
  157.6425  142.4999  167.9006 O   0  0  0  0  0  0  0  0  0  0  0  0
  156.3728  139.1882  162.1986 H   0  0  0  0  0  0  0  0  0  0  0  0
  155.0742  139.1409  163.3920 H   0  0  0  0  0  0  0  0  0  0  0  0
  156.1850  137.7678  163.2280 H   0  0  0  0  0  0  0  0  0  0  0  0
  155.6219  138.9352  165.5958 H   0  0  0  0  0  0  0  0  0  0  0  0
  157.1619  138.0960  165.7019 H   0  0  0  0  0  0  0  0  0  0  0  0
  157.0014  139.8331  167.4746 H   0  0  0  0  0  0  0  0  0  0  0  0
  158.2863  140.2219  166.3767 H   0  0  0  0  0  0  0  0  0  0  0  0
  155.3194  141.1368  162.6722 H   0  0  0  0  0  0  0  0  0  0  0  0
  154.2990  140.8949  160.6789 H   0  0  0  0  0  0  0  0  0  0  0  0
  152.7855  141.1520  161.5164 H   0  0  0  0  0  0  0  0  0  0  0  0
  153.1518  143.6753  161.2819 H   0  0  0  0  0  0  0  0  0  0  0  0
  154.5763  143.3524  160.3275 H   0  0  0  0  0  0  0  0  0  0  0  0
  152.1008  140.8787  159.7012 H   0  0  0  0  0  0  0  0  0  0  0  0
  151.4021  140.5916  157.3503 H   0  0  0  0  0  0  0  0  0  0  0  0
  150.1617  141.5766  158.0993 H   0  0  0  0  0  0  0  0  0  0  0  0
  152.3999  142.4675  156.2291 H   0  0  0  0  0  0  0  0  0  0  0  0
  150.6793  142.6716  156.0038 H   0  0  0  0  0  0  0  0  0  0  0  0
  151.7154  144.8275  156.6773 H   0  0  0  0  0  0  0  0  0  0  0  0
  150.6172  144.2755  157.9184 H   0  0  0  0  0  0  0  0  0  0  0  0
  152.5992  144.9820  159.0819 H   0  0  0  0  0  0  0  0  0  0  0  0
  153.6618  144.1729  157.9491 H   0  0  0  0  0  0  0  0  0  0  0  0
  154.8126  144.6786  165.1961 H   0  0  0  0  0  0  0  0  0  0  0  0
  156.3132  144.6605  167.0986 H   0  0  0  0  0  0  0  0  0  0  0  0
  1  2  1  0  0  0  0
  1 23  1  0  0  0  0
  1 24  1  0  0  0  0
  1 25  1  0  0  0  0
  2  3  1  0  0  0  0
  3  4  1  0  0  0  0
  3 26  1  0  0  0  0
  3 27  1  0  0  0  0
  4  5  1  0  0  0  0
  4 28  1  0  0  0  0
  4 29  1  0  0  0  0
  5 21  1  0  0  0  0
  5  6  1  0  0  0  0
  6  7  2  0  0  0  0
  7  8  1  0  0  0  0
  7 19  1  0  0  0  0
  8  9  2  0  0  0  0
  8 10  1  0  0  0  0
 10 11  1  0  0  0  0
 10 30  1  0  0  0  0
 11 12  1  0  0  0  0
 11 31  1  0  0  0  0
 11 32  1  0  0  0  0
 12 13  1  0  0  0  0
 12 33  1  0  0  0  0
 12 34  1  0  0  0  0
 13 18  1  0  0  0  0
 13 14  2  0  0  0  0
 14 15  1  0  0  0  0
 14 35  1  0  0  0  0
 15 16  1  0  0  0  0
 15 36  1  0  0  0  0
 15 37  1  0  0  0  0
 16 17  1  0  0  0  0
 16 38  1  0  0  0  0
 16 39  1  0  0  0  0
 17 18  1  0  0  0  0
 17 40  1  0  0  0  0
 17 41  1  0  0  0  0
 18 42  1  0  0  0  0
 18 43  1  0  0  0  0
 19 20  2  0  0  0  0
 19 44  1  0  0  0  0
 20 21  1  0  0  0  0
 20 45  1  0  0  0  0
 21 22  2  0  0  0  0
M  END
> <s_m_source_file>
AV-unprocessed.smi

> <i_m_source_file_index>
1281

> <i_lp_mmshare_version>
43012

> <i_f3d_flags>
0

> <s_epik_input>
W0NIM11PW0NIMl1bQ0gyXW4xbmMoW2NIXVtjSF1jMT1PKUMoPU8pW05IXVtDSDJdW0NIMl1DMj1bQ0hdW0NIMl1bQ0gyXVtDSDJdW0NIMl0y

> <s_epik_cmdline>
J2VwaWtfcHl0aG9uJywgJy1waCcsICc3LjAnLCAnLXRuJywgJzgnLCAnLW1hJywgJzIwMCcsICctbWV0YWxfYmluZGluZycsICctaW1hZScsICc8aW5maWxlLm1hZT4nLCAnLW9tYWUnLCAnPG91dGZpbGUubWFlPic=

> <r_lp_tautomer_probability>
1

> <r_epik_Ionization_Penalty>
8.17845e-07

> <r_epik_Ionization_Penalty_Charging>
5.79962e-09

> <r_epik_Ionization_Penalty_Neutral>
8.12046e-07

> <r_epik_State_Penalty>
-0

> <r_epik_Charging_Adjusted_Penalty>
5.79962e-09

> <i_epik_Tot_Q>
0

> <i_epik_Tot_abs_Q>
0

> <r_epik_Metal_State_Penalty>
-0

> <b_epik_Metal_Only>
0

> <s_lp_Force_Field>
OPLS_2005

> <r_lp_Energy>
28.483

> <b_lp_Chiralities_Consistent>
1

> <s_lp_Variant>
AV-unprocessed.smi:1281-1

> <Gold.Version>
5.8.1

> <Gold.Id.Protein>
6NUR|6NUR_protein|mol2

> <Gold.PLP.Fitness>
43.2676

> <Gold.PLP.PLP>
-44.4573

> <Gold.PLP.part.hbond>
-1.0000

> <Gold.PLP.part.metal>
0.0000

> <Gold.PLP.part.buried>
-5.8509

> <Gold.PLP.part.nonpolar>
-37.2674

> <Gold.PLP.part.repulsive>
0.2973

> <Gold.PLP.ligand.clash>
0.0000

> <Gold.PLP.ligand.torsion>
0.6336

> <Gold.PLP.Chemscore.Hbond>
0.0000

> <Gold.PLP.Chemscore.CHOScore>
0.0000

> <Gold.PLP.Chemscore.Metal>
0.0000

> <Gold.PLP.Chemscore.Internal.Correction>
0.0774

> <Gold.Rescore>
     Score         DG    S(hbond)    S(metal)    S(lipo)     H(rot)  DE(clash)    DE(int)     intcor
     12.97     -15.39       0.00        0.00     125.53       1.86       0.11       2.31       ----

> <Gold.Chemscore.Fitness>
12.9719

> <Gold.Chemscore.DG>
-15.3927

> <Gold.Chemscore.ZeroCoef>
-5.4800

> <Gold.Chemscore.Hbond>
0.0000

> <Gold.Chemscore.Metal>
0.0000

> <Gold.Chemscore.Lipo>
125.5282

> <Gold.Chemscore.Internal_Hbond>
0.0000

> <Gold.Chemscore.DEClash>
0.1067

> <Gold.Chemscore.DEInternal>
2.3140

> <Gold.Chemscore.Rot>
1.8649

> <Gold.Chemscore.Internal.Correction>
   9.000000E+99

> <Gold.Chemscore.Hbond.Weighted>
-0.0000

> <Gold.Chemscore.Metal.Weighted>
-0.0000

> <Gold.Chemscore.Lipo.Weighted>
-14.6868

> <Gold.Chemscore.Internal_Hbond.Weighted>
0.0000

> <Gold.Chemscore.DEClash.Weighted>
0.1067

> <Gold.Chemscore.DEInternal.Weighted>
2.3140

> <Gold.Chemscore.Rot.Weighted>
4.7741

> <Gold.Chemscore.Internal.Correction.Weighted>
   9.000000E+99

> <Gold.Protein.RotatedTorsions>
[ 6907 6896 6895 6894 ] final   49.22 input  -60.11 | X-H torsion
[ 7974 7965 7964 7962 ] final -150.39 input  175.53 | X-H torsion
[ 8008 7997 7996 7995 ] final   30.57 input   59.86 | X-H torsion
[ 10167 10162 10161 10158 ] final   24.47 input  -65.29 | X-H torsion
[ 10718 10713 10712 10709 ] final  162.15 input   66.30 | X-H torsion
[ 10763 10752 10751 10750 ] final  -15.98 input  -60.55 | X-H torsion
[ 11005 11000 10999 10996 ] final  -27.48 input  -57.11 | X-H torsion

> <Gold.Protein.ActiveResidues>
 VAL166  LYS551  ARG553  GLY616  TRP617  ASP618  TYR619  PRO620  LYS621  CYS622 
 ASP623  PHE694  ASN695  SER759  ASP760  ASP761  ALA762  ILE779  LEU786  VAL792 
 PHE793  MET794  SER795  GLU796  ALA797  LYS798  CYS799  TRP800  GLU811  SER814 

> <Gold.Protein.RotatedAtoms>
  152.2883  134.7750  160.0382 H   0  0  0  0  0  0  0  0  0  0  0  0  # atno 6907 bound_to 6896
  151.8305  133.3403  159.3620 H   0  0  0  0  0  0  0  0  0  0  0  0  # atno 6908 bound_to 6896
  150.7219  134.5416  159.5794 H   0  0  0  0  0  0  0  0  0  0  0  0  # atno 6909 bound_to 6896
  144.7910  140.4938  143.5772 H   0  0  0  0  0  0  0  0  0  0  0  0  # atno 7974 bound_to 7965
  155.0925  140.3221  155.4569 H   0  0  0  0  0  0  0  0  0  0  0  0  # atno 8008 bound_to 7997
  156.2739  140.2075  156.5999 H   0  0  0  0  0  0  0  0  0  0  0  0  # atno 8009 bound_to 7997
  154.6892  140.0518  157.0333 H   0  0  0  0  0  0  0  0  0  0  0  0  # atno 8010 bound_to 7997
  140.5185  144.0041  150.6405 H   0  0  0  0  0  0  0  0  0  0  0  0  # atno 10167 bound_to 10162
  157.1265  131.0506  151.2391 H   0  0  0  0  0  0  0  0  0  0  0  0  # atno 10718 bound_to 10713
  153.5515  135.7011  153.5589 H   0  0  0  0  0  0  0  0  0  0  0  0  # atno 10763 bound_to 10752
  153.3511  135.3995  155.1646 H   0  0  0  0  0  0  0  0  0  0  0  0  # atno 10764 bound_to 10752
  154.8660  135.3765  154.5027 H   0  0  0  0  0  0  0  0  0  0  0  0  # atno 10765 bound_to 10752
  140.9123  133.7452  156.0688 H   0  0  0  0  0  0  0  0  0  0  0  0  # atno 11005 bound_to 11000
  145.5794  139.1488  143.3244 LP  0  0  0  0  0  0  0  0  0  0  0  0  # atno 17320 bound_to 7965
  146.2162  140.5924  142.9037 LP  0  0  0  0  0  0  0  0  0  0  0  0  # atno 17321 bound_to 7965
  140.3384  143.3035  152.0614 LP  0  0  0  0  0  0  0  0  0  0  0  0  # atno 17342 bound_to 10162
  139.4916  144.6460  151.6777 LP  0  0  0  0  0  0  0  0  0  0  0  0  # atno 17343 bound_to 10162
  157.4430  130.7555  149.7086 LP  0  0  0  0  0  0  0  0  0  0  0  0  # atno 17370 bound_to 10713
  155.9817  130.4017  150.3457 LP  0  0  0  0  0  0  0  0  0  0  0  0  # atno 17371 bound_to 10713
  140.8094  134.3417  157.5416 LP  0  0  0  0  0  0  0  0  0  0  0  0  # atno 17394 bound_to 11000
  139.8760  134.9245  156.3351 LP  0  0  0  0  0  0  0  0  0  0  0  0  # atno 17395 bound_to 11000

$$$$
