AV-unprocessed.smi:2402|AV-procd|sdf|9508|dock4
  -GOLD-   2272013133D 1   1.00000     0.00000
 Structure written by MMmdl.
 38 39  0  0  0  0  0  0  0  0  1 V2000
  149.4543  124.5457  149.8718 C   0  0  0  0  0  0  0  0  0  0  0  0
  148.9520  125.4453  150.9816 C   0  0  0  0  0  0  0  0  0  0  0  0
  148.8967  124.9899  152.3128 C   0  0  0  0  0  0  0  0  0  0  0  0
  148.4190  125.8755  153.2987 C   0  0  0  0  0  0  0  0  0  0  0  0
  148.3261  125.4509  154.7493 C   0  0  0  0  0  0  0  0  0  0  0  0
  148.0172  127.1353  153.0253 N   0  0  0  0  0  0  0  0  0  0  0  0
  148.0680  127.5854  151.7470 C   0  0  0  0  0  0  0  0  0  0  0  0
  147.6698  128.8911  151.3548 N   0  0  0  0  0  0  0  0  0  0  0  0
  146.6286  129.6131  151.8056 C   0  0  0  0  0  0  0  0  0  0  0  0
  145.8258  129.2477  152.6651 O   0  0  0  0  0  0  0  0  0  0  0  0
  146.5675  130.8082  151.2006 N   0  0  0  0  0  0  0  0  0  0  0  0
  145.5682  131.8329  151.4828 C   0  0  1  0  0  0  0  0  0  0  0  0
  145.9913  133.1590  150.9126 C   0  0  0  0  0  0  0  0  0  0  0  0
  145.0625  133.6999  150.1270 C   0  0  0  0  0  0  0  0  0  0  0  0
  143.8293  132.8439  150.0051 C   0  0  1  0  0  0  0  0  0  0  0  0
  143.4385  132.5906  148.5399 C   0  0  0  0  0  0  0  0  0  0  0  0
  143.3280  133.8154  147.8462 O   0  0  0  0  0  0  0  0  0  0  0  0
  144.2085  131.5599  150.7881 C   0  0  0  0  0  0  0  0  0  0  0  0
  148.5308  126.7600  150.6976 C   0  0  0  0  0  0  0  0  0  0  0  0
  145.4395  131.9504  152.5600 H   0  0  0  0  0  0  0  0  0  0  0  0
  143.0213  133.3679  150.5177 H   0  0  0  0  0  0  0  0  0  0  0  0
  149.6421  123.5347  150.2347 H   0  0  0  0  0  0  0  0  0  0  0  0
  150.3838  124.9389  149.4596 H   0  0  0  0  0  0  0  0  0  0  0  0
  148.7187  124.4882  149.0692 H   0  0  0  0  0  0  0  0  0  0  0  0
  149.2105  123.9889  152.5711 H   0  0  0  0  0  0  0  0  0  0  0  0
  148.7204  124.4448  154.8936 H   0  0  0  0  0  0  0  0  0  0  0  0
  147.2870  125.4599  155.0796 H   0  0  0  0  0  0  0  0  0  0  0  0
  148.8942  126.1331  155.3823 H   0  0  0  0  0  0  0  0  0  0  0  0
  148.2502  129.3293  150.6553 H   0  0  0  0  0  0  0  0  0  0  0  0
  147.2633  131.0288  150.5033 H   0  0  0  0  0  0  0  0  0  0  0  0
  146.9447  133.6093  151.1475 H   0  0  0  0  0  0  0  0  0  0  0  0
  145.1511  134.6540  149.6290 H   0  0  0  0  0  0  0  0  0  0  0  0
  144.1950  131.9813  148.0442 H   0  0  0  0  0  0  0  0  0  0  0  0
  142.4936  132.0498  148.4746 H   0  0  0  0  0  0  0  0  0  0  0  0
  144.1781  134.0456  147.5039 H   0  0  0  0  0  0  0  0  0  0  0  0
  144.2900  130.7116  150.1065 H   0  0  0  0  0  0  0  0  0  0  0  0
  143.4396  131.3002  151.5165 H   0  0  0  0  0  0  0  0  0  0  0  0
  148.5651  127.1300  149.6828 H   0  0  0  0  0  0  0  0  0  0  0  0
  1  2  1  0  0  0  0
  1 22  1  0  0  0  0
  1 23  1  0  0  0  0
  1 24  1  0  0  0  0
  2 19  1  0  0  0  0
  2  3  2  0  0  0  0
  3  4  1  0  0  0  0
  3 25  1  0  0  0  0
  4  5  1  0  0  0  0
  4  6  2  0  0  0  0
  5 26  1  0  0  0  0
  5 27  1  0  0  0  0
  5 28  1  0  0  0  0
  6  7  1  0  0  0  0
  7  8  1  0  0  0  0
  7 19  2  0  0  0  0
  8  9  1  0  0  0  0
  8 29  1  0  0  0  0
  9 10  2  0  0  0  0
  9 11  1  0  0  0  0
 11 12  1  0  0  0  0
 11 30  1  0  0  0  0
 12 20  1  0  0  0  0
 12 18  1  0  0  0  0
 12 13  1  0  0  0  0
 13 14  2  0  0  0  0
 13 31  1  0  0  0  0
 14 15  1  0  0  0  0
 14 32  1  0  0  0  0
 15 21  1  0  0  0  0
 15 16  1  0  0  0  0
 15 18  1  0  0  0  0
 16 17  1  0  0  0  0
 16 33  1  0  0  0  0
 16 34  1  0  0  0  0
 17 35  1  0  0  0  0
 18 36  1  0  0  0  0
 18 37  1  0  0  0  0
 19 38  1  0  0  0  0
M  END
> <s_m_source_file>
AV-unprocessed.smi

> <i_m_source_file_index>
2402

> <i_lp_mmshare_version>
43012

> <i_f3d_flags>
0

> <s_epik_input>
W0NIM11jMVtjSF1jKFtDSDNdKW5jKFtjSF0xKVtOSF1DKD1PKVtOSF1bQ0BASF0yW0NIXT1bQ0hdW0NAQEhdKFtDSDJdMilbQ0gyXVtPSF0=

> <s_epik_cmdline>
J2VwaWtfcHl0aG9uJywgJy1waCcsICc3LjAnLCAnLXRuJywgJzgnLCAnLW1hJywgJzIwMCcsICctbWV0YWxfYmluZGluZycsICctaW1hZScsICc8aW5maWxlLm1hZT4nLCAnLW9tYWUnLCAnPG91dGZpbGUubWFlPic=

> <r_lp_tautomer_probability>
1

> <r_epik_Ionization_Penalty>
0.000257495

> <r_epik_Ionization_Penalty_Charging>
0

> <r_epik_Ionization_Penalty_Neutral>
0.000257495

> <r_epik_State_Penalty>
-0

> <r_epik_Charging_Adjusted_Penalty>
0

> <i_epik_Tot_Q>
0

> <i_epik_Tot_abs_Q>
0

> <r_epik_Metal_State_Penalty>
-0

> <b_epik_Metal_Only>
0

> <s_lp_Force_Field>
OPLS_2005

> <r_lp_Energy>
18.3393

> <b_lp_Chiralities_Consistent>
1

> <s_lp_Variant>
AV-unprocessed.smi:2402-4

> <Gold.Version>
5.8.1

> <Gold.Id.Protein>
6NUR|6NUR_protein|mol2

> <Gold.PLP.Fitness>
51.2759

> <Gold.PLP.PLP>
-41.0526

> <Gold.PLP.part.hbond>
-5.9300

> <Gold.PLP.part.metal>
0.0000

> <Gold.PLP.part.buried>
-4.3973

> <Gold.PLP.part.nonpolar>
-32.1853

> <Gold.PLP.part.repulsive>
0.3257

> <Gold.PLP.ligand.clash>
0.0000

> <Gold.PLP.ligand.torsion>
0.5600

> <Gold.PLP.Chemscore.Hbond>
3.7760

> <Gold.PLP.Chemscore.CHOScore>
0.0000

> <Gold.PLP.Chemscore.Metal>
0.0000

> <Gold.Chemscore.Hbonds>
donor molecule, donor type, donor heavy atom, donor atom, acceptor molecule, acceptor atom, score
      L1  H     8    29       P1 10747  0.78
      L1  H    11    30       P1 10747  0.78
      L1  H    17    35       P1  7921  0.91
      P1  H 10192 10197       L1    17  1.00

> <Gold.PLP.Chemscore.Internal.Correction>
0.0154

> <Gold.Rescore>
     Score         DG    S(hbond)    S(metal)    S(lipo)     H(rot)  DE(clash)    DE(int)     intcor
     18.67     -21.43       3.47        0.00      76.20       1.78       1.21       1.56       ----

> <Gold.Chemscore.Fitness>
18.6654

> <Gold.Chemscore.DG>
-21.4314

> <Gold.Chemscore.ZeroCoef>
-5.4800

> <Gold.Chemscore.Hbond>
3.4743

> <Gold.Chemscore.Metal>
0.0000

> <Gold.Chemscore.Lipo>
76.2006

> <Gold.Chemscore.Internal_Hbond>
0.0000

> <Gold.Chemscore.DEClash>
1.2097

> <Gold.Chemscore.DEInternal>
1.5563

> <Gold.Chemscore.Rot>
1.7844

> <Gold.Chemscore.Internal.Correction>
   9.000000E+99

> <Gold.Chemscore.Hbonds>
donor molecule, donor type, donor heavy atom, donor atom, acceptor molecule, acceptor atom, score
      L1  H     8    29       P1 10747  0.15
      L1  H    11    30       P1 10747  0.78
      L1  H    17    35       P1  7921  0.86
      P1  H 10192 10197       L1    17  0.58

> <Gold.Chemscore.Hbond.Weighted>
-11.6040

> <Gold.Chemscore.Metal.Weighted>
-0.0000

> <Gold.Chemscore.Lipo.Weighted>
-8.9155

> <Gold.Chemscore.Internal_Hbond.Weighted>
0.0000

> <Gold.Chemscore.DEClash.Weighted>
1.2097

> <Gold.Chemscore.DEInternal.Weighted>
1.5563

> <Gold.Chemscore.Rot.Weighted>
4.5681

> <Gold.Chemscore.Internal.Correction.Weighted>
   9.000000E+99

> <Gold.Protein.RotatedTorsions>
[ 6907 6896 6895 6894 ] final  -53.24 input  -60.11 | X-H torsion
[ 7974 7965 7964 7962 ] final -121.04 input  175.53 | X-H torsion
[ 8008 7997 7996 7995 ] final  177.76 input   59.86 | X-H torsion
[ 10167 10162 10161 10158 ] final   36.07 input  -65.29 | X-H torsion
[ 10718 10713 10712 10709 ] final   -0.29 input   66.30 | X-H torsion
[ 10763 10752 10751 10750 ] final  153.24 input  -60.55 | X-H torsion
[ 11005 11000 10999 10996 ] final  -26.63 input  -57.11 | X-H torsion

> <Gold.Protein.ActiveResidues>
 VAL166  LYS551  ARG553  GLY616  TRP617  ASP618  TYR619  PRO620  LYS621  CYS622 
 ASP623  PHE694  ASN695  SER759  ASP760  ASP761  ALA762  ILE779  LEU786  VAL792 
 PHE793  MET794  SER795  GLU796  ALA797  LYS798  CYS799  TRP800  GLU811  SER814 

> <Gold.Protein.RotatedAtoms>
  150.8445  134.7749  159.6958 H   0  0  0  0  0  0  0  0  0  0  0  0  # atno 6907 bound_to 6896
  152.4525  134.5360  159.9835 H   0  0  0  0  0  0  0  0  0  0  0  0  # atno 6908 bound_to 6896
  151.5493  133.3382  159.2986 H   0  0  0  0  0  0  0  0  0  0  0  0  # atno 6909 bound_to 6896
  145.0447  140.8172  143.4245 H   0  0  0  0  0  0  0  0  0  0  0  0  # atno 7974 bound_to 7965
  156.0621  140.1350  156.9928 H   0  0  0  0  0  0  0  0  0  0  0  0  # atno 8008 bound_to 7997
  154.4487  140.0989  156.6604 H   0  0  0  0  0  0  0  0  0  0  0  0  # atno 8009 bound_to 7997
  155.5360  140.3460  155.4439 H   0  0  0  0  0  0  0  0  0  0  0  0  # atno 8010 bound_to 7997
  140.4162  144.1523  150.6143 H   0  0  0  0  0  0  0  0  0  0  0  0  # atno 10167 bound_to 10162
  156.8226  130.5461  149.5695 H   0  0  0  0  0  0  0  0  0  0  0  0  # atno 10718 bound_to 10713
  154.1330  135.2825  155.3180 H   0  0  0  0  0  0  0  0  0  0  0  0  # atno 10763 bound_to 10752
  154.6342  135.5425  153.7718 H   0  0  0  0  0  0  0  0  0  0  0  0  # atno 10764 bound_to 10752
  153.0275  135.6470  154.1480 H   0  0  0  0  0  0  0  0  0  0  0  0  # atno 10765 bound_to 10752
  140.9046  133.7501  156.0589 H   0  0  0  0  0  0  0  0  0  0  0  0  # atno 11005 bound_to 11000
  145.1603  139.2462  143.5395 LP  0  0  0  0  0  0  0  0  0  0  0  0  # atno 17320 bound_to 7965
  146.3513  140.1328  142.8596 LP  0  0  0  0  0  0  0  0  0  0  0  0  # atno 17321 bound_to 7965
  140.4584  143.2459  151.9254 LP  0  0  0  0  0  0  0  0  0  0  0  0  # atno 17342 bound_to 10162
  139.4782  144.5492  151.8411 LP  0  0  0  0  0  0  0  0  0  0  0  0  # atno 17343 bound_to 10162
  156.0980  130.5947  150.9846 LP  0  0  0  0  0  0  0  0  0  0  0  0  # atno 17370 bound_to 10713
  157.6449  131.0905  150.8174 LP  0  0  0  0  0  0  0  0  0  0  0  0  # atno 17371 bound_to 10713
  140.8187  134.3315  157.5389 LP  0  0  0  0  0  0  0  0  0  0  0  0  # atno 17394 bound_to 11000
  139.8747  134.9296  156.3482 LP  0  0  0  0  0  0  0  0  0  0  0  0  # atno 17395 bound_to 11000

$$$$
