AV-unprocessed.smi:623|AV-procd|sdf|3091|dock6
  -GOLD-   22720 0 13D 1   1.00000     0.00000
 Structure written by MMmdl.
 45 47  0  0  0  0  0  0  0  0  1 V2000
  147.9456  133.3363  162.3529 C   0  0  0  0  0  0  0  0  0  0  0  0
  146.7448  134.2384  161.9523 C   0  0  0  0  0  0  0  0  0  0  0  0
  145.4796  133.3602  162.1655 C   0  0  0  0  0  0  0  0  0  0  0  0
  146.6994  135.5955  162.6829 C   0  0  2  0  0  0  0  0  0  0  0  0
  145.5153  136.3302  162.0159 C   0  0  0  0  0  0  0  0  0  0  0  0
  145.6014  135.8464  160.5547 C   0  0  0  0  0  0  0  0  0  0  0  0
  146.8604  134.9355  160.5689 C   0  0  2  0  0  0  0  0  0  0  0  0
  146.9375  133.9959  159.3528 C   0  0  0  0  0  0  0  0  0  0  0  0
  148.1206  135.8422  160.7447 C   0  0  1  0  0  0  0  0  0  0  0  0
  148.1757  136.9873  159.8355 N   0  0  0  0  0  0  0  0  0  0  0  0
  149.1179  137.1958  158.9038 C   0  0  0  0  0  0  0  0  0  0  0  0
  150.0569  136.4226  158.7083 O   0  0  0  0  0  0  0  0  0  0  0  0
  148.9521  138.4598  158.0491 C   0  0  0  0  0  0  0  0  0  0  0  0
  150.0908  138.6935  157.1494 N   0  0  0  0  0  0  0  0  0  0  0  0
  149.8928  138.7815  155.7787 C   0  0  0  0  0  0  0  0  0  0  0  0
  150.8973  138.9740  154.8912 C   0  0  0  0  0  0  0  0  0  0  0  0
  152.2758  139.1014  155.3522 C   0  0  0  0  0  0  0  0  0  0  0  0
  153.2526  139.2783  154.6275 O   0  0  0  0  0  0  0  0  0  0  0  0
  152.4341  139.0057  156.7374 N   0  0  0  0  0  0  0  0  0  0  0  0
  151.4037  138.8051  157.6571 C   0  0  0  0  0  0  0  0  0  0  0  0
  151.6544  138.7293  158.8595 O   0  0  0  0  0  0  0  0  0  0  0  0
  147.9888  136.3049  162.2136 C   0  0  0  0  0  0  0  0  0  0  0  0
  153.3719  139.0855  157.1026 H   0  0  0  0  0  0  0  0  0  0  0  0
  147.8490  133.0090  163.3884 H   0  0  0  0  0  0  0  0  0  0  0  0
  148.9245  133.8026  162.2706 H   0  0  0  0  0  0  0  0  0  0  0  0
  147.9773  132.4381  161.7357 H   0  0  0  0  0  0  0  0  0  0  0  0
  144.5333  133.8494  161.9464 H   0  0  0  0  0  0  0  0  0  0  0  0
  145.4171  133.0253  163.2014 H   0  0  0  0  0  0  0  0  0  0  0  0
  145.5190  132.4657  161.5433 H   0  0  0  0  0  0  0  0  0  0  0  0
  146.6129  135.5320  163.7680 H   0  0  0  0  0  0  0  0  0  0  0  0
  144.5631  136.0540  162.4693 H   0  0  0  0  0  0  0  0  0  0  0  0
  145.6045  137.4142  162.0948 H   0  0  0  0  0  0  0  0  0  0  0  0
  144.7077  135.2865  160.2786 H   0  0  0  0  0  0  0  0  0  0  0  0
  145.6613  136.6735  159.8479 H   0  0  0  0  0  0  0  0  0  0  0  0
  146.9770  134.5615  158.4219 H   0  0  0  0  0  0  0  0  0  0  0  0
  146.0673  133.3420  159.2984 H   0  0  0  0  0  0  0  0  0  0  0  0
  147.8258  133.3658  159.3933 H   0  0  0  0  0  0  0  0  0  0  0  0
  149.0351  135.2578  160.6328 H   0  0  0  0  0  0  0  0  0  0  0  0
  147.4371  137.6702  159.9213 H   0  0  0  0  0  0  0  0  0  0  0  0
  148.0316  138.3597  157.4722 H   0  0  0  0  0  0  0  0  0  0  0  0
  148.7942  139.3262  158.6947 H   0  0  0  0  0  0  0  0  0  0  0  0
  148.8877  138.6866  155.3924 H   0  0  0  0  0  0  0  0  0  0  0  0
  150.6800  139.0320  153.8345 H   0  0  0  0  0  0  0  0  0  0  0  0
  147.9171  137.3889  162.3167 H   0  0  0  0  0  0  0  0  0  0  0  0
  148.8520  135.9935  162.8020 H   0  0  0  0  0  0  0  0  0  0  0  0
  1  2  1  0  0  0  0
  1 24  1  0  0  0  0
  1 25  1  0  0  0  0
  1 26  1  0  0  0  0
  2  7  1  0  0  0  0
  2  3  1  0  0  0  0
  2  4  1  0  0  0  0
  3 27  1  0  0  0  0
  3 28  1  0  0  0  0
  3 29  1  0  0  0  0
  4 22  1  0  0  0  0
  4  5  1  0  0  0  0
  4 30  1  0  0  0  0
  5  6  1  0  0  0  0
  5 31  1  0  0  0  0
  5 32  1  0  0  0  0
  6  7  1  0  0  0  0
  6 33  1  0  0  0  0
  6 34  1  0  0  0  0
  7  8  1  0  0  0  0
  7  9  1  0  0  0  0
  8 35  1  0  0  0  0
  8 36  1  0  0  0  0
  8 37  1  0  0  0  0
  9 10  1  0  0  0  0
  9 22  1  0  0  0  0
  9 38  1  0  0  0  0
 10 11  1  0  0  0  0
 10 39  1  0  0  0  0
 11 12  2  0  0  0  0
 11 13  1  0  0  0  0
 13 14  1  0  0  0  0
 13 40  1  0  0  0  0
 13 41  1  0  0  0  0
 14 20  1  0  0  0  0
 14 15  1  0  0  0  0
 15 16  2  0  0  0  0
 15 42  1  0  0  0  0
 16 17  1  0  0  0  0
 16 43  1  0  0  0  0
 17 18  2  0  0  0  0
 17 19  1  0  0  0  0
 19 23  1  0  0  0  0
 19 20  1  0  0  0  0
 20 21  2  0  0  0  0
 22 44  1  0  0  0  0
 22 45  1  0  0  0  0
M  END
> <s_m_source_file>
AV-unprocessed.smi

> <i_m_source_file_index>
623

> <i_lp_mmshare_version>
43012

> <i_f3d_flags>
0

> <s_epik_input>
W0NIM11bQ0BdMTJDKFtDSDNdKShbQ0gzXSlbQ0BIXShbQ0gyXVtDSDJdMSlbQ0gyXVtDQEBIXTJbTkhdQyg9TylbQ0gyXW4zW2NIXVtjSF1jKD1PKVtuSF1jMz1P

> <s_epik_cmdline>
J2VwaWtfcHl0aG9uJywgJy1waCcsICc3LjAnLCAnLXRuJywgJzgnLCAnLW1hJywgJzIwMCcsICctbWV0YWxfYmluZGluZycsICctaW1hZScsICc8aW5maWxlLm1hZT4nLCAnLW9tYWUnLCAnPG91dGZpbGUubWFlPic=

> <r_lp_tautomer_probability>
0.999537

> <r_epik_Ionization_Penalty>
0.00303563

> <r_epik_Ionization_Penalty_Charging>
0.00303561

> <r_epik_Ionization_Penalty_Neutral>
2.03238e-08

> <r_epik_State_Penalty>
0.00213308

> <r_epik_Charging_Adjusted_Penalty>
0.00516869

> <i_epik_Tot_Q>
0

> <i_epik_Tot_abs_Q>
0

> <r_epik_Metal_State_Penalty>
0.361714

> <b_epik_Metal_Only>
0

> <s_lp_Force_Field>
OPLS_2005

> <r_lp_Energy>
55.109

> <b_lp_Chiralities_Consistent>
1

> <s_lp_Variant>
AV-unprocessed.smi:623-1

> <Gold.Version>
5.8.1

> <Gold.Id.Protein>
6NUR|6NUR_protein|mol2

> <Gold.PLP.Fitness>
40.2010

> <Gold.PLP.PLP>
-34.3824

> <Gold.PLP.part.hbond>
-2.7106

> <Gold.PLP.part.metal>
0.0000

> <Gold.PLP.part.buried>
-5.9540

> <Gold.PLP.part.nonpolar>
-26.3428

> <Gold.PLP.part.repulsive>
0.3564

> <Gold.PLP.ligand.clash>
0.0000

> <Gold.PLP.ligand.torsion>
0.0845

> <Gold.PLP.Chemscore.Hbond>
1.9913

> <Gold.PLP.Chemscore.CHOScore>
0.0000

> <Gold.PLP.Chemscore.Metal>
0.0000

> <Gold.Chemscore.Hbonds>
donor molecule, donor type, donor heavy atom, donor atom, acceptor molecule, acceptor atom, score
      P1  H  6896  6907       L1    12  0.98
      P1  H  7997  8008       L1    18  1.00

> <Gold.PLP.Chemscore.Internal.Correction>
0.0139

> <Gold.Rescore>
     Score         DG    S(hbond)    S(metal)    S(lipo)     H(rot)  DE(clash)    DE(int)     intcor
     17.04     -17.44       1.97        0.00      82.35       1.66       0.18       0.22       ----

> <Gold.Chemscore.Fitness>
17.0407

> <Gold.Chemscore.DG>
-17.4422

> <Gold.Chemscore.ZeroCoef>
-5.4800

> <Gold.Chemscore.Hbond>
1.9729

> <Gold.Chemscore.Metal>
0.0000

> <Gold.Chemscore.Lipo>
82.3451

> <Gold.Chemscore.Internal_Hbond>
0.0000

> <Gold.Chemscore.DEClash>
0.1805

> <Gold.Chemscore.DEInternal>
0.2210

> <Gold.Chemscore.Rot>
1.6647

> <Gold.Chemscore.Internal.Correction>
   9.000000E+99

> <Gold.Chemscore.Hbonds>
donor molecule, donor type, donor heavy atom, donor atom, acceptor molecule, acceptor atom, score
      P1  H  6896  6907       L1    12  0.87
      P1  H  7997  8008       L1    18  0.49

> <Gold.Chemscore.Hbond.Weighted>
-6.5895

> <Gold.Chemscore.Metal.Weighted>
-0.0000

> <Gold.Chemscore.Lipo.Weighted>
-9.6344

> <Gold.Chemscore.Internal_Hbond.Weighted>
0.0000

> <Gold.Chemscore.DEClash.Weighted>
0.1805

> <Gold.Chemscore.DEInternal.Weighted>
0.2210

> <Gold.Chemscore.Rot.Weighted>
4.2617

> <Gold.Chemscore.Internal.Correction.Weighted>
   9.000000E+99

> <Gold.Protein.RotatedTorsions>
[ 6907 6896 6895 6894 ] final  -61.42 input  -60.11 | X-H torsion
[ 7974 7965 7964 7962 ] final -111.43 input  175.53 | X-H torsion
[ 8008 7997 7996 7995 ] final   -5.55 input   59.86 | X-H torsion
[ 10167 10162 10161 10158 ] final  -56.93 input  -65.29 | X-H torsion
[ 10718 10713 10712 10709 ] final  138.63 input   66.30 | X-H torsion
[ 10763 10752 10751 10750 ] final  -73.02 input  -60.55 | X-H torsion
[ 11005 11000 10999 10996 ] final   10.75 input  -57.11 | X-H torsion

> <Gold.Protein.ActiveResidues>
 VAL166  LYS551  ARG553  GLY616  TRP617  ASP618  TYR619  PRO620  LYS621  CYS622 
 ASP623  PHE694  ASN695  SER759  ASP760  ASP761  ALA762  ILE779  LEU786  VAL792 
 PHE793  MET794  SER795  GLU796  ALA797  LYS798  CYS799  TRP800  GLU811  SER814 

> <Gold.Protein.RotatedAtoms>
  150.7786  134.6707  159.6389 H   0  0  0  0  0  0  0  0  0  0  0  0  # atno 6907 bound_to 6896
  152.3864  134.6508  160.0133 H   0  0  0  0  0  0  0  0  0  0  0  0  # atno 6908 bound_to 6896
  151.6822  133.3275  159.3258 H   0  0  0  0  0  0  0  0  0  0  0  0  # atno 6909 bound_to 6896
  145.1562  140.8855  143.3617 H   0  0  0  0  0  0  0  0  0  0  0  0  # atno 7974 bound_to 7965
  154.6028  140.2455  155.7770 H   0  0  0  0  0  0  0  0  0  0  0  0  # atno 8008 bound_to 7997
  156.2322  140.2963  156.0169 H   0  0  0  0  0  0  0  0  0  0  0  0  # atno 8009 bound_to 7997
  155.2182  140.0399  157.2934 H   0  0  0  0  0  0  0  0  0  0  0  0  # atno 8010 bound_to 7997
  140.6288  143.2450  151.5294 H   0  0  0  0  0  0  0  0  0  0  0  0  # atno 10167 bound_to 10162
  157.4232  131.1041  151.0330 H   0  0  0  0  0  0  0  0  0  0  0  0  # atno 10718 bound_to 10713
  154.4537  135.5911  153.6209 H   0  0  0  0  0  0  0  0  0  0  0  0  # atno 10763 bound_to 10752
  152.9816  135.6027  154.3573 H   0  0  0  0  0  0  0  0  0  0  0  0  # atno 10764 bound_to 10752
  154.3437  135.2841  155.2388 H   0  0  0  0  0  0  0  0  0  0  0  0  # atno 10765 bound_to 10752
  140.5110  134.0652  155.7818 H   0  0  0  0  0  0  0  0  0  0  0  0  # atno 11005 bound_to 11000
  145.0379  139.3285  143.5991 LP  0  0  0  0  0  0  0  0  0  0  0  0  # atno 17320 bound_to 7965
  146.3488  139.9741  142.8703 LP  0  0  0  0  0  0  0  0  0  0  0  0  # atno 17321 bound_to 7965
  139.5505  144.2408  152.1521 LP  0  0  0  0  0  0  0  0  0  0  0  0  # atno 17342 bound_to 10162
  140.1647  144.4993  150.6613 LP  0  0  0  0  0  0  0  0  0  0  0  0  # atno 17343 bound_to 10162
  157.1253  130.6079  149.5515 LP  0  0  0  0  0  0  0  0  0  0  0  0  # atno 17370 bound_to 10713
  155.9888  130.4932  150.7184 LP  0  0  0  0  0  0  0  0  0  0  0  0  # atno 17371 bound_to 10713
  141.1385  133.9179  157.2379 LP  0  0  0  0  0  0  0  0  0  0  0  0  # atno 17394 bound_to 11000
  139.9659  135.0142  156.9385 LP  0  0  0  0  0  0  0  0  0  0  0  0  # atno 17395 bound_to 11000

$$$$
