AV-unprocessed.smi:3090|AV-procd|sdf|11775|dock5
  -GOLD-   2272017153D 1   1.00000     0.00000
 Structure written by MMmdl.
 22 22  0  0  0  0  0  0  0  0  2 V2000
  143.0180  135.0278  153.7540 C   0  0  0  0  0  0  0  0  0  0  0  0
  143.5873  134.5600  152.5085 N   0  0  0  0  0  0  0  0  0  0  0  0
  143.4334  133.3340  151.8988 C   0  0  0  0  0  0  0  0  0  0  0  0
  144.1619  133.3549  150.7411 C   0  0  0  0  0  0  0  0  0  0  0  0
  144.3322  132.2799  149.7002 C   0  0  1  0  0  0  0  0  0  0  0  0
  143.6494  131.0964  150.0644 O   0  0  0  0  0  0  0  0  0  0  0  0
  143.7942  132.7533  148.3385 C   0  0  0  0  0  0  0  0  0  0  0  0
  142.3213  132.7504  148.3003 N   0  3  0  0  0  0  0  0  0  0  0  0
  144.7303  134.6612  150.7367 C   0  0  0  0  0  0  0  0  0  0  0  0
  144.3852  135.3783  151.7931 N   0  0  0  0  0  0  0  0  0  0  0  0
  142.4002  134.2476  154.1998 H   0  0  0  0  0  0  0  0  0  0  0  0
  142.3998  135.9072  153.5707 H   0  0  0  0  0  0  0  0  0  0  0  0
  143.8158  135.2884  154.4500 H   0  0  0  0  0  0  0  0  0  0  0  0
  142.8239  132.5552  152.3335 H   0  0  0  0  0  0  0  0  0  0  0  0
  145.3881  132.0260  149.5973 H   0  0  0  0  0  0  0  0  0  0  0  0
  142.7843  131.3296  150.3670 H   0  0  0  0  0  0  0  0  0  0  0  0
  144.1564  133.7555  148.1051 H   0  0  0  0  0  0  0  0  0  0  0  0
  144.1502  132.0937  147.5463 H   0  0  0  0  0  0  0  0  0  0  0  0
  141.9676  133.5488  148.8077 H   0  0  0  0  0  0  0  0  0  0  0  0
  141.9808  131.9005  148.7273 H   0  0  0  0  0  0  0  0  0  0  0  0
  145.3800  135.1073  149.9979 H   0  0  0  0  0  0  0  0  0  0  0  0
  142.0085  132.7929  147.3410 H   0  0  0  0  0  0  0  0  0  0  0  0
  1  2  1  0  0  0  0
  1 11  1  0  0  0  0
  1 12  1  0  0  0  0
  1 13  1  0  0  0  0
  2 10  1  0  0  0  0
  2  3  1  0  0  0  0
  3  4  2  0  0  0  0
  3 14  1  0  0  0  0
  4  5  1  0  0  0  0
  4  9  1  0  0  0  0
  5  6  1  0  0  0  0
  5  7  1  0  0  0  0
  5 15  1  0  0  0  0
  6 16  1  0  0  0  0
  7  8  1  0  0  0  0
  7 17  1  0  0  0  0
  7 18  1  0  0  0  0
  8 19  1  0  0  0  0
  8 20  1  0  0  0  0
  8 22  1  0  0  0  0
  9 10  2  0  0  0  0
  9 21  1  0  0  0  0
M  CHG  1   8   1
M  END
> <s_m_source_file>
AV-unprocessed.smi

> <i_m_source_file_index>
3090

> <i_lp_mmshare_version>
43012

> <i_f3d_flags>
0

> <s_epik_input>
W0NIM11uMVtjSF1jKFtjSF1uMSlbQ0BIXShbT0hdKVtDSDJdW05IMl0=

> <s_epik_cmdline>
J2VwaWtfcHl0aG9uJywgJy1waCcsICc3LjAnLCAnLXRuJywgJzgnLCAnLW1hJywgJzIwMCcsICctbWV0YWxfYmluZGluZycsICctaW1hZScsICc8aW5maWxlLm1hZT4nLCAnLW9tYWUnLCAnPG91dGZpbGUubWFlPic=

> <r_lp_tautomer_probability>
1

> <r_epik_Ionization_Penalty>
0.014056

> <r_epik_Ionization_Penalty_Charging>
0.0140431

> <r_epik_Ionization_Penalty_Neutral>
1.29738e-05

> <r_epik_State_Penalty>
0.0109628

> <r_epik_Charging_Adjusted_Penalty>
0.0250059

> <i_epik_Tot_Q>
1

> <i_epik_Tot_abs_Q>
1

> <r_epik_Metal_State_Penalty>
0.0109636

> <b_epik_Metal_Only>
0

> <s_lp_Force_Field>
OPLS_2005

> <r_lp_Energy>
1.35566

> <b_lp_Chiralities_Consistent>
1

> <s_lp_Variant>
AV-unprocessed.smi:3090-2

> <Gold.Version>
5.8.1

> <Gold.Id.Protein>
6NUR|6NUR_protein|mol2

> <Gold.PLP.Fitness>
42.4525

> <Gold.PLP.PLP>
-23.6871

> <Gold.PLP.part.hbond>
-4.9031

> <Gold.PLP.part.metal>
0.0000

> <Gold.PLP.part.buried>
-3.6290

> <Gold.PLP.part.nonpolar>
-17.1311

> <Gold.PLP.part.repulsive>
0.3664

> <Gold.PLP.ligand.clash>
0.0000

> <Gold.PLP.ligand.torsion>
0.1001

> <Gold.PLP.Chemscore.Hbond>
4.7942

> <Gold.PLP.Chemscore.CHOScore>
1.5269

> <Gold.PLP.Chemscore.Metal>
0.0000

> <Gold.Chemscore.Hbonds>
donor molecule, donor type, donor heavy atom, donor atom, acceptor molecule, acceptor atom, score
      L1  H     6    16       P1 10952  0.12
      L1  H     8    19       P1 10186  1.72
      L1  H     8    20       P1 10952  0.83
      L1  H     8    22       P1 10195  1.00
      P1  H 10785 10796       L1     6  0.70
      L1  C     3    14       P1 10957  0.42
      L1  C     9    21       P1  7921  1.00

> <Gold.PLP.Chemscore.Internal.Correction>
0.0024

> <Gold.Rescore>
     Score         DG    S(hbond)    S(metal)    S(lipo)     H(rot)  DE(clash)    DE(int)     intcor
     17.35     -18.49       3.51        0.00      53.85       1.96       0.97       0.18       ----

> <Gold.Chemscore.Fitness>
17.3507

> <Gold.Chemscore.DG>
-18.4947

> <Gold.Chemscore.ZeroCoef>
-5.4800

> <Gold.Chemscore.Hbond>
3.5087

> <Gold.Chemscore.Metal>
0.0000

> <Gold.Chemscore.Lipo>
53.8539

> <Gold.Chemscore.Internal_Hbond>
0.0000

> <Gold.Chemscore.DEClash>
0.9661

> <Gold.Chemscore.DEInternal>
0.1780

> <Gold.Chemscore.Rot>
1.9551

> <Gold.Chemscore.Internal.Correction>
   9.000000E+99

> <Gold.Chemscore.Hbonds>
donor molecule, donor type, donor heavy atom, donor atom, acceptor molecule, acceptor atom, score
      L1  H     6    16       P1 10952  0.08
      L1  H     8    19       P1 10186  0.83
      L1  H     8    20       P1 10952  0.82
      L1  H     8    22       P1 10195  0.98
      P1  H 10785 10796       L1     6  0.14

> <Gold.Chemscore.Hbond.Weighted>
-11.7189

> <Gold.Chemscore.Metal.Weighted>
-0.0000

> <Gold.Chemscore.Lipo.Weighted>
-6.3009

> <Gold.Chemscore.Internal_Hbond.Weighted>
0.0000

> <Gold.Chemscore.DEClash.Weighted>
0.9661

> <Gold.Chemscore.DEInternal.Weighted>
0.1780

> <Gold.Chemscore.Rot.Weighted>
5.0051

> <Gold.Chemscore.Internal.Correction.Weighted>
   9.000000E+99

> <Gold.Protein.RotatedTorsions>
[ 6907 6896 6895 6894 ] final  109.83 input  -60.11 | X-H torsion
[ 7974 7965 7964 7962 ] final  -53.28 input  175.53 | X-H torsion
[ 8008 7997 7996 7995 ] final  -58.02 input   59.86 | X-H torsion
[ 10167 10162 10161 10158 ] final   96.81 input  -65.29 | X-H torsion
[ 10718 10713 10712 10709 ] final  -13.33 input   66.30 | X-H torsion
[ 10763 10752 10751 10750 ] final  -92.20 input  -60.55 | X-H torsion
[ 11005 11000 10999 10996 ] final   29.78 input  -57.11 | X-H torsion

> <Gold.Protein.ActiveResidues>
 VAL166  LYS551  ARG553  GLY616  TRP617  ASP618  TYR619  PRO620  LYS621  CYS622 
 ASP623  PHE694  ASN695  SER759  ASP760  ASP761  ALA762  ILE779  LEU786  VAL792 
 PHE793  MET794  SER795  GLU796  ALA797  LYS798  CYS799  TRP800  GLU811  SER814 

> <Gold.Protein.RotatedAtoms>
  152.5049  133.8888  159.7383 H   0  0  0  0  0  0  0  0  0  0  0  0  # atno 6907 bound_to 6896
  150.9332  133.6733  159.2813 H   0  0  0  0  0  0  0  0  0  0  0  0  # atno 6908 bound_to 6896
  151.4071  135.0984  159.9626 H   0  0  0  0  0  0  0  0  0  0  0  0  # atno 6909 bound_to 6896
  145.8986  140.8013  142.9755 H   0  0  0  0  0  0  0  0  0  0  0  0  # atno 7974 bound_to 7965
  154.4292  140.1093  156.5891 H   0  0  0  0  0  0  0  0  0  0  0  0  # atno 8008 bound_to 7997
  155.6031  140.3493  155.4581 H   0  0  0  0  0  0  0  0  0  0  0  0  # atno 8009 bound_to 7997
  156.0158  140.1229  157.0398 H   0  0  0  0  0  0  0  0  0  0  0  0  # atno 8010 bound_to 7997
  139.7859  144.6870  150.9958 H   0  0  0  0  0  0  0  0  0  0  0  0  # atno 10167 bound_to 10162
  156.6317  130.4903  149.6126 H   0  0  0  0  0  0  0  0  0  0  0  0  # atno 10718 bound_to 10713
  154.6838  135.5240  153.8298 H   0  0  0  0  0  0  0  0  0  0  0  0  # atno 10763 bound_to 10752
  153.0583  135.6559  154.0534 H   0  0  0  0  0  0  0  0  0  0  0  0  # atno 10764 bound_to 10752
  154.0417  135.2976  155.3333 H   0  0  0  0  0  0  0  0  0  0  0  0  # atno 10765 bound_to 10752
  140.3014  134.2753  155.7753 H   0  0  0  0  0  0  0  0  0  0  0  0  # atno 11005 bound_to 11000
  144.6734  140.1641  143.7420 LP  0  0  0  0  0  0  0  0  0  0  0  0  # atno 17320 bound_to 7965
  145.8819  139.2328  143.1600 LP  0  0  0  0  0  0  0  0  0  0  0  0  # atno 17321 bound_to 7965
  140.7819  143.4432  151.0521 LP  0  0  0  0  0  0  0  0  0  0  0  0  # atno 17342 bound_to 10162
  139.8111  143.7950  152.3171 LP  0  0  0  0  0  0  0  0  0  0  0  0  # atno 17343 bound_to 10162
  156.2229  130.6748  151.1386 LP  0  0  0  0  0  0  0  0  0  0  0  0  # atno 17370 bound_to 10713
  157.7198  131.0688  150.6183 LP  0  0  0  0  0  0  0  0  0  0  0  0  # atno 17371 bound_to 10713
  141.2127  133.7648  156.9772 LP  0  0  0  0  0  0  0  0  0  0  0  0  # atno 17394 bound_to 11000
  140.1106  134.9479  157.2060 LP  0  0  0  0  0  0  0  0  0  0  0  0  # atno 17395 bound_to 11000

$$$$
