AV-unprocessed.smi:148|AV-procd|sdf|1232|dock4
  -GOLD-   2262018433D 1   1.00000     0.00000
 Structure written by MMmdl.
 63 67  0  0  0  0  0  0  0  0  1 V2000
  148.2694  135.6312  154.5954 O   0  0  0  0  0  0  0  0  0  0  0  0
  148.4290  134.2292  154.5494 C   0  0  0  0  0  0  0  0  0  0  0  0
  149.3048  133.7064  155.7169 C   0  0  2  0  0  0  0  0  0  0  0  0
  150.6872  134.4072  155.7282 C   0  0  0  0  0  0  0  0  0  0  0  0
  150.6478  135.7557  156.2667 N   0  0  0  0  0  0  0  0  0  0  0  0
  150.1264  136.1503  157.4789 C   0  0  0  0  0  0  0  0  0  0  0  0
  150.2041  137.4295  157.7285 N   0  0  0  0  0  0  0  0  0  0  0  0
  150.8150  137.9547  156.5971 C   0  0  0  0  0  0  0  0  0  0  0  0
  151.1863  139.2637  156.1945 C   0  0  0  0  0  0  0  0  0  0  0  0
  150.9674  140.3427  156.9810 N   0  0  0  0  0  0  0  0  0  0  0  0
  152.2030  140.6956  157.6806 C   0  0  0  0  0  0  0  0  0  0  0  0
  151.9595  141.7731  158.7438 C   0  0  0  0  0  0  0  0  0  0  0  0
  151.3006  142.9996  158.1075 C   0  0  0  0  0  0  0  0  0  0  0  0
  149.9977  142.5888  157.4092 C   0  0  0  0  0  0  0  0  0  0  0  0
  150.2245  141.4606  156.3677 C   0  0  2  0  0  0  0  0  0  0  0  0
  148.9040  140.9921  155.6764 C   0  0  1  0  0  0  0  0  0  0  0  0
  147.6081  141.1916  156.4895 C   0  0  0  0  0  0  0  0  0  0  0  0
  146.4903  141.4619  155.4694 C   0  0  0  0  0  0  0  0  0  0  0  0
  147.1213  141.2736  154.0875 C   0  0  0  0  0  0  0  0  0  0  0  0
  148.5960  141.6096  154.3032 C   0  0  2  0  0  0  0  0  0  0  0  0
  149.4039  141.0673  153.2791 O   0  0  0  0  0  0  0  0  0  0  0  0
  151.7871  139.4125  154.9837 N   0  0  0  0  0  0  0  0  0  0  0  0
  151.9949  138.3442  154.2076 C   0  0  0  0  0  0  0  0  0  0  0  0
  151.6915  137.0662  154.4472 N   0  0  0  0  0  0  0  0  0  0  0  0
  151.0996  136.9173  155.6671 C   0  0  0  0  0  0  0  0  0  0  0  0
  149.4798  132.1627  155.6783 C   0  0  1  0  0  0  0  0  0  0  0  0
  149.6167  131.5700  154.2847 C   0  0  0  0  0  0  0  0  0  0  0  0
  150.2135  130.1954  154.5654 C   0  0  0  0  0  0  0  0  0  0  0  0
  151.0079  130.3514  155.7347 O   0  0  0  0  0  0  0  0  0  0  0  0
  150.7650  131.6263  156.3199 C   0  0  0  0  0  0  0  0  0  0  0  0
  148.3751  135.9752  153.7215 H   0  0  0  0  0  0  0  0  0  0  0  0
  147.4501  133.7490  154.5553 H   0  0  0  0  0  0  0  0  0  0  0  0
  148.8795  134.0099  153.5826 H   0  0  0  0  0  0  0  0  0  0  0  0
  148.8048  133.9662  156.6513 H   0  0  0  0  0  0  0  0  0  0  0  0
  151.4024  133.8493  156.3320 H   0  0  0  0  0  0  0  0  0  0  0  0
  151.0980  134.4452  154.7184 H   0  0  0  0  0  0  0  0  0  0  0  0
  149.6875  135.4543  158.1789 H   0  0  0  0  0  0  0  0  0  0  0  0
  152.6277  139.8098  158.1560 H   0  0  0  0  0  0  0  0  0  0  0  0
  152.9392  141.0514  156.9580 H   0  0  0  0  0  0  0  0  0  0  0  0
  151.3199  141.3756  159.5329 H   0  0  0  0  0  0  0  0  0  0  0  0
  152.9017  142.0537  159.2149 H   0  0  0  0  0  0  0  0  0  0  0  0
  151.0980  143.7555  158.8666 H   0  0  0  0  0  0  0  0  0  0  0  0
  151.9807  143.4536  157.3857 H   0  0  0  0  0  0  0  0  0  0  0  0
  149.2814  142.2734  158.1671 H   0  0  0  0  0  0  0  0  0  0  0  0
  149.5763  143.4735  156.9349 H   0  0  0  0  0  0  0  0  0  0  0  0
  150.8673  141.8767  155.5904 H   0  0  0  0  0  0  0  0  0  0  0  0
  148.9764  139.9189  155.4925 H   0  0  0  0  0  0  0  0  0  0  0  0
  147.3908  140.3037  157.0838 H   0  0  0  0  0  0  0  0  0  0  0  0
  147.6788  142.0255  157.1863 H   0  0  0  0  0  0  0  0  0  0  0  0
  145.6305  140.8077  155.6154 H   0  0  0  0  0  0  0  0  0  0  0  0
  146.1404  142.4896  155.5773 H   0  0  0  0  0  0  0  0  0  0  0  0
  147.0137  140.2317  153.7809 H   0  0  0  0  0  0  0  0  0  0  0  0
  146.6541  141.8948  153.3226 H   0  0  0  0  0  0  0  0  0  0  0  0
  148.7038  142.6931  154.3147 H   0  0  0  0  0  0  0  0  0  0  0  0
  148.8625  140.5275  152.7235 H   0  0  0  0  0  0  0  0  0  0  0  0
  152.4715  138.5421  153.2589 H   0  0  0  0  0  0  0  0  0  0  0  0
  148.6265  131.6905  156.1681 H   0  0  0  0  0  0  0  0  0  0  0  0
  148.6712  131.5023  153.7463 H   0  0  0  0  0  0  0  0  0  0  0  0
  150.3095  132.1636  153.6860 H   0  0  0  0  0  0  0  0  0  0  0  0
  149.4233  129.4741  154.7779 H   0  0  0  0  0  0  0  0  0  0  0  0
  150.8019  129.8179  153.7290 H   0  0  0  0  0  0  0  0  0  0  0  0
  151.6122  132.2731  156.0875 H   0  0  0  0  0  0  0  0  0  0  0  0
  150.6885  131.5434  157.4043 H   0  0  0  0  0  0  0  0  0  0  0  0
  1  2  1  0  0  0  0
  1 31  1  0  0  0  0
  2  3  1  0  0  0  0
  2 32  1  0  0  0  0
  2 33  1  0  0  0  0
  3  4  1  0  0  0  0
  3 26  1  0  0  0  0
  3 34  1  0  0  0  0
  4  5  1  0  0  0  0
  4 35  1  0  0  0  0
  4 36  1  0  0  0  0
  5 25  1  0  0  0  0
  5  6  1  0  0  0  0
  6  7  2  0  0  0  0
  6 37  1  0  0  0  0
  7  8  1  0  0  0  0
  8 25  2  0  0  0  0
  8  9  1  0  0  0  0
  9 10  1  0  0  0  0
  9 22  2  0  0  0  0
 10 15  1  0  0  0  0
 10 11  1  0  0  0  0
 11 12  1  0  0  0  0
 11 38  1  0  0  0  0
 11 39  1  0  0  0  0
 12 13  1  0  0  0  0
 12 40  1  0  0  0  0
 12 41  1  0  0  0  0
 13 14  1  0  0  0  0
 13 42  1  0  0  0  0
 13 43  1  0  0  0  0
 14 15  1  0  0  0  0
 14 44  1  0  0  0  0
 14 45  1  0  0  0  0
 15 16  1  0  0  0  0
 15 46  1  0  0  0  0
 16 20  1  0  0  0  0
 16 17  1  0  0  0  0
 16 47  1  0  0  0  0
 17 18  1  0  0  0  0
 17 48  1  0  0  0  0
 17 49  1  0  0  0  0
 18 19  1  0  0  0  0
 18 50  1  0  0  0  0
 18 51  1  0  0  0  0
 19 20  1  0  0  0  0
 19 52  1  0  0  0  0
 19 53  1  0  0  0  0
 20 21  1  0  0  0  0
 20 54  1  0  0  0  0
 21 55  1  0  0  0  0
 22 23  1  0  0  0  0
 23 24  2  0  0  0  0
 23 56  1  0  0  0  0
 24 25  1  0  0  0  0
 26 30  1  0  0  0  0
 26 27  1  0  0  0  0
 26 57  1  0  0  0  0
 27 28  1  0  0  0  0
 27 58  1  0  0  0  0
 27 59  1  0  0  0  0
 28 29  1  0  0  0  0
 28 60  1  0  0  0  0
 28 61  1  0  0  0  0
 29 30  1  0  0  0  0
 30 62  1  0  0  0  0
 30 63  1  0  0  0  0
M  END
> <s_m_source_file>
AV-unprocessed.smi

> <i_m_source_file_index>
148

> <i_lp_mmshare_version>
43012

> <i_f3d_flags>
0

> <s_epik_input>
W0NIMl0xT1tDSDJdW0NIMl1bQ0BIXTFbQ0BIXShbQ0gyXVtPSF0pW0NIMl1uKFtjSF1uMiljKGMyMyluW2NIXW5jM040W0NIMl1bQ0gyXVtDSDJdW0NIMl1bQ0BIXTRbQ0BASF01W0NIMl1bQ0gyXVtDSDJdW0NASF01W09IXQ==

> <s_epik_cmdline>
J2VwaWtfcHl0aG9uJywgJy1waCcsICc3LjAnLCAnLXRuJywgJzgnLCAnLW1hJywgJzIwMCcsICctbWV0YWxfYmluZGluZycsICctaW1hZScsICc8aW5maWxlLm1hZT4nLCAnLW9tYWUnLCAnPG91dGZpbGUubWFlPic=

> <r_lp_tautomer_probability>
1

> <r_epik_Ionization_Penalty>
0.00556303

> <r_epik_Ionization_Penalty_Charging>
0

> <r_epik_Ionization_Penalty_Neutral>
0.00556303

> <r_epik_State_Penalty>
0.00401767

> <r_epik_Charging_Adjusted_Penalty>
0.00401767

> <i_epik_Tot_Q>
0

> <i_epik_Tot_abs_Q>
0

> <r_epik_Metal_State_Penalty>
-0

> <b_epik_Metal_Only>
0

> <s_lp_Force_Field>
OPLS_2005

> <r_lp_Energy>
68.3277

> <b_lp_Chiralities_Consistent>
1

> <s_lp_Variant>
AV-unprocessed.smi:148-31

> <Gold.Version>
5.8.1

> <Gold.Id.Protein>
6NUR|6NUR_protein|mol2

> <Gold.PLP.Fitness>
53.4127

> <Gold.PLP.PLP>
-44.6356

> <Gold.PLP.part.hbond>
-5.2982

> <Gold.PLP.part.metal>
0.0000

> <Gold.PLP.part.buried>
-4.2456

> <Gold.PLP.part.nonpolar>
-33.7347

> <Gold.PLP.part.repulsive>
0.2060

> <Gold.PLP.ligand.clash>
0.0000

> <Gold.PLP.ligand.torsion>
2.2518

> <Gold.PLP.Chemscore.Hbond>
4.2948

> <Gold.PLP.Chemscore.CHOScore>
0.0000

> <Gold.PLP.Chemscore.Metal>
0.0000

> <Gold.Chemscore.Hbonds>
donor molecule, donor type, donor heavy atom, donor atom, acceptor molecule, acceptor atom, score
      L1  H     1    31       P1  7948  1.00
      L1  H    21    55       P1  7957  0.30
      P1  H  7989  7998       L1    22  0.85
      P1  H  8011  8017       L1    21  1.00
      P1  H 10752 10764       L1    24  1.00

> <Gold.PLP.Chemscore.Internal.Correction>
0.3962

> <Gold.Rescore>
     Score         DG    S(hbond)    S(metal)    S(lipo)     H(rot)  DE(clash)    DE(int)     intcor
     15.20     -17.26       2.61        0.00      98.85       3.32       0.08       1.98       ----

> <Gold.Chemscore.Fitness>
15.1970

> <Gold.Chemscore.DG>
-17.2614

> <Gold.Chemscore.ZeroCoef>
-5.4800

> <Gold.Chemscore.Hbond>
2.6095

> <Gold.Chemscore.Metal>
0.0000

> <Gold.Chemscore.Lipo>
98.8522

> <Gold.Chemscore.Internal_Hbond>
0.0000

> <Gold.Chemscore.DEClash>
0.0808

> <Gold.Chemscore.DEInternal>
1.9837

> <Gold.Chemscore.Rot>
3.3203

> <Gold.Chemscore.Internal.Correction>
   9.000000E+99

> <Gold.Chemscore.Hbonds>
donor molecule, donor type, donor heavy atom, donor atom, acceptor molecule, acceptor atom, score
      L1  H     1    31       P1  7948  0.98
      L1  H    21    55       P1  7957  0.30
      P1  H  7989  7998       L1    22  0.18
      P1  H  8011  8017       L1    21  0.22
      P1  H 10752 10764       L1    24  0.67

> <Gold.Chemscore.Hbond.Weighted>
-8.7157

> <Gold.Chemscore.Metal.Weighted>
-0.0000

> <Gold.Chemscore.Lipo.Weighted>
-11.5657

> <Gold.Chemscore.Internal_Hbond.Weighted>
0.0000

> <Gold.Chemscore.DEClash.Weighted>
0.0808

> <Gold.Chemscore.DEInternal.Weighted>
1.9837

> <Gold.Chemscore.Rot.Weighted>
8.5000

> <Gold.Chemscore.Internal.Correction.Weighted>
   9.000000E+99

> <Gold.Protein.RotatedTorsions>
[ 6907 6896 6895 6894 ] final -164.86 input  -60.11 | X-H torsion
[ 7974 7965 7964 7962 ] final -109.41 input  175.53 | X-H torsion
[ 8008 7997 7996 7995 ] final  -96.09 input   59.86 | X-H torsion
[ 10167 10162 10161 10158 ] final  108.23 input  -65.29 | X-H torsion
[ 10718 10713 10712 10709 ] final   11.81 input   66.30 | X-H torsion
[ 10763 10752 10751 10750 ] final  -83.68 input  -60.55 | X-H torsion
[ 11005 11000 10999 10996 ] final   54.58 input  -57.11 | X-H torsion

> <Gold.Protein.ActiveResidues>
 VAL166  LYS551  ARG553  GLY616  TRP617  ASP618  TYR619  PRO620  LYS621  CYS622 
 ASP623  PHE694  ASN695  SER759  ASP760  ASP761  ALA762  ILE779  LEU786  VAL792 
 PHE793  MET794  SER795  GLU796  ALA797  LYS798  CYS799  TRP800  GLU811  SER814 

> <Gold.Protein.RotatedAtoms>
  151.4185  133.3705  159.2752 H   0  0  0  0  0  0  0  0  0  0  0  0  # atno 6907 bound_to 6896
  150.9311  134.8727  159.7562 H   0  0  0  0  0  0  0  0  0  0  0  0  # atno 6908 bound_to 6896
  152.5028  134.4130  159.9507 H   0  0  0  0  0  0  0  0  0  0  0  0  # atno 6909 bound_to 6896
  145.1809  140.8970  143.3480 H   0  0  0  0  0  0  0  0  0  0  0  0  # atno 7974 bound_to 7965
  154.7699  140.0474  157.1042 H   0  0  0  0  0  0  0  0  0  0  0  0  # atno 8008 bound_to 7997
  154.9834  140.3104  155.4917 H   0  0  0  0  0  0  0  0  0  0  0  0  # atno 8009 bound_to 7997
  156.2919  140.2232  156.4934 H   0  0  0  0  0  0  0  0  0  0  0  0  # atno 8010 bound_to 7997
  139.6863  144.7113  151.1427 H   0  0  0  0  0  0  0  0  0  0  0  0  # atno 10167 bound_to 10162
  157.0009  130.6079  149.5696 H   0  0  0  0  0  0  0  0  0  0  0  0  # atno 10718 bound_to 10713
  154.5906  135.5547  153.7275 H   0  0  0  0  0  0  0  0  0  0  0  0  # atno 10763 bound_to 10752
  153.0115  135.6342  154.1854 H   0  0  0  0  0  0  0  0  0  0  0  0  # atno 10764 bound_to 10752
  154.1795  135.2888  155.3036 H   0  0  0  0  0  0  0  0  0  0  0  0  # atno 10765 bound_to 10752
  140.0675  134.5516  155.9083 H   0  0  0  0  0  0  0  0  0  0  0  0  # atno 11005 bound_to 11000
  145.0137  139.3486  143.6107 LP  0  0  0  0  0  0  0  0  0  0  0  0  # atno 17320 bound_to 7965
  146.3453  139.9410  142.8741 LP  0  0  0  0  0  0  0  0  0  0  0  0  # atno 17321 bound_to 7965
  140.7668  143.5625  150.9083 LP  0  0  0  0  0  0  0  0  0  0  0  0  # atno 17342 bound_to 10162
  139.9300  143.6504  152.3078 LP  0  0  0  0  0  0  0  0  0  0  0  0  # atno 17343 bound_to 10162
  156.0171  130.5265  150.8167 LP  0  0  0  0  0  0  0  0  0  0  0  0  # atno 17370 bound_to 10713
  157.5390  131.0940  150.9853 LP  0  0  0  0  0  0  0  0  0  0  0  0  # atno 17371 bound_to 10713
  141.1998  133.6609  156.5866 LP  0  0  0  0  0  0  0  0  0  0  0  0  # atno 17394 bound_to 11000
  140.3677  134.7633  157.4577 LP  0  0  0  0  0  0  0  0  0  0  0  0  # atno 17395 bound_to 11000

$$$$
