AV-unprocessed.smi:215|AV-procd|sdf|1656|dock8
  -GOLD-   2262020 43D 1   1.00000     0.00000
 Structure written by MMmdl.
 59 62  0  0  0  0  0  0  0  0  2 V2000
  146.9666  140.9165  157.5032 C   0  0  0  0  0  0  0  0  0  0  0  0
  148.2362  140.4474  156.7735 C   0  0  2  0  0  0  0  0  0  0  0  0
  149.3202  141.5264  156.6638 C   0  0  1  0  0  0  0  0  0  0  0  0
  150.0238  141.8719  157.9348 N   0  3  1  0  0  0  0  0  0  0  0  0
  150.8432  140.7841  158.5306 C   0  0  0  0  0  0  0  0  0  0  0  0
  150.7628  143.1584  157.8379 C   0  0  0  0  0  0  0  0  0  0  0  0
  151.4319  143.5547  159.1649 C   0  0  0  0  0  0  0  0  0  0  0  0
  150.4573  143.6752  160.1792 O   0  0  0  0  0  0  0  0  0  0  0  0
  150.2031  140.9774  155.5399 C   0  0  0  0  0  0  0  0  0  0  0  0
  149.1887  140.3129  154.6009 C   0  0  0  0  0  0  0  0  0  0  0  0
  147.9780  140.0689  155.3870 N   0  0  0  0  0  0  0  0  0  0  0  0
  147.3992  138.8563  155.2319 C   0  0  0  0  0  0  0  0  0  0  0  0
  147.2518  138.0284  156.2998 N   0  0  0  0  0  0  0  0  0  0  0  0
  146.6624  136.8392  156.1432 C   0  0  0  0  0  0  0  0  0  0  0  0
  146.1547  136.2994  155.0332 N   0  0  0  0  0  0  0  0  0  0  0  0
  146.2955  137.1321  153.9611 C   0  0  0  0  0  0  0  0  0  0  0  0
  146.9020  138.4191  153.9766 C   0  0  0  0  0  0  0  0  0  0  0  0
  146.8664  138.9812  152.7077 N   0  0  0  0  0  0  0  0  0  0  0  0
  146.2718  138.0758  151.9794 C   0  0  0  0  0  0  0  0  0  0  0  0
  145.8933  136.9327  152.6494 N   0  0  0  0  0  0  0  0  0  0  0  0
  145.2257  135.7944  152.0815 C   0  0  0  0  0  0  0  0  0  0  0  0
  145.2468  134.4280  152.7726 C   0  0  0  0  0  0  0  0  0  0  0  0
  145.2329  133.7408  151.3867 C   0  0  0  0  0  0  0  0  0  0  0  0
  146.1331  132.4994  151.2265 C   0  0  0  0  0  0  0  0  0  0  0  0
  147.4429  132.7105  151.7149 O   0  0  0  0  0  0  0  0  0  0  0  0
  143.8258  133.3499  150.8967 C   0  0  0  0  0  0  0  0  0  0  0  0
  143.8051  133.1145  149.5031 O   0  0  0  0  0  0  0  0  0  0  0  0
  145.7746  135.0838  150.8415 C   0  0  0  0  0  0  0  0  0  0  0  0
  148.6289  139.5691  157.2847 H   0  0  0  0  0  0  0  0  0  0  0  0
  148.8331  142.4324  156.2969 H   0  0  0  0  0  0  0  0  0  0  0  0
  147.1945  141.2282  158.5226 H   0  0  0  0  0  0  0  0  0  0  0  0
  146.2261  140.1187  157.5644 H   0  0  0  0  0  0  0  0  0  0  0  0
  146.5040  141.7612  156.9913 H   0  0  0  0  0  0  0  0  0  0  0  0
  151.6982  140.5301  157.9043 H   0  0  0  0  0  0  0  0  0  0  0  0
  150.2612  139.8810  158.7031 H   0  0  0  0  0  0  0  0  0  0  0  0
  151.2326  141.0815  159.5032 H   0  0  0  0  0  0  0  0  0  0  0  0
  151.5073  143.0896  157.0433 H   0  0  0  0  0  0  0  0  0  0  0  0
  150.0879  143.9648  157.5467 H   0  0  0  0  0  0  0  0  0  0  0  0
  152.1973  142.8429  159.4719 H   0  0  0  0  0  0  0  0  0  0  0  0
  151.9270  144.5197  159.0531 H   0  0  0  0  0  0  0  0  0  0  0  0
  150.8252  143.3591  160.9910 H   0  0  0  0  0  0  0  0  0  0  0  0
  150.7916  141.7489  155.0427 H   0  0  0  0  0  0  0  0  0  0  0  0
  150.8893  140.2148  155.9063 H   0  0  0  0  0  0  0  0  0  0  0  0
  148.9266  140.9966  153.7930 H   0  0  0  0  0  0  0  0  0  0  0  0
  149.6045  139.4161  154.1396 H   0  0  0  0  0  0  0  0  0  0  0  0
  146.5843  136.2336  157.0342 H   0  0  0  0  0  0  0  0  0  0  0  0
  146.0917  138.2208  150.9240 H   0  0  0  0  0  0  0  0  0  0  0  0
  144.1931  136.1005  151.9025 H   0  0  0  0  0  0  0  0  0  0  0  0
  146.1618  134.2560  153.3402 H   0  0  0  0  0  0  0  0  0  0  0  0
  144.3711  134.2265  153.3903 H   0  0  0  0  0  0  0  0  0  0  0  0
  145.7128  131.6447  151.7571 H   0  0  0  0  0  0  0  0  0  0  0  0
  146.2185  132.2089  150.1792 H   0  0  0  0  0  0  0  0  0  0  0  0
  148.0003  132.0205  151.3890 H   0  0  0  0  0  0  0  0  0  0  0  0
  143.4669  132.4561  151.4082 H   0  0  0  0  0  0  0  0  0  0  0  0
  143.1003  134.1347  151.1119 H   0  0  0  0  0  0  0  0  0  0  0  0
  142.9890  133.4402  149.1551 H   0  0  0  0  0  0  0  0  0  0  0  0
  145.3268  135.4142  149.9040 H   0  0  0  0  0  0  0  0  0  0  0  0
  146.8627  135.1213  150.7796 H   0  0  0  0  0  0  0  0  0  0  0  0
  149.2799  142.0499  158.5951 H   0  0  0  0  0  0  0  0  0  0  0  0
  1  2  1  0  0  0  0
  1 31  1  0  0  0  0
  1 32  1  0  0  0  0
  1 33  1  0  0  0  0
  2 29  1  0  0  0  0
  2 11  1  0  0  0  0
  2  3  1  0  0  0  0
  3 30  1  0  0  0  0
  3  4  1  0  0  0  0
  3  9  1  0  0  0  0
  4  5  1  0  0  0  0
  4  6  1  0  0  0  0
  4 59  1  0  0  0  0
  5 34  1  0  0  0  0
  5 35  1  0  0  0  0
  5 36  1  0  0  0  0
  6  7  1  0  0  0  0
  6 37  1  0  0  0  0
  6 38  1  0  0  0  0
  7  8  1  0  0  0  0
  7 39  1  0  0  0  0
  7 40  1  0  0  0  0
  8 41  1  0  0  0  0
  9 10  1  0  0  0  0
  9 42  1  0  0  0  0
  9 43  1  0  0  0  0
 10 11  1  0  0  0  0
 10 44  1  0  0  0  0
 10 45  1  0  0  0  0
 11 12  1  0  0  0  0
 12 17  1  0  0  0  0
 12 13  2  0  0  0  0
 13 14  1  0  0  0  0
 14 15  2  0  0  0  0
 14 46  1  0  0  0  0
 15 16  1  0  0  0  0
 16 20  1  0  0  0  0
 16 17  2  0  0  0  0
 17 18  1  0  0  0  0
 18 19  2  0  0  0  0
 19 20  1  0  0  0  0
 19 47  1  0  0  0  0
 20 21  1  0  0  0  0
 21 28  1  0  0  0  0
 21 22  1  0  0  0  0
 21 48  1  0  0  0  0
 22 23  1  0  0  0  0
 22 49  1  0  0  0  0
 22 50  1  0  0  0  0
 23 24  1  0  0  0  0
 23 26  1  0  0  0  0
 23 28  1  0  0  0  0
 24 25  1  0  0  0  0
 24 51  1  0  0  0  0
 24 52  1  0  0  0  0
 25 53  1  0  0  0  0
 26 27  1  0  0  0  0
 26 54  1  0  0  0  0
 26 55  1  0  0  0  0
 27 56  1  0  0  0  0
 28 57  1  0  0  0  0
 28 58  1  0  0  0  0
M  CHG  1   4   1
M  END
> <s_m_source_file>
AV-unprocessed.smi

> <i_m_source_file_index>
215

> <i_lp_mmshare_version>
43012

> <i_f3d_flags>
0

> <s_epik_input>
W09IXVtDSDJdW0NIMl1OKFtDSDNdKVtDQEBIXShbQ0BIXTFbQ0gzXSlbQ0gyXVtDSDJdTjFjKG5bY0hdbjIpYyhjMjMpbltjSF1uM1tDSF0oW0NIMl00KVtDSDJdQzQoW0NIMl1bT0hdKVtDSDJdW09IXQ==

> <s_epik_cmdline>
J2VwaWtfcHl0aG9uJywgJy1waCcsICc3LjAnLCAnLXRuJywgJzgnLCAnLW1hJywgJzIwMCcsICctbWV0YWxfYmluZGluZycsICctaW1hZScsICc8aW5maWxlLm1hZT4nLCAnLW9tYWUnLCAnPG91dGZpbGUubWFlPic=

> <r_lp_tautomer_probability>
1

> <r_epik_Ionization_Penalty>
0.0036237

> <r_epik_Ionization_Penalty_Charging>
0.0032725

> <r_epik_Ionization_Penalty_Neutral>
0.000351196

> <r_epik_State_Penalty>
-0

> <r_epik_Charging_Adjusted_Penalty>
0.0032725

> <i_epik_Tot_Q>
1

> <i_epik_Tot_abs_Q>
1

> <r_epik_Metal_State_Penalty>
-0

> <b_epik_Metal_Only>
0

> <s_lp_Force_Field>
OPLS_2005

> <r_lp_Energy>
69.5021

> <b_lp_Chiralities_Consistent>
1

> <s_lp_Variant>
AV-unprocessed.smi:215-7

> <Gold.Version>
5.8.1

> <Gold.Id.Protein>
6NUR|6NUR_protein|mol2

> <Gold.PLP.Fitness>
45.3695

> <Gold.PLP.PLP>
-37.1765

> <Gold.PLP.part.hbond>
-2.5651

> <Gold.PLP.part.metal>
0.0000

> <Gold.PLP.part.buried>
-5.1765

> <Gold.PLP.part.nonpolar>
-30.1344

> <Gold.PLP.part.repulsive>
0.4329

> <Gold.PLP.ligand.clash>
0.0000

> <Gold.PLP.ligand.torsion>
0.7302

> <Gold.PLP.Chemscore.Hbond>
2.0000

> <Gold.PLP.Chemscore.CHOScore>
1.0000

> <Gold.PLP.Chemscore.Metal>
0.0000

> <Gold.Chemscore.Hbonds>
donor molecule, donor type, donor heavy atom, donor atom, acceptor molecule, acceptor atom, score
      L1  H    25    53       P1 10747  1.00
      L1  H    27    56       P1 10186  0.46
      L1  C    19    47       P1 10171  0.95

> <Gold.PLP.Chemscore.Internal.Correction>
0.6533

> <Gold.Rescore>
     Score         DG    S(hbond)    S(metal)    S(lipo)     H(rot)  DE(clash)    DE(int)     intcor
      8.72      -9.64       2.00        0.00      83.75       4.81       0.00       0.93       ----

> <Gold.Chemscore.Fitness>
8.7170

> <Gold.Chemscore.DG>
-9.6426

> <Gold.Chemscore.ZeroCoef>
-5.4800

> <Gold.Chemscore.Hbond>
1.9991

> <Gold.Chemscore.Metal>
0.0000

> <Gold.Chemscore.Lipo>
83.7477

> <Gold.Chemscore.Internal_Hbond>
0.0000

> <Gold.Chemscore.DEClash>
0.0004

> <Gold.Chemscore.DEInternal>
0.9251

> <Gold.Chemscore.Rot>
4.8098

> <Gold.Chemscore.Internal.Correction>
   9.000000E+99

> <Gold.Chemscore.Hbonds>
donor molecule, donor type, donor heavy atom, donor atom, acceptor molecule, acceptor atom, score
      L1  H    25    53       P1 10747  1.00
      L1  H    27    56       P1 10186  0.45

> <Gold.Chemscore.Hbond.Weighted>
-6.6771

> <Gold.Chemscore.Metal.Weighted>
-0.0000

> <Gold.Chemscore.Lipo.Weighted>
-9.7985

> <Gold.Chemscore.Internal_Hbond.Weighted>
0.0000

> <Gold.Chemscore.DEClash.Weighted>
0.0004

> <Gold.Chemscore.DEInternal.Weighted>
0.9251

> <Gold.Chemscore.Rot.Weighted>
12.3130

> <Gold.Chemscore.Internal.Correction.Weighted>
   9.000000E+99

> <Gold.Protein.RotatedTorsions>
[ 6907 6896 6895 6894 ] final  -45.80 input  -60.11 | X-H torsion
[ 7974 7965 7964 7962 ] final  137.80 input  175.53 | X-H torsion
[ 8008 7997 7996 7995 ] final  142.92 input   59.86 | X-H torsion
[ 10167 10162 10161 10158 ] final   46.18 input  -65.29 | X-H torsion
[ 10718 10713 10712 10709 ] final   68.79 input   66.30 | X-H torsion
[ 10763 10752 10751 10750 ] final  -50.33 input  -60.55 | X-H torsion
[ 11005 11000 10999 10996 ] final -167.85 input  -57.11 | X-H torsion

> <Gold.Protein.ActiveResidues>
 VAL166  LYS551  ARG553  GLY616  TRP617  ASP618  TYR619  PRO620  LYS621  CYS622 
 ASP623  PHE694  ASN695  SER759  ASP760  ASP761  ALA762  ILE779  LEU786  VAL792 
 PHE793  MET794  SER795  GLU796  ALA797  LYS798  CYS799  TRP800  GLU811  SER814 

> <Gold.Protein.RotatedAtoms>
  150.9180  134.8598  159.7469 H   0  0  0  0  0  0  0  0  0  0  0  0  # atno 6907 bound_to 6896
  152.4978  134.4260  159.9506 H   0  0  0  0  0  0  0  0  0  0  0  0  # atno 6908 bound_to 6896
  151.4296  133.3634  159.2802 H   0  0  0  0  0  0  0  0  0  0  0  0  # atno 6909 bound_to 6896
  144.9433  139.4905  143.5561 H   0  0  0  0  0  0  0  0  0  0  0  0  # atno 7974 bound_to 7965
  156.2940  140.2276  156.4806 H   0  0  0  0  0  0  0  0  0  0  0  0  # atno 8008 bound_to 7997
  154.7856  140.0457  157.1182 H   0  0  0  0  0  0  0  0  0  0  0  0  # atno 8009 bound_to 7997
  154.9706  140.3066  155.4993 H   0  0  0  0  0  0  0  0  0  0  0  0  # atno 8010 bound_to 7997
  140.3165  144.2757  150.6190 H   0  0  0  0  0  0  0  0  0  0  0  0  # atno 10167 bound_to 10162
  157.6309  130.9392  150.0425 H   0  0  0  0  0  0  0  0  0  0  0  0  # atno 10718 bound_to 10713
  154.1086  135.6552  153.4881 H   0  0  0  0  0  0  0  0  0  0  0  0  # atno 10763 bound_to 10752
  153.0264  135.5242  154.7215 H   0  0  0  0  0  0  0  0  0  0  0  0  # atno 10764 bound_to 10752
  154.6388  135.2985  155.0098 H   0  0  0  0  0  0  0  0  0  0  0  0  # atno 10765 bound_to 10752
  140.5486  134.5451  157.5117 H   0  0  0  0  0  0  0  0  0  0  0  0  # atno 11005 bound_to 11000
  146.3294  139.8467  142.8880 LP  0  0  0  0  0  0  0  0  0  0  0  0  # atno 17320 bound_to 7965
  145.2957  141.0180  143.3637 LP  0  0  0  0  0  0  0  0  0  0  0  0  # atno 17321 bound_to 7965
  140.5521  143.2205  151.7909 LP  0  0  0  0  0  0  0  0  0  0  0  0  # atno 17342 bound_to 10162
  139.4883  144.4462  151.9707 LP  0  0  0  0  0  0  0  0  0  0  0  0  # atno 17343 bound_to 10162
  156.1512  130.3642  149.9435 LP  0  0  0  0  0  0  0  0  0  0  0  0  # atno 17370 bound_to 10713
  156.7455  130.9095  151.3634 LP  0  0  0  0  0  0  0  0  0  0  0  0  # atno 17371 bound_to 10713
  139.9467  134.7690  156.0546 LP  0  0  0  0  0  0  0  0  0  0  0  0  # atno 17394 bound_to 11000
  141.1185  133.6620  156.3155 LP  0  0  0  0  0  0  0  0  0  0  0  0  # atno 17395 bound_to 11000

$$$$
