AV-unprocessed.smi:2431|AV-procd|sdf|9586|dock9
  -GOLD-   2272013223D 1   1.00000     0.00000
 Structure written by MMmdl.
 36 37  0  0  0  0  0  0  0  0  3 V2000
  146.0535  138.5755  153.8022 O   0  0  0  0  0  0  0  0  0  0  0  0
  146.9011  137.8000  153.3591 C   0  0  0  0  0  0  0  0  0  0  0  0
  146.5991  136.6776  152.6908 N   0  0  0  0  0  0  0  0  0  0  0  0
  145.2464  136.2226  152.3913 C   0  0  0  0  0  0  0  0  0  0  0  0
  145.0883  135.8761  150.9014 C   0  0  0  0  0  0  0  0  0  0  0  0
  144.6673  134.4369  150.6785 C   0  0  0  0  0  0  0  0  0  0  0  0
  144.4021  133.8591  149.5077 C   0  0  0  0  0  0  0  0  0  0  0  0
  143.9923  132.4192  149.6514 C   0  0  0  0  0  0  0  0  0  0  0  0
  144.0027  132.1776  151.1773 C   0  0  0  0  0  0  0  0  0  0  0  0
  144.4783  133.4917  151.8370 C   0  0  0  0  0  0  0  0  0  0  0  0
  148.2314  137.9660  153.4546 N   0  0  0  0  0  0  0  0  0  0  0  0
  148.9501  139.0347  154.0632 C   0  0  0  0  0  0  0  0  0  0  0  0
  148.4183  140.3454  154.1416 C   0  0  0  0  0  0  0  0  0  0  0  0
  149.1822  141.3575  154.7521 C   0  0  0  0  0  0  0  0  0  0  0  0
  150.4038  141.1459  155.2796 N   0  0  0  0  0  0  0  0  0  0  0  0
  150.9039  139.8944  155.2230 C   0  0  0  0  0  0  0  0  0  0  0  0
  150.2265  138.7964  154.6442 C   0  0  0  0  0  0  0  0  0  0  0  0
  150.8696  137.4684  154.6525 N   0  3  0  0  0  0  0  0  0  0  0  0
  152.0922  137.4314  154.7398 O   0  0  0  0  0  0  0  0  0  0  0  0
  150.1600  136.4690  154.5996 O   0  5  0  0  0  0  0  0  0  0  0  0
  147.3576  136.0999  152.3584 H   0  0  0  0  0  0  0  0  0  0  0  0
  145.0433  135.3417  153.0010 H   0  0  0  0  0  0  0  0  0  0  0  0
  144.5240  136.9827  152.6934 H   0  0  0  0  0  0  0  0  0  0  0  0
  144.3462  136.5250  150.4350 H   0  0  0  0  0  0  0  0  0  0  0  0
  146.0305  136.0532  150.3810 H   0  0  0  0  0  0  0  0  0  0  0  0
  144.4638  134.3443  148.5446 H   0  0  0  0  0  0  0  0  0  0  0  0
  143.0020  132.2611  149.2227 H   0  0  0  0  0  0  0  0  0  0  0  0
  144.7037  131.7736  149.1355 H   0  0  0  0  0  0  0  0  0  0  0  0
  143.0037  131.9157  151.5284 H   0  0  0  0  0  0  0  0  0  0  0  0
  144.6637  131.3498  151.4366 H   0  0  0  0  0  0  0  0  0  0  0  0
  145.4174  133.3508  152.3726 H   0  0  0  0  0  0  0  0  0  0  0  0
  143.7363  133.8847  152.5329 H   0  0  0  0  0  0  0  0  0  0  0  0
  148.7977  137.2944  152.9564 H   0  0  0  0  0  0  0  0  0  0  0  0
  147.4411  140.5900  153.7538 H   0  0  0  0  0  0  0  0  0  0  0  0
  148.7984  142.3647  154.8207 H   0  0  0  0  0  0  0  0  0  0  0  0
  151.8791  139.7648  155.6693 H   0  0  0  0  0  0  0  0  0  0  0  0
  1  2  2  0  0  0  0
  2  3  1  0  0  0  0
  2 11  1  0  0  0  0
  3  4  1  0  0  0  0
  3 21  1  0  0  0  0
  4  5  1  0  0  0  0
  4 22  1  0  0  0  0
  4 23  1  0  0  0  0
  5  6  1  0  0  0  0
  5 24  1  0  0  0  0
  5 25  1  0  0  0  0
  6 10  1  0  0  0  0
  6  7  2  0  0  0  0
  7  8  1  0  0  0  0
  7 26  1  0  0  0  0
  8  9  1  0  0  0  0
  8 27  1  0  0  0  0
  8 28  1  0  0  0  0
  9 10  1  0  0  0  0
  9 29  1  0  0  0  0
  9 30  1  0  0  0  0
 10 31  1  0  0  0  0
 10 32  1  0  0  0  0
 11 12  1  0  0  0  0
 11 33  1  0  0  0  0
 12 17  1  0  0  0  0
 12 13  2  0  0  0  0
 13 14  1  0  0  0  0
 13 34  1  0  0  0  0
 14 15  2  0  0  0  0
 14 35  1  0  0  0  0
 15 16  1  0  0  0  0
 16 17  2  0  0  0  0
 16 36  1  0  0  0  0
 17 18  1  0  0  0  0
 18 19  2  0  0  0  0
 18 20  1  0  0  0  0
M  CHG  1  18   1
M  CHG  1  20  -1
M  END
> <s_m_source_file>
AV-unprocessed.smi

> <i_m_source_file_index>
2431

> <i_lp_mmshare_version>
43012

> <i_f3d_flags>
0

> <s_epik_input>
W0NIMl0xW0NIMl1bQ0gyXVtDSF09QzFbQ0gyXVtDSDJdW05IXUMoPU8pW05IXWMyW2NIXVtjSF1uW2NIXWMyW04rXSg9TylbTy1d

> <s_epik_cmdline>
J2VwaWtfcHl0aG9uJywgJy1waCcsICc3LjAnLCAnLXRuJywgJzgnLCAnLW1hJywgJzIwMCcsICctbWV0YWxfYmluZGluZycsICctaW1hZScsICc8aW5maWxlLm1hZT4nLCAnLW9tYWUnLCAnPG91dGZpbGUubWFlPic=

> <r_lp_tautomer_probability>
1

> <r_epik_Ionization_Penalty>
0.000148912

> <r_epik_Ionization_Penalty_Charging>
0

> <r_epik_Ionization_Penalty_Neutral>
0.000148912

> <r_epik_State_Penalty>
-0

> <r_epik_Charging_Adjusted_Penalty>
0

> <i_epik_Tot_Q>
0

> <i_epik_Tot_abs_Q>
2

> <r_epik_Metal_State_Penalty>
-0

> <b_epik_Metal_Only>
0

> <s_lp_Force_Field>
OPLS_2005

> <r_lp_Energy>
28.1068

> <b_lp_Chiralities_Consistent>
1

> <s_lp_Variant>
AV-unprocessed.smi:2431-1

> <Gold.Version>
5.8.1

> <Gold.Id.Protein>
6NUR|6NUR_protein|mol2

> <Gold.PLP.Fitness>
44.3875

> <Gold.PLP.PLP>
-35.1921

> <Gold.PLP.part.hbond>
-3.8046

> <Gold.PLP.part.metal>
0.0000

> <Gold.PLP.part.buried>
0.8800

> <Gold.PLP.part.nonpolar>
-32.3687

> <Gold.PLP.part.repulsive>
1.1388

> <Gold.PLP.ligand.clash>
0.0000

> <Gold.PLP.ligand.torsion>
0.8704

> <Gold.PLP.Chemscore.Hbond>
2.6400

> <Gold.PLP.Chemscore.CHOScore>
1.0000

> <Gold.PLP.Chemscore.Metal>
0.0000

> <Gold.Chemscore.Hbonds>
donor molecule, donor type, donor heavy atom, donor atom, acceptor molecule, acceptor atom, score
      L1  H     3    21       P1  7948  0.82
      L1  H    11    33       P1  7948  0.98
      P1  H 10752 10765       L1    19  0.83
      L1  C    14    35       P1  8028  1.00

> <Gold.PLP.Chemscore.Internal.Correction>
0.0161

> <Gold.Rescore>
     Score         DG    S(hbond)    S(metal)    S(lipo)     H(rot)  DE(clash)    DE(int)     intcor
     15.18     -20.78       2.68        0.00      86.76       1.48       2.07       3.53       ----

> <Gold.Chemscore.Fitness>
15.1799

> <Gold.Chemscore.DG>
-20.7784

> <Gold.Chemscore.ZeroCoef>
-5.4800

> <Gold.Chemscore.Hbond>
2.6777

> <Gold.Chemscore.Metal>
0.0000

> <Gold.Chemscore.Lipo>
86.7612

> <Gold.Chemscore.Internal_Hbond>
0.0000

> <Gold.Chemscore.DEClash>
2.0732

> <Gold.Chemscore.DEInternal>
3.5253

> <Gold.Chemscore.Rot>
1.4828

> <Gold.Chemscore.Internal.Correction>
   9.000000E+99

> <Gold.Chemscore.Hbonds>
donor molecule, donor type, donor heavy atom, donor atom, acceptor molecule, acceptor atom, score
      L1  H     3    21       P1  7948  0.81
      L1  H    11    33       P1  7948  0.87
      P1  H 10752 10765       L1    19  0.74

> <Gold.Chemscore.Hbond.Weighted>
-8.9434

> <Gold.Chemscore.Metal.Weighted>
-0.0000

> <Gold.Chemscore.Lipo.Weighted>
-10.1511

> <Gold.Chemscore.Internal_Hbond.Weighted>
0.0000

> <Gold.Chemscore.DEClash.Weighted>
2.0732

> <Gold.Chemscore.DEInternal.Weighted>
3.5253

> <Gold.Chemscore.Rot.Weighted>
3.7960

> <Gold.Chemscore.Internal.Correction.Weighted>
   9.000000E+99

> <Gold.Protein.RotatedTorsions>
[ 6907 6896 6895 6894 ] final  -94.70 input  -60.11 | X-H torsion
[ 7974 7965 7964 7962 ] final  -39.49 input  175.53 | X-H torsion
[ 8008 7997 7996 7995 ] final  -88.44 input   59.86 | X-H torsion
[ 10167 10162 10161 10158 ] final   11.52 input  -65.29 | X-H torsion
[ 10718 10713 10712 10709 ] final -137.41 input   66.30 | X-H torsion
[ 10763 10752 10751 10750 ] final  171.89 input  -60.55 | X-H torsion
[ 11005 11000 10999 10996 ] final  -16.52 input  -57.11 | X-H torsion

> <Gold.Protein.ActiveResidues>
 VAL166  LYS551  ARG553  GLY616  TRP617  ASP618  TYR619  PRO620  LYS621  CYS622 
 ASP623  PHE694  ASN695  SER759  ASP760  ASP761  ALA762  ILE779  LEU786  VAL792 
 PHE793  MET794  SER795  GLU796  ALA797  LYS798  CYS799  TRP800  GLU811  SER814 

> <Gold.Protein.RotatedAtoms>
  150.6947  134.1772  159.4234 H   0  0  0  0  0  0  0  0  0  0  0  0  # atno 6907 bound_to 6896
  151.9748  135.0056  160.0564 H   0  0  0  0  0  0  0  0  0  0  0  0  # atno 6908 bound_to 6896
  152.1809  133.4671  159.4994 H   0  0  0  0  0  0  0  0  0  0  0  0  # atno 6909 bound_to 6896
  146.0391  140.6632  142.9096 H   0  0  0  0  0  0  0  0  0  0  0  0  # atno 7974 bound_to 7965
  154.6748  140.0553  157.0204 H   0  0  0  0  0  0  0  0  0  0  0  0  # atno 8008 bound_to 7997
  155.1036  140.3231  155.4522 H   0  0  0  0  0  0  0  0  0  0  0  0  # atno 8009 bound_to 7997
  156.2672  140.2027  156.6161 H   0  0  0  0  0  0  0  0  0  0  0  0  # atno 8010 bound_to 7997
  140.6126  143.8375  150.7082 H   0  0  0  0  0  0  0  0  0  0  0  0  # atno 10167 bound_to 10162
  156.2878  130.7357  151.1374 H   0  0  0  0  0  0  0  0  0  0  0  0  # atno 10718 bound_to 10713
  154.4183  135.2757  155.1992 H   0  0  0  0  0  0  0  0  0  0  0  0  # atno 10763 bound_to 10752
  154.3949  135.6058  153.5867 H   0  0  0  0  0  0  0  0  0  0  0  0  # atno 10764 bound_to 10752
  152.9832  135.5912  154.4475 H   0  0  0  0  0  0  0  0  0  0  0  0  # atno 10765 bound_to 10752
  140.8076  133.8165  155.9531 H   0  0  0  0  0  0  0  0  0  0  0  0  # atno 11005 bound_to 11000
  144.7066  140.3875  143.7113 LP  0  0  0  0  0  0  0  0  0  0  0  0  # atno 17320 bound_to 7965
  145.6914  139.1640  143.2644 LP  0  0  0  0  0  0  0  0  0  0  0  0  # atno 17321 bound_to 7965
  140.1947  143.4008  152.1837 LP  0  0  0  0  0  0  0  0  0  0  0  0  # atno 17342 bound_to 10162
  139.5373  144.7222  151.4850 LP  0  0  0  0  0  0  0  0  0  0  0  0  # atno 17343 bound_to 10162
  157.7333  131.0591  150.5581 LP  0  0  0  0  0  0  0  0  0  0  0  0  # atno 17370 bound_to 10713
  156.5694  130.4276  149.6026 LP  0  0  0  0  0  0  0  0  0  0  0  0  # atno 17371 bound_to 10713
  140.9230  134.2117  157.4914 LP  0  0  0  0  0  0  0  0  0  0  0  0  # atno 17394 bound_to 11000
  139.8716  134.9800  156.5061 LP  0  0  0  0  0  0  0  0  0  0  0  0  # atno 17395 bound_to 11000

$$$$
