AV-unprocessed.smi:3181|AV-procd|sdf|12149|dock1
  -GOLD-   2272017583D 1   1.00000     0.00000
 Structure written by MMmdl.
 42 43  0  0  0  0  0  0  0  0  2 V2000
  149.4973  140.7972  156.8928 C   0  0  0  0  0  0  0  0  0  0  0  0
  150.5347  141.4419  155.9580 C   0  0  2  0  0  0  0  0  0  0  0  0
  151.8601  140.6570  155.8929 C   0  0  0  0  0  0  0  0  0  0  0  0
  151.6802  139.2795  155.4730 N   0  0  0  0  0  0  0  0  0  0  0  0
  152.2205  138.1533  155.9412 C   0  0  0  0  0  0  0  0  0  0  0  0
  151.8204  137.0625  155.3036 N   0  0  0  0  0  0  0  0  0  0  0  0
  150.9715  137.6277  154.3943 C   0  0  0  0  0  0  0  0  0  0  0  0
  150.8509  138.9543  154.4540 N   0  0  0  0  0  0  0  0  0  0  0  0
  150.8075  142.8312  156.3913 N   0  3  0  0  0  0  0  0  0  0  0  0
  150.8506  143.0551  157.8537 C   0  0  1  0  0  0  0  0  0  0  0  0
  151.7832  142.0449  158.5524 C   0  0  0  0  0  0  0  0  0  0  0  0
  151.8775  142.3146  160.0627 C   0  0  0  0  0  0  0  0  0  0  0  0
  152.3229  143.7614  160.3549 C   0  0  2  0  0  0  0  0  0  0  0  0
  152.4933  144.0128  161.8622 C   0  0  0  0  0  0  0  0  0  0  0  0
  151.3992  144.7946  159.6601 C   0  0  2  0  0  0  0  0  0  0  0  0
  150.0012  144.9242  160.2988 C   0  0  0  0  0  0  0  0  0  0  0  0
  151.3106  144.4963  158.1483 C   0  0  0  0  0  0  0  0  0  0  0  0
  149.2156  139.8006  156.5523 H   0  0  0  0  0  0  0  0  0  0  0  0
  148.5838  141.3907  156.9373 H   0  0  0  0  0  0  0  0  0  0  0  0
  149.8828  140.7043  157.9086 H   0  0  0  0  0  0  0  0  0  0  0  0
  150.1101  141.4543  154.9528 H   0  0  0  0  0  0  0  0  0  0  0  0
  152.5438  141.1345  155.1897 H   0  0  0  0  0  0  0  0  0  0  0  0
  152.3570  140.6665  156.8648 H   0  0  0  0  0  0  0  0  0  0  0  0
  152.9219  138.1310  156.7626 H   0  0  0  0  0  0  0  0  0  0  0  0
  150.4266  137.0446  153.6663 H   0  0  0  0  0  0  0  0  0  0  0  0
  151.6795  143.1395  155.9854 H   0  0  0  0  0  0  0  0  0  0  0  0
  149.8367  142.9360  158.2379 H   0  0  0  0  0  0  0  0  0  0  0  0
  151.4331  141.0248  158.3933 H   0  0  0  0  0  0  0  0  0  0  0  0
  152.7805  142.0990  158.1133 H   0  0  0  0  0  0  0  0  0  0  0  0
  150.9140  142.1149  160.5326 H   0  0  0  0  0  0  0  0  0  0  0  0
  152.5832  141.6133  160.5094 H   0  0  0  0  0  0  0  0  0  0  0  0
  153.3138  143.8818  159.9140 H   0  0  0  0  0  0  0  0  0  0  0  0
  151.5701  143.8270  162.4112 H   0  0  0  0  0  0  0  0  0  0  0  0
  152.8000  145.0406  162.0580 H   0  0  0  0  0  0  0  0  0  0  0  0
  153.2572  143.3574  162.2813 H   0  0  0  0  0  0  0  0  0  0  0  0
  151.8714  145.7729  159.7616 H   0  0  0  0  0  0  0  0  0  0  0  0
  149.4647  143.9761  160.3158 H   0  0  0  0  0  0  0  0  0  0  0  0
  149.3876  145.6377  159.7483 H   0  0  0  0  0  0  0  0  0  0  0  0
  150.0631  145.2864  161.3247 H   0  0  0  0  0  0  0  0  0  0  0  0
  152.2912  144.6591  157.6981 H   0  0  0  0  0  0  0  0  0  0  0  0
  150.6389  145.2097  157.6688 H   0  0  0  0  0  0  0  0  0  0  0  0
  150.0667  143.4088  156.0203 H   0  0  0  0  0  0  0  0  0  0  0  0
  1  2  1  0  0  0  0
  1 18  1  0  0  0  0
  1 19  1  0  0  0  0
  1 20  1  0  0  0  0
  2  3  1  0  0  0  0
  2  9  1  0  0  0  0
  2 21  1  0  0  0  0
  3  4  1  0  0  0  0
  3 22  1  0  0  0  0
  3 23  1  0  0  0  0
  4  8  1  0  0  0  0
  4  5  1  0  0  0  0
  5  6  2  0  0  0  0
  5 24  1  0  0  0  0
  6  7  1  0  0  0  0
  7  8  2  0  0  0  0
  7 25  1  0  0  0  0
  9 10  1  0  0  0  0
  9 26  1  0  0  0  0
  9 42  1  0  0  0  0
 10 17  1  0  0  0  0
 10 11  1  0  0  0  0
 10 27  1  0  0  0  0
 11 12  1  0  0  0  0
 11 28  1  0  0  0  0
 11 29  1  0  0  0  0
 12 13  1  0  0  0  0
 12 30  1  0  0  0  0
 12 31  1  0  0  0  0
 13 14  1  0  0  0  0
 13 15  1  0  0  0  0
 13 32  1  0  0  0  0
 14 33  1  0  0  0  0
 14 34  1  0  0  0  0
 14 35  1  0  0  0  0
 15 16  1  0  0  0  0
 15 17  1  0  0  0  0
 15 36  1  0  0  0  0
 16 37  1  0  0  0  0
 16 38  1  0  0  0  0
 16 39  1  0  0  0  0
 17 40  1  0  0  0  0
 17 41  1  0  0  0  0
M  CHG  1   9   1
M  END
> <s_m_source_file>
AV-unprocessed.smi

> <i_m_source_file_index>
3181

> <i_lp_mmshare_version>
43012

> <i_f3d_flags>
0

> <s_epik_input>
bjFbY0hdbltjSF1uMVtDSDJdW0NAQEhdKFtDSDNdKVtOSF1bQ0BASF0yW0NIMl1bQ0gyXVtDQEBIXShbQ0gzXSlbQ0BASF0oW0NIM10pW0NIMl0y

> <s_epik_cmdline>
J2VwaWtfcHl0aG9uJywgJy1waCcsICc3LjAnLCAnLXRuJywgJzgnLCAnLW1hJywgJzIwMCcsICctbWV0YWxfYmluZGluZycsICctaW1hZScsICc8aW5maWxlLm1hZT4nLCAnLW9tYWUnLCAnPG91dGZpbGUubWFlPic=

> <r_lp_tautomer_probability>
1

> <r_epik_Ionization_Penalty>
0.000617007

> <r_epik_Ionization_Penalty_Charging>
0.000616215

> <r_epik_Ionization_Penalty_Neutral>
7.92544e-07

> <r_epik_State_Penalty>
0.000388807

> <r_epik_Charging_Adjusted_Penalty>
0.00100502

> <i_epik_Tot_Q>
1

> <i_epik_Tot_abs_Q>
1

> <r_epik_Metal_State_Penalty>
-0

> <b_epik_Metal_Only>
0

> <s_lp_Force_Field>
OPLS_2005

> <r_lp_Energy>
22.4909

> <b_lp_Chiralities_Consistent>
1

> <s_lp_Variant>
AV-unprocessed.smi:3181-15

> <Gold.Version>
5.8.1

> <Gold.Id.Protein>
6NUR|6NUR_protein|mol2

> <Gold.PLP.Fitness>
50.1261

> <Gold.PLP.PLP>
-38.4736

> <Gold.PLP.part.hbond>
-2.3048

> <Gold.PLP.part.metal>
0.0000

> <Gold.PLP.part.buried>
-6.0263

> <Gold.PLP.part.nonpolar>
-31.3910

> <Gold.PLP.part.repulsive>
0.3076

> <Gold.PLP.ligand.clash>
0.0000

> <Gold.PLP.ligand.torsion>
0.5242

> <Gold.PLP.Chemscore.Hbond>
3.1017

> <Gold.PLP.Chemscore.CHOScore>
1.1134

> <Gold.PLP.Chemscore.Metal>
0.0000

> <Gold.Chemscore.Hbonds>
donor molecule, donor type, donor heavy atom, donor atom, acceptor molecule, acceptor atom, score
      L1  H     9    42       P1  8028  2.00
      P1  H  7989  7998       L1     8  0.10
      P1  H 10752 10764       L1     6  1.00
      L1  C     7    25       P1  7948  0.68
      L1  C     7    25       P1  7949  0.43

> <Gold.PLP.Chemscore.Internal.Correction>
0.0557

> <Gold.Rescore>
     Score         DG    S(hbond)    S(metal)    S(lipo)     H(rot)  DE(clash)    DE(int)     intcor
     16.10     -17.97       1.89        0.00      98.81       2.11       0.30       1.57       ----

> <Gold.Chemscore.Fitness>
16.1002

> <Gold.Chemscore.DG>
-17.9666

> <Gold.Chemscore.ZeroCoef>
-5.4800

> <Gold.Chemscore.Hbond>
1.8941

> <Gold.Chemscore.Metal>
0.0000

> <Gold.Chemscore.Lipo>
98.8077

> <Gold.Chemscore.Internal_Hbond>
0.0000

> <Gold.Chemscore.DEClash>
0.2953

> <Gold.Chemscore.DEInternal>
1.5711

> <Gold.Chemscore.Rot>
2.1095

> <Gold.Chemscore.Internal.Correction>
   9.000000E+99

> <Gold.Chemscore.Hbonds>
donor molecule, donor type, donor heavy atom, donor atom, acceptor molecule, acceptor atom, score
      L1  H     9    42       P1  8028  1.00
      P1  H 10752 10764       L1     6  0.88

> <Gold.Chemscore.Hbond.Weighted>
-6.3264

> <Gold.Chemscore.Metal.Weighted>
-0.0000

> <Gold.Chemscore.Lipo.Weighted>
-11.5605

> <Gold.Chemscore.Internal_Hbond.Weighted>
0.0000

> <Gold.Chemscore.DEClash.Weighted>
0.2953

> <Gold.Chemscore.DEInternal.Weighted>
1.5711

> <Gold.Chemscore.Rot.Weighted>
5.4003

> <Gold.Chemscore.Internal.Correction.Weighted>
   9.000000E+99

> <Gold.Protein.RotatedTorsions>
[ 6907 6896 6895 6894 ] final  114.52 input  -60.11 | X-H torsion
[ 7974 7965 7964 7962 ] final   65.80 input  175.53 | X-H torsion
[ 8008 7997 7996 7995 ] final   43.41 input   59.86 | X-H torsion
[ 10167 10162 10161 10158 ] final    2.61 input  -65.29 | X-H torsion
[ 10718 10713 10712 10709 ] final  -85.96 input   66.30 | X-H torsion
[ 10763 10752 10751 10750 ] final  -57.99 input  -60.55 | X-H torsion
[ 11005 11000 10999 10996 ] final -110.87 input  -57.11 | X-H torsion

> <Gold.Protein.ActiveResidues>
 VAL166  LYS551  ARG553  GLY616  TRP617  ASP618  TYR619  PRO620  LYS621  CYS622 
 ASP623  PHE694  ASN695  SER759  ASP760  ASP761  ALA762  ILE779  LEU786  VAL792 
 PHE793  MET794  SER795  GLU796  ALA797  LYS798  CYS799  TRP800  GLU811  SER814 

> <Gold.Protein.RotatedAtoms>
  152.4797  133.8225  159.7060 H   0  0  0  0  0  0  0  0  0  0  0  0  # atno 6907 bound_to 6896
  150.8838  133.7325  159.2930 H   0  0  0  0  0  0  0  0  0  0  0  0  # atno 6908 bound_to 6896
  151.4821  135.1056  159.9832 H   0  0  0  0  0  0  0  0  0  0  0  0  # atno 6909 bound_to 6896
  145.8342  139.3157  143.0969 H   0  0  0  0  0  0  0  0  0  0  0  0  # atno 7974 bound_to 7965
  155.3022  140.3385  155.4247 H   0  0  0  0  0  0  0  0  0  0  0  0  # atno 8008 bound_to 7997
  156.1996  140.1728  156.7966 H   0  0  0  0  0  0  0  0  0  0  0  0  # atno 8009 bound_to 7997
  154.5542  140.0700  156.8700 H   0  0  0  0  0  0  0  0  0  0  0  0  # atno 8010 bound_to 7997
  140.6626  143.7263  150.7767 H   0  0  0  0  0  0  0  0  0  0  0  0  # atno 10167 bound_to 10162
  155.9993  130.4749  150.4643 H   0  0  0  0  0  0  0  0  0  0  0  0  # atno 10718 bound_to 10713
  154.2312  135.6360  153.5176 H   0  0  0  0  0  0  0  0  0  0  0  0  # atno 10763 bound_to 10752
  152.9948  135.5520  154.6011 H   0  0  0  0  0  0  0  0  0  0  0  0  # atno 10764 bound_to 10752
  154.5494  135.2900  155.0997 H   0  0  0  0  0  0  0  0  0  0  0  0  # atno 10765 bound_to 10752
  141.0767  133.9289  157.2375 H   0  0  0  0  0  0  0  0  0  0  0  0  # atno 11005 bound_to 11000
  145.9537  140.8889  143.0246 LP  0  0  0  0  0  0  0  0  0  0  0  0  # atno 17320 bound_to 7965
  144.6737  140.1716  143.7414 LP  0  0  0  0  0  0  0  0  0  0  0  0  # atno 17321 bound_to 7965
  140.0934  143.4856  152.2466 LP  0  0  0  0  0  0  0  0  0  0  0  0  # atno 17342 bound_to 10162
  139.5865  144.7533  151.3507 LP  0  0  0  0  0  0  0  0  0  0  0  0  # atno 17343 bound_to 10162
  157.2664  131.0578  151.2288 LP  0  0  0  0  0  0  0  0  0  0  0  0  # atno 17370 bound_to 10713
  157.3384  130.7021  149.6366 LP  0  0  0  0  0  0  0  0  0  0  0  0  # atno 17371 bound_to 10713
  139.9579  135.0161  156.9181 LP  0  0  0  0  0  0  0  0  0  0  0  0  # atno 17394 bound_to 11000
  140.5558  134.0583  155.7383 LP  0  0  0  0  0  0  0  0  0  0  0  0  # atno 17395 bound_to 11000

$$$$
