AV-unprocessed.smi:433|AV-procd|sdf|2550|dock9
  -GOLD-   2262022513D 1   1.00000     0.00000
 Structure written by MMmdl.
 36 37  0  0  0  0  0  0  0  0  1 V2000
  153.4189  143.4686  163.6264 C   0  0  0  0  0  0  0  0  0  0  0  0
  153.2907  142.7661  162.3826 N   0  0  0  0  0  0  0  0  0  0  0  0
  152.4130  143.1645  161.3933 C   0  0  0  0  0  0  0  0  0  0  0  0
  152.2771  142.5016  160.2242 C   0  0  0  0  0  0  0  0  0  0  0  0
  153.0692  141.3096  159.9420 C   0  0  0  0  0  0  0  0  0  0  0  0
  152.9567  140.6598  158.9016 O   0  0  0  0  0  0  0  0  0  0  0  0
  153.9734  140.9409  160.9701 N   0  0  0  0  0  0  0  0  0  0  0  0
  154.7792  139.7491  160.7697 C   0  0  0  0  0  0  0  0  0  0  0  0
  156.2803  139.9825  161.0549 C   0  0  2  0  0  0  0  0  0  0  0  0
  156.8131  140.8108  160.0415 O   0  0  0  0  0  0  0  0  0  0  0  0
  157.0843  138.6741  161.0450 C   0  0  0  0  0  0  0  0  0  0  0  0
  156.1780  137.5896  161.1959 O   0  0  0  0  0  0  0  0  0  0  0  0
  155.6002  137.3848  162.4296 C   0  0  0  0  0  0  0  0  0  0  0  0
  154.6761  136.3245  162.5332 C   0  0  0  0  0  0  0  0  0  0  0  0
  154.0378  136.0417  163.7560 C   0  0  0  0  0  0  0  0  0  0  0  0
  154.3186  136.8219  164.8927 C   0  0  0  0  0  0  0  0  0  0  0  0
  155.2375  137.8840  164.8032 C   0  0  0  0  0  0  0  0  0  0  0  0
  155.8763  138.1666  163.5799 C   0  0  0  0  0  0  0  0  0  0  0  0
  154.1015  141.6246  162.2017 C   0  0  0  0  0  0  0  0  0  0  0  0
  154.8755  141.2432  163.0843 O   0  0  0  0  0  0  0  0  0  0  0  0
  152.7384  144.3205  163.6038 H   0  0  0  0  0  0  0  0  0  0  0  0
  154.4537  143.8049  163.7100 H   0  0  0  0  0  0  0  0  0  0  0  0
  153.1437  142.7769  164.4246 H   0  0  0  0  0  0  0  0  0  0  0  0
  151.8039  144.0414  161.5586 H   0  0  0  0  0  0  0  0  0  0  0  0
  151.5701  142.8554  159.4883 H   0  0  0  0  0  0  0  0  0  0  0  0
  154.3625  138.9779  161.4197 H   0  0  0  0  0  0  0  0  0  0  0  0
  154.5913  139.3682  159.7640 H   0  0  0  0  0  0  0  0  0  0  0  0
  156.4249  140.4788  162.0157 H   0  0  0  0  0  0  0  0  0  0  0  0
  156.1443  141.4220  159.7721 H   0  0  0  0  0  0  0  0  0  0  0  0
  157.6471  138.5860  160.1138 H   0  0  0  0  0  0  0  0  0  0  0  0
  157.7942  138.6693  161.8740 H   0  0  0  0  0  0  0  0  0  0  0  0
  154.4555  135.7205  161.6652 H   0  0  0  0  0  0  0  0  0  0  0  0
  153.3328  135.2260  163.8211 H   0  0  0  0  0  0  0  0  0  0  0  0
  153.8297  136.6063  165.8314 H   0  0  0  0  0  0  0  0  0  0  0  0
  155.4531  138.4844  165.6748 H   0  0  0  0  0  0  0  0  0  0  0  0
  156.5732  138.9901  163.5495 H   0  0  0  0  0  0  0  0  0  0  0  0
  1  2  1  0  0  0  0
  1 21  1  0  0  0  0
  1 22  1  0  0  0  0
  1 23  1  0  0  0  0
  2 19  1  0  0  0  0
  2  3  1  0  0  0  0
  3  4  2  0  0  0  0
  3 24  1  0  0  0  0
  4  5  1  0  0  0  0
  4 25  1  0  0  0  0
  5  6  2  0  0  0  0
  5  7  1  0  0  0  0
  7  8  1  0  0  0  0
  7 19  1  0  0  0  0
  8  9  1  0  0  0  0
  8 26  1  0  0  0  0
  8 27  1  0  0  0  0
  9 10  1  0  0  0  0
  9 11  1  0  0  0  0
  9 28  1  0  0  0  0
 10 29  1  0  0  0  0
 11 12  1  0  0  0  0
 11 30  1  0  0  0  0
 11 31  1  0  0  0  0
 12 13  1  0  0  0  0
 13 18  1  0  0  0  0
 13 14  2  0  0  0  0
 14 15  1  0  0  0  0
 14 32  1  0  0  0  0
 15 16  2  0  0  0  0
 15 33  1  0  0  0  0
 16 17  1  0  0  0  0
 16 34  1  0  0  0  0
 17 18  2  0  0  0  0
 17 35  1  0  0  0  0
 18 36  1  0  0  0  0
 19 20  2  0  0  0  0
M  END
> <s_m_source_file>
AV-unprocessed.smi

> <i_m_source_file_index>
433

> <i_lp_mmshare_version>
43012

> <i_f3d_flags>
0

> <s_epik_input>
W0NIM11uMVtjSF1bY0hdYyg9TyluKGMxPU8pW0NIMl1bQ0BIXShbT0hdKVtDSDJdT2MyW2NIXVtjSF1bY0hdW2NIXVtjSF0y

> <s_epik_cmdline>
J2VwaWtfcHl0aG9uJywgJy1waCcsICc3LjAnLCAnLXRuJywgJzgnLCAnLW1hJywgJzIwMCcsICctbWV0YWxfYmluZGluZycsICctaW1hZScsICc8aW5maWxlLm1hZT4nLCAnLW9tYWUnLCAnPG91dGZpbGUubWFlPic=

> <r_lp_tautomer_probability>
1

> <r_epik_Ionization_Penalty>
2.21742e-07

> <r_epik_Ionization_Penalty_Charging>
1.04568e-07

> <r_epik_Ionization_Penalty_Neutral>
1.17174e-07

> <r_epik_State_Penalty>
-0

> <r_epik_Charging_Adjusted_Penalty>
1.04568e-07

> <i_epik_Tot_Q>
0

> <i_epik_Tot_abs_Q>
0

> <r_epik_Metal_State_Penalty>
-0

> <b_epik_Metal_Only>
0

> <s_lp_Force_Field>
OPLS_2005

> <r_lp_Energy>
22.5639

> <b_lp_Chiralities_Consistent>
1

> <s_lp_Variant>
AV-unprocessed.smi:433-1

> <Gold.Version>
5.8.1

> <Gold.Id.Protein>
6NUR|6NUR_protein|mol2

> <Gold.PLP.Fitness>
41.4195

> <Gold.PLP.PLP>
-42.9312

> <Gold.PLP.part.hbond>
-2.0000

> <Gold.PLP.part.metal>
0.0000

> <Gold.PLP.part.buried>
-1.4916

> <Gold.PLP.part.nonpolar>
-38.4917

> <Gold.PLP.part.repulsive>
0.0000

> <Gold.PLP.ligand.clash>
0.0000

> <Gold.PLP.ligand.torsion>
0.7693

> <Gold.PLP.Chemscore.Hbond>
0.0000

> <Gold.PLP.Chemscore.CHOScore>
0.0000

> <Gold.PLP.Chemscore.Metal>
0.0000

> <Gold.PLP.Chemscore.Internal.Correction>
0.0268

> <Gold.Rescore>
     Score         DG    S(hbond)    S(metal)    S(lipo)     H(rot)  DE(clash)    DE(int)     intcor
      9.56     -12.77       0.96        0.00      88.79       2.46       0.04       3.18       ----

> <Gold.Chemscore.Fitness>
9.5584

> <Gold.Chemscore.DG>
-12.7722

> <Gold.Chemscore.ZeroCoef>
-5.4800

> <Gold.Chemscore.Hbond>
0.9593

> <Gold.Chemscore.Metal>
0.0000

> <Gold.Chemscore.Lipo>
88.7863

> <Gold.Chemscore.Internal_Hbond>
0.0000

> <Gold.Chemscore.DEClash>
0.0351

> <Gold.Chemscore.DEInternal>
3.1787

> <Gold.Chemscore.Rot>
2.4608

> <Gold.Chemscore.Internal.Correction>
   9.000000E+99

> <Gold.Chemscore.Hbond.Weighted>
-3.2039

> <Gold.Chemscore.Metal.Weighted>
-0.0000

> <Gold.Chemscore.Lipo.Weighted>
-10.3880

> <Gold.Chemscore.Internal_Hbond.Weighted>
0.0000

> <Gold.Chemscore.DEClash.Weighted>
0.0351

> <Gold.Chemscore.DEInternal.Weighted>
3.1787

> <Gold.Chemscore.Rot.Weighted>
6.2997

> <Gold.Chemscore.Internal.Correction.Weighted>
   9.000000E+99

> <Gold.Protein.RotatedTorsions>
[ 6907 6896 6895 6894 ] final  -81.16 input  -60.11 | X-H torsion
[ 7974 7965 7964 7962 ] final   63.58 input  175.53 | X-H torsion
[ 8008 7997 7996 7995 ] final  151.20 input   59.86 | X-H torsion
[ 10167 10162 10161 10158 ] final  136.09 input  -65.29 | X-H torsion
[ 10718 10713 10712 10709 ] final -116.99 input   66.30 | X-H torsion
[ 10763 10752 10751 10750 ] final  -91.75 input  -60.55 | X-H torsion
[ 11005 11000 10999 10996 ] final  159.60 input  -57.11 | X-H torsion

> <Gold.Protein.ActiveResidues>
 VAL166  LYS551  ARG553  GLY616  TRP617  ASP618  TYR619  PRO620  LYS621  CYS622 
 ASP623  PHE694  ASN695  SER759  ASP760  ASP761  ALA762  ILE779  LEU786  VAL792 
 PHE793  MET794  SER795  GLU796  ALA797  LYS798  CYS799  TRP800  GLU811  SER814 

> <Gold.Protein.RotatedAtoms>
  150.6916  134.3859  159.5054 H   0  0  0  0  0  0  0  0  0  0  0  0  # atno 6907 bound_to 6896
  152.1654  134.8875  160.0547 H   0  0  0  0  0  0  0  0  0  0  0  0  # atno 6908 bound_to 6896
  151.9921  133.3760  159.4185 H   0  0  0  0  0  0  0  0  0  0  0  0  # atno 6909 bound_to 6896
  145.8602  139.3310  143.0823 H   0  0  0  0  0  0  0  0  0  0  0  0  # atno 7974 bound_to 7965
  156.2684  140.2054  156.6137 H   0  0  0  0  0  0  0  0  0  0  0  0  # atno 8008 bound_to 7997
  154.6811  140.0540  157.0291 H   0  0  0  0  0  0  0  0  0  0  0  0  # atno 8009 bound_to 7997
  155.0999  140.3205  155.4553 H   0  0  0  0  0  0  0  0  0  0  0  0  # atno 8010 bound_to 7997
  139.5192  144.6483  151.5377 H   0  0  0  0  0  0  0  0  0  0  0  0  # atno 10167 bound_to 10162
  156.1002  130.6166  150.9107 H   0  0  0  0  0  0  0  0  0  0  0  0  # atno 10718 bound_to 10713
  154.6792  135.5256  153.8240 H   0  0  0  0  0  0  0  0  0  0  0  0  # atno 10763 bound_to 10752
  153.0553  135.6548  154.0602 H   0  0  0  0  0  0  0  0  0  0  0  0  # atno 10764 bound_to 10752
  154.0492  135.2971  155.3323 H   0  0  0  0  0  0  0  0  0  0  0  0  # atno 10765 bound_to 10752
  140.1978  134.8360  157.2984 H   0  0  0  0  0  0  0  0  0  0  0  0  # atno 11005 bound_to 11000
  145.9257  140.9084  143.0382 LP  0  0  0  0  0  0  0  0  0  0  0  0  # atno 17320 bound_to 7965
  144.6727  140.1349  143.7441 LP  0  0  0  0  0  0  0  0  0  0  0  0  # atno 17321 bound_to 7965
  140.6276  143.9138  150.6578 LP  0  0  0  0  0  0  0  0  0  0  0  0  # atno 17342 bound_to 10162
  140.2431  143.3648  152.1469 LP  0  0  0  0  0  0  0  0  0  0  0  0  # atno 17343 bound_to 10162
  157.6171  131.0932  150.8690 LP  0  0  0  0  0  0  0  0  0  0  0  0  # atno 17370 bound_to 10713
  156.8820  130.5182  149.5290 LP  0  0  0  0  0  0  0  0  0  0  0  0  # atno 17371 bound_to 10713
  140.2088  134.4164  155.7623 LP  0  0  0  0  0  0  0  0  0  0  0  0  # atno 17394 bound_to 11000
  141.2227  133.7108  156.8304 LP  0  0  0  0  0  0  0  0  0  0  0  0  # atno 17395 bound_to 11000

$$$$
