AV-unprocessed.smi:2663|AV-procd|sdf|10323|dock6
  -GOLD-   2272014343D 1   1.00000     0.00000
 Structure written by MMmdl.
 39 40  0  0  0  0  0  0  0  0  1 V2000
  143.8645  136.5494  152.8845 C   0  0  0  0  0  0  0  0  0  0  0  0
  145.0911  135.6091  152.9382 C   0  0  2  0  0  0  0  0  0  0  0  0
  145.0695  134.8396  154.2924 C   0  0  0  0  0  0  0  0  0  0  0  0
  143.7893  134.3197  154.6000 O   0  0  0  0  0  0  0  0  0  0  0  0
  146.2800  136.4771  152.8791 N   0  0  0  0  0  0  0  0  0  0  0  0
  146.5437  137.5883  153.5889 C   0  0  0  0  0  0  0  0  0  0  0  0
  145.7920  138.0528  154.4453 O   0  0  0  0  0  0  0  0  0  0  0  0
  147.7299  138.1105  153.2383 N   0  0  0  0  0  0  0  0  0  0  0  0
  148.3542  139.2770  153.7471 C   0  0  0  0  0  0  0  0  0  0  0  0
  149.6445  139.1986  154.0935 N   0  0  0  0  0  0  0  0  0  0  0  0
  150.1294  140.4095  154.5726 N   0  0  0  0  0  0  0  0  0  0  0  0
  149.1848  141.3549  154.5683 C   0  0  0  0  0  0  0  0  0  0  0  0
  147.6076  140.8608  153.9793 S   0  0  0  0  0  0  0  0  0  0  0  0
  145.0885  134.6073  151.7261 C   0  0  0  0  0  0  0  0  0  0  0  0
  143.8320  133.6983  151.6524 C   0  0  0  0  0  0  0  0  0  0  0  0
  143.8249  132.8354  150.3803 C   0  0  0  0  0  0  0  0  0  0  0  0
  145.0953  131.9807  150.2795 C   0  0  0  0  0  0  0  0  0  0  0  0
  146.3521  132.8584  150.3509 C   0  0  0  0  0  0  0  0  0  0  0  0
  146.3593  133.7249  151.6211 C   0  0  0  0  0  0  0  0  0  0  0  0
  142.9282  136.0037  152.9984 H   0  0  0  0  0  0  0  0  0  0  0  0
  143.8128  137.1051  151.9489 H   0  0  0  0  0  0  0  0  0  0  0  0
  143.8958  137.2889  153.6854 H   0  0  0  0  0  0  0  0  0  0  0  0
  145.7579  133.9958  154.2711 H   0  0  0  0  0  0  0  0  0  0  0  0
  145.3901  135.4762  155.1169 H   0  0  0  0  0  0  0  0  0  0  0  0
  143.8511  133.3778  154.6454 H   0  0  0  0  0  0  0  0  0  0  0  0
  146.9772  136.1998  152.2040 H   0  0  0  0  0  0  0  0  0  0  0  0
  148.2451  137.6207  152.5218 H   0  0  0  0  0  0  0  0  0  0  0  0
  149.4189  142.3506  154.9143 H   0  0  0  0  0  0  0  0  0  0  0  0
  145.0776  135.2126  150.8191 H   0  0  0  0  0  0  0  0  0  0  0  0
  143.7879  133.0421  152.5214 H   0  0  0  0  0  0  0  0  0  0  0  0
  142.9168  134.2892  151.6676 H   0  0  0  0  0  0  0  0  0  0  0  0
  142.9444  132.1925  150.3731 H   0  0  0  0  0  0  0  0  0  0  0  0
  143.7446  133.4787  149.5032 H   0  0  0  0  0  0  0  0  0  0  0  0
  145.1112  131.2507  151.0897 H   0  0  0  0  0  0  0  0  0  0  0  0
  145.0902  131.4123  149.3491 H   0  0  0  0  0  0  0  0  0  0  0  0
  147.2435  132.2312  150.3250 H   0  0  0  0  0  0  0  0  0  0  0  0
  146.4010  133.5006  149.4704 H   0  0  0  0  0  0  0  0  0  0  0  0
  147.2593  134.3370  151.6076 H   0  0  0  0  0  0  0  0  0  0  0  0
  146.4408  133.0721  152.4901 H   0  0  0  0  0  0  0  0  0  0  0  0
  1  2  1  0  0  0  0
  1 20  1  0  0  0  0
  1 21  1  0  0  0  0
  1 22  1  0  0  0  0
  2  3  1  0  0  0  0
  2  5  1  0  0  0  0
  2 14  1  0  0  0  0
  3  4  1  0  0  0  0
  3 23  1  0  0  0  0
  3 24  1  0  0  0  0
  4 25  1  0  0  0  0
  5  6  1  0  0  0  0
  5 26  1  0  0  0  0
  6  7  2  0  0  0  0
  6  8  1  0  0  0  0
  8  9  1  0  0  0  0
  8 27  1  0  0  0  0
  9 13  1  0  0  0  0
  9 10  2  0  0  0  0
 10 11  1  0  0  0  0
 11 12  2  0  0  0  0
 12 13  1  0  0  0  0
 12 28  1  0  0  0  0
 14 19  1  0  0  0  0
 14 15  1  0  0  0  0
 14 29  1  0  0  0  0
 15 16  1  0  0  0  0
 15 30  1  0  0  0  0
 15 31  1  0  0  0  0
 16 17  1  0  0  0  0
 16 32  1  0  0  0  0
 16 33  1  0  0  0  0
 17 18  1  0  0  0  0
 17 34  1  0  0  0  0
 17 35  1  0  0  0  0
 18 19  1  0  0  0  0
 18 36  1  0  0  0  0
 18 37  1  0  0  0  0
 19 38  1  0  0  0  0
 19 39  1  0  0  0  0
M  END
> <s_m_source_file>
AV-unprocessed.smi

> <i_m_source_file_index>
2663

> <i_lp_mmshare_version>
43012

> <i_f3d_flags>
0

> <s_epik_input>
W0NIMl0xW0NIMl1bQ0gyXVtDSDJdW0NIMl1bQ0hdMVtDQF0oW0NIM10pKFtDSDJdW09IXSlbTkhdQyg9TylbTkhdYzJubltjSF1zMg==

> <s_epik_cmdline>
J2VwaWtfcHl0aG9uJywgJy1waCcsICc3LjAnLCAnLXRuJywgJzgnLCAnLW1hJywgJzIwMCcsICctbWV0YWxfYmluZGluZycsICctaW1hZScsICc8aW5maWxlLm1hZT4nLCAnLW9tYWUnLCAnPG91dGZpbGUubWFlPic=

> <r_lp_tautomer_probability>
1

> <r_epik_Ionization_Penalty>
0.000410407

> <r_epik_Ionization_Penalty_Charging>
0

> <r_epik_Ionization_Penalty_Neutral>
0.000410407

> <r_epik_State_Penalty>
-0

> <r_epik_Charging_Adjusted_Penalty>
0

> <i_epik_Tot_Q>
0

> <i_epik_Tot_abs_Q>
0

> <r_epik_Metal_State_Penalty>
0.197604

> <b_epik_Metal_Only>
0

> <s_lp_Force_Field>
OPLS_2005

> <r_lp_Energy>
18.5807

> <b_lp_Chiralities_Consistent>
1

> <s_lp_Variant>
AV-unprocessed.smi:2663-2

> <Gold.Version>
5.8.1

> <Gold.Id.Protein>
6NUR|6NUR_protein|mol2

> <Gold.PLP.Fitness>
44.4304

> <Gold.PLP.PLP>
-31.4754

> <Gold.PLP.part.hbond>
-4.0000

> <Gold.PLP.part.metal>
0.0000

> <Gold.PLP.part.buried>
-4.3185

> <Gold.PLP.part.nonpolar>
-24.4837

> <Gold.PLP.part.repulsive>
0.7333

> <Gold.PLP.ligand.clash>
0.0000

> <Gold.PLP.ligand.torsion>
0.7945

> <Gold.PLP.Chemscore.Hbond>
3.8232

> <Gold.PLP.Chemscore.CHOScore>
1.0000

> <Gold.PLP.Chemscore.Metal>
0.0000

> <Gold.Chemscore.Hbonds>
donor molecule, donor type, donor heavy atom, donor atom, acceptor molecule, acceptor atom, score
      L1  H     4    25       P1 10957  0.80
      L1  H     5    26       P1  7948  0.86
      L1  H     8    27       P1  7948  1.00
      P1  H  7989  7998       L1    11  0.96
      L1  C    12    28       P1  8028  1.00

> <Gold.PLP.Chemscore.Internal.Correction>
0.0743

> <Gold.Rescore>
     Score         DG    S(hbond)    S(metal)    S(lipo)     H(rot)  DE(clash)    DE(int)     intcor
     16.04     -17.96       3.17        0.00      64.49       2.21       0.09       1.83       ----

> <Gold.Chemscore.Fitness>
16.0416

> <Gold.Chemscore.DG>
-17.9556

> <Gold.Chemscore.ZeroCoef>
-5.4800

> <Gold.Chemscore.Hbond>
3.1715

> <Gold.Chemscore.Metal>
0.0000

> <Gold.Chemscore.Lipo>
64.4925

> <Gold.Chemscore.Internal_Hbond>
0.0000

> <Gold.Chemscore.DEClash>
0.0882

> <Gold.Chemscore.DEInternal>
1.8257

> <Gold.Chemscore.Rot>
2.2120

> <Gold.Chemscore.Internal.Correction>
   9.000000E+99

> <Gold.Chemscore.Hbonds>
donor molecule, donor type, donor heavy atom, donor atom, acceptor molecule, acceptor atom, score
      L1  H     4    25       P1 10957  0.76
      L1  H     5    26       P1  7948  0.84
      L1  H     8    27       P1  7948  0.97
      P1  H  7989  7998       L1    11  0.46

> <Gold.Chemscore.Hbond.Weighted>
-10.5927

> <Gold.Chemscore.Metal.Weighted>
-0.0000

> <Gold.Chemscore.Lipo.Weighted>
-7.5456

> <Gold.Chemscore.Internal_Hbond.Weighted>
0.0000

> <Gold.Chemscore.DEClash.Weighted>
0.0882

> <Gold.Chemscore.DEInternal.Weighted>
1.8257

> <Gold.Chemscore.Rot.Weighted>
5.6627

> <Gold.Chemscore.Internal.Correction.Weighted>
   9.000000E+99

> <Gold.Protein.RotatedTorsions>
[ 6907 6896 6895 6894 ] final  142.79 input  -60.11 | X-H torsion
[ 7974 7965 7964 7962 ] final  -56.34 input  175.53 | X-H torsion
[ 8008 7997 7996 7995 ] final  -88.58 input   59.86 | X-H torsion
[ 10167 10162 10161 10158 ] final -161.18 input  -65.29 | X-H torsion
[ 10718 10713 10712 10709 ] final  -36.22 input   66.30 | X-H torsion
[ 10763 10752 10751 10750 ] final  -92.98 input  -60.55 | X-H torsion
[ 11005 11000 10999 10996 ] final   20.20 input  -57.11 | X-H torsion

> <Gold.Protein.ActiveResidues>
 VAL166  LYS551  ARG553  GLY616  TRP617  ASP618  TYR619  PRO620  LYS621  CYS622 
 ASP623  PHE694  ASN695  SER759  ASP760  ASP761  ALA762  ILE779  LEU786  VAL792 
 PHE793  MET794  SER795  GLU796  ALA797  LYS798  CYS799  TRP800  GLU811  SER814 

> <Gold.Protein.RotatedAtoms>
  152.2143  133.4935  159.5127 H   0  0  0  0  0  0  0  0  0  0  0  0  # atno 6907 bound_to 6896
  150.6997  134.1426  159.4119 H   0  0  0  0  0  0  0  0  0  0  0  0  # atno 6908 bound_to 6896
  151.9345  135.0241  160.0582 H   0  0  0  0  0  0  0  0  0  0  0  0  # atno 6909 bound_to 6896
  145.8638  140.8266  142.9923 H   0  0  0  0  0  0  0  0  0  0  0  0  # atno 7974 bound_to 7965
  154.6764  140.0552  157.0220 H   0  0  0  0  0  0  0  0  0  0  0  0  # atno 8008 bound_to 7997
  155.1014  140.3229  155.4527 H   0  0  0  0  0  0  0  0  0  0  0  0  # atno 8009 bound_to 7997
  156.2677  140.2030  156.6140 H   0  0  0  0  0  0  0  0  0  0  0  0  # atno 8010 bound_to 7997
  139.6484  144.0129  152.2144 H   0  0  0  0  0  0  0  0  0  0  0  0  # atno 10167 bound_to 10162
  156.3294  130.4277  149.7886 H   0  0  0  0  0  0  0  0  0  0  0  0  # atno 10718 bound_to 10713
  154.6914  135.5211  153.8398 H   0  0  0  0  0  0  0  0  0  0  0  0  # atno 10763 bound_to 10752
  153.0635  135.6576  154.0417 H   0  0  0  0  0  0  0  0  0  0  0  0  # atno 10764 bound_to 10752
  154.0291  135.2987  155.3350 H   0  0  0  0  0  0  0  0  0  0  0  0  # atno 10765 bound_to 10752
  140.4052  134.1676  155.7665 H   0  0  0  0  0  0  0  0  0  0  0  0  # atno 11005 bound_to 11000
  144.6726  140.1136  143.7454 LP  0  0  0  0  0  0  0  0  0  0  0  0  # atno 17320 bound_to 7965
  145.9217  139.2550  143.1377 LP  0  0  0  0  0  0  0  0  0  0  0  0  # atno 17321 bound_to 7965
  139.9837  144.6410  150.7877 LP  0  0  0  0  0  0  0  0  0  0  0  0  # atno 17342 bound_to 10162
  140.7526  143.2993  151.3123 LP  0  0  0  0  0  0  0  0  0  0  0  0  # atno 17343 bound_to 10162
  156.5164  130.8195  151.3188 LP  0  0  0  0  0  0  0  0  0  0  0  0  # atno 17370 bound_to 10713
  157.7427  130.9897  150.2539 LP  0  0  0  0  0  0  0  0  0  0  0  0  # atno 17371 bound_to 10713
  141.1842  133.8349  157.1149 LP  0  0  0  0  0  0  0  0  0  0  0  0  # atno 17394 bound_to 11000
  140.0307  134.9902  157.0775 LP  0  0  0  0  0  0  0  0  0  0  0  0  # atno 17395 bound_to 11000

$$$$
