AV-unprocessed.smi:3314|AV-procd|sdf|12747|dock1
  -GOLD-   2272019 83D 1   1.00000     0.00000
 Structure written by MMmdl.
 37 38  0  0  0  0  0  0  0  0  1 V2000
  151.4994  145.6108  160.0697 C   0  0  0  0  0  0  0  0  0  0  0  0
  151.9069  144.2238  159.6157 C   0  0  0  0  0  0  0  0  0  0  0  0
  152.8317  143.4325  160.4094 C   0  0  0  0  0  0  0  0  0  0  0  0
  153.1820  142.2053  159.9883 C   0  0  0  0  0  0  0  0  0  0  0  0
  154.1362  141.3002  160.7387 C   0  0  0  0  0  0  0  0  0  0  0  0
  152.6719  141.6844  158.8057 N   0  0  0  0  0  0  0  0  0  0  0  0
  151.7707  142.3839  157.9842 C   0  0  0  0  0  0  0  0  0  0  0  0
  151.2601  141.9382  156.8730 N   0  0  0  0  0  0  0  0  0  0  0  0
  151.5678  140.6825  156.3541 C   0  0  0  0  0  0  0  0  0  0  0  0
  152.4944  139.9212  156.6474 O   0  0  0  0  0  0  0  0  0  0  0  0
  150.5675  140.2460  155.2769 C   0  0  2  0  0  0  0  0  0  0  0  0
  149.4946  141.3302  155.0406 C   0  0  0  0  0  0  0  0  0  0  0  0
  148.4839  140.8934  154.0853 N   0  0  0  0  0  0  0  0  0  0  0  0
  147.4708  141.9152  153.8697 C   0  0  0  0  0  0  0  0  0  0  0  0
  147.8948  139.6386  154.5343 C   0  0  0  0  0  0  0  0  0  0  0  0
  148.9668  138.5607  154.7688 C   0  0  0  0  0  0  0  0  0  0  0  0
  149.9297  139.0415  155.7018 O   0  0  0  0  0  0  0  0  0  0  0  0
  151.4114  143.7098  158.4649 C   0  0  0  0  0  0  0  0  0  0  0  0
  151.9840  145.8770  161.0096 H   0  0  0  0  0  0  0  0  0  0  0  0
  150.4203  145.6602  160.2178 H   0  0  0  0  0  0  0  0  0  0  0  0
  151.7791  146.3526  159.3213 H   0  0  0  0  0  0  0  0  0  0  0  0
  153.2346  143.8276  161.3308 H   0  0  0  0  0  0  0  0  0  0  0  0
  154.5057  141.7810  161.6450 H   0  0  0  0  0  0  0  0  0  0  0  0
  154.9932  141.0498  160.1130 H   0  0  0  0  0  0  0  0  0  0  0  0
  153.6354  140.3749  161.0246 H   0  0  0  0  0  0  0  0  0  0  0  0
  151.1025  140.0431  154.3464 H   0  0  0  0  0  0  0  0  0  0  0  0
  149.0176  141.5857  155.9887 H   0  0  0  0  0  0  0  0  0  0  0  0
  149.9704  142.2422  154.6770 H   0  0  0  0  0  0  0  0  0  0  0  0
  146.7376  141.5832  153.1340 H   0  0  0  0  0  0  0  0  0  0  0  0
  147.9230  142.8348  153.4965 H   0  0  0  0  0  0  0  0  0  0  0  0
  146.9417  142.1477  154.7948 H   0  0  0  0  0  0  0  0  0  0  0  0
  147.3382  139.8005  155.4586 H   0  0  0  0  0  0  0  0  0  0  0  0
  147.1763  139.2817  153.7956 H   0  0  0  0  0  0  0  0  0  0  0  0
  148.5121  137.6513  155.1615 H   0  0  0  0  0  0  0  0  0  0  0  0
  149.4597  138.2949  153.8323 H   0  0  0  0  0  0  0  0  0  0  0  0
  150.7265  144.3272  157.9012 H   0  0  0  0  0  0  0  0  0  0  0  0
  152.9831  140.7562  158.5565 H   0  0  0  0  0  0  0  0  0  0  0  0
  1  2  1  0  0  0  0
  1 19  1  0  0  0  0
  1 20  1  0  0  0  0
  1 21  1  0  0  0  0
  2 18  2  0  0  0  0
  2  3  1  0  0  0  0
  3  4  2  0  0  0  0
  3 22  1  0  0  0  0
  4  5  1  0  0  0  0
  4  6  1  0  0  0  0
  5 23  1  0  0  0  0
  5 24  1  0  0  0  0
  5 25  1  0  0  0  0
  6  7  1  0  0  0  0
  6 37  1  0  0  0  0
  7  8  2  0  0  0  0
  7 18  1  0  0  0  0
  8  9  1  0  0  0  0
  9 10  2  0  0  0  0
  9 11  1  0  0  0  0
 11 17  1  0  0  0  0
 11 12  1  0  0  0  0
 11 26  1  0  0  0  0
 12 13  1  0  0  0  0
 12 27  1  0  0  0  0
 12 28  1  0  0  0  0
 13 14  1  0  0  0  0
 13 15  1  0  0  0  0
 14 29  1  0  0  0  0
 14 30  1  0  0  0  0
 14 31  1  0  0  0  0
 15 16  1  0  0  0  0
 15 32  1  0  0  0  0
 15 33  1  0  0  0  0
 16 17  1  0  0  0  0
 16 34  1  0  0  0  0
 16 35  1  0  0  0  0
 18 36  1  0  0  0  0
M  END
> <s_m_source_file>
AV-unprocessed.smi

> <i_m_source_file_index>
3314

> <i_lp_mmshare_version>
43012

> <i_f3d_flags>
0

> <s_epik_input>
W0NIM11jMVtjSF1jKFtDSDNdKW5jKFtjSF0xKVtOSF1DKD1PKVtDQEBIXTJbQ0gyXU4oW0NIM10pW0NIMl1bQ0gyXU8y

> <s_epik_cmdline>
J2VwaWtfcHl0aG9uJywgJy1waCcsICc3LjAnLCAnLXRuJywgJzgnLCAnLW1hJywgJzIwMCcsICctbWV0YWxfYmluZGluZycsICctaW1hZScsICc8aW5maWxlLm1hZT4nLCAnLW9tYWUnLCAnPG91dGZpbGUubWFlPic=

> <r_epik_Ionization_Penalty>
1.13914

> <r_epik_Ionization_Penalty_Charging>
0.583937

> <r_epik_Ionization_Penalty_Neutral>
0.555199

> <r_epik_State_Penalty>
2.94598

> <r_epik_Charging_Adjusted_Penalty>
3.52991

> <i_epik_Tot_Q>
0

> <i_epik_Tot_abs_Q>
0

> <r_epik_Metal_State_Penalty>
2.95583

> <b_epik_Metal_Only>
1

> <s_lp_Force_Field>
OPLS_2005

> <r_lp_Energy>
39.2006

> <b_lp_Chiralities_Consistent>
1

> <s_lp_Variant>
AV-unprocessed.smi:3314-17

> <Gold.Version>
5.8.1

> <Gold.Id.Protein>
6NUR|6NUR_protein|mol2

> <Gold.PLP.Fitness>
42.3231

> <Gold.PLP.PLP>
-39.4324

> <Gold.PLP.part.hbond>
-1.0000

> <Gold.PLP.part.metal>
0.0000

> <Gold.PLP.part.buried>
-4.8461

> <Gold.PLP.part.nonpolar>
-33.1283

> <Gold.PLP.part.repulsive>
0.3076

> <Gold.PLP.ligand.clash>
0.0000

> <Gold.PLP.ligand.torsion>
0.0548

> <Gold.PLP.Chemscore.Hbond>
1.0000

> <Gold.PLP.Chemscore.CHOScore>
0.0000

> <Gold.PLP.Chemscore.Metal>
0.0000

> <Gold.Chemscore.Hbonds>
donor molecule, donor type, donor heavy atom, donor atom, acceptor molecule, acceptor atom, score
      P1  H  7997  8008       L1    10  1.00

> <Gold.PLP.Chemscore.Internal.Correction>
0.0003

> <Gold.Rescore>
     Score         DG    S(hbond)    S(metal)    S(lipo)     H(rot)  DE(clash)    DE(int)     intcor
     16.25     -17.75       1.00        0.00      98.24       1.00       0.04       1.47       ----

> <Gold.Chemscore.Fitness>
16.2454

> <Gold.Chemscore.DG>
-17.7501

> <Gold.Chemscore.ZeroCoef>
-5.4800

> <Gold.Chemscore.Hbond>
0.9987

> <Gold.Chemscore.Metal>
0.0000

> <Gold.Chemscore.Lipo>
98.2437

> <Gold.Chemscore.Internal_Hbond>
0.0000

> <Gold.Chemscore.DEClash>
0.0394

> <Gold.Chemscore.DEInternal>
1.4653

> <Gold.Chemscore.Rot>
1.0000

> <Gold.Chemscore.Internal.Correction>
   9.000000E+99

> <Gold.Chemscore.Hbonds>
donor molecule, donor type, donor heavy atom, donor atom, acceptor molecule, acceptor atom, score
      P1  H  7997  8008       L1    10  0.96

> <Gold.Chemscore.Hbond.Weighted>
-3.3356

> <Gold.Chemscore.Metal.Weighted>
-0.0000

> <Gold.Chemscore.Lipo.Weighted>
-11.4945

> <Gold.Chemscore.Internal_Hbond.Weighted>
0.0000

> <Gold.Chemscore.DEClash.Weighted>
0.0394

> <Gold.Chemscore.DEInternal.Weighted>
1.4653

> <Gold.Chemscore.Rot.Weighted>
2.5600

> <Gold.Chemscore.Internal.Correction.Weighted>
   9.000000E+99

> <Gold.Protein.RotatedTorsions>
[ 6907 6896 6895 6894 ] final   61.59 input  -60.11 | X-H torsion
[ 7974 7965 7964 7962 ] final  -58.31 input  175.53 | X-H torsion
[ 8008 7997 7996 7995 ] final  -35.07 input   59.86 | X-H torsion
[ 10167 10162 10161 10158 ] final  155.75 input  -65.29 | X-H torsion
[ 10718 10713 10712 10709 ] final  -43.27 input   66.30 | X-H torsion
[ 10763 10752 10751 10750 ] final    0.34 input  -60.55 | X-H torsion
[ 11005 11000 10999 10996 ] final  146.68 input  -57.11 | X-H torsion

> <Gold.Protein.ActiveResidues>
 VAL166  LYS551  ARG553  GLY616  TRP617  ASP618  TYR619  PRO620  LYS621  CYS622 
 ASP623  PHE694  ASN695  SER759  ASP760  ASP761  ALA762  ILE779  LEU786  VAL792 
 PHE793  MET794  SER795  GLU796  ALA797  LYS798  CYS799  TRP800  GLU811  SER814 

> <Gold.Protein.RotatedAtoms>
  152.4101  134.6138  160.0032 H   0  0  0  0  0  0  0  0  0  0  0  0  # atno 6907 bound_to 6896
  151.6318  133.3326  159.3118 H   0  0  0  0  0  0  0  0  0  0  0  0  # atno 6908 bound_to 6896
  150.7993  134.7116  159.6652 H   0  0  0  0  0  0  0  0  0  0  0  0  # atno 6909 bound_to 6896
  145.8408  140.8418  143.0035 H   0  0  0  0  0  0  0  0  0  0  0  0  # atno 7974 bound_to 7965
  154.4104  140.1667  156.2152 H   0  0  0  0  0  0  0  0  0  0  0  0  # atno 8008 bound_to 7997
  155.9410  140.3408  155.6304 H   0  0  0  0  0  0  0  0  0  0  0  0  # atno 8009 bound_to 7997
  155.6989  140.0742  157.2409 H   0  0  0  0  0  0  0  0  0  0  0  0  # atno 8010 bound_to 7997
  139.4821  144.5071  151.8081 H   0  0  0  0  0  0  0  0  0  0  0  0  # atno 10167 bound_to 10162
  156.2508  130.4188  149.8652 H   0  0  0  0  0  0  0  0  0  0  0  0  # atno 10718 bound_to 10713
  153.3219  135.6969  153.7023 H   0  0  0  0  0  0  0  0  0  0  0  0  # atno 10763 bound_to 10752
  153.5860  135.3489  155.2893 H   0  0  0  0  0  0  0  0  0  0  0  0  # atno 10764 bound_to 10752
  154.8599  135.4306  154.2385 H   0  0  0  0  0  0  0  0  0  0  0  0  # atno 10765 bound_to 10752
  140.0813  134.9095  157.1505 H   0  0  0  0  0  0  0  0  0  0  0  0  # atno 11005 bound_to 11000
  144.6733  140.0809  143.7469 LP  0  0  0  0  0  0  0  0  0  0  0  0  # atno 17320 bound_to 7965
  145.9467  139.2706  143.1236 LP  0  0  0  0  0  0  0  0  0  0  0  0  # atno 17321 bound_to 7965
  140.4570  144.1776  150.5902 LP  0  0  0  0  0  0  0  0  0  0  0  0  # atno 17342 bound_to 10162
  140.4525  143.2481  151.9329 LP  0  0  0  0  0  0  0  0  0  0  0  0  # atno 17343 bound_to 10162
  156.6202  130.8623  151.3473 LP  0  0  0  0  0  0  0  0  0  0  0  0  # atno 17370 bound_to 10713
  157.7213  130.9563  150.1452 LP  0  0  0  0  0  0  0  0  0  0  0  0  # atno 17371 bound_to 10713
  140.3484  134.2626  155.7202 LP  0  0  0  0  0  0  0  0  0  0  0  0  # atno 17394 bound_to 11000
  141.2047  133.7878  157.0270 LP  0  0  0  0  0  0  0  0  0  0  0  0  # atno 17395 bound_to 11000

$$$$
