AV-unprocessed.smi:1827|AV-procd|sdf|7421|dock3
  -GOLD-   22720 9103D 1   1.00000     0.00000
 Structure written by MMmdl.
 44 45  0  0  0  0  0  0  0  0  2 V2000
  151.5287  138.1057  154.3953 C   0  0  0  0  0  0  0  0  0  0  0  0
  150.4789  139.1774  154.5010 C   0  0  0  0  0  0  0  0  0  0  0  0
  150.8324  140.3726  154.9555 N   0  0  0  0  0  0  0  0  0  0  0  0
  149.7091  141.1174  154.8727 N   0  0  0  0  0  0  0  0  0  0  0  0
  148.6283  140.4280  154.3710 C   0  0  0  0  0  0  0  0  0  0  0  0
  147.2913  141.0625  154.1801 C   0  0  0  0  0  0  0  0  0  0  0  0
  149.0927  139.1639  154.1500 C   0  0  0  0  0  0  0  0  0  0  0  0
  148.3179  138.1112  153.6019 N   0  0  0  0  0  0  0  0  0  0  0  0
  147.0520  137.7975  153.9161 C   0  0  0  0  0  0  0  0  0  0  0  0
  146.3505  138.4157  154.7159 O   0  0  0  0  0  0  0  0  0  0  0  0
  146.6274  136.7267  153.2299 N   0  0  0  0  0  0  0  0  0  0  0  0
  145.2913  136.1387  153.3266 C   0  0  2  0  0  0  0  0  0  0  0  0
  145.3442  134.6488  153.7209 C   0  0  0  0  0  0  0  0  0  0  0  0
  145.8936  133.7709  152.5834 C   0  0  0  0  0  0  0  0  0  0  0  0
  145.1026  133.9545  151.3372 N   0  3  2  0  0  0  0  0  0  0  0  0
  145.5043  133.0254  150.2495 C   0  0  0  0  0  0  0  0  0  0  0  0
  144.3133  132.4923  149.4464 C   0  0  0  0  0  0  0  0  0  0  0  0
  144.1956  132.9204  148.1874 N   0  0  0  0  0  0  0  0  0  0  0  0
  143.5022  131.7203  149.9547 O   0  0  0  0  0  0  0  0  0  0  0  0
  145.0972  135.3731  150.8979 C   0  0  0  0  0  0  0  0  0  0  0  0
  144.5359  136.2958  151.9955 C   0  0  0  0  0  0  0  0  0  0  0  0
  149.6983  142.0880  155.1523 H   0  0  0  0  0  0  0  0  0  0  0  0
  151.3395  137.4488  153.5465 H   0  0  0  0  0  0  0  0  0  0  0  0
  151.5540  137.4933  155.2966 H   0  0  0  0  0  0  0  0  0  0  0  0
  152.5228  138.5325  154.2589 H   0  0  0  0  0  0  0  0  0  0  0  0
  146.6098  140.3958  153.6518 H   0  0  0  0  0  0  0  0  0  0  0  0
  147.3777  141.9816  153.6002 H   0  0  0  0  0  0  0  0  0  0  0  0
  146.8409  141.3097  155.1417 H   0  0  0  0  0  0  0  0  0  0  0  0
  148.7378  137.6059  152.8358 H   0  0  0  0  0  0  0  0  0  0  0  0
  147.2717  136.2950  152.5838 H   0  0  0  0  0  0  0  0  0  0  0  0
  144.7409  136.6860  154.0941 H   0  0  0  0  0  0  0  0  0  0  0  0
  145.9402  134.5081  154.6233 H   0  0  0  0  0  0  0  0  0  0  0  0
  144.3379  134.3117  153.9731 H   0  0  0  0  0  0  0  0  0  0  0  0
  146.9407  134.0112  152.3923 H   0  0  0  0  0  0  0  0  0  0  0  0
  145.8651  132.7266  152.8959 H   0  0  0  0  0  0  0  0  0  0  0  0
  146.1475  133.5476  149.5399 H   0  0  0  0  0  0  0  0  0  0  0  0
  146.0923  132.2017  150.6579 H   0  0  0  0  0  0  0  0  0  0  0  0
  143.4330  132.5984  147.6091 H   0  0  0  0  0  0  0  0  0  0  0  0
  144.8769  133.5654  147.8124 H   0  0  0  0  0  0  0  0  0  0  0  0
  146.1097  135.6751  150.6261 H   0  0  0  0  0  0  0  0  0  0  0  0
  144.4855  135.4779  150.0010 H   0  0  0  0  0  0  0  0  0  0  0  0
  143.4829  136.0582  152.1532 H   0  0  0  0  0  0  0  0  0  0  0  0
  144.5644  137.3346  151.6641 H   0  0  0  0  0  0  0  0  0  0  0  0
  144.1446  133.7229  151.5606 H   0  0  0  0  0  0  0  0  0  0  0  0
  1  2  1  0  0  0  0
  1 23  1  0  0  0  0
  1 24  1  0  0  0  0
  1 25  1  0  0  0  0
  2  7  1  0  0  0  0
  2  3  2  0  0  0  0
  3  4  1  0  0  0  0
  4 22  1  0  0  0  0
  4  5  1  0  0  0  0
  5  6  1  0  0  0  0
  5  7  2  0  0  0  0
  6 26  1  0  0  0  0
  6 27  1  0  0  0  0
  6 28  1  0  0  0  0
  7  8  1  0  0  0  0
  8  9  1  0  0  0  0
  8 29  1  0  0  0  0
  9 10  2  0  0  0  0
  9 11  1  0  0  0  0
 11 12  1  0  0  0  0
 11 30  1  0  0  0  0
 12 21  1  0  0  0  0
 12 13  1  0  0  0  0
 12 31  1  0  0  0  0
 13 14  1  0  0  0  0
 13 32  1  0  0  0  0
 13 33  1  0  0  0  0
 14 15  1  0  0  0  0
 14 34  1  0  0  0  0
 14 35  1  0  0  0  0
 15 16  1  0  0  0  0
 15 20  1  0  0  0  0
 15 44  1  0  0  0  0
 16 17  1  0  0  0  0
 16 36  1  0  0  0  0
 16 37  1  0  0  0  0
 17 18  1  0  0  0  0
 17 19  2  0  0  0  0
 18 38  1  0  0  0  0
 18 39  1  0  0  0  0
 20 21  1  0  0  0  0
 20 40  1  0  0  0  0
 20 41  1  0  0  0  0
 21 42  1  0  0  0  0
 21 43  1  0  0  0  0
M  CHG  1  15   1
M  END
> <s_m_source_file>
AV-unprocessed.smi

> <i_m_source_file_index>
1827

> <i_lp_mmshare_version>
43012

> <i_f3d_flags>
0

> <s_epik_input>
W0NIM11jMW5bbkhdYyhbQ0gzXSljMVtOSF1DKD1PKVtOSF1bQ0hdMltDSDJdW0NIMl1OKFtDSDJdW0NIMl0yKVtDSDJdQyg9TylbTkgyXQ==

> <s_epik_cmdline>
J2VwaWtfcHl0aG9uJywgJy1waCcsICc3LjAnLCAnLXRuJywgJzgnLCAnLW1hJywgJzIwMCcsICctbWV0YWxfYmluZGluZycsICctaW1hZScsICc8aW5maWxlLm1hZT4nLCAnLW9tYWUnLCAnPG91dGZpbGUubWFlPic=

> <r_lp_tautomer_probability>
0.5

> <r_epik_Ionization_Penalty>
0.839233

> <r_epik_Ionization_Penalty_Charging>
0.838844

> <r_epik_Ionization_Penalty_Neutral>
0.000388936

> <r_epik_State_Penalty>
0.8734

> <r_epik_Charging_Adjusted_Penalty>
1.71224

> <i_epik_Tot_Q>
1

> <i_epik_Tot_abs_Q>
1

> <r_epik_Metal_State_Penalty>
0.890753

> <b_epik_Metal_Only>
0

> <s_lp_Force_Field>
OPLS_2005

> <r_lp_Energy>
15.6473

> <b_lp_Chiralities_Consistent>
1

> <s_lp_Variant>
AV-unprocessed.smi:1827-3

> <Gold.Version>
5.8.1

> <Gold.Id.Protein>
6NUR|6NUR_protein|mol2

> <Gold.PLP.Fitness>
45.9456

> <Gold.PLP.PLP>
-33.0233

> <Gold.PLP.part.hbond>
-5.0000

> <Gold.PLP.part.metal>
0.0000

> <Gold.PLP.part.buried>
-6.2305

> <Gold.PLP.part.nonpolar>
-24.1051

> <Gold.PLP.part.repulsive>
2.6230

> <Gold.PLP.ligand.clash>
0.0000

> <Gold.PLP.ligand.torsion>
0.9051

> <Gold.PLP.Chemscore.Hbond>
4.7920

> <Gold.PLP.Chemscore.CHOScore>
0.0000

> <Gold.PLP.Chemscore.Metal>
0.0000

> <Gold.Chemscore.Hbonds>
donor molecule, donor type, donor heavy atom, donor atom, acceptor molecule, acceptor atom, score
      L1  H     8    29       P1  7948  1.00
      L1  H    11    30       P1  7948  0.99
      L1  H    18    39       P1  7921  1.00
      P1  H  7989  7998       L1     3  0.80
      P1  H 10785 10796       L1    19  0.99

> <Gold.PLP.Chemscore.Internal.Correction>
0.3565

> <Gold.Rescore>
     Score         DG    S(hbond)    S(metal)    S(lipo)     H(rot)  DE(clash)    DE(int)     intcor
     18.99     -20.37       3.84        0.00      60.95       1.98       0.11       1.28       ----

> <Gold.Chemscore.Fitness>
18.9858

> <Gold.Chemscore.DG>
-20.3714

> <Gold.Chemscore.ZeroCoef>
-5.4800

> <Gold.Chemscore.Hbond>
3.8445

> <Gold.Chemscore.Metal>
0.0000

> <Gold.Chemscore.Lipo>
60.9540

> <Gold.Chemscore.Internal_Hbond>
0.0000

> <Gold.Chemscore.DEClash>
0.1086

> <Gold.Chemscore.DEInternal>
1.2770

> <Gold.Chemscore.Rot>
1.9848

> <Gold.Chemscore.Internal.Correction>
   9.000000E+99

> <Gold.Chemscore.Hbonds>
donor molecule, donor type, donor heavy atom, donor atom, acceptor molecule, acceptor atom, score
      L1  H     8    29       P1  7948  0.98
      L1  H    11    30       P1  7948  0.94
      L1  H    18    39       P1  7921  0.78
      P1  H  7989  7998       L1     3  0.03
      P1  H 10785 10796       L1    19  0.67

> <Gold.Chemscore.Hbond.Weighted>
-12.8407

> <Gold.Chemscore.Metal.Weighted>
-0.0000

> <Gold.Chemscore.Lipo.Weighted>
-7.1316

> <Gold.Chemscore.Internal_Hbond.Weighted>
0.0000

> <Gold.Chemscore.DEClash.Weighted>
0.1086

> <Gold.Chemscore.DEInternal.Weighted>
1.2770

> <Gold.Chemscore.Rot.Weighted>
5.0810

> <Gold.Chemscore.Internal.Correction.Weighted>
   9.000000E+99

> <Gold.Protein.RotatedTorsions>
[ 6907 6896 6895 6894 ] final -176.05 input  -60.11 | X-H torsion
[ 7974 7965 7964 7962 ] final  100.99 input  175.53 | X-H torsion
[ 8008 7997 7996 7995 ] final    3.48 input   59.86 | X-H torsion
[ 10167 10162 10161 10158 ] final -156.64 input  -65.29 | X-H torsion
[ 10718 10713 10712 10709 ] final   56.28 input   66.30 | X-H torsion
[ 10763 10752 10751 10750 ] final -114.33 input  -60.55 | X-H torsion
[ 11005 11000 10999 10996 ] final  174.56 input  -57.11 | X-H torsion

> <Gold.Protein.ActiveResidues>
 VAL166  LYS551  ARG553  GLY616  TRP617  ASP618  TYR619  PRO620  LYS621  CYS622 
 ASP623  PHE694  ASN695  SER759  ASP760  ASP761  ALA762  ILE779  LEU786  VAL792 
 PHE793  MET794  SER795  GLU796  ALA797  LYS798  CYS799  TRP800  GLU811  SER814 

> <Gold.Protein.RotatedAtoms>
  151.5984  133.3359  159.3042 H   0  0  0  0  0  0  0  0  0  0  0  0  # atno 6907 bound_to 6896
  150.8221  134.7437  159.6793 H   0  0  0  0  0  0  0  0  0  0  0  0  # atno 6908 bound_to 6896
  152.4314  134.5776  159.9990 H   0  0  0  0  0  0  0  0  0  0  0  0  # atno 6909 bound_to 6896
  145.3783  139.2384  143.3417 H   0  0  0  0  0  0  0  0  0  0  0  0  # atno 7974 bound_to 7965
  154.7041  140.2679  155.6691 H   0  0  0  0  0  0  0  0  0  0  0  0  # atno 8008 bound_to 7997
  156.2774  140.2766  156.1586 H   0  0  0  0  0  0  0  0  0  0  0  0  # atno 8009 bound_to 7997
  155.0723  140.0372  157.2602 H   0  0  0  0  0  0  0  0  0  0  0  0  # atno 8010 bound_to 7997
  139.6834  143.9542  152.2348 H   0  0  0  0  0  0  0  0  0  0  0  0  # atno 10167 bound_to 10162
  157.5417  130.8702  149.8832 H   0  0  0  0  0  0  0  0  0  0  0  0  # atno 10718 bound_to 10713
  154.8435  135.4421  154.1490 H   0  0  0  0  0  0  0  0  0  0  0  0  # atno 10763 bound_to 10752
  153.2655  135.6940  153.7540 H   0  0  0  0  0  0  0  0  0  0  0  0  # atno 10764 bound_to 10752
  153.6800  135.3404  155.3151 H   0  0  0  0  0  0  0  0  0  0  0  0  # atno 10765 bound_to 10752
  140.3527  134.7181  157.4278 H   0  0  0  0  0  0  0  0  0  0  0  0  # atno 11005 bound_to 11000
  146.2854  140.4446  142.8760 LP  0  0  0  0  0  0  0  0  0  0  0  0  # atno 17320 bound_to 7965
  144.8526  140.7024  143.6158 LP  0  0  0  0  0  0  0  0  0  0  0  0  # atno 17321 bound_to 7965
  139.9339  144.6724  150.8335 LP  0  0  0  0  0  0  0  0  0  0  0  0  # atno 17342 bound_to 10162
  140.7660  143.3290  151.2452 LP  0  0  0  0  0  0  0  0  0  0  0  0  # atno 17343 bound_to 10162
  156.0502  130.3719  150.1219 LP  0  0  0  0  0  0  0  0  0  0  0  0  # atno 17370 bound_to 10713
  156.9398  130.9741  151.3518 LP  0  0  0  0  0  0  0  0  0  0  0  0  # atno 17371 bound_to 10713
  140.0690  134.5889  155.8663 LP  0  0  0  0  0  0  0  0  0  0  0  0  # atno 17394 bound_to 11000
  141.2007  133.6614  156.5913 LP  0  0  0  0  0  0  0  0  0  0  0  0  # atno 17395 bound_to 11000

$$$$
