AV-unprocessed.smi:1422|AV-procd|sdf|5793|dock6
  -GOLD-   22720 5443D 1   1.00000     0.00000
 Structure written by MMmdl.
 31 32  0  0  0  0  0  0  0  0  1 V2000
  143.9164  132.0552  150.4686 C   0  0  0  0  0  0  0  0  0  0  0  0
  144.3907  133.2640  151.1996 C   0  0  0  0  0  0  0  0  0  0  0  0
  145.5250  134.0204  151.1083 C   0  0  0  0  0  0  0  0  0  0  0  0
  145.3254  135.0177  152.0998 C   0  0  0  0  0  0  0  0  0  0  0  0
  146.2989  136.0237  152.3263 N   0  0  0  0  0  0  0  0  0  0  0  0
  146.1290  137.2025  152.9486 C   0  0  0  0  0  0  0  0  0  0  0  0
  145.0701  137.6017  153.4342 O   0  0  0  0  0  0  0  0  0  0  0  0
  147.2700  137.9066  152.9762 N   0  0  0  0  0  0  0  0  0  0  0  0
  147.4347  139.2282  153.5741 C   0  0  0  0  0  0  0  0  0  0  0  0
  148.7218  139.3229  154.4147 C   0  0  1  0  0  0  0  0  0  0  0  0
  149.8507  138.4091  153.9774 C   0  0  0  0  0  0  0  0  0  0  0  0
  151.0627  139.0646  154.6331 C   0  0  0  0  0  0  0  0  0  0  0  0
  150.7652  140.4562  154.7052 O   0  0  0  0  0  0  0  0  0  0  0  0
  149.4095  140.6850  154.3338 C   0  0  0  0  0  0  0  0  0  0  0  0
  144.1735  134.8821  152.7388 N   0  0  0  0  0  0  0  0  0  0  0  0
  143.5688  133.7572  152.1655 O   0  0  0  0  0  0  0  0  0  0  0  0
  144.4762  131.9148  149.5437 H   0  0  0  0  0  0  0  0  0  0  0  0
  142.8605  132.1458  150.2124 H   0  0  0  0  0  0  0  0  0  0  0  0
  144.0417  131.1612  151.0796 H   0  0  0  0  0  0  0  0  0  0  0  0
  146.3608  133.8795  150.4393 H   0  0  0  0  0  0  0  0  0  0  0  0
  147.2244  135.8239  151.9773 H   0  0  0  0  0  0  0  0  0  0  0  0
  148.0897  137.4984  152.5514 H   0  0  0  0  0  0  0  0  0  0  0  0
  147.4145  140.0068  152.8094 H   0  0  0  0  0  0  0  0  0  0  0  0
  146.5709  139.4101  154.2138 H   0  0  0  0  0  0  0  0  0  0  0  0
  148.4887  139.1150  155.4606 H   0  0  0  0  0  0  0  0  0  0  0  0
  149.7124  137.3725  154.2863 H   0  0  0  0  0  0  0  0  0  0  0  0
  149.9573  138.4298  152.8916 H   0  0  0  0  0  0  0  0  0  0  0  0
  151.1967  138.6878  155.6476 H   0  0  0  0  0  0  0  0  0  0  0  0
  151.9838  138.8815  154.0794 H   0  0  0  0  0  0  0  0  0  0  0  0
  149.3937  141.0653  153.3113 H   0  0  0  0  0  0  0  0  0  0  0  0
  148.9407  141.4295  154.9777 H   0  0  0  0  0  0  0  0  0  0  0  0
  1  2  1  0  0  0  0
  1 17  1  0  0  0  0
  1 18  1  0  0  0  0
  1 19  1  0  0  0  0
  2 16  1  0  0  0  0
  2  3  2  0  0  0  0
  3  4  1  0  0  0  0
  3 20  1  0  0  0  0
  4  5  1  0  0  0  0
  4 15  2  0  0  0  0
  5  6  1  0  0  0  0
  5 21  1  0  0  0  0
  6  7  2  0  0  0  0
  6  8  1  0  0  0  0
  8  9  1  0  0  0  0
  8 22  1  0  0  0  0
  9 10  1  0  0  0  0
  9 23  1  0  0  0  0
  9 24  1  0  0  0  0
 10 14  1  0  0  0  0
 10 11  1  0  0  0  0
 10 25  1  0  0  0  0
 11 12  1  0  0  0  0
 11 26  1  0  0  0  0
 11 27  1  0  0  0  0
 12 13  1  0  0  0  0
 12 28  1  0  0  0  0
 12 29  1  0  0  0  0
 13 14  1  0  0  0  0
 14 30  1  0  0  0  0
 14 31  1  0  0  0  0
 15 16  1  0  0  0  0
M  END
> <s_m_source_file>
AV-unprocessed.smi

> <i_m_source_file_index>
1422

> <i_lp_mmshare_version>
43012

> <i_f3d_flags>
0

> <s_epik_input>
W0NIM11jMVtjSF1jKG5vMSlbTkhdQyg9TylbTkhdW0NIMl1bQ0BASF0yW0NIMl1bQ0gyXU9bQ0gyXTI=

> <s_epik_cmdline>
J2VwaWtfcHl0aG9uJywgJy1waCcsICc3LjAnLCAnLXRuJywgJzgnLCAnLW1hJywgJzIwMCcsICctbWV0YWxfYmluZGluZycsICctaW1hZScsICc8aW5maWxlLm1hZT4nLCAnLW9tYWUnLCAnPG91dGZpbGUubWFlPic=

> <r_lp_tautomer_probability>
1

> <r_epik_Ionization_Penalty>
2.27275e-05

> <r_epik_Ionization_Penalty_Charging>
0

> <r_epik_Ionization_Penalty_Neutral>
2.27275e-05

> <r_epik_State_Penalty>
-0

> <r_epik_Charging_Adjusted_Penalty>
0

> <i_epik_Tot_Q>
0

> <i_epik_Tot_abs_Q>
0

> <r_epik_Metal_State_Penalty>
-0

> <b_epik_Metal_Only>
0

> <s_lp_Force_Field>
OPLS_2005

> <r_lp_Energy>
16.3124

> <b_lp_Chiralities_Consistent>
1

> <s_lp_Variant>
AV-unprocessed.smi:1422-2

> <Gold.Version>
5.8.1

> <Gold.Id.Protein>
6NUR|6NUR_protein|mol2

> <Gold.PLP.Fitness>
34.3543

> <Gold.PLP.PLP>
-26.6021

> <Gold.PLP.part.hbond>
-3.0000

> <Gold.PLP.part.metal>
0.0000

> <Gold.PLP.part.buried>
-2.9540

> <Gold.PLP.part.nonpolar>
-21.9739

> <Gold.PLP.part.repulsive>
1.1432

> <Gold.PLP.ligand.clash>
0.0000

> <Gold.PLP.ligand.torsion>
0.6266

> <Gold.PLP.Chemscore.Hbond>
3.0000

> <Gold.PLP.Chemscore.CHOScore>
0.0000

> <Gold.PLP.Chemscore.Metal>
0.0000

> <Gold.Chemscore.Hbonds>
donor molecule, donor type, donor heavy atom, donor atom, acceptor molecule, acceptor atom, score
      L1  H     5    21       P1  7948  1.00
      L1  H     8    22       P1  7948  1.00
      P1  H  7989  7998       L1    13  0.85

> <Gold.PLP.Chemscore.Internal.Correction>
0.0054

> <Gold.Rescore>
     Score         DG    S(hbond)    S(metal)    S(lipo)     H(rot)  DE(clash)    DE(int)     intcor
     13.87     -15.88       2.15        0.00      55.90       1.30       0.10       1.91       ----

> <Gold.Chemscore.Fitness>
13.8722

> <Gold.Chemscore.DG>
-15.8767

> <Gold.Chemscore.ZeroCoef>
-5.4800

> <Gold.Chemscore.Hbond>
2.1484

> <Gold.Chemscore.Metal>
0.0000

> <Gold.Chemscore.Lipo>
55.8978

> <Gold.Chemscore.Internal_Hbond>
0.0000

> <Gold.Chemscore.DEClash>
0.0959

> <Gold.Chemscore.DEInternal>
1.9085

> <Gold.Chemscore.Rot>
1.2965

> <Gold.Chemscore.Internal.Correction>
   9.000000E+99

> <Gold.Chemscore.Hbonds>
donor molecule, donor type, donor heavy atom, donor atom, acceptor molecule, acceptor atom, score
      L1  H     5    21       P1  7948  0.96
      L1  H     8    22       P1  7948  0.97
      P1  H  7989  7998       L1    13  0.07

> <Gold.Chemscore.Hbond.Weighted>
-7.1758

> <Gold.Chemscore.Metal.Weighted>
-0.0000

> <Gold.Chemscore.Lipo.Weighted>
-6.5400

> <Gold.Chemscore.Internal_Hbond.Weighted>
0.0000

> <Gold.Chemscore.DEClash.Weighted>
0.0959

> <Gold.Chemscore.DEInternal.Weighted>
1.9085

> <Gold.Chemscore.Rot.Weighted>
3.3192

> <Gold.Chemscore.Internal.Correction.Weighted>
   9.000000E+99

> <Gold.Protein.RotatedTorsions>
[ 6907 6896 6895 6894 ] final  162.49 input  -60.11 | X-H torsion
[ 7974 7965 7964 7962 ] final -117.21 input  175.53 | X-H torsion
[ 8008 7997 7996 7995 ] final  163.28 input   59.86 | X-H torsion
[ 10167 10162 10161 10158 ] final  142.40 input  -65.29 | X-H torsion
[ 10718 10713 10712 10709 ] final   11.14 input   66.30 | X-H torsion
[ 10763 10752 10751 10750 ] final  -10.95 input  -60.55 | X-H torsion
[ 11005 11000 10999 10996 ] final  -18.82 input  -57.11 | X-H torsion

> <Gold.Protein.ActiveResidues>
 VAL166  LYS551  ARG553  GLY616  TRP617  ASP618  TYR619  PRO620  LYS621  CYS622 
 ASP623  PHE694  ASN695  SER759  ASP760  ASP761  ALA762  ILE779  LEU786  VAL792 
 PHE793  MET794  SER795  GLU796  ALA797  LYS798  CYS799  TRP800  GLU811  SER814 

> <Gold.Protein.RotatedAtoms>
  151.9397  133.3634  159.3960 H   0  0  0  0  0  0  0  0  0  0  0  0  # atno 6907 bound_to 6896
  150.7001  134.4452  159.5320 H   0  0  0  0  0  0  0  0  0  0  0  0  # atno 6908 bound_to 6896
  152.2107  134.8504  160.0548 H   0  0  0  0  0  0  0  0  0  0  0  0  # atno 6909 bound_to 6896
  145.0879  140.8470  143.4000 H   0  0  0  0  0  0  0  0  0  0  0  0  # atno 7974 bound_to 7965
  156.1969  140.1728  156.7980 H   0  0  0  0  0  0  0  0  0  0  0  0  # atno 8008 bound_to 7997
  154.5541  140.0712  156.8746 H   0  0  0  0  0  0  0  0  0  0  0  0  # atno 8009 bound_to 7997
  155.2972  140.3359  155.4252 H   0  0  0  0  0  0  0  0  0  0  0  0  # atno 8010 bound_to 7997
  139.4995  144.6109  151.6273 H   0  0  0  0  0  0  0  0  0  0  0  0  # atno 10167 bound_to 10162
  156.9912  130.6043  149.5686 H   0  0  0  0  0  0  0  0  0  0  0  0  # atno 10718 bound_to 10713
  153.4767  135.7017  153.5962 H   0  0  0  0  0  0  0  0  0  0  0  0  # atno 10763 bound_to 10752
  153.4192  135.3829  155.2100 H   0  0  0  0  0  0  0  0  0  0  0  0  # atno 10764 bound_to 10752
  154.8723  135.3923  154.4212 H   0  0  0  0  0  0  0  0  0  0  0  0  # atno 10765 bound_to 10752
  140.8306  133.8000  155.9755 H   0  0  0  0  0  0  0  0  0  0  0  0  # atno 11005 bound_to 11000
  145.1101  139.2763  143.5642 LP  0  0  0  0  0  0  0  0  0  0  0  0  # atno 17320 bound_to 7965
  146.3531  140.0694  142.8624 LP  0  0  0  0  0  0  0  0  0  0  0  0  # atno 17321 bound_to 7965
  140.5784  143.9989  150.6254 LP  0  0  0  0  0  0  0  0  0  0  0  0  # atno 17342 bound_to 10162
  140.3130  143.3186  152.0860 LP  0  0  0  0  0  0  0  0  0  0  0  0  # atno 17343 bound_to 10162
  156.0206  130.5301  150.8265 LP  0  0  0  0  0  0  0  0  0  0  0  0  # atno 17370 bound_to 10713
  157.5457  131.0942  150.9766 LP  0  0  0  0  0  0  0  0  0  0  0  0  # atno 17371 bound_to 10713
  140.9002  134.2388  157.5046 LP  0  0  0  0  0  0  0  0  0  0  0  0  # atno 17394 bound_to 11000
  139.8705  134.9703  156.4696 LP  0  0  0  0  0  0  0  0  0  0  0  0  # atno 17395 bound_to 11000

$$$$
