AV-unprocessed.smi:3181|AV-procd|sdf|12145|dock6
  -GOLD-   2272017583D 1   1.00000     0.00000
 Structure written by MMmdl.
 42 43  0  0  0  0  0  0  0  0  2 V2000
  146.8087  139.3864  151.3205 C   0  0  0  0  0  0  0  0  0  0  0  0
  146.3455  138.5201  152.5046 C   0  0  2  0  0  0  0  0  0  0  0  0
  147.2855  138.6234  153.7231 C   0  0  0  0  0  0  0  0  0  0  0  0
  147.8335  139.9551  153.9070 N   0  0  0  0  0  0  0  0  0  0  0  0
  149.0909  140.3952  153.8353 C   0  0  0  0  0  0  0  0  0  0  0  0
  149.2174  141.6931  154.0738 N   0  0  0  0  0  0  0  0  0  0  0  0
  147.9097  142.0113  154.3095 C   0  0  0  0  0  0  0  0  0  0  0  0
  147.0396  141.0043  154.2256 N   0  0  0  0  0  0  0  0  0  0  0  0
  146.2369  137.1054  152.0814 N   0  3  0  0  0  0  0  0  0  0  0  0
  145.4045  136.2299  152.9406 C   0  0  1  0  0  0  0  0  0  0  0  0
  143.9616  136.0897  152.4172 C   0  0  0  0  0  0  0  0  0  0  0  0
  143.8993  135.2730  151.1179 C   0  0  0  0  0  0  0  0  0  0  0  0
  144.5385  133.8792  151.2775 C   0  0  1  0  0  0  0  0  0  0  0  0
  144.4298  133.1025  149.9532 C   0  0  0  0  0  0  0  0  0  0  0  0
  145.9975  134.0009  151.7916 C   0  0  2  0  0  0  0  0  0  0  0  0
  146.6632  132.6337  152.0309 C   0  0  0  0  0  0  0  0  0  0  0  0
  146.0552  134.8422  153.0867 C   0  0  0  0  0  0  0  0  0  0  0  0
  146.8234  140.4452  151.5803 H   0  0  0  0  0  0  0  0  0  0  0  0
  146.1422  139.2758  150.4651 H   0  0  0  0  0  0  0  0  0  0  0  0
  147.8127  139.1103  150.9965 H   0  0  0  0  0  0  0  0  0  0  0  0
  145.3621  138.8780  152.8139 H   0  0  0  0  0  0  0  0  0  0  0  0
  146.7546  138.3465  154.6352 H   0  0  0  0  0  0  0  0  0  0  0  0
  148.1160  137.9231  153.6202 H   0  0  0  0  0  0  0  0  0  0  0  0
  149.9297  139.7560  153.6011 H   0  0  0  0  0  0  0  0  0  0  0  0
  147.5897  143.0142  154.5508 H   0  0  0  0  0  0  0  0  0  0  0  0
  145.8795  137.0707  151.1374 H   0  0  0  0  0  0  0  0  0  0  0  0
  145.3769  136.6845  153.9321 H   0  0  0  0  0  0  0  0  0  0  0  0
  143.3575  135.5893  153.1752 H   0  0  0  0  0  0  0  0  0  0  0  0
  143.4997  137.0656  152.2686 H   0  0  0  0  0  0  0  0  0  0  0  0
  142.8577  135.1694  150.8116 H   0  0  0  0  0  0  0  0  0  0  0  0
  144.3983  135.8188  150.3164 H   0  0  0  0  0  0  0  0  0  0  0  0
  143.9603  133.3335  152.0248 H   0  0  0  0  0  0  0  0  0  0  0  0
  145.0451  133.5547  149.1748 H   0  0  0  0  0  0  0  0  0  0  0  0
  143.4007  133.0869  149.5933 H   0  0  0  0  0  0  0  0  0  0  0  0
  144.7386  132.0638  150.0655 H   0  0  0  0  0  0  0  0  0  0  0  0
  146.5835  134.5169  151.0296 H   0  0  0  0  0  0  0  0  0  0  0  0
  146.0868  132.0283  152.7312 H   0  0  0  0  0  0  0  0  0  0  0  0
  147.6649  132.7530  152.4443 H   0  0  0  0  0  0  0  0  0  0  0  0
  146.7702  132.0674  151.1064 H   0  0  0  0  0  0  0  0  0  0  0  0
  147.0893  134.9548  153.4153 H   0  0  0  0  0  0  0  0  0  0  0  0
  145.5464  134.2992  153.8847 H   0  0  0  0  0  0  0  0  0  0  0  0
  147.1714  136.7225  152.0784 H   0  0  0  0  0  0  0  0  0  0  0  0
  1  2  1  0  0  0  0
  1 18  1  0  0  0  0
  1 19  1  0  0  0  0
  1 20  1  0  0  0  0
  2  3  1  0  0  0  0
  2  9  1  0  0  0  0
  2 21  1  0  0  0  0
  3  4  1  0  0  0  0
  3 22  1  0  0  0  0
  3 23  1  0  0  0  0
  4  8  1  0  0  0  0
  4  5  1  0  0  0  0
  5  6  2  0  0  0  0
  5 24  1  0  0  0  0
  6  7  1  0  0  0  0
  7  8  2  0  0  0  0
  7 25  1  0  0  0  0
  9 10  1  0  0  0  0
  9 26  1  0  0  0  0
  9 42  1  0  0  0  0
 10 17  1  0  0  0  0
 10 11  1  0  0  0  0
 10 27  1  0  0  0  0
 11 12  1  0  0  0  0
 11 28  1  0  0  0  0
 11 29  1  0  0  0  0
 12 13  1  0  0  0  0
 12 30  1  0  0  0  0
 12 31  1  0  0  0  0
 13 14  1  0  0  0  0
 13 15  1  0  0  0  0
 13 32  1  0  0  0  0
 14 33  1  0  0  0  0
 14 34  1  0  0  0  0
 14 35  1  0  0  0  0
 15 16  1  0  0  0  0
 15 17  1  0  0  0  0
 15 36  1  0  0  0  0
 16 37  1  0  0  0  0
 16 38  1  0  0  0  0
 16 39  1  0  0  0  0
 17 40  1  0  0  0  0
 17 41  1  0  0  0  0
M  CHG  1   9   1
M  END
> <s_m_source_file>
AV-unprocessed.smi

> <i_m_source_file_index>
3181

> <i_lp_mmshare_version>
43012

> <i_f3d_flags>
0

> <s_epik_input>
bjFbY0hdbltjSF1uMVtDSDJdW0NAQEhdKFtDSDNdKVtOSF1bQ0BASF0yW0NIMl1bQ0gyXVtDQEBIXShbQ0gzXSlbQ0BASF0oW0NIM10pW0NIMl0y

> <s_epik_cmdline>
J2VwaWtfcHl0aG9uJywgJy1waCcsICc3LjAnLCAnLXRuJywgJzgnLCAnLW1hJywgJzIwMCcsICctbWV0YWxfYmluZGluZycsICctaW1hZScsICc8aW5maWxlLm1hZT4nLCAnLW9tYWUnLCAnPG91dGZpbGUubWFlPic=

> <r_lp_tautomer_probability>
1

> <r_epik_Ionization_Penalty>
0.000617007

> <r_epik_Ionization_Penalty_Charging>
0.000616215

> <r_epik_Ionization_Penalty_Neutral>
7.92544e-07

> <r_epik_State_Penalty>
0.000388807

> <r_epik_Charging_Adjusted_Penalty>
0.00100502

> <i_epik_Tot_Q>
1

> <i_epik_Tot_abs_Q>
1

> <r_epik_Metal_State_Penalty>
-0

> <b_epik_Metal_Only>
0

> <s_lp_Force_Field>
OPLS_2005

> <r_lp_Energy>
23.0816

> <b_lp_Chiralities_Consistent>
1

> <s_lp_Variant>
AV-unprocessed.smi:3181-11

> <Gold.Version>
5.8.1

> <Gold.Id.Protein>
6NUR|6NUR_protein|mol2

> <Gold.PLP.Fitness>
38.8932

> <Gold.PLP.PLP>
-29.2519

> <Gold.PLP.part.hbond>
-2.7892

> <Gold.PLP.part.metal>
0.0000

> <Gold.PLP.part.buried>
1.0828

> <Gold.PLP.part.nonpolar>
-28.7049

> <Gold.PLP.part.repulsive>
0.3816

> <Gold.PLP.ligand.clash>
0.0000

> <Gold.PLP.ligand.torsion>
0.9205

> <Gold.PLP.Chemscore.Hbond>
2.5760

> <Gold.PLP.Chemscore.CHOScore>
1.2447

> <Gold.PLP.Chemscore.Metal>
0.0000

> <Gold.Chemscore.Hbonds>
donor molecule, donor type, donor heavy atom, donor atom, acceptor molecule, acceptor atom, score
      L1  H     9    42       P1  7948  2.00
      P1  H  8011  8017       L1     6  0.58
      L1  C     5    24       P1  7957  0.26
      L1  C     7    25       P1  8028  0.97

> <Gold.PLP.Chemscore.Internal.Correction>
0.0202

> <Gold.Rescore>
     Score         DG    S(hbond)    S(metal)    S(lipo)     H(rot)  DE(clash)    DE(int)     intcor
     10.21     -11.16       1.00        0.00      66.24       2.11       0.26       0.70       ----

> <Gold.Chemscore.Fitness>
10.2093

> <Gold.Chemscore.DG>
-11.1633

> <Gold.Chemscore.ZeroCoef>
-5.4800

> <Gold.Chemscore.Hbond>
0.9981

> <Gold.Chemscore.Metal>
0.0000

> <Gold.Chemscore.Lipo>
66.2385

> <Gold.Chemscore.Internal_Hbond>
0.0000

> <Gold.Chemscore.DEClash>
0.2565

> <Gold.Chemscore.DEInternal>
0.6975

> <Gold.Chemscore.Rot>
2.1095

> <Gold.Chemscore.Internal.Correction>
   9.000000E+99

> <Gold.Chemscore.Hbonds>
donor molecule, donor type, donor heavy atom, donor atom, acceptor molecule, acceptor atom, score
      L1  H     9    42       P1  7948  1.00
      P1  H  8011  8017       L1     6  0.19

> <Gold.Chemscore.Hbond.Weighted>
-3.3337

> <Gold.Chemscore.Metal.Weighted>
-0.0000

> <Gold.Chemscore.Lipo.Weighted>
-7.7499

> <Gold.Chemscore.Internal_Hbond.Weighted>
0.0000

> <Gold.Chemscore.DEClash.Weighted>
0.2565

> <Gold.Chemscore.DEInternal.Weighted>
0.6975

> <Gold.Chemscore.Rot.Weighted>
5.4003

> <Gold.Chemscore.Internal.Correction.Weighted>
   9.000000E+99

> <Gold.Protein.RotatedTorsions>
[ 6907 6896 6895 6894 ] final   53.26 input  -60.11 | X-H torsion
[ 7974 7965 7964 7962 ] final -131.06 input  175.53 | X-H torsion
[ 8008 7997 7996 7995 ] final -135.21 input   59.86 | X-H torsion
[ 10167 10162 10161 10158 ] final  -47.74 input  -65.29 | X-H torsion
[ 10718 10713 10712 10709 ] final  106.86 input   66.30 | X-H torsion
[ 10763 10752 10751 10750 ] final  -31.34 input  -60.55 | X-H torsion
[ 11005 11000 10999 10996 ] final  116.50 input  -57.11 | X-H torsion

> <Gold.Protein.ActiveResidues>
 VAL166  LYS551  ARG553  GLY616  TRP617  ASP618  TYR619  PRO620  LYS621  CYS622 
 ASP623  PHE694  ASN695  SER759  ASP760  ASP761  ALA762  ILE779  LEU786  VAL792 
 PHE793  MET794  SER795  GLU796  ALA797  LYS798  CYS799  TRP800  GLU811  SER814 

> <Gold.Protein.RotatedAtoms>
  152.3319  134.7249  160.0287 H   0  0  0  0  0  0  0  0  0  0  0  0  # atno 6907 bound_to 6896
  151.7662  133.3332  159.3440 H   0  0  0  0  0  0  0  0  0  0  0  0  # atno 6908 bound_to 6896
  150.7428  134.5992  159.6072 H   0  0  0  0  0  0  0  0  0  0  0  0  # atno 6909 bound_to 6896
  144.9415  140.7244  143.4843 H   0  0  0  0  0  0  0  0  0  0  0  0  # atno 7974 bound_to 7965
  155.3749  140.0490  157.3045 H   0  0  0  0  0  0  0  0  0  0  0  0  # atno 8008 bound_to 7997
  154.5111  140.2192  155.9116 H   0  0  0  0  0  0  0  0  0  0  0  0  # atno 8009 bound_to 7997
  156.1584  140.3121  155.8771 H   0  0  0  0  0  0  0  0  0  0  0  0  # atno 8010 bound_to 7997
  140.6762  143.2771  151.3970 H   0  0  0  0  0  0  0  0  0  0  0  0  # atno 10167 bound_to 10162
  157.6651  131.0860  150.6071 H   0  0  0  0  0  0  0  0  0  0  0  0  # atno 10718 bound_to 10713
  153.7958  135.6894  153.4864 H   0  0  0  0  0  0  0  0  0  0  0  0  # atno 10763 bound_to 10752
  153.1720  135.4539  154.9914 H   0  0  0  0  0  0  0  0  0  0  0  0  # atno 10764 bound_to 10752
  154.8026  135.3344  154.7450 H   0  0  0  0  0  0  0  0  0  0  0  0  # atno 10765 bound_to 10752
  139.9043  134.9598  156.7207 H   0  0  0  0  0  0  0  0  0  0  0  0  # atno 11005 bound_to 11000
  145.2983  139.1859  143.4703 LP  0  0  0  0  0  0  0  0  0  0  0  0  # atno 17320 bound_to 7965
  146.3287  140.2970  142.8618 LP  0  0  0  0  0  0  0  0  0  0  0  0  # atno 17321 bound_to 7965
  139.6056  144.1205  152.2245 LP  0  0  0  0  0  0  0  0  0  0  0  0  # atno 17342 bound_to 10162
  140.0602  144.5862  150.7268 LP  0  0  0  0  0  0  0  0  0  0  0  0  # atno 17343 bound_to 10162
  156.6372  130.4448  149.5765 LP  0  0  0  0  0  0  0  0  0  0  0  0  # atno 17370 bound_to 10713
  156.2237  130.6752  151.1394 LP  0  0  0  0  0  0  0  0  0  0  0  0  # atno 17371 bound_to 10713
  140.7003  133.9312  155.8020 LP  0  0  0  0  0  0  0  0  0  0  0  0  # atno 17394 bound_to 11000
  141.0377  134.0667  157.3940 LP  0  0  0  0  0  0  0  0  0  0  0  0  # atno 17395 bound_to 11000

$$$$
