AV-unprocessed.smi:2800|AV-procd|sdf|10794|dock2
  -GOLD-   2272015223D 1   1.00000     0.00000
 Structure written by MMmdl.
 51 52  0  0  0  0  0  0  0  0  1 V2000
  151.0384  138.1852  154.2510 C   0  0  0  0  0  0  0  0  0  0  0  0
  150.2633  139.3970  154.7381 C   0  0  0  0  0  0  0  0  0  0  0  0
  150.9540  140.2442  155.5315 N   0  0  0  0  0  0  0  0  0  0  0  0
  150.3410  141.3535  156.0060 C   0  0  0  0  0  0  0  0  0  0  0  0
  151.0936  142.1995  156.8437 N   0  0  0  0  0  0  0  0  0  0  0  0
  150.8848  143.6383  156.8806 C   0  0  0  0  0  0  0  0  0  0  0  0
  151.8333  144.1358  157.9704 C   0  0  0  0  0  0  0  0  0  0  0  0
  151.8697  142.9689  158.9579 C   0  0  0  0  0  0  0  0  0  0  0  0
  151.7082  141.7256  158.0752 C   0  0  0  0  0  0  0  0  0  0  0  0
  148.9959  141.6512  155.6889 C   0  0  0  0  0  0  0  0  0  0  0  0
  148.2743  140.7680  154.8641 C   0  0  0  0  0  0  0  0  0  0  0  0
  148.9093  139.5996  154.3817 C   0  0  0  0  0  0  0  0  0  0  0  0
  148.2685  138.6468  153.5409 N   0  0  0  0  0  0  0  0  0  0  0  0
  146.9546  138.4719  153.3213 C   0  0  0  0  0  0  0  0  0  0  0  0
  146.0552  139.1867  153.7622 O   0  0  0  0  0  0  0  0  0  0  0  0
  146.7387  137.3906  152.5589 N   0  0  0  0  0  0  0  0  0  0  0  0
  145.4326  136.8652  152.1540 C   0  0  1  0  0  0  0  0  0  0  0  0
  145.5914  136.1137  150.8082 C   0  0  0  0  0  0  0  0  0  0  0  0
  144.3428  135.9239  150.1753 O   0  0  0  0  0  0  0  0  0  0  0  0
  144.7837  136.0513  153.3224 C   0  0  0  0  0  0  0  0  0  0  0  0
  143.3374  135.6143  152.9947 C   0  0  0  0  0  0  0  0  0  0  0  0
  144.7703  136.8742  154.6270 C   0  0  0  0  0  0  0  0  0  0  0  0
  145.6210  134.7790  153.5840 C   0  0  0  0  0  0  0  0  0  0  0  0
  144.7809  137.7214  151.9661 H   0  0  0  0  0  0  0  0  0  0  0  0
  150.5746  137.2677  154.6142 H   0  0  0  0  0  0  0  0  0  0  0  0
  152.0714  138.2025  154.6008 H   0  0  0  0  0  0  0  0  0  0  0  0
  151.0536  138.1569  153.1611 H   0  0  0  0  0  0  0  0  0  0  0  0
  151.0973  144.1030  155.9172 H   0  0  0  0  0  0  0  0  0  0  0  0
  149.8479  143.8483  157.1458 H   0  0  0  0  0  0  0  0  0  0  0  0
  152.8278  144.2936  157.5506 H   0  0  0  0  0  0  0  0  0  0  0  0
  151.5056  145.0710  158.4246 H   0  0  0  0  0  0  0  0  0  0  0  0
  152.7797  142.9465  159.5578 H   0  0  0  0  0  0  0  0  0  0  0  0
  151.0217  143.0452  159.6399 H   0  0  0  0  0  0  0  0  0  0  0  0
  151.1023  140.9682  158.5738 H   0  0  0  0  0  0  0  0  0  0  0  0
  152.6792  141.2893  157.8392 H   0  0  0  0  0  0  0  0  0  0  0  0
  148.5069  142.5354  156.0692 H   0  0  0  0  0  0  0  0  0  0  0  0
  147.2537  141.0108  154.6137 H   0  0  0  0  0  0  0  0  0  0  0  0
  148.8762  137.9419  153.1503 H   0  0  0  0  0  0  0  0  0  0  0  0
  147.5444  136.8691  152.2465 H   0  0  0  0  0  0  0  0  0  0  0  0
  146.1965  136.6992  150.1147 H   0  0  0  0  0  0  0  0  0  0  0  0
  146.0977  135.1568  150.9256 H   0  0  0  0  0  0  0  0  0  0  0  0
  143.9894  136.7703  149.9478 H   0  0  0  0  0  0  0  0  0  0  0  0
  142.9113  135.0319  153.8125 H   0  0  0  0  0  0  0  0  0  0  0  0
  143.2904  134.9898  152.1025 H   0  0  0  0  0  0  0  0  0  0  0  0
  142.6776  136.4663  152.8361 H   0  0  0  0  0  0  0  0  0  0  0  0
  144.1088  137.7375  154.5547 H   0  0  0  0  0  0  0  0  0  0  0  0
  145.7671  137.2387  154.8778 H   0  0  0  0  0  0  0  0  0  0  0  0
  144.4193  136.2776  155.4699 H   0  0  0  0  0  0  0  0  0  0  0  0
  145.2247  134.2073  154.4238 H   0  0  0  0  0  0  0  0  0  0  0  0
  146.6565  135.0270  153.8200 H   0  0  0  0  0  0  0  0  0  0  0  0
  145.6326  134.1116  152.7217 H   0  0  0  0  0  0  0  0  0  0  0  0
  1  2  1  0  0  0  0
  1 25  1  0  0  0  0
  1 26  1  0  0  0  0
  1 27  1  0  0  0  0
  2 12  1  0  0  0  0
  2  3  2  0  0  0  0
  3  4  1  0  0  0  0
  4  5  1  0  0  0  0
  4 10  2  0  0  0  0
  5  9  1  0  0  0  0
  5  6  1  0  0  0  0
  6  7  1  0  0  0  0
  6 28  1  0  0  0  0
  6 29  1  0  0  0  0
  7  8  1  0  0  0  0
  7 30  1  0  0  0  0
  7 31  1  0  0  0  0
  8  9  1  0  0  0  0
  8 32  1  0  0  0  0
  8 33  1  0  0  0  0
  9 34  1  0  0  0  0
  9 35  1  0  0  0  0
 10 11  1  0  0  0  0
 10 36  1  0  0  0  0
 11 12  2  0  0  0  0
 11 37  1  0  0  0  0
 12 13  1  0  0  0  0
 13 14  1  0  0  0  0
 13 38  1  0  0  0  0
 14 15  2  0  0  0  0
 14 16  1  0  0  0  0
 16 17  1  0  0  0  0
 16 39  1  0  0  0  0
 17 24  1  0  0  0  0
 17 18  1  0  0  0  0
 17 20  1  0  0  0  0
 18 19  1  0  0  0  0
 18 40  1  0  0  0  0
 18 41  1  0  0  0  0
 19 42  1  0  0  0  0
 20 21  1  0  0  0  0
 20 22  1  0  0  0  0
 20 23  1  0  0  0  0
 21 43  1  0  0  0  0
 21 44  1  0  0  0  0
 21 45  1  0  0  0  0
 22 46  1  0  0  0  0
 22 47  1  0  0  0  0
 22 48  1  0  0  0  0
 23 49  1  0  0  0  0
 23 50  1  0  0  0  0
 23 51  1  0  0  0  0
M  END
> <s_m_source_file>
AV-unprocessed.smi

> <i_m_source_file_index>
2800

> <i_lp_mmshare_version>
43012

> <i_f3d_flags>
0

> <s_epik_input>
W0NIMl0xW0NIMl1bQ0gyXVtDSDJdTjFjKG5jMltDSDNdKVtjSF1bY0hdYzJbTkhdQyg9TylbTkhdW0NASF0oW0NIMl1bT0hdKUMoW0NIM10pKFtDSDNdKVtDSDNd

> <s_epik_cmdline>
J2VwaWtfcHl0aG9uJywgJy1waCcsICc3LjAnLCAnLXRuJywgJzgnLCAnLW1hJywgJzIwMCcsICctbWV0YWxfYmluZGluZycsICctaW1hZScsICc8aW5maWxlLm1hZT4nLCAnLW9tYWUnLCAnPG91dGZpbGUubWFlPic=

> <r_lp_tautomer_probability>
1

> <r_epik_Ionization_Penalty>
0.307546

> <r_epik_Ionization_Penalty_Charging>
0

> <r_epik_Ionization_Penalty_Neutral>
0.307546

> <r_epik_State_Penalty>
0.300796

> <r_epik_Charging_Adjusted_Penalty>
0.300796

> <i_epik_Tot_Q>
0

> <i_epik_Tot_abs_Q>
0

> <r_epik_Metal_State_Penalty>
0.196869

> <b_epik_Metal_Only>
0

> <s_lp_Force_Field>
OPLS_2005

> <r_lp_Energy>
35.7383

> <b_lp_Chiralities_Consistent>
1

> <s_lp_Variant>
AV-unprocessed.smi:2800-2

> <Gold.Version>
5.8.1

> <Gold.Id.Protein>
6NUR|6NUR_protein|mol2

> <Gold.PLP.Fitness>
44.6061

> <Gold.PLP.PLP>
-38.3525

> <Gold.PLP.part.hbond>
-4.8316

> <Gold.PLP.part.metal>
0.0000

> <Gold.PLP.part.buried>
-2.7237

> <Gold.PLP.part.nonpolar>
-33.0649

> <Gold.PLP.part.repulsive>
0.4030

> <Gold.PLP.ligand.clash>
0.0000

> <Gold.PLP.ligand.torsion>
1.2739

> <Gold.PLP.Chemscore.Hbond>
2.8062

> <Gold.PLP.Chemscore.CHOScore>
0.0000

> <Gold.PLP.Chemscore.Metal>
0.0000

> <Gold.Chemscore.Hbonds>
donor molecule, donor type, donor heavy atom, donor atom, acceptor molecule, acceptor atom, score
      L1  H    13    38       P1  7948  0.70
      L1  H    16    39       P1  7948  1.00
      L1  H    19    42       P1 10171  1.00

> <Gold.PLP.Chemscore.Internal.Correction>
0.3827

> <Gold.Rescore>
     Score         DG    S(hbond)    S(metal)    S(lipo)     H(rot)  DE(clash)    DE(int)     intcor
     15.04     -21.29       2.74        0.00      99.05       1.92       1.25       5.00       ----

> <Gold.Chemscore.Fitness>
15.0411

> <Gold.Chemscore.DG>
-21.2944

> <Gold.Chemscore.ZeroCoef>
-5.4800

> <Gold.Chemscore.Hbond>
2.7385

> <Gold.Chemscore.Metal>
0.0000

> <Gold.Chemscore.Lipo>
99.0477

> <Gold.Chemscore.Internal_Hbond>
0.0000

> <Gold.Chemscore.DEClash>
1.2513

> <Gold.Chemscore.DEInternal>
5.0019

> <Gold.Chemscore.Rot>
1.9222

> <Gold.Chemscore.Internal.Correction>
   9.000000E+99

> <Gold.Chemscore.Hbonds>
donor molecule, donor type, donor heavy atom, donor atom, acceptor molecule, acceptor atom, score
      L1  H    13    38       P1  7948  0.68
      L1  H    16    39       P1  7948  0.98
      L1  H    19    42       P1 10171  0.99

> <Gold.Chemscore.Hbond.Weighted>
-9.1466

> <Gold.Chemscore.Metal.Weighted>
-0.0000

> <Gold.Chemscore.Lipo.Weighted>
-11.5886

> <Gold.Chemscore.Internal_Hbond.Weighted>
0.0000

> <Gold.Chemscore.DEClash.Weighted>
1.2513

> <Gold.Chemscore.DEInternal.Weighted>
5.0019

> <Gold.Chemscore.Rot.Weighted>
4.9208

> <Gold.Chemscore.Internal.Correction.Weighted>
   9.000000E+99

> <Gold.Protein.RotatedTorsions>
[ 6907 6896 6895 6894 ] final  106.29 input  -60.11 | X-H torsion
[ 7974 7965 7964 7962 ] final   75.34 input  175.53 | X-H torsion
[ 8008 7997 7996 7995 ] final   13.95 input   59.86 | X-H torsion
[ 10167 10162 10161 10158 ] final   15.00 input  -65.29 | X-H torsion
[ 10718 10713 10712 10709 ] final -148.83 input   66.30 | X-H torsion
[ 10763 10752 10751 10750 ] final  103.48 input  -60.55 | X-H torsion
[ 11005 11000 10999 10996 ] final   39.99 input  -57.11 | X-H torsion

> <Gold.Protein.ActiveResidues>
 VAL166  LYS551  ARG553  GLY616  TRP617  ASP618  TYR619  PRO620  LYS621  CYS622 
 ASP623  PHE694  ASN695  SER759  ASP760  ASP761  ALA762  ILE779  LEU786  VAL792 
 PHE793  MET794  SER795  GLU796  ALA797  LYS798  CYS799  TRP800  GLU811  SER814 

> <Gold.Protein.RotatedAtoms>
  152.5199  133.9402  159.7622 H   0  0  0  0  0  0  0  0  0  0  0  0  # atno 6907 bound_to 6896
  150.9734  133.6312  159.2741 H   0  0  0  0  0  0  0  0  0  0  0  0  # atno 6908 bound_to 6896
  151.3515  135.0891  159.9457 H   0  0  0  0  0  0  0  0  0  0  0  0  # atno 6909 bound_to 6896
  145.7169  139.2634  143.1619 H   0  0  0  0  0  0  0  0  0  0  0  0  # atno 7974 bound_to 7965
  154.8417  140.2915  155.5655 H   0  0  0  0  0  0  0  0  0  0  0  0  # atno 8008 bound_to 7997
  156.3012  140.2513  156.3292 H   0  0  0  0  0  0  0  0  0  0  0  0  # atno 8009 bound_to 7997
  154.9119  140.0388  157.1940 H   0  0  0  0  0  0  0  0  0  0  0  0  # atno 8010 bound_to 7997
  140.5897  143.8819  150.6862 H   0  0  0  0  0  0  0  0  0  0  0  0  # atno 10167 bound_to 10162
  156.4253  130.8049  151.2274 H   0  0  0  0  0  0  0  0  0  0  0  0  # atno 10718 bound_to 10713
  153.3532  135.3975  155.1662 H   0  0  0  0  0  0  0  0  0  0  0  0  # atno 10763 bound_to 10752
  154.8666  135.3661  154.5195 H   0  0  0  0  0  0  0  0  0  0  0  0  # atno 10764 bound_to 10752
  153.5648  135.7080  153.5591 H   0  0  0  0  0  0  0  0  0  0  0  0  # atno 10765 bound_to 10752
  140.1974  134.3912  155.8114 H   0  0  0  0  0  0  0  0  0  0  0  0  # atno 11005 bound_to 11000
  146.0662  140.7918  142.9710 LP  0  0  0  0  0  0  0  0  0  0  0  0  # atno 17320 bound_to 7965
  144.6927  140.3272  143.7222 LP  0  0  0  0  0  0  0  0  0  0  0  0  # atno 17321 bound_to 7965
  140.2339  143.3715  152.1543 LP  0  0  0  0  0  0  0  0  0  0  0  0  # atno 17342 bound_to 10162
  139.5220  144.7053  151.5373 LP  0  0  0  0  0  0  0  0  0  0  0  0  # atno 17343 bound_to 10162
  157.7508  131.0215  150.3753 LP  0  0  0  0  0  0  0  0  0  0  0  0  # atno 17370 bound_to 10713
  156.4079  130.3928  149.6912 LP  0  0  0  0  0  0  0  0  0  0  0  0  # atno 17371 bound_to 10713
  141.2227  133.7076  156.8199 LP  0  0  0  0  0  0  0  0  0  0  0  0  # atno 17394 bound_to 11000
  140.2092  134.8840  157.3256 LP  0  0  0  0  0  0  0  0  0  0  0  0  # atno 17395 bound_to 11000

$$$$
