AV-unprocessed.smi:380|AV-procd|sdf|2460|dock7
  -GOLD-   2262022403D 1   1.00000     0.00000
 Structure written by MMmdl.
 39 40  0  0  0  0  0  0  0  0  1 V2000
  147.4599  141.0515  153.5785 C   0  0  0  0  0  0  0  0  0  0  0  0
  146.4496  141.7499  154.5055 C   0  0  0  0  0  0  0  0  0  0  0  0
  146.1557  143.1746  154.0138 C   0  0  0  0  0  0  0  0  0  0  0  0
  146.9144  141.7667  155.9780 C   0  0  0  0  0  0  0  0  0  0  0  0
  148.3483  142.0007  156.1142 N   0  0  0  0  0  0  0  0  0  0  0  0
  149.2992  141.0637  155.9858 C   0  0  0  0  0  0  0  0  0  0  0  0
  149.0509  139.8796  155.7535 O   0  0  0  0  0  0  0  0  0  0  0  0
  150.7464  141.5504  156.1539 C   0  0  0  0  0  0  0  0  0  0  0  0
  151.3530  141.1449  157.4409 N   0  0  0  0  0  0  0  0  0  0  0  0
  151.4457  139.7608  157.7366 C   0  0  0  0  0  0  0  0  0  0  0  0
  151.0316  138.9132  156.9436 O   0  0  0  0  0  0  0  0  0  0  0  0
  152.0554  139.4318  159.0229 C   0  0  0  0  0  0  0  0  0  0  0  0
  152.2073  138.0495  159.3364 C   0  0  0  0  0  0  0  0  0  0  0  0
  152.3110  136.9288  159.6061 N   0  0  0  0  0  0  0  0  0  0  0  0
  152.4574  140.4018  159.8696 C   0  0  0  0  0  0  0  0  0  0  0  0
  152.3066  141.7418  159.5867 N   0  0  0  0  0  0  0  0  0  0  0  0
  152.8652  142.7549  160.4370 C   0  0  0  0  0  0  0  0  0  0  0  0
  152.4220  142.8271  161.8823 C   0  0  0  0  0  0  0  0  0  0  0  0
  152.0068  143.9095  160.9166 C   0  0  0  0  0  0  0  0  0  0  0  0
  151.7907  142.1501  158.3373 C   0  0  0  0  0  0  0  0  0  0  0  0
  151.7231  143.3439  158.0347 O   0  0  0  0  0  0  0  0  0  0  0  0
  148.4319  141.5443  153.6109 H   0  0  0  0  0  0  0  0  0  0  0  0
  147.1157  141.0635  152.5441 H   0  0  0  0  0  0  0  0  0  0  0  0
  147.6051  140.0074  153.8568 H   0  0  0  0  0  0  0  0  0  0  0  0
  145.5133  141.1927  154.4500 H   0  0  0  0  0  0  0  0  0  0  0  0
  147.0524  143.7946  154.0352 H   0  0  0  0  0  0  0  0  0  0  0  0
  145.4020  143.6573  154.6368 H   0  0  0  0  0  0  0  0  0  0  0  0
  145.7794  143.1681  152.9904 H   0  0  0  0  0  0  0  0  0  0  0  0
  146.3931  142.5548  156.5223 H   0  0  0  0  0  0  0  0  0  0  0  0
  146.6504  140.8296  156.4713 H   0  0  0  0  0  0  0  0  0  0  0  0
  148.6390  142.9480  156.3085 H   0  0  0  0  0  0  0  0  0  0  0  0
  151.3434  141.1834  155.3171 H   0  0  0  0  0  0  0  0  0  0  0  0
  150.7576  142.6340  156.0288 H   0  0  0  0  0  0  0  0  0  0  0  0
  152.9079  140.1201  160.8106 H   0  0  0  0  0  0  0  0  0  0  0  0
  153.9119  142.9894  160.2517 H   0  0  0  0  0  0  0  0  0  0  0  0
  151.6492  142.1380  162.2180 H   0  0  0  0  0  0  0  0  0  0  0  0
  153.1753  143.0792  162.6258 H   0  0  0  0  0  0  0  0  0  0  0  0
  152.4850  144.8820  161.0133 H   0  0  0  0  0  0  0  0  0  0  0  0
  150.9603  143.9330  160.6183 H   0  0  0  0  0  0  0  0  0  0  0  0
  1  2  1  0  0  0  0
  1 22  1  0  0  0  0
  1 23  1  0  0  0  0
  1 24  1  0  0  0  0
  2  3  1  0  0  0  0
  2  4  1  0  0  0  0
  2 25  1  0  0  0  0
  3 26  1  0  0  0  0
  3 27  1  0  0  0  0
  3 28  1  0  0  0  0
  4  5  1  0  0  0  0
  4 29  1  0  0  0  0
  4 30  1  0  0  0  0
  5  6  1  0  0  0  0
  5 31  1  0  0  0  0
  6  7  2  0  0  0  0
  6  8  1  0  0  0  0
  8  9  1  0  0  0  0
  8 32  1  0  0  0  0
  8 33  1  0  0  0  0
  9 20  1  0  0  0  0
  9 10  1  0  0  0  0
 10 11  2  0  0  0  0
 10 12  1  0  0  0  0
 12 13  1  0  0  0  0
 12 15  2  0  0  0  0
 13 14  3  0  0  0  0
 15 16  1  0  0  0  0
 15 34  1  0  0  0  0
 16 17  1  0  0  0  0
 16 20  1  0  0  0  0
 17 19  1  0  0  0  0
 17 18  1  0  0  0  0
 17 35  1  0  0  0  0
 18 19  1  0  0  0  0
 18 36  1  0  0  0  0
 18 37  1  0  0  0  0
 19 38  1  0  0  0  0
 19 39  1  0  0  0  0
 20 21  2  0  0  0  0
M  END
> <s_m_source_file>
AV-unprocessed.smi

> <i_m_source_file_index>
380

> <i_lp_mmshare_version>
43012

> <i_f3d_flags>
0

> <s_epik_input>
W0NIM11bQ0hdKFtDSDNdKVtDSDJdW05IXUMoPU8pW0NIMl1uMWMoPU8pYyhDI04pW2NIXW4oYzE9TylbQ0hdMltDSDJdW0NIMl0y

> <s_epik_cmdline>
J2VwaWtfcHl0aG9uJywgJy1waCcsICc3LjAnLCAnLXRuJywgJzgnLCAnLW1hJywgJzIwMCcsICctbWV0YWxfYmluZGluZycsICctaW1hZScsICc8aW5maWxlLm1hZT4nLCAnLW9tYWUnLCAnPG91dGZpbGUubWFlPic=

> <r_lp_tautomer_probability>
1

> <r_epik_Ionization_Penalty>
1.93825e-08

> <r_epik_Ionization_Penalty_Charging>
8.0817e-11

> <r_epik_Ionization_Penalty_Neutral>
1.93017e-08

> <r_epik_State_Penalty>
-0

> <r_epik_Charging_Adjusted_Penalty>
8.0817e-11

> <i_epik_Tot_Q>
0

> <i_epik_Tot_abs_Q>
0

> <r_epik_Metal_State_Penalty>
-0

> <b_epik_Metal_Only>
0

> <s_lp_Force_Field>
OPLS_2005

> <r_lp_Energy>
29.2237

> <b_lp_Chiralities_Consistent>
1

> <s_lp_Variant>
AV-unprocessed.smi:380-1

> <Gold.Version>
5.8.1

> <Gold.Id.Protein>
6NUR|6NUR_protein|mol2

> <Gold.PLP.Fitness>
47.7830

> <Gold.PLP.PLP>
-43.1316

> <Gold.PLP.part.hbond>
-2.0000

> <Gold.PLP.part.metal>
0.0000

> <Gold.PLP.part.buried>
-7.0897

> <Gold.PLP.part.nonpolar>
-34.5704

> <Gold.PLP.part.repulsive>
0.1392

> <Gold.PLP.ligand.clash>
0.0000

> <Gold.PLP.ligand.torsion>
0.6617

> <Gold.PLP.Chemscore.Hbond>
1.9193

> <Gold.PLP.Chemscore.CHOScore>
0.0000

> <Gold.PLP.Chemscore.Metal>
0.0000

> <Gold.Chemscore.Hbonds>
donor molecule, donor type, donor heavy atom, donor atom, acceptor molecule, acceptor atom, score
      L1  H     5    31       P1  8028  0.94
      P1  H  6896  6909       L1    14  1.00

> <Gold.PLP.Chemscore.Internal.Correction>
0.2171

> <Gold.Rescore>
     Score         DG    S(hbond)    S(metal)    S(lipo)     H(rot)  DE(clash)    DE(int)     intcor
     12.38     -16.04       1.93        0.00      78.68       1.99       0.07       3.59       ----

> <Gold.Chemscore.Fitness>
12.3827

> <Gold.Chemscore.DG>
-16.0412

> <Gold.Chemscore.ZeroCoef>
-5.4800

> <Gold.Chemscore.Hbond>
1.9335

> <Gold.Chemscore.Metal>
0.0000

> <Gold.Chemscore.Lipo>
78.6770

> <Gold.Chemscore.Internal_Hbond>
0.0000

> <Gold.Chemscore.DEClash>
0.0727

> <Gold.Chemscore.DEInternal>
3.5857

> <Gold.Chemscore.Rot>
1.9930

> <Gold.Chemscore.Internal.Correction>
   9.000000E+99

> <Gold.Chemscore.Hbonds>
donor molecule, donor type, donor heavy atom, donor atom, acceptor molecule, acceptor atom, score
      L1  H     5    31       P1  8028  0.88
      P1  H  6896  6909       L1    14  1.00

> <Gold.Chemscore.Hbond.Weighted>
-6.4580

> <Gold.Chemscore.Metal.Weighted>
-0.0000

> <Gold.Chemscore.Lipo.Weighted>
-9.2052

> <Gold.Chemscore.Internal_Hbond.Weighted>
0.0000

> <Gold.Chemscore.DEClash.Weighted>
0.0727

> <Gold.Chemscore.DEInternal.Weighted>
3.5857

> <Gold.Chemscore.Rot.Weighted>
5.1020

> <Gold.Chemscore.Internal.Correction.Weighted>
   9.000000E+99

> <Gold.Protein.RotatedTorsions>
[ 6907 6896 6895 6894 ] final  136.35 input  -60.11 | X-H torsion
[ 7974 7965 7964 7962 ] final  152.21 input  175.53 | X-H torsion
[ 8008 7997 7996 7995 ] final -141.41 input   59.86 | X-H torsion
[ 10167 10162 10161 10158 ] final -161.17 input  -65.29 | X-H torsion
[ 10718 10713 10712 10709 ] final   74.44 input   66.30 | X-H torsion
[ 10763 10752 10751 10750 ] final  -97.99 input  -60.55 | X-H torsion
[ 11005 11000 10999 10996 ] final  124.16 input  -57.11 | X-H torsion

> <Gold.Protein.ActiveResidues>
 VAL166  LYS551  ARG553  GLY616  TRP617  ASP618  TYR619  PRO620  LYS621  CYS622 
 ASP623  PHE694  ASN695  SER759  ASP760  ASP761  ALA762  ILE779  LEU786  VAL792 
 PHE793  MET794  SER795  GLU796  ALA797  LYS798  CYS799  TRP800  GLU811  SER814 

> <Gold.Protein.RotatedAtoms>
  152.2903  133.5555  159.5553 H   0  0  0  0  0  0  0  0  0  0  0  0  # atno 6907 bound_to 6896
  150.7232  134.0438  159.3783 H   0  0  0  0  0  0  0  0  0  0  0  0  # atno 6908 bound_to 6896
  151.8344  135.0611  160.0491 H   0  0  0  0  0  0  0  0  0  0  0  0  # atno 6909 bound_to 6896
  144.8238  139.6639  143.6089 H   0  0  0  0  0  0  0  0  0  0  0  0  # atno 7974 bound_to 7965
  155.4773  140.0557  157.2972 H   0  0  0  0  0  0  0  0  0  0  0  0  # atno 8008 bound_to 7997
  154.4674  140.2025  156.0035 H   0  0  0  0  0  0  0  0  0  0  0  0  # atno 8009 bound_to 7997
  156.0998  140.3221  155.7931 H   0  0  0  0  0  0  0  0  0  0  0  0  # atno 8010 bound_to 7997
  139.6485  144.0127  152.2145 H   0  0  0  0  0  0  0  0  0  0  0  0  # atno 10167 bound_to 10162
  157.6592  130.9678  150.1212 H   0  0  0  0  0  0  0  0  0  0  0  0  # atno 10718 bound_to 10713
  154.7376  135.5026  153.9067 H   0  0  0  0  0  0  0  0  0  0  0  0  # atno 10763 bound_to 10752
  153.1010  135.6685  153.9681 H   0  0  0  0  0  0  0  0  0  0  0  0  # atno 10764 bound_to 10752
  153.9466  135.3062  155.3419 H   0  0  0  0  0  0  0  0  0  0  0  0  # atno 10765 bound_to 10752
  139.9346  134.9640  156.8367 H   0  0  0  0  0  0  0  0  0  0  0  0  # atno 11005 bound_to 11000
  146.2543  139.6269  142.9405 LP  0  0  0  0  0  0  0  0  0  0  0  0  # atno 17320 bound_to 7965
  145.5046  141.0437  143.2522 LP  0  0  0  0  0  0  0  0  0  0  0  0  # atno 17321 bound_to 7965
  139.9835  144.6411  150.7879 LP  0  0  0  0  0  0  0  0  0  0  0  0  # atno 17342 bound_to 10162
  140.7526  143.2994  151.3120 LP  0  0  0  0  0  0  0  0  0  0  0  0  # atno 17343 bound_to 10162
  156.2083  130.3665  149.8702 LP  0  0  0  0  0  0  0  0  0  0  0  0  # atno 17370 bound_to 10713
  156.6588  130.8773  151.3544 LP  0  0  0  0  0  0  0  0  0  0  0  0  # atno 17371 bound_to 10713
  140.6111  134.0082  155.7577 LP  0  0  0  0  0  0  0  0  0  0  0  0  # atno 17394 bound_to 11000
  141.0953  133.9854  157.3171 LP  0  0  0  0  0  0  0  0  0  0  0  0  # atno 17395 bound_to 11000

$$$$
