AV-unprocessed.smi:256|AV-procd|sdf|1958|dock3
  -GOLD-   2262021103D 1   1.00000     0.00000
 Structure written by MMmdl.
 62 65  0  0  0  0  0  0  0  0  2 V2000
  148.5881  131.3263  153.1369 C   0  0  0  0  0  0  0  0  0  0  0  0
  147.3415  132.0436  152.5983 C   0  0  0  0  0  0  0  0  0  0  0  0
  146.0492  131.7877  153.4208 C   0  0  1  0  0  0  0  0  0  0  0  0
  146.2977  131.6131  154.9396 C   0  0  0  0  0  0  0  0  0  0  0  0
  146.5909  132.8853  155.5973 N   0  0  0  0  0  0  0  0  0  0  0  0
  147.8989  133.2510  155.6778 C   0  0  0  0  0  0  0  0  0  0  0  0
  148.8615  132.2936  155.7625 N   0  0  0  0  0  0  0  0  0  0  0  0
  150.1474  132.6324  155.8863 C   0  0  0  0  0  0  0  0  0  0  0  0
  150.6853  133.8509  155.9444 N   0  0  0  0  0  0  0  0  0  0  0  0
  149.7311  134.8186  155.8398 C   0  0  0  0  0  0  0  0  0  0  0  0
  148.3301  134.6091  155.6952 C   0  0  0  0  0  0  0  0  0  0  0  0
  147.6806  135.8344  155.5981 N   0  0  0  0  0  0  0  0  0  0  0  0
  148.6382  136.7148  155.6986 C   0  0  0  0  0  0  0  0  0  0  0  0
  149.9006  136.1920  155.8624 N   0  0  0  0  0  0  0  0  0  0  0  0
  151.1409  136.9387  156.0117 C   0  0  0  0  0  0  0  0  0  0  0  0
  151.5505  137.7408  154.7459 C   0  0  0  0  0  0  0  0  0  0  0  0
  151.9927  136.8093  153.7757 O   0  0  0  0  0  0  0  0  0  0  0  0
  150.4001  138.5557  154.1149 C   0  0  0  0  0  0  0  0  0  0  0  0
  150.0628  139.7958  154.9605 C   0  0  0  0  0  0  0  0  0  0  0  0
  151.2246  140.6023  155.1207 O   0  0  0  0  0  0  0  0  0  0  0  0
  152.2719  139.9378  155.8194 C   0  0  0  0  0  0  0  0  0  0  0  0
  152.7265  138.6961  155.0307 C   0  0  0  0  0  0  0  0  0  0  0  0
  145.5702  133.9085  155.3829 C   0  0  0  0  0  0  0  0  0  0  0  0
  145.2936  134.1170  153.8829 C   0  0  0  0  0  0  0  0  0  0  0  0
  144.9931  132.8283  153.2045 N   0  3  1  0  0  0  0  0  0  0  0  0
  144.5335  133.0269  151.8027 C   0  0  0  0  0  0  0  0  0  0  0  0
  144.4029  131.7141  151.0054 C   0  0  0  0  0  0  0  0  0  0  0  0
  143.6424  131.8831  149.8160 O   0  0  0  0  0  0  0  0  0  0  0  0
  144.0213  133.0044  149.0331 C   0  0  0  0  0  0  0  0  0  0  0  0
  149.4311  131.4635  152.4595 H   0  0  0  0  0  0  0  0  0  0  0  0
  148.4159  130.2545  153.2371 H   0  0  0  0  0  0  0  0  0  0  0  0
  148.8940  131.7125  154.1083 H   0  0  0  0  0  0  0  0  0  0  0  0
  147.5506  133.1096  152.5237 H   0  0  0  0  0  0  0  0  0  0  0  0
  147.1990  131.6984  151.5753 H   0  0  0  0  0  0  0  0  0  0  0  0
  145.6420  130.8358  153.0814 H   0  0  0  0  0  0  0  0  0  0  0  0
  145.3931  131.2146  155.4009 H   0  0  0  0  0  0  0  0  0  0  0  0
  147.0613  130.8608  155.1216 H   0  0  0  0  0  0  0  0  0  0  0  0
  150.8444  131.8098  155.9538 H   0  0  0  0  0  0  0  0  0  0  0  0
  148.4484  137.7779  155.6638 H   0  0  0  0  0  0  0  0  0  0  0  0
  151.0317  137.6013  156.8698 H   0  0  0  0  0  0  0  0  0  0  0  0
  151.9281  136.2331  156.2809 H   0  0  0  0  0  0  0  0  0  0  0  0
  151.6081  137.0375  152.9432 H   0  0  0  0  0  0  0  0  0  0  0  0
  150.6974  138.8957  153.1216 H   0  0  0  0  0  0  0  0  0  0  0  0
  149.5105  137.9439  153.9645 H   0  0  0  0  0  0  0  0  0  0  0  0
  149.2924  140.3862  154.4642 H   0  0  0  0  0  0  0  0  0  0  0  0
  149.6653  139.5176  155.9368 H   0  0  0  0  0  0  0  0  0  0  0  0
  153.1063  140.6293  155.9355 H   0  0  0  0  0  0  0  0  0  0  0  0
  151.9438  139.6744  156.8255 H   0  0  0  0  0  0  0  0  0  0  0  0
  153.5229  138.1782  155.5665 H   0  0  0  0  0  0  0  0  0  0  0  0
  153.1617  139.0339  154.0887 H   0  0  0  0  0  0  0  0  0  0  0  0
  144.6562  133.5777  155.8776 H   0  0  0  0  0  0  0  0  0  0  0  0
  145.8450  134.8494  155.8614 H   0  0  0  0  0  0  0  0  0  0  0  0
  144.4496  134.7985  153.7707 H   0  0  0  0  0  0  0  0  0  0  0  0
  146.1447  134.5971  153.3992 H   0  0  0  0  0  0  0  0  0  0  0  0
  143.5633  133.5233  151.8227 H   0  0  0  0  0  0  0  0  0  0  0  0
  145.1958  133.7180  151.2818 H   0  0  0  0  0  0  0  0  0  0  0  0
  145.3900  131.3138  150.7687 H   0  0  0  0  0  0  0  0  0  0  0  0
  143.9180  130.9517  151.6146 H   0  0  0  0  0  0  0  0  0  0  0  0
  143.4323  133.0198  148.1163 H   0  0  0  0  0  0  0  0  0  0  0  0
  145.0740  132.9544  148.7523 H   0  0  0  0  0  0  0  0  0  0  0  0
  143.8410  133.9439  149.5553 H   0  0  0  0  0  0  0  0  0  0  0  0
  144.1832  132.4693  153.6899 H   0  0  0  0  0  0  0  0  0  0  0  0
  1  2  1  0  0  0  0
  1 30  1  0  0  0  0
  1 31  1  0  0  0  0
  1 32  1  0  0  0  0
  2  3  1  0  0  0  0
  2 33  1  0  0  0  0
  2 34  1  0  0  0  0
  3 25  1  0  0  0  0
  3  4  1  0  0  0  0
  3 35  1  0  0  0  0
  4  5  1  0  0  0  0
  4 36  1  0  0  0  0
  4 37  1  0  0  0  0
  5  6  1  0  0  0  0
  5 23  1  0  0  0  0
  6 11  1  0  0  0  0
  6  7  2  0  0  0  0
  7  8  1  0  0  0  0
  8  9  2  0  0  0  0
  8 38  1  0  0  0  0
  9 10  1  0  0  0  0
 10 14  1  0  0  0  0
 10 11  2  0  0  0  0
 11 12  1  0  0  0  0
 12 13  2  0  0  0  0
 13 14  1  0  0  0  0
 13 39  1  0  0  0  0
 14 15  1  0  0  0  0
 15 16  1  0  0  0  0
 15 40  1  0  0  0  0
 15 41  1  0  0  0  0
 16 22  1  0  0  0  0
 16 17  1  0  0  0  0
 16 18  1  0  0  0  0
 17 42  1  0  0  0  0
 18 19  1  0  0  0  0
 18 43  1  0  0  0  0
 18 44  1  0  0  0  0
 19 20  1  0  0  0  0
 19 45  1  0  0  0  0
 19 46  1  0  0  0  0
 20 21  1  0  0  0  0
 21 22  1  0  0  0  0
 21 47  1  0  0  0  0
 21 48  1  0  0  0  0
 22 49  1  0  0  0  0
 22 50  1  0  0  0  0
 23 24  1  0  0  0  0
 23 51  1  0  0  0  0
 23 52  1  0  0  0  0
 24 25  1  0  0  0  0
 24 53  1  0  0  0  0
 24 54  1  0  0  0  0
 25 26  1  0  0  0  0
 25 62  1  0  0  0  0
 26 27  1  0  0  0  0
 26 55  1  0  0  0  0
 26 56  1  0  0  0  0
 27 28  1  0  0  0  0
 27 57  1  0  0  0  0
 27 58  1  0  0  0  0
 28 29  1  0  0  0  0
 29 59  1  0  0  0  0
 29 60  1  0  0  0  0
 29 61  1  0  0  0  0
M  CHG  1  25   1
M  END
> <s_m_source_file>
AV-unprocessed.smi

> <i_m_source_file_index>
256

> <i_lp_mmshare_version>
43012

> <i_f3d_flags>
0

> <s_epik_input>
W0NIM11PW0NIMl1bQ0gyXU4xW0NIMl1bQ0gyXU4oW0NIMl1bQ0BIXTFbQ0gyXVtDSDNdKWMobltjSF1uMiljKGMyMyluW2NIXW4zW0NIMl1DNChbT0hdKVtDSDJdW0NIMl1PW0NIMl1bQ0gyXTQ=

> <s_epik_cmdline>
J2VwaWtfcHl0aG9uJywgJy1waCcsICc3LjAnLCAnLXRuJywgJzgnLCAnLW1hJywgJzIwMCcsICctbWV0YWxfYmluZGluZycsICctaW1hZScsICc8aW5maWxlLm1hZT4nLCAnLW9tYWUnLCAnPG91dGZpbGUubWFlPic=

> <r_lp_tautomer_probability>
1

> <r_epik_Ionization_Penalty>
0.233023

> <r_epik_Ionization_Penalty_Charging>
0.23295

> <r_epik_Ionization_Penalty_Neutral>
7.2493e-05

> <r_epik_State_Penalty>
0.223667

> <r_epik_Charging_Adjusted_Penalty>
0.456618

> <i_epik_Tot_Q>
1

> <i_epik_Tot_abs_Q>
1

> <r_epik_Metal_State_Penalty>
0.226879

> <b_epik_Metal_Only>
0

> <s_lp_Force_Field>
OPLS_2005

> <r_lp_Energy>
45.4801

> <b_lp_Chiralities_Consistent>
1

> <s_lp_Variant>
AV-unprocessed.smi:256-2

> <Gold.Version>
5.8.1

> <Gold.Id.Protein>
6NUR|6NUR_protein|mol2

> <Gold.PLP.Fitness>
54.2342

> <Gold.PLP.PLP>
-39.0166

> <Gold.PLP.part.hbond>
-5.0000

> <Gold.PLP.part.metal>
0.0000

> <Gold.PLP.part.buried>
-2.3250

> <Gold.PLP.part.nonpolar>
-31.2290

> <Gold.PLP.part.repulsive>
0.3079

> <Gold.PLP.ligand.clash>
0.0000

> <Gold.PLP.ligand.torsion>
0.8100

> <Gold.PLP.Chemscore.Hbond>
5.4160

> <Gold.PLP.Chemscore.CHOScore>
0.0000

> <Gold.PLP.Chemscore.Metal>
0.0000

> <Gold.Chemscore.Hbonds>
donor molecule, donor type, donor heavy atom, donor atom, acceptor molecule, acceptor atom, score
      L1  H    17    42       P1  7949  0.62
      L1  H    25    62       P1 10957  2.00
      P1  H  7989  7998       L1    20  0.90
      P1  H 10752 10765       L1    17  1.00
      P1  H 10785 10796       L1    28  0.80

> <Gold.PLP.Chemscore.Internal.Correction>
0.5896

> <Gold.Rescore>
     Score         DG    S(hbond)    S(metal)    S(lipo)     H(rot)  DE(clash)    DE(int)     intcor
     14.03     -19.93       3.02        0.00      95.15       2.65       1.51       4.39       ----

> <Gold.Chemscore.Fitness>
14.0267

> <Gold.Chemscore.DG>
-19.9299

> <Gold.Chemscore.ZeroCoef>
-5.4800

> <Gold.Chemscore.Hbond>
3.0215

> <Gold.Chemscore.Metal>
0.0000

> <Gold.Chemscore.Lipo>
95.1484

> <Gold.Chemscore.Internal_Hbond>
0.0000

> <Gold.Chemscore.DEClash>
1.5134

> <Gold.Chemscore.DEInternal>
4.3898

> <Gold.Chemscore.Rot>
2.6462

> <Gold.Chemscore.Internal.Correction>
   9.000000E+99

> <Gold.Chemscore.Hbonds>
donor molecule, donor type, donor heavy atom, donor atom, acceptor molecule, acceptor atom, score
      L1  H    17    42       P1  7949  0.60
      L1  H    25    62       P1 10957  0.34
      P1  H  7989  7998       L1    20  0.21
      P1  H 10752 10765       L1    17  0.93
      P1  H 10785 10796       L1    28  0.64

> <Gold.Chemscore.Hbond.Weighted>
-10.0917

> <Gold.Chemscore.Metal.Weighted>
-0.0000

> <Gold.Chemscore.Lipo.Weighted>
-11.1324

> <Gold.Chemscore.Internal_Hbond.Weighted>
0.0000

> <Gold.Chemscore.DEClash.Weighted>
1.5134

> <Gold.Chemscore.DEInternal.Weighted>
4.3898

> <Gold.Chemscore.Rot.Weighted>
6.7742

> <Gold.Chemscore.Internal.Correction.Weighted>
   9.000000E+99

> <Gold.Protein.RotatedTorsions>
[ 6907 6896 6895 6894 ] final   64.67 input  -60.11 | X-H torsion
[ 7974 7965 7964 7962 ] final  -39.67 input  175.53 | X-H torsion
[ 8008 7997 7996 7995 ] final  -76.06 input   59.86 | X-H torsion
[ 10167 10162 10161 10158 ] final  161.05 input  -65.29 | X-H torsion
[ 10718 10713 10712 10709 ] final  113.44 input   66.30 | X-H torsion
[ 10763 10752 10751 10750 ] final  139.06 input  -60.55 | X-H torsion
[ 11005 11000 10999 10996 ] final   75.70 input  -57.11 | X-H torsion

> <Gold.Protein.ActiveResidues>
 VAL166  LYS551  ARG553  GLY616  TRP617  ASP618  TYR619  PRO620  LYS621  CYS622 
 ASP623  PHE694  ASN695  SER759  ASP760  ASP761  ALA762  ILE779  LEU786  VAL792 
 PHE793  MET794  SER795  GLU796  ALA797  LYS798  CYS799  TRP800  GLU811  SER814 

> <Gold.Protein.RotatedAtoms>
  152.4349  134.5705  159.9919 H   0  0  0  0  0  0  0  0  0  0  0  0  # atno 6907 bound_to 6896
  151.5818  133.3371  159.3018 H   0  0  0  0  0  0  0  0  0  0  0  0  # atno 6908 bound_to 6896
  150.8246  134.7506  159.6866 H   0  0  0  0  0  0  0  0  0  0  0  0  # atno 6909 bound_to 6896
  146.0375  140.6652  142.9103 H   0  0  0  0  0  0  0  0  0  0  0  0  # atno 7974 bound_to 7965
  154.5472  140.0733  156.8608 H   0  0  0  0  0  0  0  0  0  0  0  0  # atno 8008 bound_to 7997
  155.3064  140.3387  155.4227 H   0  0  0  0  0  0  0  0  0  0  0  0  # atno 8009 bound_to 7997
  156.1929  140.1692  156.8043 H   0  0  0  0  0  0  0  0  0  0  0  0  # atno 8010 bound_to 7997
  139.4845  144.4574  151.8749 H   0  0  0  0  0  0  0  0  0  0  0  0  # atno 10167 bound_to 10162
  157.6338  131.0983  150.7042 H   0  0  0  0  0  0  0  0  0  0  0  0  # atno 10718 bound_to 10713
  153.8999  135.3023  155.3448 H   0  0  0  0  0  0  0  0  0  0  0  0  # atno 10763 bound_to 10752
  154.7675  135.4903  153.9586 H   0  0  0  0  0  0  0  0  0  0  0  0  # atno 10764 bound_to 10752
  153.1250  135.6791  153.9371 H   0  0  0  0  0  0  0  0  0  0  0  0  # atno 10765 bound_to 10752
  139.9331  134.7540  156.1304 H   0  0  0  0  0  0  0  0  0  0  0  0  # atno 11005 bound_to 11000
  144.7059  140.3847  143.7119 LP  0  0  0  0  0  0  0  0  0  0  0  0  # atno 17320 bound_to 7965
  145.6939  139.1645  143.2631 LP  0  0  0  0  0  0  0  0  0  0  0  0  # atno 17321 bound_to 7965
  140.4035  144.2462  150.5892 LP  0  0  0  0  0  0  0  0  0  0  0  0  # atno 17342 bound_to 10162
  140.5035  143.2311  151.8643 LP  0  0  0  0  0  0  0  0  0  0  0  0  # atno 17343 bound_to 10162
  156.7377  130.4729  149.5485 LP  0  0  0  0  0  0  0  0  0  0  0  0  # atno 17370 bound_to 10713
  156.1560  130.6342  151.0658 LP  0  0  0  0  0  0  0  0  0  0  0  0  # atno 17371 bound_to 10713
  141.0931  133.6706  156.2585 LP  0  0  0  0  0  0  0  0  0  0  0  0  # atno 17394 bound_to 11000
  140.6147  134.5423  157.5539 LP  0  0  0  0  0  0  0  0  0  0  0  0  # atno 17395 bound_to 11000

$$$$
