AV-unprocessed.smi:2782|AV-procd|sdf|10722|dock3
  -GOLD-   2272015163D 1   1.00000     0.00000
 Structure written by MMmdl.
 38 39  0  0  0  0  0  0  0  0  1 V2000
  151.9251  145.4222  160.2289 C   0  0  0  0  0  0  0  0  0  0  0  0
  152.1652  143.9526  159.9507 C   0  0  0  0  0  0  0  0  0  0  0  0
  152.8511  143.1637  160.8941 C   0  0  0  0  0  0  0  0  0  0  0  0
  153.0689  141.7974  160.6412 C   0  0  0  0  0  0  0  0  0  0  0  0
  152.6058  141.2164  159.4451 C   0  0  0  0  0  0  0  0  0  0  0  0
  152.8805  139.5343  159.1654 Cl  0  0  0  0  0  0  0  0  0  0  0  0
  151.9238  141.9957  158.4843 C   0  0  0  0  0  0  0  0  0  0  0  0
  151.5138  141.3613  157.3307 O   0  0  0  0  0  0  0  0  0  0  0  0
  150.8817  142.1308  156.3157 C   0  0  0  0  0  0  0  0  0  0  0  0
  149.8423  141.2548  155.5923 C   0  0  1  0  0  0  0  0  0  0  0  0
  149.1024  142.0760  154.7121 O   0  0  0  0  0  0  0  0  0  0  0  0
  150.4579  140.1006  154.7676 C   0  0  0  0  0  0  0  0  0  0  0  0
  151.1864  139.1303  155.5940 N   0  0  0  0  0  0  0  0  0  0  0  0
  150.4086  138.5079  156.5569 N   0  0  0  0  0  0  0  0  0  0  0  0
  150.9088  137.6089  157.3390 C   0  0  0  0  0  0  0  0  0  0  0  0
  149.9865  136.9578  158.3256 C   0  0  0  0  0  0  0  0  0  0  0  0
  152.3141  137.2681  157.2282 C   0  0  0  0  0  0  0  0  0  0  0  0
  153.0703  137.8780  156.2903 C   0  0  0  0  0  0  0  0  0  0  0  0
  152.5108  138.8767  155.3821 C   0  0  0  0  0  0  0  0  0  0  0  0
  153.1689  139.4361  154.5054 O   0  0  0  0  0  0  0  0  0  0  0  0
  151.7003  143.3702  158.7533 C   0  0  0  0  0  0  0  0  0  0  0  0
  152.8076  145.8759  160.6809 H   0  0  0  0  0  0  0  0  0  0  0  0
  151.0865  145.5428  160.9150 H   0  0  0  0  0  0  0  0  0  0  0  0
  151.6988  145.9662  159.3113 H   0  0  0  0  0  0  0  0  0  0  0  0
  153.2085  143.6025  161.8143 H   0  0  0  0  0  0  0  0  0  0  0  0
  153.5920  141.1934  161.3682 H   0  0  0  0  0  0  0  0  0  0  0  0
  150.3935  142.9843  156.7896 H   0  0  0  0  0  0  0  0  0  0  0  0
  151.6004  142.5139  155.5895 H   0  0  0  0  0  0  0  0  0  0  0  0
  149.1347  140.8586  156.3215 H   0  0  0  0  0  0  0  0  0  0  0  0
  148.8283  142.8494  155.1805 H   0  0  0  0  0  0  0  0  0  0  0  0
  149.6747  139.5869  154.2068 H   0  0  0  0  0  0  0  0  0  0  0  0
  151.1272  140.5109  154.0086 H   0  0  0  0  0  0  0  0  0  0  0  0
  149.6091  137.6861  159.0439 H   0  0  0  0  0  0  0  0  0  0  0  0
  150.4963  136.1707  158.8817 H   0  0  0  0  0  0  0  0  0  0  0  0
  149.1328  136.5068  157.8182 H   0  0  0  0  0  0  0  0  0  0  0  0
  152.7423  136.5296  157.8897 H   0  0  0  0  0  0  0  0  0  0  0  0
  154.1158  137.6204  156.2058 H   0  0  0  0  0  0  0  0  0  0  0  0
  151.1702  143.9981  158.0536 H   0  0  0  0  0  0  0  0  0  0  0  0
  1  2  1  0  0  0  0
  1 22  1  0  0  0  0
  1 23  1  0  0  0  0
  1 24  1  0  0  0  0
  2 21  1  0  0  0  0
  2  3  2  0  0  0  0
  3  4  1  0  0  0  0
  3 25  1  0  0  0  0
  4  5  2  0  0  0  0
  4 26  1  0  0  0  0
  5  6  1  0  0  0  0
  5  7  1  0  0  0  0
  7  8  1  0  0  0  0
  7 21  2  0  0  0  0
  8  9  1  0  0  0  0
  9 10  1  0  0  0  0
  9 27  1  0  0  0  0
  9 28  1  0  0  0  0
 10 11  1  0  0  0  0
 10 12  1  0  0  0  0
 10 29  1  0  0  0  0
 11 30  1  0  0  0  0
 12 13  1  0  0  0  0
 12 31  1  0  0  0  0
 12 32  1  0  0  0  0
 13 19  1  0  0  0  0
 13 14  1  0  0  0  0
 14 15  2  0  0  0  0
 15 16  1  0  0  0  0
 15 17  1  0  0  0  0
 16 33  1  0  0  0  0
 16 34  1  0  0  0  0
 16 35  1  0  0  0  0
 17 18  2  0  0  0  0
 17 36  1  0  0  0  0
 18 19  1  0  0  0  0
 18 37  1  0  0  0  0
 19 20  2  0  0  0  0
 21 38  1  0  0  0  0
M  END
> <s_m_source_file>
AV-unprocessed.smi

> <i_m_source_file_index>
2782

> <i_lp_mmshare_version>
43012

> <i_f3d_flags>
0

> <s_epik_input>
W0NIM11jMVtjSF1bY0hdYyhDbCljKFtjSF0xKU9bQ0gyXVtDQEhdKFtPSF0pW0NIMl1uMm5jKFtDSDNdKVtjSF1bY0hdYzI9Tw==

> <s_epik_cmdline>
J2VwaWtfcHl0aG9uJywgJy1waCcsICc3LjAnLCAnLXRuJywgJzgnLCAnLW1hJywgJzIwMCcsICctbWV0YWxfYmluZGluZycsICctaW1hZScsICc8aW5maWxlLm1hZT4nLCAnLW9tYWUnLCAnPG91dGZpbGUubWFlPic=

> <r_lp_tautomer_probability>
1

> <r_epik_Ionization_Penalty>
2.96353e-07

> <r_epik_Ionization_Penalty_Charging>
1.79179e-07

> <r_epik_Ionization_Penalty_Neutral>
1.17174e-07

> <r_epik_State_Penalty>
-0

> <r_epik_Charging_Adjusted_Penalty>
1.79179e-07

> <i_epik_Tot_Q>
0

> <i_epik_Tot_abs_Q>
0

> <r_epik_Metal_State_Penalty>
-0

> <b_epik_Metal_Only>
0

> <s_lp_Force_Field>
OPLS_2005

> <r_lp_Energy>
25.2407

> <b_lp_Chiralities_Consistent>
1

> <s_lp_Variant>
AV-unprocessed.smi:2782-2

> <Gold.Version>
5.8.1

> <Gold.Id.Protein>
6NUR|6NUR_protein|mol2

> <Gold.PLP.Fitness>
50.6970

> <Gold.PLP.PLP>
-45.0863

> <Gold.PLP.part.hbond>
-3.9739

> <Gold.PLP.part.metal>
0.0000

> <Gold.PLP.part.buried>
-3.8876

> <Gold.PLP.part.nonpolar>
-36.7297

> <Gold.PLP.part.repulsive>
0.0448

> <Gold.PLP.ligand.clash>
0.0000

> <Gold.PLP.ligand.torsion>
0.2570

> <Gold.PLP.Chemscore.Hbond>
2.0250

> <Gold.PLP.Chemscore.CHOScore>
0.0000

> <Gold.PLP.Chemscore.Metal>
0.0000

> <Gold.Chemscore.Hbonds>
donor molecule, donor type, donor heavy atom, donor atom, acceptor molecule, acceptor atom, score
      L1  H    11    30       P1  8028  1.00
      P1  H  7989  7998       L1    20  0.12
      P1  H  7997  8008       L1    20  0.70

> <Gold.PLP.Chemscore.Internal.Correction>
0.0497

> <Gold.Rescore>
     Score         DG    S(hbond)    S(metal)    S(lipo)     H(rot)  DE(clash)    DE(int)     intcor
     18.16     -20.57       2.04        0.00     119.31       2.22       0.80       1.60       ----

> <Gold.Chemscore.Fitness>
18.1650

> <Gold.Chemscore.DG>
-20.5697

> <Gold.Chemscore.ZeroCoef>
-5.4800

> <Gold.Chemscore.Hbond>
2.0398

> <Gold.Chemscore.Metal>
0.0000

> <Gold.Chemscore.Lipo>
119.3138

> <Gold.Chemscore.Internal_Hbond>
0.0000

> <Gold.Chemscore.DEClash>
0.8003

> <Gold.Chemscore.DEInternal>
1.6044

> <Gold.Chemscore.Rot>
2.2199

> <Gold.Chemscore.Internal.Correction>
   9.000000E+99

> <Gold.Chemscore.Hbonds>
donor molecule, donor type, donor heavy atom, donor atom, acceptor molecule, acceptor atom, score
      L1  H    11    30       P1  8028  0.98
      P1  H  7989  7998       L1    20  0.06
      P1  H  7997  8008       L1    20  0.07
      P1  H  8011  8017       L1    11  0.01

> <Gold.Chemscore.Hbond.Weighted>
-6.8128

> <Gold.Chemscore.Metal.Weighted>
-0.0000

> <Gold.Chemscore.Lipo.Weighted>
-13.9597

> <Gold.Chemscore.Internal_Hbond.Weighted>
0.0000

> <Gold.Chemscore.DEClash.Weighted>
0.8003

> <Gold.Chemscore.DEInternal.Weighted>
1.6044

> <Gold.Chemscore.Rot.Weighted>
5.6829

> <Gold.Chemscore.Internal.Correction.Weighted>
   9.000000E+99

> <Gold.Protein.RotatedTorsions>
[ 6907 6896 6895 6894 ] final  108.44 input  -60.11 | X-H torsion
[ 7974 7965 7964 7962 ] final   85.24 input  175.53 | X-H torsion
[ 8008 7997 7996 7995 ] final  -10.87 input   59.86 | X-H torsion
[ 10167 10162 10161 10158 ] final   -2.22 input  -65.29 | X-H torsion
[ 10718 10713 10712 10709 ] final -110.40 input   66.30 | X-H torsion
[ 10763 10752 10751 10750 ] final  179.64 input  -60.55 | X-H torsion
[ 11005 11000 10999 10996 ] final -129.18 input  -57.11 | X-H torsion

> <Gold.Protein.ActiveResidues>
 VAL166  LYS551  ARG553  GLY616  TRP617  ASP618  TYR619  PRO620  LYS621  CYS622 
 ASP623  PHE694  ASN695  SER759  ASP760  ASP761  ALA762  ILE779  LEU786  VAL792 
 PHE793  MET794  SER795  GLU796  ALA797  LYS798  CYS799  TRP800  GLU811  SER814 

> <Gold.Protein.RotatedAtoms>
  152.5112  133.9088  159.7477 H   0  0  0  0  0  0  0  0  0  0  0  0  # atno 6907 bound_to 6896
  150.9486  133.6566  159.2783 H   0  0  0  0  0  0  0  0  0  0  0  0  # atno 6908 bound_to 6896
  151.3852  135.0952  159.9561 H   0  0  0  0  0  0  0  0  0  0  0  0  # atno 6909 bound_to 6896
  145.5882  139.2334  143.2314 H   0  0  0  0  0  0  0  0  0  0  0  0  # atno 7974 bound_to 7965
  154.5516  140.2317  155.8476 H   0  0  0  0  0  0  0  0  0  0  0  0  # atno 8008 bound_to 7997
  156.1951  140.3067  155.9372 H   0  0  0  0  0  0  0  0  0  0  0  0  # atno 8009 bound_to 7997
  155.3060  140.0433  157.3023 H   0  0  0  0  0  0  0  0  0  0  0  0  # atno 8010 bound_to 7997
  140.6842  143.6682  150.8207 H   0  0  0  0  0  0  0  0  0  0  0  0  # atno 10167 bound_to 10162
  156.0589  130.5813  150.8232 H   0  0  0  0  0  0  0  0  0  0  0  0  # atno 10718 bound_to 10713
  154.5232  135.2795  155.1244 H   0  0  0  0  0  0  0  0  0  0  0  0  # atno 10763 bound_to 10752
  154.2794  135.6288  153.5344 H   0  0  0  0  0  0  0  0  0  0  0  0  # atno 10764 bound_to 10752
  152.9941  135.5647  154.5726 H   0  0  0  0  0  0  0  0  0  0  0  0  # atno 10765 bound_to 10752
  140.9453  134.1138  157.4113 H   0  0  0  0  0  0  0  0  0  0  0  0  # atno 11005 bound_to 11000
  146.1667  140.6708  142.9252 LP  0  0  0  0  0  0  0  0  0  0  0  0  # atno 17320 bound_to 7965
  144.7363  140.4818  143.6901 LP  0  0  0  0  0  0  0  0  0  0  0  0  # atno 17321 bound_to 7965
  140.0387  143.5368  152.2727 LP  0  0  0  0  0  0  0  0  0  0  0  0  # atno 17342 bound_to 10162
  139.6188  144.7625  151.2787 LP  0  0  0  0  0  0  0  0  0  0  0  0  # atno 17343 bound_to 10162
  157.5581  131.0945  150.9599 LP  0  0  0  0  0  0  0  0  0  0  0  0  # atno 17370 bound_to 10713
  156.9843  130.5539  149.5298 LP  0  0  0  0  0  0  0  0  0  0  0  0  # atno 17371 bound_to 10713
  139.8832  135.0049  156.6281 LP  0  0  0  0  0  0  0  0  0  0  0  0  # atno 17394 bound_to 11000
  140.7677  133.8764  155.8467 LP  0  0  0  0  0  0  0  0  0  0  0  0  # atno 17395 bound_to 11000

$$$$
