AV-unprocessed.smi:1776|AV-procd|sdf|7176|dock7
  -GOLD-   22720 8413D 1   1.00000     0.00000
 Structure written by MMmdl.
 30 31  0  0  0  0  0  0  0  0  2 V2000
  152.7305  139.4056  157.7144 O   0  0  0  0  0  0  0  0  0  0  0  0
  153.3843  138.8907  158.6214 C   0  0  0  0  0  0  0  0  0  0  0  0
  153.7249  139.4978  159.7762 N   0  0  0  0  0  0  0  0  0  0  0  0
  153.4459  140.7955  160.2415 C   0  0  0  0  0  0  0  0  0  0  0  0
  152.6855  141.7199  159.5904 C   0  0  0  0  0  0  0  0  0  0  0  0
  152.4318  143.0473  160.1365 C   0  0  0  0  0  0  0  0  0  0  0  0
  151.6686  144.1314  159.3961 C   0  0  0  0  0  0  0  0  0  0  0  0
  150.4121  143.7558  159.1555 F   0  0  0  0  0  0  0  0  0  0  0  0
  151.6416  145.2629  160.1007 F   0  0  0  0  0  0  0  0  0  0  0  0
  152.2577  144.3837  158.2281 F   0  0  0  0  0  0  0  0  0  0  0  0
  153.0563  143.2420  161.3530 C   0  0  0  0  0  0  0  0  0  0  0  0
  153.8038  142.3778  162.0732 N   0  5  0  0  0  0  0  0  0  0  0  0
  154.0321  141.1383  161.5546 C   0  0  0  0  0  0  0  0  0  0  0  0
  154.7110  140.3050  162.1562 O   0  0  0  0  0  0  0  0  0  0  0  0
  153.8666  137.4384  158.4868 C   0  0  1  0  0  0  0  0  0  0  0  0
  154.7269  137.1942  157.2246 C   0  0  0  0  0  0  0  0  0  0  0  0
  155.1601  135.8399  157.2048 O   0  0  0  0  0  0  0  0  0  0  0  0
  155.9348  135.5274  158.3541 C   0  0  0  0  0  0  0  0  0  0  0  0
  155.0787  135.7563  159.6098 C   0  0  0  0  0  0  0  0  0  0  0  0
  154.6468  137.1098  159.6339 O   0  0  0  0  0  0  0  0  0  0  0  0
  154.2855  138.9473  160.4109 H   0  0  0  0  0  0  0  0  0  0  0  0
  152.2285  141.4999  158.6409 H   0  0  0  0  0  0  0  0  0  0  0  0
  152.9414  144.2454  161.8155 H   0  0  0  0  0  0  0  0  0  0  0  0
  152.9822  136.7993  158.4574 H   0  0  0  0  0  0  0  0  0  0  0  0
  154.1468  137.3813  156.3203 H   0  0  0  0  0  0  0  0  0  0  0  0
  155.5905  137.8613  157.1976 H   0  0  0  0  0  0  0  0  0  0  0  0
  156.2542  134.4869  158.2968 H   0  0  0  0  0  0  0  0  0  0  0  0
  156.8370  136.1405  158.3807 H   0  0  0  0  0  0  0  0  0  0  0  0
  154.2184  135.0852  159.6237 H   0  0  0  0  0  0  0  0  0  0  0  0
  155.6608  135.5527  160.5085 H   0  0  0  0  0  0  0  0  0  0  0  0
  1  2  2  0  0  0  0
  2  3  1  0  0  0  0
  2 15  1  0  0  0  0
  3  4  1  0  0  0  0
  3 21  1  0  0  0  0
  4 13  1  0  0  0  0
  4  5  2  0  0  0  0
  5  6  1  0  0  0  0
  5 22  1  0  0  0  0
  6  7  1  0  0  0  0
  6 11  2  0  0  0  0
  7  8  1  0  0  0  0
  7  9  1  0  0  0  0
  7 10  1  0  0  0  0
 11 12  1  0  0  0  0
 11 23  1  0  0  0  0
 12 13  1  0  0  0  0
 13 14  2  0  0  0  0
 15 20  1  0  0  0  0
 15 16  1  0  0  0  0
 15 24  1  0  0  0  0
 16 17  1  0  0  0  0
 16 25  1  0  0  0  0
 16 26  1  0  0  0  0
 17 18  1  0  0  0  0
 18 19  1  0  0  0  0
 18 27  1  0  0  0  0
 18 28  1  0  0  0  0
 19 20  1  0  0  0  0
 19 29  1  0  0  0  0
 19 30  1  0  0  0  0
M  CHG  1  12  -1
M  END
> <s_m_source_file>
AV-unprocessed.smi

> <i_m_source_file_index>
1776

> <i_lp_mmshare_version>
43012

> <i_f3d_flags>
0

> <s_epik_input>
TzFbQ0gyXVtDSDJdT1tDSDJdW0NASF0xQyg9TylbTkhdYzJbY0hdYyhDKEYpKEYpRilbY0hdW25IXWMyPU8=

> <s_epik_cmdline>
J2VwaWtfcHl0aG9uJywgJy1waCcsICc3LjAnLCAnLXRuJywgJzgnLCAnLW1hJywgJzIwMCcsICctbWV0YWxfYmluZGluZycsICctaW1hZScsICc8aW5maWxlLm1hZT4nLCAnLW9tYWUnLCAnPG91dGZpbGUubWFlPic=

> <r_epik_Ionization_Penalty>
2.46925

> <r_epik_Ionization_Penalty_Charging>
0.0509887

> <r_epik_Ionization_Penalty_Neutral>
2.41826

> <r_epik_State_Penalty>
2.57741

> <r_epik_Charging_Adjusted_Penalty>
2.6284

> <i_epik_Tot_Q>
-1

> <i_epik_Tot_abs_Q>
1

> <r_epik_Metal_State_Penalty>
0.510263

> <b_epik_Metal_Only>
0

> <s_lp_Force_Field>
OPLS_2005

> <r_lp_Energy>
25.1464

> <b_lp_Chiralities_Consistent>
1

> <s_lp_Variant>
AV-unprocessed.smi:1776-4

> <Gold.Version>
5.8.1

> <Gold.Id.Protein>
6NUR|6NUR_protein|mol2

> <Gold.PLP.Fitness>
44.1646

> <Gold.PLP.PLP>
-38.2094

> <Gold.PLP.part.hbond>
-2.5595

> <Gold.PLP.part.metal>
0.0000

> <Gold.PLP.part.buried>
-4.5226

> <Gold.PLP.part.nonpolar>
-30.5157

> <Gold.PLP.part.repulsive>
0.1029

> <Gold.PLP.ligand.clash>
0.0000

> <Gold.PLP.ligand.torsion>
0.0468

> <Gold.PLP.Chemscore.Hbond>
2.0000

> <Gold.PLP.Chemscore.CHOScore>
0.0000

> <Gold.PLP.Chemscore.Metal>
0.0000

> <Gold.Chemscore.Hbonds>
donor molecule, donor type, donor heavy atom, donor atom, acceptor molecule, acceptor atom, score
      P1  H  7997  8010       L1     1  0.70
      P1  H 10752 10763       L1    17  0.69

> <Gold.PLP.Chemscore.Internal.Correction>
0.0488

> <Gold.Rescore>
     Score         DG    S(hbond)    S(metal)    S(lipo)     H(rot)  DE(clash)    DE(int)     intcor
     13.02     -14.46       1.09        0.00      67.57       1.00       0.30       1.14       ----

> <Gold.Chemscore.Fitness>
13.0183

> <Gold.Chemscore.DG>
-14.4615

> <Gold.Chemscore.ZeroCoef>
-5.4800

> <Gold.Chemscore.Hbond>
1.0884

> <Gold.Chemscore.Metal>
0.0000

> <Gold.Chemscore.Lipo>
67.5742

> <Gold.Chemscore.Internal_Hbond>
0.0000

> <Gold.Chemscore.DEClash>
0.3029

> <Gold.Chemscore.DEInternal>
1.1403

> <Gold.Chemscore.Rot>
1.0000

> <Gold.Chemscore.Internal.Correction>
   9.000000E+99

> <Gold.Chemscore.Hbonds>
donor molecule, donor type, donor heavy atom, donor atom, acceptor molecule, acceptor atom, score
      P1  H  7997  8010       L1     1  0.13
      P1  H 10752 10763       L1    17  0.16

> <Gold.Chemscore.Hbond.Weighted>
-3.6354

> <Gold.Chemscore.Metal.Weighted>
-0.0000

> <Gold.Chemscore.Lipo.Weighted>
-7.9062

> <Gold.Chemscore.Internal_Hbond.Weighted>
0.0000

> <Gold.Chemscore.DEClash.Weighted>
0.3029

> <Gold.Chemscore.DEInternal.Weighted>
1.1403

> <Gold.Chemscore.Rot.Weighted>
2.5600

> <Gold.Chemscore.Internal.Correction.Weighted>
   9.000000E+99

> <Gold.Protein.RotatedTorsions>
[ 6907 6896 6895 6894 ] final -124.09 input  -60.11 | X-H torsion
[ 7974 7965 7964 7962 ] final -131.86 input  175.53 | X-H torsion
[ 8008 7997 7996 7995 ] final   66.72 input   59.86 | X-H torsion
[ 10167 10162 10161 10158 ] final  127.70 input  -65.29 | X-H torsion
[ 10718 10713 10712 10709 ] final  -28.40 input   66.30 | X-H torsion
[ 10763 10752 10751 10750 ] final  171.47 input  -60.55 | X-H torsion
[ 11005 11000 10999 10996 ] final -154.30 input  -57.11 | X-H torsion

> <Gold.Protein.ActiveResidues>
 VAL166  LYS551  ARG553  GLY616  TRP617  ASP618  TYR619  PRO620  LYS621  CYS622 
 ASP623  PHE694  ASN695  SER759  ASP760  ASP761  ALA762  ILE779  LEU786  VAL792 
 PHE793  MET794  SER795  GLU796  ALA797  LYS798  CYS799  TRP800  GLU811  SER814 

> <Gold.Protein.RotatedAtoms>
  150.8734  133.7473  159.2953 H   0  0  0  0  0  0  0  0  0  0  0  0  # atno 6907 bound_to 6896
  151.5078  135.1062  159.9855 H   0  0  0  0  0  0  0  0  0  0  0  0  # atno 6908 bound_to 6896
  152.4711  133.7986  159.6996 H   0  0  0  0  0  0  0  0  0  0  0  0  # atno 6909 bound_to 6896
  144.9339  140.7161  143.4888 H   0  0  0  0  0  0  0  0  0  0  0  0  # atno 7974 bound_to 7965
  155.6818  140.3496  155.4858 H   0  0  0  0  0  0  0  0  0  0  0  0  # atno 8008 bound_to 7997
  155.9600  140.1135  157.0926 H   0  0  0  0  0  0  0  0  0  0  0  0  # atno 8009 bound_to 7997
  154.4141  140.1177  156.5153 H   0  0  0  0  0  0  0  0  0  0  0  0  # atno 8010 bound_to 7997
  139.5565  144.6852  151.4168 H   0  0  0  0  0  0  0  0  0  0  0  0  # atno 10167 bound_to 10162
  156.4257  130.4435  149.7152 H   0  0  0  0  0  0  0  0  0  0  0  0  # atno 10718 bound_to 10713
  154.4124  135.2756  155.2028 H   0  0  0  0  0  0  0  0  0  0  0  0  # atno 10763 bound_to 10752
  154.4009  135.6045  153.5900 H   0  0  0  0  0  0  0  0  0  0  0  0  # atno 10764 bound_to 10752
  152.9831  135.5926  154.4407 H   0  0  0  0  0  0  0  0  0  0  0  0  # atno 10765 bound_to 10752
  140.6988  134.3960  157.5212 H   0  0  0  0  0  0  0  0  0  0  0  0  # atno 11005 bound_to 11000
  145.3097  139.1822  143.4645 LP  0  0  0  0  0  0  0  0  0  0  0  0  # atno 17320 bound_to 7965
  146.3258  140.3100  142.8626 LP  0  0  0  0  0  0  0  0  0  0  0  0  # atno 17321 bound_to 7965
  140.6838  143.8020  150.7158 LP  0  0  0  0  0  0  0  0  0  0  0  0  # atno 17342 bound_to 10162
  140.1482  143.4381  152.2149 LP  0  0  0  0  0  0  0  0  0  0  0  0  # atno 17343 bound_to 10162
  156.4075  130.7705  151.2717 LP  0  0  0  0  0  0  0  0  0  0  0  0  # atno 17370 bound_to 10713
  157.7508  131.0221  150.3779 LP  0  0  0  0  0  0  0  0  0  0  0  0  # atno 17371 bound_to 10713
  139.8902  134.8809  156.2379 LP  0  0  0  0  0  0  0  0  0  0  0  0  # atno 17394 bound_to 11000
  141.0181  133.7057  156.1222 LP  0  0  0  0  0  0  0  0  0  0  0  0  # atno 17395 bound_to 11000

$$$$
