AV-unprocessed.smi:1648|AV-procd|sdf|6628|dock4
  -GOLD-   22720 7323D 1   1.00000     0.00000
 Structure written by MMmdl.
 42 42  0  0  0  0  0  0  0  0  2 V2000
  150.9745  137.9593  154.3006 C   0  0  0  0  0  0  0  0  0  0  0  0
  149.5872  138.5882  154.4448 C   0  0  0  0  0  0  0  0  0  0  0  0
  148.9821  138.4777  155.5084 O   0  0  0  0  0  0  0  0  0  0  0  0
  149.0536  139.2538  153.4056 N   0  0  0  0  0  0  0  0  0  0  0  0
  147.7493  139.9207  153.3459 C   0  0  1  0  0  0  0  0  0  0  0  0
  146.6431  138.8578  153.5007 C   0  0  0  0  0  0  0  0  0  0  0  0
  145.7080  139.0359  154.2827 O   0  0  0  0  0  0  0  0  0  0  0  0
  146.7651  137.7589  152.7390 N   0  0  0  0  0  0  0  0  0  0  0  0
  145.8877  136.5897  152.7687 C   0  0  2  0  0  0  0  0  0  0  0  0
  145.9482  135.9728  154.1727 C   0  0  0  0  0  0  0  0  0  0  0  0
  146.2794  135.5555  151.6897 C   0  0  0  0  0  0  0  0  0  0  0  0
  145.1952  134.6244  151.3548 N   0  0  0  0  0  0  0  0  0  0  0  0
  145.1370  133.2821  151.6330 C   0  0  0  0  0  0  0  0  0  0  0  0
  143.9466  132.8283  151.1267 C   0  0  0  0  0  0  0  0  0  0  0  0
  143.3360  133.9075  150.5467 N   0  3  0  0  0  0  0  0  0  0  0  0
  144.1013  134.9959  150.6772 C   0  0  0  0  0  0  0  0  0  0  0  0
  147.6579  140.9540  154.5079 C   0  0  0  0  0  0  0  0  0  0  0  0
  146.5246  141.9805  154.3074 C   0  0  0  0  0  0  0  0  0  0  0  0
  148.9837  141.7134  154.7174 C   0  0  0  0  0  0  0  0  0  0  0  0
  150.9890  137.2279  153.4925 H   0  0  0  0  0  0  0  0  0  0  0  0
  151.2588  137.4461  155.2198 H   0  0  0  0  0  0  0  0  0  0  0  0
  151.7260  138.7225  154.0984 H   0  0  0  0  0  0  0  0  0  0  0  0
  149.6179  139.3171  152.5707 H   0  0  0  0  0  0  0  0  0  0  0  0
  147.6395  140.4437  152.3941 H   0  0  0  0  0  0  0  0  0  0  0  0
  147.5619  137.7072  152.1204 H   0  0  0  0  0  0  0  0  0  0  0  0
  144.8559  136.9064  152.6056 H   0  0  0  0  0  0  0  0  0  0  0  0
  145.2761  135.1182  154.2562 H   0  0  0  0  0  0  0  0  0  0  0  0
  145.6527  136.6965  154.9335 H   0  0  0  0  0  0  0  0  0  0  0  0
  146.9547  135.6284  154.4136 H   0  0  0  0  0  0  0  0  0  0  0  0
  146.6148  136.0534  150.7783 H   0  0  0  0  0  0  0  0  0  0  0  0
  147.1133  134.9458  152.0399 H   0  0  0  0  0  0  0  0  0  0  0  0
  145.9220  132.7647  152.1654 H   0  0  0  0  0  0  0  0  0  0  0  0
  143.5019  131.8439  151.1326 H   0  0  0  0  0  0  0  0  0  0  0  0
  143.8743  135.9813  150.3112 H   0  0  0  0  0  0  0  0  0  0  0  0
  147.4497  140.4161  155.4347 H   0  0  0  0  0  0  0  0  0  0  0  0
  146.6587  142.5385  153.3802 H   0  0  0  0  0  0  0  0  0  0  0  0
  146.4990  142.7009  155.1254 H   0  0  0  0  0  0  0  0  0  0  0  0
  145.5439  141.5099  154.2719 H   0  0  0  0  0  0  0  0  0  0  0  0
  149.2800  142.2470  153.8138 H   0  0  0  0  0  0  0  0  0  0  0  0
  149.8005  141.0463  154.9927 H   0  0  0  0  0  0  0  0  0  0  0  0
  148.8937  142.4467  155.5193 H   0  0  0  0  0  0  0  0  0  0  0  0
  142.4367  133.8862  150.0823 H   0  0  0  0  0  0  0  0  0  0  0  0
  1  2  1  0  0  0  0
  1 20  1  0  0  0  0
  1 21  1  0  0  0  0
  1 22  1  0  0  0  0
  2  3  2  0  0  0  0
  2  4  1  0  0  0  0
  4  5  1  0  0  0  0
  4 23  1  0  0  0  0
  5  6  1  0  0  0  0
  5 17  1  0  0  0  0
  5 24  1  0  0  0  0
  6  7  2  0  0  0  0
  6  8  1  0  0  0  0
  8  9  1  0  0  0  0
  8 25  1  0  0  0  0
  9 10  1  0  0  0  0
  9 11  1  0  0  0  0
  9 26  1  0  0  0  0
 10 27  1  0  0  0  0
 10 28  1  0  0  0  0
 10 29  1  0  0  0  0
 11 12  1  0  0  0  0
 11 30  1  0  0  0  0
 11 31  1  0  0  0  0
 12 16  1  0  0  0  0
 12 13  1  0  0  0  0
 13 14  2  0  0  0  0
 13 32  1  0  0  0  0
 14 15  1  0  0  0  0
 14 33  1  0  0  0  0
 15 16  2  0  0  0  0
 15 42  1  0  0  0  0
 16 34  1  0  0  0  0
 17 18  1  0  0  0  0
 17 19  1  0  0  0  0
 17 35  1  0  0  0  0
 18 36  1  0  0  0  0
 18 37  1  0  0  0  0
 18 38  1  0  0  0  0
 19 39  1  0  0  0  0
 19 40  1  0  0  0  0
 19 41  1  0  0  0  0
M  CHG  1  15   1
M  END
> <s_m_source_file>
AV-unprocessed.smi

> <i_m_source_file_index>
1648

> <i_lp_mmshare_version>
43012

> <i_f3d_flags>
0

> <s_epik_input>
W0NIM11DKD1PKVtOSF1bQ0BASF0oW0NIXShbQ0gzXSlbQ0gzXSlDKD1PKVtOSF1bQ0BIXShbQ0gzXSlbQ0gyXW4xW2NIXVtjSF1uW2NIXTE=

> <s_epik_cmdline>
J2VwaWtfcHl0aG9uJywgJy1waCcsICc3LjAnLCAnLXRuJywgJzgnLCAnLW1hJywgJzIwMCcsICctbWV0YWxfYmluZGluZycsICctaW1hZScsICc8aW5maWxlLm1hZT4nLCAnLW9tYWUnLCAnPG91dGZpbGUubWFlPic=

> <r_lp_tautomer_probability>
1

> <r_epik_Ionization_Penalty>
0.251562

> <r_epik_Ionization_Penalty_Charging>
0

> <r_epik_Ionization_Penalty_Neutral>
0.251562

> <r_epik_State_Penalty>
0.242926

> <r_epik_Charging_Adjusted_Penalty>
0.242926

> <i_epik_Tot_Q>
1

> <i_epik_Tot_abs_Q>
1

> <r_epik_Metal_State_Penalty>
0.53388

> <b_epik_Metal_Only>
0

> <s_lp_Force_Field>
OPLS_2005

> <r_lp_Energy>
11.0591

> <b_lp_Chiralities_Consistent>
1

> <s_lp_Variant>
AV-unprocessed.smi:1648-2

> <Gold.Version>
5.8.1

> <Gold.Id.Protein>
6NUR|6NUR_protein|mol2

> <Gold.PLP.Fitness>
39.3038

> <Gold.PLP.PLP>
-27.9740

> <Gold.PLP.part.hbond>
-2.5582

> <Gold.PLP.part.metal>
0.0000

> <Gold.PLP.part.buried>
1.5052

> <Gold.PLP.part.nonpolar>
-28.4065

> <Gold.PLP.part.repulsive>
0.8393

> <Gold.PLP.ligand.clash>
0.0000

> <Gold.PLP.ligand.torsion>
0.9274

> <Gold.PLP.Chemscore.Hbond>
3.3600

> <Gold.PLP.Chemscore.CHOScore>
1.0000

> <Gold.PLP.Chemscore.Metal>
0.0000

> <Gold.Chemscore.Hbonds>
donor molecule, donor type, donor heavy atom, donor atom, acceptor molecule, acceptor atom, score
      L1  H     4    23       P1  7957  0.82
      L1  H     8    25       P1  7948  0.64
      L1  H    15    42       P1 10186  2.00
      L1  C    16    34       P1 10171  0.75

> <Gold.PLP.Chemscore.Internal.Correction>
0.1047

> <Gold.Rescore>
     Score         DG    S(hbond)    S(metal)    S(lipo)     H(rot)  DE(clash)    DE(int)     intcor
      9.46     -13.09       2.33        0.00      55.61       2.61       1.54       2.09       ----

> <Gold.Chemscore.Fitness>
9.4586

> <Gold.Chemscore.DG>
-13.0862

> <Gold.Chemscore.ZeroCoef>
-5.4800

> <Gold.Chemscore.Hbond>
2.3326

> <Gold.Chemscore.Metal>
0.0000

> <Gold.Chemscore.Lipo>
55.6075

> <Gold.Chemscore.Internal_Hbond>
0.0000

> <Gold.Chemscore.DEClash>
1.5351

> <Gold.Chemscore.DEInternal>
2.0925

> <Gold.Chemscore.Rot>
2.6135

> <Gold.Chemscore.Internal.Correction>
   9.000000E+99

> <Gold.Chemscore.Hbonds>
donor molecule, donor type, donor heavy atom, donor atom, acceptor molecule, acceptor atom, score
      L1  H     4    23       P1  7957  0.78
      L1  H     8    25       P1  7948  0.60
      L1  H    15    42       P1 10186  0.98

> <Gold.Chemscore.Hbond.Weighted>
-7.7908

> <Gold.Chemscore.Metal.Weighted>
-0.0000

> <Gold.Chemscore.Lipo.Weighted>
-6.5061

> <Gold.Chemscore.Internal_Hbond.Weighted>
0.0000

> <Gold.Chemscore.DEClash.Weighted>
1.5351

> <Gold.Chemscore.DEInternal.Weighted>
2.0925

> <Gold.Chemscore.Rot.Weighted>
6.6906

> <Gold.Chemscore.Internal.Correction.Weighted>
   9.000000E+99

> <Gold.Protein.RotatedTorsions>
[ 6907 6896 6895 6894 ] final   23.44 input  -60.11 | X-H torsion
[ 7974 7965 7964 7962 ] final  142.94 input  175.53 | X-H torsion
[ 8008 7997 7996 7995 ] final   99.02 input   59.86 | X-H torsion
[ 10167 10162 10161 10158 ] final   -6.02 input  -65.29 | X-H torsion
[ 10718 10713 10712 10709 ] final  160.59 input   66.30 | X-H torsion
[ 10763 10752 10751 10750 ] final  106.59 input  -60.55 | X-H torsion
[ 11005 11000 10999 10996 ] final  -25.70 input  -57.11 | X-H torsion

> <Gold.Protein.ActiveResidues>
 VAL166  LYS551  ARG553  GLY616  TRP617  ASP618  TYR619  PRO620  LYS621  CYS622 
 ASP623  PHE694  ASN695  SER759  ASP760  ASP761  ALA762  ILE779  LEU786  VAL792 
 PHE793  MET794  SER795  GLU796  ALA797  LYS798  CYS799  TRP800  GLU811  SER814 

> <Gold.Protein.RotatedAtoms>
  151.9424  135.0207  160.0536 H   0  0  0  0  0  0  0  0  0  0  0  0  # atno 6907 bound_to 6896
  152.2024  133.4846  159.5074 H   0  0  0  0  0  0  0  0  0  0  0  0  # atno 6908 bound_to 6896
  150.6957  134.1490  159.4176 H   0  0  0  0  0  0  0  0  0  0  0  0  # atno 6909 bound_to 6896
  144.8964  139.5484  143.5774 H   0  0  0  0  0  0  0  0  0  0  0  0  # atno 7974 bound_to 7965
  156.1063  140.3235  155.8011 H   0  0  0  0  0  0  0  0  0  0  0  0  # atno 8008 bound_to 7997
  155.4750  140.0549  157.2992 H   0  0  0  0  0  0  0  0  0  0  0  0  # atno 8009 bound_to 7997
  154.4730  140.2020  155.9962 H   0  0  0  0  0  0  0  0  0  0  0  0  # atno 8010 bound_to 7997
  140.6983  143.6242  150.8584 H   0  0  0  0  0  0  0  0  0  0  0  0  # atno 10167 bound_to 10162
  157.1482  131.0557  151.2293 H   0  0  0  0  0  0  0  0  0  0  0  0  # atno 10718 bound_to 10713
  153.3951  135.3872  155.1949 H   0  0  0  0  0  0  0  0  0  0  0  0  # atno 10763 bound_to 10752
  154.8723  135.3758  154.4689 H   0  0  0  0  0  0  0  0  0  0  0  0  # atno 10764 bound_to 10752
  153.5180  135.7087  153.5808 H   0  0  0  0  0  0  0  0  0  0  0  0  # atno 10765 bound_to 10752
  140.8962  133.7555  156.0484 H   0  0  0  0  0  0  0  0  0  0  0  0  # atno 11005 bound_to 11000
  146.3084  139.7658  142.9039 LP  0  0  0  0  0  0  0  0  0  0  0  0  # atno 17320 bound_to 7965
  145.3692  141.0340  143.3240 LP  0  0  0  0  0  0  0  0  0  0  0  0  # atno 17321 bound_to 7965
  139.9962  143.5793  152.2892 LP  0  0  0  0  0  0  0  0  0  0  0  0  # atno 17342 bound_to 10162
  139.6466  144.7658  151.2231 LP  0  0  0  0  0  0  0  0  0  0  0  0  # atno 17343 bound_to 10162
  157.4245  130.7456  149.6939 LP  0  0  0  0  0  0  0  0  0  0  0  0  # atno 17370 bound_to 10713
  155.9775  130.4062  150.3706 LP  0  0  0  0  0  0  0  0  0  0  0  0  # atno 17371 bound_to 10713
  140.8286  134.3205  157.5357 LP  0  0  0  0  0  0  0  0  0  0  0  0  # atno 17394 bound_to 11000
  139.8736  134.9350  156.3623 LP  0  0  0  0  0  0  0  0  0  0  0  0  # atno 17395 bound_to 11000

$$$$
