AV-unprocessed.smi:1056|AV-procd|sdf|4632|dock1
  -GOLD-   22720 3133D 1   1.00000     0.00000
 Structure written by MMmdl.
 45 47  0  0  0  0  0  0  0  0  2 V2000
  153.1401  142.5480  161.5663 C   0  0  0  0  0  0  0  0  0  0  0  0
  152.4974  142.3659  160.2023 C   0  0  0  0  0  0  0  0  0  0  0  0
  152.8434  141.2377  159.4251 C   0  0  0  0  0  0  0  0  0  0  0  0
  152.2657  141.0290  158.1538 C   0  0  0  0  0  0  0  0  0  0  0  0
  152.4543  140.0086  157.2375 N   0  0  0  0  0  0  0  0  0  0  0  0
  151.6379  140.3765  156.2549 C   0  0  0  0  0  0  0  0  0  0  0  0
  150.9440  141.5184  156.4241 N   0  0  0  0  0  0  0  0  0  0  0  0
  150.0038  142.1155  155.4925 C   0  0  0  0  0  0  0  0  0  0  0  0
  149.1681  141.0620  154.7400 C   0  0  2  0  0  0  0  0  0  0  0  0
  149.8212  140.7120  153.5340 O   0  0  0  0  0  0  0  0  0  0  0  0
  147.7582  141.5840  154.4036 C   0  0  0  0  0  0  0  0  0  0  0  0
  147.1224  142.2724  155.5553 N   0  3  1  0  0  0  0  0  0  0  0  0
  145.7201  142.6809  155.3016 C   0  0  0  0  0  0  0  0  0  0  0  0
  145.2098  143.5693  156.4495 C   0  0  0  0  0  0  0  0  0  0  0  0
  145.5850  143.0674  157.7693 N   0  0  0  0  0  0  0  0  0  0  0  0
  146.5164  142.1303  158.0106 C   0  0  0  0  0  0  0  0  0  0  0  0
  146.7856  141.7649  159.1518 O   0  0  0  0  0  0  0  0  0  0  0  0
  147.2547  141.5023  156.8185 C   0  0  0  0  0  0  0  0  0  0  0  0
  151.3260  141.9889  157.6762 C   0  0  0  0  0  0  0  0  0  0  0  0
  150.9754  143.1169  158.4392 C   0  0  0  0  0  0  0  0  0  0  0  0
  151.5596  143.3081  159.7089 C   0  0  0  0  0  0  0  0  0  0  0  0
  151.1693  144.5255  160.5285 C   0  0  0  0  0  0  0  0  0  0  0  0
  153.8808  141.7728  161.7643 H   0  0  0  0  0  0  0  0  0  0  0  0
  152.3853  142.4991  162.3514 H   0  0  0  0  0  0  0  0  0  0  0  0
  153.6433  143.5131  161.6281 H   0  0  0  0  0  0  0  0  0  0  0  0
  153.5573  140.5194  159.8009 H   0  0  0  0  0  0  0  0  0  0  0  0
  151.5403  139.7827  155.3576 H   0  0  0  0  0  0  0  0  0  0  0  0
  149.3498  142.7856  156.0523 H   0  0  0  0  0  0  0  0  0  0  0  0
  150.5568  142.7393  154.7890 H   0  0  0  0  0  0  0  0  0  0  0  0
  149.1029  140.1668  155.3583 H   0  0  0  0  0  0  0  0  0  0  0  0
  149.3168  140.0422  153.0973 H   0  0  0  0  0  0  0  0  0  0  0  0
  147.7923  142.2666  153.5530 H   0  0  0  0  0  0  0  0  0  0  0  0
  147.1414  140.7403  154.0888 H   0  0  0  0  0  0  0  0  0  0  0  0
  145.6290  143.2202  154.3594 H   0  0  0  0  0  0  0  0  0  0  0  0
  145.0986  141.7881  155.2146 H   0  0  0  0  0  0  0  0  0  0  0  0
  145.6262  144.5719  156.3482 H   0  0  0  0  0  0  0  0  0  0  0  0
  144.1258  143.6733  156.3962 H   0  0  0  0  0  0  0  0  0  0  0  0
  145.1038  143.4669  158.5631 H   0  0  0  0  0  0  0  0  0  0  0  0
  146.8633  140.4945  156.6721 H   0  0  0  0  0  0  0  0  0  0  0  0
  148.3112  141.4030  157.0715 H   0  0  0  0  0  0  0  0  0  0  0  0
  150.2612  143.8285  158.0527 H   0  0  0  0  0  0  0  0  0  0  0  0
  150.4169  145.1259  160.0162 H   0  0  0  0  0  0  0  0  0  0  0  0
  152.0379  145.1596  160.7083 H   0  0  0  0  0  0  0  0  0  0  0  0
  150.7561  144.2223  161.4907 H   0  0  0  0  0  0  0  0  0  0  0  0
  147.6472  143.1241  155.6971 H   0  0  0  0  0  0  0  0  0  0  0  0
  1  2  1  0  0  0  0
  1 23  1  0  0  0  0
  1 24  1  0  0  0  0
  1 25  1  0  0  0  0
  2 21  1  0  0  0  0
  2  3  2  0  0  0  0
  3  4  1  0  0  0  0
  3 26  1  0  0  0  0
  4 19  2  0  0  0  0
  4  5  1  0  0  0  0
  5  6  2  0  0  0  0
  6  7  1  0  0  0  0
  6 27  1  0  0  0  0
  7  8  1  0  0  0  0
  7 19  1  0  0  0  0
  8  9  1  0  0  0  0
  8 28  1  0  0  0  0
  8 29  1  0  0  0  0
  9 10  1  0  0  0  0
  9 11  1  0  0  0  0
  9 30  1  0  0  0  0
 10 31  1  0  0  0  0
 11 12  1  0  0  0  0
 11 32  1  0  0  0  0
 11 33  1  0  0  0  0
 12 18  1  0  0  0  0
 12 13  1  0  0  0  0
 12 45  1  0  0  0  0
 13 14  1  0  0  0  0
 13 34  1  0  0  0  0
 13 35  1  0  0  0  0
 14 15  1  0  0  0  0
 14 36  1  0  0  0  0
 14 37  1  0  0  0  0
 15 16  1  0  0  0  0
 15 38  1  0  0  0  0
 16 17  2  0  0  0  0
 16 18  1  0  0  0  0
 18 39  1  0  0  0  0
 18 40  1  0  0  0  0
 19 20  1  0  0  0  0
 20 21  2  0  0  0  0
 20 41  1  0  0  0  0
 21 22  1  0  0  0  0
 22 42  1  0  0  0  0
 22 43  1  0  0  0  0
 22 44  1  0  0  0  0
M  CHG  1  12   1
M  END
> <s_m_source_file>
AV-unprocessed.smi

> <i_m_source_file_index>
1056

> <i_lp_mmshare_version>
43012

> <i_f3d_flags>
0

> <s_epik_input>
W0NIM11jKFtjSF0xKWMoW0NIM10pW2NIXWMoYzEyKW4oW2NIXW4yKVtDSDJdW0NASF0oW09IXSlbQ0gyXU4zW0NIMl1bQ0gyXVtOSF1DKD1PKVtDSDJdMw==

> <s_epik_cmdline>
J2VwaWtfcHl0aG9uJywgJy1waCcsICc3LjAnLCAnLXRuJywgJzgnLCAnLW1hJywgJzIwMCcsICctbWV0YWxfYmluZGluZycsICctaW1hZScsICc8aW5maWxlLm1hZT4nLCAnLW9tYWUnLCAnPG91dGZpbGUubWFlPic=

> <r_epik_Ionization_Penalty>
0.153633

> <r_epik_Ionization_Penalty_Charging>
0.0674887

> <r_epik_Ionization_Penalty_Neutral>
0.0861443

> <r_epik_State_Penalty>
0.135155

> <r_epik_Charging_Adjusted_Penalty>
0.202644

> <i_epik_Tot_Q>
1

> <i_epik_Tot_abs_Q>
1

> <r_epik_Metal_State_Penalty>
0.190685

> <b_epik_Metal_Only>
0

> <s_lp_Force_Field>
OPLS_2005

> <r_lp_Energy>
24.2633

> <b_lp_Chiralities_Consistent>
1

> <s_lp_Variant>
AV-unprocessed.smi:1056-3

> <Gold.Version>
5.8.1

> <Gold.Id.Protein>
6NUR|6NUR_protein|mol2

> <Gold.PLP.Fitness>
59.0556

> <Gold.PLP.PLP>
-44.7792

> <Gold.PLP.part.hbond>
-5.5449

> <Gold.PLP.part.metal>
0.0000

> <Gold.PLP.part.buried>
-3.6200

> <Gold.PLP.part.nonpolar>
-34.2699

> <Gold.PLP.part.repulsive>
0.0921

> <Gold.PLP.ligand.clash>
0.0000

> <Gold.PLP.ligand.torsion>
0.8814

> <Gold.PLP.Chemscore.Hbond>
5.3120

> <Gold.PLP.Chemscore.CHOScore>
0.0000

> <Gold.PLP.Chemscore.Metal>
0.0000

> <Gold.Chemscore.Hbonds>
donor molecule, donor type, donor heavy atom, donor atom, acceptor molecule, acceptor atom, score
      L1  H    10    31       P1  7957  0.24
      L1  H    12    45       P1  8028  2.00
      P1  H  6934  6946       L1    17  0.70
      P1  H  7989  7998       L1    10  0.40
      P1  H  7997  8010       L1     5  1.00
      P1  H  8011  8017       L1    10  0.88

> <Gold.PLP.Chemscore.Internal.Correction>
0.1032

> <Gold.Rescore>
     Score         DG    S(hbond)    S(metal)    S(lipo)     H(rot)  DE(clash)    DE(int)     intcor
     18.76     -21.16       2.69        0.00     109.18       2.38       1.60       0.80       ----

> <Gold.Chemscore.Fitness>
18.7606

> <Gold.Chemscore.DG>
-21.1570

> <Gold.Chemscore.ZeroCoef>
-5.4800

> <Gold.Chemscore.Hbond>
2.6919

> <Gold.Chemscore.Metal>
0.0000

> <Gold.Chemscore.Lipo>
109.1827

> <Gold.Chemscore.Internal_Hbond>
0.0000

> <Gold.Chemscore.DEClash>
1.5960

> <Gold.Chemscore.DEInternal>
0.8004

> <Gold.Chemscore.Rot>
2.3783

> <Gold.Chemscore.Internal.Correction>
   9.000000E+99

> <Gold.Chemscore.Hbonds>
donor molecule, donor type, donor heavy atom, donor atom, acceptor molecule, acceptor atom, score
      L1  H    10    31       P1  7957  0.24
      L1  H    12    45       P1  8028  0.25
      P1  H  6934  6946       L1    17  0.70
      P1  H  7989  7998       L1    10  0.38
      P1  H  7997  8010       L1     5  0.44
      P1  H  8011  8017       L1    10  0.33

> <Gold.Chemscore.Hbond.Weighted>
-8.9910

> <Gold.Chemscore.Metal.Weighted>
-0.0000

> <Gold.Chemscore.Lipo.Weighted>
-12.7744

> <Gold.Chemscore.Internal_Hbond.Weighted>
0.0000

> <Gold.Chemscore.DEClash.Weighted>
1.5960

> <Gold.Chemscore.DEInternal.Weighted>
0.8004

> <Gold.Chemscore.Rot.Weighted>
6.0884

> <Gold.Chemscore.Internal.Correction.Weighted>
   9.000000E+99

> <Gold.Protein.RotatedTorsions>
[ 6907 6896 6895 6894 ] final  -18.90 input  -60.11 | X-H torsion
[ 7974 7965 7964 7962 ] final  178.57 input  175.53 | X-H torsion
[ 8008 7997 7996 7995 ] final   54.27 input   59.86 | X-H torsion
[ 10167 10162 10161 10158 ] final   -3.46 input  -65.29 | X-H torsion
[ 10718 10713 10712 10709 ] final  -35.47 input   66.30 | X-H torsion
[ 10763 10752 10751 10750 ] final  -20.54 input  -60.55 | X-H torsion
[ 11005 11000 10999 10996 ] final   76.86 input  -57.11 | X-H torsion

> <Gold.Protein.ActiveResidues>
 VAL166  LYS551  ARG553  GLY616  TRP617  ASP618  TYR619  PRO620  LYS621  CYS622 
 ASP623  PHE694  ASN695  SER759  ASP760  ASP761  ALA762  ILE779  LEU786  VAL792 
 PHE793  MET794  SER795  GLU796  ALA797  LYS798  CYS799  TRP800  GLU811  SER814 

> <Gold.Protein.RotatedAtoms>
  151.2713  135.0685  159.9134 H   0  0  0  0  0  0  0  0  0  0  0  0  # atno 6907 bound_to 6896
  152.5350  134.0128  159.7956 H   0  0  0  0  0  0  0  0  0  0  0  0  # atno 6908 bound_to 6896
  151.0366  133.5692  159.2686 H   0  0  0  0  0  0  0  0  0  0  0  0  # atno 6909 bound_to 6896
  144.7155  140.0417  143.6437 H   0  0  0  0  0  0  0  0  0  0  0  0  # atno 7974 bound_to 7965
  155.4819  140.3468  155.4341 H   0  0  0  0  0  0  0  0  0  0  0  0  # atno 8008 bound_to 7997
  156.1034  140.1441  156.9466 H   0  0  0  0  0  0  0  0  0  0  0  0  # atno 8009 bound_to 7997
  154.4708  140.0901  156.7118 H   0  0  0  0  0  0  0  0  0  0  0  0  # atno 8010 bound_to 7997
  140.6891  143.6538  150.8327 H   0  0  0  0  0  0  0  0  0  0  0  0  # atno 10167 bound_to 10162
  156.3383  130.4289  149.7810 H   0  0  0  0  0  0  0  0  0  0  0  0  # atno 10718 bound_to 10713
  153.6220  135.6992  153.5307 H   0  0  0  0  0  0  0  0  0  0  0  0  # atno 10763 bound_to 10752
  153.2930  135.4151  155.1183 H   0  0  0  0  0  0  0  0  0  0  0  0  # atno 10764 bound_to 10752
  154.8541  135.3630  154.5761 H   0  0  0  0  0  0  0  0  0  0  0  0  # atno 10765 bound_to 10752
  139.9280  134.7635  156.1448 H   0  0  0  0  0  0  0  0  0  0  0  0  # atno 11005 bound_to 11000
  146.0018  139.3097  143.0923 LP  0  0  0  0  0  0  0  0  0  0  0  0  # atno 17320 bound_to 7965
  145.8784  140.9377  143.0614 LP  0  0  0  0  0  0  0  0  0  0  0  0  # atno 17321 bound_to 7965
  140.0248  143.5504  152.2785 LP  0  0  0  0  0  0  0  0  0  0  0  0  # atno 17342 bound_to 10162
  139.6276  144.7639  151.2606 LP  0  0  0  0  0  0  0  0  0  0  0  0  # atno 17343 bound_to 10162
  156.5057  130.8149  151.3149 LP  0  0  0  0  0  0  0  0  0  0  0  0  # atno 17370 bound_to 10713
  157.7442  130.9930  150.2657 LP  0  0  0  0  0  0  0  0  0  0  0  0  # atno 17371 bound_to 10713
  141.0850  133.6738  156.2417 LP  0  0  0  0  0  0  0  0  0  0  0  0  # atno 17394 bound_to 11000
  140.6282  134.5291  157.5556 LP  0  0  0  0  0  0  0  0  0  0  0  0  # atno 17395 bound_to 11000

$$$$
