AV-unprocessed.smi:284|AV-procd|sdf|2160|dock2
  -GOLD-   2262021513D 1   1.00000     0.00000
 Structure written by MMmdl.
 60 62  0  0  0  0  0  0  0  0  1 V2000
  159.6668  142.3032  164.0223 C   0  0  0  0  0  0  0  0  0  0  0  0
  158.5241  141.5170  164.6454 C   0  0  0  0  0  0  0  0  0  0  0  0
  158.1323  141.7111  165.9257 C   0  0  0  0  0  0  0  0  0  0  0  0
  157.0982  141.0141  166.5226 N   0  0  0  0  0  0  0  0  0  0  0  0
  156.7043  141.2696  167.9611 C   0  0  1  0  0  0  0  0  0  0  0  0
  157.9461  141.3198  168.8541 C   0  0  0  0  0  0  0  0  0  0  0  0
  158.1532  142.8115  169.0211 C   0  0  2  0  0  0  0  0  0  0  0  0
  158.8247  143.0962  170.2310 O   0  0  0  0  0  0  0  0  0  0  0  0
  156.7152  143.3360  169.0126 C   0  0  1  0  0  0  0  0  0  0  0  0
  156.6002  144.8140  168.6073 C   0  0  0  0  0  0  0  0  0  0  0  0
  157.1562  145.0101  167.3248 O   0  0  0  0  0  0  0  0  0  0  0  0
  156.0637  142.5091  168.0497 O   0  0  0  0  0  0  0  0  0  0  0  0
  156.4155  140.0195  165.7933 C   0  0  0  0  0  0  0  0  0  0  0  0
  155.5093  139.3636  166.3125 O   0  0  0  0  0  0  0  0  0  0  0  0
  156.8002  139.7915  164.4526 N   0  0  0  0  0  0  0  0  0  0  0  0
  156.0632  138.7701  163.6754 C   0  0  0  0  0  0  0  0  0  0  0  0
  155.0882  139.3750  162.6532 C   0  0  0  0  0  0  0  0  0  0  0  0
  154.5094  138.6490  161.8441 O   0  0  0  0  0  0  0  0  0  0  0  0
  154.9055  140.7044  162.7535 N   0  0  0  0  0  0  0  0  0  0  0  0
  154.1071  141.5619  161.9479 C   0  0  0  0  0  0  0  0  0  0  0  0
  153.9520  141.2113  160.5928 C   0  0  0  0  0  0  0  0  0  0  0  0
  153.1593  141.9949  159.7323 C   0  0  0  0  0  0  0  0  0  0  0  0
  152.4928  143.1498  160.2104 C   0  0  0  0  0  0  0  0  0  0  0  0
  151.6156  144.0329  159.3025 C   0  0  0  0  0  0  0  0  0  0  0  0
  151.1162  145.2586  160.0960 C   0  0  0  0  0  0  0  0  0  0  0  0
  150.3735  143.2917  158.7577 C   0  0  0  0  0  0  0  0  0  0  0  0
  152.4430  144.5122  158.0918 C   0  0  0  0  0  0  0  0  0  0  0  0
  152.6449  143.4882  161.5756 C   0  0  0  0  0  0  0  0  0  0  0  0
  153.4345  142.7048  162.4383 C   0  0  0  0  0  0  0  0  0  0  0  0
  157.8393  140.5184  163.8208 C   0  0  0  0  0  0  0  0  0  0  0  0
  158.1290  140.3051  162.6420 O   0  0  0  0  0  0  0  0  0  0  0  0
  160.1030  143.0126  164.7263 H   0  0  0  0  0  0  0  0  0  0  0  0
  159.3152  142.8663  163.1570 H   0  0  0  0  0  0  0  0  0  0  0  0
  160.4591  141.6294  163.6947 H   0  0  0  0  0  0  0  0  0  0  0  0
  158.6638  142.4491  166.5069 H   0  0  0  0  0  0  0  0  0  0  0  0
  155.9976  140.4869  168.2399 H   0  0  0  0  0  0  0  0  0  0  0  0
  157.6972  140.8483  169.8063 H   0  0  0  0  0  0  0  0  0  0  0  0
  158.7975  140.7984  168.4148 H   0  0  0  0  0  0  0  0  0  0  0  0
  158.7183  143.2101  168.1773 H   0  0  0  0  0  0  0  0  0  0  0  0
  159.3803  142.3630  170.4473 H   0  0  0  0  0  0  0  0  0  0  0  0
  156.2603  143.1584  169.9894 H   0  0  0  0  0  0  0  0  0  0  0  0
  155.5513  145.1074  168.5543 H   0  0  0  0  0  0  0  0  0  0  0  0
  157.0823  145.4671  169.3350 H   0  0  0  0  0  0  0  0  0  0  0  0
  157.8226  145.6777  167.3844 H   0  0  0  0  0  0  0  0  0  0  0  0
  156.7403  138.1015  163.1421 H   0  0  0  0  0  0  0  0  0  0  0  0
  155.5157  138.1058  164.3465 H   0  0  0  0  0  0  0  0  0  0  0  0
  155.3702  141.1532  163.5294 H   0  0  0  0  0  0  0  0  0  0  0  0
  154.4468  140.3342  160.2018 H   0  0  0  0  0  0  0  0  0  0  0  0
  153.0806  141.6805  158.7035 H   0  0  0  0  0  0  0  0  0  0  0  0
  150.4730  145.8923  159.4841 H   0  0  0  0  0  0  0  0  0  0  0  0
  151.9368  145.8841  160.4473 H   0  0  0  0  0  0  0  0  0  0  0  0
  150.5388  144.9544  160.9699 H   0  0  0  0  0  0  0  0  0  0  0  0
  149.7224  142.9489  159.5629 H   0  0  0  0  0  0  0  0  0  0  0  0
  150.6518  142.4268  158.1543 H   0  0  0  0  0  0  0  0  0  0  0  0
  149.7740  143.9428  158.1206 H   0  0  0  0  0  0  0  0  0  0  0  0
  151.8423  145.1241  157.4178 H   0  0  0  0  0  0  0  0  0  0  0  0
  152.8230  143.6678  157.5154 H   0  0  0  0  0  0  0  0  0  0  0  0
  153.2995  145.1158  158.3921 H   0  0  0  0  0  0  0  0  0  0  0  0
  152.1480  144.3571  161.9804 H   0  0  0  0  0  0  0  0  0  0  0  0
  153.4949  142.9966  163.4750 H   0  0  0  0  0  0  0  0  0  0  0  0
  1  2  1  0  0  0  0
  1 32  1  0  0  0  0
  1 33  1  0  0  0  0
  1 34  1  0  0  0  0
  2 30  1  0  0  0  0
  2  3  2  0  0  0  0
  3  4  1  0  0  0  0
  3 35  1  0  0  0  0
  4  5  1  0  0  0  0
  4 13  1  0  0  0  0
  5 12  1  0  0  0  0
  5  6  1  0  0  0  0
  5 36  1  0  0  0  0
  6  7  1  0  0  0  0
  6 37  1  0  0  0  0
  6 38  1  0  0  0  0
  7  8  1  0  0  0  0
  7  9  1  0  0  0  0
  7 39  1  0  0  0  0
  8 40  1  0  0  0  0
  9 10  1  0  0  0  0
  9 12  1  0  0  0  0
  9 41  1  0  0  0  0
 10 11  1  0  0  0  0
 10 42  1  0  0  0  0
 10 43  1  0  0  0  0
 11 44  1  0  0  0  0
 13 14  2  0  0  0  0
 13 15  1  0  0  0  0
 15 16  1  0  0  0  0
 15 30  1  0  0  0  0
 16 17  1  0  0  0  0
 16 45  1  0  0  0  0
 16 46  1  0  0  0  0
 17 18  2  0  0  0  0
 17 19  1  0  0  0  0
 19 20  1  0  0  0  0
 19 47  1  0  0  0  0
 20 29  1  0  0  0  0
 20 21  2  0  0  0  0
 21 22  1  0  0  0  0
 21 48  1  0  0  0  0
 22 23  2  0  0  0  0
 22 49  1  0  0  0  0
 23 24  1  0  0  0  0
 23 28  1  0  0  0  0
 24 25  1  0  0  0  0
 24 26  1  0  0  0  0
 24 27  1  0  0  0  0
 25 50  1  0  0  0  0
 25 51  1  0  0  0  0
 25 52  1  0  0  0  0
 26 53  1  0  0  0  0
 26 54  1  0  0  0  0
 26 55  1  0  0  0  0
 27 56  1  0  0  0  0
 27 57  1  0  0  0  0
 27 58  1  0  0  0  0
 28 29  2  0  0  0  0
 28 59  1  0  0  0  0
 29 60  1  0  0  0  0
 30 31  2  0  0  0  0
M  END
> <s_m_source_file>
AV-unprocessed.smi

> <i_m_source_file_index>
284

> <i_lp_mmshare_version>
43012

> <i_f3d_flags>
0

> <s_epik_input>
W09IXVtDSDJdW0NAQEhdKE8xKVtDQEhdKFtPSF0pW0NIMl1bQ0BIXTFuKFtjSF1jMltDSDNdKWMoPU8pbihjMj1PKVtDSDJdQyg9TylbTkhdYzNbY0hdW2NIXWMoQyhbQ0gzXSkoW0NIM10pW0NIM10pW2NIXVtjSF0z

> <s_epik_cmdline>
J2VwaWtfcHl0aG9uJywgJy1waCcsICc3LjAnLCAnLXRuJywgJzgnLCAnLW1hJywgJzIwMCcsICctbWV0YWxfYmluZGluZycsICctaW1hZScsICc8aW5maWxlLm1hZT4nLCAnLW9tYWUnLCAnPG91dGZpbGUubWFlPic=

> <r_lp_tautomer_probability>
1

> <r_epik_Ionization_Penalty>
4.92358e-06

> <r_epik_Ionization_Penalty_Charging>
1.29777e-07

> <r_epik_Ionization_Penalty_Neutral>
4.79381e-06

> <r_epik_State_Penalty>
-0

> <r_epik_Charging_Adjusted_Penalty>
1.29777e-07

> <i_epik_Tot_Q>
0

> <i_epik_Tot_abs_Q>
0

> <r_epik_Metal_State_Penalty>
-0

> <b_epik_Metal_Only>
0

> <s_epik_Chemistry_Notes>
This compound contains an acetal/aminal-like group ( X-CH(R)-Y where X, Y are N, S, or O) that may be acid/base labile, releasing an aldehyde.

> <s_lp_Force_Field>
OPLS_2005

> <r_lp_Energy>
39.3511

> <b_lp_Chiralities_Consistent>
1

> <s_lp_Variant>
AV-unprocessed.smi:284-4

> <Gold.Version>
5.8.1

> <Gold.Id.Protein>
6NUR|6NUR_protein|mol2

> <Gold.PLP.Fitness>
54.1504

> <Gold.PLP.PLP>
-55.6021

> <Gold.PLP.part.hbond>
-2.9045

> <Gold.PLP.part.metal>
0.0000

> <Gold.PLP.part.buried>
-6.0699

> <Gold.PLP.part.nonpolar>
-46.1479

> <Gold.PLP.part.repulsive>
0.2492

> <Gold.PLP.ligand.clash>
0.0000

> <Gold.PLP.ligand.torsion>
0.7712

> <Gold.PLP.Chemscore.Hbond>
0.0000

> <Gold.PLP.Chemscore.CHOScore>
0.0000

> <Gold.PLP.Chemscore.Metal>
0.0000

> <Gold.PLP.Chemscore.Internal.Correction>
0.0908

> <Gold.Rescore>
     Score         DG    S(hbond)    S(metal)    S(lipo)     H(rot)  DE(clash)    DE(int)     intcor
      9.76     -13.64       0.00        0.00     141.33       3.27       1.81       2.06       ----

> <Gold.Chemscore.Fitness>
9.7644

> <Gold.Chemscore.DG>
-13.6351

> <Gold.Chemscore.ZeroCoef>
-5.4800

> <Gold.Chemscore.Hbond>
0.0000

> <Gold.Chemscore.Metal>
0.0000

> <Gold.Chemscore.Lipo>
141.3263

> <Gold.Chemscore.Internal_Hbond>
0.0000

> <Gold.Chemscore.DEClash>
1.8138

> <Gold.Chemscore.DEInternal>
2.0569

> <Gold.Chemscore.Rot>
3.2735

> <Gold.Chemscore.Internal.Correction>
   9.000000E+99

> <Gold.Chemscore.Hbond.Weighted>
-0.0000

> <Gold.Chemscore.Metal.Weighted>
-0.0000

> <Gold.Chemscore.Lipo.Weighted>
-16.5352

> <Gold.Chemscore.Internal_Hbond.Weighted>
0.0000

> <Gold.Chemscore.DEClash.Weighted>
1.8138

> <Gold.Chemscore.DEInternal.Weighted>
2.0569

> <Gold.Chemscore.Rot.Weighted>
8.3801

> <Gold.Chemscore.Internal.Correction.Weighted>
   9.000000E+99

> <Gold.Protein.RotatedTorsions>
[ 6907 6896 6895 6894 ] final   94.71 input  -60.11 | X-H torsion
[ 7974 7965 7964 7962 ] final -159.04 input  175.53 | X-H torsion
[ 8008 7997 7996 7995 ] final   77.29 input   59.86 | X-H torsion
[ 10167 10162 10161 10158 ] final  169.40 input  -65.29 | X-H torsion
[ 10718 10713 10712 10709 ] final  -20.73 input   66.30 | X-H torsion
[ 10763 10752 10751 10750 ] final -135.74 input  -60.55 | X-H torsion
[ 11005 11000 10999 10996 ] final -140.17 input  -57.11 | X-H torsion

> <Gold.Protein.ActiveResidues>
 VAL166  LYS551  ARG553  GLY616  TRP617  ASP618  TYR619  PRO620  LYS621  CYS622 
 ASP623  PHE694  ASN695  SER759  ASP760  ASP761  ALA762  ILE779  LEU786  VAL792 
 PHE793  MET794  SER795  GLU796  ALA797  LYS798  CYS799  TRP800  GLU811  SER814 

> <Gold.Protein.RotatedAtoms>
  152.5448  134.1151  159.8374 H   0  0  0  0  0  0  0  0  0  0  0  0  # atno 6907 bound_to 6896
  151.1213  133.5095  159.2609 H   0  0  0  0  0  0  0  0  0  0  0  0  # atno 6908 bound_to 6896
  151.1776  135.0356  159.8833 H   0  0  0  0  0  0  0  0  0  0  0  0  # atno 6909 bound_to 6896
  144.7481  140.3741  143.6069 H   0  0  0  0  0  0  0  0  0  0  0  0  # atno 7974 bound_to 7965
  155.8395  140.3463  155.5623 H   0  0  0  0  0  0  0  0  0  0  0  0  # atno 8008 bound_to 7997
  155.8156  140.0905  157.1898 H   0  0  0  0  0  0  0  0  0  0  0  0  # atno 8009 bound_to 7997
  154.4005  140.1439  156.3426 H   0  0  0  0  0  0  0  0  0  0  0  0  # atno 8010 bound_to 7997
  139.4991  144.3710  151.9725 H   0  0  0  0  0  0  0  0  0  0  0  0  # atno 10167 bound_to 10162
  156.5279  130.4648  149.6562 H   0  0  0  0  0  0  0  0  0  0  0  0  # atno 10718 bound_to 10713
  154.8697  135.3694  154.4948 H   0  0  0  0  0  0  0  0  0  0  0  0  # atno 10763 bound_to 10752
  153.5593  135.7023  153.5560 H   0  0  0  0  0  0  0  0  0  0  0  0  # atno 10764 bound_to 10752
  153.3643  135.4038  155.1705 H   0  0  0  0  0  0  0  0  0  0  0  0  # atno 10765 bound_to 10752
  140.8448  134.2358  157.4791 H   0  0  0  0  0  0  0  0  0  0  0  0  # atno 11005 bound_to 11000
  145.7046  139.1669  143.2573 LP  0  0  0  0  0  0  0  0  0  0  0  0  # atno 17320 bound_to 7965
  146.1391  140.7083  142.9376 LP  0  0  0  0  0  0  0  0  0  0  0  0  # atno 17321 bound_to 7965
  140.3146  144.3499  150.6025 LP  0  0  0  0  0  0  0  0  0  0  0  0  # atno 17342 bound_to 10162
  140.5772  143.2175  151.7494 LP  0  0  0  0  0  0  0  0  0  0  0  0  # atno 17343 bound_to 10162
  156.3088  130.7217  151.2105 LP  0  0  0  0  0  0  0  0  0  0  0  0  # atno 17370 bound_to 10713
  157.7426  131.0487  150.5008 LP  0  0  0  0  0  0  0  0  0  0  0  0  # atno 17371 bound_to 10713
  139.8703  134.9654  156.4526 LP  0  0  0  0  0  0  0  0  0  0  0  0  # atno 17394 bound_to 11000
  140.8855  133.7886  155.9514 LP  0  0  0  0  0  0  0  0  0  0  0  0  # atno 17395 bound_to 11000

$$$$
