AV-unprocessed.smi:3044|AV-procd|sdf|11605|dock9
  -GOLD-   2272016583D 1   1.00000     0.00000
 Structure written by MMmdl.
 41 42  0  0  0  0  0  0  0  0  1 V2000
  151.0631  144.5037  160.1240 C   0  0  0  0  0  0  0  0  0  0  0  0
  152.0130  143.4105  160.5839 C   0  0  0  0  0  0  0  0  0  0  0  0
  152.5217  143.5681  161.8264 N   0  0  0  0  0  0  0  0  0  0  0  0
  153.3697  142.6277  162.2927 C   0  0  0  0  0  0  0  0  0  0  0  0
  153.7426  141.4900  161.5526 C   0  0  0  0  0  0  0  0  0  0  0  0
  153.2128  141.3275  160.2588 C   0  0  0  0  0  0  0  0  0  0  0  0
  152.3346  142.3133  159.7473 C   0  0  0  0  0  0  0  0  0  0  0  0
  151.7322  142.2322  158.4620 N   0  0  0  0  0  0  0  0  0  0  0  0
  151.8855  141.2906  157.5120 C   0  0  0  0  0  0  0  0  0  0  0  0
  152.5810  140.2830  157.6315 O   0  0  0  0  0  0  0  0  0  0  0  0
  151.1300  141.5254  156.2021 C   0  0  0  0  0  0  0  0  0  0  0  0
  150.3229  140.3903  155.9140 O   0  0  0  0  0  0  0  0  0  0  0  0
  149.9145  140.2686  154.5581 C   0  0  2  0  0  0  0  0  0  0  0  0
  148.8614  141.3361  154.1965 C   0  0  0  0  0  0  0  0  0  0  0  0
  147.5606  141.1416  154.9922 C   0  0  0  0  0  0  0  0  0  0  0  0
  146.9963  139.7247  154.8025 C   0  0  0  0  0  0  0  0  0  0  0  0
  148.0326  138.6479  155.1762 C   0  0  1  0  0  0  0  0  0  0  0  0
  147.4701  137.2333  154.9778 C   0  0  0  0  0  0  0  0  0  0  0  0
  149.3366  138.8529  154.3772 C   0  0  0  0  0  0  0  0  0  0  0  0
  151.4397  144.9781  159.2172 H   0  0  0  0  0  0  0  0  0  0  0  0
  150.9438  145.2776  160.8834 H   0  0  0  0  0  0  0  0  0  0  0  0
  150.0786  144.0865  159.9106 H   0  0  0  0  0  0  0  0  0  0  0  0
  153.7573  142.7830  163.2885 H   0  0  0  0  0  0  0  0  0  0  0  0
  154.4156  140.7562  161.9704 H   0  0  0  0  0  0  0  0  0  0  0  0
  153.4766  140.4478  159.6928 H   0  0  0  0  0  0  0  0  0  0  0  0
  151.1896  143.0385  158.1871 H   0  0  0  0  0  0  0  0  0  0  0  0
  150.5215  142.4248  156.2981 H   0  0  0  0  0  0  0  0  0  0  0  0
  151.8520  141.6916  155.4015 H   0  0  0  0  0  0  0  0  0  0  0  0
  150.7833  140.3698  153.9053 H   0  0  0  0  0  0  0  0  0  0  0  0
  149.2506  142.3409  154.3577 H   0  0  0  0  0  0  0  0  0  0  0  0
  148.6398  141.2700  153.1305 H   0  0  0  0  0  0  0  0  0  0  0  0
  147.7477  141.3228  156.0515 H   0  0  0  0  0  0  0  0  0  0  0  0
  146.8215  141.8795  154.6792 H   0  0  0  0  0  0  0  0  0  0  0  0
  146.0984  139.6054  155.4098 H   0  0  0  0  0  0  0  0  0  0  0  0
  146.6863  139.5938  153.7648 H   0  0  0  0  0  0  0  0  0  0  0  0
  148.2634  138.7585  156.2369 H   0  0  0  0  0  0  0  0  0  0  0  0
  147.2178  137.0498  153.9331 H   0  0  0  0  0  0  0  0  0  0  0  0
  146.5671  137.0833  155.5703 H   0  0  0  0  0  0  0  0  0  0  0  0
  148.1937  136.4772  155.2835 H   0  0  0  0  0  0  0  0  0  0  0  0
  149.1444  138.6781  153.3178 H   0  0  0  0  0  0  0  0  0  0  0  0
  150.0799  138.1136  154.6782 H   0  0  0  0  0  0  0  0  0  0  0  0
  1  2  1  0  0  0  0
  1 20  1  0  0  0  0
  1 21  1  0  0  0  0
  1 22  1  0  0  0  0
  2  7  1  0  0  0  0
  2  3  2  0  0  0  0
  3  4  1  0  0  0  0
  4  5  2  0  0  0  0
  4 23  1  0  0  0  0
  5  6  1  0  0  0  0
  5 24  1  0  0  0  0
  6  7  2  0  0  0  0
  6 25  1  0  0  0  0
  7  8  1  0  0  0  0
  8  9  1  0  0  0  0
  8 26  1  0  0  0  0
  9 10  2  0  0  0  0
  9 11  1  0  0  0  0
 11 12  1  0  0  0  0
 11 27  1  0  0  0  0
 11 28  1  0  0  0  0
 12 13  1  0  0  0  0
 13 19  1  0  0  0  0
 13 14  1  0  0  0  0
 13 29  1  0  0  0  0
 14 15  1  0  0  0  0
 14 30  1  0  0  0  0
 14 31  1  0  0  0  0
 15 16  1  0  0  0  0
 15 32  1  0  0  0  0
 15 33  1  0  0  0  0
 16 17  1  0  0  0  0
 16 34  1  0  0  0  0
 16 35  1  0  0  0  0
 17 18  1  0  0  0  0
 17 19  1  0  0  0  0
 17 36  1  0  0  0  0
 18 37  1  0  0  0  0
 18 38  1  0  0  0  0
 18 39  1  0  0  0  0
 19 40  1  0  0  0  0
 19 41  1  0  0  0  0
M  END
> <s_m_source_file>
AV-unprocessed.smi

> <i_m_source_file_index>
3044

> <i_lp_mmshare_version>
43012

> <i_f3d_flags>
0

> <s_epik_input>
W0NIM11jMW5bY0hdW2NIXVtjSF1jMVtOSF1DKD1PKVtDSDJdT1tDQEBIXTJbQ0gyXVtDSDJdW0NIMl1bQ0BASF0oW0NIM10pW0NIMl0y

> <s_epik_cmdline>
J2VwaWtfcHl0aG9uJywgJy1waCcsICc3LjAnLCAnLXRuJywgJzgnLCAnLW1hJywgJzIwMCcsICctbWV0YWxfYmluZGluZycsICctaW1hZScsICc8aW5maWxlLm1hZT4nLCAnLW9tYWUnLCAnPG91dGZpbGUubWFlPic=

> <r_epik_Ionization_Penalty>
0.0077122

> <r_epik_Ionization_Penalty_Charging>
0

> <r_epik_Ionization_Penalty_Neutral>
0.0077122

> <r_epik_State_Penalty>
0.00577497

> <r_epik_Charging_Adjusted_Penalty>
0.00577497

> <i_epik_Tot_Q>
0

> <i_epik_Tot_abs_Q>
0

> <r_epik_Metal_State_Penalty>
-0

> <b_epik_Metal_Only>
0

> <s_lp_Force_Field>
OPLS_2005

> <r_lp_Energy>
17.2241

> <b_lp_Chiralities_Consistent>
1

> <s_lp_Variant>
AV-unprocessed.smi:3044-1

> <Gold.Version>
5.8.1

> <Gold.Id.Protein>
6NUR|6NUR_protein|mol2

> <Gold.PLP.Fitness>
39.2723

> <Gold.PLP.PLP>
-36.9758

> <Gold.PLP.part.hbond>
-1.0000

> <Gold.PLP.part.metal>
0.0000

> <Gold.PLP.part.buried>
-3.2005

> <Gold.PLP.part.nonpolar>
-31.1074

> <Gold.PLP.part.repulsive>
0.2395

> <Gold.PLP.ligand.clash>
0.0000

> <Gold.PLP.ligand.torsion>
0.1880

> <Gold.PLP.Chemscore.Hbond>
0.8882

> <Gold.PLP.Chemscore.CHOScore>
0.0000

> <Gold.PLP.Chemscore.Metal>
0.0000

> <Gold.Chemscore.Hbonds>
donor molecule, donor type, donor heavy atom, donor atom, acceptor molecule, acceptor atom, score
      P1  H  7997  8009       L1    10  0.95

> <Gold.PLP.Chemscore.Internal.Correction>
0.0081

> <Gold.Rescore>
     Score         DG    S(hbond)    S(metal)    S(lipo)     H(rot)  DE(clash)    DE(int)     intcor
     15.35     -16.88       0.83        0.00     102.40       1.31       0.10       1.42       ----

> <Gold.Chemscore.Fitness>
15.3518

> <Gold.Chemscore.DG>
-16.8798

> <Gold.Chemscore.ZeroCoef>
-5.4800

> <Gold.Chemscore.Hbond>
0.8273

> <Gold.Chemscore.Metal>
0.0000

> <Gold.Chemscore.Lipo>
102.4009

> <Gold.Chemscore.Internal_Hbond>
0.0000

> <Gold.Chemscore.DEClash>
0.1042

> <Gold.Chemscore.DEInternal>
1.4238

> <Gold.Chemscore.Rot>
1.3064

> <Gold.Chemscore.Internal.Correction>
   9.000000E+99

> <Gold.Chemscore.Hbonds>
donor molecule, donor type, donor heavy atom, donor atom, acceptor molecule, acceptor atom, score
      P1  H  7997  8009       L1    10  0.86

> <Gold.Chemscore.Hbond.Weighted>
-2.7632

> <Gold.Chemscore.Metal.Weighted>
-0.0000

> <Gold.Chemscore.Lipo.Weighted>
-11.9809

> <Gold.Chemscore.Internal_Hbond.Weighted>
0.0000

> <Gold.Chemscore.DEClash.Weighted>
0.1042

> <Gold.Chemscore.DEInternal.Weighted>
1.4238

> <Gold.Chemscore.Rot.Weighted>
3.3443

> <Gold.Chemscore.Internal.Correction.Weighted>
   9.000000E+99

> <Gold.Protein.RotatedTorsions>
[ 6907 6896 6895 6894 ] final -124.81 input  -60.11 | X-H torsion
[ 7974 7965 7964 7962 ] final  103.46 input  175.53 | X-H torsion
[ 8008 7997 7996 7995 ] final  172.16 input   59.86 | X-H torsion
[ 10167 10162 10161 10158 ] final   75.80 input  -65.29 | X-H torsion
[ 10718 10713 10712 10709 ] final  -54.52 input   66.30 | X-H torsion
[ 10763 10752 10751 10750 ] final -144.65 input  -60.55 | X-H torsion
[ 11005 11000 10999 10996 ] final  -63.79 input  -57.11 | X-H torsion

> <Gold.Protein.ActiveResidues>
 VAL166  LYS551  ARG553  GLY616  TRP617  ASP618  TYR619  PRO620  LYS621  CYS622 
 ASP623  PHE694  ASN695  SER759  ASP760  ASP761  ALA762  ILE779  LEU786  VAL792 
 PHE793  MET794  SER795  GLU796  ALA797  LYS798  CYS799  TRP800  GLU811  SER814 

> <Gold.Protein.RotatedAtoms>
  150.8805  133.7378  159.2933 H   0  0  0  0  0  0  0  0  0  0  0  0  # atno 6907 bound_to 6896
  151.4961  135.1058  159.9826 H   0  0  0  0  0  0  0  0  0  0  0  0  # atno 6908 bound_to 6896
  152.4756  133.8086  159.7047 H   0  0  0  0  0  0  0  0  0  0  0  0  # atno 6909 bound_to 6896
  145.3456  139.2451  143.3586 H   0  0  0  0  0  0  0  0  0  0  0  0  # atno 7974 bound_to 7965
  156.1201  140.1493  156.9217 H   0  0  0  0  0  0  0  0  0  0  0  0  # atno 8008 bound_to 7997
  154.4829  140.0874  156.7462 H   0  0  0  0  0  0  0  0  0  0  0  0  # atno 8009 bound_to 7997
  155.4444  140.3432  155.4296 H   0  0  0  0  0  0  0  0  0  0  0  0  # atno 8010 bound_to 7997
  139.9991  144.5700  150.7753 H   0  0  0  0  0  0  0  0  0  0  0  0  # atno 10167 bound_to 10162
  156.1444  130.4153  150.0049 H   0  0  0  0  0  0  0  0  0  0  0  0  # atno 10718 bound_to 10713
  154.8418  135.3434  154.6380 H   0  0  0  0  0  0  0  0  0  0  0  0  # atno 10763 bound_to 10752
  153.6990  135.6970  153.5073 H   0  0  0  0  0  0  0  0  0  0  0  0  # atno 10764 bound_to 10752
  153.2537  135.4345  155.0778 H   0  0  0  0  0  0  0  0  0  0  0  0  # atno 10765 bound_to 10752
  141.1404  133.6656  156.5734 H   0  0  0  0  0  0  0  0  0  0  0  0  # atno 11005 bound_to 11000
  146.2989  140.4061  142.8711 LP  0  0  0  0  0  0  0  0  0  0  0  0  # atno 17320 bound_to 7965
  144.8757  140.7333  143.6018 LP  0  0  0  0  0  0  0  0  0  0  0  0  # atno 17321 bound_to 7965
  140.7426  143.2834  151.3533 LP  0  0  0  0  0  0  0  0  0  0  0  0  # atno 17342 bound_to 10162
  139.6285  144.0767  152.2455 LP  0  0  0  0  0  0  0  0  0  0  0  0  # atno 17343 bound_to 10162
  156.7925  130.9261  151.3646 LP  0  0  0  0  0  0  0  0  0  0  0  0  # atno 17370 bound_to 10713
  157.6603  130.8960  149.9816 LP  0  0  0  0  0  0  0  0  0  0  0  0  # atno 17371 bound_to 10713
  140.3895  134.7453  157.4712 LP  0  0  0  0  0  0  0  0  0  0  0  0  # atno 17394 bound_to 11000
  140.0577  134.6040  155.8786 LP  0  0  0  0  0  0  0  0  0  0  0  0  # atno 17395 bound_to 11000

$$$$
