AV-unprocessed.smi:1758|AV-procd|sdf|7081|dock4
  -GOLD-   22720 8303D 1   1.00000     0.00000
 Structure written by MMmdl.
 44 46  0  0  0  0  0  0  0  0  2 V2000
  150.9516  140.7242  158.1038 C   0  0  0  0  0  0  0  0  0  0  0  0
  152.0500  140.6964  157.0347 C   0  0  0  0  0  0  0  0  0  0  0  0
  151.8170  139.6562  156.0521 N   0  0  0  0  0  0  0  0  0  0  0  0
  150.7649  138.7643  155.9867 C   0  0  0  0  0  0  0  0  0  0  0  0
  151.0028  137.9932  154.8841 C   0  0  0  0  0  0  0  0  0  0  0  0
  150.2432  136.9187  154.3561 N   0  0  0  0  0  0  0  0  0  0  0  0
  149.7253  135.8781  155.0291 C   0  0  0  0  0  0  0  0  0  0  0  0
  149.8059  135.7124  156.2460 O   0  0  0  0  0  0  0  0  0  0  0  0
  149.0962  135.0306  154.2028 N   0  0  0  0  0  0  0  0  0  0  0  0
  148.4209  133.7993  154.6037 C   0  0  2  0  0  0  0  0  0  0  0  0
  149.3683  132.7620  155.2325 C   0  0  0  0  0  0  0  0  0  0  0  0
  148.8819  131.3957  154.7078 C   0  0  0  0  0  0  0  0  0  0  0  0
  147.6697  131.6892  153.9189 N   0  3  2  0  0  0  0  0  0  0  0  0
  147.2955  130.7190  152.8670 C   0  0  0  0  0  0  0  0  0  0  0  0
  145.9695  131.1614  152.2149 C   0  0  0  0  0  0  0  0  0  0  0  0
  146.0300  132.6216  151.7201 C   0  0  0  0  0  0  0  0  0  0  0  0
  146.5141  133.5682  152.8358 C   0  0  0  0  0  0  0  0  0  0  0  0
  147.8477  133.0534  153.4000 C   0  0  1  0  0  0  0  0  0  0  0  0
  152.2166  138.4754  154.3290 C   0  0  0  0  0  0  0  0  0  0  0  0
  152.7026  139.4811  155.0402 N   0  0  0  0  0  0  0  0  0  0  0  0
  151.1509  141.4998  158.8434 H   0  0  0  0  0  0  0  0  0  0  0  0
  150.8899  139.7707  158.6290 H   0  0  0  0  0  0  0  0  0  0  0  0
  149.9756  140.9289  157.6623 H   0  0  0  0  0  0  0  0  0  0  0  0
  152.1073  141.6580  156.5227 H   0  0  0  0  0  0  0  0  0  0  0  0
  153.0224  140.5263  157.4986 H   0  0  0  0  0  0  0  0  0  0  0  0
  149.9674  138.7638  156.7151 H   0  0  0  0  0  0  0  0  0  0  0  0
  150.0880  136.9408  153.3589 H   0  0  0  0  0  0  0  0  0  0  0  0
  149.0854  135.2547  153.2184 H   0  0  0  0  0  0  0  0  0  0  0  0
  147.6116  133.9977  155.3095 H   0  0  0  0  0  0  0  0  0  0  0  0
  150.4023  132.9279  154.9265 H   0  0  0  0  0  0  0  0  0  0  0  0
  149.3376  132.8138  156.3214 H   0  0  0  0  0  0  0  0  0  0  0  0
  149.6456  130.9471  154.0706 H   0  0  0  0  0  0  0  0  0  0  0  0
  148.6583  130.6956  155.5132 H   0  0  0  0  0  0  0  0  0  0  0  0
  148.0874  130.6564  152.1190 H   0  0  0  0  0  0  0  0  0  0  0  0
  147.1862  129.7267  153.3063 H   0  0  0  0  0  0  0  0  0  0  0  0
  145.7203  130.4965  151.3870 H   0  0  0  0  0  0  0  0  0  0  0  0
  145.1614  131.0627  152.9410 H   0  0  0  0  0  0  0  0  0  0  0  0
  146.7085  132.6875  150.8687 H   0  0  0  0  0  0  0  0  0  0  0  0
  145.0504  132.9364  151.3594 H   0  0  0  0  0  0  0  0  0  0  0  0
  146.6323  134.5797  152.4462 H   0  0  0  0  0  0  0  0  0  0  0  0
  145.7658  133.6220  153.6278 H   0  0  0  0  0  0  0  0  0  0  0  0
  148.5953  133.0275  152.6033 H   0  0  0  0  0  0  0  0  0  0  0  0
  152.7508  138.1371  153.4534 H   0  0  0  0  0  0  0  0  0  0  0  0
  146.9034  131.7323  154.5755 H   0  0  0  0  0  0  0  0  0  0  0  0
  1  2  1  0  0  0  0
  1 21  1  0  0  0  0
  1 22  1  0  0  0  0
  1 23  1  0  0  0  0
  2  3  1  0  0  0  0
  2 24  1  0  0  0  0
  2 25  1  0  0  0  0
  3 20  1  0  0  0  0
  3  4  1  0  0  0  0
  4  5  2  0  0  0  0
  4 26  1  0  0  0  0
  5  6  1  0  0  0  0
  5 19  1  0  0  0  0
  6  7  1  0  0  0  0
  6 27  1  0  0  0  0
  7  8  2  0  0  0  0
  7  9  1  0  0  0  0
  9 10  1  0  0  0  0
  9 28  1  0  0  0  0
 10 18  1  0  0  0  0
 10 11  1  0  0  0  0
 10 29  1  0  0  0  0
 11 12  1  0  0  0  0
 11 30  1  0  0  0  0
 11 31  1  0  0  0  0
 12 13  1  0  0  0  0
 12 32  1  0  0  0  0
 12 33  1  0  0  0  0
 13 18  1  0  0  0  0
 13 14  1  0  0  0  0
 13 44  1  0  0  0  0
 14 15  1  0  0  0  0
 14 34  1  0  0  0  0
 14 35  1  0  0  0  0
 15 16  1  0  0  0  0
 15 36  1  0  0  0  0
 15 37  1  0  0  0  0
 16 17  1  0  0  0  0
 16 38  1  0  0  0  0
 16 39  1  0  0  0  0
 17 18  1  0  0  0  0
 17 40  1  0  0  0  0
 17 41  1  0  0  0  0
 18 42  1  0  0  0  0
 19 20  2  0  0  0  0
 19 43  1  0  0  0  0
M  CHG  1  13   1
M  END
> <s_m_source_file>
AV-unprocessed.smi

> <i_m_source_file_index>
1758

> <i_lp_mmshare_version>
43012

> <i_f3d_flags>
0

> <s_epik_input>
W0NIM11bQ0gyXW4xW2NIXWMoW2NIXW4xKVtOSF1DKD1PKVtOSF1bQ0BIXShbQ0gyXVtDSDJdMilbQ0BASF0oTjIzKVtDSDJdW0NIMl1bQ0gyXVtDSDJdMw==

> <s_epik_cmdline>
J2VwaWtfcHl0aG9uJywgJy1waCcsICc3LjAnLCAnLXRuJywgJzgnLCAnLW1hJywgJzIwMCcsICctbWV0YWxfYmluZGluZycsICctaW1hZScsICc8aW5maWxlLm1hZT4nLCAnLW9tYWUnLCAnPG91dGZpbGUubWFlPic=

> <r_lp_tautomer_probability>
1

> <r_epik_Ionization_Penalty>
0.00111541

> <r_epik_Ionization_Penalty_Charging>
0.000974069

> <r_epik_Ionization_Penalty_Neutral>
0.000141346

> <r_epik_State_Penalty>
0.000633842

> <r_epik_Charging_Adjusted_Penalty>
0.00160791

> <i_epik_Tot_Q>
1

> <i_epik_Tot_abs_Q>
1

> <r_epik_Metal_State_Penalty>
-0

> <b_epik_Metal_Only>
0

> <s_lp_Force_Field>
OPLS_2005

> <r_lp_Energy>
39.1276

> <b_lp_Chiralities_Consistent>
1

> <s_lp_Variant>
AV-unprocessed.smi:1758-3

> <Gold.Version>
5.8.1

> <Gold.Id.Protein>
6NUR|6NUR_protein|mol2

> <Gold.PLP.Fitness>
38.4671

> <Gold.PLP.PLP>
-31.0052

> <Gold.PLP.part.hbond>
-4.0049

> <Gold.PLP.part.metal>
0.0000

> <Gold.PLP.part.buried>
-3.1569

> <Gold.PLP.part.nonpolar>
-23.7569

> <Gold.PLP.part.repulsive>
0.0928

> <Gold.PLP.ligand.clash>
0.0000

> <Gold.PLP.ligand.torsion>
0.4074

> <Gold.PLP.Chemscore.Hbond>
2.7552

> <Gold.PLP.Chemscore.CHOScore>
0.0000

> <Gold.PLP.Chemscore.Metal>
0.0000

> <Gold.Chemscore.Hbonds>
donor molecule, donor type, donor heavy atom, donor atom, acceptor molecule, acceptor atom, score
      L1  H     6    27       P1  7948  0.74
      L1  H     9    28       P1  7948  1.00
      P1  H  7989  7998       L1    20  0.05
      P1  H  7997  8010       L1    20  0.89

> <Gold.PLP.Chemscore.Internal.Correction>
0.0110

> <Gold.Rescore>
     Score         DG    S(hbond)    S(metal)    S(lipo)     H(rot)  DE(clash)    DE(int)     intcor
     17.10     -17.75       2.21        0.00      67.78       1.19       0.01       0.65       ----

> <Gold.Chemscore.Fitness>
17.0957

> <Gold.Chemscore.DG>
-17.7545

> <Gold.Chemscore.ZeroCoef>
-5.4800

> <Gold.Chemscore.Hbond>
2.2117

> <Gold.Chemscore.Metal>
0.0000

> <Gold.Chemscore.Lipo>
67.7757

> <Gold.Chemscore.Internal_Hbond>
0.0000

> <Gold.Chemscore.DEClash>
0.0108

> <Gold.Chemscore.DEInternal>
0.6479

> <Gold.Chemscore.Rot>
1.1884

> <Gold.Chemscore.Internal.Correction>
   9.000000E+99

> <Gold.Chemscore.Hbonds>
donor molecule, donor type, donor heavy atom, donor atom, acceptor molecule, acceptor atom, score
      L1  H     6    27       P1  7948  0.10
      L1  H     9    28       P1  7948  0.30
      P1  H  7997  8010       L1    20  0.30

> <Gold.Chemscore.Hbond.Weighted>
-7.3870

> <Gold.Chemscore.Metal.Weighted>
-0.0000

> <Gold.Chemscore.Lipo.Weighted>
-7.9298

> <Gold.Chemscore.Internal_Hbond.Weighted>
0.0000

> <Gold.Chemscore.DEClash.Weighted>
0.0108

> <Gold.Chemscore.DEInternal.Weighted>
0.6479

> <Gold.Chemscore.Rot.Weighted>
3.0423

> <Gold.Chemscore.Internal.Correction.Weighted>
   9.000000E+99

> <Gold.Protein.RotatedTorsions>
[ 6907 6896 6895 6894 ] final  -17.28 input  -60.11 | X-H torsion
[ 7974 7965 7964 7962 ] final -125.36 input  175.53 | X-H torsion
[ 8008 7997 7996 7995 ] final  104.99 input   59.86 | X-H torsion
[ 10167 10162 10161 10158 ] final  -58.75 input  -65.29 | X-H torsion
[ 10718 10713 10712 10709 ] final -110.61 input   66.30 | X-H torsion
[ 10763 10752 10751 10750 ] final  138.36 input  -60.55 | X-H torsion
[ 11005 11000 10999 10996 ] final   49.74 input  -57.11 | X-H torsion

> <Gold.Protein.ActiveResidues>
 VAL166  LYS551  ARG553  GLY616  TRP617  ASP618  TYR619  PRO620  LYS621  CYS622 
 ASP623  PHE694  ASN695  SER759  ASP760  ASP761  ALA762  ILE779  LEU786  VAL792 
 PHE793  MET794  SER795  GLU796  ALA797  LYS798  CYS799  TRP800  GLU811  SER814 

> <Gold.Protein.RotatedAtoms>
  151.2957  135.0754  159.9220 H   0  0  0  0  0  0  0  0  0  0  0  0  # atno 6907 bound_to 6896
  152.5307  133.9885  159.7850 H   0  0  0  0  0  0  0  0  0  0  0  0  # atno 6908 bound_to 6896
  151.0163  133.5867  159.2707 H   0  0  0  0  0  0  0  0  0  0  0  0  # atno 6909 bound_to 6896
  144.9984  140.7797  143.4511 H   0  0  0  0  0  0  0  0  0  0  0  0  # atno 7974 bound_to 7965
  156.1620  140.3138  155.8824 H   0  0  0  0  0  0  0  0  0  0  0  0  # atno 8008 bound_to 7997
  155.3762  140.0485  157.3061 H   0  0  0  0  0  0  0  0  0  0  0  0  # atno 8009 bound_to 7997
  154.5156  140.2180  155.9083 H   0  0  0  0  0  0  0  0  0  0  0  0  # atno 8010 bound_to 7997
  140.6178  143.2408  151.5554 H   0  0  0  0  0  0  0  0  0  0  0  0  # atno 10167 bound_to 10162
  156.0600  130.5824  150.8261 H   0  0  0  0  0  0  0  0  0  0  0  0  # atno 10718 bound_to 10713
  153.8883  135.3036  155.3447 H   0  0  0  0  0  0  0  0  0  0  0  0  # atno 10763 bound_to 10752
  154.7728  135.4877  153.9687 H   0  0  0  0  0  0  0  0  0  0  0  0  # atno 10764 bound_to 10752
  153.1312  135.6804  153.9274 H   0  0  0  0  0  0  0  0  0  0  0  0  # atno 10765 bound_to 10752
  140.1077  134.4996  155.8705 H   0  0  0  0  0  0  0  0  0  0  0  0  # atno 11005 bound_to 11000
  145.2188  139.2169  143.5104 LP  0  0  0  0  0  0  0  0  0  0  0  0  # atno 17320 bound_to 7965
  146.3447  140.2041  142.8589 LP  0  0  0  0  0  0  0  0  0  0  0  0  # atno 17321 bound_to 7965
  139.5413  144.2640  152.1356 LP  0  0  0  0  0  0  0  0  0  0  0  0  # atno 17342 bound_to 10162
  140.1853  144.4804  150.6507 LP  0  0  0  0  0  0  0  0  0  0  0  0  # atno 17343 bound_to 10162
  157.5602  131.0945  150.9570 LP  0  0  0  0  0  0  0  0  0  0  0  0  # atno 17370 bound_to 10713
  156.9810  130.5527  149.5296 LP  0  0  0  0  0  0  0  0  0  0  0  0  # atno 17371 bound_to 10713
  141.2122  133.6717  156.6644 LP  0  0  0  0  0  0  0  0  0  0  0  0  # atno 17394 bound_to 11000
  140.3133  134.8068  157.4194 LP  0  0  0  0  0  0  0  0  0  0  0  0  # atno 17395 bound_to 11000

$$$$
