AV-unprocessed.smi:901|AV-procd|sdf|4090|dock3
  -GOLD-   22720 1583D 1   1.00000     0.00000
 Structure written by MMmdl.
 43 44  0  0  0  0  0  0  0  0  1 V2000
  151.7568  145.9149  160.1511 C   0  0  0  0  0  0  0  0  0  0  0  0
  152.1536  144.6406  159.4323 C   0  0  0  0  0  0  0  0  0  0  0  0
  151.7485  144.5890  157.9694 C   0  0  0  0  0  0  0  0  0  0  0  0
  152.8107  143.6493  160.0649 C   0  0  0  0  0  0  0  0  0  0  0  0
  153.2432  142.3486  159.4875 C   0  0  2  0  0  0  0  0  0  0  0  0
  152.4597  141.0701  159.7309 C   0  0  1  0  0  0  0  0  0  0  0  0
  152.3073  140.0980  158.6013 C   0  0  0  0  0  0  0  0  0  0  0  0
  152.7421  138.9472  158.6478 O   0  0  0  0  0  0  0  0  0  0  0  0
  151.6657  140.6230  157.5420 N   0  0  0  0  0  0  0  0  0  0  0  0
  151.3444  140.0079  156.3041 C   0  0  0  0  0  0  0  0  0  0  0  0
  150.4511  140.5197  155.3154 C   0  0  0  0  0  0  0  0  0  0  0  0
  150.4897  139.5686  154.3364 C   0  0  0  0  0  0  0  0  0  0  0  0
  151.3575  138.5784  154.7516 N   0  0  0  0  0  0  0  0  0  0  0  0
  151.7344  137.3609  154.0559 C   0  0  0  0  0  0  0  0  0  0  0  0
  151.3798  136.1218  154.8798 C   0  0  0  0  0  0  0  0  0  0  0  0
  150.3937  135.3460  154.4216 N   0  0  0  0  0  0  0  0  0  0  0  0
  151.9881  135.8673  155.9168 O   0  0  0  0  0  0  0  0  0  0  0  0
  151.8830  138.8486  155.9670 N   0  0  0  0  0  0  0  0  0  0  0  0
  153.8292  141.2630  160.3743 C   0  0  0  0  0  0  0  0  0  0  0  0
  155.0793  140.5269  159.9057 C   0  0  0  0  0  0  0  0  0  0  0  0
  153.8774  141.4205  161.8870 C   0  0  0  0  0  0  0  0  0  0  0  0
  152.2212  146.7784  159.6743 H   0  0  0  0  0  0  0  0  0  0  0  0
  152.0643  145.8994  161.1974 H   0  0  0  0  0  0  0  0  0  0  0  0
  150.6748  146.0451  160.1178 H   0  0  0  0  0  0  0  0  0  0  0  0
  150.6620  144.5884  157.8805 H   0  0  0  0  0  0  0  0  0  0  0  0
  152.1310  143.7067  157.4583 H   0  0  0  0  0  0  0  0  0  0  0  0
  152.1327  145.4639  157.4446 H   0  0  0  0  0  0  0  0  0  0  0  0
  153.0676  143.7902  161.1046 H   0  0  0  0  0  0  0  0  0  0  0  0
  153.7212  142.4869  158.5193 H   0  0  0  0  0  0  0  0  0  0  0  0
  151.6065  141.1366  160.4054 H   0  0  0  0  0  0  0  0  0  0  0  0
  151.3651  141.5822  157.6360 H   0  0  0  0  0  0  0  0  0  0  0  0
  149.8703  141.4292  155.3069 H   0  0  0  0  0  0  0  0  0  0  0  0
  149.9786  139.5153  153.3865 H   0  0  0  0  0  0  0  0  0  0  0  0
  151.2274  137.3208  153.0903 H   0  0  0  0  0  0  0  0  0  0  0  0
  152.8058  137.3888  153.8535 H   0  0  0  0  0  0  0  0  0  0  0  0
  150.1219  134.5185  154.9318 H   0  0  0  0  0  0  0  0  0  0  0  0
  149.9209  135.5934  153.5642 H   0  0  0  0  0  0  0  0  0  0  0  0
  155.0358  139.4794  160.2051 H   0  0  0  0  0  0  0  0  0  0  0  0
  155.9708  140.9749  160.3451 H   0  0  0  0  0  0  0  0  0  0  0  0
  155.1937  140.5740  158.8235 H   0  0  0  0  0  0  0  0  0  0  0  0
  153.9694  140.4455  162.3661 H   0  0  0  0  0  0  0  0  0  0  0  0
  152.9710  141.8967  162.2622 H   0  0  0  0  0  0  0  0  0  0  0  0
  154.7303  142.0338  162.1786 H   0  0  0  0  0  0  0  0  0  0  0  0
  1  2  1  0  0  0  0
  1 22  1  0  0  0  0
  1 23  1  0  0  0  0
  1 24  1  0  0  0  0
  2  3  1  0  0  0  0
  2  4  2  0  0  0  0
  3 25  1  0  0  0  0
  3 26  1  0  0  0  0
  3 27  1  0  0  0  0
  4  5  1  0  0  0  0
  4 28  1  0  0  0  0
  5 19  1  0  0  0  0
  5  6  1  0  0  0  0
  5 29  1  0  0  0  0
  6  7  1  0  0  0  0
  6 19  1  0  0  0  0
  6 30  1  0  0  0  0
  7  8  2  0  0  0  0
  7  9  1  0  0  0  0
  9 10  1  0  0  0  0
  9 31  1  0  0  0  0
 10 18  2  0  0  0  0
 10 11  1  0  0  0  0
 11 12  2  0  0  0  0
 11 32  1  0  0  0  0
 12 13  1  0  0  0  0
 12 33  1  0  0  0  0
 13 14  1  0  0  0  0
 13 18  1  0  0  0  0
 14 15  1  0  0  0  0
 14 34  1  0  0  0  0
 14 35  1  0  0  0  0
 15 16  1  0  0  0  0
 15 17  2  0  0  0  0
 16 36  1  0  0  0  0
 16 37  1  0  0  0  0
 19 20  1  0  0  0  0
 19 21  1  0  0  0  0
 20 38  1  0  0  0  0
 20 39  1  0  0  0  0
 20 40  1  0  0  0  0
 21 41  1  0  0  0  0
 21 42  1  0  0  0  0
 21 43  1  0  0  0  0
M  END
> <s_m_source_file>
AV-unprocessed.smi

> <i_m_source_file_index>
901

> <i_lp_mmshare_version>
43012

> <i_f3d_flags>
0

> <s_epik_input>
W0NIM11DKFtDSDNdKT1bQ0hdW0NAQEhdKEMxKFtDSDNdKVtDSDNdKVtDQEhdMUMoPU8pW05IXWMyW2NIXVtjSF1uKG4yKVtDSDJdQyg9TylbTkgyXQ==

> <s_epik_cmdline>
J2VwaWtfcHl0aG9uJywgJy1waCcsICc3LjAnLCAnLXRuJywgJzgnLCAnLW1hJywgJzIwMCcsICctbWV0YWxfYmluZGluZycsICctaW1hZScsICc8aW5maWxlLm1hZT4nLCAnLW9tYWUnLCAnPG91dGZpbGUubWFlPic=

> <r_lp_tautomer_probability>
1

> <r_epik_Ionization_Penalty>
1.01454e-05

> <r_epik_Ionization_Penalty_Charging>
0

> <r_epik_Ionization_Penalty_Neutral>
1.01454e-05

> <r_epik_State_Penalty>
-0

> <r_epik_Charging_Adjusted_Penalty>
0

> <i_epik_Tot_Q>
0

> <i_epik_Tot_abs_Q>
0

> <r_epik_Metal_State_Penalty>
-0

> <b_epik_Metal_Only>
0

> <s_lp_Force_Field>
OPLS_2005

> <r_lp_Energy>
20.5353

> <b_lp_Chiralities_Consistent>
1

> <s_lp_Variant>
AV-unprocessed.smi:901-1

> <Gold.Version>
5.8.1

> <Gold.Id.Protein>
6NUR|6NUR_protein|mol2

> <Gold.PLP.Fitness>
56.4878

> <Gold.PLP.PLP>
-48.0826

> <Gold.PLP.part.hbond>
-2.1494

> <Gold.PLP.part.metal>
0.0000

> <Gold.PLP.part.buried>
-0.5524

> <Gold.PLP.part.nonpolar>
-45.1093

> <Gold.PLP.part.repulsive>
0.1535

> <Gold.PLP.ligand.clash>
0.0000

> <Gold.PLP.ligand.torsion>
0.3873

> <Gold.PLP.Chemscore.Hbond>
2.0000

> <Gold.PLP.Chemscore.CHOScore>
1.0000

> <Gold.PLP.Chemscore.Metal>
0.0000

> <Gold.Chemscore.Hbonds>
donor molecule, donor type, donor heavy atom, donor atom, acceptor molecule, acceptor atom, score
      L1  H    16    37       P1  7948  0.45
      P1  H 10752 10763       L1    17  0.64
      L1  C    12    33       P1  7957  1.00

> <Gold.PLP.Chemscore.Internal.Correction>
0.1799

> <Gold.Rescore>
     Score         DG    S(hbond)    S(metal)    S(lipo)     H(rot)  DE(clash)    DE(int)     intcor
     14.45     -17.35       0.97        0.00     120.53       2.13       0.04       2.86       ----

> <Gold.Chemscore.Fitness>
14.4541

> <Gold.Chemscore.DG>
-17.3528

> <Gold.Chemscore.ZeroCoef>
-5.4800

> <Gold.Chemscore.Hbond>
0.9658

> <Gold.Chemscore.Metal>
0.0000

> <Gold.Chemscore.Lipo>
120.5321

> <Gold.Chemscore.Internal_Hbond>
0.0000

> <Gold.Chemscore.DEClash>
0.0419

> <Gold.Chemscore.DEInternal>
2.8568

> <Gold.Chemscore.Rot>
2.1309

> <Gold.Chemscore.Internal.Correction>
   9.000000E+99

> <Gold.Chemscore.Hbonds>
donor molecule, donor type, donor heavy atom, donor atom, acceptor molecule, acceptor atom, score
      L1  H    16    37       P1  7948  0.02
      P1  H 10752 10763       L1    17  0.05

> <Gold.Chemscore.Hbond.Weighted>
-3.2257

> <Gold.Chemscore.Metal.Weighted>
-0.0000

> <Gold.Chemscore.Lipo.Weighted>
-14.1023

> <Gold.Chemscore.Internal_Hbond.Weighted>
0.0000

> <Gold.Chemscore.DEClash.Weighted>
0.0419

> <Gold.Chemscore.DEInternal.Weighted>
2.8568

> <Gold.Chemscore.Rot.Weighted>
5.4552

> <Gold.Chemscore.Internal.Correction.Weighted>
   9.000000E+99

> <Gold.Protein.RotatedTorsions>
[ 6907 6896 6895 6894 ] final  126.25 input  -60.11 | X-H torsion
[ 7974 7965 7964 7962 ] final -109.29 input  175.53 | X-H torsion
[ 8008 7997 7996 7995 ] final  -87.93 input   59.86 | X-H torsion
[ 10167 10162 10161 10158 ] final  -20.91 input  -65.29 | X-H torsion
[ 10718 10713 10712 10709 ] final  -72.72 input   66.30 | X-H torsion
[ 10763 10752 10751 10750 ] final   99.08 input  -60.55 | X-H torsion
[ 11005 11000 10999 10996 ] final  141.36 input  -57.11 | X-H torsion

> <Gold.Protein.ActiveResidues>
 VAL166  LYS551  ARG553  GLY616  TRP617  ASP618  TYR619  PRO620  LYS621  CYS622 
 ASP623  PHE694  ASN695  SER759  ASP760  ASP761  ALA762  ILE779  LEU786  VAL792 
 PHE793  MET794  SER795  GLU796  ALA797  LYS798  CYS799  TRP800  GLU811  SER814 

> <Gold.Protein.RotatedAtoms>
  152.3920  133.6692  159.6245 H   0  0  0  0  0  0  0  0  0  0  0  0  # atno 6907 bound_to 6896
  150.7826  133.8938  159.3330 H   0  0  0  0  0  0  0  0  0  0  0  0  # atno 6908 bound_to 6896
  151.6723  135.0976  160.0251 H   0  0  0  0  0  0  0  0  0  0  0  0  # atno 6909 bound_to 6896
  145.1824  140.8977  143.3472 H   0  0  0  0  0  0  0  0  0  0  0  0  # atno 7974 bound_to 7965
  154.6689  140.0560  157.0144 H   0  0  0  0  0  0  0  0  0  0  0  0  # atno 8008 bound_to 7997
  155.1118  140.3239  155.4501 H   0  0  0  0  0  0  0  0  0  0  0  0  # atno 8009 bound_to 7997
  156.2649  140.2013  156.6242 H   0  0  0  0  0  0  0  0  0  0  0  0  # atno 8010 bound_to 7997
  140.7279  143.4678  151.0290 H   0  0  0  0  0  0  0  0  0  0  0  0  # atno 10167 bound_to 10162
  156.0309  130.4378  150.2635 H   0  0  0  0  0  0  0  0  0  0  0  0  # atno 10718 bound_to 10713
  153.2970  135.4126  155.1218 H   0  0  0  0  0  0  0  0  0  0  0  0  # atno 10763 bound_to 10752
  154.8538  135.3532  154.5904 H   0  0  0  0  0  0  0  0  0  0  0  0  # atno 10764 bound_to 10752
  153.6328  135.7060  153.5327 H   0  0  0  0  0  0  0  0  0  0  0  0  # atno 10765 bound_to 10752
  140.0395  134.9312  157.0816 H   0  0  0  0  0  0  0  0  0  0  0  0  # atno 11005 bound_to 11000
  145.0123  139.3499  143.6114 LP  0  0  0  0  0  0  0  0  0  0  0  0  # atno 17320 bound_to 7965
  146.3451  139.9390  142.8743 LP  0  0  0  0  0  0  0  0  0  0  0  0  # atno 17321 bound_to 7965
  139.8367  143.7618  152.3180 LP  0  0  0  0  0  0  0  0  0  0  0  0  # atno 17342 bound_to 10162
  139.7753  144.7463  151.0166 LP  0  0  0  0  0  0  0  0  0  0  0  0  # atno 17343 bound_to 10162
  157.0738  131.0124  151.3181 LP  0  0  0  0  0  0  0  0  0  0  0  0  # atno 17370 bound_to 10713
  157.4979  130.7862  149.7575 LP  0  0  0  0  0  0  0  0  0  0  0  0  # atno 17371 bound_to 10713
  140.4092  134.1999  155.7163 LP  0  0  0  0  0  0  0  0  0  0  0  0  # atno 17394 bound_to 11000
  141.1875  133.8279  157.1028 LP  0  0  0  0  0  0  0  0  0  0  0  0  # atno 17395 bound_to 11000

$$$$
