AV-unprocessed.smi:2137|AV-procd|sdf|8707|dock1
  -GOLD-   2272011463D 1   1.00000     0.00000
 Structure written by MMmdl.
 50 51  0  0  0  0  0  0  0  0  2 V2000
  146.2227  137.4015  151.8280 C   0  0  0  0  0  0  0  0  0  0  0  0
  145.1959  136.3356  152.2490 C   0  0  1  0  0  0  0  0  0  0  0  0
  144.9690  135.2637  151.1669 C   0  0  0  0  0  0  0  0  0  0  0  0
  146.1564  134.2942  151.0854 C   0  0  0  0  0  0  0  0  0  0  0  0
  146.4766  133.6957  152.4643 C   0  0  0  0  0  0  0  0  0  0  0  0
  146.7287  134.7638  153.4655 N   0  3  2  0  0  0  0  0  0  0  0  0
  147.1940  134.2196  154.7663 C   0  0  0  0  0  0  0  0  0  0  0  0
  148.2950  135.0857  155.4010 C   0  0  0  0  0  0  0  0  0  0  0  0
  149.6566  134.9000  154.7106 C   0  0  0  0  0  0  0  0  0  0  0  0
  150.2194  136.1766  154.2868 N   0  0  0  0  0  0  0  0  0  0  0  0
  151.1661  136.8577  154.9499 C   0  0  0  0  0  0  0  0  0  0  0  0
  151.6853  136.4507  155.9903 O   0  0  0  0  0  0  0  0  0  0  0  0
  151.5955  138.1948  154.3313 C   0  0  0  0  0  0  0  0  0  0  0  0
  151.1873  139.3548  155.1346 N   0  0  0  0  0  0  0  0  0  0  0  0
  150.2021  140.2032  154.6625 C   0  0  0  0  0  0  0  0  0  0  0  0
  149.7791  141.2985  155.3306 C   0  0  0  0  0  0  0  0  0  0  0  0
  150.3520  141.6532  156.6232 C   0  0  0  0  0  0  0  0  0  0  0  0
  150.0156  142.6537  157.2580 O   0  0  0  0  0  0  0  0  0  0  0  0
  151.3442  140.7602  157.0920 N   0  0  0  0  0  0  0  0  0  0  0  0
  151.9712  141.0639  158.3620 C   0  0  0  0  0  0  0  0  0  0  0  0
  151.7963  139.6257  156.3796 C   0  0  0  0  0  0  0  0  0  0  0  0
  152.6930  138.8950  156.8080 O   0  0  0  0  0  0  0  0  0  0  0  0
  145.5599  135.6766  153.5955 C   0  0  0  0  0  0  0  0  0  0  0  0
  147.2176  136.9782  151.6901 H   0  0  0  0  0  0  0  0  0  0  0  0
  146.3015  138.1856  152.5815 H   0  0  0  0  0  0  0  0  0  0  0  0
  145.9316  137.8774  150.8912 H   0  0  0  0  0  0  0  0  0  0  0  0
  144.2497  136.8603  152.3876 H   0  0  0  0  0  0  0  0  0  0  0  0
  144.0661  134.6998  151.4049 H   0  0  0  0  0  0  0  0  0  0  0  0
  144.7907  135.7286  150.1965 H   0  0  0  0  0  0  0  0  0  0  0  0
  145.9337  133.4955  150.3772 H   0  0  0  0  0  0  0  0  0  0  0  0
  147.0339  134.8110  150.6953 H   0  0  0  0  0  0  0  0  0  0  0  0
  145.6534  133.0644  152.8033 H   0  0  0  0  0  0  0  0  0  0  0  0
  147.3541  133.0537  152.3765 H   0  0  0  0  0  0  0  0  0  0  0  0
  146.3481  134.1046  155.4455 H   0  0  0  0  0  0  0  0  0  0  0  0
  147.6028  133.2198  154.6130 H   0  0  0  0  0  0  0  0  0  0  0  0
  148.0045  136.1359  155.3511 H   0  0  0  0  0  0  0  0  0  0  0  0
  148.3974  134.8455  156.4587 H   0  0  0  0  0  0  0  0  0  0  0  0
  150.3557  134.3863  155.3727 H   0  0  0  0  0  0  0  0  0  0  0  0
  149.5447  134.2702  153.8276 H   0  0  0  0  0  0  0  0  0  0  0  0
  149.8537  136.5790  153.4356 H   0  0  0  0  0  0  0  0  0  0  0  0
  152.6799  138.1820  154.2152 H   0  0  0  0  0  0  0  0  0  0  0  0
  151.1916  138.2849  153.3210 H   0  0  0  0  0  0  0  0  0  0  0  0
  149.7490  139.9857  153.7061 H   0  0  0  0  0  0  0  0  0  0  0  0
  149.0091  141.9228  154.9012 H   0  0  0  0  0  0  0  0  0  0  0  0
  152.3391  140.1474  158.8247 H   0  0  0  0  0  0  0  0  0  0  0  0
  151.2302  141.5033  159.0314 H   0  0  0  0  0  0  0  0  0  0  0  0
  152.7851  141.7599  158.1543 H   0  0  0  0  0  0  0  0  0  0  0  0
  145.7567  136.4539  154.3329 H   0  0  0  0  0  0  0  0  0  0  0  0
  144.7066  135.1083  153.9693 H   0  0  0  0  0  0  0  0  0  0  0  0
  147.4918  135.3151  153.0993 H   0  0  0  0  0  0  0  0  0  0  0  0
  1  2  1  0  0  0  0
  1 24  1  0  0  0  0
  1 25  1  0  0  0  0
  1 26  1  0  0  0  0
  2 23  1  0  0  0  0
  2  3  1  0  0  0  0
  2 27  1  0  0  0  0
  3  4  1  0  0  0  0
  3 28  1  0  0  0  0
  3 29  1  0  0  0  0
  4  5  1  0  0  0  0
  4 30  1  0  0  0  0
  4 31  1  0  0  0  0
  5  6  1  0  0  0  0
  5 32  1  0  0  0  0
  5 33  1  0  0  0  0
  6  7  1  0  0  0  0
  6 23  1  0  0  0  0
  6 50  1  0  0  0  0
  7  8  1  0  0  0  0
  7 34  1  0  0  0  0
  7 35  1  0  0  0  0
  8  9  1  0  0  0  0
  8 36  1  0  0  0  0
  8 37  1  0  0  0  0
  9 10  1  0  0  0  0
  9 38  1  0  0  0  0
  9 39  1  0  0  0  0
 10 11  1  0  0  0  0
 10 40  1  0  0  0  0
 11 12  2  0  0  0  0
 11 13  1  0  0  0  0
 13 14  1  0  0  0  0
 13 41  1  0  0  0  0
 13 42  1  0  0  0  0
 14 21  1  0  0  0  0
 14 15  1  0  0  0  0
 15 16  2  0  0  0  0
 15 43  1  0  0  0  0
 16 17  1  0  0  0  0
 16 44  1  0  0  0  0
 17 18  2  0  0  0  0
 17 19  1  0  0  0  0
 19 20  1  0  0  0  0
 19 21  1  0  0  0  0
 20 45  1  0  0  0  0
 20 46  1  0  0  0  0
 20 47  1  0  0  0  0
 21 22  2  0  0  0  0
 23 48  1  0  0  0  0
 23 49  1  0  0  0  0
M  CHG  1   6   1
M  END
> <s_m_source_file>
AV-unprocessed.smi

> <i_m_source_file_index>
2137

> <i_lp_mmshare_version>
43012

> <i_f3d_flags>
0

> <s_epik_input>
W0NIM11bQ0BASF0xW0NIMl1bQ0gyXVtDSDJdTihbQ0gyXTEpW0NIMl1bQ0gyXVtDSDJdW05IXUMoPU8pW0NIMl1uMltjSF1bY0hdYyg9TyluKFtDSDNdKWMyPU8=

> <s_epik_cmdline>
J2VwaWtfcHl0aG9uJywgJy1waCcsICc3LjAnLCAnLXRuJywgJzgnLCAnLW1hJywgJzIwMCcsICctbWV0YWxfYmluZGluZycsICctaW1hZScsICc8aW5maWxlLm1hZT4nLCAnLW9tYWUnLCAnPG91dGZpbGUubWFlPic=

> <r_lp_tautomer_probability>
1

> <r_epik_Ionization_Penalty>
0.000384839

> <r_epik_Ionization_Penalty_Charging>
0.000384812

> <r_epik_Ionization_Penalty_Neutral>
2.6907e-08

> <r_epik_State_Penalty>
0.000235226

> <r_epik_Charging_Adjusted_Penalty>
0.000620038

> <i_epik_Tot_Q>
1

> <i_epik_Tot_abs_Q>
1

> <r_epik_Metal_State_Penalty>
-0

> <b_epik_Metal_Only>
0

> <s_lp_Force_Field>
OPLS_2005

> <r_lp_Energy>
27.4749

> <b_lp_Chiralities_Consistent>
1

> <s_lp_Variant>
AV-unprocessed.smi:2137-2

> <Gold.Version>
5.8.1

> <Gold.Id.Protein>
6NUR|6NUR_protein|mol2

> <Gold.PLP.Fitness>
49.7681

> <Gold.PLP.PLP>
-36.6840

> <Gold.PLP.part.hbond>
-5.0000

> <Gold.PLP.part.metal>
0.0000

> <Gold.PLP.part.buried>
2.0098

> <Gold.PLP.part.nonpolar>
-33.4297

> <Gold.PLP.part.repulsive>
0.7737

> <Gold.PLP.ligand.clash>
0.0000

> <Gold.PLP.ligand.torsion>
1.2133

> <Gold.PLP.Chemscore.Hbond>
4.6380

> <Gold.PLP.Chemscore.CHOScore>
0.4595

> <Gold.PLP.Chemscore.Metal>
0.0000

> <Gold.Chemscore.Hbonds>
donor molecule, donor type, donor heavy atom, donor atom, acceptor molecule, acceptor atom, score
      L1  H     6    50       P1  7948  1.62
      L1  H    10    40       P1  7948  0.90
      P1  H  7997  8010       L1    22  0.77
      P1  H 10752 10765       L1    12  0.60
      L1  C    15    43       P1  7957  0.96

> <Gold.PLP.Chemscore.Internal.Correction>
0.2182

> <Gold.Rescore>
     Score         DG    S(hbond)    S(metal)    S(lipo)     H(rot)  DE(clash)    DE(int)     intcor
     13.57     -17.66       2.82        0.00      73.19       2.27       1.58       2.50       ----

> <Gold.Chemscore.Fitness>
13.5749

> <Gold.Chemscore.DG>
-17.6554

> <Gold.Chemscore.ZeroCoef>
-5.4800

> <Gold.Chemscore.Hbond>
2.8249

> <Gold.Chemscore.Metal>
0.0000

> <Gold.Chemscore.Lipo>
73.1944

> <Gold.Chemscore.Internal_Hbond>
0.0000

> <Gold.Chemscore.DEClash>
1.5823

> <Gold.Chemscore.DEInternal>
2.4982

> <Gold.Chemscore.Rot>
2.2748

> <Gold.Chemscore.Internal.Correction>
   9.000000E+99

> <Gold.Chemscore.Hbonds>
donor molecule, donor type, donor heavy atom, donor atom, acceptor molecule, acceptor atom, score
      L1  H     6    50       P1  7948  0.80
      L1  H    10    40       P1  7948  0.23
      P1  H  7997  8010       L1    22  0.17
      P1  H 10752 10765       L1    12  0.04

> <Gold.Chemscore.Hbond.Weighted>
-9.4351

> <Gold.Chemscore.Metal.Weighted>
-0.0000

> <Gold.Chemscore.Lipo.Weighted>
-8.5637

> <Gold.Chemscore.Internal_Hbond.Weighted>
0.0000

> <Gold.Chemscore.DEClash.Weighted>
1.5823

> <Gold.Chemscore.DEInternal.Weighted>
2.4982

> <Gold.Chemscore.Rot.Weighted>
5.8234

> <Gold.Chemscore.Internal.Correction.Weighted>
   9.000000E+99

> <Gold.Protein.RotatedTorsions>
[ 6907 6896 6895 6894 ] final  -71.85 input  -60.11 | X-H torsion
[ 7974 7965 7964 7962 ] final -167.11 input  175.53 | X-H torsion
[ 8008 7997 7996 7995 ] final   78.52 input   59.86 | X-H torsion
[ 10167 10162 10161 10158 ] final   67.54 input  -65.29 | X-H torsion
[ 10718 10713 10712 10709 ] final  -92.31 input   66.30 | X-H torsion
[ 10763 10752 10751 10750 ] final -153.23 input  -60.55 | X-H torsion
[ 11005 11000 10999 10996 ] final  159.44 input  -57.11 | X-H torsion

> <Gold.Protein.ActiveResidues>
 VAL166  LYS551  ARG553  GLY616  TRP617  ASP618  TYR619  PRO620  LYS621  CYS622 
 ASP623  PHE694  ASN695  SER759  ASP760  ASP761  ALA762  ILE779  LEU786  VAL792 
 PHE793  MET794  SER795  GLU796  ALA797  LYS798  CYS799  TRP800  GLU811  SER814 

> <Gold.Protein.RotatedAtoms>
  150.7194  134.5248  159.5670 H   0  0  0  0  0  0  0  0  0  0  0  0  # atno 6907 bound_to 6896
  152.2795  134.7842  160.0408 H   0  0  0  0  0  0  0  0  0  0  0  0  # atno 6908 bound_to 6896
  151.8493  133.3402  159.3705 H   0  0  0  0  0  0  0  0  0  0  0  0  # atno 6909 bound_to 6896
  144.7230  140.2567  143.6271 H   0  0  0  0  0  0  0  0  0  0  0  0  # atno 7974 bound_to 7965
  155.8568  140.3455  155.5730 H   0  0  0  0  0  0  0  0  0  0  0  0  # atno 8008 bound_to 7997
  155.7977  140.0880  157.1994 H   0  0  0  0  0  0  0  0  0  0  0  0  # atno 8009 bound_to 7997
  154.4010  140.1471  156.3225 H   0  0  0  0  0  0  0  0  0  0  0  0  # atno 8010 bound_to 7997
  140.0884  144.5009  150.7115 H   0  0  0  0  0  0  0  0  0  0  0  0  # atno 10167 bound_to 10162
  156.0001  130.4982  150.5607 H   0  0  0  0  0  0  0  0  0  0  0  0  # atno 10718 bound_to 10713
  154.7942  135.3217  154.7707 H   0  0  0  0  0  0  0  0  0  0  0  0  # atno 10763 bound_to 10752
  153.8389  135.6872  153.4809 H   0  0  0  0  0  0  0  0  0  0  0  0  # atno 10764 bound_to 10752
  153.1625  135.4655  154.9733 H   0  0  0  0  0  0  0  0  0  0  0  0  # atno 10765 bound_to 10752
  140.1962  134.8371  157.2967 H   0  0  0  0  0  0  0  0  0  0  0  0  # atno 11005 bound_to 11000
  145.8176  139.2029  143.1957 LP  0  0  0  0  0  0  0  0  0  0  0  0  # atno 17320 bound_to 7965
  146.0542  140.8038  142.9766 LP  0  0  0  0  0  0  0  0  0  0  0  0  # atno 17321 bound_to 7965
  140.7041  143.2455  151.4778 LP  0  0  0  0  0  0  0  0  0  0  0  0  # atno 17342 bound_to 10162
  139.5738  144.1865  152.1875 LP  0  0  0  0  0  0  0  0  0  0  0  0  # atno 17343 bound_to 10162
  157.3516  131.0734  151.1708 LP  0  0  0  0  0  0  0  0  0  0  0  0  # atno 17370 bound_to 10713
  157.2523  130.6620  149.5937 LP  0  0  0  0  0  0  0  0  0  0  0  0  # atno 17371 bound_to 10713
  140.2105  134.4145  155.7615 LP  0  0  0  0  0  0  0  0  0  0  0  0  # atno 17394 bound_to 11000
  141.2227  133.7116  156.8330 LP  0  0  0  0  0  0  0  0  0  0  0  0  # atno 17395 bound_to 11000

$$$$
