AV-unprocessed.smi:1217|AV-procd|sdf|5102|dock1
  -GOLD-   22720 4153D 1   1.00000     0.00000
 Structure written by MMmdl.
 34 35  0  0  0  0  0  0  0  0  1 V2000
  145.9590  138.4763  154.8590 C   0  0  0  0  0  0  0  0  0  0  0  0
  146.4543  138.7828  153.4374 C   0  0  2  0  0  0  0  0  0  0  0  0
  146.6947  137.5179  152.7459 N   0  0  0  0  0  0  0  0  0  0  0  0
  145.7502  136.6508  152.3512 C   0  0  0  0  0  0  0  0  0  0  0  0
  144.5450  136.8254  152.5330 O   0  0  0  0  0  0  0  0  0  0  0  0
  146.2961  135.5876  151.7349 N   0  0  0  0  0  0  0  0  0  0  0  0
  145.6395  134.4371  151.2222 C   0  0  0  0  0  0  0  0  0  0  0  0
  146.4972  133.4338  150.7169 C   0  0  0  0  0  0  0  0  0  0  0  0
  145.9447  132.2498  150.1912 C   0  0  0  0  0  0  0  0  0  0  0  0
  144.5469  132.0976  150.1870 C   0  0  0  0  0  0  0  0  0  0  0  0
  143.7646  133.1437  150.7101 C   0  0  0  0  0  0  0  0  0  0  0  0
  144.2920  134.2798  151.2131 N   0  0  0  0  0  0  0  0  0  0  0  0
  147.7420  139.6315  153.4377 C   0  0  2  0  0  0  0  0  0  0  0  0
  148.9294  138.9926  154.1610 C   0  0  0  0  0  0  0  0  0  0  0  0
  149.7699  140.1809  154.6047 C   0  0  0  0  0  0  0  0  0  0  0  0
  148.8495  141.3865  154.4009 C   0  0  0  0  0  0  0  0  0  0  0  0
  147.5628  140.8296  154.1777 O   0  0  0  0  0  0  0  0  0  0  0  0
  145.7192  139.3902  155.4025 H   0  0  0  0  0  0  0  0  0  0  0  0
  146.7109  137.9349  155.4342 H   0  0  0  0  0  0  0  0  0  0  0  0
  145.0549  137.8668  154.8355 H   0  0  0  0  0  0  0  0  0  0  0  0
  145.6665  139.3397  152.9267 H   0  0  0  0  0  0  0  0  0  0  0  0
  147.6576  137.2898  152.5477 H   0  0  0  0  0  0  0  0  0  0  0  0
  147.2999  135.5958  151.6324 H   0  0  0  0  0  0  0  0  0  0  0  0
  147.5693  133.5666  150.7292 H   0  0  0  0  0  0  0  0  0  0  0  0
  146.5834  131.4721  149.7992 H   0  0  0  0  0  0  0  0  0  0  0  0
  144.0862  131.2035  149.7939 H   0  0  0  0  0  0  0  0  0  0  0  0
  142.6876  133.0662  150.7264 H   0  0  0  0  0  0  0  0  0  0  0  0
  148.0276  139.8903  152.4160 H   0  0  0  0  0  0  0  0  0  0  0  0
  148.5859  138.4447  155.0397 H   0  0  0  0  0  0  0  0  0  0  0  0
  149.4820  138.2977  153.5280 H   0  0  0  0  0  0  0  0  0  0  0  0
  150.0656  140.0755  155.6489 H   0  0  0  0  0  0  0  0  0  0  0  0
  150.6764  140.2806  154.0068 H   0  0  0  0  0  0  0  0  0  0  0  0
  148.8450  142.0617  155.2570 H   0  0  0  0  0  0  0  0  0  0  0  0
  149.1510  141.9552  153.5200 H   0  0  0  0  0  0  0  0  0  0  0  0
  1  2  1  0  0  0  0
  1 18  1  0  0  0  0
  1 19  1  0  0  0  0
  1 20  1  0  0  0  0
  2  3  1  0  0  0  0
  2 13  1  0  0  0  0
  2 21  1  0  0  0  0
  3  4  1  0  0  0  0
  3 22  1  0  0  0  0
  4  5  2  0  0  0  0
  4  6  1  0  0  0  0
  6  7  1  0  0  0  0
  6 23  1  0  0  0  0
  7 12  1  0  0  0  0
  7  8  2  0  0  0  0
  8  9  1  0  0  0  0
  8 24  1  0  0  0  0
  9 10  2  0  0  0  0
  9 25  1  0  0  0  0
 10 11  1  0  0  0  0
 10 26  1  0  0  0  0
 11 12  2  0  0  0  0
 11 27  1  0  0  0  0
 13 17  1  0  0  0  0
 13 14  1  0  0  0  0
 13 28  1  0  0  0  0
 14 15  1  0  0  0  0
 14 29  1  0  0  0  0
 14 30  1  0  0  0  0
 15 16  1  0  0  0  0
 15 31  1  0  0  0  0
 15 32  1  0  0  0  0
 16 17  1  0  0  0  0
 16 33  1  0  0  0  0
 16 34  1  0  0  0  0
M  END
> <s_m_source_file>
AV-unprocessed.smi

> <i_m_source_file_index>
1217

> <i_lp_mmshare_version>
43012

> <i_f3d_flags>
0

> <s_epik_input>
TzFbQ0gyXVtDSDJdW0NIMl1bQ0BIXTFbQ0BIXShbQ0gzXSlbTkhdQyg9TylbTkhdYzJbY0hdW2NIXVtjSF1bY0hdbjI=

> <s_epik_cmdline>
J2VwaWtfcHl0aG9uJywgJy1waCcsICc3LjAnLCAnLXRuJywgJzgnLCAnLW1hJywgJzIwMCcsICctbWV0YWxfYmluZGluZycsICctaW1hZScsICc8aW5maWxlLm1hZT4nLCAnLW9tYWUnLCAnPG91dGZpbGUubWFlPic=

> <r_lp_tautomer_probability>
1

> <r_epik_Ionization_Penalty>
4.51768e-05

> <r_epik_Ionization_Penalty_Charging>
0

> <r_epik_Ionization_Penalty_Neutral>
4.51768e-05

> <r_epik_State_Penalty>
-0

> <r_epik_Charging_Adjusted_Penalty>
0

> <i_epik_Tot_Q>
0

> <i_epik_Tot_abs_Q>
0

> <r_epik_Metal_State_Penalty>
-0

> <b_epik_Metal_Only>
0

> <s_lp_Force_Field>
OPLS_2005

> <r_lp_Energy>
20.7335

> <b_lp_Chiralities_Consistent>
1

> <s_lp_Variant>
AV-unprocessed.smi:1217-1

> <Gold.Version>
5.8.1

> <Gold.Id.Protein>
6NUR|6NUR_protein|mol2

> <Gold.PLP.Fitness>
37.6266

> <Gold.PLP.PLP>
-28.8540

> <Gold.PLP.part.hbond>
-2.0000

> <Gold.PLP.part.metal>
0.0000

> <Gold.PLP.part.buried>
-1.9971

> <Gold.PLP.part.nonpolar>
-25.1043

> <Gold.PLP.part.repulsive>
0.5790

> <Gold.PLP.ligand.clash>
0.0000

> <Gold.PLP.ligand.torsion>
0.1274

> <Gold.PLP.Chemscore.Hbond>
2.0000

> <Gold.PLP.Chemscore.CHOScore>
1.0000

> <Gold.PLP.Chemscore.Metal>
0.0000

> <Gold.Chemscore.Hbonds>
donor molecule, donor type, donor heavy atom, donor atom, acceptor molecule, acceptor atom, score
      L1  H     3    22       P1  7948  1.00
      L1  H     6    23       P1  7948  1.00
      L1  C    11    27       P1 10186  1.00

> <Gold.PLP.Chemscore.Internal.Correction>
0.0273

> <Gold.Rescore>
     Score         DG    S(hbond)    S(metal)    S(lipo)     H(rot)  DE(clash)    DE(int)     intcor
     15.47     -16.95       1.97        0.00      69.29       1.25       0.02       1.46       ----

> <Gold.Chemscore.Fitness>
15.4733

> <Gold.Chemscore.DG>
-16.9537

> <Gold.Chemscore.ZeroCoef>
-5.4800

> <Gold.Chemscore.Hbond>
1.9664

> <Gold.Chemscore.Metal>
0.0000

> <Gold.Chemscore.Lipo>
69.2936

> <Gold.Chemscore.Internal_Hbond>
0.0000

> <Gold.Chemscore.DEClash>
0.0219

> <Gold.Chemscore.DEInternal>
1.4584

> <Gold.Chemscore.Rot>
1.2506

> <Gold.Chemscore.Internal.Correction>
   9.000000E+99

> <Gold.Chemscore.Hbonds>
donor molecule, donor type, donor heavy atom, donor atom, acceptor molecule, acceptor atom, score
      L1  H     3    22       P1  7948  0.97
      L1  H     6    23       P1  7948  0.98

> <Gold.Chemscore.Hbond.Weighted>
-6.5679

> <Gold.Chemscore.Metal.Weighted>
-0.0000

> <Gold.Chemscore.Lipo.Weighted>
-8.1074

> <Gold.Chemscore.Internal_Hbond.Weighted>
0.0000

> <Gold.Chemscore.DEClash.Weighted>
0.0219

> <Gold.Chemscore.DEInternal.Weighted>
1.4584

> <Gold.Chemscore.Rot.Weighted>
3.2016

> <Gold.Chemscore.Internal.Correction.Weighted>
   9.000000E+99

> <Gold.Protein.RotatedTorsions>
[ 6907 6896 6895 6894 ] final  -53.50 input  -60.11 | X-H torsion
[ 7974 7965 7964 7962 ] final  130.60 input  175.53 | X-H torsion
[ 8008 7997 7996 7995 ] final -103.31 input   59.86 | X-H torsion
[ 10167 10162 10161 10158 ] final  -60.23 input  -65.29 | X-H torsion
[ 10718 10713 10712 10709 ] final   54.56 input   66.30 | X-H torsion
[ 10763 10752 10751 10750 ] final   99.72 input  -60.55 | X-H torsion
[ 11005 11000 10999 10996 ] final  148.74 input  -57.11 | X-H torsion

> <Gold.Protein.ActiveResidues>
 VAL166  LYS551  ARG553  GLY616  TRP617  ASP618  TYR619  PRO620  LYS621  CYS622 
 ASP623  PHE694  ASN695  SER759  ASP760  ASP761  ALA762  ILE779  LEU786  VAL792 
 PHE793  MET794  SER795  GLU796  ALA797  LYS798  CYS799  TRP800  GLU811  SER814 

> <Gold.Protein.RotatedAtoms>
  150.8421  134.7717  159.6940 H   0  0  0  0  0  0  0  0  0  0  0  0  # atno 6907 bound_to 6896
  152.4506  134.5398  159.9845 H   0  0  0  0  0  0  0  0  0  0  0  0  # atno 6908 bound_to 6896
  151.5536  133.3376  159.2993 H   0  0  0  0  0  0  0  0  0  0  0  0  # atno 6909 bound_to 6896
  145.0162  139.4174  143.5220 H   0  0  0  0  0  0  0  0  0  0  0  0  # atno 7974 bound_to 7965
  154.8691  140.0423  157.1713 H   0  0  0  0  0  0  0  0  0  0  0  0  # atno 8008 bound_to 7997
  154.8758  140.2965  155.5433 H   0  0  0  0  0  0  0  0  0  0  0  0  # atno 8009 bound_to 7997
  156.2999  140.2420  156.3754 H   0  0  0  0  0  0  0  0  0  0  0  0  # atno 8010 bound_to 7997
  140.6084  143.2380  151.5766 H   0  0  0  0  0  0  0  0  0  0  0  0  # atno 10167 bound_to 10162
  157.5267  130.8602  149.8632 H   0  0  0  0  0  0  0  0  0  0  0  0  # atno 10718 bound_to 10713
  153.3050  135.4103  155.1286 H   0  0  0  0  0  0  0  0  0  0  0  0  # atno 10763 bound_to 10752
  154.8560  135.3550  154.5801 H   0  0  0  0  0  0  0  0  0  0  0  0  # atno 10764 bound_to 10752
  153.6227  135.7064  153.5363 H   0  0  0  0  0  0  0  0  0  0  0  0  # atno 10765 bound_to 10752
  140.0986  134.8997  157.1761 H   0  0  0  0  0  0  0  0  0  0  0  0  # atno 11005 bound_to 11000
  146.3478  139.9634  142.8714 LP  0  0  0  0  0  0  0  0  0  0  0  0  # atno 17320 bound_to 7965
  145.1957  140.9832  143.4185 LP  0  0  0  0  0  0  0  0  0  0  0  0  # atno 17321 bound_to 7965
  139.5342  144.2827  152.1216 LP  0  0  0  0  0  0  0  0  0  0  0  0  # atno 17342 bound_to 10162
  140.2021  144.4647  150.6426 LP  0  0  0  0  0  0  0  0  0  0  0  0  # atno 17343 bound_to 10162
  156.0392  130.3743  150.1479 LP  0  0  0  0  0  0  0  0  0  0  0  0  # atno 17370 bound_to 10713
  156.9665  130.9821  151.3468 LP  0  0  0  0  0  0  0  0  0  0  0  0  # atno 17371 bound_to 10713
  140.3252  134.2871  155.7238 LP  0  0  0  0  0  0  0  0  0  0  0  0  # atno 17394 bound_to 11000
  141.2099  133.7735  156.9967 LP  0  0  0  0  0  0  0  0  0  0  0  0  # atno 17395 bound_to 11000

$$$$
