AV-unprocessed.smi:896|AV-procd|sdf|4078|dock6
  -GOLD-   22720 1563D 1   1.00000     0.00000
 Structure written by MMmdl.
 49 50  0  0  0  0  0  0  0  0  2 V2000
  152.0915  142.6951  158.9021 C   0  0  0  0  0  0  0  0  0  0  0  0
  152.5107  141.4575  158.3372 O   0  0  0  0  0  0  0  0  0  0  0  0
  151.7624  140.9201  157.3098 C   0  0  0  0  0  0  0  0  0  0  0  0
  150.4695  141.4280  157.0790 C   0  0  0  0  0  0  0  0  0  0  0  0
  149.7028  140.8846  156.0313 C   0  0  0  0  0  0  0  0  0  0  0  0
  150.2563  139.8530  155.2361 C   0  0  0  0  0  0  0  0  0  0  0  0
  149.5461  139.2298  154.1731 N   0  0  0  0  0  0  0  0  0  0  0  0
  148.2616  139.4079  153.8218 C   0  0  0  0  0  0  0  0  0  0  0  0
  147.4702  140.1670  154.3823 O   0  0  0  0  0  0  0  0  0  0  0  0
  147.9431  138.6685  152.7496 N   0  0  0  0  0  0  0  0  0  0  0  0
  146.6379  138.6654  152.0996 C   0  0  0  0  0  0  0  0  0  0  0  0
  146.2788  137.2633  151.5725 C   0  0  0  0  0  0  0  0  0  0  0  0
  145.3650  136.4456  152.5135 C   0  0  2  0  0  0  0  0  0  0  0  0
  146.0981  135.2311  153.1163 C   0  0  0  0  0  0  0  0  0  0  0  0
  146.3218  134.1132  152.0809 C   0  0  0  0  0  0  0  0  0  0  0  0
  145.0406  133.6898  151.4628 N   0  3  2  0  0  0  0  0  0  0  0  0
  145.2139  132.5501  150.5369 C   0  0  0  0  0  0  0  0  0  0  0  0
  144.3175  134.8230  150.8339 C   0  0  0  0  0  0  0  0  0  0  0  0
  144.0619  135.9495  151.8512 C   0  0  0  0  0  0  0  0  0  0  0  0
  151.5585  139.4004  155.5579 C   0  0  0  0  0  0  0  0  0  0  0  0
  152.2263  138.2862  154.7711 C   0  0  0  0  0  0  0  0  0  0  0  0
  152.2950  139.9214  156.5636 N   0  0  0  0  0  0  0  0  0  0  0  0
  152.7793  142.9800  159.6983 H   0  0  0  0  0  0  0  0  0  0  0  0
  151.0947  142.6174  159.3389 H   0  0  0  0  0  0  0  0  0  0  0  0
  152.0961  143.4945  158.1597 H   0  0  0  0  0  0  0  0  0  0  0  0
  150.0701  142.2178  157.6982 H   0  0  0  0  0  0  0  0  0  0  0  0
  148.7030  141.2562  155.8659 H   0  0  0  0  0  0  0  0  0  0  0  0
  150.1004  138.6493  153.5609 H   0  0  0  0  0  0  0  0  0  0  0  0
  148.6539  138.0721  152.3516 H   0  0  0  0  0  0  0  0  0  0  0  0
  145.8942  138.9928  152.8264 H   0  0  0  0  0  0  0  0  0  0  0  0
  146.6357  139.4044  151.2981 H   0  0  0  0  0  0  0  0  0  0  0  0
  145.8228  137.3483  150.5865 H   0  0  0  0  0  0  0  0  0  0  0  0
  147.2078  136.7121  151.4199 H   0  0  0  0  0  0  0  0  0  0  0  0
  145.0912  137.1031  153.3398 H   0  0  0  0  0  0  0  0  0  0  0  0
  147.0519  135.5380  153.5467 H   0  0  0  0  0  0  0  0  0  0  0  0
  145.5102  134.8333  153.9444 H   0  0  0  0  0  0  0  0  0  0  0  0
  147.0138  134.4427  151.3048 H   0  0  0  0  0  0  0  0  0  0  0  0
  146.7869  133.2564  152.5702 H   0  0  0  0  0  0  0  0  0  0  0  0
  145.8402  132.8280  149.6880 H   0  0  0  0  0  0  0  0  0  0  0  0
  144.2494  132.2139  150.1548 H   0  0  0  0  0  0  0  0  0  0  0  0
  145.6817  131.7071  151.0463 H   0  0  0  0  0  0  0  0  0  0  0  0
  144.8850  135.1969  149.9807 H   0  0  0  0  0  0  0  0  0  0  0  0
  143.3632  134.4689  150.4419 H   0  0  0  0  0  0  0  0  0  0  0  0
  143.3925  135.5751  152.6270 H   0  0  0  0  0  0  0  0  0  0  0  0
  143.5247  136.7686  151.3750 H   0  0  0  0  0  0  0  0  0  0  0  0
  152.2903  138.5521  153.7156 H   0  0  0  0  0  0  0  0  0  0  0  0
  151.6533  137.3630  154.8608 H   0  0  0  0  0  0  0  0  0  0  0  0
  153.2377  138.0912  155.1302 H   0  0  0  0  0  0  0  0  0  0  0  0
  144.4549  133.3597  152.2167 H   0  0  0  0  0  0  0  0  0  0  0  0
  1  2  1  0  0  0  0
  1 23  1  0  0  0  0
  1 24  1  0  0  0  0
  1 25  1  0  0  0  0
  2  3  1  0  0  0  0
  3 22  1  0  0  0  0
  3  4  2  0  0  0  0
  4  5  1  0  0  0  0
  4 26  1  0  0  0  0
  5  6  2  0  0  0  0
  5 27  1  0  0  0  0
  6  7  1  0  0  0  0
  6 20  1  0  0  0  0
  7  8  1  0  0  0  0
  7 28  1  0  0  0  0
  8  9  2  0  0  0  0
  8 10  1  0  0  0  0
 10 11  1  0  0  0  0
 10 29  1  0  0  0  0
 11 12  1  0  0  0  0
 11 30  1  0  0  0  0
 11 31  1  0  0  0  0
 12 13  1  0  0  0  0
 12 32  1  0  0  0  0
 12 33  1  0  0  0  0
 13 19  1  0  0  0  0
 13 14  1  0  0  0  0
 13 34  1  0  0  0  0
 14 15  1  0  0  0  0
 14 35  1  0  0  0  0
 14 36  1  0  0  0  0
 15 16  1  0  0  0  0
 15 37  1  0  0  0  0
 15 38  1  0  0  0  0
 16 17  1  0  0  0  0
 16 18  1  0  0  0  0
 16 49  1  0  0  0  0
 17 39  1  0  0  0  0
 17 40  1  0  0  0  0
 17 41  1  0  0  0  0
 18 19  1  0  0  0  0
 18 42  1  0  0  0  0
 18 43  1  0  0  0  0
 19 44  1  0  0  0  0
 19 45  1  0  0  0  0
 20 21  1  0  0  0  0
 20 22  2  0  0  0  0
 21 46  1  0  0  0  0
 21 47  1  0  0  0  0
 21 48  1  0  0  0  0
M  CHG  1  16   1
M  END
> <s_m_source_file>
AV-unprocessed.smi

> <i_m_source_file_index>
896

> <i_lp_mmshare_version>
43012

> <i_f3d_flags>
0

> <s_epik_input>
W0NIM11PYzFbY0hdW2NIXWMoYyhuMSlbQ0gzXSlbTkhdQyg9TylbTkhdW0NIMl1bQ0gyXVtDSF0yW0NIMl1bQ0gyXU4oW0NIM10pW0NIMl1bQ0gyXTI=

> <s_epik_cmdline>
J2VwaWtfcHl0aG9uJywgJy1waCcsICc3LjAnLCAnLXRuJywgJzgnLCAnLW1hJywgJzIwMCcsICctbWV0YWxfYmluZGluZycsICctaW1hZScsICc8aW5maWxlLm1hZT4nLCAnLW9tYWUnLCAnPG91dGZpbGUubWFlPic=

> <r_lp_tautomer_probability>
1

> <r_epik_Ionization_Penalty>
0.000968128

> <r_epik_Ionization_Penalty_Charging>
0.000718523

> <r_epik_Ionization_Penalty_Neutral>
0.000249604

> <r_epik_State_Penalty>
0.00045807

> <r_epik_Charging_Adjusted_Penalty>
0.00117659

> <i_epik_Tot_Q>
1

> <i_epik_Tot_abs_Q>
1

> <r_epik_Metal_State_Penalty>
-0

> <b_epik_Metal_Only>
0

> <s_lp_Force_Field>
OPLS_2005

> <r_lp_Energy>
21.0963

> <b_lp_Chiralities_Consistent>
1

> <s_lp_Variant>
AV-unprocessed.smi:896-2

> <Gold.Version>
5.8.1

> <Gold.Id.Protein>
6NUR|6NUR_protein|mol2

> <Gold.PLP.Fitness>
41.1110

> <Gold.PLP.PLP>
-38.5509

> <Gold.PLP.part.hbond>
-4.0000

> <Gold.PLP.part.metal>
0.0000

> <Gold.PLP.part.buried>
1.4670

> <Gold.PLP.part.nonpolar>
-35.7399

> <Gold.PLP.part.repulsive>
0.2835

> <Gold.PLP.ligand.clash>
0.0143

> <Gold.PLP.ligand.torsion>
1.3572

> <Gold.PLP.Chemscore.Hbond>
1.7433

> <Gold.PLP.Chemscore.CHOScore>
0.0000

> <Gold.PLP.Chemscore.Metal>
0.0000

> <Gold.Chemscore.Hbonds>
donor molecule, donor type, donor heavy atom, donor atom, acceptor molecule, acceptor atom, score
      L1  H    10    29       P1  7948  0.85
      P1  H  7997  8010       L1    22  0.93

> <Gold.PLP.Chemscore.Internal.Correction>
0.0591

> <Gold.Rescore>
     Score         DG    S(hbond)    S(metal)    S(lipo)     H(rot)  DE(clash)    DE(int)     intcor
     13.36     -17.12       1.57        0.00      90.84       1.65       1.30       2.47       ----

> <Gold.Chemscore.Fitness>
13.3588

> <Gold.Chemscore.DG>
-17.1237

> <Gold.Chemscore.ZeroCoef>
-5.4800

> <Gold.Chemscore.Hbond>
1.5704

> <Gold.Chemscore.Metal>
0.0000

> <Gold.Chemscore.Lipo>
90.8360

> <Gold.Chemscore.Internal_Hbond>
0.0000

> <Gold.Chemscore.DEClash>
1.2977

> <Gold.Chemscore.DEInternal>
2.4671

> <Gold.Chemscore.Rot>
1.6521

> <Gold.Chemscore.Internal.Correction>
   9.000000E+99

> <Gold.Chemscore.Hbonds>
donor molecule, donor type, donor heavy atom, donor atom, acceptor molecule, acceptor atom, score
      L1  H    10    29       P1  7948  0.83
      P1  H  7997  8010       L1    22  0.68

> <Gold.Chemscore.Hbond.Weighted>
-5.2453

> <Gold.Chemscore.Metal.Weighted>
-0.0000

> <Gold.Chemscore.Lipo.Weighted>
-10.6278

> <Gold.Chemscore.Internal_Hbond.Weighted>
0.0000

> <Gold.Chemscore.DEClash.Weighted>
1.2977

> <Gold.Chemscore.DEInternal.Weighted>
2.4671

> <Gold.Chemscore.Rot.Weighted>
4.2294

> <Gold.Chemscore.Internal.Correction.Weighted>
   9.000000E+99

> <Gold.Protein.RotatedTorsions>
[ 6907 6896 6895 6894 ] final  105.95 input  -60.11 | X-H torsion
[ 7974 7965 7964 7962 ] final   28.71 input  175.53 | X-H torsion
[ 8008 7997 7996 7995 ] final   76.31 input   59.86 | X-H torsion
[ 10167 10162 10161 10158 ] final  122.72 input  -65.29 | X-H torsion
[ 10718 10713 10712 10709 ] final  -51.89 input   66.30 | X-H torsion
[ 10763 10752 10751 10750 ] final   99.16 input  -60.55 | X-H torsion
[ 11005 11000 10999 10996 ] final  -81.43 input  -57.11 | X-H torsion

> <Gold.Protein.ActiveResidues>
 VAL166  LYS551  ARG553  GLY616  TRP617  ASP618  TYR619  PRO620  LYS621  CYS622 
 ASP623  PHE694  ASN695  SER759  ASP760  ASP761  ALA762  ILE779  LEU786  VAL792 
 PHE793  MET794  SER795  GLU796  ALA797  LYS798  CYS799  TRP800  GLU811  SER814 

> <Gold.Protein.RotatedAtoms>
  152.5212  133.9453  159.7645 H   0  0  0  0  0  0  0  0  0  0  0  0  # atno 6907 bound_to 6896
  150.9774  133.6272  159.2735 H   0  0  0  0  0  0  0  0  0  0  0  0  # atno 6908 bound_to 6896
  151.3462  135.0880  159.9440 H   0  0  0  0  0  0  0  0  0  0  0  0  # atno 6909 bound_to 6896
  146.1713  139.7019  142.8965 H   0  0  0  0  0  0  0  0  0  0  0  0  # atno 7974 bound_to 7965
  155.8255  140.3468  155.5540 H   0  0  0  0  0  0  0  0  0  0  0  0  # atno 8008 bound_to 7997
  155.8297  140.0925  157.1820 H   0  0  0  0  0  0  0  0  0  0  0  0  # atno 8009 bound_to 7997
  154.4004  140.1414  156.3587 H   0  0  0  0  0  0  0  0  0  0  0  0  # atno 8010 bound_to 7997
  139.5842  144.6999  151.3452 H   0  0  0  0  0  0  0  0  0  0  0  0  # atno 10167 bound_to 10162
  156.1670  130.4149  149.9705 H   0  0  0  0  0  0  0  0  0  0  0  0  # atno 10718 bound_to 10713
  153.2979  135.4123  155.1226 H   0  0  0  0  0  0  0  0  0  0  0  0  # atno 10763 bound_to 10752
  154.8540  135.3534  154.5891 H   0  0  0  0  0  0  0  0  0  0  0  0  # atno 10764 bound_to 10752
  153.6316  135.7060  153.5332 H   0  0  0  0  0  0  0  0  0  0  0  0  # atno 10765 bound_to 10752
  141.1666  133.7196  156.8422 H   0  0  0  0  0  0  0  0  0  0  0  0  # atno 11005 bound_to 11000
  145.4332  141.0417  143.2899 LP  0  0  0  0  0  0  0  0  0  0  0  0  # atno 17320 bound_to 7965
  144.8167  139.5863  143.7005 LP  0  0  0  0  0  0  0  0  0  0  0  0  # atno 17321 bound_to 7965
  140.7116  143.7376  150.7577 LP  0  0  0  0  0  0  0  0  0  0  0  0  # atno 17342 bound_to 10162
  140.0916  143.4872  152.2475 LP  0  0  0  0  0  0  0  0  0  0  0  0  # atno 17343 bound_to 10162
  156.7517  130.9118  151.3637 LP  0  0  0  0  0  0  0  0  0  0  0  0  # atno 17370 bound_to 10713
  157.6775  130.9108  150.0186 LP  0  0  0  0  0  0  0  0  0  0  0  0  # atno 17371 bound_to 10713
  140.1975  134.8921  157.3131 LP  0  0  0  0  0  0  0  0  0  0  0  0  # atno 17394 bound_to 11000
  140.2223  134.4009  155.7560 LP  0  0  0  0  0  0  0  0  0  0  0  0  # atno 17395 bound_to 11000

$$$$
