AV-unprocessed.smi:274|AV-procd|sdf|2058|dock2
  -GOLD-   2262021303D 1   1.00000     0.00000
 Structure written by MMmdl.
 50 53  0  0  0  0  0  0  0  0  1 V2000
  147.3543  133.8144  160.0138 C   0  0  0  0  0  0  0  0  0  0  0  0
  148.1882  134.7753  160.8850 C   0  0  0  0  0  0  0  0  0  0  0  0
  147.6254  134.7596  162.3200 C   0  0  0  0  0  0  0  0  0  0  0  0
  148.2860  136.2179  160.2930 C   0  0  2  0  0  0  0  0  0  0  0  0
  146.8942  136.8322  160.0092 C   0  0  0  0  0  0  0  0  0  0  0  0
  146.2448  137.3267  160.9285 O   0  0  0  0  0  0  0  0  0  0  0  0
  146.4276  136.8433  158.7474 N   0  0  0  0  0  0  0  0  0  0  0  0
  147.1258  136.3478  157.5605 C   0  0  0  0  0  0  0  0  0  0  0  0
  148.4674  135.6553  157.8738 C   0  0  0  0  0  0  0  0  0  0  0  0
  149.1000  136.2238  159.0659 N   0  0  0  0  0  0  0  0  0  0  0  0
  149.9483  137.2781  158.9060 C   0  0  0  0  0  0  0  0  0  0  0  0
  151.1246  137.3099  159.5888 N   0  0  0  0  0  0  0  0  0  0  0  0
  151.9739  138.3291  159.4344 C   0  0  0  0  0  0  0  0  0  0  0  0
  151.8476  139.4093  158.6630 N   0  0  0  0  0  0  0  0  0  0  0  0
  150.6663  139.3942  157.9828 C   0  0  0  0  0  0  0  0  0  0  0  0
  149.6696  138.3785  158.0445 C   0  0  0  0  0  0  0  0  0  0  0  0
  148.6040  138.7178  157.2191 N   0  0  0  0  0  0  0  0  0  0  0  0
  148.9545  139.8587  156.6925 C   0  0  0  0  0  0  0  0  0  0  0  0
  150.1767  140.3416  157.1005 N   0  0  0  0  0  0  0  0  0  0  0  0
  150.8071  141.5826  156.6774 C   0  0  0  0  0  0  0  0  0  0  0  0
  150.5138  142.7729  157.6197 C   0  0  1  0  0  0  0  0  0  0  0  0
  149.1101  142.9243  157.7464 O   0  0  0  0  0  0  0  0  0  0  0  0
  151.1146  142.6275  159.0150 C   0  0  0  0  0  0  0  0  0  0  0  0
  151.4143  144.0671  159.4075 C   0  0  0  0  0  0  0  0  0  0  0  0
  151.8858  144.6263  158.1935 O   0  0  0  0  0  0  0  0  0  0  0  0
  151.1053  144.1067  157.1214 C   0  0  0  0  0  0  0  0  0  0  0  0
  146.3494  134.2037  159.8461 H   0  0  0  0  0  0  0  0  0  0  0  0
  147.2545  132.8394  160.4915 H   0  0  0  0  0  0  0  0  0  0  0  0
  147.8133  133.6377  159.0418 H   0  0  0  0  0  0  0  0  0  0  0  0
  149.1925  134.3533  160.9351 H   0  0  0  0  0  0  0  0  0  0  0  0
  146.6060  135.1438  162.3481 H   0  0  0  0  0  0  0  0  0  0  0  0
  148.2279  135.3550  163.0058 H   0  0  0  0  0  0  0  0  0  0  0  0
  147.6031  133.7455  162.7193 H   0  0  0  0  0  0  0  0  0  0  0  0
  148.7425  136.8533  161.0523 H   0  0  0  0  0  0  0  0  0  0  0  0
  145.5184  137.2544  158.5940 H   0  0  0  0  0  0  0  0  0  0  0  0
  146.4724  135.6776  157.0015 H   0  0  0  0  0  0  0  0  0  0  0  0
  147.3049  137.2093  156.9168 H   0  0  0  0  0  0  0  0  0  0  0  0
  148.2891  134.5968  158.0601 H   0  0  0  0  0  0  0  0  0  0  0  0
  149.1314  135.6802  157.0082 H   0  0  0  0  0  0  0  0  0  0  0  0
  152.8853  138.2698  160.0107 H   0  0  0  0  0  0  0  0  0  0  0  0
  148.3240  140.3870  155.9921 H   0  0  0  0  0  0  0  0  0  0  0  0
  151.8826  141.4132  156.6123 H   0  0  0  0  0  0  0  0  0  0  0  0
  150.4726  141.8095  155.6641 H   0  0  0  0  0  0  0  0  0  0  0  0
  148.8457  143.6871  157.2549 H   0  0  0  0  0  0  0  0  0  0  0  0
  150.4666  142.1113  159.7246 H   0  0  0  0  0  0  0  0  0  0  0  0
  152.0557  142.0790  158.9656 H   0  0  0  0  0  0  0  0  0  0  0  0
  150.5089  144.5852  159.7269 H   0  0  0  0  0  0  0  0  0  0  0  0
  152.1576  144.1430  160.2015 H   0  0  0  0  0  0  0  0  0  0  0  0
  151.7454  143.9761  156.2482 H   0  0  0  0  0  0  0  0  0  0  0  0
  150.3301  144.8257  156.8514 H   0  0  0  0  0  0  0  0  0  0  0  0
  1  2  1  0  0  0  0
  1 27  1  0  0  0  0
  1 28  1  0  0  0  0
  1 29  1  0  0  0  0
  2  3  1  0  0  0  0
  2  4  1  0  0  0  0
  2 30  1  0  0  0  0
  3 31  1  0  0  0  0
  3 32  1  0  0  0  0
  3 33  1  0  0  0  0
  4 10  1  0  0  0  0
  4  5  1  0  0  0  0
  4 34  1  0  0  0  0
  5  6  2  0  0  0  0
  5  7  1  0  0  0  0
  7  8  1  0  0  0  0
  7 35  1  0  0  0  0
  8  9  1  0  0  0  0
  8 36  1  0  0  0  0
  8 37  1  0  0  0  0
  9 10  1  0  0  0  0
  9 38  1  0  0  0  0
  9 39  1  0  0  0  0
 10 11  1  0  0  0  0
 11 16  1  0  0  0  0
 11 12  2  0  0  0  0
 12 13  1  0  0  0  0
 13 14  2  0  0  0  0
 13 40  1  0  0  0  0
 14 15  1  0  0  0  0
 15 19  1  0  0  0  0
 15 16  2  0  0  0  0
 16 17  1  0  0  0  0
 17 18  2  0  0  0  0
 18 19  1  0  0  0  0
 18 41  1  0  0  0  0
 19 20  1  0  0  0  0
 20 21  1  0  0  0  0
 20 42  1  0  0  0  0
 20 43  1  0  0  0  0
 21 26  1  0  0  0  0
 21 22  1  0  0  0  0
 21 23  1  0  0  0  0
 22 44  1  0  0  0  0
 23 24  1  0  0  0  0
 23 45  1  0  0  0  0
 23 46  1  0  0  0  0
 24 25  1  0  0  0  0
 24 47  1  0  0  0  0
 24 48  1  0  0  0  0
 25 26  1  0  0  0  0
 26 49  1  0  0  0  0
 26 50  1  0  0  0  0
M  END
> <s_m_source_file>
AV-unprocessed.smi

> <i_m_source_file_index>
274

> <i_lp_mmshare_version>
43012

> <i_f3d_flags>
0

> <s_epik_input>
W0NIM11bQ0hdKFtDSDNdKVtDQEBIXTFDKD1PKVtOSF1bQ0gyXVtDSDJdTjFjKG5bY0hdbjIpYyhjMjMpbltjSF1uM1tDSDJdW0NAQF00KFtPSF0pW0NIMl1bQ0gyXU9bQ0gyXTQ=

> <s_epik_cmdline>
J2VwaWtfcHl0aG9uJywgJy1waCcsICc3LjAnLCAnLXRuJywgJzgnLCAnLW1hJywgJzIwMCcsICctbWV0YWxfYmluZGluZycsICctaW1hZScsICc8aW5maWxlLm1hZT4nLCAnLW9tYWUnLCAnPG91dGZpbGUubWFlPic=

> <r_lp_tautomer_probability>
1

> <r_epik_Ionization_Penalty>
0.000690079

> <r_epik_Ionization_Penalty_Charging>
0

> <r_epik_Ionization_Penalty_Neutral>
0.000690079

> <r_epik_State_Penalty>
0.000321372

> <r_epik_Charging_Adjusted_Penalty>
0.000321372

> <i_epik_Tot_Q>
0

> <i_epik_Tot_abs_Q>
0

> <r_epik_Metal_State_Penalty>
-0

> <b_epik_Metal_Only>
0

> <s_lp_Force_Field>
OPLS_2005

> <r_lp_Energy>
40.3696

> <b_lp_Chiralities_Consistent>
1

> <s_lp_Variant>
AV-unprocessed.smi:274-1

> <Gold.Version>
5.8.1

> <Gold.Id.Protein>
6NUR|6NUR_protein|mol2

> <Gold.PLP.Fitness>
42.6017

> <Gold.PLP.PLP>
-36.4946

> <Gold.PLP.part.hbond>
-3.0000

> <Gold.PLP.part.metal>
0.0000

> <Gold.PLP.part.buried>
-6.9819

> <Gold.PLP.part.nonpolar>
-27.4480

> <Gold.PLP.part.repulsive>
0.0810

> <Gold.PLP.ligand.clash>
0.0000

> <Gold.PLP.ligand.torsion>
1.5452

> <Gold.PLP.Chemscore.Hbond>
2.9500

> <Gold.PLP.Chemscore.CHOScore>
0.0000

> <Gold.PLP.Chemscore.Metal>
0.0000

> <Gold.Chemscore.Hbonds>
donor molecule, donor type, donor heavy atom, donor atom, acceptor molecule, acceptor atom, score
      L1  H    22    44       P1  8028  0.90
      P1  H  6896  6909       L1    12  0.46
      P1  H  6934  6947       L1     6  0.80

> <Gold.PLP.Chemscore.Internal.Correction>
0.3475

> <Gold.Rescore>
     Score         DG    S(hbond)    S(metal)    S(lipo)     H(rot)  DE(clash)    DE(int)     intcor
     11.50     -14.58       1.87        0.00      71.18       2.14       0.10       2.98       ----

> <Gold.Chemscore.Fitness>
11.5014

> <Gold.Chemscore.DG>
-14.5781

> <Gold.Chemscore.ZeroCoef>
-5.4800

> <Gold.Chemscore.Hbond>
1.8732

> <Gold.Chemscore.Metal>
0.0000

> <Gold.Chemscore.Lipo>
71.1796

> <Gold.Chemscore.Internal_Hbond>
0.0000

> <Gold.Chemscore.DEClash>
0.0998

> <Gold.Chemscore.DEInternal>
2.9769

> <Gold.Chemscore.Rot>
2.1431

> <Gold.Chemscore.Internal.Correction>
   9.000000E+99

> <Gold.Chemscore.Hbonds>
donor molecule, donor type, donor heavy atom, donor atom, acceptor molecule, acceptor atom, score
      L1  H    22    44       P1  8028  0.17
      P1  H  6896  6909       L1    12  0.07
      P1  H  6934  6947       L1     6  0.12

> <Gold.Chemscore.Hbond.Weighted>
-6.2563

> <Gold.Chemscore.Metal.Weighted>
-0.0000

> <Gold.Chemscore.Lipo.Weighted>
-8.3280

> <Gold.Chemscore.Internal_Hbond.Weighted>
0.0000

> <Gold.Chemscore.DEClash.Weighted>
0.0998

> <Gold.Chemscore.DEInternal.Weighted>
2.9769

> <Gold.Chemscore.Rot.Weighted>
5.4863

> <Gold.Chemscore.Internal.Correction.Weighted>
   9.000000E+99

> <Gold.Protein.RotatedTorsions>
[ 6907 6896 6895 6894 ] final   99.99 input  -60.11 | X-H torsion
[ 7974 7965 7964 7962 ] final -136.96 input  175.53 | X-H torsion
[ 8008 7997 7996 7995 ] final  -64.65 input   59.86 | X-H torsion
[ 10167 10162 10161 10158 ] final  146.89 input  -65.29 | X-H torsion
[ 10718 10713 10712 10709 ] final -138.23 input   66.30 | X-H torsion
[ 10763 10752 10751 10750 ] final -112.36 input  -60.55 | X-H torsion
[ 11005 11000 10999 10996 ] final -122.63 input  -57.11 | X-H torsion

> <Gold.Protein.ActiveResidues>
 VAL166  LYS551  ARG553  GLY616  TRP617  ASP618  TYR619  PRO620  LYS621  CYS622 
 ASP623  PHE694  ASN695  SER759  ASP760  ASP761  ALA762  ILE779  LEU786  VAL792 
 PHE793  MET794  SER795  GLU796  ALA797  LYS798  CYS799  TRP800  GLU811  SER814 

> <Gold.Protein.RotatedAtoms>
  152.5381  134.0344  159.8039 H   0  0  0  0  0  0  0  0  0  0  0  0  # atno 6907 bound_to 6896
  151.0510  133.5616  159.2649 H   0  0  0  0  0  0  0  0  0  0  0  0  # atno 6908 bound_to 6896
  151.2551  135.0643  159.9130 H   0  0  0  0  0  0  0  0  0  0  0  0  # atno 6909 bound_to 6896
  144.8882  140.6605  143.5162 H   0  0  0  0  0  0  0  0  0  0  0  0  # atno 7974 bound_to 7965
  154.4624  140.0949  156.6929 H   0  0  0  0  0  0  0  0  0  0  0  0  # atno 8008 bound_to 7997
  155.4955  140.3472  155.4344 H   0  0  0  0  0  0  0  0  0  0  0  0  # atno 8009 bound_to 7997
  156.0895  140.1393  156.9599 H   0  0  0  0  0  0  0  0  0  0  0  0  # atno 8010 bound_to 7997
  139.4899  144.5796  151.6898 H   0  0  0  0  0  0  0  0  0  0  0  0  # atno 10167 bound_to 10162
  156.2970  130.7407  151.1448 H   0  0  0  0  0  0  0  0  0  0  0  0  # atno 10718 bound_to 10713
  154.8346  135.4493  154.1182 H   0  0  0  0  0  0  0  0  0  0  0  0  # atno 10763 bound_to 10752
  153.2425  135.6918  153.7773 H   0  0  0  0  0  0  0  0  0  0  0  0  # atno 10764 bound_to 10752
  153.7116  135.3356  155.3223 H   0  0  0  0  0  0  0  0  0  0  0  0  # atno 10765 bound_to 10752
  140.9980  134.0443  157.3573 H   0  0  0  0  0  0  0  0  0  0  0  0  # atno 11005 bound_to 11000
  145.3830  139.1633  143.4270 LP  0  0  0  0  0  0  0  0  0  0  0  0  # atno 17320 bound_to 7965
  146.3038  140.3913  142.8694 LP  0  0  0  0  0  0  0  0  0  0  0  0  # atno 17321 bound_to 7965
  140.5399  144.0595  150.6084 LP  0  0  0  0  0  0  0  0  0  0  0  0  # atno 17342 bound_to 10162
  140.3614  143.2906  152.0379 LP  0  0  0  0  0  0  0  0  0  0  0  0  # atno 17343 bound_to 10162
  157.7358  131.0569  150.5451 LP  0  0  0  0  0  0  0  0  0  0  0  0  # atno 17370 bound_to 10713
  156.5574  130.4247  149.6079 LP  0  0  0  0  0  0  0  0  0  0  0  0  # atno 17371 bound_to 10713
  139.9024  135.0169  156.7332 LP  0  0  0  0  0  0  0  0  0  0  0  0  # atno 17394 bound_to 11000
  140.6934  133.9369  155.7980 LP  0  0  0  0  0  0  0  0  0  0  0  0  # atno 17395 bound_to 11000

$$$$
