AV-unprocessed.smi:3290|AV-procd|sdf|12614|dock9
  -GOLD-   2272018543D 1   1.00000     0.00000
 Structure written by MMmdl.
 43 44  0  0  0  0  0  0  0  0  2 V2000
  147.8302  133.1638  152.5785 C   0  0  0  0  0  0  0  0  0  0  0  0
  146.6169  133.4812  151.6860 C   0  0  1  0  0  0  0  0  0  0  0  0
  146.3086  132.2644  150.7876 C   0  0  0  0  0  0  0  0  0  0  0  0
  145.1357  132.5309  149.8351 C   0  0  0  0  0  0  0  0  0  0  0  0
  143.8857  132.9496  150.6164 C   0  0  0  0  0  0  0  0  0  0  0  0
  144.1785  134.1681  151.5024 C   0  0  0  0  0  0  0  0  0  0  0  0
  145.3487  133.9155  152.4794 C   0  0  2  0  0  0  0  0  0  0  0  0
  145.5631  135.1706  153.3559 C   0  0  0  0  0  0  0  0  0  0  0  0
  146.0246  136.3303  152.5665 N   0  3  0  0  0  0  0  0  0  0  0  0
  146.1548  137.5787  153.3446 C   0  0  0  0  0  0  0  0  0  0  0  0
  146.6046  138.7530  152.4578 C   0  0  2  0  0  0  0  0  0  0  0  0
  147.3135  138.2406  151.3460 O   0  0  0  0  0  0  0  0  0  0  0  0
  147.4400  139.7481  153.2477 C   0  0  0  0  0  0  0  0  0  0  0  0
  147.0542  141.1019  153.3558 C   0  0  0  0  0  0  0  0  0  0  0  0
  147.8716  141.9789  154.0964 C   0  0  0  0  0  0  0  0  0  0  0  0
  149.0105  141.5905  154.7088 N   0  0  0  0  0  0  0  0  0  0  0  0
  149.3762  140.2955  154.6002 C   0  0  0  0  0  0  0  0  0  0  0  0
  148.6307  139.3379  153.8834 C   0  0  0  0  0  0  0  0  0  0  0  0
  147.5838  132.4167  153.3336 H   0  0  0  0  0  0  0  0  0  0  0  0
  148.2030  134.0529  153.0860 H   0  0  0  0  0  0  0  0  0  0  0  0
  148.6585  132.7730  151.9867 H   0  0  0  0  0  0  0  0  0  0  0  0
  146.9046  134.3053  151.0310 H   0  0  0  0  0  0  0  0  0  0  0  0
  147.1896  131.9987  150.2019 H   0  0  0  0  0  0  0  0  0  0  0  0
  146.0807  131.3967  151.4084 H   0  0  0  0  0  0  0  0  0  0  0  0
  145.4070  133.3147  149.1267 H   0  0  0  0  0  0  0  0  0  0  0  0
  144.9248  131.6385  149.2450 H   0  0  0  0  0  0  0  0  0  0  0  0
  143.0740  133.1779  149.9250 H   0  0  0  0  0  0  0  0  0  0  0  0
  143.5423  132.1190  151.2345 H   0  0  0  0  0  0  0  0  0  0  0  0
  144.4043  135.0290  150.8712 H   0  0  0  0  0  0  0  0  0  0  0  0
  143.2755  134.4241  152.0581 H   0  0  0  0  0  0  0  0  0  0  0  0
  145.0480  133.0922  153.1302 H   0  0  0  0  0  0  0  0  0  0  0  0
  144.6489  135.4208  153.8960 H   0  0  0  0  0  0  0  0  0  0  0  0
  146.3268  134.9723  154.1093 H   0  0  0  0  0  0  0  0  0  0  0  0
  146.9271  136.1106  152.1693 H   0  0  0  0  0  0  0  0  0  0  0  0
  145.1879  137.8090  153.7946 H   0  0  0  0  0  0  0  0  0  0  0  0
  146.8605  137.4271  154.1631 H   0  0  0  0  0  0  0  0  0  0  0  0
  145.7249  139.2703  152.0719 H   0  0  0  0  0  0  0  0  0  0  0  0
  148.0426  138.8152  151.1653 H   0  0  0  0  0  0  0  0  0  0  0  0
  146.1534  141.4655  152.8830 H   0  0  0  0  0  0  0  0  0  0  0  0
  147.6037  143.0201  154.1984 H   0  0  0  0  0  0  0  0  0  0  0  0
  150.2917  140.0132  155.0988 H   0  0  0  0  0  0  0  0  0  0  0  0
  148.9702  138.3141  153.8275 H   0  0  0  0  0  0  0  0  0  0  0  0
  145.3707  136.4867  151.8130 H   0  0  0  0  0  0  0  0  0  0  0  0
  1  2  1  0  0  0  0
  1 19  1  0  0  0  0
  1 20  1  0  0  0  0
  1 21  1  0  0  0  0
  2  7  1  0  0  0  0
  2  3  1  0  0  0  0
  2 22  1  0  0  0  0
  3  4  1  0  0  0  0
  3 23  1  0  0  0  0
  3 24  1  0  0  0  0
  4  5  1  0  0  0  0
  4 25  1  0  0  0  0
  4 26  1  0  0  0  0
  5  6  1  0  0  0  0
  5 27  1  0  0  0  0
  5 28  1  0  0  0  0
  6  7  1  0  0  0  0
  6 29  1  0  0  0  0
  6 30  1  0  0  0  0
  7  8  1  0  0  0  0
  7 31  1  0  0  0  0
  8  9  1  0  0  0  0
  8 32  1  0  0  0  0
  8 33  1  0  0  0  0
  9 10  1  0  0  0  0
  9 34  1  0  0  0  0
  9 43  1  0  0  0  0
 10 11  1  0  0  0  0
 10 35  1  0  0  0  0
 10 36  1  0  0  0  0
 11 12  1  0  0  0  0
 11 13  1  0  0  0  0
 11 37  1  0  0  0  0
 12 38  1  0  0  0  0
 13 18  1  0  0  0  0
 13 14  2  0  0  0  0
 14 15  1  0  0  0  0
 14 39  1  0  0  0  0
 15 16  2  0  0  0  0
 15 40  1  0  0  0  0
 16 17  1  0  0  0  0
 17 18  2  0  0  0  0
 17 41  1  0  0  0  0
 18 42  1  0  0  0  0
M  CHG  1   9   1
M  END
> <s_m_source_file>
AV-unprocessed.smi

> <i_m_source_file_index>
3290

> <i_lp_mmshare_version>
43012

> <i_f3d_flags>
0

> <s_epik_input>
W0NIM11bQ0BASF0xW0NIMl1bQ0gyXVtDSDJdW0NIMl1bQ0BIXTFbQ0gyXVtOSF1bQ0gyXVtDQEhdKFtPSF0pYzJbY0hdW2NIXW5bY0hdW2NIXTI=

> <s_epik_cmdline>
J2VwaWtfcHl0aG9uJywgJy1waCcsICc3LjAnLCAnLXRuJywgJzgnLCAnLW1hJywgJzIwMCcsICctbWV0YWxfYmluZGluZycsICctaW1hZScsICc8aW5maWxlLm1hZT4nLCAnLW9tYWUnLCAnPG91dGZpbGUubWFlPic=

> <r_lp_tautomer_probability>
1

> <r_epik_Ionization_Penalty>
0.00420552

> <r_epik_Ionization_Penalty_Charging>
0.00207255

> <r_epik_Ionization_Penalty_Neutral>
0.00213297

> <r_epik_State_Penalty>
-0

> <r_epik_Charging_Adjusted_Penalty>
0.00207255

> <i_epik_Tot_Q>
1

> <i_epik_Tot_abs_Q>
1

> <r_epik_Metal_State_Penalty>
-0

> <b_epik_Metal_Only>
0

> <s_lp_Force_Field>
OPLS_2005

> <r_lp_Energy>
17.7323

> <b_lp_Chiralities_Consistent>
1

> <s_lp_Variant>
AV-unprocessed.smi:3290-4

> <Gold.Version>
5.8.1

> <Gold.Id.Protein>
6NUR|6NUR_protein|mol2

> <Gold.PLP.Fitness>
47.7351

> <Gold.PLP.PLP>
-36.7025

> <Gold.PLP.part.hbond>
-4.0259

> <Gold.PLP.part.metal>
0.0000

> <Gold.PLP.part.buried>
-1.3772

> <Gold.PLP.part.nonpolar>
-31.5211

> <Gold.PLP.part.repulsive>
0.1618

> <Gold.PLP.ligand.clash>
0.0000

> <Gold.PLP.ligand.torsion>
0.4591

> <Gold.PLP.Chemscore.Hbond>
3.0000

> <Gold.PLP.Chemscore.CHOScore>
0.9706

> <Gold.PLP.Chemscore.Metal>
0.0000

> <Gold.Chemscore.Hbonds>
donor molecule, donor type, donor heavy atom, donor atom, acceptor molecule, acceptor atom, score
      L1  H     9    34       P1  7948  1.98
      L1  H    12    38       P1  7957  1.00
      L1  C    15    40       P1  8028  0.91

> <Gold.PLP.Chemscore.Internal.Correction>
0.0390

> <Gold.Rescore>
     Score         DG    S(hbond)    S(metal)    S(lipo)     H(rot)  DE(clash)    DE(int)     intcor
     16.15     -16.92       1.71        0.00      93.81       2.05       0.31       0.47       ----

> <Gold.Chemscore.Fitness>
16.1494

> <Gold.Chemscore.DG>
-16.9240

> <Gold.Chemscore.ZeroCoef>
-5.4800

> <Gold.Chemscore.Hbond>
1.7114

> <Gold.Chemscore.Metal>
0.0000

> <Gold.Chemscore.Lipo>
93.8062

> <Gold.Chemscore.Internal_Hbond>
0.0000

> <Gold.Chemscore.DEClash>
0.3058

> <Gold.Chemscore.DEInternal>
0.4689

> <Gold.Chemscore.Rot>
2.0498

> <Gold.Chemscore.Internal.Correction>
   9.000000E+99

> <Gold.Chemscore.Hbonds>
donor molecule, donor type, donor heavy atom, donor atom, acceptor molecule, acceptor atom, score
      L1  H     9    34       P1  7948  0.92
      L1  H    12    38       P1  7957  0.25

> <Gold.Chemscore.Hbond.Weighted>
-5.7162

> <Gold.Chemscore.Metal.Weighted>
-0.0000

> <Gold.Chemscore.Lipo.Weighted>
-10.9753

> <Gold.Chemscore.Internal_Hbond.Weighted>
0.0000

> <Gold.Chemscore.DEClash.Weighted>
0.3058

> <Gold.Chemscore.DEInternal.Weighted>
0.4689

> <Gold.Chemscore.Rot.Weighted>
5.2475

> <Gold.Chemscore.Internal.Correction.Weighted>
   9.000000E+99

> <Gold.Protein.RotatedTorsions>
[ 6907 6896 6895 6894 ] final -105.07 input  -60.11 | X-H torsion
[ 7974 7965 7964 7962 ] final -109.47 input  175.53 | X-H torsion
[ 8008 7997 7996 7995 ] final  -80.04 input   59.86 | X-H torsion
[ 10167 10162 10161 10158 ] final  -84.32 input  -65.29 | X-H torsion
[ 10718 10713 10712 10709 ] final  107.50 input   66.30 | X-H torsion
[ 10763 10752 10751 10750 ] final -172.27 input  -60.55 | X-H torsion
[ 11005 11000 10999 10996 ] final   -7.28 input  -57.11 | X-H torsion

> <Gold.Protein.ActiveResidues>
 VAL166  LYS551  ARG553  GLY616  TRP617  ASP618  TYR619  PRO620  LYS621  CYS622 
 ASP623  PHE694  ASN695  SER759  ASP760  ASP761  ALA762  ILE779  LEU786  VAL792 
 PHE793  MET794  SER795  GLU796  ALA797  LYS798  CYS799  TRP800  GLU811  SER814 

> <Gold.Protein.RotatedAtoms>
  150.7318  134.0182  159.3692 H   0  0  0  0  0  0  0  0  0  0  0  0  # atno 6907 bound_to 6896
  151.8145  135.0668  160.0426 H   0  0  0  0  0  0  0  0  0  0  0  0  # atno 6908 bound_to 6896
  152.3048  133.5656  159.5678 H   0  0  0  0  0  0  0  0  0  0  0  0  # atno 6909 bound_to 6896
  145.1801  140.8967  143.3485 H   0  0  0  0  0  0  0  0  0  0  0  0  # atno 7974 bound_to 7965
  154.5843  140.0669  156.9149 H   0  0  0  0  0  0  0  0  0  0  0  0  # atno 8008 bound_to 7997
  155.2406  140.3344  155.4274 H   0  0  0  0  0  0  0  0  0  0  0  0  # atno 8009 bound_to 7997
  156.2212  140.1799  156.7457 H   0  0  0  0  0  0  0  0  0  0  0  0  # atno 8010 bound_to 7997
  140.4143  143.2610  151.8975 H   0  0  0  0  0  0  0  0  0  0  0  0  # atno 10167 bound_to 10162
  157.6626  131.0874  150.6165 H   0  0  0  0  0  0  0  0  0  0  0  0  # atno 10718 bound_to 10713
  154.6211  135.2875  155.0324 H   0  0  0  0  0  0  0  0  0  0  0  0  # atno 10763 bound_to 10752
  154.1519  135.6502  153.4969 H   0  0  0  0  0  0  0  0  0  0  0  0  # atno 10764 bound_to 10752
  153.0236  135.5357  154.7002 H   0  0  0  0  0  0  0  0  0  0  0  0  # atno 10765 bound_to 10752
  140.7111  133.8908  155.8751 H   0  0  0  0  0  0  0  0  0  0  0  0  # atno 11005 bound_to 11000
  145.0145  139.3480  143.6103 LP  0  0  0  0  0  0  0  0  0  0  0  0  # atno 17320 bound_to 7965
  146.3454  139.9420  142.8740 LP  0  0  0  0  0  0  0  0  0  0  0  0  # atno 17321 bound_to 7965
  139.4782  144.5504  151.8395 LP  0  0  0  0  0  0  0  0  0  0  0  0  # atno 17342 bound_to 10162
  140.4603  144.1731  150.5905 LP  0  0  0  0  0  0  0  0  0  0  0  0  # atno 17343 bound_to 10162
  156.6467  130.4473  149.5733 LP  0  0  0  0  0  0  0  0  0  0  0  0  # atno 17370 bound_to 10713
  156.2168  130.6713  151.1327 LP  0  0  0  0  0  0  0  0  0  0  0  0  # atno 17371 bound_to 10713
  141.0084  134.1055  157.4247 LP  0  0  0  0  0  0  0  0  0  0  0  0  # atno 17394 bound_to 11000
  139.8871  135.0087  156.6542 LP  0  0  0  0  0  0  0  0  0  0  0  0  # atno 17395 bound_to 11000

$$$$
