AV-unprocessed.smi:2801|AV-procd|sdf|10798|dock5
  -GOLD-   2272015233D 1   1.00000     0.00000
 Structure written by MMmdl.
 32 32  0  0  0  0  0  0  0  0  3 V2000
  153.7161  141.7551  160.7380 C   0  0  0  0  0  0  0  0  0  0  0  0
  152.4532  142.5123  160.3219 C   0  0  0  0  0  0  0  0  0  0  0  0
  152.0384  142.0345  159.0481 O   0  0  0  0  0  0  0  0  0  0  0  0
  150.9553  142.7439  158.4508 C   0  0  1  0  0  0  0  0  0  0  0  0
  151.5384  143.9661  157.7166 C   0  0  0  0  0  0  0  0  0  0  0  0
  152.1186  145.0140  158.6746 C   0  0  0  0  0  0  0  0  0  0  0  0
  150.1933  141.8251  157.4817 C   0  0  0  0  0  0  0  0  0  0  0  0
  148.9664  141.7546  157.5501 O   0  0  0  0  0  0  0  0  0  0  0  0
  150.9532  141.1704  156.5847 N   0  0  0  0  0  0  0  0  0  0  0  0
  150.5700  140.2605  155.5589 C   0  0  0  0  0  0  0  0  0  0  0  0
  149.2567  140.1801  155.0280 C   0  0  0  0  0  0  0  0  0  0  0  0
  148.9710  139.2334  154.0239 C   0  0  0  0  0  0  0  0  0  0  0  0
  149.9402  138.4056  153.5810 N   0  3  0  0  0  0  0  0  0  0  0  0
  151.1998  138.4346  154.0630 C   0  0  0  0  0  0  0  0  0  0  0  0
  151.5490  139.3601  155.0674 C   0  0  0  0  0  0  0  0  0  0  0  0
  152.8297  139.3693  155.5451 O   0  5  0  0  0  0  0  0  0  0  0  0
  154.0699  142.0925  161.7122 H   0  0  0  0  0  0  0  0  0  0  0  0
  154.5198  141.9094  160.0176 H   0  0  0  0  0  0  0  0  0  0  0  0
  153.5252  140.6836  160.8035 H   0  0  0  0  0  0  0  0  0  0  0  0
  151.6759  142.3636  161.0721 H   0  0  0  0  0  0  0  0  0  0  0  0
  152.6632  143.5816  160.2712 H   0  0  0  0  0  0  0  0  0  0  0  0
  150.2762  143.0981  159.2294 H   0  0  0  0  0  0  0  0  0  0  0  0
  152.3146  143.6481  157.0190 H   0  0  0  0  0  0  0  0  0  0  0  0
  150.7611  144.4395  157.1150 H   0  0  0  0  0  0  0  0  0  0  0  0
  152.5077  145.8702  158.1235 H   0  0  0  0  0  0  0  0  0  0  0  0
  152.9363  144.6003  159.2654 H   0  0  0  0  0  0  0  0  0  0  0  0
  151.3580  145.3805  159.3644 H   0  0  0  0  0  0  0  0  0  0  0  0
  151.9390  141.3914  156.6000 H   0  0  0  0  0  0  0  0  0  0  0  0
  148.4570  140.8142  155.3761 H   0  0  0  0  0  0  0  0  0  0  0  0
  147.9991  139.1104  153.5694 H   0  0  0  0  0  0  0  0  0  0  0  0
  151.8868  137.7188  153.6352 H   0  0  0  0  0  0  0  0  0  0  0  0
  149.7112  137.7265  152.8553 H   0  0  0  0  0  0  0  0  0  0  0  0
  1  2  1  0  0  0  0
  1 17  1  0  0  0  0
  1 18  1  0  0  0  0
  1 19  1  0  0  0  0
  2  3  1  0  0  0  0
  2 20  1  0  0  0  0
  2 21  1  0  0  0  0
  3  4  1  0  0  0  0
  4  5  1  0  0  0  0
  4  7  1  0  0  0  0
  4 22  1  0  0  0  0
  5  6  1  0  0  0  0
  5 23  1  0  0  0  0
  5 24  1  0  0  0  0
  6 25  1  0  0  0  0
  6 26  1  0  0  0  0
  6 27  1  0  0  0  0
  7  8  2  0  0  0  0
  7  9  1  0  0  0  0
  9 28  1  0  0  0  0
  9 10  1  0  0  0  0
 10 11  2  0  0  0  0
 10 15  1  0  0  0  0
 11 12  1  0  0  0  0
 11 29  1  0  0  0  0
 12 13  2  0  0  0  0
 12 30  1  0  0  0  0
 13 14  1  0  0  0  0
 13 32  1  0  0  0  0
 14 15  2  0  0  0  0
 14 31  1  0  0  0  0
 15 16  1  0  0  0  0
M  CHG  1  13   1
M  CHG  1  16  -1
M  END
> <s_m_source_file>
AV-unprocessed.smi

> <i_m_source_file_index>
2801

> <i_lp_mmshare_version>
43012

> <i_f3d_flags>
0

> <s_epik_input>
W0NIM11bQ0gyXU9bQ0BIXShbQ0gyXVtDSDNdKUMoPU8pW05IXWMxW2NIXVtjSF1uW2NIXWMxW09IXQ==

> <s_epik_cmdline>
J2VwaWtfcHl0aG9uJywgJy1waCcsICc3LjAnLCAnLXRuJywgJzgnLCAnLW1hJywgJzIwMCcsICctbWV0YWxfYmluZGluZycsICctaW1hZScsICc8aW5maWxlLm1hZT4nLCAnLW9tYWUnLCAnPG91dGZpbGUubWFlPic=

> <r_lp_tautomer_probability>
0.56342

> <r_epik_Ionization_Penalty>
0.0170685

> <r_epik_Ionization_Penalty_Charging>
0.0170685

> <r_epik_Ionization_Penalty_Neutral>
1.5328e-09

> <r_epik_State_Penalty>
0.331557

> <r_epik_Charging_Adjusted_Penalty>
0.348625

> <i_epik_Tot_Q>
0

> <i_epik_Tot_abs_Q>
2

> <r_epik_Metal_State_Penalty>
0.590147

> <b_epik_Metal_Only>
0

> <s_lp_Force_Field>
OPLS_2005

> <r_lp_Energy>
9.87866

> <b_lp_Chiralities_Consistent>
1

> <s_lp_Variant>
AV-unprocessed.smi:2801-2

> <Gold.Version>
5.8.1

> <Gold.Id.Protein>
6NUR|6NUR_protein|mol2

> <Gold.PLP.Fitness>
48.2202

> <Gold.PLP.PLP>
-37.3881

> <Gold.PLP.part.hbond>
-2.9788

> <Gold.PLP.part.metal>
0.0000

> <Gold.PLP.part.buried>
-5.0613

> <Gold.PLP.part.nonpolar>
-30.1574

> <Gold.PLP.part.repulsive>
0.2783

> <Gold.PLP.ligand.clash>
0.0000

> <Gold.PLP.ligand.torsion>
0.6163

> <Gold.PLP.Chemscore.Hbond>
4.0000

> <Gold.PLP.Chemscore.CHOScore>
0.0000

> <Gold.PLP.Chemscore.Metal>
0.0000

> <Gold.Chemscore.Hbonds>
donor molecule, donor type, donor heavy atom, donor atom, acceptor molecule, acceptor atom, score
      L1  H    13    32       P1  7948  2.00
      P1  H  7997  8008       L1    16  2.00

> <Gold.PLP.Chemscore.Internal.Correction>
0.0647

> <Gold.Rescore>
     Score         DG    S(hbond)    S(metal)    S(lipo)     H(rot)  DE(clash)    DE(int)     intcor
     16.83     -18.61       1.94        0.00      91.60       1.59       0.00       1.77       ----

> <Gold.Chemscore.Fitness>
16.8341

> <Gold.Chemscore.DG>
-18.6094

> <Gold.Chemscore.ZeroCoef>
-5.4800

> <Gold.Chemscore.Hbond>
1.9434

> <Gold.Chemscore.Metal>
0.0000

> <Gold.Chemscore.Lipo>
91.6001

> <Gold.Chemscore.Internal_Hbond>
0.0000

> <Gold.Chemscore.DEClash>
0.0021

> <Gold.Chemscore.DEInternal>
1.7731

> <Gold.Chemscore.Rot>
1.5933

> <Gold.Chemscore.Internal.Correction>
   9.000000E+99

> <Gold.Chemscore.Hbonds>
donor molecule, donor type, donor heavy atom, donor atom, acceptor molecule, acceptor atom, score
      L1  H    13    32       P1  7948  0.55
      P1  H  7997  8008       L1    16  1.00

> <Gold.Chemscore.Hbond.Weighted>
-6.4910

> <Gold.Chemscore.Metal.Weighted>
-0.0000

> <Gold.Chemscore.Lipo.Weighted>
-10.7172

> <Gold.Chemscore.Internal_Hbond.Weighted>
0.0000

> <Gold.Chemscore.DEClash.Weighted>
0.0021

> <Gold.Chemscore.DEInternal.Weighted>
1.7731

> <Gold.Chemscore.Rot.Weighted>
4.0789

> <Gold.Chemscore.Internal.Correction.Weighted>
   9.000000E+99

> <Gold.Protein.RotatedTorsions>
[ 6907 6896 6895 6894 ] final   -2.67 input  -60.11 | X-H torsion
[ 7974 7965 7964 7962 ] final   -0.94 input  175.53 | X-H torsion
[ 8008 7997 7996 7995 ] final  -17.96 input   59.86 | X-H torsion
[ 10167 10162 10161 10158 ] final -122.15 input  -65.29 | X-H torsion
[ 10718 10713 10712 10709 ] final   34.63 input   66.30 | X-H torsion
[ 10763 10752 10751 10750 ] final    1.72 input  -60.55 | X-H torsion
[ 11005 11000 10999 10996 ] final  119.08 input  -57.11 | X-H torsion

> <Gold.Protein.ActiveResidues>
 VAL166  LYS551  ARG553  GLY616  TRP617  ASP618  TYR619  PRO620  LYS621  CYS622 
 ASP623  PHE694  ASN695  SER759  ASP760  ASP761  ALA762  ILE779  LEU786  VAL792 
 PHE793  MET794  SER795  GLU796  ALA797  LYS798  CYS799  TRP800  GLU811  SER814 

> <Gold.Protein.RotatedAtoms>
  151.5261  135.1068  159.9890 H   0  0  0  0  0  0  0  0  0  0  0  0  # atno 6907 bound_to 6896
  152.4599  133.7796  159.6854 H   0  0  0  0  0  0  0  0  0  0  0  0  # atno 6908 bound_to 6896
  150.8557  133.7654  159.3035 H   0  0  0  0  0  0  0  0  0  0  0  0  # atno 6909 bound_to 6896
  146.2422  140.1345  142.8337 H   0  0  0  0  0  0  0  0  0  0  0  0  # atno 7974 bound_to 7965
  154.4940  140.2128  155.9486 H   0  0  0  0  0  0  0  0  0  0  0  0  # atno 8008 bound_to 7997
  156.1345  140.3191  155.8368 H   0  0  0  0  0  0  0  0  0  0  0  0  # atno 8009 bound_to 7997
  155.4235  140.0498  157.3014 H   0  0  0  0  0  0  0  0  0  0  0  0  # atno 8010 bound_to 7997
  140.0173  143.5380  152.2236 H   0  0  0  0  0  0  0  0  0  0  0  0  # atno 10167 bound_to 10162
  157.3127  130.7407  149.6735 H   0  0  0  0  0  0  0  0  0  0  0  0  # atno 10718 bound_to 10713
  153.3045  135.6958  153.7172 H   0  0  0  0  0  0  0  0  0  0  0  0  # atno 10763 bound_to 10752
  153.6073  135.3451  155.2967 H   0  0  0  0  0  0  0  0  0  0  0  0  # atno 10764 bound_to 10752
  154.8559  135.4355  154.2166 H   0  0  0  0  0  0  0  0  0  0  0  0  # atno 10765 bound_to 10752
  139.9133  134.9626  156.7601 H   0  0  0  0  0  0  0  0  0  0  0  0  # atno 11005 bound_to 11000
  145.0298  140.8862  143.5116 LP  0  0  0  0  0  0  0  0  0  0  0  0  # atno 17320 bound_to 7965
  145.1407  139.2574  143.5491 LP  0  0  0  0  0  0  0  0  0  0  0  0  # atno 17321 bound_to 7965
  139.6163  144.7620  151.2838 LP  0  0  0  0  0  0  0  0  0  0  0  0  # atno 17342 bound_to 10162
  140.7357  143.6730  150.8066 LP  0  0  0  0  0  0  0  0  0  0  0  0  # atno 17343 bound_to 10162
  155.9679  130.4246  150.4618 LP  0  0  0  0  0  0  0  0  0  0  0  0  # atno 17370 bound_to 10713
  157.2620  131.0569  151.2314 LP  0  0  0  0  0  0  0  0  0  0  0  0  # atno 17371 bound_to 10713
  140.6704  133.9565  155.7853 LP  0  0  0  0  0  0  0  0  0  0  0  0  # atno 17394 bound_to 11000
  141.0581  134.0386  157.3695 LP  0  0  0  0  0  0  0  0  0  0  0  0  # atno 17395 bound_to 11000

$$$$
