AV-unprocessed.smi:2702|AV-procd|sdf|10430|dock7
  -GOLD-   2272014473D 1   1.00000     0.00000
 Structure written by MMmdl.
 47 48  0  0  0  0  0  0  0  0  1 V2000
  149.2789  133.4896  155.3384 C   0  0  0  0  0  0  0  0  0  0  0  0
  149.4311  134.8685  155.6246 O   0  0  0  0  0  0  0  0  0  0  0  0
  150.5019  135.4573  154.9066 C   0  0  0  0  0  0  0  0  0  0  0  0
  150.4894  136.9625  155.0791 C   0  0  0  0  0  0  0  0  0  0  0  0
  151.5287  137.6250  155.6378 C   0  0  0  0  0  0  0  0  0  0  0  0
  151.4837  139.0775  155.8066 C   0  0  0  0  0  0  0  0  0  0  0  0
  152.4142  139.7172  156.2978 O   0  0  0  0  0  0  0  0  0  0  0  0
  150.3306  139.6704  155.3779 N   0  0  0  0  0  0  0  0  0  0  0  0
  150.1368  141.1292  155.4731 C   0  0  0  0  0  0  0  0  0  0  0  0
  150.0027  141.6388  156.9162 C   0  0  0  0  0  0  0  0  0  0  0  0
  149.0038  141.3807  157.5892 O   0  0  0  0  0  0  0  0  0  0  0  0
  151.0427  142.3493  157.3800 N   0  0  0  0  0  0  0  0  0  0  0  0
  151.1628  142.9224  158.7203 C   0  0  2  0  0  0  0  0  0  0  0  0
  150.6121  144.3615  158.6926 C   0  0  0  0  0  0  0  0  0  0  0  0
  150.7740  145.0625  160.0485 C   0  0  0  0  0  0  0  0  0  0  0  0
  152.2388  145.0386  160.5121 C   0  0  0  0  0  0  0  0  0  0  0  0
  152.8073  143.6063  160.5732 C   0  0  1  0  0  0  0  0  0  0  0  0
  152.2328  142.8170  161.7676 C   0  0  0  0  0  0  0  0  0  0  0  0
  152.6378  142.8964  159.2029 C   0  0  1  0  0  0  0  0  0  0  0  0
  153.2545  141.4833  159.1961 C   0  0  0  0  0  0  0  0  0  0  0  0
  149.2741  138.9305  154.8098 C   0  0  0  0  0  0  0  0  0  0  0  0
  149.3399  137.6449  154.6684 N   0  0  0  0  0  0  0  0  0  0  0  0
  148.4487  133.0851  155.9172 H   0  0  0  0  0  0  0  0  0  0  0  0
  150.1775  132.9301  155.6020 H   0  0  0  0  0  0  0  0  0  0  0  0
  149.0625  133.3276  154.2816 H   0  0  0  0  0  0  0  0  0  0  0  0
  151.4547  135.0616  155.2626 H   0  0  0  0  0  0  0  0  0  0  0  0
  150.4266  135.2107  153.8462 H   0  0  0  0  0  0  0  0  0  0  0  0
  152.4053  137.0824  155.9605 H   0  0  0  0  0  0  0  0  0  0  0  0
  150.9584  141.6669  154.9961 H   0  0  0  0  0  0  0  0  0  0  0  0
  149.2481  141.4249  154.9122 H   0  0  0  0  0  0  0  0  0  0  0  0
  151.8197  142.5046  156.7542 H   0  0  0  0  0  0  0  0  0  0  0  0
  150.5563  142.3486  159.4225 H   0  0  0  0  0  0  0  0  0  0  0  0
  151.1315  144.9407  157.9275 H   0  0  0  0  0  0  0  0  0  0  0  0
  149.5589  144.3531  158.4095 H   0  0  0  0  0  0  0  0  0  0  0  0
  150.4263  146.0932  159.9749 H   0  0  0  0  0  0  0  0  0  0  0  0
  150.1381  144.5797  160.7909 H   0  0  0  0  0  0  0  0  0  0  0  0
  152.8385  145.6333  159.8216 H   0  0  0  0  0  0  0  0  0  0  0  0
  152.3308  145.5242  161.4843 H   0  0  0  0  0  0  0  0  0  0  0  0
  153.8780  143.7023  160.7594 H   0  0  0  0  0  0  0  0  0  0  0  0
  151.1683  142.6146  161.6548 H   0  0  0  0  0  0  0  0  0  0  0  0
  152.3635  143.3707  162.6977 H   0  0  0  0  0  0  0  0  0  0  0  0
  152.7387  141.8604  161.8961 H   0  0  0  0  0  0  0  0  0  0  0  0
  153.2163  143.4797  158.4843 H   0  0  0  0  0  0  0  0  0  0  0  0
  152.6596  140.7831  159.7828 H   0  0  0  0  0  0  0  0  0  0  0  0
  154.2643  141.4929  159.6068 H   0  0  0  0  0  0  0  0  0  0  0  0
  153.3245  141.0830  158.1845 H   0  0  0  0  0  0  0  0  0  0  0  0
  148.4074  139.5155  154.4974 H   0  0  0  0  0  0  0  0  0  0  0  0
  1  2  1  0  0  0  0
  1 23  1  0  0  0  0
  1 24  1  0  0  0  0
  1 25  1  0  0  0  0
  2  3  1  0  0  0  0
  3  4  1  0  0  0  0
  3 26  1  0  0  0  0
  3 27  1  0  0  0  0
  4 22  1  0  0  0  0
  4  5  2  0  0  0  0
  5  6  1  0  0  0  0
  5 28  1  0  0  0  0
  6  7  2  0  0  0  0
  6  8  1  0  0  0  0
  8  9  1  0  0  0  0
  8 21  1  0  0  0  0
  9 10  1  0  0  0  0
  9 29  1  0  0  0  0
  9 30  1  0  0  0  0
 10 11  2  0  0  0  0
 10 12  1  0  0  0  0
 12 13  1  0  0  0  0
 12 31  1  0  0  0  0
 13 19  1  0  0  0  0
 13 14  1  0  0  0  0
 13 32  1  0  0  0  0
 14 15  1  0  0  0  0
 14 33  1  0  0  0  0
 14 34  1  0  0  0  0
 15 16  1  0  0  0  0
 15 35  1  0  0  0  0
 15 36  1  0  0  0  0
 16 17  1  0  0  0  0
 16 37  1  0  0  0  0
 16 38  1  0  0  0  0
 17 18  1  0  0  0  0
 17 19  1  0  0  0  0
 17 39  1  0  0  0  0
 18 40  1  0  0  0  0
 18 41  1  0  0  0  0
 18 42  1  0  0  0  0
 19 20  1  0  0  0  0
 19 43  1  0  0  0  0
 20 44  1  0  0  0  0
 20 45  1  0  0  0  0
 20 46  1  0  0  0  0
 21 22  2  0  0  0  0
 21 47  1  0  0  0  0
M  END
> <s_m_source_file>
AV-unprocessed.smi

> <i_m_source_file_index>
2702

> <i_lp_mmshare_version>
43012

> <i_f3d_flags>
0

> <s_epik_input>
W0NIM11PW0NIMl1jMVtjSF1jKD1PKW4oW2NIXW4xKVtDSDJdQyg9TylbTkhdW0NAQEhdMltDSDJdW0NIMl1bQ0gyXVtDQEBIXShbQ0gzXSlbQ0BIXTJbQ0gzXQ==

> <s_epik_cmdline>
J2VwaWtfcHl0aG9uJywgJy1waCcsICc3LjAnLCAnLXRuJywgJzgnLCAnLW1hJywgJzIwMCcsICctbWV0YWxfYmluZGluZycsICctaW1hZScsICc8aW5maWxlLm1hZT4nLCAnLW9tYWUnLCAnPG91dGZpbGUubWFlPic=

> <r_lp_tautomer_probability>
1

> <r_epik_Ionization_Penalty>
1.22164e-06

> <r_epik_Ionization_Penalty_Charging>
3.17988e-07

> <r_epik_Ionization_Penalty_Neutral>
9.03656e-07

> <r_epik_State_Penalty>
-0

> <r_epik_Charging_Adjusted_Penalty>
3.17988e-07

> <i_epik_Tot_Q>
0

> <i_epik_Tot_abs_Q>
0

> <r_epik_Metal_State_Penalty>
-0

> <b_epik_Metal_Only>
0

> <s_lp_Force_Field>
OPLS_2005

> <r_lp_Energy>
19.3371

> <b_lp_Chiralities_Consistent>
1

> <s_lp_Variant>
AV-unprocessed.smi:2702-1

> <Gold.Version>
5.8.1

> <Gold.Id.Protein>
6NUR|6NUR_protein|mol2

> <Gold.PLP.Fitness>
43.8151

> <Gold.PLP.PLP>
-41.9003

> <Gold.PLP.part.hbond>
-1.0000

> <Gold.PLP.part.metal>
0.0000

> <Gold.PLP.part.buried>
-5.1070

> <Gold.PLP.part.nonpolar>
-36.7341

> <Gold.PLP.part.repulsive>
0.9242

> <Gold.PLP.ligand.clash>
0.0000

> <Gold.PLP.ligand.torsion>
0.5477

> <Gold.PLP.Chemscore.Hbond>
1.0000

> <Gold.PLP.Chemscore.CHOScore>
0.0000

> <Gold.PLP.Chemscore.Metal>
0.0000

> <Gold.Chemscore.Hbonds>
donor molecule, donor type, donor heavy atom, donor atom, acceptor molecule, acceptor atom, score
      P1  H  7997  8008       L1     7  1.00

> <Gold.PLP.Chemscore.Internal.Correction>
0.0102

> <Gold.Rescore>
     Score         DG    S(hbond)    S(metal)    S(lipo)     H(rot)  DE(clash)    DE(int)     intcor
     16.75     -17.57       0.99        0.00     117.26       1.93       0.06       0.76       ----

> <Gold.Chemscore.Fitness>
16.7495

> <Gold.Chemscore.DG>
-17.5745

> <Gold.Chemscore.ZeroCoef>
-5.4800

> <Gold.Chemscore.Hbond>
0.9915

> <Gold.Chemscore.Metal>
0.0000

> <Gold.Chemscore.Lipo>
117.2628

> <Gold.Chemscore.Internal_Hbond>
0.0000

> <Gold.Chemscore.DEClash>
0.0640

> <Gold.Chemscore.DEInternal>
0.7609

> <Gold.Chemscore.Rot>
1.9284

> <Gold.Chemscore.Internal.Correction>
   9.000000E+99

> <Gold.Chemscore.Hbonds>
donor molecule, donor type, donor heavy atom, donor atom, acceptor molecule, acceptor atom, score
      P1  H  7997  8008       L1     7  0.98

> <Gold.Chemscore.Hbond.Weighted>
-3.3115

> <Gold.Chemscore.Metal.Weighted>
-0.0000

> <Gold.Chemscore.Lipo.Weighted>
-13.7197

> <Gold.Chemscore.Internal_Hbond.Weighted>
0.0000

> <Gold.Chemscore.DEClash.Weighted>
0.0640

> <Gold.Chemscore.DEInternal.Weighted>
0.7609

> <Gold.Chemscore.Rot.Weighted>
4.9368

> <Gold.Chemscore.Internal.Correction.Weighted>
   9.000000E+99

> <Gold.Protein.RotatedTorsions>
[ 6907 6896 6895 6894 ] final   59.09 input  -60.11 | X-H torsion
[ 7974 7965 7964 7962 ] final  -60.22 input  175.53 | X-H torsion
[ 8008 7997 7996 7995 ] final  -49.92 input   59.86 | X-H torsion
[ 10167 10162 10161 10158 ] final  109.26 input  -65.29 | X-H torsion
[ 10718 10713 10712 10709 ] final  -13.05 input   66.30 | X-H torsion
[ 10763 10752 10751 10750 ] final   -1.23 input  -60.55 | X-H torsion
[ 11005 11000 10999 10996 ] final  -25.62 input  -57.11 | X-H torsion

> <Gold.Protein.ActiveResidues>
 VAL166  LYS551  ARG553  GLY616  TRP617  ASP618  TYR619  PRO620  LYS621  CYS622 
 ASP623  PHE694  ASN695  SER759  ASP760  ASP761  ALA762  ILE779  LEU786  VAL792 
 PHE793  MET794  SER795  GLU796  ALA797  LYS798  CYS799  TRP800  GLU811  SER814 

> <Gold.Protein.RotatedAtoms>
  152.3883  134.6482  160.0116 H   0  0  0  0  0  0  0  0  0  0  0  0  # atno 6907 bound_to 6896
  151.6724  133.3308  159.3207 H   0  0  0  0  0  0  0  0  0  0  0  0  # atno 6908 bound_to 6896
  150.7804  134.6788  159.6477 H   0  0  0  0  0  0  0  0  0  0  0  0  # atno 6909 bound_to 6896
  145.8181  140.8557  143.0147 H   0  0  0  0  0  0  0  0  0  0  0  0  # atno 7974 bound_to 7965
  154.4052  140.1285  156.4581 H   0  0  0  0  0  0  0  0  0  0  0  0  # atno 8008 bound_to 7997
  155.7300  140.3491  155.5035 H   0  0  0  0  0  0  0  0  0  0  0  0  # atno 8009 bound_to 7997
  155.9136  140.1040  157.1250 H   0  0  0  0  0  0  0  0  0  0  0  0  # atno 8010 bound_to 7997
  139.6780  144.7120  151.1566 H   0  0  0  0  0  0  0  0  0  0  0  0  # atno 10167 bound_to 10162
  156.6358  130.4914  149.6112 H   0  0  0  0  0  0  0  0  0  0  0  0  # atno 10718 bound_to 10713
  153.3422  135.6981  153.6858 H   0  0  0  0  0  0  0  0  0  0  0  0  # atno 10763 bound_to 10752
  153.5618  135.3533  155.2803 H   0  0  0  0  0  0  0  0  0  0  0  0  # atno 10764 bound_to 10752
  154.8638  135.4251  154.2637 H   0  0  0  0  0  0  0  0  0  0  0  0  # atno 10765 bound_to 10752
  140.8954  133.7560  156.0475 H   0  0  0  0  0  0  0  0  0  0  0  0  # atno 11005 bound_to 11000
  144.6750  140.0493  143.7479 LP  0  0  0  0  0  0  0  0  0  0  0  0  # atno 17320 bound_to 7965
  145.9705  139.2866  143.1101 LP  0  0  0  0  0  0  0  0  0  0  0  0  # atno 17321 bound_to 7965
  140.7642  143.5742  150.8963 LP  0  0  0  0  0  0  0  0  0  0  0  0  # atno 17342 bound_to 10162
  139.9412  143.6380  152.3053 LP  0  0  0  0  0  0  0  0  0  0  0  0  # atno 17343 bound_to 10162
  156.2198  130.6730  151.1356 LP  0  0  0  0  0  0  0  0  0  0  0  0  # atno 17370 bound_to 10713
  157.7186  131.0695  150.6228 LP  0  0  0  0  0  0  0  0  0  0  0  0  # atno 17371 bound_to 10713
  140.8295  134.3194  157.5354 LP  0  0  0  0  0  0  0  0  0  0  0  0  # atno 17394 bound_to 11000
  139.8735  134.9355  156.3636 LP  0  0  0  0  0  0  0  0  0  0  0  0  # atno 17395 bound_to 11000

$$$$
