AV-unprocessed.smi:772|AV-procd|sdf|3687|dock6
  -GOLD-   22720 1103D 1   1.00000     0.00000
 Structure written by MMmdl.
 47 48  0  0  0  0  0  0  0  0  2 V2000
  145.7073  131.8229  149.8581 C   0  0  0  0  0  0  0  0  0  0  0  0
  146.0390  132.5746  151.1294 C   0  0  0  0  0  0  0  0  0  0  0  0
  145.1058  133.4133  151.7753 C   0  0  0  0  0  0  0  0  0  0  0  0
  145.4886  134.0920  152.9505 C   0  0  0  0  0  0  0  0  0  0  0  0
  146.7958  133.9198  153.4559 C   0  0  0  0  0  0  0  0  0  0  0  0
  147.2454  134.6698  154.6974 C   0  0  0  0  0  0  0  0  0  0  0  0
  146.9393  136.1796  154.6491 C   0  0  0  0  0  0  0  0  0  0  0  0
  148.1442  136.9881  154.4776 N   0  0  0  0  0  0  0  0  0  0  0  0
  148.3433  138.2227  154.9727 C   0  0  0  0  0  0  0  0  0  0  0  0
  147.4884  138.8071  155.6399 O   0  0  0  0  0  0  0  0  0  0  0  0
  149.5315  138.7846  154.6349 N   0  0  0  0  0  0  0  0  0  0  0  0
  150.6283  138.1171  153.9161 C   0  0  0  0  0  0  0  0  0  0  0  0
  151.6475  137.5927  154.9388 C   0  0  0  0  0  0  0  0  0  0  0  0
  152.3895  138.9631  155.8773 S   0  0  0  0  0  0  0  0  0  0  0  0
  150.8816  139.8591  156.3933 C   0  0  1  0  0  0  0  0  0  0  0  0
  151.2074  141.1698  157.1534 C   0  0  0  0  0  0  0  0  0  0  0  0
  152.2025  140.9882  158.3151 C   0  0  0  0  0  0  0  0  0  0  0  0
  149.9346  141.8900  157.6300 C   0  0  0  0  0  0  0  0  0  0  0  0
  149.9507  140.0818  155.1800 C   0  0  0  0  0  0  0  0  0  0  0  0
  147.6836  133.0616  152.7716 C   0  0  0  0  0  0  0  0  0  0  0  0
  147.2791  132.4308  151.6480 N   0  3  0  0  0  0  0  0  0  0  0  0
  144.6475  131.9084  149.6162 H   0  0  0  0  0  0  0  0  0  0  0  0
  145.9465  130.7647  149.9661 H   0  0  0  0  0  0  0  0  0  0  0  0
  146.2817  132.2234  149.0223 H   0  0  0  0  0  0  0  0  0  0  0  0
  144.1110  133.5428  151.3743 H   0  0  0  0  0  0  0  0  0  0  0  0
  144.7901  134.7473  153.4503 H   0  0  0  0  0  0  0  0  0  0  0  0
  146.7574  134.2267  155.5662 H   0  0  0  0  0  0  0  0  0  0  0  0
  148.3158  134.5161  154.8417 H   0  0  0  0  0  0  0  0  0  0  0  0
  146.2160  136.3950  153.8610 H   0  0  0  0  0  0  0  0  0  0  0  0
  146.4652  136.4821  155.5830 H   0  0  0  0  0  0  0  0  0  0  0  0
  148.8891  136.5776  153.9336 H   0  0  0  0  0  0  0  0  0  0  0  0
  150.2903  137.3016  153.2766 H   0  0  0  0  0  0  0  0  0  0  0  0
  151.1116  138.8217  153.2378 H   0  0  0  0  0  0  0  0  0  0  0  0
  151.1706  136.9003  155.6333 H   0  0  0  0  0  0  0  0  0  0  0  0
  152.4437  137.0439  154.4358 H   0  0  0  0  0  0  0  0  0  0  0  0
  150.3573  139.2029  157.0896 H   0  0  0  0  0  0  0  0  0  0  0  0
  151.6827  141.8401  156.4362 H   0  0  0  0  0  0  0  0  0  0  0  0
  151.8033  140.3384  159.0938 H   0  0  0  0  0  0  0  0  0  0  0  0
  152.4334  141.9470  158.7801 H   0  0  0  0  0  0  0  0  0  0  0  0
  153.1467  140.5635  157.9761 H   0  0  0  0  0  0  0  0  0  0  0  0
  149.4015  141.3117  158.3847 H   0  0  0  0  0  0  0  0  0  0  0  0
  149.2489  142.0692  156.8014 H   0  0  0  0  0  0  0  0  0  0  0  0
  150.1752  142.8587  158.0690 H   0  0  0  0  0  0  0  0  0  0  0  0
  150.4585  140.6555  154.4043 H   0  0  0  0  0  0  0  0  0  0  0  0
  149.0917  140.6891  155.4691 H   0  0  0  0  0  0  0  0  0  0  0  0
  148.7026  132.8739  153.0770 H   0  0  0  0  0  0  0  0  0  0  0  0
  147.9407  131.8215  151.1663 H   0  0  0  0  0  0  0  0  0  0  0  0
  1  2  1  0  0  0  0
  1 22  1  0  0  0  0
  1 23  1  0  0  0  0
  1 24  1  0  0  0  0
  2 21  1  0  0  0  0
  2  3  2  0  0  0  0
  3  4  1  0  0  0  0
  3 25  1  0  0  0  0
  4  5  2  0  0  0  0
  4 26  1  0  0  0  0
  5  6  1  0  0  0  0
  5 20  1  0  0  0  0
  6  7  1  0  0  0  0
  6 27  1  0  0  0  0
  6 28  1  0  0  0  0
  7  8  1  0  0  0  0
  7 29  1  0  0  0  0
  7 30  1  0  0  0  0
  8  9  1  0  0  0  0
  8 31  1  0  0  0  0
  9 10  2  0  0  0  0
  9 11  1  0  0  0  0
 11 19  1  0  0  0  0
 11 12  1  0  0  0  0
 12 13  1  0  0  0  0
 12 32  1  0  0  0  0
 12 33  1  0  0  0  0
 13 14  1  0  0  0  0
 13 34  1  0  0  0  0
 13 35  1  0  0  0  0
 14 15  1  0  0  0  0
 15 16  1  0  0  0  0
 15 19  1  0  0  0  0
 15 36  1  0  0  0  0
 16 17  1  0  0  0  0
 16 18  1  0  0  0  0
 16 37  1  0  0  0  0
 17 38  1  0  0  0  0
 17 39  1  0  0  0  0
 17 40  1  0  0  0  0
 18 41  1  0  0  0  0
 18 42  1  0  0  0  0
 18 43  1  0  0  0  0
 19 44  1  0  0  0  0
 19 45  1  0  0  0  0
 20 21  2  0  0  0  0
 20 46  1  0  0  0  0
 21 47  1  0  0  0  0
M  CHG  1  21   1
M  END
> <s_m_source_file>
AV-unprocessed.smi

> <i_m_source_file_index>
772

> <i_lp_mmshare_version>
43012

> <i_f3d_flags>
0

> <s_epik_input>
W0NIM11jMVtjSF1bY0hdYyhbY0hdbjEpW0NIMl1bQ0gyXVtOSF1DKD1PKU4yW0NIMl1bQ0gyXVNbQ0BIXShbQ0gyXTIpW0NIXShbQ0gzXSlbQ0gzXQ==

> <s_epik_cmdline>
J2VwaWtfcHl0aG9uJywgJy1waCcsICc3LjAnLCAnLXRuJywgJzgnLCAnLW1hJywgJzIwMCcsICctbWV0YWxfYmluZGluZycsICctaW1hZScsICc8aW5maWxlLm1hZT4nLCAnLW9tYWUnLCAnPG91dGZpbGUubWFlPic=

> <r_epik_Ionization_Penalty>
1.41908

> <r_epik_Ionization_Penalty_Charging>
1.41903

> <r_epik_Ionization_Penalty_Neutral>
4.72921e-05

> <r_epik_State_Penalty>
1.50265

> <r_epik_Charging_Adjusted_Penalty>
2.92168

> <i_epik_Tot_Q>
1

> <i_epik_Tot_abs_Q>
1

> <r_epik_Metal_State_Penalty>
1.55496

> <b_epik_Metal_Only>
0

> <s_lp_Force_Field>
OPLS_2005

> <r_lp_Energy>
32.521

> <b_lp_Chiralities_Consistent>
1

> <s_lp_Variant>
AV-unprocessed.smi:772-3

> <Gold.Version>
5.8.1

> <Gold.Id.Protein>
6NUR|6NUR_protein|mol2

> <Gold.PLP.Fitness>
39.7454

> <Gold.PLP.PLP>
-36.1647

> <Gold.PLP.part.hbond>
-2.0000

> <Gold.PLP.part.metal>
0.0000

> <Gold.PLP.part.buried>
-2.9382

> <Gold.PLP.part.nonpolar>
-30.9689

> <Gold.PLP.part.repulsive>
0.0658

> <Gold.PLP.ligand.clash>
0.0000

> <Gold.PLP.ligand.torsion>
0.6683

> <Gold.PLP.Chemscore.Hbond>
1.6080

> <Gold.PLP.Chemscore.CHOScore>
0.0000

> <Gold.PLP.Chemscore.Metal>
0.0000

> <Gold.Chemscore.Hbonds>
donor molecule, donor type, donor heavy atom, donor atom, acceptor molecule, acceptor atom, score
      L1  H     8    31       P1  7948  0.51
      L1  H    21    47       P1 10747  1.00

> <Gold.PLP.Chemscore.Internal.Correction>
0.0934

> <Gold.Rescore>
     Score         DG    S(hbond)    S(metal)    S(lipo)     H(rot)  DE(clash)    DE(int)     intcor
     18.17     -18.95       1.70        0.00      97.27       1.39       0.12       0.67       ----

> <Gold.Chemscore.Fitness>
18.1651

> <Gold.Chemscore.DG>
-18.9548

> <Gold.Chemscore.ZeroCoef>
-5.4800

> <Gold.Chemscore.Hbond>
1.6960

> <Gold.Chemscore.Metal>
0.0000

> <Gold.Chemscore.Lipo>
97.2745

> <Gold.Chemscore.Internal_Hbond>
0.0000

> <Gold.Chemscore.DEClash>
0.1196

> <Gold.Chemscore.DEInternal>
0.6701

> <Gold.Chemscore.Rot>
1.3949

> <Gold.Chemscore.Internal.Correction>
   9.000000E+99

> <Gold.Chemscore.Hbonds>
donor molecule, donor type, donor heavy atom, donor atom, acceptor molecule, acceptor atom, score
      L1  H     8    31       P1  7948  0.49
      L1  H    21    47       P1 10747  1.00

> <Gold.Chemscore.Hbond.Weighted>
-5.6646

> <Gold.Chemscore.Metal.Weighted>
-0.0000

> <Gold.Chemscore.Lipo.Weighted>
-11.3811

> <Gold.Chemscore.Internal_Hbond.Weighted>
0.0000

> <Gold.Chemscore.DEClash.Weighted>
0.1196

> <Gold.Chemscore.DEInternal.Weighted>
0.6701

> <Gold.Chemscore.Rot.Weighted>
3.5709

> <Gold.Chemscore.Internal.Correction.Weighted>
   9.000000E+99

> <Gold.Protein.RotatedTorsions>
[ 6907 6896 6895 6894 ] final  165.18 input  -60.11 | X-H torsion
[ 7974 7965 7964 7962 ] final -152.82 input  175.53 | X-H torsion
[ 8008 7997 7996 7995 ] final   19.29 input   59.86 | X-H torsion
[ 10167 10162 10161 10158 ] final  -71.10 input  -65.29 | X-H torsion
[ 10718 10713 10712 10709 ] final  -66.05 input   66.30 | X-H torsion
[ 10763 10752 10751 10750 ] final  -51.43 input  -60.55 | X-H torsion
[ 11005 11000 10999 10996 ] final   34.44 input  -57.11 | X-H torsion

> <Gold.Protein.ActiveResidues>
 VAL166  LYS551  ARG553  GLY616  TRP617  ASP618  TYR619  PRO620  LYS621  CYS622 
 ASP623  PHE694  ASN695  SER759  ASP760  ASP761  ALA762  ILE779  LEU786  VAL792 
 PHE793  MET794  SER795  GLU796  ALA797  LYS798  CYS799  TRP800  GLU811  SER814 

> <Gold.Protein.RotatedAtoms>
  151.8984  133.3532  159.3822 H   0  0  0  0  0  0  0  0  0  0  0  0  # atno 6907 bound_to 6896
  150.7086  134.4853  159.5499 H   0  0  0  0  0  0  0  0  0  0  0  0  # atno 6908 bound_to 6896
  152.2436  134.8204  160.0507 H   0  0  0  0  0  0  0  0  0  0  0  0  # atno 6909 bound_to 6896
  144.7773  140.4609  143.5864 H   0  0  0  0  0  0  0  0  0  0  0  0  # atno 7974 bound_to 7965
  154.9185  140.3024  155.5228 H   0  0  0  0  0  0  0  0  0  0  0  0  # atno 8008 bound_to 7997
  156.3011  140.2376  156.4169 H   0  0  0  0  0  0  0  0  0  0  0  0  # atno 8009 bound_to 7997
  154.8354  140.0416  157.1494 H   0  0  0  0  0  0  0  0  0  0  0  0  # atno 8010 bound_to 7997
  140.5300  143.2322  151.7280 H   0  0  0  0  0  0  0  0  0  0  0  0  # atno 10167 bound_to 10162
  156.0634  130.4256  150.1652 H   0  0  0  0  0  0  0  0  0  0  0  0  # atno 10718 bound_to 10713
  154.1265  135.6526  153.4913 H   0  0  0  0  0  0  0  0  0  0  0  0  # atno 10763 bound_to 10752
  153.0208  135.5282  154.7044 H   0  0  0  0  0  0  0  0  0  0  0  0  # atno 10764 bound_to 10752
  154.6267  135.2971  155.0234 H   0  0  0  0  0  0  0  0  0  0  0  0  # atno 10765 bound_to 10752
  140.2528  134.3283  155.7884 H   0  0  0  0  0  0  0  0  0  0  0  0  # atno 11005 bound_to 11000
  145.6149  139.1517  143.3055 LP  0  0  0  0  0  0  0  0  0  0  0  0  # atno 17320 bound_to 7965
  146.1961  140.6263  142.9124 LP  0  0  0  0  0  0  0  0  0  0  0  0  # atno 17321 bound_to 7965
  139.4951  144.4129  152.0061 LP  0  0  0  0  0  0  0  0  0  0  0  0  # atno 17342 bound_to 10162
  140.3230  144.3405  150.6005 LP  0  0  0  0  0  0  0  0  0  0  0  0  # atno 17343 bound_to 10162
  156.9717  130.9836  151.3457 LP  0  0  0  0  0  0  0  0  0  0  0  0  # atno 17370 bound_to 10713
  157.5659  130.8277  149.8327 LP  0  0  0  0  0  0  0  0  0  0  0  0  # atno 17371 bound_to 10713
  141.2199  133.7363  156.9064 LP  0  0  0  0  0  0  0  0  0  0  0  0  # atno 17394 bound_to 11000
  140.1541  134.9210  157.2631 LP  0  0  0  0  0  0  0  0  0  0  0  0  # atno 17395 bound_to 11000

$$$$
