AV-unprocessed.smi:2895|AV-procd|sdf|11131|dock1
  -GOLD-   2272016 03D 1   1.00000     0.00000
 Structure written by MMmdl.
 53 56  0  0  0  0  0  0  0  0  2 V2000
  148.0226  139.0120  155.3238 O   0  0  0  0  0  0  0  0  0  0  0  0
  149.2153  139.1424  155.6018 C   0  0  0  0  0  0  0  0  0  0  0  0
  150.0878  138.1262  155.4907 N   0  0  0  0  0  0  0  0  0  0  0  0
  149.7532  136.7724  155.0634 C   0  0  0  0  0  0  0  0  0  0  0  0
  150.8241  135.7581  155.4990 C   0  0  0  0  0  0  0  0  0  0  0  0
  150.3510  134.3251  155.3513 C   0  0  0  0  0  0  0  0  0  0  0  0
  150.4792  133.4133  156.4192 C   0  0  0  0  0  0  0  0  0  0  0  0
  150.0239  132.0926  156.2336 C   0  0  0  0  0  0  0  0  0  0  0  0
  149.4698  131.6540  155.0827 N   0  0  0  0  0  0  0  0  0  0  0  0
  149.3504  132.5334  154.0646 C   0  0  0  0  0  0  0  0  0  0  0  0
  149.7732  133.8753  154.1462 C   0  0  0  0  0  0  0  0  0  0  0  0
  149.7573  140.3176  156.0113 N   0  0  0  0  0  0  0  0  0  0  0  0
  151.1842  140.5787  156.2581 C   0  0  0  0  0  0  0  0  0  0  0  0
  151.4102  140.7229  157.7762 C   0  0  0  0  0  0  0  0  0  0  0  0
  150.5545  141.7904  158.3702 N   0  3  0  0  0  0  0  0  0  0  0  0
  151.0463  143.1822  158.1365 C   0  0  1  0  0  0  0  0  0  0  0  0
  150.2414  144.2686  158.8917 C   0  0  0  0  0  0  0  0  0  0  0  0
  151.3363  145.1027  159.5826 C   0  0  1  0  0  0  0  0  0  0  0  0
  151.8725  144.3142  160.7894 C   0  0  0  0  0  0  0  0  0  0  0  0
  152.6645  143.1772  160.1198 C   0  0  0  0  0  0  0  0  0  0  0  0
  152.4920  143.4737  158.6140 C   0  0  2  0  0  0  0  0  0  0  0  0
  152.4985  144.9988  158.6028 C   0  0  0  0  0  0  0  0  0  0  0  0
  149.1204  141.6028  158.0047 C   0  0  0  0  0  0  0  0  0  0  0  0
  148.9261  141.4303  156.4839 C   0  0  0  0  0  0  0  0  0  0  0  0
  151.0556  138.3049  155.7159 H   0  0  0  0  0  0  0  0  0  0  0  0
  148.7738  136.4911  155.4542 H   0  0  0  0  0  0  0  0  0  0  0  0
  149.6653  136.7741  153.9766 H   0  0  0  0  0  0  0  0  0  0  0  0
  151.7329  135.9005  154.9123 H   0  0  0  0  0  0  0  0  0  0  0  0
  151.1024  135.9221  156.5409 H   0  0  0  0  0  0  0  0  0  0  0  0
  150.9147  133.7167  157.3603 H   0  0  0  0  0  0  0  0  0  0  0  0
  150.1065  131.3695  157.0315 H   0  0  0  0  0  0  0  0  0  0  0  0
  148.9045  132.1564  153.1562 H   0  0  0  0  0  0  0  0  0  0  0  0
  149.6555  134.5383  153.3017 H   0  0  0  0  0  0  0  0  0  0  0  0
  151.8502  139.8098  155.8672 H   0  0  0  0  0  0  0  0  0  0  0  0
  151.4733  141.4955  155.7431 H   0  0  0  0  0  0  0  0  0  0  0  0
  151.1509  139.7812  158.2619 H   0  0  0  0  0  0  0  0  0  0  0  0
  152.4651  140.8765  157.9967 H   0  0  0  0  0  0  0  0  0  0  0  0
  150.9996  143.3929  157.0675 H   0  0  0  0  0  0  0  0  0  0  0  0
  149.6692  144.8754  158.1890 H   0  0  0  0  0  0  0  0  0  0  0  0
  149.5420  143.8619  159.6235 H   0  0  0  0  0  0  0  0  0  0  0  0
  151.0254  146.1186  159.8282 H   0  0  0  0  0  0  0  0  0  0  0  0
  152.5326  144.9353  161.3965 H   0  0  0  0  0  0  0  0  0  0  0  0
  151.0751  143.9447  161.4352 H   0  0  0  0  0  0  0  0  0  0  0  0
  153.7166  143.2311  160.4035 H   0  0  0  0  0  0  0  0  0  0  0  0
  152.2981  142.1911  160.4054 H   0  0  0  0  0  0  0  0  0  0  0  0
  153.2645  143.0297  157.9858 H   0  0  0  0  0  0  0  0  0  0  0  0
  152.2794  145.4290  157.6239 H   0  0  0  0  0  0  0  0  0  0  0  0
  153.4258  145.4314  158.9834 H   0  0  0  0  0  0  0  0  0  0  0  0
  148.7598  140.7070  158.5122 H   0  0  0  0  0  0  0  0  0  0  0  0
  148.5015  142.4202  158.3731 H   0  0  0  0  0  0  0  0  0  0  0  0
  149.2095  142.3396  155.9531 H   0  0  0  0  0  0  0  0  0  0  0  0
  147.8668  141.2893  156.2649 H   0  0  0  0  0  0  0  0  0  0  0  0
  150.6099  141.6634  159.3708 H   0  0  0  0  0  0  0  0  0  0  0  0
  1  2  2  0  0  0  0
  2  3  1  0  0  0  0
  2 12  1  0  0  0  0
  3  4  1  0  0  0  0
  3 25  1  0  0  0  0
  4  5  1  0  0  0  0
  4 26  1  0  0  0  0
  4 27  1  0  0  0  0
  5  6  1  0  0  0  0
  5 28  1  0  0  0  0
  5 29  1  0  0  0  0
  6 11  1  0  0  0  0
  6  7  2  0  0  0  0
  7  8  1  0  0  0  0
  7 30  1  0  0  0  0
  8  9  2  0  0  0  0
  8 31  1  0  0  0  0
  9 10  1  0  0  0  0
 10 11  2  0  0  0  0
 10 32  1  0  0  0  0
 11 33  1  0  0  0  0
 12 24  1  0  0  0  0
 12 13  1  0  0  0  0
 13 14  1  0  0  0  0
 13 34  1  0  0  0  0
 13 35  1  0  0  0  0
 14 15  1  0  0  0  0
 14 36  1  0  0  0  0
 14 37  1  0  0  0  0
 15 16  1  0  0  0  0
 15 23  1  0  0  0  0
 15 53  1  0  0  0  0
 16 21  1  0  0  0  0
 16 17  1  0  0  0  0
 16 38  1  0  0  0  0
 17 18  1  0  0  0  0
 17 39  1  0  0  0  0
 17 40  1  0  0  0  0
 18 22  1  0  0  0  0
 18 19  1  0  0  0  0
 18 41  1  0  0  0  0
 19 20  1  0  0  0  0
 19 42  1  0  0  0  0
 19 43  1  0  0  0  0
 20 21  1  0  0  0  0
 20 44  1  0  0  0  0
 20 45  1  0  0  0  0
 21 22  1  0  0  0  0
 21 46  1  0  0  0  0
 22 47  1  0  0  0  0
 22 48  1  0  0  0  0
 23 24  1  0  0  0  0
 23 49  1  0  0  0  0
 23 50  1  0  0  0  0
 24 51  1  0  0  0  0
 24 52  1  0  0  0  0
M  CHG  1  15   1
M  END
> <s_m_source_file>
AV-unprocessed.smi

> <i_m_source_file_index>
2895

> <i_lp_mmshare_version>
43012

> <i_f3d_flags>
0

> <s_epik_input>
W0NIMl0xW0NIMl1bQ0BASF0oW0NIMl0yKVtDQEBIXShbQ0gyXVtDQEhdMTIpTihbQ0gyXVtDSDJdMylbQ0gyXVtDSDJdTjNDKD1PKVtOSF1bQ0gyXVtDSDJdYzRbY0hdW2NIXW5bY0hdW2NIXTQ=

> <s_epik_cmdline>
J2VwaWtfcHl0aG9uJywgJy1waCcsICc3LjAnLCAnLXRuJywgJzgnLCAnLW1hJywgJzIwMCcsICctbWV0YWxfYmluZGluZycsICctaW1hZScsICc8aW5maWxlLm1hZT4nLCAnLW9tYWUnLCAnPG91dGZpbGUubWFlPic=

> <r_epik_Ionization_Penalty>
0.0566172

> <r_epik_Ionization_Penalty_Charging>
0.00262064

> <r_epik_Ionization_Penalty_Neutral>
0.0539965

> <r_epik_State_Penalty>
0.0463959

> <r_epik_Charging_Adjusted_Penalty>
0.0490165

> <i_epik_Tot_Q>
1

> <i_epik_Tot_abs_Q>
1

> <r_epik_Metal_State_Penalty>
0.0424856

> <b_epik_Metal_Only>
0

> <s_lp_Force_Field>
OPLS_2005

> <r_lp_Energy>
99.8283

> <b_lp_Chiralities_Consistent>
1

> <s_lp_Variant>
AV-unprocessed.smi:2895-4

> <Gold.Version>
5.8.1

> <Gold.Id.Protein>
6NUR|6NUR_protein|mol2

> <Gold.PLP.Fitness>
45.5871

> <Gold.PLP.PLP>
-46.1262

> <Gold.PLP.part.hbond>
0.0000

> <Gold.PLP.part.metal>
0.0000

> <Gold.PLP.part.buried>
-6.6600

> <Gold.PLP.part.nonpolar>
-39.7933

> <Gold.PLP.part.repulsive>
0.1865

> <Gold.PLP.ligand.clash>
0.0000

> <Gold.PLP.ligand.torsion>
0.3572

> <Gold.PLP.Chemscore.Hbond>
0.0000

> <Gold.PLP.Chemscore.CHOScore>
0.0000

> <Gold.PLP.Chemscore.Metal>
0.0000

> <Gold.PLP.Chemscore.Internal.Correction>
0.1753

> <Gold.Rescore>
     Score         DG    S(hbond)    S(metal)    S(lipo)     H(rot)  DE(clash)    DE(int)     intcor
     18.14     -18.48       0.00        0.00     141.12       1.37       0.12       0.22       ----

> <Gold.Chemscore.Fitness>
18.1360

> <Gold.Chemscore.DG>
-18.4762

> <Gold.Chemscore.ZeroCoef>
-5.4800

> <Gold.Chemscore.Hbond>
0.0000

> <Gold.Chemscore.Metal>
0.0000

> <Gold.Chemscore.Lipo>
141.1232

> <Gold.Chemscore.Internal_Hbond>
0.0000

> <Gold.Chemscore.DEClash>
0.1152

> <Gold.Chemscore.DEInternal>
0.2250

> <Gold.Chemscore.Rot>
1.3731

> <Gold.Chemscore.Internal.Correction>
   9.000000E+99

> <Gold.Chemscore.Hbond.Weighted>
-0.0000

> <Gold.Chemscore.Metal.Weighted>
-0.0000

> <Gold.Chemscore.Lipo.Weighted>
-16.5114

> <Gold.Chemscore.Internal_Hbond.Weighted>
0.0000

> <Gold.Chemscore.DEClash.Weighted>
0.1152

> <Gold.Chemscore.DEInternal.Weighted>
0.2250

> <Gold.Chemscore.Rot.Weighted>
3.5152

> <Gold.Chemscore.Internal.Correction.Weighted>
   9.000000E+99

> <Gold.Protein.RotatedTorsions>
[ 6907 6896 6895 6894 ] final -111.41 input  -60.11 | X-H torsion
[ 7974 7965 7964 7962 ] final -132.32 input  175.53 | X-H torsion
[ 8008 7997 7996 7995 ] final -170.99 input   59.86 | X-H torsion
[ 10167 10162 10161 10158 ] final -141.50 input  -65.29 | X-H torsion
[ 10718 10713 10712 10709 ] final -157.70 input   66.30 | X-H torsion
[ 10763 10752 10751 10750 ] final   72.55 input  -60.55 | X-H torsion
[ 11005 11000 10999 10996 ] final -157.63 input  -57.11 | X-H torsion

> <Gold.Protein.ActiveResidues>
 VAL166  LYS551  ARG553  GLY616  TRP617  ASP618  TYR619  PRO620  LYS621  CYS622 
 ASP623  PHE694  ASN695  SER759  ASP760  ASP761  ALA762  ILE779  LEU786  VAL792 
 PHE793  MET794  SER795  GLU796  ALA797  LYS798  CYS799  TRP800  GLU811  SER814 

> <Gold.Protein.RotatedAtoms>
  150.7688  133.9239  159.3406 H   0  0  0  0  0  0  0  0  0  0  0  0  # atno 6907 bound_to 6896
  151.7131  135.0907  160.0280 H   0  0  0  0  0  0  0  0  0  0  0  0  # atno 6908 bound_to 6896
  152.3697  133.6365  159.6113 H   0  0  0  0  0  0  0  0  0  0  0  0  # atno 6909 bound_to 6896
  144.9297  140.7113  143.4914 H   0  0  0  0  0  0  0  0  0  0  0  0  # atno 7974 bound_to 7965
  155.9256  140.1082  157.1173 H   0  0  0  0  0  0  0  0  0  0  0  0  # atno 8008 bound_to 7997
  154.4061  140.1247  156.4801 H   0  0  0  0  0  0  0  0  0  0  0  0  # atno 8009 bound_to 7997
  155.7143  140.3470  155.4990 H   0  0  0  0  0  0  0  0  0  0  0  0  # atno 8010 bound_to 7997
  139.8179  143.7614  152.2665 H   0  0  0  0  0  0  0  0  0  0  0  0  # atno 10167 bound_to 10162
  156.5439  130.8575  151.2758 H   0  0  0  0  0  0  0  0  0  0  0  0  # atno 10718 bound_to 10713
  153.0465  135.5096  154.7760 H   0  0  0  0  0  0  0  0  0  0  0  0  # atno 10763 bound_to 10752
  154.6655  135.2945  154.9812 H   0  0  0  0  0  0  0  0  0  0  0  0  # atno 10764 bound_to 10752
  154.0648  135.6686  153.4869 H   0  0  0  0  0  0  0  0  0  0  0  0  # atno 10765 bound_to 10752
  140.6625  134.4334  157.5234 H   0  0  0  0  0  0  0  0  0  0  0  0  # atno 11005 bound_to 11000
  145.3163  139.1802  143.4612 LP  0  0  0  0  0  0  0  0  0  0  0  0  # atno 17320 bound_to 7965
  146.3241  140.3174  142.8631 LP  0  0  0  0  0  0  0  0  0  0  0  0  # atno 17321 bound_to 7965
  139.7783  144.7453  151.0125 LP  0  0  0  0  0  0  0  0  0  0  0  0  # atno 17342 bound_to 10162
  140.7815  143.4570  151.0332 LP  0  0  0  0  0  0  0  0  0  0  0  0  # atno 17343 bound_to 10162
  157.7400  130.9842  150.2350 LP  0  0  0  0  0  0  0  0  0  0  0  0  # atno 17370 bound_to 10713
  156.2946  130.3750  149.7808 LP  0  0  0  0  0  0  0  0  0  0  0  0  # atno 17371 bound_to 10713
  139.9008  134.8560  156.1904 LP  0  0  0  0  0  0  0  0  0  0  0  0  # atno 17394 bound_to 11000
  141.0454  133.6916  156.1674 LP  0  0  0  0  0  0  0  0  0  0  0  0  # atno 17395 bound_to 11000

$$$$
