AV-unprocessed.smi:1976|AV-procd|sdf|7989|dock7
  -GOLD-   2272010173D 1   1.00000     0.00000
 Structure written by MMmdl.
 45 47  0  0  0  0  0  0  0  0  2 V2000
  149.1419  140.6550  156.0531 O   0  0  0  0  0  0  0  0  0  0  0  0
  149.9621  139.7360  156.0441 C   0  0  0  0  0  0  0  0  0  0  0  0
  151.4696  140.0123  156.1360 C   0  0  0  0  0  0  0  0  0  0  0  0
  151.8964  140.5188  157.4513 N   0  0  0  0  0  0  0  0  0  0  0  0
  151.7361  141.8988  157.6843 C   0  0  0  0  0  0  0  0  0  0  0  0
  152.0909  142.4934  158.8393 C   0  0  0  0  0  0  0  0  0  0  0  0
  151.8484  143.9748  159.0832 C   0  0  0  0  0  0  0  0  0  0  0  0
  152.2102  144.3237  160.3181 F   0  0  0  0  0  0  0  0  0  0  0  0
  152.5621  144.6982  158.2214 F   0  0  0  0  0  0  0  0  0  0  0  0
  150.5617  144.2858  158.9199 F   0  0  0  0  0  0  0  0  0  0  0  0
  152.6284  141.6285  159.8713 C   0  0  0  0  0  0  0  0  0  0  0  0
  152.7757  140.3042  159.6697 C   0  0  0  0  0  0  0  0  0  0  0  0
  152.4011  139.6753  158.4010 C   0  0  0  0  0  0  0  0  0  0  0  0
  152.5296  138.4666  158.2051 O   0  0  0  0  0  0  0  0  0  0  0  0
  149.6116  138.4448  155.9413 N   0  0  0  0  0  0  0  0  0  0  0  0
  148.2402  137.9477  155.8453 C   0  0  2  0  0  0  0  0  0  0  0  0
  148.1617  136.4107  155.7730 C   0  0  0  0  0  0  0  0  0  0  0  0
  147.0587  136.1269  154.7481 C   0  0  0  0  0  0  0  0  0  0  0  0
  147.1952  137.2417  153.8037 N   0  3  1  0  0  0  0  0  0  0  0  0
  146.1364  137.4486  152.7952 C   0  0  0  0  0  0  0  0  0  0  0  0
  146.6042  138.5478  151.8170 C   0  0  0  0  0  0  0  0  0  0  0  0
  147.0475  139.8342  152.5503 C   0  0  0  0  0  0  0  0  0  0  0  0
  148.0574  139.5326  153.6790 C   0  0  0  0  0  0  0  0  0  0  0  0
  147.4677  138.4501  154.6014 C   0  0  2  0  0  0  0  0  0  0  0  0
  152.0095  139.0991  155.8796 H   0  0  0  0  0  0  0  0  0  0  0  0
  151.7388  140.7284  155.3580 H   0  0  0  0  0  0  0  0  0  0  0  0
  151.2948  142.4437  156.8622 H   0  0  0  0  0  0  0  0  0  0  0  0
  152.9212  142.0492  160.8220 H   0  0  0  0  0  0  0  0  0  0  0  0
  153.1811  139.6905  160.4608 H   0  0  0  0  0  0  0  0  0  0  0  0
  150.3493  137.7551  155.9418 H   0  0  0  0  0  0  0  0  0  0  0  0
  147.6929  138.2643  156.7357 H   0  0  0  0  0  0  0  0  0  0  0  0
  149.1043  136.0001  155.4073 H   0  0  0  0  0  0  0  0  0  0  0  0
  147.9582  135.9537  156.7421 H   0  0  0  0  0  0  0  0  0  0  0  0
  147.1769  135.1596  154.2589 H   0  0  0  0  0  0  0  0  0  0  0  0
  146.0757  136.1607  155.2210 H   0  0  0  0  0  0  0  0  0  0  0  0
  145.9530  136.5183  152.2565 H   0  0  0  0  0  0  0  0  0  0  0  0
  145.2022  137.7313  153.2826 H   0  0  0  0  0  0  0  0  0  0  0  0
  147.4414  138.1688  151.2292 H   0  0  0  0  0  0  0  0  0  0  0  0
  145.8111  138.7774  151.1050 H   0  0  0  0  0  0  0  0  0  0  0  0
  147.4781  140.5413  151.8408 H   0  0  0  0  0  0  0  0  0  0  0  0
  146.1704  140.3239  152.9754 H   0  0  0  0  0  0  0  0  0  0  0  0
  149.0052  139.1980  153.2551 H   0  0  0  0  0  0  0  0  0  0  0  0
  148.2623  140.4458  154.2384 H   0  0  0  0  0  0  0  0  0  0  0  0
  146.5084  138.8186  154.9717 H   0  0  0  0  0  0  0  0  0  0  0  0
  148.0435  137.0515  153.2894 H   0  0  0  0  0  0  0  0  0  0  0  0
  1  2  2  0  0  0  0
  2  3  1  0  0  0  0
  2 15  1  0  0  0  0
  3  4  1  0  0  0  0
  3 25  1  0  0  0  0
  3 26  1  0  0  0  0
  4 13  1  0  0  0  0
  4  5  1  0  0  0  0
  5  6  2  0  0  0  0
  5 27  1  0  0  0  0
  6  7  1  0  0  0  0
  6 11  1  0  0  0  0
  7  8  1  0  0  0  0
  7  9  1  0  0  0  0
  7 10  1  0  0  0  0
 11 12  2  0  0  0  0
 11 28  1  0  0  0  0
 12 13  1  0  0  0  0
 12 29  1  0  0  0  0
 13 14  2  0  0  0  0
 15 16  1  0  0  0  0
 15 30  1  0  0  0  0
 16 24  1  0  0  0  0
 16 17  1  0  0  0  0
 16 31  1  0  0  0  0
 17 18  1  0  0  0  0
 17 32  1  0  0  0  0
 17 33  1  0  0  0  0
 18 19  1  0  0  0  0
 18 34  1  0  0  0  0
 18 35  1  0  0  0  0
 19 24  1  0  0  0  0
 19 20  1  0  0  0  0
 19 45  1  0  0  0  0
 20 21  1  0  0  0  0
 20 36  1  0  0  0  0
 20 37  1  0  0  0  0
 21 22  1  0  0  0  0
 21 38  1  0  0  0  0
 21 39  1  0  0  0  0
 22 23  1  0  0  0  0
 22 40  1  0  0  0  0
 22 41  1  0  0  0  0
 23 24  1  0  0  0  0
 23 42  1  0  0  0  0
 23 43  1  0  0  0  0
 24 44  1  0  0  0  0
M  CHG  1  19   1
M  END
> <s_m_source_file>
AV-unprocessed.smi

> <i_m_source_file_index>
1976

> <i_lp_mmshare_version>
43012

> <i_f3d_flags>
0

> <s_epik_input>
W0NIMl0xW0NIMl1bQ0gyXVtDSDJdW0NASF0oTjEyKVtDQEBIXShbQ0gyXVtDSDJdMilbTkhdQyg9TylbQ0gyXW4zW2NIXWMoQyhGKShGKUYpW2NIXVtjSF1jMz1P

> <s_epik_cmdline>
J2VwaWtfcHl0aG9uJywgJy1waCcsICc3LjAnLCAnLXRuJywgJzgnLCAnLW1hJywgJzIwMCcsICctbWV0YWxfYmluZGluZycsICctaW1hZScsICc8aW5maWxlLm1hZT4nLCAnLW9tYWUnLCAnPG91dGZpbGUubWFlPic=

> <r_lp_tautomer_probability>
1

> <r_epik_Ionization_Penalty>
0.00171506

> <r_epik_Ionization_Penalty_Charging>
0.00171498

> <r_epik_Ionization_Penalty_Neutral>
7.81737e-08

> <r_epik_State_Penalty>
0.00115937

> <r_epik_Charging_Adjusted_Penalty>
0.00287436

> <i_epik_Tot_Q>
1

> <i_epik_Tot_abs_Q>
1

> <r_epik_Metal_State_Penalty>
-0

> <b_epik_Metal_Only>
0

> <s_lp_Force_Field>
OPLS_2005

> <r_lp_Energy>
53.4145

> <b_lp_Chiralities_Consistent>
1

> <s_lp_Variant>
AV-unprocessed.smi:1976-7

> <Gold.Version>
5.8.1

> <Gold.Id.Protein>
6NUR|6NUR_protein|mol2

> <Gold.PLP.Fitness>
46.7744

> <Gold.PLP.PLP>
-41.5968

> <Gold.PLP.part.hbond>
-1.0000

> <Gold.PLP.part.metal>
0.0000

> <Gold.PLP.part.buried>
-2.8312

> <Gold.PLP.part.nonpolar>
-38.9960

> <Gold.PLP.part.repulsive>
0.0562

> <Gold.PLP.ligand.clash>
0.0000

> <Gold.PLP.ligand.torsion>
0.4288

> <Gold.PLP.Chemscore.Hbond>
2.0000

> <Gold.PLP.Chemscore.CHOScore>
0.0000

> <Gold.PLP.Chemscore.Metal>
0.0000

> <Gold.Chemscore.Hbonds>
donor molecule, donor type, donor heavy atom, donor atom, acceptor molecule, acceptor atom, score
      L1  H    19    45       P1  7948  2.00

> <Gold.PLP.Chemscore.Internal.Correction>
0.0351

> <Gold.Rescore>
     Score         DG    S(hbond)    S(metal)    S(lipo)     H(rot)  DE(clash)    DE(int)     intcor
     14.19     -15.05       0.98        0.00      88.41       1.58       0.43       0.43       ----

> <Gold.Chemscore.Fitness>
14.1859

> <Gold.Chemscore.DG>
-15.0531

> <Gold.Chemscore.ZeroCoef>
-5.4800

> <Gold.Chemscore.Hbond>
0.9824

> <Gold.Chemscore.Metal>
0.0000

> <Gold.Chemscore.Lipo>
88.4118

> <Gold.Chemscore.Internal_Hbond>
0.0000

> <Gold.Chemscore.DEClash>
0.4347

> <Gold.Chemscore.DEInternal>
0.4325

> <Gold.Chemscore.Rot>
1.5830

> <Gold.Chemscore.Internal.Correction>
   9.000000E+99

> <Gold.Chemscore.Hbonds>
donor molecule, donor type, donor heavy atom, donor atom, acceptor molecule, acceptor atom, score
      L1  H    19    45       P1  7948  0.95

> <Gold.Chemscore.Hbond.Weighted>
-3.2813

> <Gold.Chemscore.Metal.Weighted>
-0.0000

> <Gold.Chemscore.Lipo.Weighted>
-10.3442

> <Gold.Chemscore.Internal_Hbond.Weighted>
0.0000

> <Gold.Chemscore.DEClash.Weighted>
0.4347

> <Gold.Chemscore.DEInternal.Weighted>
0.4325

> <Gold.Chemscore.Rot.Weighted>
4.0524

> <Gold.Chemscore.Internal.Correction.Weighted>
   9.000000E+99

> <Gold.Protein.RotatedTorsions>
[ 6907 6896 6895 6894 ] final  -35.02 input  -60.11 | X-H torsion
[ 7974 7965 7964 7962 ] final  -35.43 input  175.53 | X-H torsion
[ 8008 7997 7996 7995 ] final   -9.60 input   59.86 | X-H torsion
[ 10167 10162 10161 10158 ] final  -38.29 input  -65.29 | X-H torsion
[ 10718 10713 10712 10709 ] final  -44.48 input   66.30 | X-H torsion
[ 10763 10752 10751 10750 ] final    4.77 input  -60.55 | X-H torsion
[ 11005 11000 10999 10996 ] final -165.00 input  -57.11 | X-H torsion

> <Gold.Protein.ActiveResidues>
 VAL166  LYS551  ARG553  GLY616  TRP617  ASP618  TYR619  PRO620  LYS621  CYS622 
 ASP623  PHE694  ASN695  SER759  ASP760  ASP761  ALA762  ILE779  LEU786  VAL792 
 PHE793  MET794  SER795  GLU796  ALA797  LYS798  CYS799  TRP800  GLU811  SER814 

> <Gold.Protein.RotatedAtoms>
  151.0452  134.9634  159.8182 H   0  0  0  0  0  0  0  0  0  0  0  0  # atno 6907 bound_to 6896
  152.5371  134.2608  159.8944 H   0  0  0  0  0  0  0  0  0  0  0  0  # atno 6908 bound_to 6896
  151.2621  133.4254  159.2650 H   0  0  0  0  0  0  0  0  0  0  0  0  # atno 6909 bound_to 6896
  146.0747  140.6158  142.8936 H   0  0  0  0  0  0  0  0  0  0  0  0  # atno 7974 bound_to 7965
  154.5632  140.2351  155.8303 H   0  0  0  0  0  0  0  0  0  0  0  0  # atno 8008 bound_to 7997
  156.2047  140.3043  155.9559 H   0  0  0  0  0  0  0  0  0  0  0  0  # atno 8009 bound_to 7997
  155.2850  140.0424  157.3009 H   0  0  0  0  0  0  0  0  0  0  0  0  # atno 8010 bound_to 7997
  140.7096  143.3287  151.2620 H   0  0  0  0  0  0  0  0  0  0  0  0  # atno 10167 bound_to 10162
  156.2382  130.4178  149.8792 H   0  0  0  0  0  0  0  0  0  0  0  0  # atno 10718 bound_to 10713
  153.2673  135.6929  153.7516 H   0  0  0  0  0  0  0  0  0  0  0  0  # atno 10763 bound_to 10752
  153.6553  135.3370  155.3112 H   0  0  0  0  0  0  0  0  0  0  0  0  # atno 10764 bound_to 10752
  154.8452  135.4464  154.1684 H   0  0  0  0  0  0  0  0  0  0  0  0  # atno 10765 bound_to 10752
  140.5806  134.5145  157.5177 H   0  0  0  0  0  0  0  0  0  0  0  0  # atno 11005 bound_to 11000
  144.7254  140.4507  143.6977 LP  0  0  0  0  0  0  0  0  0  0  0  0  # atno 17320 bound_to 7965
  145.6328  139.1538  143.2959 LP  0  0  0  0  0  0  0  0  0  0  0  0  # atno 17321 bound_to 7965
  139.6762  143.9933  152.2782 LP  0  0  0  0  0  0  0  0  0  0  0  0  # atno 17342 bound_to 10162
  139.9548  144.6597  150.8137 LP  0  0  0  0  0  0  0  0  0  0  0  0  # atno 17343 bound_to 10162
  156.6383  130.8694  151.3509 LP  0  0  0  0  0  0  0  0  0  0  0  0  # atno 17370 bound_to 10713
  157.7163  130.9502  150.1270 LP  0  0  0  0  0  0  0  0  0  0  0  0  # atno 17371 bound_to 10713
  139.9319  134.7947  156.0907 LP  0  0  0  0  0  0  0  0  0  0  0  0  # atno 17394 bound_to 11000
  141.0999  133.6681  156.2729 LP  0  0  0  0  0  0  0  0  0  0  0  0  # atno 17395 bound_to 11000

$$$$
