AV-unprocessed.smi:648|AV-procd|sdf|3173|dock2
  -GOLD-   22720 0 93D 1   1.00000     0.00000
 Structure written by MMmdl.
 46 47  0  0  0  0  0  0  0  0  2 V2000
  142.2226  135.2807  153.6580 C   0  0  0  0  0  0  0  0  0  0  0  0
  143.6512  135.2061  153.1015 C   0  0  1  0  0  0  0  0  0  0  0  0
  143.7756  134.1141  152.0228 C   0  0  0  0  0  0  0  0  0  0  0  0
  145.2008  133.9848  151.4345 C   0  0  0  0  0  0  0  0  0  0  0  0
  146.1481  133.2941  152.4427 C   0  0  0  0  0  0  0  0  0  0  0  0
  145.1349  133.0748  150.1903 C   0  0  0  0  0  0  0  0  0  0  0  0
  145.7219  135.3831  150.9866 C   0  0  0  0  0  0  0  0  0  0  0  0
  145.5623  136.5492  152.0067 C   0  0  2  0  0  0  0  0  0  0  0  0
  145.9153  137.8998  151.3218 C   0  0  0  0  0  0  0  0  0  0  0  0
  147.3062  138.0882  151.1544 O   0  0  0  0  0  0  0  0  0  0  0  0
  146.5184  136.3137  153.1220 N   0  3  0  0  0  0  0  0  0  0  0  0
  146.3436  137.0746  154.3817 C   0  0  0  0  0  0  0  0  0  0  0  0
  146.8119  138.5287  154.2099 C   0  0  0  0  0  0  0  0  0  0  0  0
  148.1549  138.7340  154.7238 N   0  0  0  0  0  0  0  0  0  0  0  0
  149.3374  138.6945  154.1069 C   0  0  0  0  0  0  0  0  0  0  0  0
  150.3671  138.9232  154.9093 N   0  0  0  0  0  0  0  0  0  0  0  0
  149.7013  139.1288  156.0846 C   0  0  0  0  0  0  0  0  0  0  0  0
  148.3732  139.0286  156.0271 N   0  0  0  0  0  0  0  0  0  0  0  0
  144.1005  136.5639  152.5297 C   0  0  0  0  0  0  0  0  0  0  0  0
  141.5043  135.5397  152.8796 H   0  0  0  0  0  0  0  0  0  0  0  0
  142.1467  136.0317  154.4451 H   0  0  0  0  0  0  0  0  0  0  0  0
  141.9185  134.3254  154.0870 H   0  0  0  0  0  0  0  0  0  0  0  0
  144.2966  134.9468  153.9394 H   0  0  0  0  0  0  0  0  0  0  0  0
  143.4558  133.1537  152.4302 H   0  0  0  0  0  0  0  0  0  0  0  0
  143.0736  134.3433  151.2194 H   0  0  0  0  0  0  0  0  0  0  0  0
  147.1691  133.2537  152.0624 H   0  0  0  0  0  0  0  0  0  0  0  0
  145.8342  132.2669  152.6329 H   0  0  0  0  0  0  0  0  0  0  0  0
  146.1779  133.7856  153.4120 H   0  0  0  0  0  0  0  0  0  0  0  0
  146.1186  132.9508  149.7358 H   0  0  0  0  0  0  0  0  0  0  0  0
  144.4721  133.4828  149.4259 H   0  0  0  0  0  0  0  0  0  0  0  0
  144.7627  132.0810  150.4419 H   0  0  0  0  0  0  0  0  0  0  0  0
  146.7639  135.3059  150.6715 H   0  0  0  0  0  0  0  0  0  0  0  0
  145.1740  135.6479  150.0818 H   0  0  0  0  0  0  0  0  0  0  0  0
  145.4647  137.9681  150.3315 H   0  0  0  0  0  0  0  0  0  0  0  0
  145.5271  138.7358  151.9049 H   0  0  0  0  0  0  0  0  0  0  0  0
  147.7639  137.5214  151.7568 H   0  0  0  0  0  0  0  0  0  0  0  0
  146.4532  135.3322  153.3502 H   0  0  0  0  0  0  0  0  0  0  0  0
  145.2903  137.0590  154.6618 H   0  0  0  0  0  0  0  0  0  0  0  0
  146.8908  136.6200  155.2055 H   0  0  0  0  0  0  0  0  0  0  0  0
  146.7885  138.8173  153.1582 H   0  0  0  0  0  0  0  0  0  0  0  0
  146.1381  139.2047  154.7376 H   0  0  0  0  0  0  0  0  0  0  0  0
  149.4495  138.4824  153.0535 H   0  0  0  0  0  0  0  0  0  0  0  0
  150.2102  139.3550  157.0101 H   0  0  0  0  0  0  0  0  0  0  0  0
  143.4270  136.8233  151.7118 H   0  0  0  0  0  0  0  0  0  0  0  0
  143.9532  137.3468  153.2721 H   0  0  0  0  0  0  0  0  0  0  0  0
  147.4520  136.4928  152.7811 H   0  0  0  0  0  0  0  0  0  0  0  0
  1  2  1  0  0  0  0
  1 20  1  0  0  0  0
  1 21  1  0  0  0  0
  1 22  1  0  0  0  0
  2 19  1  0  0  0  0
  2  3  1  0  0  0  0
  2 23  1  0  0  0  0
  3  4  1  0  0  0  0
  3 24  1  0  0  0  0
  3 25  1  0  0  0  0
  4  5  1  0  0  0  0
  4  6  1  0  0  0  0
  4  7  1  0  0  0  0
  5 26  1  0  0  0  0
  5 27  1  0  0  0  0
  5 28  1  0  0  0  0
  6 29  1  0  0  0  0
  6 30  1  0  0  0  0
  6 31  1  0  0  0  0
  7  8  1  0  0  0  0
  7 32  1  0  0  0  0
  7 33  1  0  0  0  0
  8  9  1  0  0  0  0
  8 11  1  0  0  0  0
  8 19  1  0  0  0  0
  9 10  1  0  0  0  0
  9 34  1  0  0  0  0
  9 35  1  0  0  0  0
 10 36  1  0  0  0  0
 11 12  1  0  0  0  0
 11 37  1  0  0  0  0
 11 46  1  0  0  0  0
 12 13  1  0  0  0  0
 12 38  1  0  0  0  0
 12 39  1  0  0  0  0
 13 14  1  0  0  0  0
 13 40  1  0  0  0  0
 13 41  1  0  0  0  0
 14 18  1  0  0  0  0
 14 15  1  0  0  0  0
 15 16  2  0  0  0  0
 15 42  1  0  0  0  0
 16 17  1  0  0  0  0
 17 18  2  0  0  0  0
 17 43  1  0  0  0  0
 19 44  1  0  0  0  0
 19 45  1  0  0  0  0
M  CHG  1  11   1
M  END
> <s_m_source_file>
AV-unprocessed.smi

> <i_m_source_file_index>
648

> <i_lp_mmshare_version>
43012

> <i_f3d_flags>
0

> <s_epik_input>
W0NIM11DMShbQ0gzXSlbQ0gyXVtDQEBIXShbQ0gzXSlbQ0gyXVtDQF0oW0NIMl0xKShbQ0gyXVtPSF0pW05IXVtDSDJdW0NIMl1uMltjSF1uW2NIXW4y

> <s_epik_cmdline>
J2VwaWtfcHl0aG9uJywgJy1waCcsICc3LjAnLCAnLXRuJywgJzgnLCAnLW1hJywgJzIwMCcsICctbWV0YWxfYmluZGluZycsICctaW1hZScsICc8aW5maWxlLm1hZT4nLCAnLW9tYWUnLCAnPG91dGZpbGUubWFlPic=

> <r_lp_tautomer_probability>
1

> <r_epik_Ionization_Penalty>
0.00942316

> <r_epik_Ionization_Penalty_Charging>
0.00942185

> <r_epik_Ionization_Penalty_Neutral>
1.31257e-06

> <r_epik_State_Penalty>
0.00715409

> <r_epik_Charging_Adjusted_Penalty>
0.0165759

> <i_epik_Tot_Q>
1

> <i_epik_Tot_abs_Q>
1

> <r_epik_Metal_State_Penalty>
0.00715563

> <b_epik_Metal_Only>
0

> <s_lp_Force_Field>
OPLS_2005

> <r_lp_Energy>
29.0097

> <b_lp_Chiralities_Consistent>
1

> <s_lp_Variant>
AV-unprocessed.smi:648-4

> <Gold.Version>
5.8.1

> <Gold.Id.Protein>
6NUR|6NUR_protein|mol2

> <Gold.PLP.Fitness>
43.5741

> <Gold.PLP.PLP>
-28.3238

> <Gold.PLP.part.hbond>
-3.9857

> <Gold.PLP.part.metal>
0.0000

> <Gold.PLP.part.buried>
-1.7926

> <Gold.PLP.part.nonpolar>
-23.0926

> <Gold.PLP.part.repulsive>
0.1130

> <Gold.PLP.ligand.clash>
0.0000

> <Gold.PLP.ligand.torsion>
1.0611

> <Gold.PLP.Chemscore.Hbond>
3.8480

> <Gold.PLP.Chemscore.CHOScore>
1.9173

> <Gold.PLP.Chemscore.Metal>
0.0000

> <Gold.Chemscore.Hbonds>
donor molecule, donor type, donor heavy atom, donor atom, acceptor molecule, acceptor atom, score
      L1  H    10    36       P1  7948  0.83
      L1  H    11    46       P1  7948  2.00
      P1  H  7954  7966       L1    10  0.95
      L1  C    15    42       P1  7948  0.90
      L1  C    15    42       P1  7957  1.00

> <Gold.PLP.Chemscore.Internal.Correction>
0.0766

> <Gold.Rescore>
     Score         DG    S(hbond)    S(metal)    S(lipo)     H(rot)  DE(clash)    DE(int)     intcor
     10.44     -12.35       2.39        0.00      60.00       3.17       1.10       0.80       ----

> <Gold.Chemscore.Fitness>
10.4384

> <Gold.Chemscore.DG>
-12.3463

> <Gold.Chemscore.ZeroCoef>
-5.4800

> <Gold.Chemscore.Hbond>
2.3874

> <Gold.Chemscore.Metal>
0.0000

> <Gold.Chemscore.Lipo>
60.0022

> <Gold.Chemscore.Internal_Hbond>
0.0000

> <Gold.Chemscore.DEClash>
1.1039

> <Gold.Chemscore.DEInternal>
0.8040

> <Gold.Chemscore.Rot>
3.1750

> <Gold.Chemscore.Internal.Correction>
   9.000000E+99

> <Gold.Chemscore.Hbonds>
donor molecule, donor type, donor heavy atom, donor atom, acceptor molecule, acceptor atom, score
      L1  H    10    36       P1  7948  0.83
      L1  H    11    46       P1  7948  0.99
      P1  H  7954  7966       L1    10  0.20

> <Gold.Chemscore.Hbond.Weighted>
-7.9740

> <Gold.Chemscore.Metal.Weighted>
-0.0000

> <Gold.Chemscore.Lipo.Weighted>
-7.0203

> <Gold.Chemscore.Internal_Hbond.Weighted>
0.0000

> <Gold.Chemscore.DEClash.Weighted>
1.1039

> <Gold.Chemscore.DEInternal.Weighted>
0.8040

> <Gold.Chemscore.Rot.Weighted>
8.1279

> <Gold.Chemscore.Internal.Correction.Weighted>
   9.000000E+99

> <Gold.Protein.RotatedTorsions>
[ 6907 6896 6895 6894 ] final -110.21 input  -60.11 | X-H torsion
[ 7974 7965 7964 7962 ] final  140.35 input  175.53 | X-H torsion
[ 8008 7997 7996 7995 ] final -119.79 input   59.86 | X-H torsion
[ 10167 10162 10161 10158 ] final -143.87 input  -65.29 | X-H torsion
[ 10718 10713 10712 10709 ] final  -14.65 input   66.30 | X-H torsion
[ 10763 10752 10751 10750 ] final  -17.56 input  -60.55 | X-H torsion
[ 11005 11000 10999 10996 ] final  -45.83 input  -57.11 | X-H torsion

> <Gold.Protein.ActiveResidues>
 VAL166  LYS551  ARG553  GLY616  TRP617  ASP618  TYR619  PRO620  LYS621  CYS622 
 ASP623  PHE694  ASN695  SER759  ASP760  ASP761  ALA762  ILE779  LEU786  VAL792 
 PHE793  MET794  SER795  GLU796  ALA797  LYS798  CYS799  TRP800  GLU811  SER814 

> <Gold.Protein.RotatedAtoms>
  150.7610  133.9416  159.3457 H   0  0  0  0  0  0  0  0  0  0  0  0  # atno 6907 bound_to 6896
  151.7324  135.0870  160.0312 H   0  0  0  0  0  0  0  0  0  0  0  0  # atno 6908 bound_to 6896
  152.3581  133.6224  159.6030 H   0  0  0  0  0  0  0  0  0  0  0  0  # atno 6909 bound_to 6896
  144.9195  139.5186  143.5670 H   0  0  0  0  0  0  0  0  0  0  0  0  # atno 7974 bound_to 7965
  155.1214  140.0398  157.2751 H   0  0  0  0  0  0  0  0  0  0  0  0  # atno 8008 bound_to 7997
  154.6610  140.2591  155.7083 H   0  0  0  0  0  0  0  0  0  0  0  0  # atno 8009 bound_to 7997
  156.2619  140.2817  156.1082 H   0  0  0  0  0  0  0  0  0  0  0  0  # atno 8010 bound_to 7997
  139.7953  143.7909  152.2653 H   0  0  0  0  0  0  0  0  0  0  0  0  # atno 10167 bound_to 10162
  156.6129  130.4854  149.6194 H   0  0  0  0  0  0  0  0  0  0  0  0  # atno 10718 bound_to 10713
  153.5757  135.7006  153.5485 H   0  0  0  0  0  0  0  0  0  0  0  0  # atno 10763 bound_to 10752
  153.3305  135.4048  155.1491 H   0  0  0  0  0  0  0  0  0  0  0  0  # atno 10764 bound_to 10752
  154.8626  135.3717  154.5282 H   0  0  0  0  0  0  0  0  0  0  0  0  # atno 10765 bound_to 10752
  141.0541  133.6732  156.3069 H   0  0  0  0  0  0  0  0  0  0  0  0  # atno 11005 bound_to 11000
  146.3198  139.8063  142.8955 LP  0  0  0  0  0  0  0  0  0  0  0  0  # atno 17320 bound_to 7965
  145.3320  141.0268  143.3441 LP  0  0  0  0  0  0  0  0  0  0  0  0  # atno 17321 bound_to 7965
  139.8013  144.7373  150.9821 LP  0  0  0  0  0  0  0  0  0  0  0  0  # atno 17342 bound_to 10162
  140.7820  143.4343  151.0648 LP  0  0  0  0  0  0  0  0  0  0  0  0  # atno 17343 bound_to 10162
  156.2375  130.6831  151.1523 LP  0  0  0  0  0  0  0  0  0  0  0  0  # atno 17370 bound_to 10713
  157.7249  131.0656  150.5975 LP  0  0  0  0  0  0  0  0  0  0  0  0  # atno 17371 bound_to 10713
  140.5999  134.5565  157.5515 LP  0  0  0  0  0  0  0  0  0  0  0  0  # atno 17394 bound_to 11000
  139.9375  134.7849  156.0765 LP  0  0  0  0  0  0  0  0  0  0  0  0  # atno 17395 bound_to 11000

$$$$
