AV-unprocessed.smi:3314|AV-procd|sdf|12746|dock4
  -GOLD-   2272019 83D 1   1.00000     0.00000
 Structure written by MMmdl.
 37 38  0  0  0  0  0  0  0  0  3 V2000
  151.7070  145.8524  160.1580 C   0  0  0  0  0  0  0  0  0  0  0  0
  151.8726  144.4898  159.5189 C   0  0  0  0  0  0  0  0  0  0  0  0
  152.6333  143.4894  160.1525 C   0  0  0  0  0  0  0  0  0  0  0  0
  152.7475  142.2392  159.5142 C   0  0  0  0  0  0  0  0  0  0  0  0
  153.5532  141.1209  160.1409 C   0  0  0  0  0  0  0  0  0  0  0  0
  152.1669  141.9606  158.3269 N   0  0  0  0  0  0  0  0  0  0  0  0
  151.4385  142.9166  157.7031 C   0  0  0  0  0  0  0  0  0  0  0  0
  150.8591  142.6235  156.5302 N   0  5  0  0  0  0  0  0  0  0  0  0
  150.6036  141.3323  156.2050 C   0  0  0  0  0  0  0  0  0  0  0  0
  151.0665  140.3037  156.7020 O   0  0  0  0  0  0  0  0  0  0  0  0
  149.6008  141.2330  155.0476 C   0  0  1  0  0  0  0  0  0  0  0  0
  149.2898  139.7596  154.7048 C   0  0  0  0  0  0  0  0  0  0  0  0
  148.2594  139.6823  153.6450 N   0  3  1  0  0  0  0  0  0  0  0  0
  147.9561  138.2919  153.2450 C   0  0  0  0  0  0  0  0  0  0  0  0
  147.0499  140.4452  154.0270 C   0  0  0  0  0  0  0  0  0  0  0  0
  147.4262  141.8918  154.3860 C   0  0  0  0  0  0  0  0  0  0  0  0
  148.3917  141.8866  155.4292 O   0  0  0  0  0  0  0  0  0  0  0  0
  151.2648  144.1958  158.2816 C   0  0  0  0  0  0  0  0  0  0  0  0
  152.6215  146.1506  160.6717 H   0  0  0  0  0  0  0  0  0  0  0  0
  150.8945  145.8302  160.8843 H   0  0  0  0  0  0  0  0  0  0  0  0
  151.4779  146.6100  159.4080 H   0  0  0  0  0  0  0  0  0  0  0  0
  153.1141  143.6749  161.1017 H   0  0  0  0  0  0  0  0  0  0  0  0
  153.6209  141.2472  161.2216 H   0  0  0  0  0  0  0  0  0  0  0  0
  154.5635  141.1126  159.7316 H   0  0  0  0  0  0  0  0  0  0  0  0
  153.0936  140.1520  159.9426 H   0  0  0  0  0  0  0  0  0  0  0  0
  150.0100  141.7440  154.1725 H   0  0  0  0  0  0  0  0  0  0  0  0
  150.1941  139.2537  154.3632 H   0  0  0  0  0  0  0  0  0  0  0  0
  148.9407  139.2279  155.5921 H   0  0  0  0  0  0  0  0  0  0  0  0
  147.5333  137.7283  154.0778 H   0  0  0  0  0  0  0  0  0  0  0  0
  148.8605  137.7826  152.9105 H   0  0  0  0  0  0  0  0  0  0  0  0
  147.2408  138.2759  152.4221 H   0  0  0  0  0  0  0  0  0  0  0  0
  146.3349  140.4404  153.2036 H   0  0  0  0  0  0  0  0  0  0  0  0
  146.5656  139.9633  154.8778 H   0  0  0  0  0  0  0  0  0  0  0  0
  147.8151  142.4224  153.5155 H   0  0  0  0  0  0  0  0  0  0  0  0
  146.5447  142.4369  154.7237 H   0  0  0  0  0  0  0  0  0  0  0  0
  150.6731  144.9457  157.7765 H   0  0  0  0  0  0  0  0  0  0  0  0
  148.6485  140.1415  152.8339 H   0  0  0  0  0  0  0  0  0  0  0  0
  1  2  1  0  0  0  0
  1 19  1  0  0  0  0
  1 20  1  0  0  0  0
  1 21  1  0  0  0  0
  2 18  2  0  0  0  0
  2  3  1  0  0  0  0
  3  4  2  0  0  0  0
  3 22  1  0  0  0  0
  4  5  1  0  0  0  0
  4  6  1  0  0  0  0
  5 23  1  0  0  0  0
  5 24  1  0  0  0  0
  5 25  1  0  0  0  0
  6  7  2  0  0  0  0
  7  8  1  0  0  0  0
  7 18  1  0  0  0  0
  8  9  1  0  0  0  0
  9 10  2  0  0  0  0
  9 11  1  0  0  0  0
 11 17  1  0  0  0  0
 11 12  1  0  0  0  0
 11 26  1  0  0  0  0
 12 13  1  0  0  0  0
 12 27  1  0  0  0  0
 12 28  1  0  0  0  0
 13 14  1  0  0  0  0
 13 15  1  0  0  0  0
 13 37  1  0  0  0  0
 14 29  1  0  0  0  0
 14 30  1  0  0  0  0
 14 31  1  0  0  0  0
 15 16  1  0  0  0  0
 15 32  1  0  0  0  0
 15 33  1  0  0  0  0
 16 17  1  0  0  0  0
 16 34  1  0  0  0  0
 16 35  1  0  0  0  0
 18 36  1  0  0  0  0
M  CHG  1   8  -1
M  CHG  1  13   1
M  END
> <s_m_source_file>
AV-unprocessed.smi

> <i_m_source_file_index>
3314

> <i_lp_mmshare_version>
43012

> <i_f3d_flags>
0

> <s_epik_input>
W0NIM11jMVtjSF1jKFtDSDNdKW5jKFtjSF0xKVtOSF1DKD1PKVtDQEBIXTJbQ0gyXU4oW0NIM10pW0NIMl1bQ0gyXU8y

> <s_epik_cmdline>
J2VwaWtfcHl0aG9uJywgJy1waCcsICc3LjAnLCAnLXRuJywgJzgnLCAnLW1hJywgJzIwMCcsICctbWV0YWxfYmluZGluZycsICctaW1hZScsICc8aW5maWxlLm1hZT4nLCAnLW9tYWUnLCAnPG91dGZpbGUubWFlPic=

> <r_epik_Ionization_Penalty>
13.8964

> <r_epik_Ionization_Penalty_Charging>
7.88995

> <r_epik_Ionization_Penalty_Neutral>
6.00641

> <r_epik_State_Penalty>
8.39989

> <r_epik_Charging_Adjusted_Penalty>
16.2898

> <i_epik_Tot_Q>
0

> <i_epik_Tot_abs_Q>
2

> <r_epik_Metal_State_Penalty>
4.31145

> <b_epik_Metal_Only>
1

> <s_lp_Force_Field>
OPLS_2005

> <r_lp_Energy>
9.09812

> <b_lp_Chiralities_Consistent>
1

> <s_lp_Variant>
AV-unprocessed.smi:3314-16

> <Gold.Version>
5.8.1

> <Gold.Id.Protein>
6NUR|6NUR_protein|mol2

> <Gold.PLP.Fitness>
40.6134

> <Gold.PLP.PLP>
-37.9665

> <Gold.PLP.part.hbond>
-1.0000

> <Gold.PLP.part.metal>
0.0000

> <Gold.PLP.part.buried>
-0.1169

> <Gold.PLP.part.nonpolar>
-37.8253

> <Gold.PLP.part.repulsive>
2.8085

> <Gold.PLP.ligand.clash>
0.0000

> <Gold.PLP.ligand.torsion>
0.1825

> <Gold.PLP.Chemscore.Hbond>
1.0000

> <Gold.PLP.Chemscore.CHOScore>
0.0000

> <Gold.PLP.Chemscore.Metal>
0.0000

> <Gold.Chemscore.Hbonds>
donor molecule, donor type, donor heavy atom, donor atom, acceptor molecule, acceptor atom, score
      L1  H    13    37       P1  7957  0.99

> <Gold.PLP.Chemscore.Internal.Correction>
0.0119

> <Gold.Rescore>
     Score         DG    S(hbond)    S(metal)    S(lipo)     H(rot)  DE(clash)    DE(int)     intcor
     14.30     -18.37       0.98        0.00     103.96       1.00       2.14       1.93       ----

> <Gold.Chemscore.Fitness>
14.2976

> <Gold.Chemscore.DG>
-18.3682

> <Gold.Chemscore.ZeroCoef>
-5.4800

> <Gold.Chemscore.Hbond>
0.9833

> <Gold.Chemscore.Metal>
0.0000

> <Gold.Chemscore.Lipo>
103.9641

> <Gold.Chemscore.Internal_Hbond>
0.0000

> <Gold.Chemscore.DEClash>
2.1445

> <Gold.Chemscore.DEInternal>
1.9261

> <Gold.Chemscore.Rot>
1.0000

> <Gold.Chemscore.Internal.Correction>
   9.000000E+99

> <Gold.Chemscore.Hbonds>
donor molecule, donor type, donor heavy atom, donor atom, acceptor molecule, acceptor atom, score
      L1  H    13    37       P1  7957  0.94

> <Gold.Chemscore.Hbond.Weighted>
-3.2844

> <Gold.Chemscore.Metal.Weighted>
-0.0000

> <Gold.Chemscore.Lipo.Weighted>
-12.1638

> <Gold.Chemscore.Internal_Hbond.Weighted>
0.0000

> <Gold.Chemscore.DEClash.Weighted>
2.1445

> <Gold.Chemscore.DEInternal.Weighted>
1.9261

> <Gold.Chemscore.Rot.Weighted>
2.5600

> <Gold.Chemscore.Internal.Correction.Weighted>
   9.000000E+99

> <Gold.Protein.RotatedTorsions>
[ 6907 6896 6895 6894 ] final    0.42 input  -60.11 | X-H torsion
[ 7974 7965 7964 7962 ] final  -42.11 input  175.53 | X-H torsion
[ 8008 7997 7996 7995 ] final -168.03 input   59.86 | X-H torsion
[ 10167 10162 10161 10158 ] final   35.35 input  -65.29 | X-H torsion
[ 10718 10713 10712 10709 ] final  154.39 input   66.30 | X-H torsion
[ 10763 10752 10751 10750 ] final -100.39 input  -60.55 | X-H torsion
[ 11005 11000 10999 10996 ] final  -14.55 input  -57.11 | X-H torsion

> <Gold.Protein.ActiveResidues>
 VAL166  LYS551  ARG553  GLY616  TRP617  ASP618  TYR619  PRO620  LYS621  CYS622 
 ASP623  PHE694  ASN695  SER759  ASP760  ASP761  ALA762  ILE779  LEU786  VAL792 
 PHE793  MET794  SER795  GLU796  ALA797  LYS798  CYS799  TRP800  GLU811  SER814 

> <Gold.Protein.RotatedAtoms>
  151.5762  135.1060  160.0006 H   0  0  0  0  0  0  0  0  0  0  0  0  # atno 6907 bound_to 6896
  152.4377  133.7386  159.6639 H   0  0  0  0  0  0  0  0  0  0  0  0  # atno 6908 bound_to 6896
  150.8277  133.8074  159.3135 H   0  0  0  0  0  0  0  0  0  0  0  0  # atno 6909 bound_to 6896
  146.0147  140.6922  142.9207 H   0  0  0  0  0  0  0  0  0  0  0  0  # atno 7974 bound_to 7965
  155.8859  140.1016  157.1453 H   0  0  0  0  0  0  0  0  0  0  0  0  # atno 8008 bound_to 7997
  154.4010  140.1320  156.4318 H   0  0  0  0  0  0  0  0  0  0  0  0  # atno 8009 bound_to 7997
  155.7590  140.3463  155.5190 H   0  0  0  0  0  0  0  0  0  0  0  0  # atno 8010 bound_to 7997
  140.4230  144.1433  150.6150 H   0  0  0  0  0  0  0  0  0  0  0  0  # atno 10167 bound_to 10162
  157.2322  131.0741  151.1846 H   0  0  0  0  0  0  0  0  0  0  0  0  # atno 10718 bound_to 10713
  154.7575  135.4936  153.9402 H   0  0  0  0  0  0  0  0  0  0  0  0  # atno 10763 bound_to 10752
  153.1213  135.6732  153.9339 H   0  0  0  0  0  0  0  0  0  0  0  0  # atno 10764 bound_to 10752
  153.9070  135.3103  155.3427 H   0  0  0  0  0  0  0  0  0  0  0  0  # atno 10765 bound_to 10752
  140.7875  133.8314  155.9349 H   0  0  0  0  0  0  0  0  0  0  0  0  # atno 11005 bound_to 11000
  144.6966  140.3461  143.7190 LP  0  0  0  0  0  0  0  0  0  0  0  0  # atno 17320 bound_to 7965
  145.7287  139.1730  143.2443 LP  0  0  0  0  0  0  0  0  0  0  0  0  # atno 17321 bound_to 7965
  140.4513  143.2486  151.9344 LP  0  0  0  0  0  0  0  0  0  0  0  0  # atno 17342 bound_to 10162
  139.4783  144.5560  151.8313 LP  0  0  0  0  0  0  0  0  0  0  0  0  # atno 17343 bound_to 10162
  157.3466  130.7060  149.6414 LP  0  0  0  0  0  0  0  0  0  0  0  0  # atno 17370 bound_to 10713
  155.9675  130.4264  150.4699 LP  0  0  0  0  0  0  0  0  0  0  0  0  # atno 17371 bound_to 10713
  140.9422  134.1886  157.4789 LP  0  0  0  0  0  0  0  0  0  0  0  0  # atno 17394 bound_to 11000
  139.8735  134.9876  156.5376 LP  0  0  0  0  0  0  0  0  0  0  0  0  # atno 17395 bound_to 11000

$$$$
