AV-unprocessed.smi:2564|AV-procd|sdf|10062|dock7
  -GOLD-   2272014103D 1   1.00000     0.00000
 Structure written by MMmdl.
 29 30  0  0  0  0  0  0  0  0  2 V2000
  152.3830  144.3445  158.7685 C   0  0  0  0  0  0  0  0  0  0  0  0
  152.6391  143.3406  159.7204 C   0  0  0  0  0  0  0  0  0  0  0  0
  152.1687  142.0795  159.5927 N   0  0  0  0  0  0  0  0  0  0  0  0
  151.4280  141.7455  158.5300 N   0  0  0  0  0  0  0  0  0  0  0  0
  151.1423  142.6630  157.5720 C   0  0  0  0  0  0  0  0  0  0  0  0
  150.3614  142.2812  156.4731 N   0  0  0  0  0  0  0  0  0  0  0  0
  150.6783  141.0718  155.7265 C   0  0  0  0  0  0  0  0  0  0  0  0
  149.4357  140.4851  155.0432 C   0  0  2  0  0  0  0  0  0  0  0  0
  149.7795  139.2278  154.2200 C   0  0  0  0  0  0  0  0  0  0  0  0
  148.5815  138.7409  153.5081 N   0  3  0  0  0  0  0  0  0  0  0  0
  147.9767  139.7990  152.6762 C   0  0  0  0  0  0  0  0  0  0  0  0
  147.6957  141.0451  153.5323 C   0  0  0  0  0  0  0  0  0  0  0  0
  148.9002  141.4699  154.1614 O   0  0  0  0  0  0  0  0  0  0  0  0
  151.6051  143.9915  157.6522 C   0  0  0  0  0  0  0  0  0  0  0  0
  152.7686  145.3456  158.8914 H   0  0  0  0  0  0  0  0  0  0  0  0
  153.2300  143.5509  160.5993 H   0  0  0  0  0  0  0  0  0  0  0  0
  149.6628  142.9137  156.1104 H   0  0  0  0  0  0  0  0  0  0  0  0
  151.4506  141.2866  154.9865 H   0  0  0  0  0  0  0  0  0  0  0  0
  151.0912  140.3379  156.4198 H   0  0  0  0  0  0  0  0  0  0  0  0
  148.6950  140.2294  155.8036 H   0  0  0  0  0  0  0  0  0  0  0  0
  150.5620  139.4494  153.4929 H   0  0  0  0  0  0  0  0  0  0  0  0
  150.1568  138.4354  154.8670 H   0  0  0  0  0  0  0  0  0  0  0  0
  148.8321  137.9555  152.9245 H   0  0  0  0  0  0  0  0  0  0  0  0
  148.6575  140.0477  151.8610 H   0  0  0  0  0  0  0  0  0  0  0  0
  147.0569  139.4254  152.2258 H   0  0  0  0  0  0  0  0  0  0  0  0
  147.3170  141.8539  152.9071 H   0  0  0  0  0  0  0  0  0  0  0  0
  146.9321  140.8391  154.2841 H   0  0  0  0  0  0  0  0  0  0  0  0
  151.3729  144.7169  156.8863 H   0  0  0  0  0  0  0  0  0  0  0  0
  147.9014  138.4394  154.1916 H   0  0  0  0  0  0  0  0  0  0  0  0
  1 14  1  0  0  0  0
  1  2  2  0  0  0  0
  1 15  1  0  0  0  0
  2  3  1  0  0  0  0
  2 16  1  0  0  0  0
  3  4  2  0  0  0  0
  4  5  1  0  0  0  0
  5  6  1  0  0  0  0
  5 14  2  0  0  0  0
  6  7  1  0  0  0  0
  6 17  1  0  0  0  0
  7  8  1  0  0  0  0
  7 18  1  0  0  0  0
  7 19  1  0  0  0  0
  8 13  1  0  0  0  0
  8  9  1  0  0  0  0
  8 20  1  0  0  0  0
  9 10  1  0  0  0  0
  9 21  1  0  0  0  0
  9 22  1  0  0  0  0
 10 11  1  0  0  0  0
 10 23  1  0  0  0  0
 10 29  1  0  0  0  0
 11 12  1  0  0  0  0
 11 24  1  0  0  0  0
 11 25  1  0  0  0  0
 12 13  1  0  0  0  0
 12 26  1  0  0  0  0
 12 27  1  0  0  0  0
 14 28  1  0  0  0  0
M  CHG  1  10   1
M  END
> <s_m_source_file>
AV-unprocessed.smi

> <i_m_source_file_index>
2564

> <i_lp_mmshare_version>
43012

> <i_f3d_flags>
0

> <s_epik_input>
W2NIXTFbY0hdW2NIXW5uYzFbTkhdW0NIMl1bQ0BASF0yW0NIMl1bTkhdW0NIMl1bQ0gyXU8y

> <s_epik_cmdline>
J2VwaWtfcHl0aG9uJywgJy1waCcsICc3LjAnLCAnLXRuJywgJzgnLCAnLW1hJywgJzIwMCcsICctbWV0YWxfYmluZGluZycsICctaW1hZScsICc8aW5maWxlLm1hZT4nLCAnLW9tYWUnLCAnPG91dGZpbGUubWFlPic=

> <r_lp_tautomer_probability>
0.999978

> <r_epik_Ionization_Penalty>
0.0278973

> <r_epik_Ionization_Penalty_Charging>
0.00959556

> <r_epik_Ionization_Penalty_Neutral>
0.0183017

> <r_epik_State_Penalty>
0.0323017

> <r_epik_Charging_Adjusted_Penalty>
0.0418973

> <i_epik_Tot_Q>
1

> <i_epik_Tot_abs_Q>
1

> <r_epik_Metal_State_Penalty>
0.0301524

> <b_epik_Metal_Only>
0

> <s_lp_Force_Field>
OPLS_2005

> <r_lp_Energy>
19.9275

> <b_lp_Chiralities_Consistent>
1

> <s_lp_Variant>
AV-unprocessed.smi:2564-1

> <Gold.Version>
5.8.1

> <Gold.Id.Protein>
6NUR|6NUR_protein|mol2

> <Gold.PLP.Fitness>
39.1863

> <Gold.PLP.PLP>
-30.1234

> <Gold.PLP.part.hbond>
-4.0000

> <Gold.PLP.part.metal>
0.0000

> <Gold.PLP.part.buried>
3.7347

> <Gold.PLP.part.nonpolar>
-28.7491

> <Gold.PLP.part.repulsive>
0.3290

> <Gold.PLP.ligand.clash>
0.0000

> <Gold.PLP.ligand.torsion>
0.6089

> <Gold.PLP.Chemscore.Hbond>
3.4264

> <Gold.PLP.Chemscore.CHOScore>
0.0000

> <Gold.PLP.Chemscore.Metal>
0.0000

> <Gold.Chemscore.Hbonds>
donor molecule, donor type, donor heavy atom, donor atom, acceptor molecule, acceptor atom, score
      L1  H     6    17       P1  8028  1.00
      L1  H    10    23       P1  7948  2.00
      P1  H  8011  8017       L1    13  0.25

> <Gold.PLP.Chemscore.Internal.Correction>
0.0015

> <Gold.Rescore>
     Score         DG    S(hbond)    S(metal)    S(lipo)     H(rot)  DE(clash)    DE(int)     intcor
     16.08     -18.61       2.16        0.00      79.52       1.33       1.88       0.65       ----

> <Gold.Chemscore.Fitness>
16.0791

> <Gold.Chemscore.DG>
-18.6104

> <Gold.Chemscore.ZeroCoef>
-5.4800

> <Gold.Chemscore.Hbond>
2.1614

> <Gold.Chemscore.Metal>
0.0000

> <Gold.Chemscore.Lipo>
79.5203

> <Gold.Chemscore.Internal_Hbond>
0.0000

> <Gold.Chemscore.DEClash>
1.8840

> <Gold.Chemscore.DEInternal>
0.6473

> <Gold.Chemscore.Rot>
1.3251

> <Gold.Chemscore.Internal.Correction>
   9.000000E+99

> <Gold.Chemscore.Hbonds>
donor molecule, donor type, donor heavy atom, donor atom, acceptor molecule, acceptor atom, score
      L1  H     6    17       P1  8028  0.93
      L1  H    10    23       P1  7948  0.96
      P1  H  8011  8017       L1    13  0.04

> <Gold.Chemscore.Hbond.Weighted>
-7.2189

> <Gold.Chemscore.Metal.Weighted>
-0.0000

> <Gold.Chemscore.Lipo.Weighted>
-9.3039

> <Gold.Chemscore.Internal_Hbond.Weighted>
0.0000

> <Gold.Chemscore.DEClash.Weighted>
1.8840

> <Gold.Chemscore.DEInternal.Weighted>
0.6473

> <Gold.Chemscore.Rot.Weighted>
3.3924

> <Gold.Chemscore.Internal.Correction.Weighted>
   9.000000E+99

> <Gold.Protein.RotatedTorsions>
[ 6907 6896 6895 6894 ] final   57.05 input  -60.11 | X-H torsion
[ 7974 7965 7964 7962 ] final  -28.37 input  175.53 | X-H torsion
[ 8008 7997 7996 7995 ] final  -12.03 input   59.86 | X-H torsion
[ 10167 10162 10161 10158 ] final  176.30 input  -65.29 | X-H torsion
[ 10718 10713 10712 10709 ] final -107.53 input   66.30 | X-H torsion
[ 10763 10752 10751 10750 ] final  142.08 input  -60.55 | X-H torsion
[ 11005 11000 10999 10996 ] final  118.43 input  -57.11 | X-H torsion

> <Gold.Protein.ActiveResidues>
 VAL166  LYS551  ARG553  GLY616  TRP617  ASP618  TYR619  PRO620  LYS621  CYS622 
 ASP623  PHE694  ASN695  SER759  ASP760  ASP761  ALA762  ILE779  LEU786  VAL792 
 PHE793  MET794  SER795  GLU796  ALA797  LYS798  CYS799  TRP800  GLU811  SER814 

> <Gold.Protein.RotatedAtoms>
  152.3694  134.6756  160.0180 H   0  0  0  0  0  0  0  0  0  0  0  0  # atno 6907 bound_to 6896
  151.7053  133.3306  159.3285 H   0  0  0  0  0  0  0  0  0  0  0  0  # atno 6908 bound_to 6896
  150.7663  134.6514  159.6335 H   0  0  0  0  0  0  0  0  0  0  0  0  # atno 6909 bound_to 6896
  146.1293  140.5274  142.8700 H   0  0  0  0  0  0  0  0  0  0  0  0  # atno 7974 bound_to 7965
  154.5413  140.2287  155.8636 H   0  0  0  0  0  0  0  0  0  0  0  0  # atno 8008 bound_to 7997
  156.1861  140.3088  155.9203 H   0  0  0  0  0  0  0  0  0  0  0  0  # atno 8009 bound_to 7997
  155.3252  140.0442  157.3031 H   0  0  0  0  0  0  0  0  0  0  0  0  # atno 8010 bound_to 7997
  139.5209  144.2931  152.0446 H   0  0  0  0  0  0  0  0  0  0  0  0  # atno 10167 bound_to 10162
  156.0441  130.5667  150.7834 H   0  0  0  0  0  0  0  0  0  0  0  0  # atno 10718 bound_to 10713
  153.9499  135.2971  155.3439 H   0  0  0  0  0  0  0  0  0  0  0  0  # atno 10763 bound_to 10752
  154.7432  135.5015  153.9161 H   0  0  0  0  0  0  0  0  0  0  0  0  # atno 10764 bound_to 10752
  153.0999  135.6731  153.9801 H   0  0  0  0  0  0  0  0  0  0  0  0  # atno 10765 bound_to 10752
  139.9109  134.9620  156.7502 H   0  0  0  0  0  0  0  0  0  0  0  0  # atno 11005 bound_to 11000
  144.7674  140.5560  143.6694 LP  0  0  0  0  0  0  0  0  0  0  0  0  # atno 17320 bound_to 7965
  145.5297  139.1475  143.3506 LP  0  0  0  0  0  0  0  0  0  0  0  0  # atno 17321 bound_to 7965
  140.2382  144.4298  150.6271 LP  0  0  0  0  0  0  0  0  0  0  0  0  # atno 17342 bound_to 10162
  140.6309  143.2187  151.6497 LP  0  0  0  0  0  0  0  0  0  0  0  0  # atno 17343 bound_to 10162
  157.5295  131.0936  150.9973 LP  0  0  0  0  0  0  0  0  0  0  0  0  # atno 17370 bound_to 10713
  157.0283  130.5701  149.5340 LP  0  0  0  0  0  0  0  0  0  0  0  0  # atno 17371 bound_to 10713
  140.6780  133.9500  155.7894 LP  0  0  0  0  0  0  0  0  0  0  0  0  # atno 17394 bound_to 11000
  141.0530  134.0456  157.3758 LP  0  0  0  0  0  0  0  0  0  0  0  0  # atno 17395 bound_to 11000

$$$$
