AV-unprocessed.smi:671|AV-procd|sdf|3282|dock9
  -GOLD-   22720 0243D 1   1.00000     0.00000
 Structure written by MMmdl.
 50 51  0  0  0  0  0  0  0  0  2 V2000
  149.1238  141.2858  154.2591 C   0  0  0  0  0  0  0  0  0  0  0  0
  150.0466  141.3317  155.4305 C   0  0  0  0  0  0  0  0  0  0  0  0
  150.0420  142.3139  156.3712 N   0  3  0  0  0  0  0  0  0  0  0  0
  150.9926  142.0821  157.2881 N   0  0  0  0  0  0  0  0  0  0  0  0
  151.1637  143.0254  158.3934 C   0  0  0  0  0  0  0  0  0  0  0  0
  151.6632  140.9337  156.9913 C   0  0  0  0  0  0  0  0  0  0  0  0
  152.7935  140.3823  157.7981 C   0  0  0  0  0  0  0  0  0  0  0  0
  151.0650  140.4530  155.8193 C   0  0  0  0  0  0  0  0  0  0  0  0
  151.4616  139.2001  155.0902 C   0  0  0  0  0  0  0  0  0  0  0  0
  151.2524  137.9140  155.9221 C   0  0  1  0  0  0  0  0  0  0  0  0
  150.3761  138.1455  157.1630 C   0  0  0  0  0  0  0  0  0  0  0  0
  150.6361  136.8723  155.0969 N   0  0  0  0  0  0  0  0  0  0  0  0
  150.0972  135.7046  155.4938 C   0  0  0  0  0  0  0  0  0  0  0  0
  150.0660  135.3734  156.6770 O   0  0  0  0  0  0  0  0  0  0  0  0
  149.6046  134.9494  154.4979 N   0  0  0  0  0  0  0  0  0  0  0  0
  148.9272  133.6666  154.6578 C   0  0  2  0  0  0  0  0  0  0  0  0
  149.7260  132.7628  155.6155 C   0  0  0  0  0  0  0  0  0  0  0  0
  150.3352  131.6614  154.7485 C   0  0  0  0  0  0  0  0  0  0  0  0
  149.3272  131.4832  153.6187 C   0  0  0  0  0  0  0  0  0  0  0  0
  148.8455  132.9056  153.3136 C   0  0  1  0  0  0  0  0  0  0  0  0
  147.4573  132.9472  152.6595 C   0  0  0  0  0  0  0  0  0  0  0  0
  149.6903  141.3750  153.3318 H   0  0  0  0  0  0  0  0  0  0  0  0
  148.4021  142.1019  154.3052 H   0  0  0  0  0  0  0  0  0  0  0  0
  148.5778  140.3428  154.2440 H   0  0  0  0  0  0  0  0  0  0  0  0
  152.2135  143.3134  158.4573 H   0  0  0  0  0  0  0  0  0  0  0  0
  150.8600  142.5428  159.3225 H   0  0  0  0  0  0  0  0  0  0  0  0
  150.5545  143.9154  158.2288 H   0  0  0  0  0  0  0  0  0  0  0  0
  152.9819  139.3401  157.5436 H   0  0  0  0  0  0  0  0  0  0  0  0
  152.5636  140.4378  158.8622 H   0  0  0  0  0  0  0  0  0  0  0  0
  153.7024  140.9530  157.6074 H   0  0  0  0  0  0  0  0  0  0  0  0
  150.9091  139.1181  154.1534 H   0  0  0  0  0  0  0  0  0  0  0  0
  152.5081  139.2824  154.7952 H   0  0  0  0  0  0  0  0  0  0  0  0
  152.2189  137.5543  156.2785 H   0  0  0  0  0  0  0  0  0  0  0  0
  150.8306  138.8649  157.8441 H   0  0  0  0  0  0  0  0  0  0  0  0
  150.2353  137.2189  157.7204 H   0  0  0  0  0  0  0  0  0  0  0  0
  149.3899  138.5210  156.8889 H   0  0  0  0  0  0  0  0  0  0  0  0
  150.6391  137.0451  154.1016 H   0  0  0  0  0  0  0  0  0  0  0  0
  149.6863  135.3018  153.5560 H   0  0  0  0  0  0  0  0  0  0  0  0
  147.9325  133.8220  155.0802 H   0  0  0  0  0  0  0  0  0  0  0  0
  150.4838  133.2984  156.1895 H   0  0  0  0  0  0  0  0  0  0  0  0
  149.0412  132.3126  156.3356 H   0  0  0  0  0  0  0  0  0  0  0  0
  151.2899  131.9955  154.3410 H   0  0  0  0  0  0  0  0  0  0  0  0
  150.5130  130.7400  155.3036 H   0  0  0  0  0  0  0  0  0  0  0  0
  149.7584  130.9911  152.7463 H   0  0  0  0  0  0  0  0  0  0  0  0
  148.4960  130.8694  153.9690 H   0  0  0  0  0  0  0  0  0  0  0  0
  149.5628  133.3416  152.6154 H   0  0  0  0  0  0  0  0  0  0  0  0
  146.6987  132.5091  153.3088 H   0  0  0  0  0  0  0  0  0  0  0  0
  147.4517  132.3947  151.7196 H   0  0  0  0  0  0  0  0  0  0  0  0
  147.1578  133.9723  152.4418 H   0  0  0  0  0  0  0  0  0  0  0  0
  149.4445  143.1286  156.4310 H   0  0  0  0  0  0  0  0  0  0  0  0
  1  2  1  0  0  0  0
  1 22  1  0  0  0  0
  1 23  1  0  0  0  0
  1 24  1  0  0  0  0
  2  8  1  0  0  0  0
  2  3  2  0  0  0  0
  3  4  1  0  0  0  0
  3 50  1  0  0  0  0
  4  5  1  0  0  0  0
  4  6  1  0  0  0  0
  5 25  1  0  0  0  0
  5 26  1  0  0  0  0
  5 27  1  0  0  0  0
  6  7  1  0  0  0  0
  6  8  2  0  0  0  0
  7 28  1  0  0  0  0
  7 29  1  0  0  0  0
  7 30  1  0  0  0  0
  8  9  1  0  0  0  0
  9 10  1  0  0  0  0
  9 31  1  0  0  0  0
  9 32  1  0  0  0  0
 10 11  1  0  0  0  0
 10 12  1  0  0  0  0
 10 33  1  0  0  0  0
 11 34  1  0  0  0  0
 11 35  1  0  0  0  0
 11 36  1  0  0  0  0
 12 13  1  0  0  0  0
 12 37  1  0  0  0  0
 13 14  2  0  0  0  0
 13 15  1  0  0  0  0
 15 16  1  0  0  0  0
 15 38  1  0  0  0  0
 16 20  1  0  0  0  0
 16 17  1  0  0  0  0
 16 39  1  0  0  0  0
 17 18  1  0  0  0  0
 17 40  1  0  0  0  0
 17 41  1  0  0  0  0
 18 19  1  0  0  0  0
 18 42  1  0  0  0  0
 18 43  1  0  0  0  0
 19 20  1  0  0  0  0
 19 44  1  0  0  0  0
 19 45  1  0  0  0  0
 20 21  1  0  0  0  0
 20 46  1  0  0  0  0
 21 47  1  0  0  0  0
 21 48  1  0  0  0  0
 21 49  1  0  0  0  0
M  CHG  1   3   1
M  END
> <s_m_source_file>
AV-unprocessed.smi

> <i_m_source_file_index>
671

> <i_lp_mmshare_version>
43012

> <i_f3d_flags>
0

> <s_epik_input>
W0NIM11jMW5uKFtDSDNdKWMoW0NIM10pYzFbQ0gyXVtDQEhdKFtDSDNdKVtOSF1DKD1PKVtOSF1bQ0BASF0yW0NIMl1bQ0gyXVtDSDJdW0NASF0yW0NIM10=

> <s_epik_cmdline>
J2VwaWtfcHl0aG9uJywgJy1waCcsICc3LjAnLCAnLXRuJywgJzgnLCAnLW1hJywgJzIwMCcsICctbWV0YWxfYmluZGluZycsICctaW1hZScsICc8aW5maWxlLm1hZT4nLCAnLW9tYWUnLCAnPG91dGZpbGUubWFlPic=

> <r_lp_tautomer_probability>
1

> <r_epik_Ionization_Penalty>
2.28705

> <r_epik_Ionization_Penalty_Charging>
2.28698

> <r_epik_Ionization_Penalty_Neutral>
6.23157e-05

> <r_epik_State_Penalty>
2.43671

> <r_epik_Charging_Adjusted_Penalty>
4.72369

> <i_epik_Tot_Q>
1

> <i_epik_Tot_abs_Q>
1

> <r_epik_Metal_State_Penalty>
2.44911

> <b_epik_Metal_Only>
0

> <s_lp_Force_Field>
OPLS_2005

> <r_lp_Energy>
34.579

> <b_lp_Chiralities_Consistent>
1

> <s_lp_Variant>
AV-unprocessed.smi:671-10

> <Gold.Version>
5.8.1

> <Gold.Id.Protein>
6NUR|6NUR_protein|mol2

> <Gold.PLP.Fitness>
43.2011

> <Gold.PLP.PLP>
-37.1005

> <Gold.PLP.part.hbond>
-2.0000

> <Gold.PLP.part.metal>
0.0000

> <Gold.PLP.part.buried>
-1.6863

> <Gold.PLP.part.nonpolar>
-32.3784

> <Gold.PLP.part.repulsive>
0.1760

> <Gold.PLP.ligand.clash>
0.0000

> <Gold.PLP.ligand.torsion>
0.9904

> <Gold.PLP.Chemscore.Hbond>
2.6840

> <Gold.PLP.Chemscore.CHOScore>
0.0000

> <Gold.PLP.Chemscore.Metal>
0.0000

> <Gold.Chemscore.Hbonds>
donor molecule, donor type, donor heavy atom, donor atom, acceptor molecule, acceptor atom, score
      L1  H     3    50       P1  8028  1.92
      L1  H    15    38       P1  7948  0.55

> <Gold.PLP.Chemscore.Internal.Correction>
0.0294

> <Gold.Rescore>
     Score         DG    S(hbond)    S(metal)    S(lipo)     H(rot)  DE(clash)    DE(int)     intcor
     12.17     -15.63       0.98        0.00      91.70       1.51       0.01       3.45       ----

> <Gold.Chemscore.Fitness>
12.1702

> <Gold.Chemscore.DG>
-15.6319

> <Gold.Chemscore.ZeroCoef>
-5.4800

> <Gold.Chemscore.Hbond>
0.9812

> <Gold.Chemscore.Metal>
0.0000

> <Gold.Chemscore.Lipo>
91.7043

> <Gold.Chemscore.Internal_Hbond>
0.0000

> <Gold.Chemscore.DEClash>
0.0106

> <Gold.Chemscore.DEInternal>
3.4510

> <Gold.Chemscore.Rot>
1.5057

> <Gold.Chemscore.Internal.Correction>
   9.000000E+99

> <Gold.Chemscore.Hbonds>
donor molecule, donor type, donor heavy atom, donor atom, acceptor molecule, acceptor atom, score
      L1  H     3    50       P1  8028  0.92
      L1  H    15    38       P1  7948  0.03

> <Gold.Chemscore.Hbond.Weighted>
-3.2772

> <Gold.Chemscore.Metal.Weighted>
-0.0000

> <Gold.Chemscore.Lipo.Weighted>
-10.7294

> <Gold.Chemscore.Internal_Hbond.Weighted>
0.0000

> <Gold.Chemscore.DEClash.Weighted>
0.0106

> <Gold.Chemscore.DEInternal.Weighted>
3.4510

> <Gold.Chemscore.Rot.Weighted>
3.8547

> <Gold.Chemscore.Internal.Correction.Weighted>
   9.000000E+99

> <Gold.Protein.RotatedTorsions>
[ 6907 6896 6895 6894 ] final   64.30 input  -60.11 | X-H torsion
[ 7974 7965 7964 7962 ] final   57.76 input  175.53 | X-H torsion
[ 8008 7997 7996 7995 ] final  -44.94 input   59.86 | X-H torsion
[ 10167 10162 10161 10158 ] final  -98.96 input  -65.29 | X-H torsion
[ 10718 10713 10712 10709 ] final  -14.61 input   66.30 | X-H torsion
[ 10763 10752 10751 10750 ] final   42.07 input  -60.55 | X-H torsion
[ 11005 11000 10999 10996 ] final    3.38 input  -57.11 | X-H torsion

> <Gold.Protein.ActiveResidues>
 VAL166  LYS551  ARG553  GLY616  TRP617  ASP618  TYR619  PRO620  LYS621  CYS622 
 ASP623  PHE694  ASN695  SER759  ASP760  ASP761  ALA762  ILE779  LEU786  VAL792 
 PHE793  MET794  SER795  GLU796  ALA797  LYS798  CYS799  TRP800  GLU811  SER814 

> <Gold.Protein.RotatedAtoms>
  152.4321  134.5758  159.9933 H   0  0  0  0  0  0  0  0  0  0  0  0  # atno 6907 bound_to 6896
  151.5878  133.3364  159.3029 H   0  0  0  0  0  0  0  0  0  0  0  0  # atno 6908 bound_to 6896
  150.8215  134.7460  159.6841 H   0  0  0  0  0  0  0  0  0  0  0  0  # atno 6909 bound_to 6896
  145.9255  139.3764  143.0452 H   0  0  0  0  0  0  0  0  0  0  0  0  # atno 7974 bound_to 7965
  154.3999  140.1409  156.3765 H   0  0  0  0  0  0  0  0  0  0  0  0  # atno 8008 bound_to 7997
  155.8044  140.3475  155.5400 H   0  0  0  0  0  0  0  0  0  0  0  0  # atno 8009 bound_to 7997
  155.8451  140.0932  157.1700 H   0  0  0  0  0  0  0  0  0  0  0  0  # atno 8010 bound_to 7997
  140.2674  143.3366  152.0567 H   0  0  0  0  0  0  0  0  0  0  0  0  # atno 10167 bound_to 10162
  156.6136  130.4856  149.6192 H   0  0  0  0  0  0  0  0  0  0  0  0  # atno 10718 bound_to 10713
  152.9892  135.6143  154.2889 H   0  0  0  0  0  0  0  0  0  0  0  0  # atno 10763 bound_to 10752
  154.2615  135.2782  155.2777 H   0  0  0  0  0  0  0  0  0  0  0  0  # atno 10764 bound_to 10752
  154.5201  135.5817  153.6731 H   0  0  0  0  0  0  0  0  0  0  0  0  # atno 10765 bound_to 10752
  140.5938  133.9899  155.8101 H   0  0  0  0  0  0  0  0  0  0  0  0  # atno 11005 bound_to 11000
  145.8494  140.9537  143.0757 LP  0  0  0  0  0  0  0  0  0  0  0  0  # atno 17320 bound_to 7965
  144.6758  140.0388  143.7481 LP  0  0  0  0  0  0  0  0  0  0  0  0  # atno 17321 bound_to 7965
  139.4998  144.6679  151.6313 LP  0  0  0  0  0  0  0  0  0  0  0  0  # atno 17342 bound_to 10162
  140.5917  143.9768  150.6329 LP  0  0  0  0  0  0  0  0  0  0  0  0  # atno 17343 bound_to 10162
  156.2370  130.6828  151.1519 LP  0  0  0  0  0  0  0  0  0  0  0  0  # atno 17370 bound_to 10713
  157.7247  131.0658  150.5982 LP  0  0  0  0  0  0  0  0  0  0  0  0  # atno 17371 bound_to 10713
  141.0917  133.9906  157.3226 LP  0  0  0  0  0  0  0  0  0  0  0  0  # atno 17394 bound_to 11000
  139.9262  135.0201  156.8243 LP  0  0  0  0  0  0  0  0  0  0  0  0  # atno 17395 bound_to 11000

$$$$
