AV-unprocessed.smi:2931|AV-procd|sdf|11245|dock9
  -GOLD-   2272016143D 1   1.00000     0.00000
 Structure written by MMmdl.
 42 43  0  0  0  0  0  0  0  0  2 V2000
  150.4790  138.8259  153.6590 C   0  0  0  0  0  0  0  0  0  0  0  0
  149.2331  139.5539  153.3361 N   0  3  2  0  0  0  0  0  0  0  0  0
  149.1470  140.8635  154.0292 C   0  0  0  0  0  0  0  0  0  0  0  0
  147.9069  141.6485  153.5703 C   0  0  0  0  0  0  0  0  0  0  0  0
  146.6263  140.8280  153.7778 C   0  0  0  0  0  0  0  0  0  0  0  0
  146.7543  139.4614  153.0813 C   0  0  2  0  0  0  0  0  0  0  0  0
  145.5776  138.6371  153.3394 N   0  0  0  0  0  0  0  0  0  0  0  0
  145.2439  137.5381  152.6488 C   0  0  0  0  0  0  0  0  0  0  0  0
  145.8869  137.1062  151.6920 O   0  0  0  0  0  0  0  0  0  0  0  0
  144.1388  136.9580  153.1394 N   0  0  0  0  0  0  0  0  0  0  0  0
  143.5588  135.7049  152.6608 C   0  0  0  0  0  0  0  0  0  0  0  0
  144.5022  134.5060  152.8794 C   0  0  0  0  0  0  0  0  0  0  0  0
  144.6199  133.5930  151.6706 C   0  0  0  0  0  0  0  0  0  0  0  0
  143.4722  133.0027  151.1029 C   0  0  0  0  0  0  0  0  0  0  0  0
  143.6292  132.1853  149.9658 C   0  0  0  0  0  0  0  0  0  0  0  0
  144.8261  131.9334  149.3930 N   0  0  0  0  0  0  0  0  0  0  0  0
  145.9215  132.4965  149.9465 C   0  0  0  0  0  0  0  0  0  0  0  0
  145.8741  133.3320  151.0802 C   0  0  0  0  0  0  0  0  0  0  0  0
  148.0210  138.7265  153.5587 C   0  0  0  0  0  0  0  0  0  0  0  0
  150.5194  138.5690  154.7184 H   0  0  0  0  0  0  0  0  0  0  0  0
  151.3527  139.4328  153.4199 H   0  0  0  0  0  0  0  0  0  0  0  0
  150.5469  137.9041  153.0803 H   0  0  0  0  0  0  0  0  0  0  0  0
  149.1133  140.7050  155.1084 H   0  0  0  0  0  0  0  0  0  0  0  0
  150.0446  141.4475  153.8219 H   0  0  0  0  0  0  0  0  0  0  0  0
  147.8380  142.5905  154.1149 H   0  0  0  0  0  0  0  0  0  0  0  0
  148.0080  141.9084  152.5155 H   0  0  0  0  0  0  0  0  0  0  0  0
  146.4509  140.6883  154.8454 H   0  0  0  0  0  0  0  0  0  0  0  0
  145.7672  141.3762  153.3890 H   0  0  0  0  0  0  0  0  0  0  0  0
  146.8481  139.6226  152.0051 H   0  0  0  0  0  0  0  0  0  0  0  0
  144.9847  138.9122  154.1090 H   0  0  0  0  0  0  0  0  0  0  0  0
  143.6815  137.3957  153.9258 H   0  0  0  0  0  0  0  0  0  0  0  0
  142.6247  135.5357  153.1966 H   0  0  0  0  0  0  0  0  0  0  0  0
  143.2911  135.7814  151.6055 H   0  0  0  0  0  0  0  0  0  0  0  0
  145.4947  134.8670  153.1522 H   0  0  0  0  0  0  0  0  0  0  0  0
  144.1530  133.9160  153.7274 H   0  0  0  0  0  0  0  0  0  0  0  0
  142.4921  133.1805  151.5203 H   0  0  0  0  0  0  0  0  0  0  0  0
  142.7700  131.7232  149.5027 H   0  0  0  0  0  0  0  0  0  0  0  0
  146.8652  132.2780  149.4687 H   0  0  0  0  0  0  0  0  0  0  0  0
  146.7795  133.7644  151.4799 H   0  0  0  0  0  0  0  0  0  0  0  0
  148.1231  137.7851  153.0164 H   0  0  0  0  0  0  0  0  0  0  0  0
  147.9412  138.4760  154.6181 H   0  0  0  0  0  0  0  0  0  0  0  0
  149.2667  139.7541  152.3465 H   0  0  0  0  0  0  0  0  0  0  0  0
  1  2  1  0  0  0  0
  1 20  1  0  0  0  0
  1 21  1  0  0  0  0
  1 22  1  0  0  0  0
  2 19  1  0  0  0  0
  2  3  1  0  0  0  0
  2 42  1  0  0  0  0
  3  4  1  0  0  0  0
  3 23  1  0  0  0  0
  3 24  1  0  0  0  0
  4  5  1  0  0  0  0
  4 25  1  0  0  0  0
  4 26  1  0  0  0  0
  5  6  1  0  0  0  0
  5 27  1  0  0  0  0
  5 28  1  0  0  0  0
  6  7  1  0  0  0  0
  6 19  1  0  0  0  0
  6 29  1  0  0  0  0
  7  8  1  0  0  0  0
  7 30  1  0  0  0  0
  8  9  2  0  0  0  0
  8 10  1  0  0  0  0
 10 11  1  0  0  0  0
 10 31  1  0  0  0  0
 11 12  1  0  0  0  0
 11 32  1  0  0  0  0
 11 33  1  0  0  0  0
 12 13  1  0  0  0  0
 12 34  1  0  0  0  0
 12 35  1  0  0  0  0
 13 18  1  0  0  0  0
 13 14  2  0  0  0  0
 14 15  1  0  0  0  0
 14 36  1  0  0  0  0
 15 16  2  0  0  0  0
 15 37  1  0  0  0  0
 16 17  1  0  0  0  0
 17 18  2  0  0  0  0
 17 38  1  0  0  0  0
 18 39  1  0  0  0  0
 19 40  1  0  0  0  0
 19 41  1  0  0  0  0
M  CHG  1   2   1
M  END
> <s_m_source_file>
AV-unprocessed.smi

> <i_m_source_file_index>
2931

> <i_lp_mmshare_version>
43012

> <i_f3d_flags>
0

> <s_epik_input>
W0NIM11OMVtDSDJdW0NIMl1bQ0gyXVtDQEhdKFtDSDJdMSlbTkhdQyg9TylbTkhdW0NIMl1bQ0gyXWMyW2NIXVtjSF1uW2NIXVtjSF0y

> <s_epik_cmdline>
J2VwaWtfcHl0aG9uJywgJy1waCcsICc3LjAnLCAnLXRuJywgJzgnLCAnLW1hJywgJzIwMCcsICctbWV0YWxfYmluZGluZycsICctaW1hZScsICc8aW5maWxlLm1hZT4nLCAnLW9tYWUnLCAnPG91dGZpbGUubWFlPic=

> <r_epik_Ionization_Penalty>
0.0573876

> <r_epik_Ionization_Penalty_Charging>
0.00229982

> <r_epik_Ionization_Penalty_Neutral>
0.0550878

> <r_epik_State_Penalty>
0.0473925

> <r_epik_Charging_Adjusted_Penalty>
0.0496923

> <i_epik_Tot_Q>
1

> <i_epik_Tot_abs_Q>
1

> <r_epik_Metal_State_Penalty>
0.0433388

> <b_epik_Metal_Only>
0

> <s_lp_Force_Field>
OPLS_2005

> <r_lp_Energy>
13.2125

> <b_lp_Chiralities_Consistent>
1

> <s_lp_Variant>
AV-unprocessed.smi:2931-4

> <Gold.Version>
5.8.1

> <Gold.Id.Protein>
6NUR|6NUR_protein|mol2

> <Gold.PLP.Fitness>
42.2982

> <Gold.PLP.PLP>
-34.3288

> <Gold.PLP.part.hbond>
-2.4457

> <Gold.PLP.part.metal>
0.0000

> <Gold.PLP.part.buried>
-6.6494

> <Gold.PLP.part.nonpolar>
-28.3977

> <Gold.PLP.part.repulsive>
1.0230

> <Gold.PLP.ligand.clash>
0.0000

> <Gold.PLP.ligand.torsion>
0.5191

> <Gold.PLP.Chemscore.Hbond>
1.0000

> <Gold.PLP.Chemscore.CHOScore>
2.0000

> <Gold.PLP.Chemscore.Metal>
0.0000

> <Gold.Chemscore.Hbonds>
donor molecule, donor type, donor heavy atom, donor atom, acceptor molecule, acceptor atom, score
      L1  H     2    42       P1  7957  0.34
      L1  C    15    37       P1 10952  1.00
      L1  C    17    38       P1 10747  0.71

> <Gold.PLP.Chemscore.Internal.Correction>
0.0075

> <Gold.Rescore>
     Score         DG    S(hbond)    S(metal)    S(lipo)     H(rot)  DE(clash)    DE(int)     intcor
     14.41     -15.54       1.00        0.00      91.62       1.56       0.58       0.55       ----

> <Gold.Chemscore.Fitness>
14.4053

> <Gold.Chemscore.DG>
-15.5424

> <Gold.Chemscore.ZeroCoef>
-5.4800

> <Gold.Chemscore.Hbond>
0.9983

> <Gold.Chemscore.Metal>
0.0000

> <Gold.Chemscore.Lipo>
91.6213

> <Gold.Chemscore.Internal_Hbond>
0.0000

> <Gold.Chemscore.DEClash>
0.5822

> <Gold.Chemscore.DEInternal>
0.5549

> <Gold.Chemscore.Rot>
1.5592

> <Gold.Chemscore.Internal.Correction>
   9.000000E+99

> <Gold.Chemscore.Hbonds>
donor molecule, donor type, donor heavy atom, donor atom, acceptor molecule, acceptor atom, score
      L1  H     2    42       P1  7957  0.33

> <Gold.Chemscore.Hbond.Weighted>
-3.3342

> <Gold.Chemscore.Metal.Weighted>
-0.0000

> <Gold.Chemscore.Lipo.Weighted>
-10.7197

> <Gold.Chemscore.Internal_Hbond.Weighted>
0.0000

> <Gold.Chemscore.DEClash.Weighted>
0.5822

> <Gold.Chemscore.DEInternal.Weighted>
0.5549

> <Gold.Chemscore.Rot.Weighted>
3.9915

> <Gold.Chemscore.Internal.Correction.Weighted>
   9.000000E+99

> <Gold.Protein.RotatedTorsions>
[ 6907 6896 6895 6894 ] final  148.74 input  -60.11 | X-H torsion
[ 7974 7965 7964 7962 ] final   50.36 input  175.53 | X-H torsion
[ 8008 7997 7996 7995 ] final  -82.50 input   59.86 | X-H torsion
[ 10167 10162 10161 10158 ] final  -10.80 input  -65.29 | X-H torsion
[ 10718 10713 10712 10709 ] final -141.37 input   66.30 | X-H torsion
[ 10763 10752 10751 10750 ] final   31.23 input  -60.55 | X-H torsion
[ 11005 11000 10999 10996 ] final   48.48 input  -57.11 | X-H torsion

> <Gold.Protein.ActiveResidues>
 VAL166  LYS551  ARG553  GLY616  TRP617  ASP618  TYR619  PRO620  LYS621  CYS622 
 ASP623  PHE694  ASN695  SER759  ASP760  ASP761  ALA762  ILE779  LEU786  VAL792 
 PHE793  MET794  SER795  GLU796  ALA797  LYS798  CYS799  TRP800  GLU811  SER814 

> <Gold.Protein.RotatedAtoms>
  152.1374  133.4444  159.4750 H   0  0  0  0  0  0  0  0  0  0  0  0  # atno 6907 bound_to 6896
  150.6883  134.2346  159.4457 H   0  0  0  0  0  0  0  0  0  0  0  0  # atno 6908 bound_to 6896
  152.0235  134.9809  160.0622 H   0  0  0  0  0  0  0  0  0  0  0  0  # atno 6909 bound_to 6896
  146.0020  139.4449  143.0009 H   0  0  0  0  0  0  0  0  0  0  0  0  # atno 7974 bound_to 7965
  154.6092  140.0632  156.9472 H   0  0  0  0  0  0  0  0  0  0  0  0  # atno 8008 bound_to 7997
  155.2001  140.3314  155.4326 H   0  0  0  0  0  0  0  0  0  0  0  0  # atno 8009 bound_to 7997
  156.2366  140.1866  156.7085 H   0  0  0  0  0  0  0  0  0  0  0  0  # atno 8010 bound_to 7997
  140.7123  143.5709  150.9094 H   0  0  0  0  0  0  0  0  0  0  0  0  # atno 10167 bound_to 10162
  156.3333  130.7598  151.1720 H   0  0  0  0  0  0  0  0  0  0  0  0  # atno 10718 bound_to 10713
  153.0327  135.6444  154.1167 H   0  0  0  0  0  0  0  0  0  0  0  0  # atno 10763 bound_to 10752
  154.0887  135.2868  155.3277 H   0  0  0  0  0  0  0  0  0  0  0  0  # atno 10764 bound_to 10752
  154.6480  135.5436  153.7931 H   0  0  0  0  0  0  0  0  0  0  0  0  # atno 10765 bound_to 10752
  140.1187  134.4858  155.8616 H   0  0  0  0  0  0  0  0  0  0  0  0  # atno 11005 bound_to 11000
  145.7473  140.9985  143.1269 LP  0  0  0  0  0  0  0  0  0  0  0  0  # atno 17320 bound_to 7965
  144.6922  139.9172  143.7466 LP  0  0  0  0  0  0  0  0  0  0  0  0  # atno 17321 bound_to 7965
  139.9435  143.6354  152.3047 LP  0  0  0  0  0  0  0  0  0  0  0  0  # atno 17342 bound_to 10162
  139.6848  144.7652  151.1544 LP  0  0  0  0  0  0  0  0  0  0  0  0  # atno 17343 bound_to 10162
  157.7434  131.0475  150.4948 LP  0  0  0  0  0  0  0  0  0  0  0  0  # atno 17370 bound_to 10713
  156.5117  130.4141  149.6297 LP  0  0  0  0  0  0  0  0  0  0  0  0  # atno 17371 bound_to 10713
  141.2147  133.6753  156.6846 LP  0  0  0  0  0  0  0  0  0  0  0  0  # atno 17394 bound_to 11000
  140.2994  134.8176  157.4085 LP  0  0  0  0  0  0  0  0  0  0  0  0  # atno 17395 bound_to 11000

$$$$
