AV-unprocessed.smi:213|AV-procd|sdf|1641|dock3
  -GOLD-   2262020 13D 1   1.00000     0.00000
 Structure written by MMmdl.
 58 61  0  0  0  0  0  0  0  0  1 V2000
  156.1231  140.4475  159.9730 C   0  0  0  0  0  0  0  0  0  0  0  0
  154.6086  140.1751  159.9575 C   0  0  2  0  0  0  0  0  0  0  0  0
  153.8418  141.0331  160.9887 C   0  0  0  0  0  0  0  0  0  0  0  0
  152.9631  142.0615  160.4296 N   0  0  0  0  0  0  0  0  0  0  0  0
  153.6421  142.8095  159.3768 C   0  0  0  0  0  0  0  0  0  0  0  0
  152.7381  143.8937  158.7653 C   0  0  0  0  0  0  0  0  0  0  0  0
  152.2860  144.7698  159.7925 O   0  0  0  0  0  0  0  0  0  0  0  0
  151.5755  144.0872  160.8200 C   0  0  0  0  0  0  0  0  0  0  0  0
  152.4727  143.0001  161.4374 C   0  0  0  0  0  0  0  0  0  0  0  0
  154.3322  138.7495  160.1562 N   0  0  0  0  0  0  0  0  0  0  0  0
  153.9139  138.2385  161.4602 C   0  0  0  0  0  0  0  0  0  0  0  0
  154.3395  137.8914  159.1013 C   0  0  0  0  0  0  0  0  0  0  0  0
  153.9290  138.3570  157.8910 N   0  0  0  0  0  0  0  0  0  0  0  0
  153.9189  137.5566  156.8216 C   0  0  0  0  0  0  0  0  0  0  0  0
  154.2670  136.2722  156.7383 N   0  0  0  0  0  0  0  0  0  0  0  0
  154.6671  135.7914  157.9496 C   0  0  0  0  0  0  0  0  0  0  0  0
  154.7334  136.5212  159.1715 C   0  0  0  0  0  0  0  0  0  0  0  0
  155.1677  135.6793  160.1911 N   0  0  0  0  0  0  0  0  0  0  0  0
  155.3603  134.5298  159.6048 C   0  0  0  0  0  0  0  0  0  0  0  0
  155.0813  134.5088  158.2583 N   0  0  0  0  0  0  0  0  0  0  0  0
  155.1903  133.3730  157.3609 C   0  0  0  0  0  0  0  0  0  0  0  0
  153.8553  132.6177  157.2142 C   0  0  2  0  0  0  0  0  0  0  0  0
  153.1797  132.5593  158.4559 O   0  0  0  0  0  0  0  0  0  0  0  0
  154.0292  131.2044  156.6236 C   0  0  2  0  0  0  0  0  0  0  0  0
  155.0611  131.0536  155.5033 C   0  0  0  0  0  0  0  0  0  0  0  0
  154.5854  129.7801  154.8407 C   0  0  0  0  0  0  0  0  0  0  0  0
  153.0670  129.9270  154.9259 C   0  0  0  0  0  0  0  0  0  0  0  0
  152.8068  130.6883  156.1031 O   0  0  0  0  0  0  0  0  0  0  0  0
  156.3375  141.4885  159.7312 H   0  0  0  0  0  0  0  0  0  0  0  0
  156.6385  139.8307  159.2363 H   0  0  0  0  0  0  0  0  0  0  0  0
  156.5632  140.2397  160.9481 H   0  0  0  0  0  0  0  0  0  0  0  0
  154.2318  140.4583  158.9785 H   0  0  0  0  0  0  0  0  0  0  0  0
  153.2572  140.3767  161.6354 H   0  0  0  0  0  0  0  0  0  0  0  0
  154.5717  141.5161  161.6396 H   0  0  0  0  0  0  0  0  0  0  0  0
  154.5435  143.2768  159.7771 H   0  0  0  0  0  0  0  0  0  0  0  0
  153.9677  142.1287  158.5895 H   0  0  0  0  0  0  0  0  0  0  0  0
  153.2869  144.4696  158.0204 H   0  0  0  0  0  0  0  0  0  0  0  0
  151.8833  143.4435  158.2583 H   0  0  0  0  0  0  0  0  0  0  0  0
  151.2708  144.8055  161.5811 H   0  0  0  0  0  0  0  0  0  0  0  0
  150.6644  143.6481  160.4106 H   0  0  0  0  0  0  0  0  0  0  0  0
  151.8986  142.4761  162.2004 H   0  0  0  0  0  0  0  0  0  0  0  0
  153.3149  143.4716  161.9461 H   0  0  0  0  0  0  0  0  0  0  0  0
  154.3818  137.2752  161.6664 H   0  0  0  0  0  0  0  0  0  0  0  0
  152.8313  138.1106  161.4902 H   0  0  0  0  0  0  0  0  0  0  0  0
  154.1933  138.9197  162.2634 H   0  0  0  0  0  0  0  0  0  0  0  0
  153.5825  138.0106  155.9011 H   0  0  0  0  0  0  0  0  0  0  0  0
  155.7043  133.6586  160.1434 H   0  0  0  0  0  0  0  0  0  0  0  0
  155.5264  133.7377  156.3896 H   0  0  0  0  0  0  0  0  0  0  0  0
  155.9714  132.7081  157.7320 H   0  0  0  0  0  0  0  0  0  0  0  0
  153.2119  133.1823  156.5381 H   0  0  0  0  0  0  0  0  0  0  0  0
  153.7959  132.7750  159.1390 H   0  0  0  0  0  0  0  0  0  0  0  0
  154.3175  130.5305  157.4323 H   0  0  0  0  0  0  0  0  0  0  0  0
  155.0077  131.8774  154.7908 H   0  0  0  0  0  0  0  0  0  0  0  0
  156.0846  130.9877  155.8731 H   0  0  0  0  0  0  0  0  0  0  0  0
  154.9464  129.6661  153.8182 H   0  0  0  0  0  0  0  0  0  0  0  0
  154.9125  128.9140  155.4177 H   0  0  0  0  0  0  0  0  0  0  0  0
  152.6904  130.4832  154.0666 H   0  0  0  0  0  0  0  0  0  0  0  0
  152.5582  128.9632  154.9548 H   0  0  0  0  0  0  0  0  0  0  0  0
  1  2  1  0  0  0  0
  1 29  1  0  0  0  0
  1 30  1  0  0  0  0
  1 31  1  0  0  0  0
  2  3  1  0  0  0  0
  2 10  1  0  0  0  0
  2 32  1  0  0  0  0
  3  4  1  0  0  0  0
  3 33  1  0  0  0  0
  3 34  1  0  0  0  0
  4  9  1  0  0  0  0
  4  5  1  0  0  0  0
  5  6  1  0  0  0  0
  5 35  1  0  0  0  0
  5 36  1  0  0  0  0
  6  7  1  0  0  0  0
  6 37  1  0  0  0  0
  6 38  1  0  0  0  0
  7  8  1  0  0  0  0
  8  9  1  0  0  0  0
  8 39  1  0  0  0  0
  8 40  1  0  0  0  0
  9 41  1  0  0  0  0
  9 42  1  0  0  0  0
 10 11  1  0  0  0  0
 10 12  1  0  0  0  0
 11 43  1  0  0  0  0
 11 44  1  0  0  0  0
 11 45  1  0  0  0  0
 12 17  1  0  0  0  0
 12 13  2  0  0  0  0
 13 14  1  0  0  0  0
 14 15  2  0  0  0  0
 14 46  1  0  0  0  0
 15 16  1  0  0  0  0
 16 20  1  0  0  0  0
 16 17  2  0  0  0  0
 17 18  1  0  0  0  0
 18 19  2  0  0  0  0
 19 20  1  0  0  0  0
 19 47  1  0  0  0  0
 20 21  1  0  0  0  0
 21 22  1  0  0  0  0
 21 48  1  0  0  0  0
 21 49  1  0  0  0  0
 22 23  1  0  0  0  0
 22 24  1  0  0  0  0
 22 50  1  0  0  0  0
 23 51  1  0  0  0  0
 24 28  1  0  0  0  0
 24 25  1  0  0  0  0
 24 52  1  0  0  0  0
 25 26  1  0  0  0  0
 25 53  1  0  0  0  0
 25 54  1  0  0  0  0
 26 27  1  0  0  0  0
 26 55  1  0  0  0  0
 26 56  1  0  0  0  0
 27 28  1  0  0  0  0
 27 57  1  0  0  0  0
 27 58  1  0  0  0  0
M  END
> <s_m_source_file>
AV-unprocessed.smi

> <i_m_source_file_index>
213

> <i_lp_mmshare_version>
43012

> <i_f3d_flags>
0

> <s_epik_input>
W0NIMl0xW0NIMl1PW0NIMl1bQ0gyXU4xW0NIMl1bQ0BASF0oW0NIM10pTihbQ0gzXSljKG5bY0hdbjIpYyhjMjMpbltjSF1uM1tDSDJdW0NASF0oW09IXSlbQ0BASF00W0NIMl1bQ0gyXVtDSDJdTzQ=

> <s_epik_cmdline>
J2VwaWtfcHl0aG9uJywgJy1waCcsICc3LjAnLCAnLXRuJywgJzgnLCAnLW1hJywgJzIwMCcsICctbWV0YWxfYmluZGluZycsICctaW1hZScsICc8aW5maWxlLm1hZT4nLCAnLW9tYWUnLCAnPG91dGZpbGUubWFlPic=

> <r_lp_tautomer_probability>
1

> <r_epik_Ionization_Penalty>
0.423322

> <r_epik_Ionization_Penalty_Charging>
0

> <r_epik_Ionization_Penalty_Neutral>
0.423322

> <r_epik_State_Penalty>
0.569486

> <r_epik_Charging_Adjusted_Penalty>
0.569486

> <i_epik_Tot_Q>
0

> <i_epik_Tot_abs_Q>
0

> <r_epik_Metal_State_Penalty>
0.568671

> <b_epik_Metal_Only>
0

> <s_lp_Force_Field>
OPLS_2005

> <r_lp_Energy>
51.8913

> <b_lp_Chiralities_Consistent>
1

> <s_lp_Variant>
AV-unprocessed.smi:213-9

> <Gold.Version>
5.8.1

> <Gold.Id.Protein>
6NUR|6NUR_protein|mol2

> <Gold.PLP.Fitness>
46.3628

> <Gold.PLP.PLP>
-42.6752

> <Gold.PLP.part.hbond>
-3.0000

> <Gold.PLP.part.metal>
0.0000

> <Gold.PLP.part.buried>
-6.9032

> <Gold.PLP.part.nonpolar>
-33.5772

> <Gold.PLP.part.repulsive>
0.0568

> <Gold.PLP.ligand.clash>
0.0000

> <Gold.PLP.ligand.torsion>
2.8129

> <Gold.PLP.Chemscore.Hbond>
2.8480

> <Gold.PLP.Chemscore.CHOScore>
0.0000

> <Gold.PLP.Chemscore.Metal>
0.0000

> <Gold.Chemscore.Hbonds>
donor molecule, donor type, donor heavy atom, donor atom, acceptor molecule, acceptor atom, score
      P1  H  6896  6909       L1    23  0.55
      P1  H  7997  8010       L1    13  1.00
      P1  H 10752 10764       L1    15  1.00

> <Gold.PLP.Chemscore.Internal.Correction>
0.7695

> <Gold.Rescore>
     Score         DG    S(hbond)    S(metal)    S(lipo)     H(rot)  DE(clash)    DE(int)     intcor
     15.45     -18.27       1.97        0.00     113.05       2.74       0.05       2.76       ----

> <Gold.Chemscore.Fitness>
15.4517

> <Gold.Chemscore.DG>
-18.2655

> <Gold.Chemscore.ZeroCoef>
-5.4800

> <Gold.Chemscore.Hbond>
1.9664

> <Gold.Chemscore.Metal>
0.0000

> <Gold.Chemscore.Lipo>
113.0475

> <Gold.Chemscore.Internal_Hbond>
0.0000

> <Gold.Chemscore.DEClash>
0.0515

> <Gold.Chemscore.DEInternal>
2.7623

> <Gold.Chemscore.Rot>
2.7378

> <Gold.Chemscore.Internal.Correction>
   9.000000E+99

> <Gold.Chemscore.Hbonds>
donor molecule, donor type, donor heavy atom, donor atom, acceptor molecule, acceptor atom, score
      P1  H  6896  6909       L1    23  0.04
      P1  H  7997  8010       L1    13  0.24
      P1  H 10752 10764       L1    15  0.95

> <Gold.Chemscore.Hbond.Weighted>
-6.5676

> <Gold.Chemscore.Metal.Weighted>
-0.0000

> <Gold.Chemscore.Lipo.Weighted>
-13.2266

> <Gold.Chemscore.Internal_Hbond.Weighted>
0.0000

> <Gold.Chemscore.DEClash.Weighted>
0.0515

> <Gold.Chemscore.DEInternal.Weighted>
2.7623

> <Gold.Chemscore.Rot.Weighted>
7.0087

> <Gold.Chemscore.Internal.Correction.Weighted>
   9.000000E+99

> <Gold.Protein.RotatedTorsions>
[ 6907 6896 6895 6894 ] final  -69.82 input  -60.11 | X-H torsion
[ 7974 7965 7964 7962 ] final  158.24 input  175.53 | X-H torsion
[ 8008 7997 7996 7995 ] final   27.64 input   59.86 | X-H torsion
[ 10167 10162 10161 10158 ] final  151.01 input  -65.29 | X-H torsion
[ 10718 10713 10712 10709 ] final  140.30 input   66.30 | X-H torsion
[ 10763 10752 10751 10750 ] final   32.53 input  -60.55 | X-H torsion
[ 11005 11000 10999 10996 ] final -152.29 input  -57.11 | X-H torsion

> <Gold.Protein.ActiveResidues>
 VAL166  LYS551  ARG553  GLY616  TRP617  ASP618  TYR619  PRO620  LYS621  CYS622 
 ASP623  PHE694  ASN695  SER759  ASP760  ASP761  ALA762  ILE779  LEU786  VAL792 
 PHE793  MET794  SER795  GLU796  ALA797  LYS798  CYS799  TRP800  GLU811  SER814 

> <Gold.Protein.RotatedAtoms>
  150.7287  134.5541  159.5809 H   0  0  0  0  0  0  0  0  0  0  0  0  # atno 6907 bound_to 6896
  152.3021  134.7596  160.0364 H   0  0  0  0  0  0  0  0  0  0  0  0  # atno 6908 bound_to 6896
  151.8173  133.3354  159.3610 H   0  0  0  0  0  0  0  0  0  0  0  0  # atno 6909 bound_to 6896
  144.7857  139.7451  143.6242 H   0  0  0  0  0  0  0  0  0  0  0  0  # atno 7974 bound_to 7965
  155.0460  140.3174  155.4708 H   0  0  0  0  0  0  0  0  0  0  0  0  # atno 8008 bound_to 7997
  156.2844  140.2154  156.5529 H   0  0  0  0  0  0  0  0  0  0  0  0  # atno 8009 bound_to 7997
  154.7250  140.0486  157.0662 H   0  0  0  0  0  0  0  0  0  0  0  0  # atno 8010 bound_to 7997
  139.4844  144.5476  151.7457 H   0  0  0  0  0  0  0  0  0  0  0  0  # atno 10167 bound_to 10162
  157.4048  131.1021  151.0514 H   0  0  0  0  0  0  0  0  0  0  0  0  # atno 10718 bound_to 10713
  153.0258  135.6411  154.1369 H   0  0  0  0  0  0  0  0  0  0  0  0  # atno 10763 bound_to 10752
  154.1099  135.2853  155.3234 H   0  0  0  0  0  0  0  0  0  0  0  0  # atno 10764 bound_to 10752
  154.6339  135.5483  153.7774 H   0  0  0  0  0  0  0  0  0  0  0  0  # atno 10765 bound_to 10752
  140.7204  134.3733  157.5184 H   0  0  0  0  0  0  0  0  0  0  0  0  # atno 11005 bound_to 11000
  146.2087  139.5429  142.9695 LP  0  0  0  0  0  0  0  0  0  0  0  0  # atno 17320 bound_to 7965
  145.5929  141.0367  143.2060 LP  0  0  0  0  0  0  0  0  0  0  0  0  # atno 17321 bound_to 7965
  140.5025  144.1147  150.5974 LP  0  0  0  0  0  0  0  0  0  0  0  0  # atno 17342 bound_to 10162
  140.4045  143.2687  151.9907 LP  0  0  0  0  0  0  0  0  0  0  0  0  # atno 17343 bound_to 10162
  157.1500  130.6180  149.5579 LP  0  0  0  0  0  0  0  0  0  0  0  0  # atno 17370 bound_to 10713
  155.9833  130.4852  150.6928 LP  0  0  0  0  0  0  0  0  0  0  0  0  # atno 17371 bound_to 10713
  139.8849  134.8951  156.2673 LP  0  0  0  0  0  0  0  0  0  0  0  0  # atno 17394 bound_to 11000
  141.0008  133.7152  156.0957 LP  0  0  0  0  0  0  0  0  0  0  0  0  # atno 17395 bound_to 11000

$$$$
