AV-unprocessed.smi:54|AV-procd|sdf|538|dock1
  -GOLD-   2262016423D 1   1.00000     0.00000
 Structure written by MMmdl.
 44 46  0  0  0  0  0  0  0  0  1 V2000
  154.5610  139.6485  161.3728 C   0  0  0  0  0  0  0  0  0  0  0  0
  153.5759  138.4874  161.5840 C   0  0  0  0  0  0  0  0  0  0  0  0
  154.1773  137.4057  162.4961 C   0  0  0  0  0  0  0  0  0  0  0  0
  153.1546  137.8875  160.2377 C   0  0  0  0  0  0  0  0  0  0  0  0
  153.4444  136.7340  159.9180 O   0  0  0  0  0  0  0  0  0  0  0  0
  152.3994  138.7746  159.3701 N   0  0  0  0  0  0  0  0  0  0  0  0
  151.9155  138.5013  158.1362 C   0  0  0  0  0  0  0  0  0  0  0  0
  151.3646  139.4183  157.3540 N   0  0  0  0  0  0  0  0  0  0  0  0
  150.9298  138.9507  156.1452 C   0  0  0  0  0  0  0  0  0  0  0  0
  151.0295  137.6557  155.6818 C   0  0  0  0  0  0  0  0  0  0  0  0
  150.4949  137.5639  154.4021 N   0  0  0  0  0  0  0  0  0  0  0  0
  150.0991  138.7776  154.1360 C   0  0  0  0  0  0  0  0  0  0  0  0
  150.3013  139.6790  155.1568 N   0  0  0  0  0  0  0  0  0  0  0  0
  150.0059  141.1494  155.2105 C   0  0  1  0  0  0  0  0  0  0  0  0
  149.2223  141.4908  154.1107 O   0  0  0  0  0  0  0  0  0  0  0  0
  147.8503  141.3319  154.4471 C   0  0  2  0  0  0  0  0  0  0  0  0
  146.9770  142.1377  153.4743 C   0  0  0  0  0  0  0  0  0  0  0  0
  145.6409  142.1580  153.9284 O   0  0  0  0  0  0  0  0  0  0  0  0
  147.8023  141.8523  155.8882 C   0  0  1  0  0  0  0  0  0  0  0  0
  146.7725  141.1991  156.6038 O   0  0  0  0  0  0  0  0  0  0  0  0
  149.1740  141.4920  156.4615 C   0  0  2  0  0  0  0  0  0  0  0  0
  149.7256  142.5889  157.1612 O   0  0  0  0  0  0  0  0  0  0  0  0
  151.6323  136.6527  156.5118 C   0  0  0  0  0  0  0  0  0  0  0  0
  151.8027  135.4606  156.2651 O   0  0  0  0  0  0  0  0  0  0  0  0
  152.0546  137.1700  157.7435 N   0  0  0  0  0  0  0  0  0  0  0  0
  150.9898  141.6193  155.1701 H   0  0  0  0  0  0  0  0  0  0  0  0
  147.5841  140.2731  154.4251 H   0  0  0  0  0  0  0  0  0  0  0  0
  147.6431  142.9319  155.8984 H   0  0  0  0  0  0  0  0  0  0  0  0
  149.1229  140.6318  157.1311 H   0  0  0  0  0  0  0  0  0  0  0  0
  154.1331  140.4203  160.7319 H   0  0  0  0  0  0  0  0  0  0  0  0
  155.4889  139.3085  160.9109 H   0  0  0  0  0  0  0  0  0  0  0  0
  154.8181  140.1182  162.3224 H   0  0  0  0  0  0  0  0  0  0  0  0
  152.6858  138.8841  162.0745 H   0  0  0  0  0  0  0  0  0  0  0  0
  153.4813  136.5791  162.6438 H   0  0  0  0  0  0  0  0  0  0  0  0
  154.4142  137.8128  163.4795 H   0  0  0  0  0  0  0  0  0  0  0  0
  155.0981  136.9957  162.0790 H   0  0  0  0  0  0  0  0  0  0  0  0
  152.2419  139.7073  159.7222 H   0  0  0  0  0  0  0  0  0  0  0  0
  149.6501  139.0393  153.1887 H   0  0  0  0  0  0  0  0  0  0  0  0
  147.3229  143.1706  153.4293 H   0  0  0  0  0  0  0  0  0  0  0  0
  147.0302  141.7332  152.4631 H   0  0  0  0  0  0  0  0  0  0  0  0
  145.2363  141.3325  153.7092 H   0  0  0  0  0  0  0  0  0  0  0  0
  146.0011  141.7448  156.5862 H   0  0  0  0  0  0  0  0  0  0  0  0
  149.2668  143.3728  156.9011 H   0  0  0  0  0  0  0  0  0  0  0  0
  152.4863  136.5178  158.3815 H   0  0  0  0  0  0  0  0  0  0  0  0
  1  2  1  0  0  0  0
  1 30  1  0  0  0  0
  1 31  1  0  0  0  0
  1 32  1  0  0  0  0
  2  3  1  0  0  0  0
  2  4  1  0  0  0  0
  2 33  1  0  0  0  0
  3 34  1  0  0  0  0
  3 35  1  0  0  0  0
  3 36  1  0  0  0  0
  4  5  2  0  0  0  0
  4  6  1  0  0  0  0
  6 37  1  0  0  0  0
  6  7  1  0  0  0  0
  7 25  1  0  0  0  0
  7  8  2  0  0  0  0
  8  9  1  0  0  0  0
  9 13  1  0  0  0  0
  9 10  2  0  0  0  0
 10 11  1  0  0  0  0
 10 23  1  0  0  0  0
 11 12  2  0  0  0  0
 12 13  1  0  0  0  0
 12 38  1  0  0  0  0
 13 14  1  0  0  0  0
 14 26  1  0  0  0  0
 14 21  1  0  0  0  0
 14 15  1  0  0  0  0
 15 16  1  0  0  0  0
 16 27  1  0  0  0  0
 16 17  1  0  0  0  0
 16 19  1  0  0  0  0
 17 18  1  0  0  0  0
 17 39  1  0  0  0  0
 17 40  1  0  0  0  0
 18 41  1  0  0  0  0
 19 28  1  0  0  0  0
 19 20  1  0  0  0  0
 19 21  1  0  0  0  0
 20 42  1  0  0  0  0
 21 29  1  0  0  0  0
 21 22  1  0  0  0  0
 22 43  1  0  0  0  0
 23 24  2  0  0  0  0
 23 25  1  0  0  0  0
 25 44  1  0  0  0  0
M  END
> <s_m_source_file>
AV-unprocessed.smi

> <i_m_source_file_index>
54

> <i_lp_mmshare_version>
43012

> <i_f3d_flags>
0

> <s_epik_input>
W0NIM11bQ0hdKFtDSDNdKUMoPU8pW05IXWMobjEpW25IXWMoPU8pYyhjMTIpbltjSF1uMltDQEBIXTNPW0NASF0oW0NIMl1bT0hdKVtDQEBIXShbT0hdKVtDQEhdM1tPSF0=

> <s_epik_cmdline>
J2VwaWtfcHl0aG9uJywgJy1waCcsICc3LjAnLCAnLXRuJywgJzgnLCAnLW1hJywgJzIwMCcsICctbWV0YWxfYmluZGluZycsICctaW1hZScsICc8aW5maWxlLm1hZT4nLCAnLW9tYWUnLCAnPG91dGZpbGUubWFlPic=

> <r_lp_tautomer_probability>
0.85571

> <r_epik_Ionization_Penalty>
0.0316551

> <r_epik_Ionization_Penalty_Charging>
0.0316043

> <r_epik_Ionization_Penalty_Neutral>
5.07097e-05

> <r_epik_State_Penalty>
3.15494e-07

> <r_epik_Charging_Adjusted_Penalty>
0.0316047

> <i_epik_Tot_Q>
0

> <i_epik_Tot_abs_Q>
0

> <r_epik_Metal_State_Penalty>
0.421206

> <b_epik_Metal_Only>
0

> <s_epik_Chemistry_Notes>
This compound contains an acetal/aminal-like group ( X-CH(R)-Y where X, Y are N, S, or O) that may be acid/base labile, releasing an aldehyde.

> <s_lp_Force_Field>
OPLS_2005

> <r_lp_Energy>
36.3126

> <b_lp_Chiralities_Consistent>
1

> <s_lp_Variant>
AV-unprocessed.smi:54-10

> <Gold.Version>
5.8.1

> <Gold.Id.Protein>
6NUR|6NUR_protein|mol2

> <Gold.PLP.Fitness>
45.1120

> <Gold.PLP.PLP>
-30.4558

> <Gold.PLP.part.hbond>
-5.9791

> <Gold.PLP.part.metal>
0.0000

> <Gold.PLP.part.buried>
-4.1720

> <Gold.PLP.part.nonpolar>
-21.4544

> <Gold.PLP.part.repulsive>
0.6349

> <Gold.PLP.ligand.clash>
0.0000

> <Gold.PLP.ligand.torsion>
0.2530

> <Gold.PLP.Chemscore.Hbond>
4.0043

> <Gold.PLP.Chemscore.CHOScore>
1.0000

> <Gold.PLP.Chemscore.Metal>
0.0000

> <Gold.Chemscore.Hbonds>
donor molecule, donor type, donor heavy atom, donor atom, acceptor molecule, acceptor atom, score
      L1  H    18    41       P1 10175  0.58
      L1  H    22    43       P1  8028  1.00
      P1  H  6896  6907       L1     5  0.60
      P1  H  8011  8017       L1    15  0.58
      P1  H 10752 10763       L1    24  0.99
      L1  C    12    38       P1  7957  1.00

> <Gold.PLP.Chemscore.Internal.Correction>
0.1493

> <Gold.Rescore>
     Score         DG    S(hbond)    S(metal)    S(lipo)     H(rot)  DE(clash)    DE(int)     intcor
      8.25     -10.04       2.75        0.00      49.07       4.05       1.46       0.32       ----

> <Gold.Chemscore.Fitness>
8.2528

> <Gold.Chemscore.DG>
-10.0411

> <Gold.Chemscore.ZeroCoef>
-5.4800

> <Gold.Chemscore.Hbond>
2.7502

> <Gold.Chemscore.Metal>
0.0000

> <Gold.Chemscore.Lipo>
49.0745

> <Gold.Chemscore.Internal_Hbond>
0.0000

> <Gold.Chemscore.DEClash>
1.4645

> <Gold.Chemscore.DEInternal>
0.3238

> <Gold.Chemscore.Rot>
4.0493

> <Gold.Chemscore.Internal.Correction>
   9.000000E+99

> <Gold.Chemscore.Hbonds>
donor molecule, donor type, donor heavy atom, donor atom, acceptor molecule, acceptor atom, score
      L1  H    18    41       P1 10175  0.20
      L1  H    22    43       P1  8028  0.89
      P1  H  6896  6907       L1     5  0.60
      P1  H  8011  8017       L1    15  0.56
      P1  H 10752 10763       L1    24  0.37

> <Gold.Chemscore.Hbond.Weighted>
-9.1856

> <Gold.Chemscore.Metal.Weighted>
-0.0000

> <Gold.Chemscore.Lipo.Weighted>
-5.7417

> <Gold.Chemscore.Internal_Hbond.Weighted>
0.0000

> <Gold.Chemscore.DEClash.Weighted>
1.4645

> <Gold.Chemscore.DEInternal.Weighted>
0.3238

> <Gold.Chemscore.Rot.Weighted>
10.3662

> <Gold.Chemscore.Internal.Correction.Weighted>
   9.000000E+99

> <Gold.Protein.RotatedTorsions>
[ 6907 6896 6895 6894 ] final   44.74 input  -60.11 | X-H torsion
[ 7974 7965 7964 7962 ] final -123.38 input  175.53 | X-H torsion
[ 8008 7997 7996 7995 ] final -120.68 input   59.86 | X-H torsion
[ 10167 10162 10161 10158 ] final  129.79 input  -65.29 | X-H torsion
[ 10718 10713 10712 10709 ] final  -99.97 input   66.30 | X-H torsion
[ 10763 10752 10751 10750 ] final   73.12 input  -60.55 | X-H torsion
[ 11005 11000 10999 10996 ] final   48.76 input  -57.11 | X-H torsion

> <Gold.Protein.ActiveResidues>
 VAL166  LYS551  ARG553  GLY616  TRP617  ASP618  TYR619  PRO620  LYS621  CYS622 
 ASP623  PHE694  ASN695  SER759  ASP760  ASP761  ALA762  ILE779  LEU786  VAL792 
 PHE793  MET794  SER795  GLU796  ALA797  LYS798  CYS799  TRP800  GLU811  SER814 

> <Gold.Protein.RotatedAtoms>
  152.2362  134.8274  160.0466 H   0  0  0  0  0  0  0  0  0  0  0  0  # atno 6907 bound_to 6896
  151.9005  133.3532  159.3837 H   0  0  0  0  0  0  0  0  0  0  0  0  # atno 6908 bound_to 6896
  150.7040  134.4759  159.5491 H   0  0  0  0  0  0  0  0  0  0  0  0  # atno 6909 bound_to 6896
  145.0193  140.7974  143.4391 H   0  0  0  0  0  0  0  0  0  0  0  0  # atno 7974 bound_to 7965
  155.1357  140.0401  157.2786 H   0  0  0  0  0  0  0  0  0  0  0  0  # atno 8008 bound_to 7997
  154.6510  140.2569  155.7188 H   0  0  0  0  0  0  0  0  0  0  0  0  # atno 8009 bound_to 7997
  156.2577  140.2836  156.0943 H   0  0  0  0  0  0  0  0  0  0  0  0  # atno 8010 bound_to 7997
  139.5461  144.6774  151.4470 H   0  0  0  0  0  0  0  0  0  0  0  0  # atno 10167 bound_to 10162
  156.0149  130.5307  150.6749 H   0  0  0  0  0  0  0  0  0  0  0  0  # atno 10718 bound_to 10713
  153.0501  135.5074  154.7846 H   0  0  0  0  0  0  0  0  0  0  0  0  # atno 10763 bound_to 10752
  154.6715  135.2954  154.9738 H   0  0  0  0  0  0  0  0  0  0  0  0  # atno 10764 bound_to 10752
  154.0554  135.6698  153.4858 H   0  0  0  0  0  0  0  0  0  0  0  0  # atno 10765 bound_to 10752
  140.1162  134.4889  155.8635 H   0  0  0  0  0  0  0  0  0  0  0  0  # atno 11005 bound_to 11000
  145.1917  139.2297  143.5239 LP  0  0  0  0  0  0  0  0  0  0  0  0  # atno 17320 bound_to 7965
  146.3483  140.1715  142.8589 LP  0  0  0  0  0  0  0  0  0  0  0  0  # atno 17321 bound_to 7965
  140.6709  143.8296  150.6998 LP  0  0  0  0  0  0  0  0  0  0  0  0  # atno 17342 bound_to 10162
  140.1720  143.4187  152.1994 LP  0  0  0  0  0  0  0  0  0  0  0  0  # atno 17343 bound_to 10162
  157.4464  131.0867  151.0891 LP  0  0  0  0  0  0  0  0  0  0  0  0  # atno 17370 bound_to 10713
  157.1420  130.6147  149.5558 LP  0  0  0  0  0  0  0  0  0  0  0  0  # atno 17371 bound_to 10713
  141.2142  133.6744  156.6801 LP  0  0  0  0  0  0  0  0  0  0  0  0  # atno 17394 bound_to 11000
  140.3025  134.8152  157.4109 LP  0  0  0  0  0  0  0  0  0  0  0  0  # atno 17395 bound_to 11000

$$$$
