AV-unprocessed.smi:1629|AV-procd|sdf|6522|dock5
  -GOLD-   22720 7193D 1   1.00000     0.00000
 Structure written by MMmdl.
 45 46  0  0  0  0  0  0  0  0  2 V2000
  145.7772  133.8933  151.6037 C   0  0  0  0  0  0  0  0  0  0  0  0
  145.2164  135.6414  151.5209 S   0  0  0  0  0  0  0  0  0  0  0  0
  145.5856  136.1992  150.2112 O   0  0  0  0  0  0  0  0  0  0  0  0
  143.8226  135.7017  151.9875 O   0  0  0  0  0  0  0  0  0  0  0  0
  146.2117  136.4023  152.7098 N   0  0  0  0  0  0  0  0  0  0  0  0
  146.0156  137.8238  153.0078 C   0  0  0  0  0  0  0  0  0  0  0  0
  146.7988  138.7061  152.0107 C   0  0  0  0  0  0  0  0  0  0  0  0
  146.7472  140.1880  152.4246 C   0  0  0  0  0  0  0  0  0  0  0  0
  147.2635  140.3211  153.7981 N   0  0  0  0  0  0  0  0  0  0  0  0
  148.4657  140.8394  154.1557 C   0  0  0  0  0  0  0  0  0  0  0  0
  149.3005  141.2362  153.3413 O   0  0  0  0  0  0  0  0  0  0  0  0
  148.7064  140.8439  155.4770 N   0  0  0  0  0  0  0  0  0  0  0  0
  149.9441  141.3059  156.0896 C   0  0  0  0  0  0  0  0  0  0  0  0
  149.7442  141.5646  157.5891 C   0  0  0  0  0  0  0  0  0  0  0  0
  150.7934  142.5039  158.1525 C   0  0  0  0  0  0  0  0  0  0  0  0
  151.6436  142.1284  159.2154 C   0  0  0  0  0  0  0  0  0  0  0  0
  152.6055  143.0466  159.6860 C   0  0  0  0  0  0  0  0  0  0  0  0
  152.6977  144.3188  159.0843 C   0  0  0  0  0  0  0  0  0  0  0  0
  151.8255  144.6404  158.0244 C   0  0  0  0  0  0  0  0  0  0  0  0
  150.9174  143.7334  157.6015 N   0  3  0  0  0  0  0  0  0  0  0  0
  146.4037  139.6195  154.7601 C   0  0  0  0  0  0  0  0  0  0  0  0
  146.4417  138.1101  154.4618 C   0  0  0  0  0  0  0  0  0  0  0  0
  145.2066  133.2956  150.8931 H   0  0  0  0  0  0  0  0  0  0  0  0
  145.6176  133.5075  152.6106 H   0  0  0  0  0  0  0  0  0  0  0  0
  146.8370  133.8371  151.3561 H   0  0  0  0  0  0  0  0  0  0  0  0
  147.1968  136.1927  152.5498 H   0  0  0  0  0  0  0  0  0  0  0  0
  144.9532  138.0536  152.9183 H   0  0  0  0  0  0  0  0  0  0  0  0
  147.8392  138.3808  151.9632 H   0  0  0  0  0  0  0  0  0  0  0  0
  146.3920  138.5930  151.0053 H   0  0  0  0  0  0  0  0  0  0  0  0
  147.2801  140.7902  151.6892 H   0  0  0  0  0  0  0  0  0  0  0  0
  145.7164  140.5442  152.3962 H   0  0  0  0  0  0  0  0  0  0  0  0
  147.9879  140.4908  156.0923 H   0  0  0  0  0  0  0  0  0  0  0  0
  150.7229  140.5553  155.9443 H   0  0  0  0  0  0  0  0  0  0  0  0
  150.2746  142.2168  155.5879 H   0  0  0  0  0  0  0  0  0  0  0  0
  148.7551  141.9891  157.7681 H   0  0  0  0  0  0  0  0  0  0  0  0
  149.7789  140.6225  158.1383 H   0  0  0  0  0  0  0  0  0  0  0  0
  151.5633  141.1488  159.6640 H   0  0  0  0  0  0  0  0  0  0  0  0
  153.2654  142.7782  160.4980 H   0  0  0  0  0  0  0  0  0  0  0  0
  153.4275  145.0364  159.4303 H   0  0  0  0  0  0  0  0  0  0  0  0
  151.8269  145.5882  157.5060 H   0  0  0  0  0  0  0  0  0  0  0  0
  146.6939  139.8024  155.7957 H   0  0  0  0  0  0  0  0  0  0  0  0
  145.3827  139.9933  154.6711 H   0  0  0  0  0  0  0  0  0  0  0  0
  145.7902  137.5775  155.1555 H   0  0  0  0  0  0  0  0  0  0  0  0
  147.4519  137.7355  154.6357 H   0  0  0  0  0  0  0  0  0  0  0  0
  150.2972  143.9879  156.8324 H   0  0  0  0  0  0  0  0  0  0  0  0
  1  2  1  0  0  0  0
  1 23  1  0  0  0  0
  1 24  1  0  0  0  0
  1 25  1  0  0  0  0
  2  3  2  0  0  0  0
  2  4  2  0  0  0  0
  2  5  1  0  0  0  0
  5  6  1  0  0  0  0
  5 26  1  0  0  0  0
  6 22  1  0  0  0  0
  6  7  1  0  0  0  0
  6 27  1  0  0  0  0
  7  8  1  0  0  0  0
  7 28  1  0  0  0  0
  7 29  1  0  0  0  0
  8  9  1  0  0  0  0
  8 30  1  0  0  0  0
  8 31  1  0  0  0  0
  9 10  1  0  0  0  0
  9 21  1  0  0  0  0
 10 11  2  0  0  0  0
 10 12  1  0  0  0  0
 12 13  1  0  0  0  0
 12 32  1  0  0  0  0
 13 14  1  0  0  0  0
 13 33  1  0  0  0  0
 13 34  1  0  0  0  0
 14 15  1  0  0  0  0
 14 35  1  0  0  0  0
 14 36  1  0  0  0  0
 15 20  1  0  0  0  0
 15 16  2  0  0  0  0
 16 17  1  0  0  0  0
 16 37  1  0  0  0  0
 17 18  2  0  0  0  0
 17 38  1  0  0  0  0
 18 19  1  0  0  0  0
 18 39  1  0  0  0  0
 19 20  2  0  0  0  0
 19 40  1  0  0  0  0
 20 45  1  0  0  0  0
 21 22  1  0  0  0  0
 21 41  1  0  0  0  0
 21 42  1  0  0  0  0
 22 43  1  0  0  0  0
 22 44  1  0  0  0  0
M  CHG  1  20   1
M  END
> <s_m_source_file>
AV-unprocessed.smi

> <i_m_source_file_index>
1629

> <i_lp_mmshare_version>
43012

> <i_f3d_flags>
0

> <s_epik_input>
W0NIM11TKD1PKSg9TylbTkhdW0NIXTFbQ0gyXVtDSDJdTihbQ0gyXVtDSDJdMSlDKD1PKVtOSF1bQ0gyXVtDSDJdYzJbY0hdW2NIXVtjSF1bY0hdbjI=

> <s_epik_cmdline>
J2VwaWtfcHl0aG9uJywgJy1waCcsICc3LjAnLCAnLXRuJywgJzgnLCAnLW1hJywgJzIwMCcsICctbWV0YWxfYmluZGluZycsICctaW1hZScsICc8aW5maWxlLm1hZT4nLCAnLW9tYWUnLCAnPG91dGZpbGUubWFlPic=

> <r_epik_Ionization_Penalty>
1.55223

> <r_epik_Ionization_Penalty_Charging>
1.55216

> <r_epik_Ionization_Penalty_Neutral>
6.06433e-05

> <r_epik_State_Penalty>
1.64647

> <r_epik_Charging_Adjusted_Penalty>
3.19864

> <i_epik_Tot_Q>
1

> <i_epik_Tot_abs_Q>
1

> <r_epik_Metal_State_Penalty>
1.69511

> <b_epik_Metal_Only>
0

> <s_lp_Force_Field>
OPLS_2005

> <r_lp_Energy>
29.0489

> <b_lp_Chiralities_Consistent>
1

> <s_lp_Variant>
AV-unprocessed.smi:1629-2

> <Gold.Version>
5.8.1

> <Gold.Id.Protein>
6NUR|6NUR_protein|mol2

> <Gold.PLP.Fitness>
46.5186

> <Gold.PLP.PLP>
-37.0568

> <Gold.PLP.part.hbond>
-4.0000

> <Gold.PLP.part.metal>
0.0000

> <Gold.PLP.part.buried>
-4.0492

> <Gold.PLP.part.nonpolar>
-34.8365

> <Gold.PLP.part.repulsive>
6.5530

> <Gold.PLP.ligand.clash>
1.6337

> <Gold.PLP.ligand.torsion>
0.5963

> <Gold.PLP.Chemscore.Hbond>
4.0312

> <Gold.PLP.Chemscore.CHOScore>
0.0000

> <Gold.PLP.Chemscore.Metal>
0.0000

> <Gold.Chemscore.Hbonds>
donor molecule, donor type, donor heavy atom, donor atom, acceptor molecule, acceptor atom, score
      L1  H     5    26       P1  7948  1.00
      L1  H    20    45       P1  8028  2.00
      P1  H  7989  7998       L1    11  0.04
      P1  H  8011  8017       L1    11  1.00

> <Gold.PLP.Chemscore.Internal.Correction>
0.1946

> <Gold.Rescore>
     Score         DG    S(hbond)    S(metal)    S(lipo)     H(rot)  DE(clash)    DE(int)     intcor
     18.92     -21.32       2.99        0.00      96.60       2.13       1.79       0.60       ----

> <Gold.Chemscore.Fitness>
18.9241

> <Gold.Chemscore.DG>
-21.3193

> <Gold.Chemscore.ZeroCoef>
-5.4800

> <Gold.Chemscore.Hbond>
2.9929

> <Gold.Chemscore.Metal>
0.0000

> <Gold.Chemscore.Lipo>
96.6021

> <Gold.Chemscore.Internal_Hbond>
0.0000

> <Gold.Chemscore.DEClash>
1.7940

> <Gold.Chemscore.DEInternal>
0.6013

> <Gold.Chemscore.Rot>
2.1326

> <Gold.Chemscore.Internal.Correction>
   9.000000E+99

> <Gold.Chemscore.Hbonds>
donor molecule, donor type, donor heavy atom, donor atom, acceptor molecule, acceptor atom, score
      L1  H     5    26       P1  7948  1.00
      L1  H    20    45       P1  8028  0.98
      P1  H  7989  7998       L1    11  0.04
      P1  H  8011  8017       L1    11  0.96

> <Gold.Chemscore.Hbond.Weighted>
-9.9964

> <Gold.Chemscore.Metal.Weighted>
-0.0000

> <Gold.Chemscore.Lipo.Weighted>
-11.3024

> <Gold.Chemscore.Internal_Hbond.Weighted>
0.0000

> <Gold.Chemscore.DEClash.Weighted>
1.7940

> <Gold.Chemscore.DEInternal.Weighted>
0.6013

> <Gold.Chemscore.Rot.Weighted>
5.4595

> <Gold.Chemscore.Internal.Correction.Weighted>
   9.000000E+99

> <Gold.Protein.RotatedTorsions>
[ 6907 6896 6895 6894 ] final   55.05 input  -60.11 | X-H torsion
[ 7974 7965 7964 7962 ] final   82.92 input  175.53 | X-H torsion
[ 8008 7997 7996 7995 ] final -143.92 input   59.86 | X-H torsion
[ 10167 10162 10161 10158 ] final  179.84 input  -65.29 | X-H torsion
[ 10718 10713 10712 10709 ] final  165.92 input   66.30 | X-H torsion
[ 10763 10752 10751 10750 ] final  -35.22 input  -60.55 | X-H torsion
[ 11005 11000 10999 10996 ] final  162.56 input  -57.11 | X-H torsion

> <Gold.Protein.ActiveResidues>
 VAL166  LYS551  ARG553  GLY616  TRP617  ASP618  TYR619  PRO620  LYS621  CYS622 
 ASP623  PHE694  ASN695  SER759  ASP760  ASP761  ALA762  ILE779  LEU786  VAL792 
 PHE793  MET794  SER795  GLU796  ALA797  LYS798  CYS799  TRP800  GLU811  SER814 

> <Gold.Protein.RotatedAtoms>
  152.3500  134.7019  160.0238 H   0  0  0  0  0  0  0  0  0  0  0  0  # atno 6907 bound_to 6896
  151.7376  133.3315  159.3365 H   0  0  0  0  0  0  0  0  0  0  0  0  # atno 6908 bound_to 6896
  150.7534  134.6240  159.6196 H   0  0  0  0  0  0  0  0  0  0  0  0  # atno 6909 bound_to 6896
  145.6188  139.2382  143.2150 H   0  0  0  0  0  0  0  0  0  0  0  0  # atno 7974 bound_to 7965
  155.5185  140.0589  157.2911 H   0  0  0  0  0  0  0  0  0  0  0  0  # atno 8008 bound_to 7997
  154.4526  140.1956  156.0421 H   0  0  0  0  0  0  0  0  0  0  0  0  # atno 8009 bound_to 7997
  156.0735  140.3257  155.7609 H   0  0  0  0  0  0  0  0  0  0  0  0  # atno 8010 bound_to 7997
  139.5354  144.2512  152.0783 H   0  0  0  0  0  0  0  0  0  0  0  0  # atno 10167 bound_to 10162
  157.0733  131.0372  151.2603 H   0  0  0  0  0  0  0  0  0  0  0  0  # atno 10718 bound_to 10713
  153.8596  135.6841  153.4784 H   0  0  0  0  0  0  0  0  0  0  0  0  # atno 10763 bound_to 10752
  153.1350  135.4682  154.9405 H   0  0  0  0  0  0  0  0  0  0  0  0  # atno 10764 bound_to 10752
  154.7765  135.3255  154.8030 H   0  0  0  0  0  0  0  0  0  0  0  0  # atno 10765 bound_to 10752
  140.2270  134.8153  157.3278 H   0  0  0  0  0  0  0  0  0  0  0  0  # atno 11005 bound_to 11000
  146.1447  140.7009  142.9350 LP  0  0  0  0  0  0  0  0  0  0  0  0  # atno 17320 bound_to 7965
  144.7239  140.4464  143.6987 LP  0  0  0  0  0  0  0  0  0  0  0  0  # atno 17321 bound_to 7965
  140.1982  144.4684  150.6444 LP  0  0  0  0  0  0  0  0  0  0  0  0  # atno 17342 bound_to 10162
  140.6557  143.2237  151.5973 LP  0  0  0  0  0  0  0  0  0  0  0  0  # atno 17343 bound_to 10162
  157.4860  130.7793  149.7461 LP  0  0  0  0  0  0  0  0  0  0  0  0  # atno 17370 bound_to 10713
  155.9944  130.3918  150.2860 LP  0  0  0  0  0  0  0  0  0  0  0  0  # atno 17371 bound_to 10713
  140.1790  134.4513  155.7783 LP  0  0  0  0  0  0  0  0  0  0  0  0  # atno 17394 bound_to 11000
  141.2220  133.6975  156.7837 LP  0  0  0  0  0  0  0  0  0  0  0  0  # atno 17395 bound_to 11000

$$$$
