AV-unprocessed.smi:880|AV-procd|sdf|4034|dock1
  -GOLD-   22720 1523D 1   1.00000     0.00000
 Structure written by MMmdl.
 32 33  0  0  0  0  0  0  0  0  1 V2000
  153.6537  141.0305  160.6860 C   0  0  0  0  0  0  0  0  0  0  0  0
  153.3290  142.5296  160.7811 C   0  0  0  0  0  0  0  0  0  0  0  0
  152.7029  142.8797  162.1390 C   0  0  0  0  0  0  0  0  0  0  0  0
  152.4421  142.9896  159.6504 C   0  0  0  0  0  0  0  0  0  0  0  0
  152.7139  143.9478  158.6298 C   0  0  0  0  0  0  0  0  0  0  0  0
  151.5814  143.9535  157.8677 C   0  0  0  0  0  0  0  0  0  0  0  0
  150.7095  143.0434  158.4249 N   0  0  0  0  0  0  0  0  0  0  0  0
  149.3808  142.6710  157.9715 C   0  0  0  0  0  0  0  0  0  0  0  0
  149.4470  141.6620  156.8231 C   0  0  0  0  0  0  0  0  0  0  0  0
  149.6320  140.4691  157.0635 O   0  0  0  0  0  0  0  0  0  0  0  0
  149.2989  142.1564  155.5848 N   0  0  0  0  0  0  0  0  0  0  0  0
  149.3106  141.3963  154.3779 C   0  0  0  0  0  0  0  0  0  0  0  0
  148.0485  141.3860  153.5431 C   0  0  0  0  0  0  0  0  0  0  0  0
  148.4391  140.1601  154.3214 C   0  0  0  0  0  0  0  0  0  0  0  0
  151.2373  142.4531  159.5188 N   0  0  0  0  0  0  0  0  0  0  0  0
  154.1301  140.7916  159.7347 H   0  0  0  0  0  0  0  0  0  0  0  0
  152.7554  140.4186  160.7745 H   0  0  0  0  0  0  0  0  0  0  0  0
  154.3371  140.7281  161.4798 H   0  0  0  0  0  0  0  0  0  0  0  0
  154.2783  143.0635  160.7147 H   0  0  0  0  0  0  0  0  0  0  0  0
  152.5358  143.9534  162.2309 H   0  0  0  0  0  0  0  0  0  0  0  0
  153.3516  142.5765  162.9613 H   0  0  0  0  0  0  0  0  0  0  0  0
  151.7420  142.3816  162.2718 H   0  0  0  0  0  0  0  0  0  0  0  0
  153.6056  144.5372  158.4759 H   0  0  0  0  0  0  0  0  0  0  0  0
  151.3282  144.5178  156.9822 H   0  0  0  0  0  0  0  0  0  0  0  0
  148.8150  142.2496  158.8041 H   0  0  0  0  0  0  0  0  0  0  0  0
  148.8564  143.5715  157.6493 H   0  0  0  0  0  0  0  0  0  0  0  0
  149.1492  143.1511  155.4932 H   0  0  0  0  0  0  0  0  0  0  0  0
  150.2493  141.3445  153.8280 H   0  0  0  0  0  0  0  0  0  0  0  0
  147.1952  141.9583  153.9026 H   0  0  0  0  0  0  0  0  0  0  0  0
  148.1631  141.3522  152.4617 H   0  0  0  0  0  0  0  0  0  0  0  0
  148.8137  139.3069  153.7591 H   0  0  0  0  0  0  0  0  0  0  0  0
  147.8479  139.9136  155.2014 H   0  0  0  0  0  0  0  0  0  0  0  0
  1  2  1  0  0  0  0
  1 16  1  0  0  0  0
  1 17  1  0  0  0  0
  1 18  1  0  0  0  0
  2  3  1  0  0  0  0
  2  4  1  0  0  0  0
  2 19  1  0  0  0  0
  3 20  1  0  0  0  0
  3 21  1  0  0  0  0
  3 22  1  0  0  0  0
  4 15  2  0  0  0  0
  4  5  1  0  0  0  0
  5  6  2  0  0  0  0
  5 23  1  0  0  0  0
  6  7  1  0  0  0  0
  6 24  1  0  0  0  0
  7  8  1  0  0  0  0
  7 15  1  0  0  0  0
  8  9  1  0  0  0  0
  8 25  1  0  0  0  0
  8 26  1  0  0  0  0
  9 10  2  0  0  0  0
  9 11  1  0  0  0  0
 11 12  1  0  0  0  0
 11 27  1  0  0  0  0
 12 14  1  0  0  0  0
 12 13  1  0  0  0  0
 12 28  1  0  0  0  0
 13 14  1  0  0  0  0
 13 29  1  0  0  0  0
 13 30  1  0  0  0  0
 14 31  1  0  0  0  0
 14 32  1  0  0  0  0
M  END
> <s_m_source_file>
AV-unprocessed.smi

> <i_m_source_file_index>
880

> <i_lp_mmshare_version>
43012

> <i_f3d_flags>
0

> <s_epik_input>
W0NIM11bQ0hdKFtDSDNdKWMxW2NIXVtjSF1uKG4xKVtDSDJdQyg9TylbTkhdW0NIXTJbQ0gyXVtDSDJdMg==

> <s_epik_cmdline>
J2VwaWtfcHl0aG9uJywgJy1waCcsICc3LjAnLCAnLXRuJywgJzgnLCAnLW1hJywgJzIwMCcsICctbWV0YWxfYmluZGluZycsICctaW1hZScsICc8aW5maWxlLm1hZT4nLCAnLW9tYWUnLCAnPG91dGZpbGUubWFlPic=

> <r_lp_tautomer_probability>
1

> <r_epik_Ionization_Penalty>
5.52855e-05

> <r_epik_Ionization_Penalty_Charging>
0

> <r_epik_Ionization_Penalty_Neutral>
5.52855e-05

> <r_epik_State_Penalty>
-0

> <r_epik_Charging_Adjusted_Penalty>
0

> <i_epik_Tot_Q>
0

> <i_epik_Tot_abs_Q>
0

> <r_epik_Metal_State_Penalty>
-0

> <b_epik_Metal_Only>
0

> <s_lp_Force_Field>
OPLS_2005

> <r_lp_Energy>
12.9381

> <b_lp_Chiralities_Consistent>
1

> <s_lp_Variant>
AV-unprocessed.smi:880-1

> <Gold.Version>
5.8.1

> <Gold.Id.Protein>
6NUR|6NUR_protein|mol2

> <Gold.PLP.Fitness>
43.8115

> <Gold.PLP.PLP>
-39.0423

> <Gold.PLP.part.hbond>
-1.6301

> <Gold.PLP.part.metal>
0.0000

> <Gold.PLP.part.buried>
-4.0599

> <Gold.PLP.part.nonpolar>
-33.4088

> <Gold.PLP.part.repulsive>
0.1457

> <Gold.PLP.ligand.clash>
0.0000

> <Gold.PLP.ligand.torsion>
0.6619

> <Gold.PLP.Chemscore.Hbond>
1.0000

> <Gold.PLP.Chemscore.CHOScore>
0.9983

> <Gold.PLP.Chemscore.Metal>
0.0000

> <Gold.Chemscore.Hbonds>
donor molecule, donor type, donor heavy atom, donor atom, acceptor molecule, acceptor atom, score
      L1  H    11    27       P1  8028  1.00
      L1  C     6    24       P1  8028  0.45

> <Gold.PLP.Chemscore.Internal.Correction>
0.0980

> <Gold.Rescore>
     Score         DG    S(hbond)    S(metal)    S(lipo)     H(rot)  DE(clash)    DE(int)     intcor
     15.33     -16.69       0.99        0.00     100.32       1.50       0.17       1.19       ----

> <Gold.Chemscore.Fitness>
15.3324

> <Gold.Chemscore.DG>
-16.6895

> <Gold.Chemscore.ZeroCoef>
-5.4800

> <Gold.Chemscore.Hbond>
0.9937

> <Gold.Chemscore.Metal>
0.0000

> <Gold.Chemscore.Lipo>
100.3191

> <Gold.Chemscore.Internal_Hbond>
0.0000

> <Gold.Chemscore.DEClash>
0.1703

> <Gold.Chemscore.DEInternal>
1.1868

> <Gold.Chemscore.Rot>
1.5026

> <Gold.Chemscore.Internal.Correction>
   9.000000E+99

> <Gold.Chemscore.Hbonds>
donor molecule, donor type, donor heavy atom, donor atom, acceptor molecule, acceptor atom, score
      L1  H    11    27       P1  8028  0.98

> <Gold.Chemscore.Hbond.Weighted>
-3.3189

> <Gold.Chemscore.Metal.Weighted>
-0.0000

> <Gold.Chemscore.Lipo.Weighted>
-11.7373

> <Gold.Chemscore.Internal_Hbond.Weighted>
0.0000

> <Gold.Chemscore.DEClash.Weighted>
0.1703

> <Gold.Chemscore.DEInternal.Weighted>
1.1868

> <Gold.Chemscore.Rot.Weighted>
3.8468

> <Gold.Chemscore.Internal.Correction.Weighted>
   9.000000E+99

> <Gold.Protein.RotatedTorsions>
[ 6907 6896 6895 6894 ] final  -77.30 input  -60.11 | X-H torsion
[ 7974 7965 7964 7962 ] final   32.80 input  175.53 | X-H torsion
[ 8008 7997 7996 7995 ] final -163.20 input   59.86 | X-H torsion
[ 10167 10162 10161 10158 ] final  -13.62 input  -65.29 | X-H torsion
[ 10718 10713 10712 10709 ] final  -71.87 input   66.30 | X-H torsion
[ 10763 10752 10751 10750 ] final  -30.14 input  -60.55 | X-H torsion
[ 11005 11000 10999 10996 ] final   83.63 input  -57.11 | X-H torsion

> <Gold.Protein.ActiveResidues>
 VAL166  LYS551  ARG553  GLY616  TRP617  ASP618  TYR619  PRO620  LYS621  CYS622 
 ASP623  PHE694  ASN695  SER759  ASP760  ASP761  ALA762  ILE779  LEU786  VAL792 
 PHE793  MET794  SER795  GLU796  ALA797  LYS798  CYS799  TRP800  GLU811  SER814 

> <Gold.Protein.RotatedAtoms>
  150.7002  134.4443  159.5306 H   0  0  0  0  0  0  0  0  0  0  0  0  # atno 6907 bound_to 6896
  152.2147  134.8466  160.0502 H   0  0  0  0  0  0  0  0  0  0  0  0  # atno 6908 bound_to 6896
  151.9338  133.3583  159.3977 H   0  0  0  0  0  0  0  0  0  0  0  0  # atno 6909 bound_to 6896
  146.1462  139.6479  142.9129 H   0  0  0  0  0  0  0  0  0  0  0  0  # atno 7974 bound_to 7965
  155.8178  140.0915  157.1867 H   0  0  0  0  0  0  0  0  0  0  0  0  # atno 8008 bound_to 7997
  154.3979  140.1442  156.3523 H   0  0  0  0  0  0  0  0  0  0  0  0  # atno 8009 bound_to 7997
  155.8298  140.3443  155.5568 H   0  0  0  0  0  0  0  0  0  0  0  0  # atno 8010 bound_to 7997
  140.7185  143.5407  150.9412 H   0  0  0  0  0  0  0  0  0  0  0  0  # atno 10167 bound_to 10162
  156.0344  130.4360  150.2508 H   0  0  0  0  0  0  0  0  0  0  0  0  # atno 10718 bound_to 10713
  153.7761  135.6908  153.4897 H   0  0  0  0  0  0  0  0  0  0  0  0  # atno 10763 bound_to 10752
  153.1842  135.4495  155.0066 H   0  0  0  0  0  0  0  0  0  0  0  0  # atno 10764 bound_to 10752
  154.8099  135.3373  154.7267 H   0  0  0  0  0  0  0  0  0  0  0  0  # atno 10765 bound_to 10752
  139.9025  134.8158  156.2335 H   0  0  0  0  0  0  0  0  0  0  0  0  # atno 11005 bound_to 11000
  145.4930  141.0438  143.2582 LP  0  0  0  0  0  0  0  0  0  0  0  0  # atno 17320 bound_to 7965
  144.7850  139.6446  143.7138 LP  0  0  0  0  0  0  0  0  0  0  0  0  # atno 17321 bound_to 7965
  139.9130  143.6697  152.3111 LP  0  0  0  0  0  0  0  0  0  0  0  0  # atno 17342 bound_to 10162
  139.7087  144.7624  151.1149 LP  0  0  0  0  0  0  0  0  0  0  0  0  # atno 17343 bound_to 10162
  157.0609  131.0089  151.3223 LP  0  0  0  0  0  0  0  0  0  0  0  0  # atno 17370 bound_to 10713
  157.5071  130.7916  149.7666 LP  0  0  0  0  0  0  0  0  0  0  0  0  # atno 17371 bound_to 10713
  141.0330  133.6978  156.1463 LP  0  0  0  0  0  0  0  0  0  0  0  0  # atno 17394 bound_to 11000
  140.7068  134.4504  157.5583 LP  0  0  0  0  0  0  0  0  0  0  0  0  # atno 17395 bound_to 11000

$$$$
