AV-unprocessed.smi:247|AV-procd|sdf|1895|dock3
  -GOLD-   2262020563D 1   1.00000     0.00000
 Structure written by MMmdl.
 61 65  0  0  0  0  0  0  0  0  1 V2000
  143.8467  138.5909  162.3070 O   0  0  0  0  0  0  0  0  0  0  0  0
  145.2262  138.3393  162.4907 C   0  0  0  0  0  0  0  0  0  0  0  0
  145.6368  136.8762  162.1643 C   0  0  0  0  0  0  0  0  0  0  0  0
  145.3374  136.6008  160.6565 C   0  0  0  0  0  0  0  0  0  0  0  0
  146.1235  137.3851  159.7140 N   0  0  0  0  0  0  0  0  0  0  0  0
  145.6604  138.3806  158.8829 C   0  0  0  0  0  0  0  0  0  0  0  0
  146.5655  138.9491  158.1351 N   0  0  0  0  0  0  0  0  0  0  0  0
  147.7499  138.3152  158.4919 C   0  0  0  0  0  0  0  0  0  0  0  0
  149.1068  138.4439  158.0788 C   0  0  0  0  0  0  0  0  0  0  0  0
  149.5082  139.3484  157.1471 N   0  0  0  0  0  0  0  0  0  0  0  0
  148.9333  139.2078  155.8128 C   0  0  0  0  0  0  0  0  0  0  0  0
  148.7105  140.6281  155.2859 C   0  0  0  0  0  0  0  0  0  0  0  0
  149.6826  141.4721  156.1026 C   0  0  0  0  0  0  0  0  0  0  0  0
  149.6685  140.7682  157.4658 C   0  0  2  0  0  0  0  0  0  0  0  0
  150.8780  141.0730  158.3959 C   0  0  1  0  0  0  0  0  0  0  0  0
  152.2210  140.5221  157.8596 C   0  0  0  0  0  0  0  0  0  0  0  0
  153.2702  140.7793  158.7868 O   0  0  0  0  0  0  0  0  0  0  0  0
  153.5008  142.1682  158.9918 C   0  0  0  0  0  0  0  0  0  0  0  0
  152.2499  142.8114  159.6069 C   0  0  0  0  0  0  0  0  0  0  0  0
  151.0293  142.5780  158.7056 C   0  0  2  0  0  0  0  0  0  0  0  0
  149.8803  143.0741  159.3638 O   0  0  0  0  0  0  0  0  0  0  0  0
  150.0156  137.6195  158.6648 N   0  0  0  0  0  0  0  0  0  0  0  0
  149.6321  136.7372  159.5916 C   0  0  0  0  0  0  0  0  0  0  0  0
  148.4089  136.5136  160.0747 N   0  0  0  0  0  0  0  0  0  0  0  0
  147.4885  137.3301  159.4864 C   0  0  0  0  0  0  0  0  0  0  0  0
  147.1334  136.6609  162.5092 C   0  0  0  0  0  0  0  0  0  0  0  0
  147.5445  135.1798  162.4295 C   0  0  0  0  0  0  0  0  0  0  0  0
  146.7271  134.4040  163.2974 O   0  0  0  0  0  0  0  0  0  0  0  0
  145.3489  134.4405  162.9466 C   0  0  0  0  0  0  0  0  0  0  0  0
  144.8165  135.8842  163.0296 C   0  0  0  0  0  0  0  0  0  0  0  0
  143.5761  138.2014  161.4897 H   0  0  0  0  0  0  0  0  0  0  0  0
  145.7816  139.0371  161.8628 H   0  0  0  0  0  0  0  0  0  0  0  0
  145.4635  138.5865  163.5252 H   0  0  0  0  0  0  0  0  0  0  0  0
  145.4928  135.5530  160.4053 H   0  0  0  0  0  0  0  0  0  0  0  0
  144.2831  136.7905  160.4501 H   0  0  0  0  0  0  0  0  0  0  0  0
  144.6210  138.6717  158.8441 H   0  0  0  0  0  0  0  0  0  0  0  0
  149.6476  138.6774  155.1823 H   0  0  0  0  0  0  0  0  0  0  0  0
  148.0005  138.6417  155.8153 H   0  0  0  0  0  0  0  0  0  0  0  0
  148.8708  140.7117  154.2106 H   0  0  0  0  0  0  0  0  0  0  0  0
  147.6876  140.9416  155.4986 H   0  0  0  0  0  0  0  0  0  0  0  0
  150.6678  141.4313  155.6399 H   0  0  0  0  0  0  0  0  0  0  0  0
  149.3810  142.5181  156.1629 H   0  0  0  0  0  0  0  0  0  0  0  0
  148.7565  141.0854  157.9741 H   0  0  0  0  0  0  0  0  0  0  0  0
  150.7005  140.5720  159.3478 H   0  0  0  0  0  0  0  0  0  0  0  0
  152.1595  139.4435  157.7140 H   0  0  0  0  0  0  0  0  0  0  0  0
  152.4817  140.9567  156.8946 H   0  0  0  0  0  0  0  0  0  0  0  0
  154.3526  142.2892  159.6612 H   0  0  0  0  0  0  0  0  0  0  0  0
  153.7647  142.6499  158.0490 H   0  0  0  0  0  0  0  0  0  0  0  0
  152.0743  142.3793  160.5932 H   0  0  0  0  0  0  0  0  0  0  0  0
  152.4130  143.8792  159.7569 H   0  0  0  0  0  0  0  0  0  0  0  0
  151.1610  143.1376  157.7787 H   0  0  0  0  0  0  0  0  0  0  0  0
  150.0696  143.9415  159.6873 H   0  0  0  0  0  0  0  0  0  0  0  0
  150.4184  136.1238  160.0060 H   0  0  0  0  0  0  0  0  0  0  0  0
  147.7771  137.2684  161.8743 H   0  0  0  0  0  0  0  0  0  0  0  0
  147.3301  136.9992  163.5271 H   0  0  0  0  0  0  0  0  0  0  0  0
  147.4820  134.7980  161.4102 H   0  0  0  0  0  0  0  0  0  0  0  0
  148.5833  135.0675  162.7399 H   0  0  0  0  0  0  0  0  0  0  0  0
  145.2012  134.0095  161.9564 H   0  0  0  0  0  0  0  0  0  0  0  0
  144.7994  133.8057  163.6419 H   0  0  0  0  0  0  0  0  0  0  0  0
  144.8515  136.1806  164.0781 H   0  0  0  0  0  0  0  0  0  0  0  0
  143.7638  135.9113  162.7464 H   0  0  0  0  0  0  0  0  0  0  0  0
  1  2  1  0  0  0  0
  1 31  1  0  0  0  0
  2  3  1  0  0  0  0
  2 32  1  0  0  0  0
  2 33  1  0  0  0  0
  3 30  1  0  0  0  0
  3  4  1  0  0  0  0
  3 26  1  0  0  0  0
  4  5  1  0  0  0  0
  4 34  1  0  0  0  0
  4 35  1  0  0  0  0
  5 25  1  0  0  0  0
  5  6  1  0  0  0  0
  6  7  2  0  0  0  0
  6 36  1  0  0  0  0
  7  8  1  0  0  0  0
  8 25  2  0  0  0  0
  8  9  1  0  0  0  0
  9 10  1  0  0  0  0
  9 22  2  0  0  0  0
 10 14  1  0  0  0  0
 10 11  1  0  0  0  0
 11 12  1  0  0  0  0
 11 37  1  0  0  0  0
 11 38  1  0  0  0  0
 12 13  1  0  0  0  0
 12 39  1  0  0  0  0
 12 40  1  0  0  0  0
 13 14  1  0  0  0  0
 13 41  1  0  0  0  0
 13 42  1  0  0  0  0
 14 15  1  0  0  0  0
 14 43  1  0  0  0  0
 15 20  1  0  0  0  0
 15 16  1  0  0  0  0
 15 44  1  0  0  0  0
 16 17  1  0  0  0  0
 16 45  1  0  0  0  0
 16 46  1  0  0  0  0
 17 18  1  0  0  0  0
 18 19  1  0  0  0  0
 18 47  1  0  0  0  0
 18 48  1  0  0  0  0
 19 20  1  0  0  0  0
 19 49  1  0  0  0  0
 19 50  1  0  0  0  0
 20 21  1  0  0  0  0
 20 51  1  0  0  0  0
 21 52  1  0  0  0  0
 22 23  1  0  0  0  0
 23 24  2  0  0  0  0
 23 53  1  0  0  0  0
 24 25  1  0  0  0  0
 26 27  1  0  0  0  0
 26 54  1  0  0  0  0
 26 55  1  0  0  0  0
 27 28  1  0  0  0  0
 27 56  1  0  0  0  0
 27 57  1  0  0  0  0
 28 29  1  0  0  0  0
 29 30  1  0  0  0  0
 29 58  1  0  0  0  0
 29 59  1  0  0  0  0
 30 60  1  0  0  0  0
 30 61  1  0  0  0  0
M  END
> <s_m_source_file>
AV-unprocessed.smi

> <i_m_source_file_index>
247

> <i_lp_mmshare_version>
43012

> <i_f3d_flags>
0

> <s_epik_input>
W0NIMl0xW0NIMl1PW0NIMl1bQ0gyXUMxKFtDSDJdW09IXSlbQ0gyXW4oW2NIXW4yKWMoYzIzKW5bY0hdbmMzTjRbQ0gyXVtDSDJdW0NIMl1bQ0BIXTRbQ0BASF01W0NIMl1PW0NIMl1bQ0gyXVtDQEhdNVtPSF0=

> <s_epik_cmdline>
J2VwaWtfcHl0aG9uJywgJy1waCcsICc3LjAnLCAnLXRuJywgJzgnLCAnLW1hJywgJzIwMCcsICctbWV0YWxfYmluZGluZycsICctaW1hZScsICc8aW5maWxlLm1hZT4nLCAnLW9tYWUnLCAnPG91dGZpbGUubWFlPic=

> <r_lp_tautomer_probability>
1

> <r_epik_Ionization_Penalty>
0.00362597

> <r_epik_Ionization_Penalty_Charging>
0

> <r_epik_Ionization_Penalty_Neutral>
0.00362597

> <r_epik_State_Penalty>
0.00241433

> <r_epik_Charging_Adjusted_Penalty>
0.00241433

> <i_epik_Tot_Q>
0

> <i_epik_Tot_abs_Q>
0

> <r_epik_Metal_State_Penalty>
-0

> <b_epik_Metal_Only>
0

> <s_lp_Force_Field>
OPLS_2005

> <r_lp_Energy>
58.878

> <b_lp_Chiralities_Consistent>
1

> <s_lp_Variant>
AV-unprocessed.smi:247-8

> <Gold.Version>
5.8.1

> <Gold.Id.Protein>
6NUR|6NUR_protein|mol2

> <Gold.PLP.Fitness>
41.8297

> <Gold.PLP.PLP>
-42.0858

> <Gold.PLP.part.hbond>
-2.2919

> <Gold.PLP.part.metal>
0.0000

> <Gold.PLP.part.buried>
-6.0702

> <Gold.PLP.part.nonpolar>
-33.8234

> <Gold.PLP.part.repulsive>
0.0000

> <Gold.PLP.ligand.clash>
0.0000

> <Gold.PLP.ligand.torsion>
0.3375

> <Gold.PLP.Chemscore.Hbond>
0.0000

> <Gold.PLP.Chemscore.CHOScore>
0.0000

> <Gold.PLP.Chemscore.Metal>
0.0000

> <Gold.PLP.Chemscore.Internal.Correction>
0.4190

> <Gold.Rescore>
     Score         DG    S(hbond)    S(metal)    S(lipo)     H(rot)  DE(clash)    DE(int)     intcor
      7.20      -8.96       0.00        0.00     100.37       3.23       0.07       1.69       ----

> <Gold.Chemscore.Fitness>
7.1986

> <Gold.Chemscore.DG>
-8.9604

> <Gold.Chemscore.ZeroCoef>
-5.4800

> <Gold.Chemscore.Hbond>
0.0000

> <Gold.Chemscore.Metal>
0.0000

> <Gold.Chemscore.Lipo>
100.3733

> <Gold.Chemscore.Internal_Hbond>
0.0000

> <Gold.Chemscore.DEClash>
0.0677

> <Gold.Chemscore.DEInternal>
1.6941

> <Gold.Chemscore.Rot>
3.2278

> <Gold.Chemscore.Internal.Correction>
   9.000000E+99

> <Gold.Chemscore.Hbond.Weighted>
-0.0000

> <Gold.Chemscore.Metal.Weighted>
-0.0000

> <Gold.Chemscore.Lipo.Weighted>
-11.7437

> <Gold.Chemscore.Internal_Hbond.Weighted>
0.0000

> <Gold.Chemscore.DEClash.Weighted>
0.0677

> <Gold.Chemscore.DEInternal.Weighted>
1.6941

> <Gold.Chemscore.Rot.Weighted>
8.2633

> <Gold.Chemscore.Internal.Correction.Weighted>
   9.000000E+99

> <Gold.Protein.RotatedTorsions>
[ 6907 6896 6895 6894 ] final  -51.71 input  -60.11 | X-H torsion
[ 7974 7965 7964 7962 ] final  168.47 input  175.53 | X-H torsion
[ 8008 7997 7996 7995 ] final  -69.53 input   59.86 | X-H torsion
[ 10167 10162 10161 10158 ] final   56.90 input  -65.29 | X-H torsion
[ 10718 10713 10712 10709 ] final -178.18 input   66.30 | X-H torsion
[ 10763 10752 10751 10750 ] final    2.18 input  -60.55 | X-H torsion
[ 11005 11000 10999 10996 ] final  -22.67 input  -57.11 | X-H torsion

> <Gold.Protein.ActiveResidues>
 VAL166  LYS551  ARG553  GLY616  TRP617  ASP618  TYR619  PRO620  LYS621  CYS622 
 ASP623  PHE694  ASN695  SER759  ASP760  ASP761  ALA762  ILE779  LEU786  VAL792 
 PHE793  MET794  SER795  GLU796  ALA797  LYS798  CYS799  TRP800  GLU811  SER814 

> <Gold.Protein.RotatedAtoms>
  150.8585  134.7931  159.7064 H   0  0  0  0  0  0  0  0  0  0  0  0  # atno 6907 bound_to 6896
  152.4629  134.5138  159.9772 H   0  0  0  0  0  0  0  0  0  0  0  0  # atno 6908 bound_to 6896
  151.5246  133.3422  159.2943 H   0  0  0  0  0  0  0  0  0  0  0  0  # atno 6909 bound_to 6896
  144.7387  139.8913  143.6403 H   0  0  0  0  0  0  0  0  0  0  0  0  # atno 7974 bound_to 7965
  154.4945  140.0851  156.7667 H   0  0  0  0  0  0  0  0  0  0  0  0  # atno 8008 bound_to 7997
  155.4149  140.3443  155.4248 H   0  0  0  0  0  0  0  0  0  0  0  0  # atno 8009 bound_to 7997
  156.1376  140.1519  156.8959 H   0  0  0  0  0  0  0  0  0  0  0  0  # atno 8010 bound_to 7997
  140.2037  144.3961  150.6518 H   0  0  0  0  0  0  0  0  0  0  0  0  # atno 10167 bound_to 10162
  156.8405  130.9684  151.3100 H   0  0  0  0  0  0  0  0  0  0  0  0  # atno 10718 bound_to 10713
  153.2987  135.6954  153.7223 H   0  0  0  0  0  0  0  0  0  0  0  0  # atno 10763 bound_to 10752
  153.6146  135.3438  155.2991 H   0  0  0  0  0  0  0  0  0  0  0  0  # atno 10764 bound_to 10752
  154.8545  135.4371  154.2092 H   0  0  0  0  0  0  0  0  0  0  0  0  # atno 10765 bound_to 10752
  140.8679  133.7742  156.0151 H   0  0  0  0  0  0  0  0  0  0  0  0  # atno 11005 bound_to 11000
  146.1140  139.4148  143.0270 LP  0  0  0  0  0  0  0  0  0  0  0  0  # atno 17320 bound_to 7965
  145.7402  141.0011  143.1305 LP  0  0  0  0  0  0  0  0  0  0  0  0  # atno 17321 bound_to 7965
  140.6372  143.2197  151.6369 LP  0  0  0  0  0  0  0  0  0  0  0  0  # atno 17342 bound_to 10162
  139.5207  144.3215  152.0906 LP  0  0  0  0  0  0  0  0  0  0  0  0  # atno 17343 bound_to 10162
  157.6358  130.8766  149.9357 LP  0  0  0  0  0  0  0  0  0  0  0  0  # atno 17370 bound_to 10713
  156.0883  130.3666  150.0444 LP  0  0  0  0  0  0  0  0  0  0  0  0  # atno 17371 bound_to 10713
  140.8608  134.2843  157.5235 LP  0  0  0  0  0  0  0  0  0  0  0  0  # atno 17394 bound_to 11000
  139.8710  134.9517  156.4092 LP  0  0  0  0  0  0  0  0  0  0  0  0  # atno 17395 bound_to 11000

$$$$
