AV-unprocessed.smi:1053|AV-procd|sdf|4617|dock5
  -GOLD-   22720 3123D 1   1.00000     0.00000
 Structure written by MMmdl.
 38 39  0  0  0  0  0  0  0  0  2 V2000
  147.5592  136.2435  156.5007 C   0  0  0  0  0  0  0  0  0  0  0  0
  148.0676  136.1573  155.0547 C   0  0  0  0  0  0  0  0  0  0  0  0
  148.6482  137.4369  154.5766 N   0  3  1  0  0  0  0  0  0  0  0  0
  147.6106  138.4632  154.3185 C   0  0  0  0  0  0  0  0  0  0  0  0
  148.2516  139.7541  153.7855 C   0  0  0  0  0  0  0  0  0  0  0  0
  149.2260  140.2127  154.7126 O   0  0  0  0  0  0  0  0  0  0  0  0
  150.2900  139.2826  154.8875 C   0  0  1  0  0  0  0  0  0  0  0  0
  151.3398  139.8982  155.8280 C   0  0  0  0  0  0  0  0  0  0  0  0
  150.7319  140.6224  156.9367 N   0  0  0  0  0  0  0  0  0  0  0  0
  151.4306  141.2319  157.9632 C   0  0  0  0  0  0  0  0  0  0  0  0
  152.3703  140.5269  158.6035 N   0  0  0  0  0  0  0  0  0  0  0  0
  153.0347  141.1508  159.5997 C   0  0  0  0  0  0  0  0  0  0  0  0
  152.7559  142.4850  159.9552 C   0  0  0  0  0  0  0  0  0  0  0  0
  151.7447  143.1331  159.2112 C   0  0  0  0  0  0  0  0  0  0  0  0
  151.3370  144.5734  159.4834 C   0  0  0  0  0  0  0  0  0  0  0  0
  150.0092  144.6556  159.5691 F   0  0  0  0  0  0  0  0  0  0  0  0
  151.8631  145.0240  160.6228 F   0  0  0  0  0  0  0  0  0  0  0  0
  151.7537  145.3552  158.4871 F   0  0  0  0  0  0  0  0  0  0  0  0
  151.0862  142.4963  158.2146 N   0  0  0  0  0  0  0  0  0  0  0  0
  149.7027  137.9811  155.4687 C   0  0  0  0  0  0  0  0  0  0  0  0
  147.2303  135.2639  156.8485 H   0  0  0  0  0  0  0  0  0  0  0  0
  146.7110  136.9206  156.5975 H   0  0  0  0  0  0  0  0  0  0  0  0
  148.3444  136.5862  157.1752 H   0  0  0  0  0  0  0  0  0  0  0  0
  148.8355  135.3835  155.0169 H   0  0  0  0  0  0  0  0  0  0  0  0
  147.2695  135.8338  154.3851 H   0  0  0  0  0  0  0  0  0  0  0  0
  146.8870  138.0879  153.5940 H   0  0  0  0  0  0  0  0  0  0  0  0
  147.0647  138.6715  155.2401 H   0  0  0  0  0  0  0  0  0  0  0  0
  148.7069  139.5921  152.8071 H   0  0  0  0  0  0  0  0  0  0  0  0
  147.4930  140.5267  153.6597 H   0  0  0  0  0  0  0  0  0  0  0  0
  150.7563  139.0692  153.9234 H   0  0  0  0  0  0  0  0  0  0  0  0
  152.0301  139.1367  156.1930 H   0  0  0  0  0  0  0  0  0  0  0  0
  151.9445  140.6165  155.2741 H   0  0  0  0  0  0  0  0  0  0  0  0
  149.7275  140.5823  157.0323 H   0  0  0  0  0  0  0  0  0  0  0  0
  153.7929  140.5814  160.1169 H   0  0  0  0  0  0  0  0  0  0  0  0
  153.2922  142.9764  160.7533 H   0  0  0  0  0  0  0  0  0  0  0  0
  149.2823  138.1672  156.4585 H   0  0  0  0  0  0  0  0  0  0  0  0
  150.5025  137.2518  155.5933 H   0  0  0  0  0  0  0  0  0  0  0  0
  149.0835  137.2435  153.6858 H   0  0  0  0  0  0  0  0  0  0  0  0
  1  2  1  0  0  0  0
  1 21  1  0  0  0  0
  1 22  1  0  0  0  0
  1 23  1  0  0  0  0
  2  3  1  0  0  0  0
  2 24  1  0  0  0  0
  2 25  1  0  0  0  0
  3 20  1  0  0  0  0
  3  4  1  0  0  0  0
  3 38  1  0  0  0  0
  4  5  1  0  0  0  0
  4 26  1  0  0  0  0
  4 27  1  0  0  0  0
  5  6  1  0  0  0  0
  5 28  1  0  0  0  0
  5 29  1  0  0  0  0
  6  7  1  0  0  0  0
  7  8  1  0  0  0  0
  7 20  1  0  0  0  0
  7 30  1  0  0  0  0
  8  9  1  0  0  0  0
  8 31  1  0  0  0  0
  8 32  1  0  0  0  0
  9 10  1  0  0  0  0
  9 33  1  0  0  0  0
 10 19  1  0  0  0  0
 10 11  2  0  0  0  0
 11 12  1  0  0  0  0
 12 13  2  0  0  0  0
 12 34  1  0  0  0  0
 13 14  1  0  0  0  0
 13 35  1  0  0  0  0
 14 15  1  0  0  0  0
 14 19  2  0  0  0  0
 15 16  1  0  0  0  0
 15 17  1  0  0  0  0
 15 18  1  0  0  0  0
 20 36  1  0  0  0  0
 20 37  1  0  0  0  0
M  CHG  1   3   1
M  END
> <s_m_source_file>
AV-unprocessed.smi

> <i_m_source_file_index>
1053

> <i_lp_mmshare_version>
43012

> <i_f3d_flags>
0

> <s_epik_input>
W0NIM11bQ0gyXU4xW0NIMl1bQ0gyXU9bQ0BIXShbQ0gyXTEpW0NIMl1bTkhdYzJuW2NIXVtjSF1jKG4yKUMoRikoRilG

> <s_epik_cmdline>
J2VwaWtfcHl0aG9uJywgJy1waCcsICc3LjAnLCAnLXRuJywgJzgnLCAnLW1hJywgJzIwMCcsICctbWV0YWxfYmluZGluZycsICctaW1hZScsICc8aW5maWxlLm1hZT4nLCAnLW9tYWUnLCAnPG91dGZpbGUubWFlPic=

> <r_lp_tautomer_probability>
1

> <r_epik_Ionization_Penalty>
0.178506

> <r_epik_Ionization_Penalty_Charging>
0.178504

> <r_epik_Ionization_Penalty_Neutral>
2.47619e-06

> <r_epik_State_Penalty>
0.167974

> <r_epik_Charging_Adjusted_Penalty>
0.346478

> <i_epik_Tot_Q>
1

> <i_epik_Tot_abs_Q>
1

> <r_epik_Metal_State_Penalty>
0.167974

> <b_epik_Metal_Only>
0

> <s_lp_Force_Field>
OPLS_2005

> <r_lp_Energy>
10.9386

> <b_lp_Chiralities_Consistent>
1

> <s_lp_Variant>
AV-unprocessed.smi:1053-1

> <Gold.Version>
5.8.1

> <Gold.Id.Protein>
6NUR|6NUR_protein|mol2

> <Gold.PLP.Fitness>
39.7974

> <Gold.PLP.PLP>
-35.9581

> <Gold.PLP.part.hbond>
-1.0000

> <Gold.PLP.part.metal>
0.0000

> <Gold.PLP.part.buried>
-4.7879

> <Gold.PLP.part.nonpolar>
-30.6108

> <Gold.PLP.part.repulsive>
0.1913

> <Gold.PLP.ligand.clash>
0.0000

> <Gold.PLP.ligand.torsion>
1.0186

> <Gold.PLP.Chemscore.Hbond>
1.9520

> <Gold.PLP.Chemscore.CHOScore>
0.0000

> <Gold.PLP.Chemscore.Metal>
0.0000

> <Gold.Chemscore.Hbonds>
donor molecule, donor type, donor heavy atom, donor atom, acceptor molecule, acceptor atom, score
      L1  H     3    38       P1  7948  1.72

> <Gold.PLP.Chemscore.Internal.Correction>
0.0205

> <Gold.Rescore>
     Score         DG    S(hbond)    S(metal)    S(lipo)     H(rot)  DE(clash)    DE(int)     intcor
     11.59     -12.37       0.99        0.00      64.58       1.55       0.00       0.79       ----

> <Gold.Chemscore.Fitness>
11.5858

> <Gold.Chemscore.DG>
-12.3738

> <Gold.Chemscore.ZeroCoef>
-5.4800

> <Gold.Chemscore.Hbond>
0.9937

> <Gold.Chemscore.Metal>
0.0000

> <Gold.Chemscore.Lipo>
64.5771

> <Gold.Chemscore.Internal_Hbond>
0.0000

> <Gold.Chemscore.DEClash>
0.0029

> <Gold.Chemscore.DEInternal>
0.7851

> <Gold.Chemscore.Rot>
1.5549

> <Gold.Chemscore.Internal.Correction>
   9.000000E+99

> <Gold.Chemscore.Hbonds>
donor molecule, donor type, donor heavy atom, donor atom, acceptor molecule, acceptor atom, score
      L1  H     3    38       P1  7948  0.80

> <Gold.Chemscore.Hbond.Weighted>
-3.3188

> <Gold.Chemscore.Metal.Weighted>
-0.0000

> <Gold.Chemscore.Lipo.Weighted>
-7.5555

> <Gold.Chemscore.Internal_Hbond.Weighted>
0.0000

> <Gold.Chemscore.DEClash.Weighted>
0.0029

> <Gold.Chemscore.DEInternal.Weighted>
0.7851

> <Gold.Chemscore.Rot.Weighted>
3.9806

> <Gold.Chemscore.Internal.Correction.Weighted>
   9.000000E+99

> <Gold.Protein.RotatedTorsions>
[ 6907 6896 6895 6894 ] final   10.01 input  -60.11 | X-H torsion
[ 7974 7965 7964 7962 ] final  177.18 input  175.53 | X-H torsion
[ 8008 7997 7996 7995 ] final  -59.21 input   59.86 | X-H torsion
[ 10167 10162 10161 10158 ] final  127.53 input  -65.29 | X-H torsion
[ 10718 10713 10712 10709 ] final  -96.68 input   66.30 | X-H torsion
[ 10763 10752 10751 10750 ] final   22.72 input  -60.55 | X-H torsion
[ 11005 11000 10999 10996 ] final  147.05 input  -57.11 | X-H torsion

> <Gold.Protein.ActiveResidues>
 VAL166  LYS551  ARG553  GLY616  TRP617  ASP618  TYR619  PRO620  LYS621  CYS622 
 ASP623  PHE694  ASN695  SER759  ASP760  ASP761  ALA762  ILE779  LEU786  VAL792 
 PHE793  MET794  SER795  GLU796  ALA797  LYS798  CYS799  TRP800  GLU811  SER814 

> <Gold.Protein.RotatedAtoms>
  151.7313  135.0874  160.0300 H   0  0  0  0  0  0  0  0  0  0  0  0  # atno 6907 bound_to 6896
  152.3539  133.6209  159.5973 H   0  0  0  0  0  0  0  0  0  0  0  0  # atno 6908 bound_to 6896
  150.7558  133.9447  159.3508 H   0  0  0  0  0  0  0  0  0  0  0  0  # atno 6909 bound_to 6896
  144.7173  140.0208  143.6440 H   0  0  0  0  0  0  0  0  0  0  0  0  # atno 7974 bound_to 7965
  154.4342  140.1067  156.6079 H   0  0  0  0  0  0  0  0  0  0  0  0  # atno 8008 bound_to 7997
  155.5841  140.3491  155.4529 H   0  0  0  0  0  0  0  0  0  0  0  0  # atno 8009 bound_to 7997
  156.0296  140.1258  157.0261 H   0  0  0  0  0  0  0  0  0  0  0  0  # atno 8010 bound_to 7997
  139.5573  144.6858  151.4144 H   0  0  0  0  0  0  0  0  0  0  0  0  # atno 10167 bound_to 10162
  156.0067  130.5162  150.6262 H   0  0  0  0  0  0  0  0  0  0  0  0  # atno 10718 bound_to 10713
  153.0893  135.6642  153.9885 H   0  0  0  0  0  0  0  0  0  0  0  0  # atno 10763 bound_to 10752
  153.9486  135.2986  155.3441 H   0  0  0  0  0  0  0  0  0  0  0  0  # atno 10764 bound_to 10752
  154.7306  135.5124  153.9030 H   0  0  0  0  0  0  0  0  0  0  0  0  # atno 10765 bound_to 10752
  140.0843  134.9078  157.1551 H   0  0  0  0  0  0  0  0  0  0  0  0  # atno 11005 bound_to 11000
  146.0182  139.3228  143.0829 LP  0  0  0  0  0  0  0  0  0  0  0  0  # atno 17320 bound_to 7965
  145.8600  140.9480  143.0705 LP  0  0  0  0  0  0  0  0  0  0  0  0  # atno 17321 bound_to 7965
  140.6848  143.7999  150.7171 LP  0  0  0  0  0  0  0  0  0  0  0  0  # atno 17342 bound_to 10162
  140.1463  143.4396  152.2160 LP  0  0  0  0  0  0  0  0  0  0  0  0  # atno 17343 bound_to 10162
  157.4069  131.0818  151.1257 LP  0  0  0  0  0  0  0  0  0  0  0  0  # atno 17370 bound_to 10713
  157.1901  130.6348  149.5701 LP  0  0  0  0  0  0  0  0  0  0  0  0  # atno 17371 bound_to 10713
  140.3442  134.2670  155.7207 LP  0  0  0  0  0  0  0  0  0  0  0  0  # atno 17394 bound_to 11000
  141.2057  133.7852  157.0217 LP  0  0  0  0  0  0  0  0  0  0  0  0  # atno 17395 bound_to 11000

$$$$
