AV-unprocessed.smi:218|AV-procd|sdf|1667|dock5
  -GOLD-   2262020 73D 1   1.00000     0.00000
 Structure written by MMmdl.
 54 57  0  0  0  0  0  0  0  0  1 V2000
  151.5505  144.8971  157.6928 C   0  0  0  0  0  0  0  0  0  0  0  0
  150.6202  143.8731  157.0313 C   0  0  0  0  0  0  0  0  0  0  0  0
  149.4116  143.5582  157.9297 C   0  0  0  0  0  0  0  0  0  0  0  0
  151.3946  142.6932  156.8077 O   0  0  0  0  0  0  0  0  0  0  0  0
  150.9106  141.6896  155.9904 C   0  0  0  0  0  0  0  0  0  0  0  0
  149.7570  141.9520  155.2238 C   0  0  0  0  0  0  0  0  0  0  0  0
  149.2520  140.9400  154.3797 C   0  0  0  0  0  0  0  0  0  0  0  0
  148.0116  141.1662  153.5294 C   0  0  0  0  0  0  0  0  0  0  0  0
  147.6771  140.0837  152.6091 N   0  0  0  0  0  0  0  0  0  0  0  0
  147.0090  138.9918  153.0418 C   0  0  0  0  0  0  0  0  0  0  0  0
  146.7467  138.8046  154.3621 N   0  0  0  0  0  0  0  0  0  0  0  0
  146.0826  137.7167  154.7645 C   0  0  0  0  0  0  0  0  0  0  0  0
  145.5952  136.7157  154.0274 N   0  0  0  0  0  0  0  0  0  0  0  0
  145.8524  136.9044  152.7009 C   0  0  0  0  0  0  0  0  0  0  0  0
  146.5474  138.0065  152.1318 C   0  0  0  0  0  0  0  0  0  0  0  0
  146.6164  137.8566  150.7528 N   0  0  0  0  0  0  0  0  0  0  0  0
  145.9953  136.7300  150.5253 C   0  0  0  0  0  0  0  0  0  0  0  0
  145.5096  136.0880  151.6458 N   0  0  0  0  0  0  0  0  0  0  0  0
  144.7566  134.7960  151.7562 C   0  0  1  0  0  0  0  0  0  0  0  0
  144.2368  134.4815  150.4984 O   0  0  0  0  0  0  0  0  0  0  0  0
  145.0159  133.4530  149.9014 C   0  0  2  0  0  0  0  0  0  0  0  0
  144.2455  132.7639  148.7618 C   0  0  0  0  0  0  0  0  0  0  0  0
  143.8301  133.7178  147.8080 O   0  0  0  0  0  0  0  0  0  0  0  0
  145.4202  132.5829  151.0984 C   0  0  2  0  0  0  0  0  0  0  0  0
  144.3767  131.7000  151.4668 O   0  0  0  0  0  0  0  0  0  0  0  0
  145.6595  133.6147  152.1947 C   0  0  1  0  0  0  0  0  0  0  0  0
  147.0396  133.9338  152.2615 O   0  0  0  0  0  0  0  0  0  0  0  0
  149.9178  139.6988  154.3469 C   0  0  0  0  0  0  0  0  0  0  0  0
  151.0607  139.5287  155.1515 C   0  0  0  0  0  0  0  0  0  0  0  0
  151.5506  140.4942  155.9573 N   0  0  0  0  0  0  0  0  0  0  0  0
  143.9447  135.0088  152.4527 H   0  0  0  0  0  0  0  0  0  0  0  0
  145.9141  133.9169  149.4903 H   0  0  0  0  0  0  0  0  0  0  0  0
  146.3060  131.9827  150.8840 H   0  0  0  0  0  0  0  0  0  0  0  0
  145.3436  133.2557  153.1752 H   0  0  0  0  0  0  0  0  0  0  0  0
  151.0306  145.8371  157.8802 H   0  0  0  0  0  0  0  0  0  0  0  0
  152.4076  145.1141  157.0548 H   0  0  0  0  0  0  0  0  0  0  0  0
  151.9302  144.5287  158.6464 H   0  0  0  0  0  0  0  0  0  0  0  0
  150.2826  144.3062  156.0885 H   0  0  0  0  0  0  0  0  0  0  0  0
  148.8394  144.4610  158.1443 H   0  0  0  0  0  0  0  0  0  0  0  0
  149.7301  143.1319  158.8812 H   0  0  0  0  0  0  0  0  0  0  0  0
  148.7325  142.8470  157.4610 H   0  0  0  0  0  0  0  0  0  0  0  0
  149.2747  142.9167  155.2829 H   0  0  0  0  0  0  0  0  0  0  0  0
  147.1545  141.3651  154.1744 H   0  0  0  0  0  0  0  0  0  0  0  0
  148.1668  142.0708  152.9417 H   0  0  0  0  0  0  0  0  0  0  0  0
  148.1006  140.1395  151.6941 H   0  0  0  0  0  0  0  0  0  0  0  0
  145.9175  137.6376  155.8290 H   0  0  0  0  0  0  0  0  0  0  0  0
  145.8764  136.3415  149.5248 H   0  0  0  0  0  0  0  0  0  0  0  0
  144.8449  131.9934  148.2764 H   0  0  0  0  0  0  0  0  0  0  0  0
  143.3591  132.2701  149.1608 H   0  0  0  0  0  0  0  0  0  0  0  0
  144.5871  134.2064  147.5224 H   0  0  0  0  0  0  0  0  0  0  0  0
  144.1114  131.2146  150.7003 H   0  0  0  0  0  0  0  0  0  0  0  0
  147.2388  134.2192  153.1399 H   0  0  0  0  0  0  0  0  0  0  0  0
  149.5654  138.8944  153.7182 H   0  0  0  0  0  0  0  0  0  0  0  0
  151.5955  138.5903  155.1491 H   0  0  0  0  0  0  0  0  0  0  0  0
  1  2  1  0  0  0  0
  1 35  1  0  0  0  0
  1 36  1  0  0  0  0
  1 37  1  0  0  0  0
  2  3  1  0  0  0  0
  2  4  1  0  0  0  0
  2 38  1  0  0  0  0
  3 39  1  0  0  0  0
  3 40  1  0  0  0  0
  3 41  1  0  0  0  0
  4  5  1  0  0  0  0
  5 30  1  0  0  0  0
  5  6  2  0  0  0  0
  6  7  1  0  0  0  0
  6 42  1  0  0  0  0
  7  8  1  0  0  0  0
  7 28  2  0  0  0  0
  8  9  1  0  0  0  0
  8 43  1  0  0  0  0
  8 44  1  0  0  0  0
  9 10  1  0  0  0  0
  9 45  1  0  0  0  0
 10 15  1  0  0  0  0
 10 11  2  0  0  0  0
 11 12  1  0  0  0  0
 12 13  2  0  0  0  0
 12 46  1  0  0  0  0
 13 14  1  0  0  0  0
 14 18  1  0  0  0  0
 14 15  2  0  0  0  0
 15 16  1  0  0  0  0
 16 17  2  0  0  0  0
 17 18  1  0  0  0  0
 17 47  1  0  0  0  0
 18 19  1  0  0  0  0
 19 31  1  0  0  0  0
 19 26  1  0  0  0  0
 19 20  1  0  0  0  0
 20 21  1  0  0  0  0
 21 32  1  0  0  0  0
 21 22  1  0  0  0  0
 21 24  1  0  0  0  0
 22 23  1  0  0  0  0
 22 48  1  0  0  0  0
 22 49  1  0  0  0  0
 23 50  1  0  0  0  0
 24 33  1  0  0  0  0
 24 25  1  0  0  0  0
 24 26  1  0  0  0  0
 25 51  1  0  0  0  0
 26 34  1  0  0  0  0
 26 27  1  0  0  0  0
 27 52  1  0  0  0  0
 28 29  1  0  0  0  0
 28 53  1  0  0  0  0
 29 30  2  0  0  0  0
 29 54  1  0  0  0  0
M  END
> <s_m_source_file>
AV-unprocessed.smi

> <i_m_source_file_index>
218

> <i_lp_mmshare_version>
43012

> <i_f3d_flags>
0

> <s_epik_input>
W0NIM11bQ0hdKFtDSDNdKU9jMVtjSF1jKFtjSF1bY0hdbjEpW0NIMl1bTkhdYyhuW2NIXW4yKWMoYzIzKW5bY0hdbjNbQ0BASF00T1tDQEhdKFtDSDJdW09IXSlbQ0BASF0oW09IXSlbQ0BIXTRbT0hd

> <s_epik_cmdline>
J2VwaWtfcHl0aG9uJywgJy1waCcsICc3LjAnLCAnLXRuJywgJzgnLCAnLW1hJywgJzIwMCcsICctbWV0YWxfYmluZGluZycsICctaW1hZScsICc8aW5maWxlLm1hZT4nLCAnLW9tYWUnLCAnPG91dGZpbGUubWFlPic=

> <r_lp_tautomer_probability>
1

> <r_epik_Ionization_Penalty>
0.00457014

> <r_epik_Ionization_Penalty_Charging>
0

> <r_epik_Ionization_Penalty_Neutral>
0.00457014

> <r_epik_State_Penalty>
-0

> <r_epik_Charging_Adjusted_Penalty>
0

> <i_epik_Tot_Q>
0

> <i_epik_Tot_abs_Q>
0

> <r_epik_Metal_State_Penalty>
-0

> <b_epik_Metal_Only>
0

> <s_epik_Chemistry_Notes>
This compound contains an acetal/aminal-like group ( X-CH(R)-Y where X, Y are N, S, or O) that may be acid/base labile, releasing an aldehyde.

> <s_lp_Force_Field>
OPLS_2005

> <r_lp_Energy>
40.1019

> <b_lp_Chiralities_Consistent>
1

> <s_lp_Variant>
AV-unprocessed.smi:218-6

> <Gold.Version>
5.8.1

> <Gold.Id.Protein>
6NUR|6NUR_protein|mol2

> <Gold.PLP.Fitness>
60.7188

> <Gold.PLP.PLP>
-48.1161

> <Gold.PLP.part.hbond>
-6.2791

> <Gold.PLP.part.metal>
0.0000

> <Gold.PLP.part.buried>
2.5638

> <Gold.PLP.part.nonpolar>
-47.9155

> <Gold.PLP.part.repulsive>
2.7100

> <Gold.PLP.ligand.clash>
0.0000

> <Gold.PLP.ligand.torsion>
0.9116

> <Gold.PLP.Chemscore.Hbond>
3.7280

> <Gold.PLP.Chemscore.CHOScore>
1.0000

> <Gold.PLP.Chemscore.Metal>
0.0000

> <Gold.Chemscore.Hbonds>
donor molecule, donor type, donor heavy atom, donor atom, acceptor molecule, acceptor atom, score
      L1  H     9    45       P1  7957  0.72
      L1  H    23    50       P1  7921  1.00
      P1  H  7954  7966       L1    16  1.00
      P1  H 10192 10197       L1    23  0.06
      L1  C    17    47       P1  7921  1.00

> <Gold.PLP.Chemscore.Internal.Correction>
0.2419

> <Gold.Rescore>
     Score         DG    S(hbond)    S(metal)    S(lipo)     H(rot)  DE(clash)    DE(int)     intcor
      8.91     -16.70       3.69        0.00      97.91       4.90       5.15       2.64       ----

> <Gold.Chemscore.Fitness>
8.9112

> <Gold.Chemscore.DG>
-16.7028

> <Gold.Chemscore.ZeroCoef>
-5.4800

> <Gold.Chemscore.Hbond>
3.6882

> <Gold.Chemscore.Metal>
0.0000

> <Gold.Chemscore.Lipo>
97.9129

> <Gold.Chemscore.Internal_Hbond>
0.0000

> <Gold.Chemscore.DEClash>
5.1513

> <Gold.Chemscore.DEInternal>
2.6403

> <Gold.Chemscore.Rot>
4.9029

> <Gold.Chemscore.Internal.Correction>
   9.000000E+99

> <Gold.Chemscore.Hbonds>
donor molecule, donor type, donor heavy atom, donor atom, acceptor molecule, acceptor atom, score
      L1  H     9    45       P1  7957  0.70
      L1  H    23    50       P1  7921  0.99
      P1  H  7954  7966       L1    16  0.68
      P1  H 10192 10197       L1    23  0.03

> <Gold.Chemscore.Hbond.Weighted>
-12.3185

> <Gold.Chemscore.Metal.Weighted>
-0.0000

> <Gold.Chemscore.Lipo.Weighted>
-11.4558

> <Gold.Chemscore.Internal_Hbond.Weighted>
0.0000

> <Gold.Chemscore.DEClash.Weighted>
5.1513

> <Gold.Chemscore.DEInternal.Weighted>
2.6403

> <Gold.Chemscore.Rot.Weighted>
12.5515

> <Gold.Chemscore.Internal.Correction.Weighted>
   9.000000E+99

> <Gold.Protein.RotatedTorsions>
[ 6907 6896 6895 6894 ] final -143.93 input  -60.11 | X-H torsion
[ 7974 7965 7964 7962 ] final -111.93 input  175.53 | X-H torsion
[ 8008 7997 7996 7995 ] final  -11.59 input   59.86 | X-H torsion
[ 10167 10162 10161 10158 ] final  133.39 input  -65.29 | X-H torsion
[ 10718 10713 10712 10709 ] final   -5.31 input   66.30 | X-H torsion
[ 10763 10752 10751 10750 ] final  -36.62 input  -60.55 | X-H torsion
[ 11005 11000 10999 10996 ] final -145.82 input  -57.11 | X-H torsion

> <Gold.Protein.ActiveResidues>
 VAL166  LYS551  ARG553  GLY616  TRP617  ASP618  TYR619  PRO620  LYS621  CYS622 
 ASP623  PHE694  ASN695  SER759  ASP760  ASP761  ALA762  ILE779  LEU786  VAL792 
 PHE793  MET794  SER795  GLU796  ALA797  LYS798  CYS799  TRP800  GLU811  SER814 

> <Gold.Protein.RotatedAtoms>
  151.1072  133.5200  159.2607 H   0  0  0  0  0  0  0  0  0  0  0  0  # atno 6907 bound_to 6896
  151.2008  135.0441  159.8881 H   0  0  0  0  0  0  0  0  0  0  0  0  # atno 6908 bound_to 6896
  152.5447  134.0900  159.8326 H   0  0  0  0  0  0  0  0  0  0  0  0  # atno 6909 bound_to 6896
  145.1501  140.8824  143.3651 H   0  0  0  0  0  0  0  0  0  0  0  0  # atno 7974 bound_to 7965
  154.5451  140.2298  155.8577 H   0  0  0  0  0  0  0  0  0  0  0  0  # atno 8008 bound_to 7997
  156.1895  140.3080  155.9266 H   0  0  0  0  0  0  0  0  0  0  0  0  # atno 8009 bound_to 7997
  155.3181  140.0439  157.3028 H   0  0  0  0  0  0  0  0  0  0  0  0  # atno 8010 bound_to 7997
  139.5299  144.6618  151.4989 H   0  0  0  0  0  0  0  0  0  0  0  0  # atno 10167 bound_to 10162
  156.7484  130.5231  149.5809 H   0  0  0  0  0  0  0  0  0  0  0  0  # atno 10718 bound_to 10713
  153.8828  135.6820  153.4766 H   0  0  0  0  0  0  0  0  0  0  0  0  # atno 10763 bound_to 10752
  153.1224  135.4734  154.9215 H   0  0  0  0  0  0  0  0  0  0  0  0  # atno 10764 bound_to 10752
  154.7660  135.3224  154.8236 H   0  0  0  0  0  0  0  0  0  0  0  0  # atno 10765 bound_to 10752
  140.7884  134.2998  157.5022 H   0  0  0  0  0  0  0  0  0  0  0  0  # atno 11005 bound_to 11000
  145.0440  139.3236  143.5962 LP  0  0  0  0  0  0  0  0  0  0  0  0  # atno 17320 bound_to 7965
  146.3495  139.9824  142.8694 LP  0  0  0  0  0  0  0  0  0  0  0  0  # atno 17321 bound_to 7965
  140.6469  143.8775  150.6747 LP  0  0  0  0  0  0  0  0  0  0  0  0  # atno 17342 bound_to 10162
  140.2128  143.3870  152.1705 LP  0  0  0  0  0  0  0  0  0  0  0  0  # atno 17343 bound_to 10162
  156.1418  130.6249  151.0477 LP  0  0  0  0  0  0  0  0  0  0  0  0  # atno 17370 bound_to 10713
  157.6788  131.0843  150.7425 LP  0  0  0  0  0  0  0  0  0  0  0  0  # atno 17371 bound_to 10713
  139.8734  134.9360  156.3648 LP  0  0  0  0  0  0  0  0  0  0  0  0  # atno 17394 bound_to 11000
  140.9414  133.7512  156.0152 LP  0  0  0  0  0  0  0  0  0  0  0  0  # atno 17395 bound_to 11000

$$$$
