AV-unprocessed.smi:2886|AV-procd|sdf|11097|dock5
  -GOLD-   2272015563D 1   1.00000     0.00000
 Structure written by MMmdl.
 27 29  0  0  0  0  0  0  0  0  2 V2000
  151.8799  137.2002  155.3675 O   0  0  0  0  0  0  0  0  0  0  0  0
  151.2044  138.1916  155.6385 C   0  0  0  0  0  0  0  0  0  0  0  0
  150.0910  138.5322  154.9209 N   0  5  0  0  0  0  0  0  0  0  0  0
  149.3225  139.7018  155.2846 N   0  0  0  0  0  0  0  0  0  0  0  0
  149.6699  140.4372  156.2657 C   0  0  0  0  0  0  0  0  0  0  0  0
  150.8718  140.1508  157.0871 C   0  0  0  0  0  0  0  0  0  0  0  0
  151.2503  140.9516  158.1572 N   0  0  0  0  0  0  0  0  0  0  0  0
  150.6036  142.1523  158.6684 C   0  0  2  0  0  0  0  0  0  0  0  0
  150.3862  143.2199  157.5949 C   0  0  0  0  0  0  0  0  0  0  0  0
  151.0540  144.4445  158.2372 C   0  0  2  0  0  0  0  0  0  0  0  0
  152.5838  144.3420  158.1874 C   0  0  0  0  0  0  0  0  0  0  0  0
  152.8573  143.2643  159.2349 C   0  0  0  0  0  0  0  0  0  0  0  0
  151.4373  142.9157  159.7120 C   0  0  1  0  0  0  0  0  0  0  0  0
  150.8249  144.1909  159.6141 O   0  0  0  0  0  0  0  0  0  0  0  0
  151.5946  139.0482  156.7650 C   0  0  0  0  0  0  0  0  0  0  0  0
  153.0079  138.6221  157.6744 Cl  0  0  0  0  0  0  0  0  0  0  0  0
  149.0855  141.3158  156.5482 H   0  0  0  0  0  0  0  0  0  0  0  0
  152.1574  140.7596  158.5574 H   0  0  0  0  0  0  0  0  0  0  0  0
  149.6320  141.9025  159.0944 H   0  0  0  0  0  0  0  0  0  0  0  0
  150.8310  142.9707  156.6303 H   0  0  0  0  0  0  0  0  0  0  0  0
  149.3202  143.3909  157.4420 H   0  0  0  0  0  0  0  0  0  0  0  0
  150.6634  145.3987  157.8828 H   0  0  0  0  0  0  0  0  0  0  0  0
  152.9511  144.0733  157.1964 H   0  0  0  0  0  0  0  0  0  0  0  0
  153.0467  145.2850  158.4800 H   0  0  0  0  0  0  0  0  0  0  0  0
  153.3966  142.4060  158.8334 H   0  0  0  0  0  0  0  0  0  0  0  0
  153.4461  143.6757  160.0554 H   0  0  0  0  0  0  0  0  0  0  0  0
  151.4019  142.4765  160.7093 H   0  0  0  0  0  0  0  0  0  0  0  0
  1  2  2  0  0  0  0
  2 15  1  0  0  0  0
  2  3  1  0  0  0  0
  3  4  1  0  0  0  0
  4  5  2  0  0  0  0
  5  6  1  0  0  0  0
  5 17  1  0  0  0  0
  6  7  1  0  0  0  0
  6 15  2  0  0  0  0
  7  8  1  0  0  0  0
  7 18  1  0  0  0  0
  8 13  1  0  0  0  0
  8  9  1  0  0  0  0
  8 19  1  0  0  0  0
  9 10  1  0  0  0  0
  9 20  1  0  0  0  0
  9 21  1  0  0  0  0
 10 14  1  0  0  0  0
 10 11  1  0  0  0  0
 10 22  1  0  0  0  0
 11 12  1  0  0  0  0
 11 23  1  0  0  0  0
 11 24  1  0  0  0  0
 12 13  1  0  0  0  0
 12 25  1  0  0  0  0
 12 26  1  0  0  0  0
 13 14  1  0  0  0  0
 13 27  1  0  0  0  0
 15 16  1  0  0  0  0
M  CHG  1   3  -1
M  END
> <s_m_source_file>
AV-unprocessed.smi

> <i_m_source_file_index>
2886

> <i_lp_mmshare_version>
43012

> <i_f3d_flags>
0

> <s_epik_input>
Tz1jMVtuSF1uW2NIXWMoYzFDbClbTkhdW0NASF0oW0NIMl1bQ0BASF0yMylbQ0BASF0oTzMpW0NIMl1bQ0gyXTI=

> <s_epik_cmdline>
J2VwaWtfcHl0aG9uJywgJy1waCcsICc3LjAnLCAnLXRuJywgJzgnLCAnLW1hJywgJzIwMCcsICctbWV0YWxfYmluZGluZycsICctaW1hZScsICc8aW5maWxlLm1hZT4nLCAnLW9tYWUnLCAnPG91dGZpbGUubWFlPic=

> <r_lp_tautomer_probability>
0.986175

> <r_epik_Ionization_Penalty>
3.84253

> <r_epik_Ionization_Penalty_Charging>
0.0129711

> <r_epik_Ionization_Penalty_Neutral>
3.82956

> <r_epik_State_Penalty>
3.8249

> <r_epik_Charging_Adjusted_Penalty>
3.83787

> <i_epik_Tot_Q>
-1

> <i_epik_Tot_abs_Q>
1

> <r_epik_Metal_State_Penalty>
0.57612

> <b_epik_Metal_Only>
1

> <s_lp_Force_Field>
OPLS_2005

> <r_lp_Energy>
60.9826

> <b_lp_Chiralities_Consistent>
1

> <s_lp_Variant>
AV-unprocessed.smi:2886-11

> <Gold.Version>
5.8.1

> <Gold.Id.Protein>
6NUR|6NUR_protein|mol2

> <Gold.PLP.Fitness>
34.1063

> <Gold.PLP.PLP>
-28.9267

> <Gold.PLP.part.hbond>
-2.0000

> <Gold.PLP.part.metal>
0.0000

> <Gold.PLP.part.buried>
-3.7749

> <Gold.PLP.part.nonpolar>
-23.6143

> <Gold.PLP.part.repulsive>
0.4219

> <Gold.PLP.ligand.clash>
0.0000

> <Gold.PLP.ligand.torsion>
0.0667

> <Gold.PLP.Chemscore.Hbond>
1.7680

> <Gold.PLP.Chemscore.CHOScore>
0.0000

> <Gold.PLP.Chemscore.Metal>
0.0000

> <Gold.Chemscore.Hbonds>
donor molecule, donor type, donor heavy atom, donor atom, acceptor molecule, acceptor atom, score
      P1  H 10752 10764       L1     1  0.45

> <Gold.PLP.Chemscore.Internal.Correction>
0.0091

> <Gold.Rescore>
     Score         DG    S(hbond)    S(metal)    S(lipo)     H(rot)  DE(clash)    DE(int)     intcor
     17.13     -17.23       1.17        0.00      88.86       1.00       0.03       0.06       ----

> <Gold.Chemscore.Fitness>
17.1316

> <Gold.Chemscore.DG>
-17.2258

> <Gold.Chemscore.ZeroCoef>
-5.4800

> <Gold.Chemscore.Hbond>
1.1703

> <Gold.Chemscore.Metal>
0.0000

> <Gold.Chemscore.Lipo>
88.8621

> <Gold.Chemscore.Internal_Hbond>
0.0000

> <Gold.Chemscore.DEClash>
0.0344

> <Gold.Chemscore.DEInternal>
0.0597

> <Gold.Chemscore.Rot>
1.0000

> <Gold.Chemscore.Internal.Correction>
   9.000000E+99

> <Gold.Chemscore.Hbonds>
donor molecule, donor type, donor heavy atom, donor atom, acceptor molecule, acceptor atom, score
      P1  H 10752 10764       L1     1  0.45

> <Gold.Chemscore.Hbond.Weighted>
-3.9089

> <Gold.Chemscore.Metal.Weighted>
-0.0000

> <Gold.Chemscore.Lipo.Weighted>
-10.3969

> <Gold.Chemscore.Internal_Hbond.Weighted>
0.0000

> <Gold.Chemscore.DEClash.Weighted>
0.0344

> <Gold.Chemscore.DEInternal.Weighted>
0.0597

> <Gold.Chemscore.Rot.Weighted>
2.5600

> <Gold.Chemscore.Internal.Correction.Weighted>
   9.000000E+99

> <Gold.Protein.RotatedTorsions>
[ 6907 6896 6895 6894 ] final   58.76 input  -60.11 | X-H torsion
[ 7974 7965 7964 7962 ] final  -48.76 input  175.53 | X-H torsion
[ 8008 7997 7996 7995 ] final  -14.50 input   59.86 | X-H torsion
[ 10167 10162 10161 10158 ] final -149.79 input  -65.29 | X-H torsion
[ 10718 10713 10712 10709 ] final  -11.75 input   66.30 | X-H torsion
[ 10763 10752 10751 10750 ] final  -26.08 input  -60.55 | X-H torsion
[ 11005 11000 10999 10996 ] final -108.61 input  -57.11 | X-H torsion

> <Gold.Protein.ActiveResidues>
 VAL166  LYS551  ARG553  GLY616  TRP617  ASP618  TYR619  PRO620  LYS621  CYS622 
 ASP623  PHE694  ASN695  SER759  ASP760  ASP761  ALA762  ILE779  LEU786  VAL792 
 PHE793  MET794  SER795  GLU796  ALA797  LYS798  CYS799  TRP800  GLU811  SER814 

> <Gold.Protein.RotatedAtoms>
  152.3853  134.6526  160.0127 H   0  0  0  0  0  0  0  0  0  0  0  0  # atno 6907 bound_to 6896
  151.6777  133.3307  159.3220 H   0  0  0  0  0  0  0  0  0  0  0  0  # atno 6908 bound_to 6896
  150.7781  134.6744  159.6454 H   0  0  0  0  0  0  0  0  0  0  0  0  # atno 6909 bound_to 6896
  145.9477  140.7602  142.9520 H   0  0  0  0  0  0  0  0  0  0  0  0  # atno 7974 bound_to 7965
  154.5205  140.2221  155.8985 H   0  0  0  0  0  0  0  0  0  0  0  0  # atno 8008 bound_to 7997
  156.1656  140.3133  155.8849 H   0  0  0  0  0  0  0  0  0  0  0  0  # atno 8009 bound_to 7997
  155.3662  140.0464  157.3036 H   0  0  0  0  0  0  0  0  0  0  0  0  # atno 8010 bound_to 7997
  139.7411  143.8661  152.2562 H   0  0  0  0  0  0  0  0  0  0  0  0  # atno 10167 bound_to 10162
  156.6544  130.4964  149.6051 H   0  0  0  0  0  0  0  0  0  0  0  0  # atno 10718 bound_to 10713
  153.7102  135.6951  153.5039 H   0  0  0  0  0  0  0  0  0  0  0  0  # atno 10763 bound_to 10752
  153.2278  135.4348  155.0560 H   0  0  0  0  0  0  0  0  0  0  0  0  # atno 10764 bound_to 10752
  154.8317  135.3476  154.6639 H   0  0  0  0  0  0  0  0  0  0  0  0  # atno 10765 bound_to 10752
  141.0892  133.9085  157.2115 H   0  0  0  0  0  0  0  0  0  0  0  0  # atno 11005 bound_to 11000
  144.6790  140.2384  143.7347 LP  0  0  0  0  0  0  0  0  0  0  0  0  # atno 17320 bound_to 7965
  145.8213  139.2045  143.1936 LP  0  0  0  0  0  0  0  0  0  0  0  0  # atno 17321 bound_to 7965
  139.8612  144.7116  150.9098 LP  0  0  0  0  0  0  0  0  0  0  0  0  # atno 17342 bound_to 10162
  140.7786  143.3816  151.1466 LP  0  0  0  0  0  0  0  0  0  0  0  0  # atno 17343 bound_to 10162
  156.2059  130.6649  151.1217 LP  0  0  0  0  0  0  0  0  0  0  0  0  # atno 17370 bound_to 10713
  157.7130  131.0724  150.6431 LP  0  0  0  0  0  0  0  0  0  0  0  0  # atno 17371 bound_to 10713
  139.9715  135.0127  156.9524 LP  0  0  0  0  0  0  0  0  0  0  0  0  # atno 17394 bound_to 11000
  140.5292  134.0831  155.7311 LP  0  0  0  0  0  0  0  0  0  0  0  0  # atno 17395 bound_to 11000

$$$$
