AV-unprocessed.smi:670|AV-procd|sdf|3269|dock10
  -GOLD-   22720 0223D 1   1.00000     0.00000
 Structure written by MMmdl.
 45 46  0  0  0  0  0  0  0  0  1 V2000
  151.8429  145.3617  160.1000 C   0  0  0  0  0  0  0  0  0  0  0  0
  152.0524  143.9162  160.5797 C   0  0  2  0  0  0  0  0  0  0  0  0
  152.5619  143.8949  162.0349 C   0  0  0  0  0  0  0  0  0  0  0  0
  152.7805  142.4611  162.5409 C   0  0  0  0  0  0  0  0  0  0  0  0
  153.7416  141.6951  161.6219 C   0  0  0  0  0  0  0  0  0  0  0  0
  153.2386  141.7004  160.1709 C   0  0  0  0  0  0  0  0  0  0  0  0
  153.0128  143.1371  159.6520 C   0  0  1  0  0  0  0  0  0  0  0  0
  152.4208  143.0942  158.3600 O   0  0  0  0  0  0  0  0  0  0  0  0
  151.1839  142.3997  158.2906 C   0  0  0  0  0  0  0  0  0  0  0  0
  150.9657  141.8988  156.8562 C   0  0  0  0  0  0  0  0  0  0  0  0
  151.5550  140.5791  156.6562 N   0  0  0  0  0  0  0  0  0  0  0  0
  151.2987  139.7665  155.6198 C   0  0  0  0  0  0  0  0  0  0  0  0
  150.5256  140.0596  154.7066 O   0  0  0  0  0  0  0  0  0  0  0  0
  152.0117  138.4065  155.6391 C   0  0  0  0  0  0  0  0  0  0  0  0
  151.0875  137.2666  155.7273 N   0  0  0  0  0  0  0  0  0  0  0  0
  149.8639  137.4792  155.1101 N   0  0  0  0  0  0  0  0  0  0  0  0
  148.9738  136.5454  155.1045 C   0  0  0  0  0  0  0  0  0  0  0  0
  147.7768  136.7957  154.4791 O   0  0  0  0  0  0  0  0  0  0  0  0
  149.2234  135.2692  155.7382 C   0  0  0  0  0  0  0  0  0  0  0  0
  150.4158  135.0741  156.3428 C   0  0  0  0  0  0  0  0  0  0  0  0
  151.4483  136.1118  156.3672 C   0  0  0  0  0  0  0  0  0  0  0  0
  152.5419  135.9618  156.9120 O   0  0  0  0  0  0  0  0  0  0  0  0
  147.9674  136.7767  153.5540 H   0  0  0  0  0  0  0  0  0  0  0  0
  152.7835  145.9125  160.0785 H   0  0  0  0  0  0  0  0  0  0  0  0
  151.1577  145.8978  160.7574 H   0  0  0  0  0  0  0  0  0  0  0  0
  151.4179  145.3897  159.0963 H   0  0  0  0  0  0  0  0  0  0  0  0
  151.0822  143.4170  160.5581 H   0  0  0  0  0  0  0  0  0  0  0  0
  153.4979  144.4505  162.1058 H   0  0  0  0  0  0  0  0  0  0  0  0
  151.8513  144.4047  162.6864 H   0  0  0  0  0  0  0  0  0  0  0  0
  153.1739  142.4811  163.5575 H   0  0  0  0  0  0  0  0  0  0  0  0
  151.8241  141.9392  162.5889 H   0  0  0  0  0  0  0  0  0  0  0  0
  154.7326  142.1484  161.6677 H   0  0  0  0  0  0  0  0  0  0  0  0
  153.8534  140.6692  161.9732 H   0  0  0  0  0  0  0  0  0  0  0  0
  153.9569  141.1721  159.5447 H   0  0  0  0  0  0  0  0  0  0  0  0
  152.3051  141.1395  160.1085 H   0  0  0  0  0  0  0  0  0  0  0  0
  153.9655  143.6689  159.6116 H   0  0  0  0  0  0  0  0  0  0  0  0
  151.2076  141.5485  158.9724 H   0  0  0  0  0  0  0  0  0  0  0  0
  150.3524  143.0362  158.5936 H   0  0  0  0  0  0  0  0  0  0  0  0
  149.9033  141.8990  156.6059 H   0  0  0  0  0  0  0  0  0  0  0  0
  151.4460  142.5833  156.1570 H   0  0  0  0  0  0  0  0  0  0  0  0
  152.1989  140.2559  157.3635 H   0  0  0  0  0  0  0  0  0  0  0  0
  152.6404  138.3088  154.7520 H   0  0  0  0  0  0  0  0  0  0  0  0
  152.6996  138.4001  156.4866 H   0  0  0  0  0  0  0  0  0  0  0  0
  148.4686  134.4967  155.7248 H   0  0  0  0  0  0  0  0  0  0  0  0
  150.6157  134.1264  156.8208 H   0  0  0  0  0  0  0  0  0  0  0  0
  1  2  1  0  0  0  0
  1 24  1  0  0  0  0
  1 25  1  0  0  0  0
  1 26  1  0  0  0  0
  2  7  1  0  0  0  0
  2  3  1  0  0  0  0
  2 27  1  0  0  0  0
  3  4  1  0  0  0  0
  3 28  1  0  0  0  0
  3 29  1  0  0  0  0
  4  5  1  0  0  0  0
  4 30  1  0  0  0  0
  4 31  1  0  0  0  0
  5  6  1  0  0  0  0
  5 32  1  0  0  0  0
  5 33  1  0  0  0  0
  6  7  1  0  0  0  0
  6 34  1  0  0  0  0
  6 35  1  0  0  0  0
  7  8  1  0  0  0  0
  7 36  1  0  0  0  0
  8  9  1  0  0  0  0
  9 10  1  0  0  0  0
  9 37  1  0  0  0  0
  9 38  1  0  0  0  0
 10 11  1  0  0  0  0
 10 39  1  0  0  0  0
 10 40  1  0  0  0  0
 11 12  1  0  0  0  0
 11 41  1  0  0  0  0
 12 13  2  0  0  0  0
 12 14  1  0  0  0  0
 14 42  1  0  0  0  0
 14 43  1  0  0  0  0
 14 15  1  0  0  0  0
 15 16  1  0  0  0  0
 15 21  1  0  0  0  0
 16 17  2  0  0  0  0
 17 18  1  0  0  0  0
 17 19  1  0  0  0  0
 18 23  1  0  0  0  0
 19 44  1  0  0  0  0
 19 20  2  0  0  0  0
 20 45  1  0  0  0  0
 20 21  1  0  0  0  0
 21 22  2  0  0  0  0
M  END
> <s_m_source_file>
AV-unprocessed.smi

> <i_m_source_file_index>
670

> <i_lp_mmshare_version>
43012

> <i_f3d_flags>
0

> <s_epik_input>
W0NIM11bQ0BASF0xW0NIMl1bQ0gyXVtDSDJdW0NIMl1bQ0BIXTFPW0NIMl1bQ0gyXVtOSF1DKD1PKVtDSDJdbjJbbkhdYyg9TylbY0hdW2NIXWMyPU8=

> <s_epik_cmdline>
J2VwaWtfcHl0aG9uJywgJy1waCcsICc3LjAnLCAnLXRuJywgJzgnLCAnLW1hJywgJzIwMCcsICctbWV0YWxfYmluZGluZycsICctaW1hZScsICc8aW5maWxlLm1hZT4nLCAnLW9tYWUnLCAnPG91dGZpbGUubWFlPic=

> <r_lp_tautomer_probability>
0.9996

> <r_epik_Ionization_Penalty>
2.12726

> <r_epik_Ionization_Penalty_Charging>
3.83395e-08

> <r_epik_Ionization_Penalty_Neutral>
2.12726

> <r_epik_State_Penalty>
1.70432

> <r_epik_Charging_Adjusted_Penalty>
1.70432

> <i_epik_Tot_Q>
0

> <i_epik_Tot_abs_Q>
0

> <r_epik_Metal_State_Penalty>
1.70432

> <b_epik_Metal_Only>
0

> <s_lp_Force_Field>
OPLS_2005

> <r_lp_Energy>
21.1157

> <b_lp_Chiralities_Consistent>
1

> <s_lp_Variant>
AV-unprocessed.smi:670-5

> <Gold.Version>
5.8.1

> <Gold.Id.Protein>
6NUR|6NUR_protein|mol2

> <Gold.PLP.Fitness>
53.9443

> <Gold.PLP.PLP>
-46.4881

> <Gold.PLP.part.hbond>
-3.0000

> <Gold.PLP.part.metal>
0.0000

> <Gold.PLP.part.buried>
-4.1674

> <Gold.PLP.part.nonpolar>
-38.9306

> <Gold.PLP.part.repulsive>
0.3780

> <Gold.PLP.ligand.clash>
0.0000

> <Gold.PLP.ligand.torsion>
0.7825

> <Gold.PLP.Chemscore.Hbond>
3.0000

> <Gold.PLP.Chemscore.CHOScore>
0.0000

> <Gold.PLP.Chemscore.Metal>
0.0000

> <Gold.Chemscore.Hbonds>
donor molecule, donor type, donor heavy atom, donor atom, acceptor molecule, acceptor atom, score
      L1  H    18    23       P1  7948  0.99
      P1  H  7989  7998       L1    13  1.00
      P1  H 10752 10765       L1    22  1.00

> <Gold.PLP.Chemscore.Internal.Correction>
0.0212

> <Gold.Rescore>
     Score         DG    S(hbond)    S(metal)    S(lipo)     H(rot)  DE(clash)    DE(int)     intcor
     14.52     -17.04       1.91        0.00     112.01       3.09       0.34       2.18       ----

> <Gold.Chemscore.Fitness>
14.5188

> <Gold.Chemscore.DG>
-17.0384

> <Gold.Chemscore.ZeroCoef>
-5.4800

> <Gold.Chemscore.Hbond>
1.9054

> <Gold.Chemscore.Metal>
0.0000

> <Gold.Chemscore.Lipo>
112.0070

> <Gold.Chemscore.Internal_Hbond>
0.0000

> <Gold.Chemscore.DEClash>
0.3442

> <Gold.Chemscore.DEInternal>
2.1754

> <Gold.Chemscore.Rot>
3.0901

> <Gold.Chemscore.Internal.Correction>
   9.000000E+99

> <Gold.Chemscore.Hbonds>
donor molecule, donor type, donor heavy atom, donor atom, acceptor molecule, acceptor atom, score
      L1  H    18    23       P1  7948  0.91
      P1  H  7989  7998       L1    13  0.40
      P1  H 10752 10765       L1    22  0.25

> <Gold.Chemscore.Hbond.Weighted>
-6.3641

> <Gold.Chemscore.Metal.Weighted>
-0.0000

> <Gold.Chemscore.Lipo.Weighted>
-13.1048

> <Gold.Chemscore.Internal_Hbond.Weighted>
0.0000

> <Gold.Chemscore.DEClash.Weighted>
0.3442

> <Gold.Chemscore.DEInternal.Weighted>
2.1754

> <Gold.Chemscore.Rot.Weighted>
7.9106

> <Gold.Chemscore.Internal.Correction.Weighted>
   9.000000E+99

> <Gold.Protein.RotatedTorsions>
[ 6907 6896 6895 6894 ] final  -27.73 input  -60.11 | X-H torsion
[ 7974 7965 7964 7962 ] final  -39.08 input  175.53 | X-H torsion
[ 8008 7997 7996 7995 ] final  177.68 input   59.86 | X-H torsion
[ 10167 10162 10161 10158 ] final -165.66 input  -65.29 | X-H torsion
[ 10718 10713 10712 10709 ] final  -31.80 input   66.30 | X-H torsion
[ 10763 10752 10751 10750 ] final -115.36 input  -60.55 | X-H torsion
[ 11005 11000 10999 10996 ] final  161.32 input  -57.11 | X-H torsion

> <Gold.Protein.ActiveResidues>
 VAL166  LYS551  ARG553  GLY616  TRP617  ASP618  TYR619  PRO620  LYS621  CYS622 
 ASP623  PHE694  ASN695  SER759  ASP760  ASP761  ALA762  ILE779  LEU786  VAL792 
 PHE793  MET794  SER795  GLU796  ALA797  LYS798  CYS799  TRP800  GLU811  SER814 

> <Gold.Protein.RotatedAtoms>
  151.1429  135.0188  159.8633 H   0  0  0  0  0  0  0  0  0  0  0  0  # atno 6907 bound_to 6896
  152.5452  134.1478  159.8516 H   0  0  0  0  0  0  0  0  0  0  0  0  # atno 6908 bound_to 6896
  151.1556  133.4833  159.2627 H   0  0  0  0  0  0  0  0  0  0  0  0  # atno 6909 bound_to 6896
  146.0429  140.6585  142.9078 H   0  0  0  0  0  0  0  0  0  0  0  0  # atno 7974 bound_to 7965
  156.0629  140.1352  156.9919 H   0  0  0  0  0  0  0  0  0  0  0  0  # atno 8008 bound_to 7997
  154.4491  140.0987  156.6615 H   0  0  0  0  0  0  0  0  0  0  0  0  # atno 8009 bound_to 7997
  155.5348  140.3459  155.4436 H   0  0  0  0  0  0  0  0  0  0  0  0  # atno 8010 bound_to 7997
  139.6167  144.0706  152.1894 H   0  0  0  0  0  0  0  0  0  0  0  0  # atno 10167 bound_to 10162
  156.3828  130.4359  149.7455 H   0  0  0  0  0  0  0  0  0  0  0  0  # atno 10718 bound_to 10713
  154.8478  135.4384  154.1650 H   0  0  0  0  0  0  0  0  0  0  0  0  # atno 10763 bound_to 10752
  153.2778  135.6951  153.7422 H   0  0  0  0  0  0  0  0  0  0  0  0  # atno 10764 bound_to 10752
  153.6638  135.3430  155.3109 H   0  0  0  0  0  0  0  0  0  0  0  0  # atno 10765 bound_to 10752
  140.2146  134.8242  157.3157 H   0  0  0  0  0  0  0  0  0  0  0  0  # atno 11005 bound_to 11000
  144.7083  140.3941  143.7100 LP  0  0  0  0  0  0  0  0  0  0  0  0  # atno 17320 bound_to 7965
  145.6854  139.1627  143.2677 LP  0  0  0  0  0  0  0  0  0  0  0  0  # atno 17321 bound_to 7965
  140.0338  144.6061  150.7466 LP  0  0  0  0  0  0  0  0  0  0  0  0  # atno 17342 bound_to 10162
  140.7355  143.2742  151.3793 LP  0  0  0  0  0  0  0  0  0  0  0  0  # atno 17343 bound_to 10162
  156.4539  130.7920  151.2941 LP  0  0  0  0  0  0  0  0  0  0  0  0  # atno 17370 bound_to 10713
  157.7493  131.0087  150.3238 LP  0  0  0  0  0  0  0  0  0  0  0  0  # atno 17371 bound_to 10713
  140.1914  134.4367  155.7714 LP  0  0  0  0  0  0  0  0  0  0  0  0  # atno 17394 bound_to 11000
  141.2225  133.7029  156.8033 LP  0  0  0  0  0  0  0  0  0  0  0  0  # atno 17395 bound_to 11000

$$$$
