AV-unprocessed.smi:877|AV-procd|sdf|4029|dock3
  -GOLD-   22720 1523D 1   1.00000     0.00000
 Structure written by MMmdl.
 44 46  0  0  0  0  0  0  0  0  2 V2000
  143.0409  143.9420  155.0792 C   0  0  0  0  0  0  0  0  0  0  0  0
  143.8127  143.3037  156.0860 O   0  0  0  0  0  0  0  0  0  0  0  0
  145.0570  142.8212  155.7413 C   0  0  0  0  0  0  0  0  0  0  0  0
  145.8039  142.1917  156.7581 C   0  0  0  0  0  0  0  0  0  0  0  0
  147.0875  141.6757  156.4971 C   0  0  0  0  0  0  0  0  0  0  0  0
  147.6430  141.7822  155.2066 C   0  0  0  0  0  0  0  0  0  0  0  0
  149.0323  141.2417  154.9213 C   0  0  0  0  0  0  0  0  0  0  0  0
  150.0180  141.5755  155.9985 C   0  0  0  0  0  0  0  0  0  0  0  0
  150.3443  142.8299  156.4248 N   0  3  0  0  0  0  0  0  0  0  0  0
  151.3063  142.7543  157.4317 C   0  0  0  0  0  0  0  0  0  0  0  0
  151.9463  143.7538  158.1579 C   0  0  0  0  0  0  0  0  0  0  0  0
  152.8870  143.3324  159.1205 C   0  0  0  0  0  0  0  0  0  0  0  0
  153.1591  141.9650  159.3319 C   0  0  0  0  0  0  0  0  0  0  0  0
  152.5032  140.9609  158.5889 C   0  0  0  0  0  0  0  0  0  0  0  0
  151.5757  141.3865  157.6385 C   0  0  0  0  0  0  0  0  0  0  0  0
  150.7574  140.6967  156.7368 N   0  0  0  0  0  0  0  0  0  0  0  0
  150.8106  139.2261  156.7068 C   0  0  0  0  0  0  0  0  0  0  0  0
  151.7849  138.6833  155.6419 C   0  0  2  0  0  0  0  0  0  0  0  0
  152.1348  139.7321  154.7587 O   0  0  0  0  0  0  0  0  0  0  0  0
  151.1611  137.5350  154.8302 C   0  0  0  0  0  0  0  0  0  0  0  0
  152.0909  137.0343  153.8931 O   0  0  0  0  0  0  0  0  0  0  0  0
  146.9026  142.4037  154.1808 C   0  0  0  0  0  0  0  0  0  0  0  0
  145.6195  142.9216  154.4437 C   0  0  0  0  0  0  0  0  0  0  0  0
  142.0971  144.2774  155.5085 H   0  0  0  0  0  0  0  0  0  0  0  0
  142.8072  143.2584  154.2620 H   0  0  0  0  0  0  0  0  0  0  0  0
  143.5523  144.8198  154.6817 H   0  0  0  0  0  0  0  0  0  0  0  0
  145.3884  142.1060  157.7515 H   0  0  0  0  0  0  0  0  0  0  0  0
  147.6433  141.2013  157.2927 H   0  0  0  0  0  0  0  0  0  0  0  0
  148.9974  140.1587  154.7996 H   0  0  0  0  0  0  0  0  0  0  0  0
  149.3715  141.6515  153.9700 H   0  0  0  0  0  0  0  0  0  0  0  0
  151.7401  144.8018  157.9968 H   0  0  0  0  0  0  0  0  0  0  0  0
  153.4108  144.0725  159.7081 H   0  0  0  0  0  0  0  0  0  0  0  0
  153.8865  141.6799  160.0781 H   0  0  0  0  0  0  0  0  0  0  0  0
  152.7215  139.9166  158.7560 H   0  0  0  0  0  0  0  0  0  0  0  0
  151.0862  138.8729  157.7010 H   0  0  0  0  0  0  0  0  0  0  0  0
  149.8008  138.8567  156.5257 H   0  0  0  0  0  0  0  0  0  0  0  0
  152.6910  138.3317  156.1372 H   0  0  0  0  0  0  0  0  0  0  0  0
  153.0467  139.9429  154.8887 H   0  0  0  0  0  0  0  0  0  0  0  0
  150.8915  136.7105  155.4912 H   0  0  0  0  0  0  0  0  0  0  0  0
  150.2487  137.8519  154.3237 H   0  0  0  0  0  0  0  0  0  0  0  0
  151.6313  136.8273  153.0937 H   0  0  0  0  0  0  0  0  0  0  0  0
  147.3206  142.4911  153.1883 H   0  0  0  0  0  0  0  0  0  0  0  0
  145.0867  143.3931  153.6319 H   0  0  0  0  0  0  0  0  0  0  0  0
  149.9414  143.6758  156.0422 H   0  0  0  0  0  0  0  0  0  0  0  0
  1  2  1  0  0  0  0
  1 24  1  0  0  0  0
  1 25  1  0  0  0  0
  1 26  1  0  0  0  0
  2  3  1  0  0  0  0
  3 23  1  0  0  0  0
  3  4  2  0  0  0  0
  4  5  1  0  0  0  0
  4 27  1  0  0  0  0
  5  6  2  0  0  0  0
  5 28  1  0  0  0  0
  6  7  1  0  0  0  0
  6 22  1  0  0  0  0
  7  8  1  0  0  0  0
  7 29  1  0  0  0  0
  7 30  1  0  0  0  0
  8 16  1  0  0  0  0
  8  9  2  0  0  0  0
  9 10  1  0  0  0  0
  9 44  1  0  0  0  0
 10 15  2  0  0  0  0
 10 11  1  0  0  0  0
 11 12  2  0  0  0  0
 11 31  1  0  0  0  0
 12 13  1  0  0  0  0
 12 32  1  0  0  0  0
 13 14  2  0  0  0  0
 13 33  1  0  0  0  0
 14 15  1  0  0  0  0
 14 34  1  0  0  0  0
 15 16  1  0  0  0  0
 16 17  1  0  0  0  0
 17 18  1  0  0  0  0
 17 35  1  0  0  0  0
 17 36  1  0  0  0  0
 18 19  1  0  0  0  0
 18 20  1  0  0  0  0
 18 37  1  0  0  0  0
 19 38  1  0  0  0  0
 20 21  1  0  0  0  0
 20 39  1  0  0  0  0
 20 40  1  0  0  0  0
 21 41  1  0  0  0  0
 22 23  2  0  0  0  0
 22 42  1  0  0  0  0
 23 43  1  0  0  0  0
M  CHG  1   9   1
M  END
> <s_m_source_file>
AV-unprocessed.smi

> <i_m_source_file_index>
877

> <i_lp_mmshare_version>
43012

> <i_f3d_flags>
0

> <s_epik_input>
W0NIM11PYzFbY0hdW2NIXWMoW2NIXVtjSF0xKVtDSDJdYyhuMiluKFtDSDJdW0NASF0oW09IXSlbQ0gyXVtPSF0pYyhjMjMpW2NIXVtjSF1bY0hdW2NIXTM=

> <s_epik_cmdline>
J2VwaWtfcHl0aG9uJywgJy1waCcsICc3LjAnLCAnLXRuJywgJzgnLCAnLW1hJywgJzIwMCcsICctbWV0YWxfYmluZGluZycsICctaW1hZScsICc8aW5maWxlLm1hZT4nLCAnLW9tYWUnLCAnPG91dGZpbGUubWFlPic=

> <r_lp_tautomer_probability>
1

> <r_epik_Ionization_Penalty>
1.37112

> <r_epik_Ionization_Penalty_Charging>
1.37111

> <r_epik_Ionization_Penalty_Neutral>
4.48252e-07

> <r_epik_State_Penalty>
1.45083

> <r_epik_Charging_Adjusted_Penalty>
2.82194

> <i_epik_Tot_Q>
1

> <i_epik_Tot_abs_Q>
1

> <r_epik_Metal_State_Penalty>
5.49009

> <b_epik_Metal_Only>
0

> <s_lp_Force_Field>
OPLS_2005

> <r_lp_Energy>
22.2712

> <b_lp_Chiralities_Consistent>
1

> <s_lp_Variant>
AV-unprocessed.smi:877-3

> <Gold.Version>
5.8.1

> <Gold.Id.Protein>
6NUR|6NUR_protein|mol2

> <Gold.PLP.Fitness>
60.8317

> <Gold.PLP.PLP>
-48.8512

> <Gold.PLP.part.hbond>
-3.8266

> <Gold.PLP.part.metal>
0.0000

> <Gold.PLP.part.buried>
-6.1018

> <Gold.PLP.part.nonpolar>
-39.4311

> <Gold.PLP.part.repulsive>
0.1625

> <Gold.PLP.ligand.clash>
0.0000

> <Gold.PLP.ligand.torsion>
1.2285

> <Gold.PLP.Chemscore.Hbond>
4.7825

> <Gold.PLP.Chemscore.CHOScore>
0.0000

> <Gold.PLP.Chemscore.Metal>
0.0000

> <Gold.Chemscore.Hbonds>
donor molecule, donor type, donor heavy atom, donor atom, acceptor molecule, acceptor atom, score
      L1  H     9    44       P1  8028  1.98
      L1  H    21    41       P1  7949  1.00
      P1  H  7989  7998       L1    19  0.82
      P1  H 10752 10763       L1    21  0.89

> <Gold.PLP.Chemscore.Internal.Correction>
0.0900

> <Gold.Rescore>
     Score         DG    S(hbond)    S(metal)    S(lipo)     H(rot)  DE(clash)    DE(int)     intcor
     19.89     -21.21       3.37        0.00     108.96       3.23       0.04       1.28       ----

> <Gold.Chemscore.Fitness>
19.8919

> <Gold.Chemscore.DG>
-21.2146

> <Gold.Chemscore.ZeroCoef>
-5.4800

> <Gold.Chemscore.Hbond>
3.3710

> <Gold.Chemscore.Metal>
0.0000

> <Gold.Chemscore.Lipo>
108.9594

> <Gold.Chemscore.Internal_Hbond>
0.0000

> <Gold.Chemscore.DEClash>
0.0396

> <Gold.Chemscore.DEInternal>
1.2831

> <Gold.Chemscore.Rot>
3.2315

> <Gold.Chemscore.Internal.Correction>
   9.000000E+99

> <Gold.Chemscore.Hbonds>
donor molecule, donor type, donor heavy atom, donor atom, acceptor molecule, acceptor atom, score
      L1  H     9    44       P1  8028  0.92
      L1  H    21    41       P1  7949  0.96
      P1  H  7989  7998       L1    19  0.28
      P1  H 10752 10763       L1    21  0.17

> <Gold.Chemscore.Hbond.Weighted>
-11.2590

> <Gold.Chemscore.Metal.Weighted>
-0.0000

> <Gold.Chemscore.Lipo.Weighted>
-12.7483

> <Gold.Chemscore.Internal_Hbond.Weighted>
0.0000

> <Gold.Chemscore.DEClash.Weighted>
0.0396

> <Gold.Chemscore.DEInternal.Weighted>
1.2831

> <Gold.Chemscore.Rot.Weighted>
8.2727

> <Gold.Chemscore.Internal.Correction.Weighted>
   9.000000E+99

> <Gold.Protein.RotatedTorsions>
[ 6907 6896 6895 6894 ] final -148.11 input  -60.11 | X-H torsion
[ 7974 7965 7964 7962 ] final -141.77 input  175.53 | X-H torsion
[ 8008 7997 7996 7995 ] final  -90.54 input   59.86 | X-H torsion
[ 10167 10162 10161 10158 ] final  -59.11 input  -65.29 | X-H torsion
[ 10718 10713 10712 10709 ] final -146.10 input   66.30 | X-H torsion
[ 10763 10752 10751 10750 ] final   17.25 input  -60.55 | X-H torsion
[ 11005 11000 10999 10996 ] final -129.05 input  -57.11 | X-H torsion

> <Gold.Protein.ActiveResidues>
 VAL166  LYS551  ARG553  GLY616  TRP617  ASP618  TYR619  PRO620  LYS621  CYS622 
 ASP623  PHE694  ASN695  SER759  ASP760  ASP761  ALA762  ILE779  LEU786  VAL792 
 PHE793  MET794  SER795  GLU796  ALA797  LYS798  CYS799  TRP800  GLU811  SER814 

> <Gold.Protein.RotatedAtoms>
  151.1651  133.4820  159.2593 H   0  0  0  0  0  0  0  0  0  0  0  0  # atno 6907 bound_to 6896
  151.1414  135.0181  159.8637 H   0  0  0  0  0  0  0  0  0  0  0  0  # atno 6908 bound_to 6896
  152.5462  134.1544  159.8585 H   0  0  0  0  0  0  0  0  0  0  0  0  # atno 6909 bound_to 6896
  144.8494  140.6039  143.5400 H   0  0  0  0  0  0  0  0  0  0  0  0  # atno 7974 bound_to 7965
  154.6998  140.0529  157.0447 H   0  0  0  0  0  0  0  0  0  0  0  0  # atno 8008 bound_to 7997
  155.0700  140.3198  155.4614 H   0  0  0  0  0  0  0  0  0  0  0  0  # atno 8009 bound_to 7997
  156.2756  140.2083  156.5828 H   0  0  0  0  0  0  0  0  0  0  0  0  # atno 8010 bound_to 7997
  140.6155  143.2401  151.5606 H   0  0  0  0  0  0  0  0  0  0  0  0  # atno 10167 bound_to 10162
  156.3906  130.7884  151.2086 H   0  0  0  0  0  0  0  0  0  0  0  0  # atno 10718 bound_to 10713
  153.1356  135.6749  153.9109 H   0  0  0  0  0  0  0  0  0  0  0  0  # atno 10763 bound_to 10752
  153.8582  135.3084  155.3437 H   0  0  0  0  0  0  0  0  0  0  0  0  # atno 10764 bound_to 10752
  154.7744  135.4922  153.9797 H   0  0  0  0  0  0  0  0  0  0  0  0  # atno 10765 bound_to 10752
  140.9464  134.1124  157.4103 H   0  0  0  0  0  0  0  0  0  0  0  0  # atno 11005 bound_to 11000
  145.4531  139.1521  143.3907 LP  0  0  0  0  0  0  0  0  0  0  0  0  # atno 17320 bound_to 7965
  146.2771  140.4658  142.8791 LP  0  0  0  0  0  0  0  0  0  0  0  0  # atno 17321 bound_to 7965
  139.5395  144.2686  152.1322 LP  0  0  0  0  0  0  0  0  0  0  0  0  # atno 17342 bound_to 10162
  140.1894  144.4766  150.6486 LP  0  0  0  0  0  0  0  0  0  0  0  0  # atno 17343 bound_to 10162
  157.7499  131.0316  150.4191 LP  0  0  0  0  0  0  0  0  0  0  0  0  # atno 17370 bound_to 10713
  156.4452  130.4000  149.6671 LP  0  0  0  0  0  0  0  0  0  0  0  0  # atno 17371 bound_to 10713
  139.8834  135.0052  156.6302 LP  0  0  0  0  0  0  0  0  0  0  0  0  # atno 17394 bound_to 11000
  140.7663  133.8775  155.8457 LP  0  0  0  0  0  0  0  0  0  0  0  0  # atno 17395 bound_to 11000

$$$$
