AV-unprocessed.smi:1804|AV-procd|sdf|7295|dock6
  -GOLD-   22720 8553D 1   1.00000     0.00000
 Structure written by MMmdl.
 44 45  0  0  0  0  0  0  0  0  2 V2000
  146.2850  134.7355  154.1171 C   0  0  0  0  0  0  0  0  0  0  0  0
  146.5028  133.2985  154.4331 N   0  3  0  0  0  0  0  0  0  0  0  0
  146.3244  133.0750  155.8923 C   0  0  0  0  0  0  0  0  0  0  0  0
  147.7317  132.6776  153.8164 C   0  0  0  0  0  0  0  0  0  0  0  0
  149.0143  133.2695  154.4914 C   0  0  0  0  0  0  0  0  0  0  0  0
  149.3192  134.6442  154.0906 N   0  0  0  0  0  0  0  0  0  0  0  0
  150.0591  135.5182  154.7890 C   0  0  0  0  0  0  0  0  0  0  0  0
  150.5755  135.2541  155.8750 O   0  0  0  0  0  0  0  0  0  0  0  0
  150.1487  136.6984  154.1513 N   0  0  0  0  0  0  0  0  0  0  0  0
  150.8198  137.8771  154.5720 C   0  0  0  0  0  0  0  0  0  0  0  0
  150.4531  139.1144  154.2033 N   0  0  0  0  0  0  0  0  0  0  0  0
  151.2782  140.0864  154.7541 N   0  0  0  0  0  0  0  0  0  0  0  0
  152.2333  139.5447  155.5152 C   0  0  0  0  0  0  0  0  0  0  0  0
  152.2193  137.7939  155.6322 S   0  0  0  0  0  0  0  0  0  0  0  0
  147.7703  131.1269  154.0215 C   0  0  0  0  0  0  0  0  0  0  0  0
  146.5431  130.3041  153.5862 C   0  0  0  0  0  0  0  0  0  0  0  0
  146.1968  130.3906  152.0947 C   0  0  0  0  0  0  0  0  0  0  0  0
  145.5330  131.7223  151.7310 C   0  0  0  0  0  0  0  0  0  0  0  0
  146.5045  132.8746  151.4361 C   0  0  0  0  0  0  0  0  0  0  0  0
  147.7951  132.9710  152.2830 C   0  0  0  0  0  0  0  0  0  0  0  0
  146.9737  135.3756  154.6688 H   0  0  0  0  0  0  0  0  0  0  0  0
  145.2740  135.0274  154.4029 H   0  0  0  0  0  0  0  0  0  0  0  0
  146.3897  134.9650  153.0590 H   0  0  0  0  0  0  0  0  0  0  0  0
  147.0944  133.5813  156.4742 H   0  0  0  0  0  0  0  0  0  0  0  0
  146.3256  132.0227  156.1684 H   0  0  0  0  0  0  0  0  0  0  0  0
  145.3616  133.4732  156.2137 H   0  0  0  0  0  0  0  0  0  0  0  0
  148.9471  133.2183  155.5783 H   0  0  0  0  0  0  0  0  0  0  0  0
  149.8903  132.6785  154.2267 H   0  0  0  0  0  0  0  0  0  0  0  0
  148.9360  134.9518  153.2084 H   0  0  0  0  0  0  0  0  0  0  0  0
  149.6767  136.7656  153.2617 H   0  0  0  0  0  0  0  0  0  0  0  0
  152.9516  140.1806  156.0110 H   0  0  0  0  0  0  0  0  0  0  0  0
  148.6310  130.7125  153.4955 H   0  0  0  0  0  0  0  0  0  0  0  0
  147.9685  130.9024  155.0700 H   0  0  0  0  0  0  0  0  0  0  0  0
  146.7477  129.2593  153.8227 H   0  0  0  0  0  0  0  0  0  0  0  0
  145.6686  130.5636  154.1819 H   0  0  0  0  0  0  0  0  0  0  0  0
  147.0712  130.1997  151.4711 H   0  0  0  0  0  0  0  0  0  0  0  0
  145.4895  129.5906  151.8718 H   0  0  0  0  0  0  0  0  0  0  0  0
  144.9105  131.5758  150.8476 H   0  0  0  0  0  0  0  0  0  0  0  0
  144.8392  132.0139  152.5200 H   0  0  0  0  0  0  0  0  0  0  0  0
  146.8081  132.8080  150.3907 H   0  0  0  0  0  0  0  0  0  0  0  0
  145.9471  133.8085  151.5024 H   0  0  0  0  0  0  0  0  0  0  0  0
  148.2002  133.9705  152.1213 H   0  0  0  0  0  0  0  0  0  0  0  0
  148.5355  132.3109  151.8296 H   0  0  0  0  0  0  0  0  0  0  0  0
  145.7327  132.8127  153.9956 H   0  0  0  0  0  0  0  0  0  0  0  0
  1  2  1  0  0  0  0
  1 21  1  0  0  0  0
  1 22  1  0  0  0  0
  1 23  1  0  0  0  0
  2  3  1  0  0  0  0
  2  4  1  0  0  0  0
  2 44  1  0  0  0  0
  3 24  1  0  0  0  0
  3 25  1  0  0  0  0
  3 26  1  0  0  0  0
  4 20  1  0  0  0  0
  4  5  1  0  0  0  0
  4 15  1  0  0  0  0
  5  6  1  0  0  0  0
  5 27  1  0  0  0  0
  5 28  1  0  0  0  0
  6  7  1  0  0  0  0
  6 29  1  0  0  0  0
  7  8  2  0  0  0  0
  7  9  1  0  0  0  0
  9 10  1  0  0  0  0
  9 30  1  0  0  0  0
 10 14  1  0  0  0  0
 10 11  2  0  0  0  0
 11 12  1  0  0  0  0
 12 13  2  0  0  0  0
 13 14  1  0  0  0  0
 13 31  1  0  0  0  0
 15 16  1  0  0  0  0
 15 32  1  0  0  0  0
 15 33  1  0  0  0  0
 16 17  1  0  0  0  0
 16 34  1  0  0  0  0
 16 35  1  0  0  0  0
 17 18  1  0  0  0  0
 17 36  1  0  0  0  0
 17 37  1  0  0  0  0
 18 19  1  0  0  0  0
 18 38  1  0  0  0  0
 18 39  1  0  0  0  0
 19 20  1  0  0  0  0
 19 40  1  0  0  0  0
 19 41  1  0  0  0  0
 20 42  1  0  0  0  0
 20 43  1  0  0  0  0
M  CHG  1   2   1
M  END
> <s_m_source_file>
AV-unprocessed.smi

> <i_m_source_file_index>
1804

> <i_lp_mmshare_version>
43012

> <i_f3d_flags>
0

> <s_epik_input>
W0NIMl0xW0NIMl1bQ0gyXVtDSDJdW0NIMl1bQ0gyXUMxKE4oW0NIM10pW0NIM10pW0NIMl1bTkhdQyg9TylbTkhdYzJubltjSF1zMg==

> <s_epik_cmdline>
J2VwaWtfcHl0aG9uJywgJy1waCcsICc3LjAnLCAnLXRuJywgJzgnLCAnLW1hJywgJzIwMCcsICctbWV0YWxfYmluZGluZycsICctaW1hZScsICc8aW5maWxlLm1hZT4nLCAnLW9tYWUnLCAnPG91dGZpbGUubWFlPic=

> <r_lp_tautomer_probability>
1

> <r_epik_Ionization_Penalty>
0.00320238

> <r_epik_Ionization_Penalty_Charging>
0.00244219

> <r_epik_Ionization_Penalty_Neutral>
0.000760187

> <r_epik_State_Penalty>
-0

> <r_epik_Charging_Adjusted_Penalty>
0.00244219

> <i_epik_Tot_Q>
1

> <i_epik_Tot_abs_Q>
1

> <r_epik_Metal_State_Penalty>
0.262153

> <b_epik_Metal_Only>
0

> <s_lp_Force_Field>
OPLS_2005

> <r_lp_Energy>
34.4391

> <b_lp_Chiralities_Consistent>
1

> <s_lp_Variant>
AV-unprocessed.smi:1804-1

> <Gold.Version>
5.8.1

> <Gold.Id.Protein>
6NUR|6NUR_protein|mol2

> <Gold.PLP.Fitness>
38.1359

> <Gold.PLP.PLP>
-30.2851

> <Gold.PLP.part.hbond>
-4.3575

> <Gold.PLP.part.metal>
0.0000

> <Gold.PLP.part.buried>
-2.0456

> <Gold.PLP.part.nonpolar>
-24.6613

> <Gold.PLP.part.repulsive>
0.3736

> <Gold.PLP.ligand.clash>
0.0000

> <Gold.PLP.ligand.torsion>
0.5329

> <Gold.PLP.Chemscore.Hbond>
2.9440

> <Gold.PLP.Chemscore.CHOScore>
0.0000

> <Gold.PLP.Chemscore.Metal>
0.0000

> <Gold.Chemscore.Hbonds>
donor molecule, donor type, donor heavy atom, donor atom, acceptor molecule, acceptor atom, score
      L1  H     6    29       P1  7948  0.94
      L1  H     9    30       P1  7948  1.00
      P1  H  7989  7998       L1    12  0.98

> <Gold.PLP.Chemscore.Internal.Correction>
0.0847

> <Gold.Rescore>
     Score         DG    S(hbond)    S(metal)    S(lipo)     H(rot)  DE(clash)    DE(int)     intcor
     11.18     -13.36       1.47        0.00      61.49       1.65       0.03       2.15       ----

> <Gold.Chemscore.Fitness>
11.1831

> <Gold.Chemscore.DG>
-13.3584

> <Gold.Chemscore.ZeroCoef>
-5.4800

> <Gold.Chemscore.Hbond>
1.4686

> <Gold.Chemscore.Metal>
0.0000

> <Gold.Chemscore.Lipo>
61.4876

> <Gold.Chemscore.Internal_Hbond>
0.0000

> <Gold.Chemscore.DEClash>
0.0299

> <Gold.Chemscore.DEInternal>
2.1455

> <Gold.Chemscore.Rot>
1.6487

> <Gold.Chemscore.Internal.Correction>
   9.000000E+99

> <Gold.Chemscore.Hbonds>
donor molecule, donor type, donor heavy atom, donor atom, acceptor molecule, acceptor atom, score
      L1  H     6    29       P1  7948  0.23
      L1  H     9    30       P1  7948  0.49
      P1  H  7989  7998       L1    12  0.23

> <Gold.Chemscore.Hbond.Weighted>
-4.9051

> <Gold.Chemscore.Metal.Weighted>
-0.0000

> <Gold.Chemscore.Lipo.Weighted>
-7.1941

> <Gold.Chemscore.Internal_Hbond.Weighted>
0.0000

> <Gold.Chemscore.DEClash.Weighted>
0.0299

> <Gold.Chemscore.DEInternal.Weighted>
2.1455

> <Gold.Chemscore.Rot.Weighted>
4.2207

> <Gold.Chemscore.Internal.Correction.Weighted>
   9.000000E+99

> <Gold.Protein.RotatedTorsions>
[ 6907 6896 6895 6894 ] final  -15.53 input  -60.11 | X-H torsion
[ 7974 7965 7964 7962 ] final   58.52 input  175.53 | X-H torsion
[ 8008 7997 7996 7995 ] final  -56.54 input   59.86 | X-H torsion
[ 10167 10162 10161 10158 ] final -130.20 input  -65.29 | X-H torsion
[ 10718 10713 10712 10709 ] final  -59.81 input   66.30 | X-H torsion
[ 10763 10752 10751 10750 ] final   -5.56 input  -60.55 | X-H torsion
[ 11005 11000 10999 10996 ] final  -28.88 input  -57.11 | X-H torsion

> <Gold.Protein.ActiveResidues>
 VAL166  LYS551  ARG553  GLY616  TRP617  ASP618  TYR619  PRO620  LYS621  CYS622 
 ASP623  PHE694  ASN695  SER759  ASP760  ASP761  ALA762  ILE779  LEU786  VAL792 
 PHE793  MET794  SER795  GLU796  ALA797  LYS798  CYS799  TRP800  GLU811  SER814 

> <Gold.Protein.RotatedAtoms>
  151.3225  135.0822  159.9310 H   0  0  0  0  0  0  0  0  0  0  0  0  # atno 6907 bound_to 6896
  152.5253  133.9624  159.7734 H   0  0  0  0  0  0  0  0  0  0  0  0  # atno 6908 bound_to 6896
  150.9948  133.6061  159.2733 H   0  0  0  0  0  0  0  0  0  0  0  0  # atno 6909 bound_to 6896
  145.9172  139.3701  143.0500 H   0  0  0  0  0  0  0  0  0  0  0  0  # atno 7974 bound_to 7965
  154.4234  140.1127  156.5654 H   0  0  0  0  0  0  0  0  0  0  0  0  # atno 8008 bound_to 7997
  155.6268  140.3495  155.4651 H   0  0  0  0  0  0  0  0  0  0  0  0  # atno 8009 bound_to 7997
  155.9980  140.1193  157.0564 H   0  0  0  0  0  0  0  0  0  0  0  0  # atno 8010 bound_to 7997
  139.9318  143.6263  152.2527 H   0  0  0  0  0  0  0  0  0  0  0  0  # atno 10167 bound_to 10162
  156.1035  130.4183  150.0767 H   0  0  0  0  0  0  0  0  0  0  0  0  # atno 10718 bound_to 10713
  153.4002  135.7004  153.6431 H   0  0  0  0  0  0  0  0  0  0  0  0  # atno 10763 bound_to 10752
  153.4967  135.3661  155.2520 H   0  0  0  0  0  0  0  0  0  0  0  0  # atno 10764 bound_to 10752
  154.8710  135.4102  154.3336 H   0  0  0  0  0  0  0  0  0  0  0  0  # atno 10765 bound_to 10752
  140.9247  133.7376  156.0851 H   0  0  0  0  0  0  0  0  0  0  0  0  # atno 11005 bound_to 11000
  145.8596  140.9483  143.0707 LP  0  0  0  0  0  0  0  0  0  0  0  0  # atno 17320 bound_to 7965
  144.6749  140.0513  143.7478 LP  0  0  0  0  0  0  0  0  0  0  0  0  # atno 17321 bound_to 7965
  139.6776  144.7657  151.1667 LP  0  0  0  0  0  0  0  0  0  0  0  0  # atno 17342 bound_to 10162
  140.7635  143.5772  150.8933 LP  0  0  0  0  0  0  0  0  0  0  0  0  # atno 17343 bound_to 10162
  156.8748  130.9536  151.3605 LP  0  0  0  0  0  0  0  0  0  0  0  0  # atno 17370 bound_to 10713
  157.6209  130.8654  149.9106 LP  0  0  0  0  0  0  0  0  0  0  0  0  # atno 17371 bound_to 10713
  140.7941  134.3584  157.5457 LP  0  0  0  0  0  0  0  0  0  0  0  0  # atno 17394 bound_to 11000
  139.8783  134.9158  156.3140 LP  0  0  0  0  0  0  0  0  0  0  0  0  # atno 17395 bound_to 11000

$$$$
