AV-unprocessed.smi:2784|AV-procd|sdf|10730|dock8
  -GOLD-   2272015163D 1   1.00000     0.00000
 Structure written by MMmdl.
 32 33  0  0  0  0  0  0  0  0  2 V2000
  142.7520  135.1121  153.4649 C   0  0  0  0  0  0  0  0  0  0  0  0
  143.0379  135.9662  152.3687 O   0  0  0  0  0  0  0  0  0  0  0  0
  144.2763  135.6831  151.7324 C   0  0  2  0  0  0  0  0  0  0  0  0
  144.1193  134.4493  150.8388 C   0  0  0  0  0  0  0  0  0  0  0  0
  145.5088  133.8224  150.8085 C   0  0  0  0  0  0  0  0  0  0  0  0
  146.0283  134.0157  152.2325 C   0  0  0  0  0  0  0  0  0  0  0  0
  145.4007  135.3303  152.7340 C   0  0  1  0  0  0  0  0  0  0  0  0
  146.4000  136.3957  152.7785 N   0  0  0  0  0  0  0  0  0  0  0  0
  146.2260  137.5959  153.3505 C   0  0  0  0  0  0  0  0  0  0  0  0
  145.1917  137.9382  153.9239 O   0  0  0  0  0  0  0  0  0  0  0  0
  147.3154  138.3677  153.2182 N   0  0  0  0  0  0  0  0  0  0  0  0
  147.4441  139.6992  153.6760 C   0  0  0  0  0  0  0  0  0  0  0  0
  146.4883  140.6205  153.5668 N   0  3  0  0  0  0  0  0  0  0  0  0
  146.9419  141.7935  154.1174 C   0  0  0  0  0  0  0  0  0  0  0  0
  148.2155  141.5297  154.5612 C   0  0  0  0  0  0  0  0  0  0  0  0
  148.5456  140.2169  154.2906 O   0  0  0  0  0  0  0  0  0  0  0  0
  141.8010  135.4003  153.9126 H   0  0  0  0  0  0  0  0  0  0  0  0
  143.5214  135.1876  154.2342 H   0  0  0  0  0  0  0  0  0  0  0  0
  142.6705  134.0703  153.1539 H   0  0  0  0  0  0  0  0  0  0  0  0
  144.5714  136.5201  151.0956 H   0  0  0  0  0  0  0  0  0  0  0  0
  143.4186  133.7467  151.2923 H   0  0  0  0  0  0  0  0  0  0  0  0
  143.7448  134.6962  149.8449 H   0  0  0  0  0  0  0  0  0  0  0  0
  145.4919  132.7751  150.5056 H   0  0  0  0  0  0  0  0  0  0  0  0
  146.1431  134.3647  150.1061 H   0  0  0  0  0  0  0  0  0  0  0  0
  145.6781  133.1915  152.8556 H   0  0  0  0  0  0  0  0  0  0  0  0
  147.1184  134.0075  152.2767 H   0  0  0  0  0  0  0  0  0  0  0  0
  144.9753  135.1617  153.7251 H   0  0  0  0  0  0  0  0  0  0  0  0
  147.2852  136.1999  152.3342 H   0  0  0  0  0  0  0  0  0  0  0  0
  145.5691  140.5149  153.1559 H   0  0  0  0  0  0  0  0  0  0  0  0
  146.3261  142.6813  154.1391 H   0  0  0  0  0  0  0  0  0  0  0  0
  148.9705  142.1224  155.0570 H   0  0  0  0  0  0  0  0  0  0  0  0
  148.1122  137.9762  152.7382 H   0  0  0  0  0  0  0  0  0  0  0  0
  1  2  1  0  0  0  0
  1 17  1  0  0  0  0
  1 18  1  0  0  0  0
  1 19  1  0  0  0  0
  2  3  1  0  0  0  0
  3  7  1  0  0  0  0
  3  4  1  0  0  0  0
  3 20  1  0  0  0  0
  4  5  1  0  0  0  0
  4 21  1  0  0  0  0
  4 22  1  0  0  0  0
  5  6  1  0  0  0  0
  5 23  1  0  0  0  0
  5 24  1  0  0  0  0
  6  7  1  0  0  0  0
  6 25  1  0  0  0  0
  6 26  1  0  0  0  0
  7  8  1  0  0  0  0
  7 27  1  0  0  0  0
  8 28  1  0  0  0  0
  8  9  1  0  0  0  0
  9 11  1  0  0  0  0
  9 10  2  0  0  0  0
 11 12  1  0  0  0  0
 11 32  1  0  0  0  0
 12 16  1  0  0  0  0
 12 13  2  0  0  0  0
 13 29  1  0  0  0  0
 13 14  1  0  0  0  0
 14 30  1  0  0  0  0
 14 15  2  0  0  0  0
 15 31  1  0  0  0  0
 15 16  1  0  0  0  0
M  CHG  1  13   1
M  END
> <s_m_source_file>
AV-unprocessed.smi

> <i_m_source_file_index>
2784

> <i_lp_mmshare_version>
43012

> <i_f3d_flags>
0

> <s_epik_input>
W0NIM11PW0NAQEhdMVtDSDJdW0NIMl1bQ0gyXVtDQEhdMVtOSF1DKD1PKVtOSF1jMm5bY0hdW2NIXW8y

> <s_epik_cmdline>
J2VwaWtfcHl0aG9uJywgJy1waCcsICc3LjAnLCAnLXRuJywgJzgnLCAnLW1hJywgJzIwMCcsICctbWV0YWxfYmluZGluZycsICctaW1hZScsICc8aW5maWxlLm1hZT4nLCAnLW9tYWUnLCAnPG91dGZpbGUubWFlPic=

> <r_epik_Ionization_Penalty>
6.73843

> <r_epik_Ionization_Penalty_Charging>
6.66704

> <r_epik_Ionization_Penalty_Neutral>
0.0713889

> <r_epik_State_Penalty>
1.94951

> <r_epik_Charging_Adjusted_Penalty>
8.61656

> <i_epik_Tot_Q>
1

> <i_epik_Tot_abs_Q>
1

> <r_epik_Metal_State_Penalty>
1.97013

> <b_epik_Metal_Only>
0

> <s_lp_Force_Field>
OPLS_2005

> <r_lp_Energy>
26.9129

> <b_lp_Chiralities_Consistent>
1

> <s_lp_Variant>
AV-unprocessed.smi:2784-5

> <Gold.Version>
5.8.1

> <Gold.Id.Protein>
6NUR|6NUR_protein|mol2

> <Gold.PLP.Fitness>
36.3864

> <Gold.PLP.PLP>
-23.4984

> <Gold.PLP.part.hbond>
-3.0000

> <Gold.PLP.part.metal>
0.0000

> <Gold.PLP.part.buried>
-5.9661

> <Gold.PLP.part.nonpolar>
-16.1050

> <Gold.PLP.part.repulsive>
0.5151

> <Gold.PLP.ligand.clash>
0.0000

> <Gold.PLP.ligand.torsion>
0.6234

> <Gold.PLP.Chemscore.Hbond>
3.7363

> <Gold.PLP.Chemscore.CHOScore>
0.9733

> <Gold.PLP.Chemscore.Metal>
0.0000

> <Gold.Chemscore.Hbonds>
donor molecule, donor type, donor heavy atom, donor atom, acceptor molecule, acceptor atom, score
      L1  H     8    28       P1  7948  1.00
      L1  H    11    32       P1  7948  0.77
      L1  H    13    29       P1 10175  2.00
      L1  C    15    31       P1  8028  0.65

> <Gold.PLP.Chemscore.Internal.Correction>
0.0059

> <Gold.Rescore>
     Score         DG    S(hbond)    S(metal)    S(lipo)     H(rot)  DE(clash)    DE(int)     intcor
     16.41     -16.98       2.94        0.00      43.42       1.34       0.00       0.56       ----

> <Gold.Chemscore.Fitness>
16.4116

> <Gold.Chemscore.DG>
-16.9757

> <Gold.Chemscore.ZeroCoef>
-5.4800

> <Gold.Chemscore.Hbond>
2.9443

> <Gold.Chemscore.Metal>
0.0000

> <Gold.Chemscore.Lipo>
43.4152

> <Gold.Chemscore.Internal_Hbond>
0.0000

> <Gold.Chemscore.DEClash>
0.0000

> <Gold.Chemscore.DEInternal>
0.5641

> <Gold.Chemscore.Rot>
1.3351

> <Gold.Chemscore.Internal.Correction>
   9.000000E+99

> <Gold.Chemscore.Hbonds>
donor molecule, donor type, donor heavy atom, donor atom, acceptor molecule, acceptor atom, score
      L1  H     8    28       P1  7948  1.00
      L1  H    11    32       P1  7948  0.71
      L1  H    13    29       P1 10175  0.87

> <Gold.Chemscore.Hbond.Weighted>
-9.8338

> <Gold.Chemscore.Metal.Weighted>
-0.0000

> <Gold.Chemscore.Lipo.Weighted>
-5.0796

> <Gold.Chemscore.Internal_Hbond.Weighted>
0.0000

> <Gold.Chemscore.DEClash.Weighted>
0.0000

> <Gold.Chemscore.DEInternal.Weighted>
0.5641

> <Gold.Chemscore.Rot.Weighted>
3.4177

> <Gold.Chemscore.Internal.Correction.Weighted>
   9.000000E+99

> <Gold.Protein.RotatedTorsions>
[ 6907 6896 6895 6894 ] final   23.36 input  -60.11 | X-H torsion
[ 7974 7965 7964 7962 ] final -108.35 input  175.53 | X-H torsion
[ 8008 7997 7996 7995 ] final   55.11 input   59.86 | X-H torsion
[ 10167 10162 10161 10158 ] final   78.20 input  -65.29 | X-H torsion
[ 10718 10713 10712 10709 ] final  105.42 input   66.30 | X-H torsion
[ 10763 10752 10751 10750 ] final   33.71 input  -60.55 | X-H torsion
[ 11005 11000 10999 10996 ] final -163.31 input  -57.11 | X-H torsion

> <Gold.Protein.ActiveResidues>
 VAL166  LYS551  ARG553  GLY616  TRP617  ASP618  TYR619  PRO620  LYS621  CYS622 
 ASP623  PHE694  ASN695  SER759  ASP760  ASP761  ALA762  ILE779  LEU786  VAL792 
 PHE793  MET794  SER795  GLU796  ALA797  LYS798  CYS799  TRP800  GLU811  SER814 

> <Gold.Protein.RotatedAtoms>
  151.9411  135.0213  160.0535 H   0  0  0  0  0  0  0  0  0  0  0  0  # atno 6907 bound_to 6896
  152.2035  133.4854  159.5080 H   0  0  0  0  0  0  0  0  0  0  0  0  # atno 6908 bound_to 6896
  150.6960  134.1476  159.4171 H   0  0  0  0  0  0  0  0  0  0  0  0  # atno 6909 bound_to 6896
  145.1940  140.9027  143.3408 H   0  0  0  0  0  0  0  0  0  0  0  0  # atno 7974 bound_to 7965
  155.4958  140.3473  155.4362 H   0  0  0  0  0  0  0  0  0  0  0  0  # atno 8008 bound_to 7997
  156.0947  140.1419  156.9575 H   0  0  0  0  0  0  0  0  0  0  0  0  # atno 8009 bound_to 7997
  154.4656  140.0919  156.6988 H   0  0  0  0  0  0  0  0  0  0  0  0  # atno 8010 bound_to 7997
  139.9734  144.5878  150.7965 H   0  0  0  0  0  0  0  0  0  0  0  0  # atno 10167 bound_to 10162
  157.6706  131.0827  150.5855 H   0  0  0  0  0  0  0  0  0  0  0  0  # atno 10718 bound_to 10713
  153.0198  135.6380  154.1555 H   0  0  0  0  0  0  0  0  0  0  0  0  # atno 10763 bound_to 10752
  154.1290  135.2841  155.3191 H   0  0  0  0  0  0  0  0  0  0  0  0  # atno 10764 bound_to 10752
  154.6208  135.5525  153.7635 H   0  0  0  0  0  0  0  0  0  0  0  0  # atno 10765 bound_to 10752
  140.5995  134.4962  157.5203 H   0  0  0  0  0  0  0  0  0  0  0  0  # atno 11005 bound_to 11000
  145.0013  139.3596  143.6166 LP  0  0  0  0  0  0  0  0  0  0  0  0  # atno 17320 bound_to 7965
  146.3431  139.9237  142.8763 LP  0  0  0  0  0  0  0  0  0  0  0  0  # atno 17321 bound_to 7965
  140.7514  143.2972  151.3174 LP  0  0  0  0  0  0  0  0  0  0  0  0  # atno 17342 bound_to 10162
  139.6464  144.0444  152.2593 LP  0  0  0  0  0  0  0  0  0  0  0  0  # atno 17343 bound_to 10162
  156.6155  130.4391  149.5842 LP  0  0  0  0  0  0  0  0  0  0  0  0  # atno 17370 bound_to 10713
  156.2397  130.6843  151.1543 LP  0  0  0  0  0  0  0  0  0  0  0  0  # atno 17371 bound_to 10713
  139.9239  134.8095  156.1128 LP  0  0  0  0  0  0  0  0  0  0  0  0  # atno 17394 bound_to 11000
  141.0882  133.6725  156.2482 LP  0  0  0  0  0  0  0  0  0  0  0  0  # atno 17395 bound_to 11000

$$$$
