AV-unprocessed.smi:694|AV-procd|sdf|3376|dock5
  -GOLD-   22720 0353D 1   1.00000     0.00000
 Structure written by MMmdl.
 43 44  0  0  0  0  0  0  0  0  2 V2000
  149.9029  128.3120  154.5838 C   0  0  0  0  0  0  0  0  0  0  0  0
  148.8882  129.1958  154.0206 N   0  0  0  0  0  0  0  0  0  0  0  0
  147.7394  128.6389  153.3182 C   0  0  0  0  0  0  0  0  0  0  0  0
  149.1010  130.5916  154.0183 C   0  0  0  0  0  0  0  0  0  0  0  0
  149.9899  131.2429  154.9077 C   0  0  0  0  0  0  0  0  0  0  0  0
  150.1428  132.6432  154.8458 C   0  0  0  0  0  0  0  0  0  0  0  0
  149.4134  133.3917  153.8984 C   0  0  0  0  0  0  0  0  0  0  0  0
  149.5994  134.8027  153.8944 N   0  0  0  0  0  0  0  0  0  0  0  0
  150.4230  135.5566  154.6444 C   0  0  0  0  0  0  0  0  0  0  0  0
  151.1440  135.1434  155.5515 O   0  0  0  0  0  0  0  0  0  0  0  0
  150.3608  136.8459  154.2828 N   0  0  0  0  0  0  0  0  0  0  0  0
  151.1406  137.9230  154.8845 C   0  0  0  0  0  0  0  0  0  0  0  0
  150.6110  139.3161  154.4895 C   0  0  2  0  0  0  0  0  0  0  0  0
  150.9087  140.4147  155.5238 C   0  0  0  0  0  0  0  0  0  0  0  0
  149.7496  141.4216  155.4409 C   0  0  0  0  0  0  0  0  0  0  0  0
  148.7639  140.8624  154.4098 C   0  0  0  0  0  0  0  0  0  0  0  0
  149.0881  139.3708  154.3265 C   0  0  1  0  0  0  0  0  0  0  0  0
  148.6601  138.8204  153.0978 O   0  0  0  0  0  0  0  0  0  0  0  0
  148.5395  132.6941  153.0300 C   0  0  0  0  0  0  0  0  0  0  0  0
  148.4231  131.3518  153.1242 N   0  3  0  0  0  0  0  0  0  0  0  0
  150.0669  128.5397  155.6375 H   0  0  0  0  0  0  0  0  0  0  0  0
  150.8480  128.4258  154.0520 H   0  0  0  0  0  0  0  0  0  0  0  0
  149.6029  127.2662  154.5128 H   0  0  0  0  0  0  0  0  0  0  0  0
  147.7607  128.9194  152.2647 H   0  0  0  0  0  0  0  0  0  0  0  0
  146.8093  129.0002  153.7582 H   0  0  0  0  0  0  0  0  0  0  0  0
  147.7308  127.5501  153.3727 H   0  0  0  0  0  0  0  0  0  0  0  0
  150.5592  130.6912  155.6407 H   0  0  0  0  0  0  0  0  0  0  0  0
  150.8191  133.1368  155.5285 H   0  0  0  0  0  0  0  0  0  0  0  0
  149.0447  135.3051  153.2168 H   0  0  0  0  0  0  0  0  0  0  0  0
  149.7383  137.1023  153.5304 H   0  0  0  0  0  0  0  0  0  0  0  0
  151.1488  137.8144  155.9704 H   0  0  0  0  0  0  0  0  0  0  0  0
  152.1756  137.8109  154.5600 H   0  0  0  0  0  0  0  0  0  0  0  0
  151.0644  139.6187  153.5434 H   0  0  0  0  0  0  0  0  0  0  0  0
  150.9465  139.9929  156.5290 H   0  0  0  0  0  0  0  0  0  0  0  0
  151.8732  140.8878  155.3359 H   0  0  0  0  0  0  0  0  0  0  0  0
  149.2673  141.5110  156.4150 H   0  0  0  0  0  0  0  0  0  0  0  0
  150.0947  142.4163  155.1566 H   0  0  0  0  0  0  0  0  0  0  0  0
  147.7235  141.0510  154.6771 H   0  0  0  0  0  0  0  0  0  0  0  0
  148.9475  141.3388  153.4453 H   0  0  0  0  0  0  0  0  0  0  0  0
  148.6017  138.8444  155.1492 H   0  0  0  0  0  0  0  0  0  0  0  0
  148.7434  139.4804  152.4267 H   0  0  0  0  0  0  0  0  0  0  0  0
  147.9204  133.1413  152.2679 H   0  0  0  0  0  0  0  0  0  0  0  0
  147.7823  130.8825  152.4841 H   0  0  0  0  0  0  0  0  0  0  0  0
  1  2  1  0  0  0  0
  1 21  1  0  0  0  0
  1 22  1  0  0  0  0
  1 23  1  0  0  0  0
  2  3  1  0  0  0  0
  2  4  1  0  0  0  0
  3 24  1  0  0  0  0
  3 25  1  0  0  0  0
  3 26  1  0  0  0  0
  4 20  1  0  0  0  0
  4  5  2  0  0  0  0
  5  6  1  0  0  0  0
  5 27  1  0  0  0  0
  6  7  2  0  0  0  0
  6 28  1  0  0  0  0
  7  8  1  0  0  0  0
  7 19  1  0  0  0  0
  8  9  1  0  0  0  0
  8 29  1  0  0  0  0
  9 10  2  0  0  0  0
  9 11  1  0  0  0  0
 11 12  1  0  0  0  0
 11 30  1  0  0  0  0
 12 13  1  0  0  0  0
 12 31  1  0  0  0  0
 12 32  1  0  0  0  0
 13 17  1  0  0  0  0
 13 14  1  0  0  0  0
 13 33  1  0  0  0  0
 14 15  1  0  0  0  0
 14 34  1  0  0  0  0
 14 35  1  0  0  0  0
 15 16  1  0  0  0  0
 15 36  1  0  0  0  0
 15 37  1  0  0  0  0
 16 17  1  0  0  0  0
 16 38  1  0  0  0  0
 16 39  1  0  0  0  0
 17 18  1  0  0  0  0
 17 40  1  0  0  0  0
 18 41  1  0  0  0  0
 19 20  2  0  0  0  0
 19 42  1  0  0  0  0
 20 43  1  0  0  0  0
M  CHG  1  20   1
M  END
> <s_m_source_file>
AV-unprocessed.smi

> <i_m_source_file_index>
694

> <i_lp_mmshare_version>
43012

> <i_f3d_flags>
0

> <s_epik_input>
W0NIM11OKFtDSDNdKWMxW2NIXVtjSF1jKFtjSF1uMSlbTkhdQyg9TylbTkhdW0NIMl1bQ0BASF0yW0NIMl1bQ0gyXVtDSDJdW0NASF0yW09IXQ==

> <s_epik_cmdline>
J2VwaWtfcHl0aG9uJywgJy1waCcsICc3LjAnLCAnLXRuJywgJzgnLCAnLW1hJywgJzIwMCcsICctbWV0YWxfYmluZGluZycsICctaW1hZScsICc8aW5maWxlLm1hZT4nLCAnLW9tYWUnLCAnPG91dGZpbGUubWFlPic=

> <r_lp_tautomer_probability>
0.999994

> <r_epik_Ionization_Penalty>
0.266135

> <r_epik_Ionization_Penalty_Charging>
0.266113

> <r_epik_Ionization_Penalty_Neutral>
2.14137e-05

> <r_epik_State_Penalty>
0.258052

> <r_epik_Charging_Adjusted_Penalty>
0.524165

> <i_epik_Tot_Q>
1

> <i_epik_Tot_abs_Q>
1

> <r_epik_Metal_State_Penalty>
0.544313

> <b_epik_Metal_Only>
0

> <s_lp_Force_Field>
OPLS_2005

> <r_lp_Energy>
32.5934

> <b_lp_Chiralities_Consistent>
1

> <s_lp_Variant>
AV-unprocessed.smi:694-1

> <Gold.Version>
5.8.1

> <Gold.Id.Protein>
6NUR|6NUR_protein|mol2

> <Gold.PLP.Fitness>
50.2138

> <Gold.PLP.PLP>
-40.1959

> <Gold.PLP.part.hbond>
-7.4389

> <Gold.PLP.part.metal>
0.0000

> <Gold.PLP.part.buried>
-1.3597

> <Gold.PLP.part.nonpolar>
-32.7554

> <Gold.PLP.part.repulsive>
0.1707

> <Gold.PLP.ligand.clash>
0.0000

> <Gold.PLP.ligand.torsion>
0.5399

> <Gold.PLP.Chemscore.Hbond>
3.6910

> <Gold.PLP.Chemscore.CHOScore>
0.0000

> <Gold.PLP.Chemscore.Metal>
0.0000

> <Gold.Chemscore.Hbonds>
donor molecule, donor type, donor heavy atom, donor atom, acceptor molecule, acceptor atom, score
      L1  H     8    29       P1  7948  0.96
      L1  H    11    30       P1  7948  0.74
      L1  H    18    41       P1  7957  0.93
      P1  H 10752 10765       L1    10  0.96

> <Gold.PLP.Chemscore.Internal.Correction>
0.0247

> <Gold.Rescore>
     Score         DG    S(hbond)    S(metal)    S(lipo)     H(rot)  DE(clash)    DE(int)     intcor
     13.92     -18.25       2.60        0.00      73.05       1.75       1.05       3.28       ----

> <Gold.Chemscore.Fitness>
13.9237

> <Gold.Chemscore.DG>
-18.2513

> <Gold.Chemscore.ZeroCoef>
-5.4800

> <Gold.Chemscore.Hbond>
2.6048

> <Gold.Chemscore.Metal>
0.0000

> <Gold.Chemscore.Lipo>
73.0531

> <Gold.Chemscore.Internal_Hbond>
0.0000

> <Gold.Chemscore.DEClash>
1.0471

> <Gold.Chemscore.DEInternal>
3.2804

> <Gold.Chemscore.Rot>
1.7485

> <Gold.Chemscore.Internal.Correction>
   9.000000E+99

> <Gold.Chemscore.Hbonds>
donor molecule, donor type, donor heavy atom, donor atom, acceptor molecule, acceptor atom, score
      L1  H     8    29       P1  7948  0.32
      L1  H    11    30       P1  7948  0.46
      L1  H    18    41       P1  7957  0.90
      P1  H 10752 10765       L1    10  0.39

> <Gold.Chemscore.Hbond.Weighted>
-8.7002

> <Gold.Chemscore.Metal.Weighted>
-0.0000

> <Gold.Chemscore.Lipo.Weighted>
-8.5472

> <Gold.Chemscore.Internal_Hbond.Weighted>
0.0000

> <Gold.Chemscore.DEClash.Weighted>
1.0471

> <Gold.Chemscore.DEInternal.Weighted>
3.2804

> <Gold.Chemscore.Rot.Weighted>
4.4762

> <Gold.Chemscore.Internal.Correction.Weighted>
   9.000000E+99

> <Gold.Protein.RotatedTorsions>
[ 6907 6896 6895 6894 ] final   71.65 input  -60.11 | X-H torsion
[ 7974 7965 7964 7962 ] final   89.34 input  175.53 | X-H torsion
[ 8008 7997 7996 7995 ] final  133.31 input   59.86 | X-H torsion
[ 10167 10162 10161 10158 ] final -111.01 input  -65.29 | X-H torsion
[ 10718 10713 10712 10709 ] final   15.14 input   66.30 | X-H torsion
[ 10763 10752 10751 10750 ] final -161.62 input  -60.55 | X-H torsion
[ 11005 11000 10999 10996 ] final -160.87 input  -57.11 | X-H torsion

> <Gold.Protein.ActiveResidues>
 VAL166  LYS551  ARG553  GLY616  TRP617  ASP618  TYR619  PRO620  LYS621  CYS622 
 ASP623  PHE694  ASN695  SER759  ASP760  ASP761  ALA762  ILE779  LEU786  VAL792 
 PHE793  MET794  SER795  GLU796  ALA797  LYS798  CYS799  TRP800  GLU811  SER814 

> <Gold.Protein.RotatedAtoms>
  152.4822  134.4688  159.9628 H   0  0  0  0  0  0  0  0  0  0  0  0  # atno 6907 bound_to 6896
  151.4692  133.3567  159.2828 H   0  0  0  0  0  0  0  0  0  0  0  0  # atno 6908 bound_to 6896
  150.8904  134.8332  159.7350 H   0  0  0  0  0  0  0  0  0  0  0  0  # atno 6909 bound_to 6896
  145.5336  139.2284  143.2605 H   0  0  0  0  0  0  0  0  0  0  0  0  # atno 7974 bound_to 7965
  156.2991  140.2524  156.3232 H   0  0  0  0  0  0  0  0  0  0  0  0  # atno 8008 bound_to 7997
  154.9215  140.0400  157.2019 H   0  0  0  0  0  0  0  0  0  0  0  0  # atno 8009 bound_to 7997
  154.8306  140.2875  155.5729 H   0  0  0  0  0  0  0  0  0  0  0  0  # atno 8010 bound_to 7997
  140.1382  143.4301  152.1580 H   0  0  0  0  0  0  0  0  0  0  0  0  # atno 10167 bound_to 10162
  157.0493  130.6263  149.5765 H   0  0  0  0  0  0  0  0  0  0  0  0  # atno 10718 bound_to 10713
  154.7287  135.3041  154.8928 H   0  0  0  0  0  0  0  0  0  0  0  0  # atno 10763 bound_to 10752
  153.9777  135.6734  153.4753 H   0  0  0  0  0  0  0  0  0  0  0  0  # atno 10764 bound_to 10752
  153.0898  135.4965  154.8588 H   0  0  0  0  0  0  0  0  0  0  0  0  # atno 10765 bound_to 10752
  140.6267  134.4694  157.5227 H   0  0  0  0  0  0  0  0  0  0  0  0  # atno 11005 bound_to 11000
  146.2027  140.6154  142.9095 LP  0  0  0  0  0  0  0  0  0  0  0  0  # atno 17320 bound_to 7965
  144.7613  140.5428  143.6734 LP  0  0  0  0  0  0  0  0  0  0  0  0  # atno 17321 bound_to 7965
  139.5485  144.7318  151.4508 LP  0  0  0  0  0  0  0  0  0  0  0  0  # atno 17342 bound_to 10162
  140.6776  143.8155  150.7079 LP  0  0  0  0  0  0  0  0  0  0  0  0  # atno 17343 bound_to 10162
  156.0013  130.5092  150.7672 LP  0  0  0  0  0  0  0  0  0  0  0  0  # atno 17370 bound_to 10713
  157.5043  131.0921  151.0276 LP  0  0  0  0  0  0  0  0  0  0  0  0  # atno 17371 bound_to 10713
  139.9132  134.8301  156.1455 LP  0  0  0  0  0  0  0  0  0  0  0  0  # atno 17394 bound_to 11000
  141.0704  133.6799  156.2130 LP  0  0  0  0  0  0  0  0  0  0  0  0  # atno 17395 bound_to 11000

$$$$
