AV-unprocessed.smi:1116|AV-procd|sdf|4807|dock8
  -GOLD-   22720 3353D 1   1.00000     0.00000
 Structure written by MMmdl.
 36 37  0  0  0  0  0  0  0  0  1 V2000
  152.9483  142.9219  162.2464 C   0  0  0  0  0  0  0  0  0  0  0  0
  152.4185  143.3846  160.9325 C   0  0  0  0  0  0  0  0  0  0  0  0
  152.1618  142.5668  159.9082 N   0  0  0  0  0  0  0  0  0  0  0  0
  151.6785  143.2456  158.7849 C   0  0  0  0  0  0  0  0  0  0  0  0
  151.3463  142.4877  157.5355 C   0  0  0  0  0  0  0  0  0  0  0  0
  151.7437  141.0051  157.6350 C   0  0  0  0  0  0  0  0  0  0  0  0
  150.8988  140.1573  156.8016 N   0  0  0  0  0  0  0  0  0  0  0  0
  151.2392  139.6677  155.5996 C   0  0  0  0  0  0  0  0  0  0  0  0
  152.3260  139.8856  155.0646 O   0  0  0  0  0  0  0  0  0  0  0  0
  150.1883  138.8075  154.8927 C   0  0  0  0  0  0  0  0  0  0  0  0
  148.7892  139.4525  154.9073 C   0  0  0  0  0  0  0  0  0  0  0  0
  147.6993  138.5478  154.2994 C   0  0  2  0  0  0  0  0  0  0  0  0
  147.8695  138.3417  152.8710 N   0  0  0  0  0  0  0  0  0  0  0  0
  146.8181  138.7727  152.1615 C   0  0  0  0  0  0  0  0  0  0  0  0
  146.7001  138.7170  150.9398 O   0  0  0  0  0  0  0  0  0  0  0  0
  145.9210  139.2746  153.0168 N   0  0  0  0  0  0  0  0  0  0  0  0
  146.3305  139.2051  154.2824 C   0  0  0  0  0  0  0  0  0  0  0  0
  145.7267  139.5989  155.2784 O   0  0  0  0  0  0  0  0  0  0  0  0
  151.5652  144.5999  158.9790 C   0  0  0  0  0  0  0  0  0  0  0  0
  152.0685  145.0719  160.5786 S   0  0  0  0  0  0  0  0  0  0  0  0
  153.2085  141.8638  162.2057 H   0  0  0  0  0  0  0  0  0  0  0  0
  152.1970  143.0685  163.0227 H   0  0  0  0  0  0  0  0  0  0  0  0
  153.8402  143.4908  162.5095 H   0  0  0  0  0  0  0  0  0  0  0  0
  150.2791  142.5719  157.3270 H   0  0  0  0  0  0  0  0  0  0  0  0
  151.8530  142.9414  156.6828 H   0  0  0  0  0  0  0  0  0  0  0  0
  152.7743  140.8767  157.3032 H   0  0  0  0  0  0  0  0  0  0  0  0
  151.7064  140.6657  158.6717 H   0  0  0  0  0  0  0  0  0  0  0  0
  149.9838  139.9310  157.1636 H   0  0  0  0  0  0  0  0  0  0  0  0
  150.5033  138.6225  153.8647 H   0  0  0  0  0  0  0  0  0  0  0  0
  150.1538  137.8363  155.3872 H   0  0  0  0  0  0  0  0  0  0  0  0
  148.5111  139.6927  155.9348 H   0  0  0  0  0  0  0  0  0  0  0  0
  148.8221  140.4035  154.3721 H   0  0  0  0  0  0  0  0  0  0  0  0
  147.6466  137.5866  154.8123 H   0  0  0  0  0  0  0  0  0  0  0  0
  148.6909  137.9112  152.4716 H   0  0  0  0  0  0  0  0  0  0  0  0
  145.0365  139.6704  152.7335 H   0  0  0  0  0  0  0  0  0  0  0  0
  151.2194  145.3465  158.2797 H   0  0  0  0  0  0  0  0  0  0  0  0
  1  2  1  0  0  0  0
  1 21  1  0  0  0  0
  1 22  1  0  0  0  0
  1 23  1  0  0  0  0
  2 20  1  0  0  0  0
  2  3  2  0  0  0  0
  3  4  1  0  0  0  0
  4  5  1  0  0  0  0
  4 19  2  0  0  0  0
  5  6  1  0  0  0  0
  5 24  1  0  0  0  0
  5 25  1  0  0  0  0
  6  7  1  0  0  0  0
  6 26  1  0  0  0  0
  6 27  1  0  0  0  0
  7  8  1  0  0  0  0
  7 28  1  0  0  0  0
  8  9  2  0  0  0  0
  8 10  1  0  0  0  0
 10 11  1  0  0  0  0
 10 29  1  0  0  0  0
 10 30  1  0  0  0  0
 11 12  1  0  0  0  0
 11 31  1  0  0  0  0
 11 32  1  0  0  0  0
 12 17  1  0  0  0  0
 12 13  1  0  0  0  0
 12 33  1  0  0  0  0
 13 14  1  0  0  0  0
 13 34  1  0  0  0  0
 14 15  2  0  0  0  0
 14 16  1  0  0  0  0
 16 17  1  0  0  0  0
 16 35  1  0  0  0  0
 17 18  2  0  0  0  0
 19 20  1  0  0  0  0
 19 36  1  0  0  0  0
M  END
> <s_m_source_file>
AV-unprocessed.smi

> <i_m_source_file_index>
1116

> <i_lp_mmshare_version>
43012

> <i_f3d_flags>
0

> <s_epik_input>
W0NIM11jMW5jKFtjSF1zMSlbQ0gyXVtDSDJdW05IXUMoPU8pW0NIMl1bQ0gyXVtDQEBIXTJbTkhdQyg9TylbTkhdQzI9Tw==

> <s_epik_cmdline>
J2VwaWtfcHl0aG9uJywgJy1waCcsICc3LjAnLCAnLXRuJywgJzgnLCAnLW1hJywgJzIwMCcsICctbWV0YWxfYmluZGluZycsICctaW1hZScsICc8aW5maWxlLm1hZT4nLCAnLW9tYWUnLCAnPG91dGZpbGUubWFlPic=

> <r_lp_tautomer_probability>
1

> <r_epik_Ionization_Penalty>
0.00889251

> <r_epik_Ionization_Penalty_Charging>
0

> <r_epik_Ionization_Penalty_Neutral>
0.00889251

> <r_epik_State_Penalty>
0.00583796

> <r_epik_Charging_Adjusted_Penalty>
0.00583796

> <i_epik_Tot_Q>
0

> <i_epik_Tot_abs_Q>
0

> <r_epik_Metal_State_Penalty>
0.408839

> <b_epik_Metal_Only>
0

> <s_lp_Force_Field>
OPLS_2005

> <r_lp_Energy>
12.4074

> <b_lp_Chiralities_Consistent>
1

> <s_lp_Variant>
AV-unprocessed.smi:1116-1

> <Gold.Version>
5.8.1

> <Gold.Id.Protein>
6NUR|6NUR_protein|mol2

> <Gold.PLP.Fitness>
51.3286

> <Gold.PLP.PLP>
-41.6716

> <Gold.PLP.part.hbond>
-5.0123

> <Gold.PLP.part.metal>
0.0000

> <Gold.PLP.part.buried>
-6.8497

> <Gold.PLP.part.nonpolar>
-30.9776

> <Gold.PLP.part.repulsive>
0.9537

> <Gold.PLP.ligand.clash>
0.0000

> <Gold.PLP.ligand.torsion>
0.5000

> <Gold.PLP.Chemscore.Hbond>
3.5287

> <Gold.PLP.Chemscore.CHOScore>
0.0000

> <Gold.PLP.Chemscore.Metal>
0.0000

> <Gold.Chemscore.Hbonds>
donor molecule, donor type, donor heavy atom, donor atom, acceptor molecule, acceptor atom, score
      L1  H    13    34       P1  7948  0.64
      L1  H    16    35       P1 10175  1.00
      P1  H  7954  7966       L1    15  0.91
      P1  H  7989  7998       L1     9  0.62
      P1  H  7997  8009       L1     9  0.34

> <Gold.PLP.Chemscore.Internal.Correction>
0.0708

> <Gold.Rescore>
     Score         DG    S(hbond)    S(metal)    S(lipo)     H(rot)  DE(clash)    DE(int)     intcor
     18.75     -19.33       3.32        0.00      85.61       2.83       0.15       0.43       ----

> <Gold.Chemscore.Fitness>
18.7496

> <Gold.Chemscore.DG>
-19.3280

> <Gold.Chemscore.ZeroCoef>
-5.4800

> <Gold.Chemscore.Hbond>
3.3180

> <Gold.Chemscore.Metal>
0.0000

> <Gold.Chemscore.Lipo>
85.6136

> <Gold.Chemscore.Internal_Hbond>
0.0000

> <Gold.Chemscore.DEClash>
0.1458

> <Gold.Chemscore.DEInternal>
0.4326

> <Gold.Chemscore.Rot>
2.8324

> <Gold.Chemscore.Internal.Correction>
   9.000000E+99

> <Gold.Chemscore.Hbonds>
donor molecule, donor type, donor heavy atom, donor atom, acceptor molecule, acceptor atom, score
      L1  H    13    34       P1  7948  0.64
      L1  H    16    35       P1 10175  0.98
      P1  H  7954  7966       L1    15  0.84
      P1  H  7989  7998       L1     9  0.12
      P1  H  7997  8009       L1     9  0.35

> <Gold.Chemscore.Hbond.Weighted>
-11.0821

> <Gold.Chemscore.Metal.Weighted>
-0.0000

> <Gold.Chemscore.Lipo.Weighted>
-10.0168

> <Gold.Chemscore.Internal_Hbond.Weighted>
0.0000

> <Gold.Chemscore.DEClash.Weighted>
0.1458

> <Gold.Chemscore.DEInternal.Weighted>
0.4326

> <Gold.Chemscore.Rot.Weighted>
7.2510

> <Gold.Chemscore.Internal.Correction.Weighted>
   9.000000E+99

> <Gold.Protein.RotatedTorsions>
[ 6907 6896 6895 6894 ] final   77.45 input  -60.11 | X-H torsion
[ 7974 7965 7964 7962 ] final  -51.74 input  175.53 | X-H torsion
[ 8008 7997 7996 7995 ] final -138.56 input   59.86 | X-H torsion
[ 10167 10162 10161 10158 ] final  -75.74 input  -65.29 | X-H torsion
[ 10718 10713 10712 10709 ] final -170.68 input   66.30 | X-H torsion
[ 10763 10752 10751 10750 ] final -174.06 input  -60.55 | X-H torsion
[ 11005 11000 10999 10996 ] final -152.73 input  -57.11 | X-H torsion

> <Gold.Protein.ActiveResidues>
 VAL166  LYS551  ARG553  GLY616  TRP617  ASP618  TYR619  PRO620  LYS621  CYS622 
 ASP623  PHE694  ASN695  SER759  ASP760  ASP761  ALA762  ILE779  LEU786  VAL792 
 PHE793  MET794  SER795  GLU796  ALA797  LYS798  CYS799  TRP800  GLU811  SER814 

> <Gold.Protein.RotatedAtoms>
  152.5118  134.3815  159.9352 H   0  0  0  0  0  0  0  0  0  0  0  0  # atno 6907 bound_to 6896
  151.3772  133.3827  159.2714 H   0  0  0  0  0  0  0  0  0  0  0  0  # atno 6908 bound_to 6896
  150.9532  134.8950  159.7743 H   0  0  0  0  0  0  0  0  0  0  0  0  # atno 6909 bound_to 6896
  145.9156  140.7877  142.9673 H   0  0  0  0  0  0  0  0  0  0  0  0  # atno 7974 bound_to 7965
  155.4304  140.0524  157.3019 H   0  0  0  0  0  0  0  0  0  0  0  0  # atno 8008 bound_to 7997
  154.4862  140.2102  155.9608 H   0  0  0  0  0  0  0  0  0  0  0  0  # atno 8009 bound_to 7997
  156.1278  140.3177  155.8308 H   0  0  0  0  0  0  0  0  0  0  0  0  # atno 8010 bound_to 7997
  140.4916  143.2379  151.7897 H   0  0  0  0  0  0  0  0  0  0  0  0  # atno 10167 bound_to 10162
  156.7297  130.9301  151.3103 H   0  0  0  0  0  0  0  0  0  0  0  0  # atno 10718 bound_to 10713
  154.6006  135.2854  155.0539 H   0  0  0  0  0  0  0  0  0  0  0  0  # atno 10763 bound_to 10752
  154.1805  135.6457  153.5037 H   0  0  0  0  0  0  0  0  0  0  0  0  # atno 10764 bound_to 10752
  153.0155  135.5422  154.6724 H   0  0  0  0  0  0  0  0  0  0  0  0  # atno 10765 bound_to 10752
  140.7158  134.3782  157.5191 H   0  0  0  0  0  0  0  0  0  0  0  0  # atno 11005 bound_to 11000
  144.6747  140.1895  143.7398 LP  0  0  0  0  0  0  0  0  0  0  0  0  # atno 17320 bound_to 7965
  145.8615  139.2225  143.1714 LP  0  0  0  0  0  0  0  0  0  0  0  0  # atno 17321 bound_to 7965
  139.4852  144.4641  151.9505 LP  0  0  0  0  0  0  0  0  0  0  0  0  # atno 17342 bound_to 10162
  140.3728  144.2834  150.5918 LP  0  0  0  0  0  0  0  0  0  0  0  0  # atno 17343 bound_to 10162
  157.6864  130.9189  150.0397 LP  0  0  0  0  0  0  0  0  0  0  0  0  # atno 17370 bound_to 10713
  156.1537  130.3643  149.9400 LP  0  0  0  0  0  0  0  0  0  0  0  0  # atno 17371 bound_to 10713
  139.8860  134.8921  156.2609 LP  0  0  0  0  0  0  0  0  0  0  0  0  # atno 17394 bound_to 11000
  141.0046  133.7131  156.1014 LP  0  0  0  0  0  0  0  0  0  0  0  0  # atno 17395 bound_to 11000

$$$$
