AV-unprocessed.smi:3071|AV-procd|sdf|11715|dock9
  -GOLD-   2272017113D 1   1.00000     0.00000
 Structure written by MMmdl.
 29 30  0  0  0  0  0  0  0  0  3 V2000
  151.4479  145.6821  159.9543 C   0  0  0  0  0  0  0  0  0  0  0  0
  152.0124  144.4428  160.5711 C   0  0  0  0  0  0  0  0  0  0  0  0
  152.1730  144.2320  161.8826 N   0  3  0  0  0  0  0  0  0  0  0  0
  152.7228  142.9989  162.1039 C   0  0  0  0  0  0  0  0  0  0  0  0
  152.9059  142.4301  160.8708 C   0  0  0  0  0  0  0  0  0  0  0  0
  152.4569  143.3390  159.9457 N   0  0  0  0  0  0  0  0  0  0  0  0
  152.4531  143.1675  158.4856 C   0  0  0  0  0  0  0  0  0  0  0  0
  151.1049  142.6534  157.9455 C   0  0  2  0  0  0  0  0  0  0  0  0
  150.7900  141.1900  158.2713 C   0  0  0  0  0  0  0  0  0  0  0  0
  149.7867  140.8127  157.1882 C   0  0  0  0  0  0  0  0  0  0  0  0
  150.2813  141.5838  155.9619 C   0  0  0  0  0  0  0  0  0  0  0  0
  151.0237  142.7540  156.4740 N   0  3  0  0  0  0  0  0  0  0  0  0
  151.1366  146.3634  160.7469 H   0  0  0  0  0  0  0  0  0  0  0  0
  150.5891  145.4126  159.3405 H   0  0  0  0  0  0  0  0  0  0  0  0
  152.2187  146.1519  159.3430 H   0  0  0  0  0  0  0  0  0  0  0  0
  152.9377  142.6290  163.0961 H   0  0  0  0  0  0  0  0  0  0  0  0
  153.3111  141.4679  160.5919 H   0  0  0  0  0  0  0  0  0  0  0  0
  152.7209  144.1182  158.0232 H   0  0  0  0  0  0  0  0  0  0  0  0
  153.2515  142.4664  158.2377 H   0  0  0  0  0  0  0  0  0  0  0  0
  150.2964  143.2680  158.3434 H   0  0  0  0  0  0  0  0  0  0  0  0
  151.6859  140.5750  158.1725 H   0  0  0  0  0  0  0  0  0  0  0  0
  150.3958  141.0537  159.2789 H   0  0  0  0  0  0  0  0  0  0  0  0
  149.7288  139.7372  157.0176 H   0  0  0  0  0  0  0  0  0  0  0  0
  148.7921  141.1617  157.4700 H   0  0  0  0  0  0  0  0  0  0  0  0
  150.9683  140.9695  155.3786 H   0  0  0  0  0  0  0  0  0  0  0  0
  149.4631  141.8869  155.3079 H   0  0  0  0  0  0  0  0  0  0  0  0
  150.5603  143.6122  156.2105 H   0  0  0  0  0  0  0  0  0  0  0  0
  151.9544  142.7383  156.0810 H   0  0  0  0  0  0  0  0  0  0  0  0
  151.9245  144.8944  162.6070 H   0  0  0  0  0  0  0  0  0  0  0  0
  1  2  1  0  0  0  0
  1 13  1  0  0  0  0
  1 14  1  0  0  0  0
  1 15  1  0  0  0  0
  2  6  1  0  0  0  0
  2  3  2  0  0  0  0
  3  4  1  0  0  0  0
  3 29  1  0  0  0  0
  4  5  2  0  0  0  0
  4 16  1  0  0  0  0
  5  6  1  0  0  0  0
  5 17  1  0  0  0  0
  6  7  1  0  0  0  0
  7  8  1  0  0  0  0
  7 18  1  0  0  0  0
  7 19  1  0  0  0  0
  8 12  1  0  0  0  0
  8  9  1  0  0  0  0
  8 20  1  0  0  0  0
  9 10  1  0  0  0  0
  9 21  1  0  0  0  0
  9 22  1  0  0  0  0
 10 11  1  0  0  0  0
 10 23  1  0  0  0  0
 10 24  1  0  0  0  0
 11 12  1  0  0  0  0
 11 25  1  0  0  0  0
 11 26  1  0  0  0  0
 12 27  1  0  0  0  0
 12 28  1  0  0  0  0
M  CHG  1   3   1
M  CHG  1  12   1
M  END
> <s_m_source_file>
AV-unprocessed.smi

> <i_m_source_file_index>
3071

> <i_lp_mmshare_version>
43012

> <i_f3d_flags>
0

> <s_epik_input>
W0NIM11jMW5bY0hdW2NIXW4xW0NIMl1bQ0BASF0yW0NIMl1bQ0gyXVtDSDJdW05IXTI=

> <s_epik_cmdline>
J2VwaWtfcHl0aG9uJywgJy1waCcsICc3LjAnLCAnLXRuJywgJzgnLCAnLW1hJywgJzIwMCcsICctbWV0YWxfYmluZGluZycsICctaW1hZScsICc8aW5maWxlLm1hZT4nLCAnLW9tYWUnLCAnPG91dGZpbGUubWFlPic=

> <r_lp_tautomer_probability>
1

> <r_epik_Ionization_Penalty>
0.770167

> <r_epik_Ionization_Penalty_Charging>
0.000985251

> <r_epik_Ionization_Penalty_Neutral>
0.769181

> <r_epik_State_Penalty>
0.493256

> <r_epik_Charging_Adjusted_Penalty>
0.494241

> <i_epik_Tot_Q>
2

> <i_epik_Tot_abs_Q>
2

> <r_epik_Metal_State_Penalty>
4.24699

> <b_epik_Metal_Only>
0

> <s_lp_Force_Field>
OPLS_2005

> <r_lp_Energy>
34.2939

> <b_lp_Chiralities_Consistent>
1

> <s_lp_Variant>
AV-unprocessed.smi:3071-3

> <Gold.Version>
5.8.1

> <Gold.Id.Protein>
6NUR|6NUR_protein|mol2

> <Gold.PLP.Fitness>
41.0116

> <Gold.PLP.PLP>
-35.8406

> <Gold.PLP.part.hbond>
-2.0679

> <Gold.PLP.part.metal>
0.0000

> <Gold.PLP.part.buried>
-4.7826

> <Gold.PLP.part.nonpolar>
-29.1181

> <Gold.PLP.part.repulsive>
0.1485

> <Gold.PLP.ligand.clash>
0.0000

> <Gold.PLP.ligand.torsion>
0.4147

> <Gold.PLP.Chemscore.Hbond>
2.0000

> <Gold.PLP.Chemscore.CHOScore>
0.0000

> <Gold.PLP.Chemscore.Metal>
0.0000

> <Gold.Chemscore.Hbonds>
donor molecule, donor type, donor heavy atom, donor atom, acceptor molecule, acceptor atom, score
      L1  H    12    27       P1  8028  1.82

> <Gold.PLP.Chemscore.Internal.Correction>
0.0005

> <Gold.Rescore>
     Score         DG    S(hbond)    S(metal)    S(lipo)     H(rot)  DE(clash)    DE(int)     intcor
     13.64     -14.00       1.00        0.00      71.61       1.25       0.10       0.26       ----

> <Gold.Chemscore.Fitness>
13.6445

> <Gold.Chemscore.DG>
-14.0045

> <Gold.Chemscore.ZeroCoef>
-5.4800

> <Gold.Chemscore.Hbond>
1.0000

> <Gold.Chemscore.Metal>
0.0000

> <Gold.Chemscore.Lipo>
71.6122

> <Gold.Chemscore.Internal_Hbond>
0.0000

> <Gold.Chemscore.DEClash>
0.1033

> <Gold.Chemscore.DEInternal>
0.2567

> <Gold.Chemscore.Rot>
1.2477

> <Gold.Chemscore.Internal.Correction>
   9.000000E+99

> <Gold.Chemscore.Hbonds>
donor molecule, donor type, donor heavy atom, donor atom, acceptor molecule, acceptor atom, score
      L1  H    12    27       P1  8028  0.85

> <Gold.Chemscore.Hbond.Weighted>
-3.3400

> <Gold.Chemscore.Metal.Weighted>
-0.0000

> <Gold.Chemscore.Lipo.Weighted>
-8.3786

> <Gold.Chemscore.Internal_Hbond.Weighted>
0.0000

> <Gold.Chemscore.DEClash.Weighted>
0.1033

> <Gold.Chemscore.DEInternal.Weighted>
0.2567

> <Gold.Chemscore.Rot.Weighted>
3.1941

> <Gold.Chemscore.Internal.Correction.Weighted>
   9.000000E+99

> <Gold.Protein.RotatedTorsions>
[ 6907 6896 6895 6894 ] final  -80.09 input  -60.11 | X-H torsion
[ 7974 7965 7964 7962 ] final -127.11 input  175.53 | X-H torsion
[ 8008 7997 7996 7995 ] final  108.86 input   59.86 | X-H torsion
[ 10167 10162 10161 10158 ] final   42.85 input  -65.29 | X-H torsion
[ 10718 10713 10712 10709 ] final  -71.62 input   66.30 | X-H torsion
[ 10763 10752 10751 10750 ] final   87.51 input  -60.55 | X-H torsion
[ 11005 11000 10999 10996 ] final -176.04 input  -57.11 | X-H torsion

> <Gold.Protein.ActiveResidues>
 VAL166  LYS551  ARG553  GLY616  TRP617  ASP618  TYR619  PRO620  LYS621  CYS622 
 ASP623  PHE694  ASN695  SER759  ASP760  ASP761  ALA762  ILE779  LEU786  VAL792 
 PHE793  MET794  SER795  GLU796  ALA797  LYS798  CYS799  TRP800  GLU811  SER814 

> <Gold.Protein.RotatedAtoms>
  150.6936  134.4022  159.5123 H   0  0  0  0  0  0  0  0  0  0  0  0  # atno 6907 bound_to 6896
  152.1793  134.8765  160.0537 H   0  0  0  0  0  0  0  0  0  0  0  0  # atno 6908 bound_to 6896
  151.9761  133.3707  159.4126 H   0  0  0  0  0  0  0  0  0  0  0  0  # atno 6909 bound_to 6896
  144.9804  140.7635  143.4615 H   0  0  0  0  0  0  0  0  0  0  0  0  # atno 7974 bound_to 7965
  156.1935  140.3068  155.9381 H   0  0  0  0  0  0  0  0  0  0  0  0  # atno 8008 bound_to 7997
  155.3118  140.0451  157.3052 H   0  0  0  0  0  0  0  0  0  0  0  0  # atno 8009 bound_to 7997
  154.5481  140.2283  155.8538 H   0  0  0  0  0  0  0  0  0  0  0  0  # atno 8010 bound_to 7997
  140.3503  144.2358  150.6146 H   0  0  0  0  0  0  0  0  0  0  0  0  # atno 10167 bound_to 10162
  156.0355  130.4355  150.2471 H   0  0  0  0  0  0  0  0  0  0  0  0  # atno 10718 bound_to 10713
  153.1676  135.4541  154.9858 H   0  0  0  0  0  0  0  0  0  0  0  0  # atno 10763 bound_to 10752
  154.7943  135.3232  154.7706 H   0  0  0  0  0  0  0  0  0  0  0  0  # atno 10764 bound_to 10752
  153.8187  135.6948  153.4885 H   0  0  0  0  0  0  0  0  0  0  0  0  # atno 10765 bound_to 10752
  140.4565  134.6294  157.4824 H   0  0  0  0  0  0  0  0  0  0  0  0  # atno 11005 bound_to 11000
  145.2428  139.2065  143.4983 LP  0  0  0  0  0  0  0  0  0  0  0  0  # atno 17320 bound_to 7965
  146.3406  140.2327  142.8593 LP  0  0  0  0  0  0  0  0  0  0  0  0  # atno 17321 bound_to 7965
  140.5225  143.2262  151.8366 LP  0  0  0  0  0  0  0  0  0  0  0  0  # atno 17342 bound_to 10162
  139.4827  144.4819  151.9295 LP  0  0  0  0  0  0  0  0  0  0  0  0  # atno 17343 bound_to 10162
  157.0571  131.0079  151.3235 LP  0  0  0  0  0  0  0  0  0  0  0  0  # atno 17370 bound_to 10713
  157.5098  130.7931  149.7693 LP  0  0  0  0  0  0  0  0  0  0  0  0  # atno 17371 bound_to 10713
  139.9973  134.6891  155.9589 LP  0  0  0  0  0  0  0  0  0  0  0  0  # atno 17394 bound_to 11000
  141.1641  133.6537  156.4417 LP  0  0  0  0  0  0  0  0  0  0  0  0  # atno 17395 bound_to 11000

$$$$
