AV-unprocessed.smi:224|AV-procd|sdf|1716|dock7
  -GOLD-   2262020193D 1   1.00000     0.00000
 Structure written by MMmdl.
 56 59  0  0  0  0  0  0  0  0  2 V2000
  144.4245  131.7482  150.1328 C   0  0  0  0  0  0  0  0  0  0  0  0
  145.9216  132.0103  150.3424 C   0  0  1  0  0  0  0  0  0  0  0  0
  146.6091  131.5165  149.2105 O   0  0  0  0  0  0  0  0  0  0  0  0
  146.2200  133.5138  150.5088 C   0  0  0  0  0  0  0  0  0  0  0  0
  145.2713  134.1918  151.4310 N   0  3  2  0  0  0  0  0  0  0  0  0
  145.2858  135.6760  151.3235 C   0  0  0  0  0  0  0  0  0  0  0  0
  144.1834  136.3028  152.1962 C   0  0  0  0  0  0  0  0  0  0  0  0
  144.2649  135.8263  153.5756 N   0  0  0  0  0  0  0  0  0  0  0  0
  144.9955  136.5286  154.4836 C   0  0  0  0  0  0  0  0  0  0  0  0
  144.9775  136.1569  155.7920 N   0  0  0  0  0  0  0  0  0  0  0  0
  145.6664  136.8481  156.7040 C   0  0  0  0  0  0  0  0  0  0  0  0
  146.4336  137.9243  156.5284 N   0  0  0  0  0  0  0  0  0  0  0  0
  146.4760  138.2930  155.2167 C   0  0  0  0  0  0  0  0  0  0  0  0
  145.7934  137.6583  154.1397 C   0  0  0  0  0  0  0  0  0  0  0  0
  146.0866  138.3130  152.9486 N   0  0  0  0  0  0  0  0  0  0  0  0
  146.8848  139.2827  153.3023 C   0  0  0  0  0  0  0  0  0  0  0  0
  147.1766  139.3408  154.6461 N   0  0  0  0  0  0  0  0  0  0  0  0
  148.0360  140.3082  155.3109 C   0  0  0  0  0  0  0  0  0  0  0  0
  149.5296  140.1647  154.9362 C   0  0  1  0  0  0  0  0  0  0  0  0
  149.7506  140.7621  153.6703 O   0  0  0  0  0  0  0  0  0  0  0  0
  150.4880  140.7967  155.9424 C   0  0  0  0  0  0  0  0  0  0  0  0
  151.7070  139.8880  155.8684 C   0  0  0  0  0  0  0  0  0  0  0  0
  151.1232  138.6026  155.7479 O   0  0  0  0  0  0  0  0  0  0  0  0
  150.0036  138.6988  154.8735 C   0  0  0  0  0  0  0  0  0  0  0  0
  144.2558  134.3701  153.7080 C   0  0  0  0  0  0  0  0  0  0  0  0
  145.3493  133.7058  152.8411 C   0  0  2  0  0  0  0  0  0  0  0  0
  146.7561  133.8503  153.4619 C   0  0  0  0  0  0  0  0  0  0  0  0
  143.8434  132.0928  150.9887 H   0  0  0  0  0  0  0  0  0  0  0  0
  144.2247  130.6833  150.0079 H   0  0  0  0  0  0  0  0  0  0  0  0
  144.0495  132.2633  149.2477 H   0  0  0  0  0  0  0  0  0  0  0  0
  146.2469  131.4468  151.2161 H   0  0  0  0  0  0  0  0  0  0  0  0
  147.5380  131.5318  149.3818 H   0  0  0  0  0  0  0  0  0  0  0  0
  147.2404  133.6227  150.8799 H   0  0  0  0  0  0  0  0  0  0  0  0
  146.1930  134.0151  149.5399 H   0  0  0  0  0  0  0  0  0  0  0  0
  146.2650  136.0576  151.6141 H   0  0  0  0  0  0  0  0  0  0  0  0
  145.1315  135.9842  150.2905 H   0  0  0  0  0  0  0  0  0  0  0  0
  144.2235  137.3919  152.1490 H   0  0  0  0  0  0  0  0  0  0  0  0
  143.2054  136.0236  151.8023 H   0  0  0  0  0  0  0  0  0  0  0  0
  145.5922  136.4888  157.7198 H   0  0  0  0  0  0  0  0  0  0  0  0
  147.2896  139.9834  152.5868 H   0  0  0  0  0  0  0  0  0  0  0  0
  147.6807  141.3072  155.0543 H   0  0  0  0  0  0  0  0  0  0  0  0
  147.9040  140.2058  156.3888 H   0  0  0  0  0  0  0  0  0  0  0  0
  149.5456  140.1288  152.9996 H   0  0  0  0  0  0  0  0  0  0  0  0
  150.7166  141.8436  155.7377 H   0  0  0  0  0  0  0  0  0  0  0  0
  150.0716  140.7383  156.9487 H   0  0  0  0  0  0  0  0  0  0  0  0
  152.3081  140.1061  154.9846 H   0  0  0  0  0  0  0  0  0  0  0  0
  152.3441  139.9617  156.7498 H   0  0  0  0  0  0  0  0  0  0  0  0
  149.2343  137.9975  155.1985 H   0  0  0  0  0  0  0  0  0  0  0  0
  150.3035  138.4072  153.8654 H   0  0  0  0  0  0  0  0  0  0  0  0
  144.3599  134.0453  154.7419 H   0  0  0  0  0  0  0  0  0  0  0  0
  143.2756  134.0184  153.3844 H   0  0  0  0  0  0  0  0  0  0  0  0
  145.1241  132.6385  152.8215 H   0  0  0  0  0  0  0  0  0  0  0  0
  146.7568  133.5084  154.4972 H   0  0  0  0  0  0  0  0  0  0  0  0
  147.1058  134.8817  153.4616 H   0  0  0  0  0  0  0  0  0  0  0  0
  147.4965  133.2528  152.9305 H   0  0  0  0  0  0  0  0  0  0  0  0
  144.3535  133.9090  151.1193 H   0  0  0  0  0  0  0  0  0  0  0  0
  1  2  1  0  0  0  0
  1 28  1  0  0  0  0
  1 29  1  0  0  0  0
  1 30  1  0  0  0  0
  2  3  1  0  0  0  0
  2  4  1  0  0  0  0
  2 31  1  0  0  0  0
  3 32  1  0  0  0  0
  4  5  1  0  0  0  0
  4 33  1  0  0  0  0
  4 34  1  0  0  0  0
  5 26  1  0  0  0  0
  5  6  1  0  0  0  0
  5 56  1  0  0  0  0
  6  7  1  0  0  0  0
  6 35  1  0  0  0  0
  6 36  1  0  0  0  0
  7  8  1  0  0  0  0
  7 37  1  0  0  0  0
  7 38  1  0  0  0  0
  8  9  1  0  0  0  0
  8 25  1  0  0  0  0
  9 14  1  0  0  0  0
  9 10  2  0  0  0  0
 10 11  1  0  0  0  0
 11 12  2  0  0  0  0
 11 39  1  0  0  0  0
 12 13  1  0  0  0  0
 13 17  1  0  0  0  0
 13 14  2  0  0  0  0
 14 15  1  0  0  0  0
 15 16  2  0  0  0  0
 16 17  1  0  0  0  0
 16 40  1  0  0  0  0
 17 18  1  0  0  0  0
 18 19  1  0  0  0  0
 18 41  1  0  0  0  0
 18 42  1  0  0  0  0
 19 24  1  0  0  0  0
 19 20  1  0  0  0  0
 19 21  1  0  0  0  0
 20 43  1  0  0  0  0
 21 22  1  0  0  0  0
 21 44  1  0  0  0  0
 21 45  1  0  0  0  0
 22 23  1  0  0  0  0
 22 46  1  0  0  0  0
 22 47  1  0  0  0  0
 23 24  1  0  0  0  0
 24 48  1  0  0  0  0
 24 49  1  0  0  0  0
 25 26  1  0  0  0  0
 25 50  1  0  0  0  0
 25 51  1  0  0  0  0
 26 27  1  0  0  0  0
 26 52  1  0  0  0  0
 27 53  1  0  0  0  0
 27 54  1  0  0  0  0
 27 55  1  0  0  0  0
M  CHG  1   5   1
M  END
> <s_m_source_file>
AV-unprocessed.smi

> <i_m_source_file_index>
224

> <i_lp_mmshare_version>
43012

> <i_f3d_flags>
0

> <s_epik_input>
W0NIM11bQ0BIXShbT0hdKVtDSDJdTjFbQ0gyXVtDSDJdTihbQ0gyXVtDQEhdMVtDSDNdKWMobltjSF1uMiljKGMyMyluW2NIXW4zW0NIMl1bQ0BAXTQoW09IXSlbQ0gyXVtDSDJdT1tDSDJdNA==

> <s_epik_cmdline>
J2VwaWtfcHl0aG9uJywgJy1waCcsICc3LjAnLCAnLXRuJywgJzgnLCAnLW1hJywgJzIwMCcsICctbWV0YWxfYmluZGluZycsICctaW1hZScsICc8aW5maWxlLm1hZT4nLCAnLW9tYWUnLCAnPG91dGZpbGUubWFlPic=

> <r_lp_tautomer_probability>
1

> <r_epik_Ionization_Penalty>
0.00516958

> <r_epik_Ionization_Penalty_Charging>
0.00509693

> <r_epik_Ionization_Penalty_Neutral>
7.26542e-05

> <r_epik_State_Penalty>
-0

> <r_epik_Charging_Adjusted_Penalty>
0.00509693

> <i_epik_Tot_Q>
1

> <i_epik_Tot_abs_Q>
1

> <r_epik_Metal_State_Penalty>
-0

> <b_epik_Metal_Only>
0

> <s_lp_Force_Field>
OPLS_2005

> <r_lp_Energy>
50.5155

> <b_lp_Chiralities_Consistent>
1

> <s_lp_Variant>
AV-unprocessed.smi:224-10

> <Gold.Version>
5.8.1

> <Gold.Id.Protein>
6NUR|6NUR_protein|mol2

> <Gold.PLP.Fitness>
45.8920

> <Gold.PLP.PLP>
-35.0088

> <Gold.PLP.part.hbond>
-3.1135

> <Gold.PLP.part.metal>
0.0000

> <Gold.PLP.part.buried>
-3.2556

> <Gold.PLP.part.nonpolar>
-28.8110

> <Gold.PLP.part.repulsive>
0.2959

> <Gold.PLP.ligand.clash>
0.0000

> <Gold.PLP.ligand.torsion>
0.8289

> <Gold.PLP.Chemscore.Hbond>
3.0720

> <Gold.PLP.Chemscore.CHOScore>
0.9977

> <Gold.PLP.Chemscore.Metal>
0.0000

> <Gold.Chemscore.Hbonds>
donor molecule, donor type, donor heavy atom, donor atom, acceptor molecule, acceptor atom, score
      L1  H     3    32       P1 10747  1.00
      L1  H    20    43       P1  7957  0.74
      P1  H  7989  7998       L1    20  0.43
      P1  H  8011  8017       L1    20  0.53
      L1  C    16    40       P1  7957  0.57

> <Gold.PLP.Chemscore.Internal.Correction>
0.3321

> <Gold.Rescore>
     Score         DG    S(hbond)    S(metal)    S(lipo)     H(rot)  DE(clash)    DE(int)     intcor
     12.30     -14.47       2.28        0.00      77.96       3.02       0.06       2.12       ----

> <Gold.Chemscore.Fitness>
12.2957

> <Gold.Chemscore.DG>
-14.4735

> <Gold.Chemscore.ZeroCoef>
-5.4800

> <Gold.Chemscore.Hbond>
2.2789

> <Gold.Chemscore.Metal>
0.0000

> <Gold.Chemscore.Lipo>
77.9569

> <Gold.Chemscore.Internal_Hbond>
0.0000

> <Gold.Chemscore.DEClash>
0.0566

> <Gold.Chemscore.DEInternal>
2.1212

> <Gold.Chemscore.Rot>
3.0231

> <Gold.Chemscore.Internal.Correction>
   9.000000E+99

> <Gold.Chemscore.Hbonds>
donor molecule, donor type, donor heavy atom, donor atom, acceptor molecule, acceptor atom, score
      L1  H     3    32       P1 10747  0.94
      L1  H    20    43       P1  7957  0.74
      P1  H  7989  7998       L1    20  0.07
      P1  H  8011  8017       L1    20  0.05

> <Gold.Chemscore.Hbond.Weighted>
-7.6116

> <Gold.Chemscore.Metal.Weighted>
-0.0000

> <Gold.Chemscore.Lipo.Weighted>
-9.1210

> <Gold.Chemscore.Internal_Hbond.Weighted>
0.0000

> <Gold.Chemscore.DEClash.Weighted>
0.0566

> <Gold.Chemscore.DEInternal.Weighted>
2.1212

> <Gold.Chemscore.Rot.Weighted>
7.7391

> <Gold.Chemscore.Internal.Correction.Weighted>
   9.000000E+99

> <Gold.Protein.RotatedTorsions>
[ 6907 6896 6895 6894 ] final   78.75 input  -60.11 | X-H torsion
[ 7974 7965 7964 7962 ] final  113.45 input  175.53 | X-H torsion
[ 8008 7997 7996 7995 ] final   82.58 input   59.86 | X-H torsion
[ 10167 10162 10161 10158 ] final  147.41 input  -65.29 | X-H torsion
[ 10718 10713 10712 10709 ] final   61.23 input   66.30 | X-H torsion
[ 10763 10752 10751 10750 ] final -150.22 input  -60.55 | X-H torsion
[ 11005 11000 10999 10996 ] final  -90.36 input  -57.11 | X-H torsion

> <Gold.Protein.ActiveResidues>
 VAL166  LYS551  ARG553  GLY616  TRP617  ASP618  TYR619  PRO620  LYS621  CYS622 
 ASP623  PHE694  ASN695  SER759  ASP760  ASP761  ALA762  ILE779  LEU786  VAL792 
 PHE793  MET794  SER795  GLU796  ALA797  LYS798  CYS799  TRP800  GLU811  SER814 

> <Gold.Protein.RotatedAtoms>
  152.5172  134.3616  159.9286 H   0  0  0  0  0  0  0  0  0  0  0  0  # atno 6907 bound_to 6896
  151.3569  133.3898  159.2693 H   0  0  0  0  0  0  0  0  0  0  0  0  # atno 6908 bound_to 6896
  150.9683  134.9079  159.7830 H   0  0  0  0  0  0  0  0  0  0  0  0  # atno 6909 bound_to 6896
  145.2168  139.2880  143.4239 H   0  0  0  0  0  0  0  0  0  0  0  0  # atno 7974 bound_to 7965
  155.9125  140.3426  155.6110 H   0  0  0  0  0  0  0  0  0  0  0  0  # atno 8008 bound_to 7997
  155.7370  140.0803  157.2282 H   0  0  0  0  0  0  0  0  0  0  0  0  # atno 8009 bound_to 7997
  154.4058  140.1577  156.2560 H   0  0  0  0  0  0  0  0  0  0  0  0  # atno 8010 bound_to 7997
  139.4890  144.5757  151.6969 H   0  0  0  0  0  0  0  0  0  0  0  0  # atno 10167 bound_to 10162
  157.5812  130.8983  149.9435 H   0  0  0  0  0  0  0  0  0  0  0  0  # atno 10718 bound_to 10713
  154.8132  135.3290  154.7249 H   0  0  0  0  0  0  0  0  0  0  0  0  # atno 10763 bound_to 10752
  153.7894  135.6912  153.4878 H   0  0  0  0  0  0  0  0  0  0  0  0  # atno 10764 bound_to 10752
  153.1927  135.4545  155.0116 H   0  0  0  0  0  0  0  0  0  0  0  0  # atno 10765 bound_to 10752
  141.1567  133.7687  156.9727 H   0  0  0  0  0  0  0  0  0  0  0  0  # atno 11005 bound_to 11000
  146.3385  140.2462  142.8597 LP  0  0  0  0  0  0  0  0  0  0  0  0  # atno 17320 bound_to 7965
  144.9803  140.8453  143.5401 LP  0  0  0  0  0  0  0  0  0  0  0  0  # atno 17321 bound_to 7965
  140.5353  144.0665  150.6068 LP  0  0  0  0  0  0  0  0  0  0  0  0  # atno 17342 bound_to 10162
  140.3669  143.2876  152.0322 LP  0  0  0  0  0  0  0  0  0  0  0  0  # atno 17343 bound_to 10162
  156.0858  130.3668  150.0490 LP  0  0  0  0  0  0  0  0  0  0  0  0  # atno 17370 bound_to 10713
  156.8629  130.9498  151.3616 LP  0  0  0  0  0  0  0  0  0  0  0  0  # atno 17371 bound_to 10713
  140.1118  134.9472  157.2077 LP  0  0  0  0  0  0  0  0  0  0  0  0  # atno 17394 bound_to 11000
  140.3184  134.2945  155.7251 LP  0  0  0  0  0  0  0  0  0  0  0  0  # atno 17395 bound_to 11000

$$$$
