AV-unprocessed.smi:785|AV-procd|sdf|3720|dock3
  -GOLD-   22720 1143D 1   1.00000     0.00000
 Structure written by MMmdl.
 35 36  0  0  0  0  0  0  0  0  1 V2000
  149.7752  133.4862  155.2931 C   0  0  0  0  0  0  0  0  0  0  0  0
  150.0331  134.9342  155.5333 C   0  0  0  0  0  0  0  0  0  0  0  0
  150.8623  135.6709  154.7894 N   0  0  0  0  0  0  0  0  0  0  0  0
  150.9352  137.0008  155.2180 C   0  0  0  0  0  0  0  0  0  0  0  0
  151.8173  137.9764  154.4936 C   0  0  0  0  0  0  0  0  0  0  0  0
  151.6943  139.3695  155.1133 C   0  0  0  0  0  0  0  0  0  0  0  0
  152.6558  139.8727  155.6940 O   0  0  0  0  0  0  0  0  0  0  0  0
  150.5095  139.9858  154.9758 N   0  0  0  0  0  0  0  0  0  0  0  0
  150.1929  141.3141  155.4854 C   0  0  0  0  0  0  0  0  0  0  0  0
  150.4967  141.4263  156.9899 C   0  0  0  0  0  0  0  0  0  0  0  0
  150.4407  142.8103  157.4448 N   0  0  0  0  0  0  0  0  0  0  0  0
  150.9419  143.2630  158.6040 C   0  0  0  0  0  0  0  0  0  0  0  0
  151.5138  142.5355  159.4175 O   0  0  0  0  0  0  0  0  0  0  0  0
  150.7444  144.7281  158.8185 C   0  0  0  0  0  0  0  0  0  0  0  0
  151.6366  145.4176  159.8308 C   0  0  0  0  0  0  0  0  0  0  0  0
  150.1837  145.1743  160.1537 C   0  0  0  0  0  0  0  0  0  0  0  0
  150.1349  137.2616  156.3032 C   0  0  0  0  0  0  0  0  0  0  0  0
  149.2721  135.8438  156.8324 S   0  0  0  0  0  0  0  0  0  0  0  0
  150.2071  133.1712  154.3426 H   0  0  0  0  0  0  0  0  0  0  0  0
  148.7019  133.2977  155.2673 H   0  0  0  0  0  0  0  0  0  0  0  0
  150.2168  132.8918  156.0929 H   0  0  0  0  0  0  0  0  0  0  0  0
  152.8602  137.6581  154.5315 H   0  0  0  0  0  0  0  0  0  0  0  0
  151.5513  138.0254  153.4369 H   0  0  0  0  0  0  0  0  0  0  0  0
  149.7745  139.4989  154.4834 H   0  0  0  0  0  0  0  0  0  0  0  0
  150.7881  142.0360  154.9255 H   0  0  0  0  0  0  0  0  0  0  0  0
  149.1470  141.5536  155.2861 H   0  0  0  0  0  0  0  0  0  0  0  0
  149.7662  140.8569  157.5651 H   0  0  0  0  0  0  0  0  0  0  0  0
  151.4736  140.9961  157.2175 H   0  0  0  0  0  0  0  0  0  0  0  0
  149.9868  143.4732  156.8330 H   0  0  0  0  0  0  0  0  0  0  0  0
  150.4526  145.3125  157.9469 H   0  0  0  0  0  0  0  0  0  0  0  0
  152.3741  144.8225  160.3669 H   0  0  0  0  0  0  0  0  0  0  0  0
  151.9460  146.4354  159.6027 H   0  0  0  0  0  0  0  0  0  0  0  0
  149.5085  146.0274  160.1448 H   0  0  0  0  0  0  0  0  0  0  0  0
  149.9579  144.4177  160.9032 H   0  0  0  0  0  0  0  0  0  0  0  0
  150.0033  138.1988  156.8235 H   0  0  0  0  0  0  0  0  0  0  0  0
  1  2  1  0  0  0  0
  1 19  1  0  0  0  0
  1 20  1  0  0  0  0
  1 21  1  0  0  0  0
  2 18  1  0  0  0  0
  2  3  2  0  0  0  0
  3  4  1  0  0  0  0
  4  5  1  0  0  0  0
  4 17  2  0  0  0  0
  5  6  1  0  0  0  0
  5 22  1  0  0  0  0
  5 23  1  0  0  0  0
  6  7  2  0  0  0  0
  6  8  1  0  0  0  0
  8  9  1  0  0  0  0
  8 24  1  0  0  0  0
  9 10  1  0  0  0  0
  9 25  1  0  0  0  0
  9 26  1  0  0  0  0
 10 11  1  0  0  0  0
 10 27  1  0  0  0  0
 10 28  1  0  0  0  0
 11 12  1  0  0  0  0
 11 29  1  0  0  0  0
 12 13  2  0  0  0  0
 12 14  1  0  0  0  0
 14 16  1  0  0  0  0
 14 15  1  0  0  0  0
 14 30  1  0  0  0  0
 15 16  1  0  0  0  0
 15 31  1  0  0  0  0
 15 32  1  0  0  0  0
 16 33  1  0  0  0  0
 16 34  1  0  0  0  0
 17 18  1  0  0  0  0
 17 35  1  0  0  0  0
M  END
> <s_m_source_file>
AV-unprocessed.smi

> <i_m_source_file_index>
785

> <i_lp_mmshare_version>
43012

> <i_f3d_flags>
0

> <s_epik_input>
W0NIM11jMW5jKFtjSF1zMSlbQ0gyXUMoPU8pW05IXVtDSDJdW0NIMl1bTkhdQyg9TylbQ0hdMltDSDJdW0NIMl0y

> <s_epik_cmdline>
J2VwaWtfcHl0aG9uJywgJy1waCcsICc3LjAnLCAnLXRuJywgJzgnLCAnLW1hJywgJzIwMCcsICctbWV0YWxfYmluZGluZycsICctaW1hZScsICc8aW5maWxlLm1hZT4nLCAnLW9tYWUnLCAnPG91dGZpbGUubWFlPic=

> <r_lp_tautomer_probability>
1

> <r_epik_Ionization_Penalty>
4.93122e-05

> <r_epik_Ionization_Penalty_Charging>
0

> <r_epik_Ionization_Penalty_Neutral>
4.93122e-05

> <r_epik_State_Penalty>
-0

> <r_epik_Charging_Adjusted_Penalty>
0

> <i_epik_Tot_Q>
0

> <i_epik_Tot_abs_Q>
0

> <r_epik_Metal_State_Penalty>
-0

> <b_epik_Metal_Only>
0

> <s_lp_Force_Field>
OPLS_2005

> <r_lp_Energy>
2.28636

> <b_lp_Chiralities_Consistent>
1

> <s_lp_Variant>
AV-unprocessed.smi:785-1

> <Gold.Version>
5.8.1

> <Gold.Id.Protein>
6NUR|6NUR_protein|mol2

> <Gold.PLP.Fitness>
41.2905

> <Gold.PLP.PLP>
-34.5795

> <Gold.PLP.part.hbond>
-4.0000

> <Gold.PLP.part.metal>
0.0000

> <Gold.PLP.part.buried>
-3.1371

> <Gold.PLP.part.nonpolar>
-27.8510

> <Gold.PLP.part.repulsive>
0.4510

> <Gold.PLP.ligand.clash>
0.0000

> <Gold.PLP.ligand.torsion>
0.5899

> <Gold.PLP.Chemscore.Hbond>
2.5960

> <Gold.PLP.Chemscore.CHOScore>
0.0000

> <Gold.PLP.Chemscore.Metal>
0.0000

> <Gold.Chemscore.Hbonds>
donor molecule, donor type, donor heavy atom, donor atom, acceptor molecule, acceptor atom, score
      L1  H    11    29       P1  8028  1.00
      P1  H  7997  8008       L1     7  1.00
      P1  H 10752 10764       L1     3  0.54

> <Gold.PLP.Chemscore.Internal.Correction>
0.1029

> <Gold.Rescore>
     Score         DG    S(hbond)    S(metal)    S(lipo)     H(rot)  DE(clash)    DE(int)     intcor
     13.13     -15.31       2.09        0.00      71.50       2.16       0.58       1.60       ----

> <Gold.Chemscore.Fitness>
13.1290

> <Gold.Chemscore.DG>
-15.3059

> <Gold.Chemscore.ZeroCoef>
-5.4800

> <Gold.Chemscore.Hbond>
2.0909

> <Gold.Chemscore.Metal>
0.0000

> <Gold.Chemscore.Lipo>
71.4955

> <Gold.Chemscore.Internal_Hbond>
0.0000

> <Gold.Chemscore.DEClash>
0.5805

> <Gold.Chemscore.DEInternal>
1.5963

> <Gold.Chemscore.Rot>
2.1573

> <Gold.Chemscore.Internal.Correction>
   9.000000E+99

> <Gold.Chemscore.Hbonds>
donor molecule, donor type, donor heavy atom, donor atom, acceptor molecule, acceptor atom, score
      L1  H    11    29       P1  8028  0.93
      P1  H  7997  8008       L1     7  0.98
      P1  H 10752 10764       L1     3  0.04

> <Gold.Chemscore.Hbond.Weighted>
-6.9837

> <Gold.Chemscore.Metal.Weighted>
-0.0000

> <Gold.Chemscore.Lipo.Weighted>
-8.3650

> <Gold.Chemscore.Internal_Hbond.Weighted>
0.0000

> <Gold.Chemscore.DEClash.Weighted>
0.5805

> <Gold.Chemscore.DEInternal.Weighted>
1.5963

> <Gold.Chemscore.Rot.Weighted>
5.5228

> <Gold.Chemscore.Internal.Correction.Weighted>
   9.000000E+99

> <Gold.Protein.RotatedTorsions>
[ 6907 6896 6895 6894 ] final -131.96 input  -60.11 | X-H torsion
[ 7974 7965 7964 7962 ] final -125.55 input  175.53 | X-H torsion
[ 8008 7997 7996 7995 ] final  -46.97 input   59.86 | X-H torsion
[ 10167 10162 10161 10158 ] final  -69.46 input  -65.29 | X-H torsion
[ 10718 10713 10712 10709 ] final  -69.65 input   66.30 | X-H torsion
[ 10763 10752 10751 10750 ] final  -61.21 input  -60.55 | X-H torsion
[ 11005 11000 10999 10996 ] final   80.61 input  -57.11 | X-H torsion

> <Gold.Protein.ActiveResidues>
 VAL166  LYS551  ARG553  GLY616  TRP617  ASP618  TYR619  PRO620  LYS621  CYS622 
 ASP623  PHE694  ASN695  SER759  ASP760  ASP761  ALA762  ILE779  LEU786  VAL792 
 PHE793  MET794  SER795  GLU796  ALA797  LYS798  CYS799  TRP800  GLU811  SER814 

> <Gold.Protein.RotatedAtoms>
  150.9569  133.6487  159.2761 H   0  0  0  0  0  0  0  0  0  0  0  0  # atno 6907 bound_to 6896
  151.3823  135.0941  159.9510 H   0  0  0  0  0  0  0  0  0  0  0  0  # atno 6908 bound_to 6896
  152.5132  133.9101  159.7538 H   0  0  0  0  0  0  0  0  0  0  0  0  # atno 6909 bound_to 6896
  144.9964  140.7780  143.4523 H   0  0  0  0  0  0  0  0  0  0  0  0  # atno 7974 bound_to 7965
  154.4012  140.1358  156.4099 H   0  0  0  0  0  0  0  0  0  0  0  0  # atno 8008 bound_to 7997
  155.7744  140.3483  155.5243 H   0  0  0  0  0  0  0  0  0  0  0  0  # atno 8009 bound_to 7997
  155.8735  140.0975  157.1524 H   0  0  0  0  0  0  0  0  0  0  0  0  # atno 8010 bound_to 7997
  140.5428  143.2314  151.7057 H   0  0  0  0  0  0  0  0  0  0  0  0  # atno 10167 bound_to 10162
  156.0445  130.4316  150.2179 H   0  0  0  0  0  0  0  0  0  0  0  0  # atno 10718 bound_to 10713
  154.2811  135.6271  153.5347 H   0  0  0  0  0  0  0  0  0  0  0  0  # atno 10763 bound_to 10752
  152.9865  135.5633  154.5494 H   0  0  0  0  0  0  0  0  0  0  0  0  # atno 10764 bound_to 10752
  154.5085  135.2875  155.1338 H   0  0  0  0  0  0  0  0  0  0  0  0  # atno 10765 bound_to 10752
  139.9128  134.7934  156.1932 H   0  0  0  0  0  0  0  0  0  0  0  0  # atno 11005 bound_to 11000
  145.2214  139.2157  143.5091 LP  0  0  0  0  0  0  0  0  0  0  0  0  # atno 17320 bound_to 7965
  146.3443  140.2072  142.8589 LP  0  0  0  0  0  0  0  0  0  0  0  0  # atno 17321 bound_to 7965
  139.4995  144.3941  152.0249 LP  0  0  0  0  0  0  0  0  0  0  0  0  # atno 17342 bound_to 10162
  140.3052  144.3601  150.6049 LP  0  0  0  0  0  0  0  0  0  0  0  0  # atno 17343 bound_to 10162
  157.0270  130.9996  151.3323 LP  0  0  0  0  0  0  0  0  0  0  0  0  # atno 17370 bound_to 10713
  157.5304  130.8055  149.7910 LP  0  0  0  0  0  0  0  0  0  0  0  0  # atno 17371 bound_to 10713
  141.0571  133.6860  156.1880 LP  0  0  0  0  0  0  0  0  0  0  0  0  # atno 17394 bound_to 11000
  140.6720  134.4857  157.5587 LP  0  0  0  0  0  0  0  0  0  0  0  0  # atno 17395 bound_to 11000

$$$$
