AV-unprocessed.smi:311|AV-procd|sdf|2300|dock6
  -GOLD-   2262022203D 1   1.00000     0.00000
 Structure written by MMmdl.
 44 46  0  0  0  0  0  0  0  0  2 V2000
  150.8711  131.0801  156.2378 C   0  0  0  0  0  0  0  0  0  0  0  0
  150.5137  132.5380  156.2887 C   0  0  0  0  0  0  0  0  0  0  0  0
  150.7784  133.2395  157.3779 N   0  0  0  0  0  0  0  0  0  0  0  0
  150.3289  134.5375  157.1168 O   0  0  0  0  0  0  0  0  0  0  0  0
  149.8072  134.5676  155.8645 C   0  0  0  0  0  0  0  0  0  0  0  0
  149.2605  135.8753  155.3999 C   0  0  0  0  0  0  0  0  0  0  0  0
  149.8922  133.3321  155.2826 C   0  0  0  0  0  0  0  0  0  0  0  0
  149.4376  132.8989  153.9119 C   0  0  0  0  0  0  0  0  0  0  0  0
  147.9212  133.0513  153.7909 C   0  0  0  0  0  0  0  0  0  0  0  0
  147.1753  132.2128  154.2954 O   0  0  0  0  0  0  0  0  0  0  0  0
  147.4786  134.1203  153.1095 N   0  0  0  0  0  0  0  0  0  0  0  0
  146.0758  134.4673  152.8943 C   0  0  1  0  0  0  0  0  0  0  0  0
  145.8950  135.8504  152.2402 C   0  0  0  0  0  0  0  0  0  0  0  0
  144.7662  135.6530  151.2230 C   0  0  0  0  0  0  0  0  0  0  0  0
  144.9647  134.2689  150.7780 N   0  3  2  0  0  0  0  0  0  0  0  0
  143.9108  133.6298  149.9640 C   0  0  0  0  0  0  0  0  0  0  0  0
  144.4326  132.2603  149.4771 C   0  0  0  0  0  0  0  0  0  0  0  0
  144.9651  131.3882  150.6371 C   0  0  0  0  0  0  0  0  0  0  0  0
  145.9673  132.1603  151.5227 C   0  0  0  0  0  0  0  0  0  0  0  0
  145.3198  133.4822  151.9719 C   0  0  1  0  0  0  0  0  0  0  0  0
  150.0372  130.4871  155.8616 H   0  0  0  0  0  0  0  0  0  0  0  0
  151.1322  130.6932  157.2237 H   0  0  0  0  0  0  0  0  0  0  0  0
  151.7225  130.9110  155.5786 H   0  0  0  0  0  0  0  0  0  0  0  0
  149.3881  135.9911  154.3236 H   0  0  0  0  0  0  0  0  0  0  0  0
  149.7675  136.7071  155.8894 H   0  0  0  0  0  0  0  0  0  0  0  0
  148.1962  135.9479  155.6239 H   0  0  0  0  0  0  0  0  0  0  0  0
  149.9134  133.4868  153.1263 H   0  0  0  0  0  0  0  0  0  0  0  0
  149.7094  131.8606  153.7171 H   0  0  0  0  0  0  0  0  0  0  0  0
  148.1690  134.7534  152.7323 H   0  0  0  0  0  0  0  0  0  0  0  0
  145.5660  134.4891  153.8597 H   0  0  0  0  0  0  0  0  0  0  0  0
  145.6691  136.6321  152.9662 H   0  0  0  0  0  0  0  0  0  0  0  0
  146.8052  136.1438  151.7144 H   0  0  0  0  0  0  0  0  0  0  0  0
  143.7923  135.7493  151.7059 H   0  0  0  0  0  0  0  0  0  0  0  0
  144.8154  136.3607  150.3948 H   0  0  0  0  0  0  0  0  0  0  0  0
  142.9988  133.5138  150.5516 H   0  0  0  0  0  0  0  0  0  0  0  0
  143.6689  134.2649  149.1109 H   0  0  0  0  0  0  0  0  0  0  0  0
  143.6454  131.7291  148.9411 H   0  0  0  0  0  0  0  0  0  0  0  0
  145.2366  132.4211  148.7579 H   0  0  0  0  0  0  0  0  0  0  0  0
  144.1259  131.0569  151.2499 H   0  0  0  0  0  0  0  0  0  0  0  0
  145.4316  130.4849  150.2427 H   0  0  0  0  0  0  0  0  0  0  0  0
  146.2395  131.5527  152.3862 H   0  0  0  0  0  0  0  0  0  0  0  0
  146.8856  132.3551  150.9669 H   0  0  0  0  0  0  0  0  0  0  0  0
  144.3896  133.2369  152.4892 H   0  0  0  0  0  0  0  0  0  0  0  0
  145.7949  134.2903  150.2029 H   0  0  0  0  0  0  0  0  0  0  0  0
  1  2  1  0  0  0  0
  1 21  1  0  0  0  0
  1 22  1  0  0  0  0
  1 23  1  0  0  0  0
  2  7  1  0  0  0  0
  2  3  2  0  0  0  0
  3  4  1  0  0  0  0
  4  5  1  0  0  0  0
  5  6  1  0  0  0  0
  5  7  2  0  0  0  0
  6 24  1  0  0  0  0
  6 25  1  0  0  0  0
  6 26  1  0  0  0  0
  7  8  1  0  0  0  0
  8  9  1  0  0  0  0
  8 27  1  0  0  0  0
  8 28  1  0  0  0  0
  9 10  2  0  0  0  0
  9 11  1  0  0  0  0
 11 12  1  0  0  0  0
 11 29  1  0  0  0  0
 12 20  1  0  0  0  0
 12 13  1  0  0  0  0
 12 30  1  0  0  0  0
 13 14  1  0  0  0  0
 13 31  1  0  0  0  0
 13 32  1  0  0  0  0
 14 15  1  0  0  0  0
 14 33  1  0  0  0  0
 14 34  1  0  0  0  0
 15 20  1  0  0  0  0
 15 16  1  0  0  0  0
 15 44  1  0  0  0  0
 16 17  1  0  0  0  0
 16 35  1  0  0  0  0
 16 36  1  0  0  0  0
 17 18  1  0  0  0  0
 17 37  1  0  0  0  0
 17 38  1  0  0  0  0
 18 19  1  0  0  0  0
 18 39  1  0  0  0  0
 18 40  1  0  0  0  0
 19 20  1  0  0  0  0
 19 41  1  0  0  0  0
 19 42  1  0  0  0  0
 20 43  1  0  0  0  0
M  CHG  1  15   1
M  END
> <s_m_source_file>
AV-unprocessed.smi

> <i_m_source_file_index>
311

> <i_lp_mmshare_version>
43012

> <i_f3d_flags>
0

> <s_epik_input>
W0NIM11jMW5vYyhbQ0gzXSljMVtDSDJdQyg9TylbTkhdW0NASF0oW0NIMl1bQ0gyXTIpW0NAQEhdKE4yMylbQ0gyXVtDSDJdW0NIMl1bQ0gyXTM=

> <s_epik_cmdline>
J2VwaWtfcHl0aG9uJywgJy1waCcsICc3LjAnLCAnLXRuJywgJzgnLCAnLW1hJywgJzIwMCcsICctbWV0YWxfYmluZGluZycsICctaW1hZScsICc8aW5maWxlLm1hZT4nLCAnLW9tYWUnLCAnPG91dGZpbGUubWFlPic=

> <r_epik_Ionization_Penalty>
0.00173669

> <r_epik_Ionization_Penalty_Charging>
0.0017366

> <r_epik_Ionization_Penalty_Neutral>
9.2145e-08

> <r_epik_State_Penalty>
0.00117499

> <r_epik_Charging_Adjusted_Penalty>
0.00291159

> <i_epik_Tot_Q>
1

> <i_epik_Tot_abs_Q>
1

> <r_epik_Metal_State_Penalty>
-0

> <b_epik_Metal_Only>
0

> <s_lp_Force_Field>
OPLS_2005

> <r_lp_Energy>
35.4626

> <b_lp_Chiralities_Consistent>
1

> <s_lp_Variant>
AV-unprocessed.smi:311-4

> <Gold.Version>
5.8.1

> <Gold.Id.Protein>
6NUR|6NUR_protein|mol2

> <Gold.PLP.Fitness>
38.1328

> <Gold.PLP.PLP>
-33.4099

> <Gold.PLP.part.hbond>
-2.8130

> <Gold.PLP.part.metal>
0.0000

> <Gold.PLP.part.buried>
-3.4604

> <Gold.PLP.part.nonpolar>
-27.6776

> <Gold.PLP.part.repulsive>
0.0827

> <Gold.PLP.ligand.clash>
0.0000

> <Gold.PLP.ligand.torsion>
0.3149

> <Gold.PLP.Chemscore.Hbond>
1.7840

> <Gold.PLP.Chemscore.CHOScore>
0.0000

> <Gold.PLP.Chemscore.Metal>
0.0000

> <Gold.Chemscore.Hbonds>
donor molecule, donor type, donor heavy atom, donor atom, acceptor molecule, acceptor atom, score
      L1  H    11    29       P1  7948  1.00
      P1  H  6896  6909       L1     3  0.77

> <Gold.PLP.Chemscore.Internal.Correction>
0.0006

> <Gold.Rescore>
     Score         DG    S(hbond)    S(metal)    S(lipo)     H(rot)  DE(clash)    DE(int)     intcor
     15.79     -17.18       1.43        0.00      88.95       1.36       0.05       1.34       ----

> <Gold.Chemscore.Fitness>
15.7882

> <Gold.Chemscore.DG>
-17.1804

> <Gold.Chemscore.ZeroCoef>
-5.4800

> <Gold.Chemscore.Hbond>
1.4270

> <Gold.Chemscore.Metal>
0.0000

> <Gold.Chemscore.Lipo>
88.9526

> <Gold.Chemscore.Internal_Hbond>
0.0000

> <Gold.Chemscore.DEClash>
0.0473

> <Gold.Chemscore.DEInternal>
1.3449

> <Gold.Chemscore.Rot>
1.3567

> <Gold.Chemscore.Internal.Correction>
   9.000000E+99

> <Gold.Chemscore.Hbonds>
donor molecule, donor type, donor heavy atom, donor atom, acceptor molecule, acceptor atom, score
      L1  H    11    29       P1  7948  0.65
      P1  H  6896  6909       L1     3  0.26

> <Gold.Chemscore.Hbond.Weighted>
-4.7660

> <Gold.Chemscore.Metal.Weighted>
-0.0000

> <Gold.Chemscore.Lipo.Weighted>
-10.4075

> <Gold.Chemscore.Internal_Hbond.Weighted>
0.0000

> <Gold.Chemscore.DEClash.Weighted>
0.0473

> <Gold.Chemscore.DEInternal.Weighted>
1.3449

> <Gold.Chemscore.Rot.Weighted>
3.4731

> <Gold.Chemscore.Internal.Correction.Weighted>
   9.000000E+99

> <Gold.Protein.RotatedTorsions>
[ 6907 6896 6895 6894 ] final  -42.88 input  -60.11 | X-H torsion
[ 7974 7965 7964 7962 ] final  114.84 input  175.53 | X-H torsion
[ 8008 7997 7996 7995 ] final   27.64 input   59.86 | X-H torsion
[ 10167 10162 10161 10158 ] final  138.65 input  -65.29 | X-H torsion
[ 10718 10713 10712 10709 ] final   -2.51 input   66.30 | X-H torsion
[ 10763 10752 10751 10750 ] final  -55.93 input  -60.55 | X-H torsion
[ 11005 11000 10999 10996 ] final   63.58 input  -57.11 | X-H torsion

> <Gold.Protein.ActiveResidues>
 VAL166  LYS551  ARG553  GLY616  TRP617  ASP618  TYR619  PRO620  LYS621  CYS622 
 ASP623  PHE694  ASN695  SER759  ASP760  ASP761  ALA762  ILE779  LEU786  VAL792 
 PHE793  MET794  SER795  GLU796  ALA797  LYS798  CYS799  TRP800  GLU811  SER814 

> <Gold.Protein.RotatedAtoms>
  150.9502  134.8903  159.7666 H   0  0  0  0  0  0  0  0  0  0  0  0  # atno 6907 bound_to 6896
  152.5116  134.3817  159.9363 H   0  0  0  0  0  0  0  0  0  0  0  0  # atno 6908 bound_to 6896
  151.3833  133.3773  159.2747 H   0  0  0  0  0  0  0  0  0  0  0  0  # atno 6909 bound_to 6896
  145.1994  139.2960  143.4326 H   0  0  0  0  0  0  0  0  0  0  0  0  # atno 7974 bound_to 7965
  155.0461  140.3174  155.4708 H   0  0  0  0  0  0  0  0  0  0  0  0  # atno 8008 bound_to 7997
  156.2844  140.2154  156.5529 H   0  0  0  0  0  0  0  0  0  0  0  0  # atno 8009 bound_to 7997
  154.7250  140.0486  157.0662 H   0  0  0  0  0  0  0  0  0  0  0  0  # atno 8010 bound_to 7997
  139.5104  144.6341  151.5743 H   0  0  0  0  0  0  0  0  0  0  0  0  # atno 10167 bound_to 10162
  156.7897  130.5357  149.5737 H   0  0  0  0  0  0  0  0  0  0  0  0  # atno 10718 bound_to 10713
  154.1986  135.6415  153.5080 H   0  0  0  0  0  0  0  0  0  0  0  0  # atno 10763 bound_to 10752
  153.0017  135.5446  154.6340 H   0  0  0  0  0  0  0  0  0  0  0  0  # atno 10764 bound_to 10752
  154.5747  135.2920  155.0766 H   0  0  0  0  0  0  0  0  0  0  0  0  # atno 10765 bound_to 10752
  140.0015  134.6435  155.9923 H   0  0  0  0  0  0  0  0  0  0  0  0  # atno 11005 bound_to 11000
  146.3420  140.2234  142.8592 LP  0  0  0  0  0  0  0  0  0  0  0  0  # atno 17320 bound_to 7965
  144.9962  140.8591  143.5309 LP  0  0  0  0  0  0  0  0  0  0  0  0  # atno 17321 bound_to 7965
  140.6084  143.9482  150.6435 LP  0  0  0  0  0  0  0  0  0  0  0  0  # atno 17342 bound_to 10162
  140.2717  143.3451  152.1232 LP  0  0  0  0  0  0  0  0  0  0  0  0  # atno 17343 bound_to 10162
  156.1166  130.6080  151.0130 LP  0  0  0  0  0  0  0  0  0  0  0  0  # atno 17370 bound_to 10713
  157.6606  131.0881  150.7846 LP  0  0  0  0  0  0  0  0  0  0  0  0  # atno 17371 bound_to 10713
  141.1645  133.6537  156.4433 LP  0  0  0  0  0  0  0  0  0  0  0  0  # atno 17394 bound_to 11000
  140.4719  134.6745  157.5133 LP  0  0  0  0  0  0  0  0  0  0  0  0  # atno 17395 bound_to 11000

$$$$
