AV-unprocessed.smi:72|AV-procd|sdf|709|dock5
  -GOLD-   2262017 33D 1   1.00000     0.00000
 Structure written by MMmdl.
 30 31  0  0  0  0  0  0  0  0  2 V2000
  148.6904  132.7397  154.8083 N   0  0  0  0  0  0  0  0  0  0  0  0
  149.1201  133.9243  155.3692 C   0  0  0  0  0  0  0  0  0  0  0  0
  149.1909  135.0353  154.5479 N   0  3  0  0  0  0  0  0  0  0  0  0
  149.5814  136.2571  154.9357 C   0  0  0  0  0  0  0  0  0  0  0  0
  149.9319  136.4476  156.1915 N   0  0  0  0  0  0  0  0  0  0  0  0
  150.3947  137.7949  156.6894 C   0  0  2  0  0  0  0  0  0  0  0  0
  149.6048  138.7810  156.0930 O   0  0  0  0  0  0  0  0  0  0  0  0
  150.3633  139.5024  155.1251 C   0  0  1  0  0  0  0  0  0  0  0  0
  149.7568  140.8994  154.9245 C   0  0  0  0  0  0  0  0  0  0  0  0
  149.3433  141.0542  153.5839 O   0  0  0  0  0  0  0  0  0  0  0  0
  151.7481  139.5164  155.7702 C   0  0  2  0  0  0  0  0  0  0  0  0
  152.7843  139.8554  154.8675 O   0  0  0  0  0  0  0  0  0  0  0  0
  151.8650  138.0993  156.3206 C   0  0  2  0  0  0  0  0  0  0  0  0
  152.4028  137.2020  155.3591 O   0  0  0  0  0  0  0  0  0  0  0  0
  149.9032  135.3645  157.1070 C   0  0  0  0  0  0  0  0  0  0  0  0
  150.2482  135.5286  158.2768 O   0  0  0  0  0  0  0  0  0  0  0  0
  149.4745  134.1258  156.6082 N   0  0  0  0  0  0  0  0  0  0  0  0
  150.1970  137.8091  157.7626 H   0  0  0  0  0  0  0  0  0  0  0  0
  150.4037  138.9505  154.1841 H   0  0  0  0  0  0  0  0  0  0  0  0
  151.7553  140.2265  156.5989 H   0  0  0  0  0  0  0  0  0  0  0  0
  152.4857  138.0646  157.2168 H   0  0  0  0  0  0  0  0  0  0  0  0
  148.6071  131.8790  155.3312 H   0  0  0  0  0  0  0  0  0  0  0  0
  148.4281  132.6372  153.8386 H   0  0  0  0  0  0  0  0  0  0  0  0
  149.6012  137.0595  154.2109 H   0  0  0  0  0  0  0  0  0  0  0  0
  148.9217  141.0733  155.6037 H   0  0  0  0  0  0  0  0  0  0  0  0
  150.5047  141.6667  155.1267 H   0  0  0  0  0  0  0  0  0  0  0  0
  149.2311  140.1962  153.2033 H   0  0  0  0  0  0  0  0  0  0  0  0
  152.9870  139.0962  154.3422 H   0  0  0  0  0  0  0  0  0  0  0  0
  152.5022  137.6649  154.5407 H   0  0  0  0  0  0  0  0  0  0  0  0
  148.9275  134.9130  153.5806 H   0  0  0  0  0  0  0  0  0  0  0  0
  1  2  1  0  0  0  0
  1 22  1  0  0  0  0
  1 23  1  0  0  0  0
  2 17  2  0  0  0  0
  2  3  1  0  0  0  0
  3  4  2  0  0  0  0
  3 30  1  0  0  0  0
  4  5  1  0  0  0  0
  4 24  1  0  0  0  0
  5  6  1  0  0  0  0
  5 15  1  0  0  0  0
  6 18  1  0  0  0  0
  6 13  1  0  0  0  0
  6  7  1  0  0  0  0
  7  8  1  0  0  0  0
  8 19  1  0  0  0  0
  8  9  1  0  0  0  0
  8 11  1  0  0  0  0
  9 10  1  0  0  0  0
  9 25  1  0  0  0  0
  9 26  1  0  0  0  0
 10 27  1  0  0  0  0
 11 20  1  0  0  0  0
 11 12  1  0  0  0  0
 11 13  1  0  0  0  0
 12 28  1  0  0  0  0
 13 21  1  0  0  0  0
 13 14  1  0  0  0  0
 14 29  1  0  0  0  0
 15 16  2  0  0  0  0
 15 17  1  0  0  0  0
M  CHG  1   3   1
M  END
> <s_m_source_file>
AV-unprocessed.smi

> <i_m_source_file_index>
72

> <i_lp_mmshare_version>
43012

> <i_f3d_flags>
0

> <s_epik_input>
W05IMl1jMW5bY0hdbihjKD1PKW4xKVtDQEBIXTJPW0NASF0oW0NIMl1bT0hdKVtDQEBIXShbT0hdKVtDQEhdMltPSF0=

> <s_epik_cmdline>
J2VwaWtfcHl0aG9uJywgJy1waCcsICc3LjAnLCAnLXRuJywgJzgnLCAnLW1hJywgJzIwMCcsICctbWV0YWxfYmluZGluZycsICctaW1hZScsICc8aW5maWxlLm1hZT4nLCAnLW9tYWUnLCAnPG91dGZpbGUubWFlPic=

> <r_lp_tautomer_probability>
4.77166e-05

> <r_epik_Ionization_Penalty>
0.104979

> <r_epik_Ionization_Penalty_Charging>
0.0999619

> <r_epik_Ionization_Penalty_Neutral>
0.00501745

> <r_epik_State_Penalty>
2.51541

> <r_epik_Charging_Adjusted_Penalty>
2.61537

> <i_epik_Tot_Q>
1

> <i_epik_Tot_abs_Q>
1

> <r_epik_Metal_State_Penalty>
3.53763

> <b_epik_Metal_Only>
0

> <s_epik_Chemistry_Notes>
This compound contains an acetal/aminal-like group ( X-CH(R)-Y where X, Y are N, S, or O) that may be acid/base labile, releasing an aldehyde.

> <s_lp_Force_Field>
OPLS_2005

> <r_lp_Energy>
36.649

> <b_lp_Chiralities_Consistent>
1

> <s_lp_Variant>
AV-unprocessed.smi:72-47

> <Gold.Version>
5.8.1

> <Gold.Id.Protein>
6NUR|6NUR_protein|mol2

> <Gold.PLP.Fitness>
37.4501

> <Gold.PLP.PLP>
-21.4021

> <Gold.PLP.part.hbond>
-8.0000

> <Gold.PLP.part.metal>
0.0000

> <Gold.PLP.part.buried>
-0.1839

> <Gold.PLP.part.nonpolar>
-12.5136

> <Gold.PLP.part.repulsive>
0.0212

> <Gold.PLP.ligand.clash>
0.0000

> <Gold.PLP.ligand.torsion>
1.3025

> <Gold.PLP.Chemscore.Hbond>
5.5949

> <Gold.PLP.Chemscore.CHOScore>
0.5830

> <Gold.PLP.Chemscore.Metal>
0.0000

> <Gold.Chemscore.Hbonds>
donor molecule, donor type, donor heavy atom, donor atom, acceptor molecule, acceptor atom, score
      L1  H     3    30       P1  7948  1.00
      L1  H    10    27       P1  7957  0.28
      P1  H  6896  6907       L1    16  0.80
      P1  H  7989  7998       L1    12  0.38
      P1  H  7997  8008       L1    12  1.00
      P1  H  8011  8017       L1    10  1.00
      P1  H 10752 10765       L1    14  0.66
      L1  C     4    24       P1  7948  0.61

> <Gold.PLP.Chemscore.Internal.Correction>
0.1194

> <Gold.Rescore>
     Score         DG    S(hbond)    S(metal)    S(lipo)     H(rot)  DE(clash)    DE(int)     intcor
      7.64      -9.56       3.44        0.00      25.98       4.08       0.47       1.45       ----

> <Gold.Chemscore.Fitness>
7.6378

> <Gold.Chemscore.DG>
-9.5570

> <Gold.Chemscore.ZeroCoef>
-5.4800

> <Gold.Chemscore.Hbond>
3.4365

> <Gold.Chemscore.Metal>
0.0000

> <Gold.Chemscore.Lipo>
25.9769

> <Gold.Chemscore.Internal_Hbond>
0.0000

> <Gold.Chemscore.DEClash>
0.4703

> <Gold.Chemscore.DEInternal>
1.4489

> <Gold.Chemscore.Rot>
4.0783

> <Gold.Chemscore.Internal.Correction>
   9.000000E+99

> <Gold.Chemscore.Hbonds>
donor molecule, donor type, donor heavy atom, donor atom, acceptor molecule, acceptor atom, score
      L1  H     3    30       P1  7948  0.20
      L1  H    10    27       P1  7957  0.27
      P1  H  6896  6907       L1    16  0.79
      P1  H  7989  7998       L1    12  0.02
      P1  H  7997  8008       L1    12  0.31
      P1  H  8011  8017       L1    10  0.85
      P1  H 10752 10765       L1    14  0.13

> <Gold.Chemscore.Hbond.Weighted>
-11.4781

> <Gold.Chemscore.Metal.Weighted>
-0.0000

> <Gold.Chemscore.Lipo.Weighted>
-3.0393

> <Gold.Chemscore.Internal_Hbond.Weighted>
0.0000

> <Gold.Chemscore.DEClash.Weighted>
0.4703

> <Gold.Chemscore.DEInternal.Weighted>
1.4489

> <Gold.Chemscore.Rot.Weighted>
10.4404

> <Gold.Chemscore.Internal.Correction.Weighted>
   9.000000E+99

> <Gold.Protein.RotatedTorsions>
[ 6907 6896 6895 6894 ] final  -73.20 input  -60.11 | X-H torsion
[ 7974 7965 7964 7962 ] final  108.65 input  175.53 | X-H torsion
[ 8008 7997 7996 7995 ] final  -16.93 input   59.86 | X-H torsion
[ 10167 10162 10161 10158 ] final -143.52 input  -65.29 | X-H torsion
[ 10718 10713 10712 10709 ] final  -76.22 input   66.30 | X-H torsion
[ 10763 10752 10751 10750 ] final -167.22 input  -60.55 | X-H torsion
[ 11005 11000 10999 10996 ] final  -18.27 input  -57.11 | X-H torsion

> <Gold.Protein.ActiveResidues>
 VAL166  LYS551  ARG553  GLY616  TRP617  ASP618  TYR619  PRO620  LYS621  CYS622 
 ASP623  PHE694  ASN695  SER759  ASP760  ASP761  ALA762  ILE779  LEU786  VAL792 
 PHE793  MET794  SER795  GLU796  ALA797  LYS798  CYS799  TRP800  GLU811  SER814 

> <Gold.Protein.RotatedAtoms>
  150.7139  134.5051  159.5580 H   0  0  0  0  0  0  0  0  0  0  0  0  # atno 6907 bound_to 6896
  152.2640  134.8001  160.0435 H   0  0  0  0  0  0  0  0  0  0  0  0  # atno 6908 bound_to 6896
  151.8704  133.3439  159.3770 H   0  0  0  0  0  0  0  0  0  0  0  0  # atno 6909 bound_to 6896
  145.2780  139.2643  143.3931 H   0  0  0  0  0  0  0  0  0  0  0  0  # atno 7974 bound_to 7965
  154.5016  140.2156  155.9335 H   0  0  0  0  0  0  0  0  0  0  0  0  # atno 8008 bound_to 7997
  156.1441  140.3174  155.8509 H   0  0  0  0  0  0  0  0  0  0  0  0  # atno 8009 bound_to 7997
  155.4064  140.0487  157.3025 H   0  0  0  0  0  0  0  0  0  0  0  0  # atno 8010 bound_to 7997
  139.7985  143.7866  152.2656 H   0  0  0  0  0  0  0  0  0  0  0  0  # atno 10167 bound_to 10162
  156.0182  130.4460  150.3161 H   0  0  0  0  0  0  0  0  0  0  0  0  # atno 10718 bound_to 10713
  154.6754  135.2946  154.9685 H   0  0  0  0  0  0  0  0  0  0  0  0  # atno 10763 bound_to 10752
  154.0698  135.6619  153.4827 H   0  0  0  0  0  0  0  0  0  0  0  0  # atno 10764 bound_to 10752
  153.0513  135.5172  154.7771 H   0  0  0  0  0  0  0  0  0  0  0  0  # atno 10765 bound_to 10752
  140.8252  133.8038  155.9700 H   0  0  0  0  0  0  0  0  0  0  0  0  # atno 11005 bound_to 11000
  146.3225  140.3240  142.8635 LP  0  0  0  0  0  0  0  0  0  0  0  0  # atno 17320 bound_to 7965
  144.9278  140.7940  143.5708 LP  0  0  0  0  0  0  0  0  0  0  0  0  # atno 17321 bound_to 7965
  139.7979  144.7385  150.9865 LP  0  0  0  0  0  0  0  0  0  0  0  0  # atno 17342 bound_to 10162
  140.7820  143.4375  151.0601 LP  0  0  0  0  0  0  0  0  0  0  0  0  # atno 17343 bound_to 10162
  157.1262  131.0259  151.2989 LP  0  0  0  0  0  0  0  0  0  0  0  0  # atno 17370 bound_to 10713
  157.4588  130.7641  149.7217 LP  0  0  0  0  0  0  0  0  0  0  0  0  # atno 17371 bound_to 10713
  140.9057  134.2323  157.5015 LP  0  0  0  0  0  0  0  0  0  0  0  0  # atno 17394 bound_to 11000
  139.8707  134.9727  156.4783 LP  0  0  0  0  0  0  0  0  0  0  0  0  # atno 17395 bound_to 11000

$$$$
