AV-unprocessed.smi:2923|AV-procd|sdf|11210|dock10
  -GOLD-   2272016103D 1   1.00000     0.00000
 Structure written by MMmdl.
 46 48  0  0  0  0  0  0  0  0  1 V2000
  152.2551  140.5601  157.8522 C   0  0  0  0  0  0  0  0  0  0  0  0
  151.3906  141.0829  156.8055 N   0  0  0  0  0  0  0  0  0  0  0  0
  150.6477  142.2918  157.1272 C   0  0  0  0  0  0  0  0  0  0  0  0
  150.5965  140.0942  156.2102 C   0  0  0  0  0  0  0  0  0  0  0  0
  149.6410  139.3694  156.9581 C   0  0  0  0  0  0  0  0  0  0  0  0
  148.8702  138.3887  156.3049 C   0  0  0  0  0  0  0  0  0  0  0  0
  149.0842  138.1584  154.9251 C   0  0  0  0  0  0  0  0  0  0  0  0
  148.3560  137.2179  154.1486 N   0  0  0  0  0  0  0  0  0  0  0  0
  147.2152  136.5795  154.4594 C   0  0  0  0  0  0  0  0  0  0  0  0
  146.6071  136.6810  155.5245 O   0  0  0  0  0  0  0  0  0  0  0  0
  146.8172  135.7886  153.4546 N   0  0  0  0  0  0  0  0  0  0  0  0
  145.6225  134.9382  153.4840 C   0  0  2  0  0  0  0  0  0  0  0  0
  145.6622  133.8368  152.4214 C   0  0  2  0  0  0  0  0  0  0  0  0
  146.7133  133.2050  151.5820 C   0  0  0  0  0  0  0  0  0  0  0  0
  145.8959  133.1409  150.2631 C   0  0  0  0  0  0  0  0  0  0  0  0
  144.6989  133.9270  150.4962 O   0  0  0  0  0  0  0  0  0  0  0  0
  145.0973  134.8718  151.4699 C   0  0  1  0  0  0  0  0  0  0  0  0
  144.3714  135.4859  152.6876 C   0  0  0  0  0  0  0  0  0  0  0  0
  142.9936  134.9023  153.0501 C   0  0  0  0  0  0  0  0  0  0  0  0
  144.1799  137.0060  152.6417 C   0  0  0  0  0  0  0  0  0  0  0  0
  150.0546  138.9452  154.2711 C   0  0  0  0  0  0  0  0  0  0  0  0
  150.7979  139.8857  154.8912 N   0  0  0  0  0  0  0  0  0  0  0  0
  152.7650  139.6551  157.5193 H   0  0  0  0  0  0  0  0  0  0  0  0
  151.6834  140.3234  158.7501 H   0  0  0  0  0  0  0  0  0  0  0  0
  153.0147  141.2966  158.1147 H   0  0  0  0  0  0  0  0  0  0  0  0
  150.0443  142.6142  156.2775 H   0  0  0  0  0  0  0  0  0  0  0  0
  151.3350  143.1003  157.3770 H   0  0  0  0  0  0  0  0  0  0  0  0
  149.9862  142.1312  157.9790 H   0  0  0  0  0  0  0  0  0  0  0  0
  149.4948  139.5616  158.0109 H   0  0  0  0  0  0  0  0  0  0  0  0
  148.1258  137.8487  156.8689 H   0  0  0  0  0  0  0  0  0  0  0  0
  148.7807  136.9641  153.2686 H   0  0  0  0  0  0  0  0  0  0  0  0
  147.3776  135.7615  152.6155 H   0  0  0  0  0  0  0  0  0  0  0  0
  145.3735  134.5595  154.4768 H   0  0  0  0  0  0  0  0  0  0  0  0
  144.9325  133.0712  152.6957 H   0  0  0  0  0  0  0  0  0  0  0  0
  147.5995  133.8334  151.4852 H   0  0  0  0  0  0  0  0  0  0  0  0
  147.0094  132.2191  151.9411 H   0  0  0  0  0  0  0  0  0  0  0  0
  146.4675  133.5562  149.4319 H   0  0  0  0  0  0  0  0  0  0  0  0
  145.6174  132.1188  150.0051 H   0  0  0  0  0  0  0  0  0  0  0  0
  145.8467  135.5528  151.0533 H   0  0  0  0  0  0  0  0  0  0  0  0
  142.2627  135.1034  152.2662 H   0  0  0  0  0  0  0  0  0  0  0  0
  142.6091  135.3389  153.9724 H   0  0  0  0  0  0  0  0  0  0  0  0
  143.0023  133.8242  153.2006 H   0  0  0  0  0  0  0  0  0  0  0  0
  143.3599  137.2875  151.9804 H   0  0  0  0  0  0  0  0  0  0  0  0
  145.0684  137.5198  152.2746 H   0  0  0  0  0  0  0  0  0  0  0  0
  143.9593  137.4086  153.6308 H   0  0  0  0  0  0  0  0  0  0  0  0
  150.2454  138.8149  153.2158 H   0  0  0  0  0  0  0  0  0  0  0  0
  1  2  1  0  0  0  0
  1 23  1  0  0  0  0
  1 24  1  0  0  0  0
  1 25  1  0  0  0  0
  2  3  1  0  0  0  0
  2  4  1  0  0  0  0
  3 26  1  0  0  0  0
  3 27  1  0  0  0  0
  3 28  1  0  0  0  0
  4 22  1  0  0  0  0
  4  5  2  0  0  0  0
  5  6  1  0  0  0  0
  5 29  1  0  0  0  0
  6  7  2  0  0  0  0
  6 30  1  0  0  0  0
  7  8  1  0  0  0  0
  7 21  1  0  0  0  0
  8  9  1  0  0  0  0
  8 31  1  0  0  0  0
  9 10  2  0  0  0  0
  9 11  1  0  0  0  0
 11 12  1  0  0  0  0
 11 32  1  0  0  0  0
 12 18  1  0  0  0  0
 12 13  1  0  0  0  0
 12 33  1  0  0  0  0
 13 17  1  0  0  0  0
 13 14  1  0  0  0  0
 13 34  1  0  0  0  0
 14 15  1  0  0  0  0
 14 35  1  0  0  0  0
 14 36  1  0  0  0  0
 15 16  1  0  0  0  0
 15 37  1  0  0  0  0
 15 38  1  0  0  0  0
 16 17  1  0  0  0  0
 17 18  1  0  0  0  0
 17 39  1  0  0  0  0
 18 19  1  0  0  0  0
 18 20  1  0  0  0  0
 19 40  1  0  0  0  0
 19 41  1  0  0  0  0
 19 42  1  0  0  0  0
 20 43  1  0  0  0  0
 20 44  1  0  0  0  0
 20 45  1  0  0  0  0
 21 22  2  0  0  0  0
 21 46  1  0  0  0  0
M  END
> <s_m_source_file>
AV-unprocessed.smi

> <i_m_source_file_index>
2923

> <i_lp_mmshare_version>
43012

> <i_f3d_flags>
0

> <s_epik_input>
W0NIM11OKFtDSDNdKWMxW2NIXVtjSF1jKFtjSF1uMSlbTkhdQyg9TylbTkhdW0NASF0yQyhbQ0gzXSkoW0NIM10pW0NAQEhdKFtDQEhdMjMpT1tDSDJdW0NIMl0z

> <s_epik_cmdline>
J2VwaWtfcHl0aG9uJywgJy1waCcsICc3LjAnLCAnLXRuJywgJzgnLCAnLW1hJywgJzIwMCcsICctbWV0YWxfYmluZGluZycsICctaW1hZScsICc8aW5maWxlLm1hZT4nLCAnLW9tYWUnLCAnPG91dGZpbGUubWFlPic=

> <r_lp_tautomer_probability>
1

> <r_epik_Ionization_Penalty>
0.628785

> <r_epik_Ionization_Penalty_Charging>
0

> <r_epik_Ionization_Penalty_Neutral>
0.628785

> <r_epik_State_Penalty>
0.644286

> <r_epik_Charging_Adjusted_Penalty>
0.644286

> <i_epik_Tot_Q>
0

> <i_epik_Tot_abs_Q>
0

> <r_epik_Metal_State_Penalty>
0.308404

> <b_epik_Metal_Only>
0

> <s_lp_Force_Field>
OPLS_2005

> <r_lp_Energy>
70.0189

> <b_lp_Chiralities_Consistent>
1

> <s_lp_Variant>
AV-unprocessed.smi:2923-9

> <Gold.Version>
5.8.1

> <Gold.Id.Protein>
6NUR|6NUR_protein|mol2

> <Gold.PLP.Fitness>
39.4833

> <Gold.PLP.PLP>
-28.0504

> <Gold.PLP.part.hbond>
-3.0000

> <Gold.PLP.part.metal>
0.0000

> <Gold.PLP.part.buried>
-4.0331

> <Gold.PLP.part.nonpolar>
-21.6452

> <Gold.PLP.part.repulsive>
0.2546

> <Gold.PLP.ligand.clash>
0.0000

> <Gold.PLP.ligand.torsion>
0.4347

> <Gold.PLP.Chemscore.Hbond>
2.9440

> <Gold.PLP.Chemscore.CHOScore>
1.0000

> <Gold.PLP.Chemscore.Metal>
0.0000

> <Gold.Chemscore.Hbonds>
donor molecule, donor type, donor heavy atom, donor atom, acceptor molecule, acceptor atom, score
      L1  H     8    31       P1  7948  1.00
      L1  H    11    32       P1  7948  0.93
      P1  H  7989  7998       L1    22  1.00
      L1  C    21    46       P1  7957  1.00

> <Gold.PLP.Chemscore.Internal.Correction>
0.4702

> <Gold.Rescore>
     Score         DG    S(hbond)    S(metal)    S(lipo)     H(rot)  DE(clash)    DE(int)     intcor
     17.51     -19.10       2.71        0.00      65.23       1.19       0.02       1.57       ----

> <Gold.Chemscore.Fitness>
17.5079

> <Gold.Chemscore.DG>
-19.1009

> <Gold.Chemscore.ZeroCoef>
-5.4800

> <Gold.Chemscore.Hbond>
2.7082

> <Gold.Chemscore.Metal>
0.0000

> <Gold.Chemscore.Lipo>
65.2256

> <Gold.Chemscore.Internal_Hbond>
0.0000

> <Gold.Chemscore.DEClash>
0.0188

> <Gold.Chemscore.DEInternal>
1.5742

> <Gold.Chemscore.Rot>
1.1937

> <Gold.Chemscore.Internal.Correction>
   9.000000E+99

> <Gold.Chemscore.Hbonds>
donor molecule, donor type, donor heavy atom, donor atom, acceptor molecule, acceptor atom, score
      L1  H     8    31       P1  7948  0.97
      L1  H    11    32       P1  7948  0.91
      P1  H  7989  7998       L1    22  0.50

> <Gold.Chemscore.Hbond.Weighted>
-9.0454

> <Gold.Chemscore.Metal.Weighted>
-0.0000

> <Gold.Chemscore.Lipo.Weighted>
-7.6314

> <Gold.Chemscore.Internal_Hbond.Weighted>
0.0000

> <Gold.Chemscore.DEClash.Weighted>
0.0188

> <Gold.Chemscore.DEInternal.Weighted>
1.5742

> <Gold.Chemscore.Rot.Weighted>
3.0559

> <Gold.Chemscore.Internal.Correction.Weighted>
   9.000000E+99

> <Gold.Protein.RotatedTorsions>
[ 6907 6896 6895 6894 ] final   70.81 input  -60.11 | X-H torsion
[ 7974 7965 7964 7962 ] final -156.02 input  175.53 | X-H torsion
[ 8008 7997 7996 7995 ] final -103.14 input   59.86 | X-H torsion
[ 10167 10162 10161 10158 ] final   55.55 input  -65.29 | X-H torsion
[ 10718 10713 10712 10709 ] final   81.37 input   66.30 | X-H torsion
[ 10763 10752 10751 10750 ] final  -17.95 input  -60.55 | X-H torsion
[ 11005 11000 10999 10996 ] final  -21.92 input  -57.11 | X-H torsion

> <Gold.Protein.ActiveResidues>
 VAL166  LYS551  ARG553  GLY616  TRP617  ASP618  TYR619  PRO620  LYS621  CYS622 
 ASP623  PHE694  ASN695  SER759  ASP760  ASP761  ALA762  ILE779  LEU786  VAL792 
 PHE793  MET794  SER795  GLU796  ALA797  LYS798  CYS799  TRP800  GLU811  SER814 

> <Gold.Protein.RotatedAtoms>
  152.4772  134.4812  159.9666 H   0  0  0  0  0  0  0  0  0  0  0  0  # atno 6907 bound_to 6896
  151.4826  133.3537  159.2848 H   0  0  0  0  0  0  0  0  0  0  0  0  # atno 6908 bound_to 6896
  150.8819  134.8238  159.7292 H   0  0  0  0  0  0  0  0  0  0  0  0  # atno 6909 bound_to 6896
  144.7613  140.4168  143.5975 H   0  0  0  0  0  0  0  0  0  0  0  0  # atno 7974 bound_to 7965
  154.8667  140.0424  157.1699 H   0  0  0  0  0  0  0  0  0  0  0  0  # atno 8008 bound_to 7997
  154.8783  140.2968  155.5420 H   0  0  0  0  0  0  0  0  0  0  0  0  # atno 8009 bound_to 7997
  156.2999  140.2416  156.3782 H   0  0  0  0  0  0  0  0  0  0  0  0  # atno 8010 bound_to 7997
  140.2183  144.3816  150.6461 H   0  0  0  0  0  0  0  0  0  0  0  0  # atno 10167 bound_to 10162
  157.6831  131.0001  150.2216 H   0  0  0  0  0  0  0  0  0  0  0  0  # atno 10718 bound_to 10713
  153.5818  135.7005  153.5460 H   0  0  0  0  0  0  0  0  0  0  0  0  # atno 10763 bound_to 10752
  153.3254  135.4062  155.1451 H   0  0  0  0  0  0  0  0  0  0  0  0  # atno 10764 bound_to 10752
  154.8616  135.3706  154.5346 H   0  0  0  0  0  0  0  0  0  0  0  0  # atno 10765 bound_to 10752
  140.8608  133.7790  156.0072 H   0  0  0  0  0  0  0  0  0  0  0  0  # atno 11005 bound_to 11000
  145.6612  139.1582  143.2807 LP  0  0  0  0  0  0  0  0  0  0  0  0  # atno 17320 bound_to 7965
  146.1678  140.6692  142.9247 LP  0  0  0  0  0  0  0  0  0  0  0  0  # atno 17321 bound_to 7965
  140.6274  143.2183  151.6568 LP  0  0  0  0  0  0  0  0  0  0  0  0  # atno 17342 bound_to 10162
  139.5154  144.3380  152.0766 LP  0  0  0  0  0  0  0  0  0  0  0  0  # atno 17343 bound_to 10162
  156.2866  130.3740  149.7882 LP  0  0  0  0  0  0  0  0  0  0  0  0  # atno 17370 bound_to 10713
  156.5554  130.8360  151.3312 LP  0  0  0  0  0  0  0  0  0  0  0  0  # atno 17371 bound_to 10713
  140.8685  134.2755  157.5202 LP  0  0  0  0  0  0  0  0  0  0  0  0  # atno 17394 bound_to 11000
  139.8707  134.9555  156.4208 LP  0  0  0  0  0  0  0  0  0  0  0  0  # atno 17395 bound_to 11000

$$$$
