AV-unprocessed.smi:284|AV-procd|sdf|2161|dock8
  -GOLD-   2262021513D 1   1.00000     0.00000
 Structure written by MMmdl.
 60 62  0  0  0  0  0  0  0  0  1 V2000
  153.8416  134.0507  165.9768 C   0  0  0  0  0  0  0  0  0  0  0  0
  154.1901  134.5217  164.5733 C   0  0  0  0  0  0  0  0  0  0  0  0
  154.1841  133.6845  163.5107 C   0  0  0  0  0  0  0  0  0  0  0  0
  154.4921  134.0767  162.2193 N   0  0  0  0  0  0  0  0  0  0  0  0
  154.5627  133.0800  161.0775 C   0  0  2  0  0  0  0  0  0  0  0  0
  155.9238  133.0197  160.3688 C   0  0  0  0  0  0  0  0  0  0  0  0
  155.6317  133.7094  159.0478 C   0  0  1  0  0  0  0  0  0  0  0  0
  156.4623  133.2018  158.0231 O   0  0  0  0  0  0  0  0  0  0  0  0
  154.1549  133.3717  158.8246 C   0  0  2  0  0  0  0  0  0  0  0  0
  153.4322  134.3621  157.8990 C   0  0  0  0  0  0  0  0  0  0  0  0
  152.9345  135.4512  158.6463 O   0  0  0  0  0  0  0  0  0  0  0  0
  153.6022  133.4462  160.1354 O   0  0  0  0  0  0  0  0  0  0  0  0
  154.9418  135.3958  161.9924 C   0  0  0  0  0  0  0  0  0  0  0  0
  155.3299  135.7515  160.8772 O   0  0  0  0  0  0  0  0  0  0  0  0
  154.9354  136.3033  163.0759 N   0  0  0  0  0  0  0  0  0  0  0  0
  155.3723  137.6972  162.8353 C   0  0  0  0  0  0  0  0  0  0  0  0
  154.4012  138.5120  161.9656 C   0  0  0  0  0  0  0  0  0  0  0  0
  153.4813  137.9557  161.3644 O   0  0  0  0  0  0  0  0  0  0  0  0
  154.6645  139.8301  161.9054 N   0  0  0  0  0  0  0  0  0  0  0  0
  153.9568  140.8498  161.2130 C   0  0  0  0  0  0  0  0  0  0  0  0
  153.3240  140.6572  159.9633 C   0  0  0  0  0  0  0  0  0  0  0  0
  152.6195  141.7118  159.3506 C   0  0  0  0  0  0  0  0  0  0  0  0
  152.5212  142.9812  159.9721 C   0  0  0  0  0  0  0  0  0  0  0  0
  151.7567  144.1568  159.3336 C   0  0  0  0  0  0  0  0  0  0  0  0
  151.8756  145.4010  160.2378 C   0  0  0  0  0  0  0  0  0  0  0  0
  150.2525  143.8622  159.1360 C   0  0  0  0  0  0  0  0  0  0  0  0
  152.3554  144.4756  157.9474 C   0  0  0  0  0  0  0  0  0  0  0  0
  153.1454  143.1562  161.2295 C   0  0  0  0  0  0  0  0  0  0  0  0
  153.8497  142.1040  161.8439 C   0  0  0  0  0  0  0  0  0  0  0  0
  154.5628  135.9250  164.3883 C   0  0  0  0  0  0  0  0  0  0  0  0
  154.5761  136.7463  165.3073 O   0  0  0  0  0  0  0  0  0  0  0  0
  153.5727  132.9942  165.9968 H   0  0  0  0  0  0  0  0  0  0  0  0
  152.9963  134.6164  166.3700 H   0  0  0  0  0  0  0  0  0  0  0  0
  154.6901  134.1913  166.6473 H   0  0  0  0  0  0  0  0  0  0  0  0
  153.9336  132.6535  163.7000 H   0  0  0  0  0  0  0  0  0  0  0  0
  154.3256  132.1045  161.5039 H   0  0  0  0  0  0  0  0  0  0  0  0
  156.7358  133.4595  160.9478 H   0  0  0  0  0  0  0  0  0  0  0  0
  156.1633  131.9676  160.2050 H   0  0  0  0  0  0  0  0  0  0  0  0
  155.7691  134.7871  159.1366 H   0  0  0  0  0  0  0  0  0  0  0  0
  156.4576  132.2578  158.0702 H   0  0  0  0  0  0  0  0  0  0  0  0
  154.0654  132.3463  158.4592 H   0  0  0  0  0  0  0  0  0  0  0  0
  154.0902  134.7137  157.1036 H   0  0  0  0  0  0  0  0  0  0  0  0
  152.5789  133.8786  157.4230 H   0  0  0  0  0  0  0  0  0  0  0  0
  153.3561  135.4537  159.4921 H   0  0  0  0  0  0  0  0  0  0  0  0
  155.5184  138.2238  163.7800 H   0  0  0  0  0  0  0  0  0  0  0  0
  156.3575  137.7256  162.3671 H   0  0  0  0  0  0  0  0  0  0  0  0
  155.5085  140.1306  162.3705 H   0  0  0  0  0  0  0  0  0  0  0  0
  153.3506  139.7033  159.4600 H   0  0  0  0  0  0  0  0  0  0  0  0
  152.1560  141.5111  158.3975 H   0  0  0  0  0  0  0  0  0  0  0  0
  151.3294  146.2481  159.8214 H   0  0  0  0  0  0  0  0  0  0  0  0
  152.9105  145.7196  160.3639 H   0  0  0  0  0  0  0  0  0  0  0  0
  151.4693  145.2062  161.2310 H   0  0  0  0  0  0  0  0  0  0  0  0
  149.7510  143.6655  160.0844 H   0  0  0  0  0  0  0  0  0  0  0  0
  150.0920  143.0034  158.4830 H   0  0  0  0  0  0  0  0  0  0  0  0
  149.7413  144.7098  158.6780 H   0  0  0  0  0  0  0  0  0  0  0  0
  151.8186  145.2912  157.4617 H   0  0  0  0  0  0  0  0  0  0  0  0
  152.3023  143.6099  157.2863 H   0  0  0  0  0  0  0  0  0  0  0  0
  153.4009  144.7771  158.0095 H   0  0  0  0  0  0  0  0  0  0  0  0
  153.0874  144.1055  161.7404 H   0  0  0  0  0  0  0  0  0  0  0  0
  154.3135  142.2679  162.8057 H   0  0  0  0  0  0  0  0  0  0  0  0
  1  2  1  0  0  0  0
  1 32  1  0  0  0  0
  1 33  1  0  0  0  0
  1 34  1  0  0  0  0
  2 30  1  0  0  0  0
  2  3  2  0  0  0  0
  3  4  1  0  0  0  0
  3 35  1  0  0  0  0
  4  5  1  0  0  0  0
  4 13  1  0  0  0  0
  5 12  1  0  0  0  0
  5  6  1  0  0  0  0
  5 36  1  0  0  0  0
  6  7  1  0  0  0  0
  6 37  1  0  0  0  0
  6 38  1  0  0  0  0
  7  8  1  0  0  0  0
  7  9  1  0  0  0  0
  7 39  1  0  0  0  0
  8 40  1  0  0  0  0
  9 10  1  0  0  0  0
  9 12  1  0  0  0  0
  9 41  1  0  0  0  0
 10 11  1  0  0  0  0
 10 42  1  0  0  0  0
 10 43  1  0  0  0  0
 11 44  1  0  0  0  0
 13 14  2  0  0  0  0
 13 15  1  0  0  0  0
 15 16  1  0  0  0  0
 15 30  1  0  0  0  0
 16 17  1  0  0  0  0
 16 45  1  0  0  0  0
 16 46  1  0  0  0  0
 17 18  2  0  0  0  0
 17 19  1  0  0  0  0
 19 20  1  0  0  0  0
 19 47  1  0  0  0  0
 20 29  1  0  0  0  0
 20 21  2  0  0  0  0
 21 22  1  0  0  0  0
 21 48  1  0  0  0  0
 22 23  2  0  0  0  0
 22 49  1  0  0  0  0
 23 24  1  0  0  0  0
 23 28  1  0  0  0  0
 24 25  1  0  0  0  0
 24 26  1  0  0  0  0
 24 27  1  0  0  0  0
 25 50  1  0  0  0  0
 25 51  1  0  0  0  0
 25 52  1  0  0  0  0
 26 53  1  0  0  0  0
 26 54  1  0  0  0  0
 26 55  1  0  0  0  0
 27 56  1  0  0  0  0
 27 57  1  0  0  0  0
 27 58  1  0  0  0  0
 28 29  2  0  0  0  0
 28 59  1  0  0  0  0
 29 60  1  0  0  0  0
 30 31  2  0  0  0  0
M  END
> <s_m_source_file>
AV-unprocessed.smi

> <i_m_source_file_index>
284

> <i_lp_mmshare_version>
43012

> <i_f3d_flags>
0

> <s_epik_input>
W09IXVtDSDJdW0NAQEhdKE8xKVtDQEhdKFtPSF0pW0NIMl1bQ0BIXTFuKFtjSF1jMltDSDNdKWMoPU8pbihjMj1PKVtDSDJdQyg9TylbTkhdYzNbY0hdW2NIXWMoQyhbQ0gzXSkoW0NIM10pW0NIM10pW2NIXVtjSF0z

> <s_epik_cmdline>
J2VwaWtfcHl0aG9uJywgJy1waCcsICc3LjAnLCAnLXRuJywgJzgnLCAnLW1hJywgJzIwMCcsICctbWV0YWxfYmluZGluZycsICctaW1hZScsICc8aW5maWxlLm1hZT4nLCAnLW9tYWUnLCAnPG91dGZpbGUubWFlPic=

> <r_lp_tautomer_probability>
1

> <r_epik_Ionization_Penalty>
4.92358e-06

> <r_epik_Ionization_Penalty_Charging>
1.29777e-07

> <r_epik_Ionization_Penalty_Neutral>
4.79381e-06

> <r_epik_State_Penalty>
-0

> <r_epik_Charging_Adjusted_Penalty>
1.29777e-07

> <i_epik_Tot_Q>
0

> <i_epik_Tot_abs_Q>
0

> <r_epik_Metal_State_Penalty>
-0

> <b_epik_Metal_Only>
0

> <s_epik_Chemistry_Notes>
This compound contains an acetal/aminal-like group ( X-CH(R)-Y where X, Y are N, S, or O) that may be acid/base labile, releasing an aldehyde.

> <s_lp_Force_Field>
OPLS_2005

> <r_lp_Energy>
40.5501

> <b_lp_Chiralities_Consistent>
1

> <s_lp_Variant>
AV-unprocessed.smi:284-5

> <Gold.Version>
5.8.1

> <Gold.Id.Protein>
6NUR|6NUR_protein|mol2

> <Gold.PLP.Fitness>
55.9895

> <Gold.PLP.PLP>
-54.5922

> <Gold.PLP.part.hbond>
-1.3515

> <Gold.PLP.part.metal>
0.0000

> <Gold.PLP.part.buried>
-5.6108

> <Gold.PLP.part.nonpolar>
-50.0117

> <Gold.PLP.part.repulsive>
2.4449

> <Gold.PLP.ligand.clash>
0.0000

> <Gold.PLP.ligand.torsion>
0.9191

> <Gold.PLP.Chemscore.Hbond>
1.0000

> <Gold.PLP.Chemscore.CHOScore>
0.0000

> <Gold.PLP.Chemscore.Metal>
0.0000

> <Gold.Chemscore.Hbonds>
donor molecule, donor type, donor heavy atom, donor atom, acceptor molecule, acceptor atom, score
      P1  H  6896  6909       L1    12  0.08

> <Gold.PLP.Chemscore.Internal.Correction>
0.2356

> <Gold.Rescore>
     Score         DG    S(hbond)    S(metal)    S(lipo)     H(rot)  DE(clash)    DE(int)     intcor
     10.72     -17.82       0.99        0.00     148.74       3.27       1.61       5.50       ----

> <Gold.Chemscore.Fitness>
10.7155

> <Gold.Chemscore.DG>
-17.8208

> <Gold.Chemscore.ZeroCoef>
-5.4800

> <Gold.Chemscore.Hbond>
0.9936

> <Gold.Chemscore.Metal>
0.0000

> <Gold.Chemscore.Lipo>
148.7375

> <Gold.Chemscore.Internal_Hbond>
0.0000

> <Gold.Chemscore.DEClash>
1.6058

> <Gold.Chemscore.DEInternal>
5.4995

> <Gold.Chemscore.Rot>
3.2735

> <Gold.Chemscore.Internal.Correction>
   9.000000E+99

> <Gold.Chemscore.Hbonds>
donor molecule, donor type, donor heavy atom, donor atom, acceptor molecule, acceptor atom, score
      P1  H  6896  6909       L1    12  0.01

> <Gold.Chemscore.Hbond.Weighted>
-3.3186

> <Gold.Chemscore.Metal.Weighted>
-0.0000

> <Gold.Chemscore.Lipo.Weighted>
-17.4023

> <Gold.Chemscore.Internal_Hbond.Weighted>
0.0000

> <Gold.Chemscore.DEClash.Weighted>
1.6058

> <Gold.Chemscore.DEInternal.Weighted>
5.4995

> <Gold.Chemscore.Rot.Weighted>
8.3801

> <Gold.Chemscore.Internal.Correction.Weighted>
   9.000000E+99

> <Gold.Protein.RotatedTorsions>
[ 6907 6896 6895 6894 ] final -132.18 input  -60.11 | X-H torsion
[ 7974 7965 7964 7962 ] final   46.54 input  175.53 | X-H torsion
[ 8008 7997 7996 7995 ] final  121.56 input   59.86 | X-H torsion
[ 10167 10162 10161 10158 ] final  -38.43 input  -65.29 | X-H torsion
[ 10718 10713 10712 10709 ] final -155.11 input   66.30 | X-H torsion
[ 10763 10752 10751 10750 ] final -142.17 input  -60.55 | X-H torsion
[ 11005 11000 10999 10996 ] final  -97.68 input  -57.11 | X-H torsion

> <Gold.Protein.ActiveResidues>
 VAL166  LYS551  ARG553  GLY616  TRP617  ASP618  TYR619  PRO620  LYS621  CYS622 
 ASP623  PHE694  ASN695  SER759  ASP760  ASP761  ALA762  ILE779  LEU786  VAL792 
 PHE793  MET794  SER795  GLU796  ALA797  LYS798  CYS799  TRP800  GLU811  SER814 

> <Gold.Protein.RotatedAtoms>
  150.9594  133.6462  159.2756 H   0  0  0  0  0  0  0  0  0  0  0  0  # atno 6907 bound_to 6896
  151.3790  135.0935  159.9499 H   0  0  0  0  0  0  0  0  0  0  0  0  # atno 6908 bound_to 6896
  152.5142  133.9132  159.7553 H   0  0  0  0  0  0  0  0  0  0  0  0  # atno 6909 bound_to 6896
  146.0380  139.4844  142.9796 H   0  0  0  0  0  0  0  0  0  0  0  0  # atno 7974 bound_to 7965
  156.2692  140.2805  156.1328 H   0  0  0  0  0  0  0  0  0  0  0  0  # atno 8008 bound_to 7997
  155.1036  140.0390  157.2721 H   0  0  0  0  0  0  0  0  0  0  0  0  # atno 8009 bound_to 7997
  154.6796  140.2606  155.6928 H   0  0  0  0  0  0  0  0  0  0  0  0  # atno 8010 bound_to 7997
  140.7092  143.3277  151.2640 H   0  0  0  0  0  0  0  0  0  0  0  0  # atno 10167 bound_to 10162
  156.5084  130.8424  151.2637 H   0  0  0  0  0  0  0  0  0  0  0  0  # atno 10718 bound_to 10713
  154.8519  135.3503  154.5985 H   0  0  0  0  0  0  0  0  0  0  0  0  # atno 10763 bound_to 10752
  153.6594  135.6990  153.5187 H   0  0  0  0  0  0  0  0  0  0  0  0  # atno 10764 bound_to 10752
  153.2830  135.4258  155.1053 H   0  0  0  0  0  0  0  0  0  0  0  0  # atno 10765 bound_to 10752
  141.1371  133.8188  157.0738 H   0  0  0  0  0  0  0  0  0  0  0  0  # atno 11005 bound_to 11000
  145.6932  141.0158  143.1544 LP  0  0  0  0  0  0  0  0  0  0  0  0  # atno 17320 bound_to 7965
  144.7061  139.8557  143.7429 LP  0  0  0  0  0  0  0  0  0  0  0  0  # atno 17321 bound_to 7965
  139.6751  143.9952  152.2776 LP  0  0  0  0  0  0  0  0  0  0  0  0  # atno 17342 bound_to 10162
  139.9564  144.6587  150.8122 LP  0  0  0  0  0  0  0  0  0  0  0  0  # atno 17343 bound_to 10162
  157.7454  130.9958  150.2756 LP  0  0  0  0  0  0  0  0  0  0  0  0  # atno 17370 bound_to 10713
  156.3264  130.3793  149.7529 LP  0  0  0  0  0  0  0  0  0  0  0  0  # atno 17371 bound_to 10713
  140.0494  134.9813  157.1109 LP  0  0  0  0  0  0  0  0  0  0  0  0  # atno 17394 bound_to 11000
  140.4012  134.2080  155.7163 LP  0  0  0  0  0  0  0  0  0  0  0  0  # atno 17395 bound_to 11000

$$$$
