AV-unprocessed.smi:2740|AV-procd|sdf|10555|dock10
  -GOLD-   2272015 03D 1   1.00000     0.00000
 Structure written by MMmdl.
 31 32  0  0  0  0  0  0  0  0  1 V2000
  153.6233  142.4933  162.0574 C   0  0  0  0  0  0  0  0  0  0  0  0
  152.8992  143.0101  160.8605 C   0  0  0  0  0  0  0  0  0  0  0  0
  152.6923  144.3217  160.5065 C   0  0  0  0  0  0  0  0  0  0  0  0
  151.9749  144.4809  159.3185 N   0  0  0  0  0  0  0  0  0  0  0  0
  151.6389  143.3062  158.7745 C   0  0  0  0  0  0  0  0  0  0  0  0
  150.9129  143.1619  157.5629 N   0  0  0  0  0  0  0  0  0  0  0  0
  150.6547  142.0339  156.8783 C   0  0  0  0  0  0  0  0  0  0  0  0
  151.0333  140.9065  157.1968 O   0  0  0  0  0  0  0  0  0  0  0  0
  149.9243  142.2881  155.7828 N   0  0  0  0  0  0  0  0  0  0  0  0
  149.4712  141.2909  154.8179 C   0  0  0  0  0  0  0  0  0  0  0  0
  147.9590  141.3928  154.5548 C   0  0  1  0  0  0  0  0  0  0  0  0
  147.0683  141.0970  155.7623 C   0  0  0  0  0  0  0  0  0  0  0  0
  145.8090  141.8512  155.4039 C   0  0  0  0  0  0  0  0  0  0  0  0
  146.3758  143.1064  154.7475 C   0  0  0  0  0  0  0  0  0  0  0  0
  147.6172  142.7197  154.1624 O   0  0  0  0  0  0  0  0  0  0  0  0
  152.1855  141.9175  159.7011 S   0  0  0  0  0  0  0  0  0  0  0  0
  154.2170  143.2785  162.5260 H   0  0  0  0  0  0  0  0  0  0  0  0
  154.2981  141.6822  161.7827 H   0  0  0  0  0  0  0  0  0  0  0  0
  152.9209  142.1132  162.7992 H   0  0  0  0  0  0  0  0  0  0  0  0
  153.0213  145.2020  161.0389 H   0  0  0  0  0  0  0  0  0  0  0  0
  150.5398  144.0165  157.1769 H   0  0  0  0  0  0  0  0  0  0  0  0
  149.6587  143.2448  155.6008 H   0  0  0  0  0  0  0  0  0  0  0  0
  150.0282  141.3668  153.8825 H   0  0  0  0  0  0  0  0  0  0  0  0
  149.7012  140.3072  155.2280 H   0  0  0  0  0  0  0  0  0  0  0  0
  147.6792  140.7309  153.7336 H   0  0  0  0  0  0  0  0  0  0  0  0
  146.9000  140.0308  155.9174 H   0  0  0  0  0  0  0  0  0  0  0  0
  147.5027  141.5117  156.6730 H   0  0  0  0  0  0  0  0  0  0  0  0
  145.2229  141.2802  154.6825 H   0  0  0  0  0  0  0  0  0  0  0  0
  145.1773  142.0678  156.2658 H   0  0  0  0  0  0  0  0  0  0  0  0
  145.6986  143.5268  154.0036 H   0  0  0  0  0  0  0  0  0  0  0  0
  146.5718  143.8728  155.4982 H   0  0  0  0  0  0  0  0  0  0  0  0
  1  2  1  0  0  0  0
  1 17  1  0  0  0  0
  1 18  1  0  0  0  0
  1 19  1  0  0  0  0
  2 16  1  0  0  0  0
  2  3  2  0  0  0  0
  3  4  1  0  0  0  0
  3 20  1  0  0  0  0
  4  5  2  0  0  0  0
  5  6  1  0  0  0  0
  5 16  1  0  0  0  0
  6  7  1  0  0  0  0
  6 21  1  0  0  0  0
  7  8  2  0  0  0  0
  7  9  1  0  0  0  0
  9 10  1  0  0  0  0
  9 22  1  0  0  0  0
 10 11  1  0  0  0  0
 10 23  1  0  0  0  0
 10 24  1  0  0  0  0
 11 15  1  0  0  0  0
 11 12  1  0  0  0  0
 11 25  1  0  0  0  0
 12 13  1  0  0  0  0
 12 26  1  0  0  0  0
 12 27  1  0  0  0  0
 13 14  1  0  0  0  0
 13 28  1  0  0  0  0
 13 29  1  0  0  0  0
 14 15  1  0  0  0  0
 14 30  1  0  0  0  0
 14 31  1  0  0  0  0
M  END
> <s_m_source_file>
AV-unprocessed.smi

> <i_m_source_file_index>
2740

> <i_lp_mmshare_version>
43012

> <i_f3d_flags>
0

> <s_epik_input>
W0NIM11jMVtjSF1uYyhzMSlbTkhdQyg9TylbTkhdW0NIMl1bQ0BASF0yW0NIMl1bQ0gyXVtDSDJdTzI=

> <s_epik_cmdline>
J2VwaWtfcHl0aG9uJywgJy1waCcsICc3LjAnLCAnLXRuJywgJzgnLCAnLW1hJywgJzIwMCcsICctbWV0YWxfYmluZGluZycsICctaW1hZScsICc8aW5maWxlLm1hZT4nLCAnLW9tYWUnLCAnPG91dGZpbGUubWFlPic=

> <r_lp_tautomer_probability>
0.999

> <r_epik_Ionization_Penalty>
0.000387528

> <r_epik_Ionization_Penalty_Charging>
0

> <r_epik_Ionization_Penalty_Neutral>
0.000387528

> <r_epik_State_Penalty>
0.000177984

> <r_epik_Charging_Adjusted_Penalty>
0.000177984

> <i_epik_Tot_Q>
0

> <i_epik_Tot_abs_Q>
0

> <r_epik_Metal_State_Penalty>
0.00626158

> <b_epik_Metal_Only>
0

> <s_lp_Force_Field>
OPLS_2005

> <r_lp_Energy>
15.3507

> <b_lp_Chiralities_Consistent>
1

> <s_lp_Variant>
AV-unprocessed.smi:2740-2

> <Gold.Version>
5.8.1

> <Gold.Id.Protein>
6NUR|6NUR_protein|mol2

> <Gold.PLP.Fitness>
39.3252

> <Gold.PLP.PLP>
-33.0452

> <Gold.PLP.part.hbond>
-3.7203

> <Gold.PLP.part.metal>
0.0000

> <Gold.PLP.part.buried>
-1.6334

> <Gold.PLP.part.nonpolar>
-27.3028

> <Gold.PLP.part.repulsive>
1.3333

> <Gold.PLP.ligand.clash>
0.0000

> <Gold.PLP.ligand.torsion>
0.0608

> <Gold.PLP.Chemscore.Hbond>
2.1334

> <Gold.PLP.Chemscore.CHOScore>
0.0000

> <Gold.PLP.Chemscore.Metal>
0.0000

> <Gold.Chemscore.Hbonds>
donor molecule, donor type, donor heavy atom, donor atom, acceptor molecule, acceptor atom, score
      L1  H     6    21       P1  8028  0.21
      L1  H     9    22       P1  8028  1.00
      P1  H  8022  8030       L1    15  0.22

> <Gold.PLP.Chemscore.Internal.Correction>
0.0016

> <Gold.Rescore>
     Score         DG    S(hbond)    S(metal)    S(lipo)     H(rot)  DE(clash)    DE(int)     intcor
     15.65     -16.89       1.94        0.00      69.81       1.27       0.01       1.23       ----

> <Gold.Chemscore.Fitness>
15.6540

> <Gold.Chemscore.DG>
-16.8920

> <Gold.Chemscore.ZeroCoef>
-5.4800

> <Gold.Chemscore.Hbond>
1.9431

> <Gold.Chemscore.Metal>
0.0000

> <Gold.Chemscore.Lipo>
69.8074

> <Gold.Chemscore.Internal_Hbond>
0.0000

> <Gold.Chemscore.DEClash>
0.0121

> <Gold.Chemscore.DEInternal>
1.2259

> <Gold.Chemscore.Rot>
1.2678

> <Gold.Chemscore.Internal.Correction>
   9.000000E+99

> <Gold.Chemscore.Hbonds>
donor molecule, donor type, donor heavy atom, donor atom, acceptor molecule, acceptor atom, score
      L1  H     6    21       P1  8028  0.19
      L1  H     9    22       P1  8028  1.00
      P1  H  8022  8030       L1    15  0.08

> <Gold.Chemscore.Hbond.Weighted>
-6.4900

> <Gold.Chemscore.Metal.Weighted>
-0.0000

> <Gold.Chemscore.Lipo.Weighted>
-8.1675

> <Gold.Chemscore.Internal_Hbond.Weighted>
0.0000

> <Gold.Chemscore.DEClash.Weighted>
0.0121

> <Gold.Chemscore.DEInternal.Weighted>
1.2259

> <Gold.Chemscore.Rot.Weighted>
3.2455

> <Gold.Chemscore.Internal.Correction.Weighted>
   9.000000E+99

> <Gold.Protein.RotatedTorsions>
[ 6907 6896 6895 6894 ] final   19.37 input  -60.11 | X-H torsion
[ 7974 7965 7964 7962 ] final -164.57 input  175.53 | X-H torsion
[ 8008 7997 7996 7995 ] final  -19.45 input   59.86 | X-H torsion
[ 10167 10162 10161 10158 ] final  -30.76 input  -65.29 | X-H torsion
[ 10718 10713 10712 10709 ] final  -90.16 input   66.30 | X-H torsion
[ 10763 10752 10751 10750 ] final -118.88 input  -60.55 | X-H torsion
[ 11005 11000 10999 10996 ] final -144.35 input  -57.11 | X-H torsion

> <Gold.Protein.ActiveResidues>
 VAL166  LYS551  ARG553  GLY616  TRP617  ASP618  TYR619  PRO620  LYS621  CYS622 
 ASP623  PHE694  ASN695  SER759  ASP760  ASP761  ALA762  ILE779  LEU786  VAL792 
 PHE793  MET794  SER795  GLU796  ALA797  LYS798  CYS799  TRP800  GLU811  SER814 

> <Gold.Protein.RotatedAtoms>
  151.8798  135.0458  160.0487 H   0  0  0  0  0  0  0  0  0  0  0  0  # atno 6907 bound_to 6896
  152.2522  133.5220  159.5340 H   0  0  0  0  0  0  0  0  0  0  0  0  # atno 6908 bound_to 6896
  150.7087  134.0861  159.3957 H   0  0  0  0  0  0  0  0  0  0  0  0  # atno 6909 bound_to 6896
  144.7293  140.2942  143.6215 H   0  0  0  0  0  0  0  0  0  0  0  0  # atno 7974 bound_to 7965
  154.4836  140.2088  155.9707 H   0  0  0  0  0  0  0  0  0  0  0  0  # atno 8008 bound_to 7997
  156.1202  140.3214  155.8167 H   0  0  0  0  0  0  0  0  0  0  0  0  # atno 8009 bound_to 7997
  155.4481  140.0515  157.2994 H   0  0  0  0  0  0  0  0  0  0  0  0  # atno 8010 bound_to 7997
  140.7245  143.3823  151.1578 H   0  0  0  0  0  0  0  0  0  0  0  0  # atno 10167 bound_to 10162
  155.9986  130.4899  150.5280 H   0  0  0  0  0  0  0  0  0  0  0  0  # atno 10718 bound_to 10713
  154.8601  135.4258  154.2210 H   0  0  0  0  0  0  0  0  0  0  0  0  # atno 10763 bound_to 10752
  153.3215  135.6982  153.7032 H   0  0  0  0  0  0  0  0  0  0  0  0  # atno 10764 bound_to 10752
  153.6085  135.3524  155.2944 H   0  0  0  0  0  0  0  0  0  0  0  0  # atno 10765 bound_to 10752
  140.8033  134.2831  157.4970 H   0  0  0  0  0  0  0  0  0  0  0  0  # atno 11005 bound_to 11000
  145.7825  139.1896  143.2149 LP  0  0  0  0  0  0  0  0  0  0  0  0  # atno 17320 bound_to 7965
  146.0822  140.7751  142.9636 LP  0  0  0  0  0  0  0  0  0  0  0  0  # atno 17321 bound_to 7965
  139.7414  143.8918  152.3051 LP  0  0  0  0  0  0  0  0  0  0  0  0  # atno 17342 bound_to 10162
  139.8741  144.7053  150.8954 LP  0  0  0  0  0  0  0  0  0  0  0  0  # atno 17343 bound_to 10162
  157.3233  131.0686  151.1915 LP  0  0  0  0  0  0  0  0  0  0  0  0  # atno 17370 bound_to 10713
  157.2821  130.6755  149.6071 LP  0  0  0  0  0  0  0  0  0  0  0  0  # atno 17371 bound_to 10713
  139.8720  134.9442  156.3874 LP  0  0  0  0  0  0  0  0  0  0  0  0  # atno 17394 bound_to 11000
  140.9272  133.7604  155.9980 LP  0  0  0  0  0  0  0  0  0  0  0  0  # atno 17395 bound_to 11000

$$$$
