AV-unprocessed.smi:1726|AV-procd|sdf|6960|dock8
  -GOLD-   22720 8173D 1   1.00000     0.00000
 Structure written by MMmdl.
 43 44  0  0  0  0  0  0  0  0  2 V2000
  147.8649  141.4419  154.0369 C   0  0  0  0  0  0  0  0  0  0  0  0
  149.2533  141.6098  154.6707 C   0  0  0  0  0  0  0  0  0  0  0  0
  149.7453  140.3617  155.3077 N   0  3  2  0  0  0  0  0  0  0  0  0
  151.1980  140.4273  155.6147 C   0  0  0  0  0  0  0  0  0  0  0  0
  151.6613  139.1841  156.3915 C   0  0  0  0  0  0  0  0  0  0  0  0
  151.3235  137.8981  155.6267 C   0  0  0  0  0  0  0  0  0  0  0  0
  149.8228  137.8605  155.2997 C   0  0  2  0  0  0  0  0  0  0  0  0
  149.5133  136.6634  154.5228 N   0  0  0  0  0  0  0  0  0  0  0  0
  149.5408  135.4088  154.9959 C   0  0  0  0  0  0  0  0  0  0  0  0
  149.8258  135.1372  156.1622 O   0  0  0  0  0  0  0  0  0  0  0  0
  149.1990  134.5250  154.0404 N   0  0  0  0  0  0  0  0  0  0  0  0
  149.1229  133.1235  154.1125 C   0  0  0  0  0  0  0  0  0  0  0  0
  149.9348  132.3389  154.8687 C   0  0  0  0  0  0  0  0  0  0  0  0
  149.8064  130.8911  154.8910 C   0  0  0  0  0  0  0  0  0  0  0  0
  150.7544  130.0174  155.6982 C   0  0  0  0  0  0  0  0  0  0  0  0
  151.6339  130.7572  156.3750 F   0  0  0  0  0  0  0  0  0  0  0  0
  150.0865  129.2605  156.5690 F   0  0  0  0  0  0  0  0  0  0  0  0
  151.4318  129.2112  154.8820 F   0  0  0  0  0  0  0  0  0  0  0  0
  148.8584  130.3605  154.0967 C   0  0  0  0  0  0  0  0  0  0  0  0
  148.0199  131.1596  153.3164 N   0  0  0  0  0  0  0  0  0  0  0  0
  148.0868  132.5089  153.2660 C   0  0  0  0  0  0  0  0  0  0  0  0
  147.3144  133.1429  152.5481 O   0  0  0  0  0  0  0  0  0  0  0  0
  149.4055  139.1360  154.5364 C   0  0  0  0  0  0  0  0  0  0  0  0
  147.3270  130.6858  152.7548 H   0  0  0  0  0  0  0  0  0  0  0  0
  147.4928  142.4000  153.6730 H   0  0  0  0  0  0  0  0  0  0  0  0
  147.1438  141.0630  154.7617 H   0  0  0  0  0  0  0  0  0  0  0  0
  147.8802  140.7601  153.1872 H   0  0  0  0  0  0  0  0  0  0  0  0
  149.9741  141.9638  153.9322 H   0  0  0  0  0  0  0  0  0  0  0  0
  149.1778  142.3924  155.4270 H   0  0  0  0  0  0  0  0  0  0  0  0
  151.7631  140.5243  154.6863 H   0  0  0  0  0  0  0  0  0  0  0  0
  151.4103  141.3168  156.2093 H   0  0  0  0  0  0  0  0  0  0  0  0
  152.7352  139.2376  156.5731 H   0  0  0  0  0  0  0  0  0  0  0  0
  151.1826  139.1647  157.3715 H   0  0  0  0  0  0  0  0  0  0  0  0
  151.9092  137.8546  154.7073 H   0  0  0  0  0  0  0  0  0  0  0  0
  151.6057  137.0274  156.2199 H   0  0  0  0  0  0  0  0  0  0  0  0
  149.2721  137.8166  156.2419 H   0  0  0  0  0  0  0  0  0  0  0  0
  149.2645  136.7998  153.5535 H   0  0  0  0  0  0  0  0  0  0  0  0
  148.9219  134.9114  153.1494 H   0  0  0  0  0  0  0  0  0  0  0  0
  150.7171  132.7690  155.4719 H   0  0  0  0  0  0  0  0  0  0  0  0
  148.6733  129.3012  153.9954 H   0  0  0  0  0  0  0  0  0  0  0  0
  148.3332  139.1052  154.3466 H   0  0  0  0  0  0  0  0  0  0  0  0
  149.8963  139.1722  153.5621 H   0  0  0  0  0  0  0  0  0  0  0  0
  149.2725  140.2895  156.1974 H   0  0  0  0  0  0  0  0  0  0  0  0
  1  2  1  0  0  0  0
  1 25  1  0  0  0  0
  1 26  1  0  0  0  0
  1 27  1  0  0  0  0
  2  3  1  0  0  0  0
  2 28  1  0  0  0  0
  2 29  1  0  0  0  0
  3 23  1  0  0  0  0
  3  4  1  0  0  0  0
  3 43  1  0  0  0  0
  4  5  1  0  0  0  0
  4 30  1  0  0  0  0
  4 31  1  0  0  0  0
  5  6  1  0  0  0  0
  5 32  1  0  0  0  0
  5 33  1  0  0  0  0
  6  7  1  0  0  0  0
  6 34  1  0  0  0  0
  6 35  1  0  0  0  0
  7  8  1  0  0  0  0
  7 23  1  0  0  0  0
  7 36  1  0  0  0  0
  8  9  1  0  0  0  0
  8 37  1  0  0  0  0
  9 10  2  0  0  0  0
  9 11  1  0  0  0  0
 11 12  1  0  0  0  0
 11 38  1  0  0  0  0
 12 21  1  0  0  0  0
 12 13  2  0  0  0  0
 13 14  1  0  0  0  0
 13 39  1  0  0  0  0
 14 15  1  0  0  0  0
 14 19  2  0  0  0  0
 15 16  1  0  0  0  0
 15 17  1  0  0  0  0
 15 18  1  0  0  0  0
 19 20  1  0  0  0  0
 19 40  1  0  0  0  0
 20 24  1  0  0  0  0
 20 21  1  0  0  0  0
 21 22  2  0  0  0  0
 23 41  1  0  0  0  0
 23 42  1  0  0  0  0
M  CHG  1   3   1
M  END
> <s_m_source_file>
AV-unprocessed.smi

> <i_m_source_file_index>
1726

> <i_lp_mmshare_version>
43012

> <i_f3d_flags>
0

> <s_epik_input>
W0NIM11bQ0gyXU4xW0NIMl1bQ0gyXVtDSDJdW0NASF0oW0NIMl0xKVtOSF1DKD1PKVtOSF1jMltjSF1jKEMoRikoRilGKVtjSF1bbkhdYzI9Tw==

> <s_epik_cmdline>
J2VwaWtfcHl0aG9uJywgJy1waCcsICc3LjAnLCAnLXRuJywgJzgnLCAnLW1hJywgJzIwMCcsICctbWV0YWxfYmluZGluZycsICctaW1hZScsICc8aW5maWxlLm1hZT4nLCAnLW9tYWUnLCAnPG91dGZpbGUubWFlPic=

> <r_lp_tautomer_probability>
1

> <r_epik_Ionization_Penalty>
0.00745721

> <r_epik_Ionization_Penalty_Charging>
0.00743804

> <r_epik_Ionization_Penalty_Neutral>
1.91703e-05

> <r_epik_State_Penalty>
-0

> <r_epik_Charging_Adjusted_Penalty>
0.00743804

> <i_epik_Tot_Q>
1

> <i_epik_Tot_abs_Q>
1

> <r_epik_Metal_State_Penalty>
0.37929

> <b_epik_Metal_Only>
0

> <s_lp_Force_Field>
OPLS_2005

> <r_lp_Energy>
26.6941

> <b_lp_Chiralities_Consistent>
1

> <s_lp_Variant>
AV-unprocessed.smi:1726-4

> <Gold.Version>
5.8.1

> <Gold.Id.Protein>
6NUR|6NUR_protein|mol2

> <Gold.PLP.Fitness>
42.6174

> <Gold.PLP.PLP>
-37.8605

> <Gold.PLP.part.hbond>
-2.6365

> <Gold.PLP.part.metal>
0.0000

> <Gold.PLP.part.buried>
-2.4394

> <Gold.PLP.part.nonpolar>
-33.3741

> <Gold.PLP.part.repulsive>
0.3470

> <Gold.PLP.ligand.clash>
0.0000

> <Gold.PLP.ligand.torsion>
0.4993

> <Gold.PLP.Chemscore.Hbond>
1.9000

> <Gold.PLP.Chemscore.CHOScore>
0.0000

> <Gold.PLP.Chemscore.Metal>
0.0000

> <Gold.Chemscore.Hbonds>
donor molecule, donor type, donor heavy atom, donor atom, acceptor molecule, acceptor atom, score
      L1  H     8    37       P1  7948  1.00
      L1  H    11    38       P1  7948  0.95

> <Gold.PLP.Chemscore.Internal.Correction>
0.0556

> <Gold.Rescore>
     Score         DG    S(hbond)    S(metal)    S(lipo)     H(rot)  DE(clash)    DE(int)     intcor
     14.14     -14.89       1.44        0.00      67.51       1.29       0.02       0.74       ----

> <Gold.Chemscore.Fitness>
14.1353

> <Gold.Chemscore.DG>
-14.8930

> <Gold.Chemscore.ZeroCoef>
-5.4800

> <Gold.Chemscore.Hbond>
1.4411

> <Gold.Chemscore.Metal>
0.0000

> <Gold.Chemscore.Lipo>
67.5056

> <Gold.Chemscore.Internal_Hbond>
0.0000

> <Gold.Chemscore.DEClash>
0.0186

> <Gold.Chemscore.DEInternal>
0.7391

> <Gold.Chemscore.Rot>
1.2884

> <Gold.Chemscore.Internal.Correction>
   9.000000E+99

> <Gold.Chemscore.Hbonds>
donor molecule, donor type, donor heavy atom, donor atom, acceptor molecule, acceptor atom, score
      L1  H     8    37       P1  7948  0.94
      L1  H    11    38       P1  7948  0.21

> <Gold.Chemscore.Hbond.Weighted>
-4.8131

> <Gold.Chemscore.Metal.Weighted>
-0.0000

> <Gold.Chemscore.Lipo.Weighted>
-7.8982

> <Gold.Chemscore.Internal_Hbond.Weighted>
0.0000

> <Gold.Chemscore.DEClash.Weighted>
0.0186

> <Gold.Chemscore.DEInternal.Weighted>
0.7391

> <Gold.Chemscore.Rot.Weighted>
3.2983

> <Gold.Chemscore.Internal.Correction.Weighted>
   9.000000E+99

> <Gold.Protein.RotatedTorsions>
[ 6907 6896 6895 6894 ] final  -46.29 input  -60.11 | X-H torsion
[ 7974 7965 7964 7962 ] final   48.47 input  175.53 | X-H torsion
[ 8008 7997 7996 7995 ] final  111.44 input   59.86 | X-H torsion
[ 10167 10162 10161 10158 ] final -154.98 input  -65.29 | X-H torsion
[ 10718 10713 10712 10709 ] final  144.85 input   66.30 | X-H torsion
[ 10763 10752 10751 10750 ] final   52.89 input  -60.55 | X-H torsion
[ 11005 11000 10999 10996 ] final  -28.44 input  -57.11 | X-H torsion

> <Gold.Protein.ActiveResidues>
 VAL166  LYS551  ARG553  GLY616  TRP617  ASP618  TYR619  PRO620  LYS621  CYS622 
 ASP623  PHE694  ASN695  SER759  ASP760  ASP761  ALA762  ILE779  LEU786  VAL792 
 PHE793  MET794  SER795  GLU796  ALA797  LYS798  CYS799  TRP800  GLU811  SER814 

> <Gold.Protein.RotatedAtoms>
  150.9129  134.8546  159.7436 H   0  0  0  0  0  0  0  0  0  0  0  0  # atno 6907 bound_to 6896
  152.4953  134.4333  159.9529 H   0  0  0  0  0  0  0  0  0  0  0  0  # atno 6908 bound_to 6896
  151.4373  133.3613  159.2812 H   0  0  0  0  0  0  0  0  0  0  0  0  # atno 6909 bound_to 6896
  146.0201  139.4642  142.9902 H   0  0  0  0  0  0  0  0  0  0  0  0  # atno 7974 bound_to 7965
  156.2124  140.3019  155.9761 H   0  0  0  0  0  0  0  0  0  0  0  0  # atno 8008 bound_to 7997
  155.2691  140.0433  157.3022 H   0  0  0  0  0  0  0  0  0  0  0  0  # atno 8009 bound_to 7997
  154.5718  140.2350  155.8189 H   0  0  0  0  0  0  0  0  0  0  0  0  # atno 8010 bound_to 7997
  139.6969  143.9328  152.2411 H   0  0  0  0  0  0  0  0  0  0  0  0  # atno 10167 bound_to 10162
  157.3523  131.0952  151.0989 H   0  0  0  0  0  0  0  0  0  0  0  0  # atno 10718 bound_to 10713
  152.9791  135.5797  154.4653 H   0  0  0  0  0  0  0  0  0  0  0  0  # atno 10763 bound_to 10752
  154.4223  135.2772  155.1969 H   0  0  0  0  0  0  0  0  0  0  0  0  # atno 10764 bound_to 10752
  154.3713  135.6167  153.5795 H   0  0  0  0  0  0  0  0  0  0  0  0  # atno 10765 bound_to 10752
  140.9208  133.7400  156.0799 H   0  0  0  0  0  0  0  0  0  0  0  0  # atno 11005 bound_to 11000
  145.7206  141.0076  143.1404 LP  0  0  0  0  0  0  0  0  0  0  0  0  # atno 17320 bound_to 7965
  144.6986  139.8866  143.7450 LP  0  0  0  0  0  0  0  0  0  0  0  0  # atno 17321 bound_to 7965
  139.9159  144.6829  150.8512 LP  0  0  0  0  0  0  0  0  0  0  0  0  # atno 17342 bound_to 10162
  140.7699  143.3409  151.2209 LP  0  0  0  0  0  0  0  0  0  0  0  0  # atno 17343 bound_to 10162
  157.2160  130.6459  149.5792 LP  0  0  0  0  0  0  0  0  0  0  0  0  # atno 17370 bound_to 10713
  155.9723  130.4644  150.6218 LP  0  0  0  0  0  0  0  0  0  0  0  0  # atno 17371 bound_to 10713
  140.7990  134.3531  157.5445 LP  0  0  0  0  0  0  0  0  0  0  0  0  # atno 17394 bound_to 11000
  139.8775  134.9186  156.3206 LP  0  0  0  0  0  0  0  0  0  0  0  0  # atno 17395 bound_to 11000

$$$$
