AV-unprocessed.smi:674|AV-procd|sdf|3299|dock6
  -GOLD-   22720 0263D 1   1.00000     0.00000
 Structure written by MMmdl.
 47 48  0  0  0  0  0  0  0  0  1 V2000
  145.3889  143.2142  153.1433 C   0  0  0  0  0  0  0  0  0  0  0  0
  146.7374  142.5420  153.4263 C   0  0  0  0  0  0  0  0  0  0  0  0
  146.6120  141.0471  153.5159 C   0  0  0  0  0  0  0  0  0  0  0  0
  147.1022  140.0715  152.5999 C   0  0  0  0  0  0  0  0  0  0  0  0
  146.6929  138.8941  153.1643 C   0  0  0  0  0  0  0  0  0  0  0  0
  146.8686  137.6249  152.7090 N   0  0  0  0  0  0  0  0  0  0  0  0
  146.0020  136.5972  152.7281 C   0  0  0  0  0  0  0  0  0  0  0  0
  144.8404  136.6484  153.1331 O   0  0  0  0  0  0  0  0  0  0  0  0
  146.5611  135.4839  152.2349 N   0  0  0  0  0  0  0  0  0  0  0  0
  145.8750  134.2011  152.1235 C   0  0  2  0  0  0  0  0  0  0  0  0
  146.5590  133.2455  151.1476 C   0  0  0  0  0  0  0  0  0  0  0  0
  145.1484  132.7904  150.7254 C   0  0  1  0  0  0  0  0  0  0  0  0
  144.9008  132.3480  149.2778 C   0  0  0  0  0  0  0  0  0  0  0  0
  144.6494  131.8075  151.6433 O   0  0  0  0  0  0  0  0  0  0  0  0
  145.1650  130.4866  151.5300 C   0  0  0  0  0  0  0  0  0  0  0  0
  144.6420  134.1975  151.1841 C   0  0  0  0  0  0  0  0  0  0  0  0
  143.2737  134.2434  151.8726 C   0  0  0  0  0  0  0  0  0  0  0  0
  144.5985  135.2873  150.0961 C   0  0  0  0  0  0  0  0  0  0  0  0
  146.0138  139.1729  154.3311 N   0  0  0  0  0  0  0  0  0  0  0  0
  145.3804  138.2790  155.2811 C   0  0  0  0  0  0  0  0  0  0  0  0
  145.9676  140.5052  154.5437 N   0  0  0  0  0  0  0  0  0  0  0  0
  145.5002  144.2965  153.0781 H   0  0  0  0  0  0  0  0  0  0  0  0
  144.6680  143.0010  153.9331 H   0  0  0  0  0  0  0  0  0  0  0  0
  144.9663  142.8649  152.2007 H   0  0  0  0  0  0  0  0  0  0  0  0
  147.4442  142.8076  152.6397 H   0  0  0  0  0  0  0  0  0  0  0  0
  147.1536  142.9393  154.3527 H   0  0  0  0  0  0  0  0  0  0  0  0
  147.6513  140.2321  151.6845 H   0  0  0  0  0  0  0  0  0  0  0  0
  147.7786  137.4309  152.3183 H   0  0  0  0  0  0  0  0  0  0  0  0
  147.5191  135.5227  151.9193 H   0  0  0  0  0  0  0  0  0  0  0  0
  145.6787  133.7196  153.0846 H   0  0  0  0  0  0  0  0  0  0  0  0
  147.0993  133.7508  150.3449 H   0  0  0  0  0  0  0  0  0  0  0  0
  147.1853  132.4929  151.6254 H   0  0  0  0  0  0  0  0  0  0  0  0
  145.1741  133.1241  148.5640 H   0  0  0  0  0  0  0  0  0  0  0  0
  143.8506  132.1067  149.1124 H   0  0  0  0  0  0  0  0  0  0  0  0
  145.4918  131.4720  149.0120 H   0  0  0  0  0  0  0  0  0  0  0  0
  144.8241  129.8990  152.3822 H   0  0  0  0  0  0  0  0  0  0  0  0
  146.2542  130.4624  151.5277 H   0  0  0  0  0  0  0  0  0  0  0  0
  144.8014  129.9896  150.6308 H   0  0  0  0  0  0  0  0  0  0  0  0
  142.4777  133.9286  151.1971 H   0  0  0  0  0  0  0  0  0  0  0  0
  143.0334  135.2482  152.2217 H   0  0  0  0  0  0  0  0  0  0  0  0
  143.2340  133.5926  152.7465 H   0  0  0  0  0  0  0  0  0  0  0  0
  143.8041  135.0982  149.3735 H   0  0  0  0  0  0  0  0  0  0  0  0
  145.5321  135.3506  149.5372 H   0  0  0  0  0  0  0  0  0  0  0  0
  144.4162  136.2745  150.5223 H   0  0  0  0  0  0  0  0  0  0  0  0
  145.7212  137.2547  155.1300 H   0  0  0  0  0  0  0  0  0  0  0  0
  144.2982  138.3167  155.1520 H   0  0  0  0  0  0  0  0  0  0  0  0
  145.6288  138.5825  156.2989 H   0  0  0  0  0  0  0  0  0  0  0  0
  1  2  1  0  0  0  0
  1 22  1  0  0  0  0
  1 23  1  0  0  0  0
  1 24  1  0  0  0  0
  2  3  1  0  0  0  0
  2 25  1  0  0  0  0
  2 26  1  0  0  0  0
  3 21  2  0  0  0  0
  3  4  1  0  0  0  0
  4  5  2  0  0  0  0
  4 27  1  0  0  0  0
  5  6  1  0  0  0  0
  5 19  1  0  0  0  0
  6  7  1  0  0  0  0
  6 28  1  0  0  0  0
  7  8  2  0  0  0  0
  7  9  1  0  0  0  0
  9 10  1  0  0  0  0
  9 29  1  0  0  0  0
 10 16  1  0  0  0  0
 10 11  1  0  0  0  0
 10 30  1  0  0  0  0
 11 12  1  0  0  0  0
 11 31  1  0  0  0  0
 11 32  1  0  0  0  0
 12 13  1  0  0  0  0
 12 14  1  0  0  0  0
 12 16  1  0  0  0  0
 13 33  1  0  0  0  0
 13 34  1  0  0  0  0
 13 35  1  0  0  0  0
 14 15  1  0  0  0  0
 15 36  1  0  0  0  0
 15 37  1  0  0  0  0
 15 38  1  0  0  0  0
 16 17  1  0  0  0  0
 16 18  1  0  0  0  0
 17 39  1  0  0  0  0
 17 40  1  0  0  0  0
 17 41  1  0  0  0  0
 18 42  1  0  0  0  0
 18 43  1  0  0  0  0
 18 44  1  0  0  0  0
 19 20  1  0  0  0  0
 19 21  1  0  0  0  0
 20 45  1  0  0  0  0
 20 46  1  0  0  0  0
 20 47  1  0  0  0  0
M  END
> <s_m_source_file>
AV-unprocessed.smi

> <i_m_source_file_index>
674

> <i_lp_mmshare_version>
43012

> <i_f3d_flags>
0

> <s_epik_input>
W0NIM11bQ0gyXWMxW2NIXWMobihuMSlbQ0gzXSlbTkhdQyg9TylbTkhdW0NAQEhdKEMyKFtDSDNdKVtDSDNdKVtDSDJdW0NAQF0yKFtDSDNdKU9bQ0gzXQ==

> <s_epik_cmdline>
J2VwaWtfcHl0aG9uJywgJy1waCcsICc3LjAnLCAnLXRuJywgJzgnLCAnLW1hJywgJzIwMCcsICctbWV0YWxfYmluZGluZycsICctaW1hZScsICc8aW5maWxlLm1hZT4nLCAnLW9tYWUnLCAnPG91dGZpbGUubWFlPic=

> <r_lp_tautomer_probability>
1

> <r_epik_Ionization_Penalty>
0.000101626

> <r_epik_Ionization_Penalty_Charging>
0

> <r_epik_Ionization_Penalty_Neutral>
0.000101626

> <r_epik_State_Penalty>
-0

> <r_epik_Charging_Adjusted_Penalty>
0

> <i_epik_Tot_Q>
0

> <i_epik_Tot_abs_Q>
0

> <r_epik_Metal_State_Penalty>
-0

> <b_epik_Metal_Only>
0

> <s_lp_Force_Field>
OPLS_2005

> <r_lp_Energy>
22.7412

> <b_lp_Chiralities_Consistent>
1

> <s_lp_Variant>
AV-unprocessed.smi:674-1

> <Gold.Version>
5.8.1

> <Gold.Id.Protein>
6NUR|6NUR_protein|mol2

> <Gold.PLP.Fitness>
39.8696

> <Gold.PLP.PLP>
-34.7701

> <Gold.PLP.part.hbond>
-1.9177

> <Gold.PLP.part.metal>
0.0000

> <Gold.PLP.part.buried>
-4.1507

> <Gold.PLP.part.nonpolar>
-29.5523

> <Gold.PLP.part.repulsive>
0.3709

> <Gold.PLP.ligand.clash>
0.0000

> <Gold.PLP.ligand.torsion>
0.6088

> <Gold.PLP.Chemscore.Hbond>
1.9760

> <Gold.PLP.Chemscore.CHOScore>
0.0000

> <Gold.PLP.Chemscore.Metal>
0.0000

> <Gold.Chemscore.Hbonds>
donor molecule, donor type, donor heavy atom, donor atom, acceptor molecule, acceptor atom, score
      L1  H     6    28       P1  7948  0.98
      L1  H     9    29       P1  7948  1.00

> <Gold.PLP.Chemscore.Internal.Correction>
0.3890

> <Gold.Rescore>
     Score         DG    S(hbond)    S(metal)    S(lipo)     H(rot)  DE(clash)    DE(int)     intcor
     15.89     -18.05       1.95        0.00      81.74       1.37       0.01       2.15       ----

> <Gold.Chemscore.Fitness>
15.8945

> <Gold.Chemscore.DG>
-18.0545

> <Gold.Chemscore.ZeroCoef>
-5.4800

> <Gold.Chemscore.Hbond>
1.9484

> <Gold.Chemscore.Metal>
0.0000

> <Gold.Chemscore.Lipo>
81.7369

> <Gold.Chemscore.Internal_Hbond>
0.0000

> <Gold.Chemscore.DEClash>
0.0135

> <Gold.Chemscore.DEInternal>
2.1465

> <Gold.Chemscore.Rot>
1.3658

> <Gold.Chemscore.Internal.Correction>
   9.000000E+99

> <Gold.Chemscore.Hbonds>
donor molecule, donor type, donor heavy atom, donor atom, acceptor molecule, acceptor atom, score
      L1  H     6    28       P1  7948  0.92
      L1  H     9    29       P1  7948  0.94

> <Gold.Chemscore.Hbond.Weighted>
-6.5076

> <Gold.Chemscore.Metal.Weighted>
-0.0000

> <Gold.Chemscore.Lipo.Weighted>
-9.5632

> <Gold.Chemscore.Internal_Hbond.Weighted>
0.0000

> <Gold.Chemscore.DEClash.Weighted>
0.0135

> <Gold.Chemscore.DEInternal.Weighted>
2.1465

> <Gold.Chemscore.Rot.Weighted>
3.4963

> <Gold.Chemscore.Internal.Correction.Weighted>
   9.000000E+99

> <Gold.Protein.RotatedTorsions>
[ 6907 6896 6895 6894 ] final   97.50 input  -60.11 | X-H torsion
[ 7974 7965 7964 7962 ] final  161.39 input  175.53 | X-H torsion
[ 8008 7997 7996 7995 ] final   46.94 input   59.86 | X-H torsion
[ 10167 10162 10161 10158 ] final   91.47 input  -65.29 | X-H torsion
[ 10718 10713 10712 10709 ] final -131.86 input   66.30 | X-H torsion
[ 10763 10752 10751 10750 ] final  179.52 input  -60.55 | X-H torsion
[ 11005 11000 10999 10996 ] final  -90.86 input  -57.11 | X-H torsion

> <Gold.Protein.ActiveResidues>
 VAL166  LYS551  ARG553  GLY616  TRP617  ASP618  TYR619  PRO620  LYS621  CYS622 
 ASP623  PHE694  ASN695  SER759  ASP760  ASP761  ALA762  ILE779  LEU786  VAL792 
 PHE793  MET794  SER795  GLU796  ALA797  LYS798  CYS799  TRP800  GLU811  SER814 

> <Gold.Protein.RotatedAtoms>
  152.5422  134.0724  159.8199 H   0  0  0  0  0  0  0  0  0  0  0  0  # atno 6907 bound_to 6896
  151.0837  133.5362  159.2626 H   0  0  0  0  0  0  0  0  0  0  0  0  # atno 6908 bound_to 6896
  151.2180  135.0516  159.8992 H   0  0  0  0  0  0  0  0  0  0  0  0  # atno 6909 bound_to 6896
  144.7688  139.7891  143.6305 H   0  0  0  0  0  0  0  0  0  0  0  0  # atno 7974 bound_to 7965
  155.3608  140.3418  155.4241 H   0  0  0  0  0  0  0  0  0  0  0  0  # atno 8008 bound_to 7997
  156.1715  140.1633  156.8474 H   0  0  0  0  0  0  0  0  0  0  0  0  # atno 8009 bound_to 7997
  154.5238  140.0761  156.8203 H   0  0  0  0  0  0  0  0  0  0  0  0  # atno 8010 bound_to 7997
  139.8371  144.6659  150.9329 H   0  0  0  0  0  0  0  0  0  0  0  0  # atno 10167 bound_to 10162
  156.2287  130.7024  151.0835 H   0  0  0  0  0  0  0  0  0  0  0  0  # atno 10718 bound_to 10713
  154.5217  135.2794  155.1257 H   0  0  0  0  0  0  0  0  0  0  0  0  # atno 10763 bound_to 10752
  154.2812  135.6285  153.5351 H   0  0  0  0  0  0  0  0  0  0  0  0  # atno 10764 bound_to 10752
  152.9938  135.5651  154.5707 H   0  0  0  0  0  0  0  0  0  0  0  0  # atno 10765 bound_to 10752
  141.1557  133.7719  156.9798 H   0  0  0  0  0  0  0  0  0  0  0  0  # atno 11005 bound_to 11000
  146.1818  139.5014  142.9861 LP  0  0  0  0  0  0  0  0  0  0  0  0  # atno 17320 bound_to 7965
  145.6387  141.0289  143.1824 LP  0  0  0  0  0  0  0  0  0  0  0  0  # atno 17321 bound_to 7965
  140.7801  143.3947  151.1250 LP  0  0  0  0  0  0  0  0  0  0  0  0  # atno 17342 bound_to 10162
  139.7596  143.8655  152.3097 LP  0  0  0  0  0  0  0  0  0  0  0  0  # atno 17343 bound_to 10162
  157.7123  131.0728  150.6457 LP  0  0  0  0  0  0  0  0  0  0  0  0  # atno 17370 bound_to 10713
  156.6523  130.4488  149.5715 LP  0  0  0  0  0  0  0  0  0  0  0  0  # atno 17371 bound_to 10713
  140.1074  134.9498  157.2014 LP  0  0  0  0  0  0  0  0  0  0  0  0  # atno 17394 bound_to 11000
  140.3239  134.2886  155.7241 LP  0  0  0  0  0  0  0  0  0  0  0  0  # atno 17395 bound_to 11000

$$$$
