AV-unprocessed.smi:1563|AV-procd|sdf|6292|dock4
  -GOLD-   22720 6493D 1   1.00000     0.00000
 Structure written by MMmdl.
 44 45  0  0  0  0  0  0  0  0  2 V2000
  151.6725  143.7309  157.8701 C   0  0  0  0  0  0  0  0  0  0  0  0
  151.2285  142.3456  157.4138 C   0  0  0  0  0  0  0  0  0  0  0  0
  151.7032  141.3400  157.9421 O   0  0  0  0  0  0  0  0  0  0  0  0
  150.3193  142.3080  156.4276 N   0  0  0  0  0  0  0  0  0  0  0  0
  149.7673  141.0898  155.8463 C   0  0  1  0  0  0  0  0  0  0  0  0
  148.6809  141.4200  154.7963 C   0  0  0  0  0  0  0  0  0  0  0  0
  148.2055  140.1626  154.0391 C   0  0  0  0  0  0  0  0  0  0  0  0
  149.3995  139.3314  153.5330 C   0  0  0  0  0  0  0  0  0  0  0  0
  150.2699  139.0230  154.6787 N   0  0  0  0  0  0  0  0  0  0  0  0
  150.3053  137.8555  155.3678 C   0  0  0  0  0  0  0  0  0  0  0  0
  150.8494  137.7394  156.4670 O   0  0  0  0  0  0  0  0  0  0  0  0
  149.6175  136.8478  154.8010 N   0  0  0  0  0  0  0  0  0  0  0  0
  149.3084  135.5698  155.4396 C   0  0  0  0  0  0  0  0  0  0  0  0
  149.8558  134.3677  154.6402 C   0  0  0  0  0  0  0  0  0  0  0  0
  148.7804  133.4295  154.1153 C   0  0  0  0  0  0  0  0  0  0  0  0
  148.6812  132.0862  154.5406 C   0  0  0  0  0  0  0  0  0  0  0  0
  147.6855  131.2572  153.9832 C   0  0  0  0  0  0  0  0  0  0  0  0
  146.8099  131.7876  153.0138 C   0  0  0  0  0  0  0  0  0  0  0  0
  146.9467  133.1380  152.6327 C   0  0  0  0  0  0  0  0  0  0  0  0
  147.9116  133.9011  153.1919 N   0  3  0  0  0  0  0  0  0  0  0  0
  150.8877  140.2420  155.2116 C   0  0  0  0  0  0  0  0  0  0  0  0
  150.8125  144.3877  158.0027 H   0  0  0  0  0  0  0  0  0  0  0  0
  152.3373  144.1772  157.1303 H   0  0  0  0  0  0  0  0  0  0  0  0
  152.2056  143.6732  158.8195 H   0  0  0  0  0  0  0  0  0  0  0  0
  149.9869  143.1853  156.0537 H   0  0  0  0  0  0  0  0  0  0  0  0
  149.3157  140.4934  156.6404 H   0  0  0  0  0  0  0  0  0  0  0  0
  147.8307  141.9122  155.2696 H   0  0  0  0  0  0  0  0  0  0  0  0
  149.0846  142.1309  154.0739 H   0  0  0  0  0  0  0  0  0  0  0  0
  147.5930  139.5499  154.7009 H   0  0  0  0  0  0  0  0  0  0  0  0
  147.5653  140.4492  153.2046 H   0  0  0  0  0  0  0  0  0  0  0  0
  149.0526  138.4449  153.0011 H   0  0  0  0  0  0  0  0  0  0  0  0
  149.9637  139.9050  152.7961 H   0  0  0  0  0  0  0  0  0  0  0  0
  149.2021  137.0152  153.8959 H   0  0  0  0  0  0  0  0  0  0  0  0
  149.7397  135.5707  156.4408 H   0  0  0  0  0  0  0  0  0  0  0  0
  148.2311  135.4645  155.5776 H   0  0  0  0  0  0  0  0  0  0  0  0
  150.4395  134.7345  153.7950 H   0  0  0  0  0  0  0  0  0  0  0  0
  150.5496  133.7990  155.2603 H   0  0  0  0  0  0  0  0  0  0  0  0
  149.3667  131.6891  155.2748 H   0  0  0  0  0  0  0  0  0  0  0  0
  147.6010  130.2240  154.2865 H   0  0  0  0  0  0  0  0  0  0  0  0
  146.0476  131.1657  152.5675 H   0  0  0  0  0  0  0  0  0  0  0  0
  146.3230  133.6254  151.8979 H   0  0  0  0  0  0  0  0  0  0  0  0
  151.3795  140.7919  154.4073 H   0  0  0  0  0  0  0  0  0  0  0  0
  151.6676  140.0301  155.9449 H   0  0  0  0  0  0  0  0  0  0  0  0
  147.9996  134.8717  152.8904 H   0  0  0  0  0  0  0  0  0  0  0  0
  1  2  1  0  0  0  0
  1 22  1  0  0  0  0
  1 23  1  0  0  0  0
  1 24  1  0  0  0  0
  2  3  2  0  0  0  0
  2  4  1  0  0  0  0
  4  5  1  0  0  0  0
  4 25  1  0  0  0  0
  5 21  1  0  0  0  0
  5  6  1  0  0  0  0
  5 26  1  0  0  0  0
  6  7  1  0  0  0  0
  6 27  1  0  0  0  0
  6 28  1  0  0  0  0
  7  8  1  0  0  0  0
  7 29  1  0  0  0  0
  7 30  1  0  0  0  0
  8  9  1  0  0  0  0
  8 31  1  0  0  0  0
  8 32  1  0  0  0  0
  9 10  1  0  0  0  0
  9 21  1  0  0  0  0
 10 11  2  0  0  0  0
 10 12  1  0  0  0  0
 12 13  1  0  0  0  0
 12 33  1  0  0  0  0
 13 14  1  0  0  0  0
 13 34  1  0  0  0  0
 13 35  1  0  0  0  0
 14 15  1  0  0  0  0
 14 36  1  0  0  0  0
 14 37  1  0  0  0  0
 15 20  1  0  0  0  0
 15 16  2  0  0  0  0
 16 17  1  0  0  0  0
 16 38  1  0  0  0  0
 17 18  2  0  0  0  0
 17 39  1  0  0  0  0
 18 19  1  0  0  0  0
 18 40  1  0  0  0  0
 19 20  2  0  0  0  0
 19 41  1  0  0  0  0
 20 44  1  0  0  0  0
 21 42  1  0  0  0  0
 21 43  1  0  0  0  0
M  CHG  1  20   1
M  END
> <s_m_source_file>
AV-unprocessed.smi

> <i_m_source_file_index>
1563

> <i_lp_mmshare_version>
43012

> <i_f3d_flags>
0

> <s_epik_input>
W0NIM11DKD1PKVtOSF1bQ0BASF0xW0NIMl1bQ0gyXVtDSDJdTihbQ0gyXTEpQyg9TylbTkhdW0NIMl1bQ0gyXWMyW2NIXVtjSF1bY0hdW2NIXW4y

> <s_epik_cmdline>
J2VwaWtfcHl0aG9uJywgJy1waCcsICc3LjAnLCAnLXRuJywgJzgnLCAnLW1hJywgJzIwMCcsICctbWV0YWxfYmluZGluZycsICctaW1hZScsICc8aW5maWxlLm1hZT4nLCAnLW9tYWUnLCAnPG91dGZpbGUubWFlPic=

> <r_epik_Ionization_Penalty>
1.56048

> <r_epik_Ionization_Penalty_Charging>
1.56043

> <r_epik_Ionization_Penalty_Neutral>
4.90601e-05

> <r_epik_State_Penalty>
1.65539

> <r_epik_Charging_Adjusted_Penalty>
3.21583

> <i_epik_Tot_Q>
1

> <i_epik_Tot_abs_Q>
1

> <r_epik_Metal_State_Penalty>
1.6969

> <b_epik_Metal_Only>
0

> <s_lp_Force_Field>
OPLS_2005

> <r_lp_Energy>
29.938

> <b_lp_Chiralities_Consistent>
1

> <s_lp_Variant>
AV-unprocessed.smi:1563-4

> <Gold.Version>
5.8.1

> <Gold.Id.Protein>
6NUR|6NUR_protein|mol2

> <Gold.PLP.Fitness>
45.5443

> <Gold.PLP.PLP>
-35.2358

> <Gold.PLP.part.hbond>
-3.0000

> <Gold.PLP.part.metal>
0.0000

> <Gold.PLP.part.buried>
3.1393

> <Gold.PLP.part.nonpolar>
-34.9033

> <Gold.PLP.part.repulsive>
0.1091

> <Gold.PLP.ligand.clash>
0.0000

> <Gold.PLP.ligand.torsion>
0.4401

> <Gold.PLP.Chemscore.Hbond>
3.6965

> <Gold.PLP.Chemscore.CHOScore>
0.0000

> <Gold.PLP.Chemscore.Metal>
0.0000

> <Gold.Chemscore.Hbonds>
donor molecule, donor type, donor heavy atom, donor atom, acceptor molecule, acceptor atom, score
      L1  H     4    25       P1  8028  1.00
      L1  H    12    33       P1  7948  0.56
      L1  H    20    44       P1  7948  1.92

> <Gold.PLP.Chemscore.Internal.Correction>
0.0991

> <Gold.Rescore>
     Score         DG    S(hbond)    S(metal)    S(lipo)     H(rot)  DE(clash)    DE(int)     intcor
     16.40     -18.58       2.43        0.00      81.11       1.77       1.68       0.50       ----

> <Gold.Chemscore.Fitness>
16.3971

> <Gold.Chemscore.DG>
-18.5759

> <Gold.Chemscore.ZeroCoef>
-5.4800

> <Gold.Chemscore.Hbond>
2.4331

> <Gold.Chemscore.Metal>
0.0000

> <Gold.Chemscore.Lipo>
81.1148

> <Gold.Chemscore.Internal_Hbond>
0.0000

> <Gold.Chemscore.DEClash>
1.6792

> <Gold.Chemscore.DEInternal>
0.4996

> <Gold.Chemscore.Rot>
1.7661

> <Gold.Chemscore.Internal.Correction>
   9.000000E+99

> <Gold.Chemscore.Hbonds>
donor molecule, donor type, donor heavy atom, donor atom, acceptor molecule, acceptor atom, score
      L1  H     4    25       P1  8028  0.99
      L1  H    12    33       P1  7948  0.56
      L1  H    20    44       P1  7948  0.83

> <Gold.Chemscore.Hbond.Weighted>
-8.1265

> <Gold.Chemscore.Metal.Weighted>
-0.0000

> <Gold.Chemscore.Lipo.Weighted>
-9.4904

> <Gold.Chemscore.Internal_Hbond.Weighted>
0.0000

> <Gold.Chemscore.DEClash.Weighted>
1.6792

> <Gold.Chemscore.DEInternal.Weighted>
0.4996

> <Gold.Chemscore.Rot.Weighted>
4.5211

> <Gold.Chemscore.Internal.Correction.Weighted>
   9.000000E+99

> <Gold.Protein.RotatedTorsions>
[ 6907 6896 6895 6894 ] final -134.61 input  -60.11 | X-H torsion
[ 7974 7965 7964 7962 ] final  162.46 input  175.53 | X-H torsion
[ 8008 7997 7996 7995 ] final  -48.90 input   59.86 | X-H torsion
[ 10167 10162 10161 10158 ] final -151.72 input  -65.29 | X-H torsion
[ 10718 10713 10712 10709 ] final   64.08 input   66.30 | X-H torsion
[ 10763 10752 10751 10750 ] final  -55.71 input  -60.55 | X-H torsion
[ 11005 11000 10999 10996 ] final  177.37 input  -57.11 | X-H torsion

> <Gold.Protein.ActiveResidues>
 VAL166  LYS551  ARG553  GLY616  TRP617  ASP618  TYR619  PRO620  LYS621  CYS622 
 ASP623  PHE694  ASN695  SER759  ASP760  ASP761  ALA762  ILE779  LEU786  VAL792 
 PHE793  MET794  SER795  GLU796  ALA797  LYS798  CYS799  TRP800  GLU811  SER814 

> <Gold.Protein.RotatedAtoms>
  150.9879  133.6179  159.2712 H   0  0  0  0  0  0  0  0  0  0  0  0  # atno 6907 bound_to 6896
  151.3410  135.0862  159.9381 H   0  0  0  0  0  0  0  0  0  0  0  0  # atno 6908 bound_to 6896
  152.5236  133.9490  159.7717 H   0  0  0  0  0  0  0  0  0  0  0  0  # atno 6909 bound_to 6896
  144.7636  139.8043  143.6323 H   0  0  0  0  0  0  0  0  0  0  0  0  # atno 7974 bound_to 7965
  154.4035  140.1310  156.4414 H   0  0  0  0  0  0  0  0  0  0  0  0  # atno 8008 bound_to 7997
  155.7455  140.3489  155.5105 H   0  0  0  0  0  0  0  0  0  0  0  0  # atno 8009 bound_to 7997
  155.8999  140.1017  157.1348 H   0  0  0  0  0  0  0  0  0  0  0  0  # atno 8010 bound_to 7997
  139.7243  143.8908  152.2514 H   0  0  0  0  0  0  0  0  0  0  0  0  # atno 10167 bound_to 10162
  157.6015  130.9140  149.9799 H   0  0  0  0  0  0  0  0  0  0  0  0  # atno 10718 bound_to 10713
  154.1950  135.6421  153.5071 H   0  0  0  0  0  0  0  0  0  0  0  0  # atno 10763 bound_to 10752
  153.0025  135.5438  154.6375 H   0  0  0  0  0  0  0  0  0  0  0  0  # atno 10764 bound_to 10752
  154.5773  135.2922  155.0741 H   0  0  0  0  0  0  0  0  0  0  0  0  # atno 10765 bound_to 10752
  140.3833  134.6927  157.4464 H   0  0  0  0  0  0  0  0  0  0  0  0  # atno 11005 bound_to 11000
  146.1722  139.4877  142.9920 LP  0  0  0  0  0  0  0  0  0  0  0  0  # atno 17320 bound_to 7965
  145.6542  141.0256  143.1744 LP  0  0  0  0  0  0  0  0  0  0  0  0  # atno 17321 bound_to 7965
  139.8813  144.7016  150.8874 LP  0  0  0  0  0  0  0  0  0  0  0  0  # atno 17342 bound_to 10162
  140.7759  143.3659  151.1740 LP  0  0  0  0  0  0  0  0  0  0  0  0  # atno 17343 bound_to 10162
  156.1089  130.3651  150.0083 LP  0  0  0  0  0  0  0  0  0  0  0  0  # atno 17370 bound_to 10713
  156.8185  130.9350  151.3642 LP  0  0  0  0  0  0  0  0  0  0  0  0  # atno 17371 bound_to 10713
  140.0462  134.6196  155.8918 LP  0  0  0  0  0  0  0  0  0  0  0  0  # atno 17394 bound_to 11000
  141.1916  133.6572  156.5464 LP  0  0  0  0  0  0  0  0  0  0  0  0  # atno 17395 bound_to 11000

$$$$
