AV-unprocessed.smi:1199|AV-procd|sdf|5016|dock8
  -GOLD-   22720 4 33D 1   1.00000     0.00000
 Structure written by MMmdl.
 41 42  0  0  0  0  0  0  0  0  3 V2000
  150.1825  133.4259  155.9103 C   0  0  0  0  0  0  0  0  0  0  0  0
  149.4020  134.3039  154.9232 C   0  0  2  0  0  0  0  0  0  0  0  0
  148.8400  133.4794  153.7415 C   0  0  0  0  0  0  0  0  0  0  0  0
  147.7954  134.1966  152.9638 N   0  3  0  0  0  0  0  0  0  0  0  0
  147.2118  133.3695  151.8819 C   0  0  0  0  0  0  0  0  0  0  0  0
  146.2016  134.1941  151.0660 C   0  0  0  0  0  0  0  0  0  0  0  0
  145.1989  134.7216  151.9267 O   0  0  0  0  0  0  0  0  0  0  0  0
  145.7462  135.5794  152.9207 C   0  0  0  0  0  0  0  0  0  0  0  0
  146.7205  134.7802  153.8013 C   0  0  0  0  0  0  0  0  0  0  0  0
  150.2648  135.3762  154.4296 N   0  0  0  0  0  0  0  0  0  0  0  0
  150.7971  136.3580  155.1742 C   0  0  0  0  0  0  0  0  0  0  0  0
  150.7305  136.3918  156.4034 O   0  0  0  0  0  0  0  0  0  0  0  0
  151.4923  137.4851  154.4040 C   0  0  0  0  0  0  0  0  0  0  0  0
  151.0599  138.8034  154.8857 N   0  0  0  0  0  0  0  0  0  0  0  0
  149.7666  139.2245  154.3489 N   0  5  0  0  0  0  0  0  0  0  0  0
  149.2604  140.4317  154.7168 C   0  0  0  0  0  0  0  0  0  0  0  0
  148.1910  140.8620  154.2919 O   0  0  0  0  0  0  0  0  0  0  0  0
  150.0201  141.2350  155.6596 C   0  0  0  0  0  0  0  0  0  0  0  0
  151.1981  140.8098  156.1568 C   0  0  0  0  0  0  0  0  0  0  0  0
  151.7867  139.5302  155.7819 C   0  0  0  0  0  0  0  0  0  0  0  0
  152.8581  139.1340  156.2399 O   0  0  0  0  0  0  0  0  0  0  0  0
  149.5532  132.6278  156.3051 H   0  0  0  0  0  0  0  0  0  0  0  0
  150.5406  134.0113  156.7578 H   0  0  0  0  0  0  0  0  0  0  0  0
  151.0483  132.9632  155.4351 H   0  0  0  0  0  0  0  0  0  0  0  0
  148.5628  134.7287  155.4756 H   0  0  0  0  0  0  0  0  0  0  0  0
  149.6679  133.2490  153.0690 H   0  0  0  0  0  0  0  0  0  0  0  0
  148.4533  132.5200  154.0887 H   0  0  0  0  0  0  0  0  0  0  0  0
  148.0018  133.0074  151.2230 H   0  0  0  0  0  0  0  0  0  0  0  0
  146.7233  132.4940  152.3123 H   0  0  0  0  0  0  0  0  0  0  0  0
  146.7043  135.0022  150.5358 H   0  0  0  0  0  0  0  0  0  0  0  0
  145.7259  133.5680  150.3112 H   0  0  0  0  0  0  0  0  0  0  0  0
  146.2476  136.4299  152.4556 H   0  0  0  0  0  0  0  0  0  0  0  0
  144.9345  135.9807  153.5272 H   0  0  0  0  0  0  0  0  0  0  0  0
  146.1876  133.9848  154.3242 H   0  0  0  0  0  0  0  0  0  0  0  0
  147.1392  135.4353  154.5636 H   0  0  0  0  0  0  0  0  0  0  0  0
  150.3953  135.4293  153.4295 H   0  0  0  0  0  0  0  0  0  0  0  0
  152.5722  137.3591  154.4970 H   0  0  0  0  0  0  0  0  0  0  0  0
  151.2804  137.3983  153.3365 H   0  0  0  0  0  0  0  0  0  0  0  0
  149.6310  142.1936  155.9701 H   0  0  0  0  0  0  0  0  0  0  0  0
  151.7277  141.4397  156.8559 H   0  0  0  0  0  0  0  0  0  0  0  0
  148.2601  134.9695  152.5063 H   0  0  0  0  0  0  0  0  0  0  0  0
  1  2  1  0  0  0  0
  1 22  1  0  0  0  0
  1 23  1  0  0  0  0
  1 24  1  0  0  0  0
  2  3  1  0  0  0  0
  2 10  1  0  0  0  0
  2 25  1  0  0  0  0
  3  4  1  0  0  0  0
  3 26  1  0  0  0  0
  3 27  1  0  0  0  0
  4  9  1  0  0  0  0
  4  5  1  0  0  0  0
  4 41  1  0  0  0  0
  5  6  1  0  0  0  0
  5 28  1  0  0  0  0
  5 29  1  0  0  0  0
  6  7  1  0  0  0  0
  6 30  1  0  0  0  0
  6 31  1  0  0  0  0
  7  8  1  0  0  0  0
  8  9  1  0  0  0  0
  8 32  1  0  0  0  0
  8 33  1  0  0  0  0
  9 34  1  0  0  0  0
  9 35  1  0  0  0  0
 10 11  1  0  0  0  0
 10 36  1  0  0  0  0
 11 12  2  0  0  0  0
 11 13  1  0  0  0  0
 13 37  1  0  0  0  0
 13 38  1  0  0  0  0
 13 14  1  0  0  0  0
 14 15  1  0  0  0  0
 14 20  1  0  0  0  0
 15 16  1  0  0  0  0
 16 17  2  0  0  0  0
 16 18  1  0  0  0  0
 18 39  1  0  0  0  0
 18 19  2  0  0  0  0
 19 40  1  0  0  0  0
 19 20  1  0  0  0  0
 20 21  2  0  0  0  0
M  CHG  1   4   1
M  CHG  1  15  -1
M  END
> <s_m_source_file>
AV-unprocessed.smi

> <i_m_source_file_index>
1199

> <i_lp_mmshare_version>
43012

> <i_f3d_flags>
0

> <s_epik_input>
W0NIMl0xW0NIMl1PW0NIMl1bQ0gyXU4xW0NIMl1bQ0BASF0oW0NIM10pW05IXUMoPU8pW0NIMl1uMltuSF1jKD1PKVtjSF1bY0hdYzI9Tw==

> <s_epik_cmdline>
J2VwaWtfcHl0aG9uJywgJy1waCcsICc3LjAnLCAnLXRuJywgJzgnLCAnLW1hJywgJzIwMCcsICctbWV0YWxfYmluZGluZycsICctaW1hZScsICc8aW5maWxlLm1hZT4nLCAnLW9tYWUnLCAnPG91dGZpbGUubWFlPic=

> <r_lp_tautomer_probability>
1

> <r_epik_Ionization_Penalty>
0.741876

> <r_epik_Ionization_Penalty_Charging>
0.741876

> <r_epik_Ionization_Penalty_Neutral>
9.12373e-08

> <r_epik_State_Penalty>
0.692284

> <r_epik_Charging_Adjusted_Penalty>
1.43416

> <i_epik_Tot_Q>
0

> <i_epik_Tot_abs_Q>
2

> <r_epik_Metal_State_Penalty>
0.692284

> <b_epik_Metal_Only>
0

> <s_lp_Force_Field>
OPLS_2005

> <r_lp_Energy>
28.0654

> <b_lp_Chiralities_Consistent>
1

> <s_lp_Variant>
AV-unprocessed.smi:1199-3

> <Gold.Version>
5.8.1

> <Gold.Id.Protein>
6NUR|6NUR_protein|mol2

> <Gold.PLP.Fitness>
45.1176

> <Gold.PLP.PLP>
-37.2610

> <Gold.PLP.part.hbond>
-3.6576

> <Gold.PLP.part.metal>
0.0000

> <Gold.PLP.part.buried>
-4.1816

> <Gold.PLP.part.nonpolar>
-30.3680

> <Gold.PLP.part.repulsive>
1.0651

> <Gold.PLP.ligand.clash>
0.0000

> <Gold.PLP.ligand.torsion>
0.6000

> <Gold.PLP.Chemscore.Hbond>
3.0000

> <Gold.PLP.Chemscore.CHOScore>
0.0000

> <Gold.PLP.Chemscore.Metal>
0.0000

> <Gold.Chemscore.Hbonds>
donor molecule, donor type, donor heavy atom, donor atom, acceptor molecule, acceptor atom, score
      L1  H     4    41       P1  7948  2.00
      P1  H  7997  8008       L1    21  1.00

> <Gold.PLP.Chemscore.Internal.Correction>
0.0566

> <Gold.Rescore>
     Score         DG    S(hbond)    S(metal)    S(lipo)     H(rot)  DE(clash)    DE(int)     intcor
     11.85     -12.29       1.97        0.00      54.07       2.37       0.04       0.40       ----

> <Gold.Chemscore.Fitness>
11.8526

> <Gold.Chemscore.DG>
-12.2946

> <Gold.Chemscore.ZeroCoef>
-5.4800

> <Gold.Chemscore.Hbond>
1.9665

> <Gold.Chemscore.Metal>
0.0000

> <Gold.Chemscore.Lipo>
54.0658

> <Gold.Chemscore.Internal_Hbond>
0.0000

> <Gold.Chemscore.DEClash>
0.0373

> <Gold.Chemscore.DEInternal>
0.4047

> <Gold.Chemscore.Rot>
2.3747

> <Gold.Chemscore.Internal.Correction>
   9.000000E+99

> <Gold.Chemscore.Hbonds>
donor molecule, donor type, donor heavy atom, donor atom, acceptor molecule, acceptor atom, score
      L1  H     4    41       P1  7948  0.56
      P1  H  7997  8008       L1    21  0.99

> <Gold.Chemscore.Hbond.Weighted>
-6.5681

> <Gold.Chemscore.Metal.Weighted>
-0.0000

> <Gold.Chemscore.Lipo.Weighted>
-6.3257

> <Gold.Chemscore.Internal_Hbond.Weighted>
0.0000

> <Gold.Chemscore.DEClash.Weighted>
0.0373

> <Gold.Chemscore.DEInternal.Weighted>
0.4047

> <Gold.Chemscore.Rot.Weighted>
6.0791

> <Gold.Chemscore.Internal.Correction.Weighted>
   9.000000E+99

> <Gold.Protein.RotatedTorsions>
[ 6907 6896 6895 6894 ] final  170.44 input  -60.11 | X-H torsion
[ 7974 7965 7964 7962 ] final  124.60 input  175.53 | X-H torsion
[ 8008 7997 7996 7995 ] final  -33.73 input   59.86 | X-H torsion
[ 10167 10162 10161 10158 ] final -163.22 input  -65.29 | X-H torsion
[ 10718 10713 10712 10709 ] final  -82.07 input   66.30 | X-H torsion
[ 10763 10752 10751 10750 ] final  147.61 input  -60.55 | X-H torsion
[ 11005 11000 10999 10996 ] final   62.59 input  -57.11 | X-H torsion

> <Gold.Protein.ActiveResidues>
 VAL166  LYS551  ARG553  GLY616  TRP617  ASP618  TYR619  PRO620  LYS621  CYS622 
 ASP623  PHE694  ASN695  SER759  ASP760  ASP761  ALA762  ILE779  LEU786  VAL792 
 PHE793  MET794  SER795  GLU796  ALA797  LYS798  CYS799  TRP800  GLU811  SER814 

> <Gold.Protein.RotatedAtoms>
  151.8161  133.3388  159.3569 H   0  0  0  0  0  0  0  0  0  0  0  0  # atno 6907 bound_to 6896
  150.7310  134.5618  159.5855 H   0  0  0  0  0  0  0  0  0  0  0  0  # atno 6908 bound_to 6896
  152.3040  134.7578  160.0403 H   0  0  0  0  0  0  0  0  0  0  0  0  # atno 6909 bound_to 6896
  145.0825  139.3646  143.4902 H   0  0  0  0  0  0  0  0  0  0  0  0  # atno 7974 bound_to 7965
  154.4140  140.1703  156.1935 H   0  0  0  0  0  0  0  0  0  0  0  0  # atno 8008 bound_to 7997
  155.9584  140.3395  155.6445 H   0  0  0  0  0  0  0  0  0  0  0  0  # atno 8009 bound_to 7997
  155.6780  140.0719  157.2486 H   0  0  0  0  0  0  0  0  0  0  0  0  # atno 8010 bound_to 7997
  139.6336  144.0392  152.2036 H   0  0  0  0  0  0  0  0  0  0  0  0  # atno 10167 bound_to 10162
  156.0039  130.4623  150.4049 H   0  0  0  0  0  0  0  0  0  0  0  0  # atno 10718 bound_to 10713
  154.0411  135.2889  155.3355 H   0  0  0  0  0  0  0  0  0  0  0  0  # atno 10763 bound_to 10752
  154.6928  135.5219  153.8420 H   0  0  0  0  0  0  0  0  0  0  0  0  # atno 10764 bound_to 10752
  153.0599  135.6610  154.0615 H   0  0  0  0  0  0  0  0  0  0  0  0  # atno 10765 bound_to 10752
  140.0081  134.6338  155.9823 H   0  0  0  0  0  0  0  0  0  0  0  0  # atno 11005 bound_to 11000
  146.3531  140.0622  142.8628 LP  0  0  0  0  0  0  0  0  0  0  0  0  # atno 17320 bound_to 7965
  145.1161  140.9434  143.4628 LP  0  0  0  0  0  0  0  0  0  0  0  0  # atno 17321 bound_to 7965
  140.0063  144.6256  150.7685 LP  0  0  0  0  0  0  0  0  0  0  0  0  # atno 17342 bound_to 10162
  140.7453  143.2873  151.3426 LP  0  0  0  0  0  0  0  0  0  0  0  0  # atno 17343 bound_to 10162
  157.2115  131.0461  151.2596 LP  0  0  0  0  0  0  0  0  0  0  0  0  # atno 17370 bound_to 10713
  157.3884  130.7269  149.6680 LP  0  0  0  0  0  0  0  0  0  0  0  0  # atno 17371 bound_to 10713
  141.1692  133.6537  156.4588 LP  0  0  0  0  0  0  0  0  0  0  0  0  # atno 17394 bound_to 11000
  140.4603  134.6847  157.5082 LP  0  0  0  0  0  0  0  0  0  0  0  0  # atno 17395 bound_to 11000

$$$$
