AV-unprocessed.smi:334|AV-procd|sdf|2362|dock10
  -GOLD-   2262022273D 1   1.00000     0.00000
 Structure written by MMmdl.
 44 46  0  0  0  0  0  0  0  0  3 V2000
  149.7835  141.8924  156.6896 C   0  0  0  0  0  0  0  0  0  0  0  0
  151.2026  141.8128  157.2767 C   0  0  2  0  0  0  0  0  0  0  0  0
  151.6026  140.4065  157.3103 N   0  0  0  0  0  0  0  0  0  0  0  0
  151.5559  139.5463  156.2809 C   0  0  0  0  0  0  0  0  0  0  0  0
  151.1752  139.8591  155.1520 O   0  0  0  0  0  0  0  0  0  0  0  0
  152.0413  138.1212  156.5820 C   0  0  0  0  0  0  0  0  0  0  0  0
  150.9510  137.1907  156.9195 N   0  0  0  0  0  0  0  0  0  0  0  0
  150.1912  137.4856  158.0689 C   0  0  0  0  0  0  0  0  0  0  0  0
  149.1743  136.7008  158.4758 C   0  0  0  0  0  0  0  0  0  0  0  0
  148.4087  137.0156  159.6620 N   0  3  0  0  0  0  0  0  0  0  0  0
  148.9107  136.8008  160.7605 O   0  0  0  0  0  0  0  0  0  0  0  0
  147.2822  137.4863  159.5365 O   0  5  0  0  0  0  0  0  0  0  0  0
  148.8738  135.5229  157.6851 C   0  0  0  0  0  0  0  0  0  0  0  0
  149.5994  135.2332  156.5871 C   0  0  0  0  0  0  0  0  0  0  0  0
  150.7091  136.0860  156.1493 C   0  0  0  0  0  0  0  0  0  0  0  0
  151.3806  135.8226  155.1514 O   0  0  0  0  0  0  0  0  0  0  0  0
  151.2884  142.4345  158.6940 C   0  0  2  0  0  0  0  0  0  0  0  0
  150.4546  143.7304  158.8495 C   0  0  0  0  0  0  0  0  0  0  0  0
  151.4755  144.7499  159.3850 C   0  0  1  0  0  0  0  0  0  0  0  0
  151.8605  144.3845  160.8298 C   0  0  0  0  0  0  0  0  0  0  0  0
  152.7311  143.1290  160.6385 C   0  0  0  0  0  0  0  0  0  0  0  0
  152.7008  142.9228  159.1119 C   0  0  2  0  0  0  0  0  0  0  0  0
  152.7287  144.3628  158.6111 C   0  0  0  0  0  0  0  0  0  0  0  0
  149.4451  142.9236  156.5897 H   0  0  0  0  0  0  0  0  0  0  0  0
  149.0633  141.3673  157.3181 H   0  0  0  0  0  0  0  0  0  0  0  0
  149.7465  141.4436  155.6964 H   0  0  0  0  0  0  0  0  0  0  0  0
  151.8629  142.3701  156.6105 H   0  0  0  0  0  0  0  0  0  0  0  0
  151.9398  140.0574  158.1958 H   0  0  0  0  0  0  0  0  0  0  0  0
  152.5954  137.7603  155.7141 H   0  0  0  0  0  0  0  0  0  0  0  0
  152.7732  138.1546  157.3914 H   0  0  0  0  0  0  0  0  0  0  0  0
  150.4989  138.3799  158.5920 H   0  0  0  0  0  0  0  0  0  0  0  0
  148.0659  134.8643  157.9675 H   0  0  0  0  0  0  0  0  0  0  0  0
  149.3590  134.3503  156.0131 H   0  0  0  0  0  0  0  0  0  0  0  0
  150.9418  141.6869  159.4093 H   0  0  0  0  0  0  0  0  0  0  0  0
  150.0650  144.0742  157.8907 H   0  0  0  0  0  0  0  0  0  0  0  0
  149.6057  143.5994  159.5215 H   0  0  0  0  0  0  0  0  0  0  0  0
  151.1612  145.7870  159.2646 H   0  0  0  0  0  0  0  0  0  0  0  0
  152.4381  145.1850  161.2939 H   0  0  0  0  0  0  0  0  0  0  0  0
  150.9870  144.1948  161.4549 H   0  0  0  0  0  0  0  0  0  0  0  0
  153.7493  143.3150  160.9828 H   0  0  0  0  0  0  0  0  0  0  0  0
  152.3483  142.2670  161.1859 H   0  0  0  0  0  0  0  0  0  0  0  0
  153.5243  142.3029  158.7587 H   0  0  0  0  0  0  0  0  0  0  0  0
  152.6174  144.4512  157.5291 H   0  0  0  0  0  0  0  0  0  0  0  0
  153.6180  144.9128  158.9243 H   0  0  0  0  0  0  0  0  0  0  0  0
  1  2  1  0  0  0  0
  1 24  1  0  0  0  0
  1 25  1  0  0  0  0
  1 26  1  0  0  0  0
  2  3  1  0  0  0  0
  2 17  1  0  0  0  0
  2 27  1  0  0  0  0
  3  4  1  0  0  0  0
  3 28  1  0  0  0  0
  4  5  2  0  0  0  0
  4  6  1  0  0  0  0
  6  7  1  0  0  0  0
  6 29  1  0  0  0  0
  6 30  1  0  0  0  0
  7 15  1  0  0  0  0
  7  8  1  0  0  0  0
  8  9  2  0  0  0  0
  8 31  1  0  0  0  0
  9 10  1  0  0  0  0
  9 13  1  0  0  0  0
 10 11  2  0  0  0  0
 10 12  1  0  0  0  0
 13 14  2  0  0  0  0
 13 32  1  0  0  0  0
 14 15  1  0  0  0  0
 14 33  1  0  0  0  0
 15 16  2  0  0  0  0
 17 22  1  0  0  0  0
 17 18  1  0  0  0  0
 17 34  1  0  0  0  0
 18 19  1  0  0  0  0
 18 35  1  0  0  0  0
 18 36  1  0  0  0  0
 19 23  1  0  0  0  0
 19 20  1  0  0  0  0
 19 37  1  0  0  0  0
 20 21  1  0  0  0  0
 20 38  1  0  0  0  0
 20 39  1  0  0  0  0
 21 22  1  0  0  0  0
 21 40  1  0  0  0  0
 21 41  1  0  0  0  0
 22 23  1  0  0  0  0
 22 42  1  0  0  0  0
 23 43  1  0  0  0  0
 23 44  1  0  0  0  0
M  CHG  1  10   1
M  CHG  1  12  -1
M  END
> <s_m_source_file>
AV-unprocessed.smi

> <i_m_source_file_index>
334

> <i_lp_mmshare_version>
43012

> <i_f3d_flags>
0

> <s_epik_input>
W0NIMl0xW0NIMl1bQ0BIXShbQ0gyXTIpW0NAQEhdKFtDSDJdW0NAQEhdMTIpW0NASF0oW0NIM10pW05IXUMoPU8pW0NIMl1uM1tjSF1jKFtOK10oPU8pW08tXSlbY0hdW2NIXWMzPU8=

> <s_epik_cmdline>
J2VwaWtfcHl0aG9uJywgJy1waCcsICc3LjAnLCAnLXRuJywgJzgnLCAnLW1hJywgJzIwMCcsICctbWV0YWxfYmluZGluZycsICctaW1hZScsICc8aW5maWxlLm1hZT4nLCAnLW9tYWUnLCAnPG91dGZpbGUubWFlPic=

> <r_lp_tautomer_probability>
1

> <r_epik_Ionization_Penalty>
2.17081e-08

> <r_epik_Ionization_Penalty_Charging>
8.1195e-11

> <r_epik_Ionization_Penalty_Neutral>
2.16269e-08

> <r_epik_State_Penalty>
-0

> <r_epik_Charging_Adjusted_Penalty>
8.1195e-11

> <i_epik_Tot_Q>
0

> <i_epik_Tot_abs_Q>
2

> <r_epik_Metal_State_Penalty>
-0

> <b_epik_Metal_Only>
0

> <s_lp_Force_Field>
OPLS_2005

> <r_lp_Energy>
62.1866

> <b_lp_Chiralities_Consistent>
1

> <s_lp_Variant>
AV-unprocessed.smi:334-1

> <Gold.Version>
5.8.1

> <Gold.Id.Protein>
6NUR|6NUR_protein|mol2

> <Gold.PLP.Fitness>
47.9453

> <Gold.PLP.PLP>
-41.2619

> <Gold.PLP.part.hbond>
-4.0000

> <Gold.PLP.part.metal>
0.0000

> <Gold.PLP.part.buried>
-6.3494

> <Gold.PLP.part.nonpolar>
-32.8002

> <Gold.PLP.part.repulsive>
0.2387

> <Gold.PLP.ligand.clash>
0.0000

> <Gold.PLP.ligand.torsion>
2.2392

> <Gold.PLP.Chemscore.Hbond>
3.7120

> <Gold.PLP.Chemscore.CHOScore>
0.0000

> <Gold.PLP.Chemscore.Metal>
0.0000

> <Gold.Chemscore.Hbonds>
donor molecule, donor type, donor heavy atom, donor atom, acceptor molecule, acceptor atom, score
      P1  H  6931  6943       L1    11  0.90
      P1  H  6934  6947       L1    12  0.76
      P1  H  7989  7998       L1     5  1.00
      P1  H 10752 10764       L1    16  1.00

> <Gold.PLP.Chemscore.Internal.Correction>
0.0259

> <Gold.Rescore>
     Score         DG    S(hbond)    S(metal)    S(lipo)     H(rot)  DE(clash)    DE(int)     intcor
     21.89     -25.23       3.32        0.00     112.18       1.75       0.06       3.28       ----

> <Gold.Chemscore.Fitness>
21.8898

> <Gold.Chemscore.DG>
-25.2318

> <Gold.Chemscore.ZeroCoef>
-5.4800

> <Gold.Chemscore.Hbond>
3.3232

> <Gold.Chemscore.Metal>
0.0000

> <Gold.Chemscore.Lipo>
112.1842

> <Gold.Chemscore.Internal_Hbond>
0.0000

> <Gold.Chemscore.DEClash>
0.0634

> <Gold.Chemscore.DEInternal>
3.2786

> <Gold.Chemscore.Rot>
1.7474

> <Gold.Chemscore.Internal.Correction>
   9.000000E+99

> <Gold.Chemscore.Hbonds>
donor molecule, donor type, donor heavy atom, donor atom, acceptor molecule, acceptor atom, score
      P1  H  6931  6943       L1    11  0.82
      P1  H  6934  6947       L1    12  0.36
      P1  H  7989  7998       L1     5  0.97
      P1  H 10752 10764       L1    16  1.00

> <Gold.Chemscore.Hbond.Weighted>
-11.0995

> <Gold.Chemscore.Metal.Weighted>
-0.0000

> <Gold.Chemscore.Lipo.Weighted>
-13.1256

> <Gold.Chemscore.Internal_Hbond.Weighted>
0.0000

> <Gold.Chemscore.DEClash.Weighted>
0.0634

> <Gold.Chemscore.DEInternal.Weighted>
3.2786

> <Gold.Chemscore.Rot.Weighted>
4.4733

> <Gold.Chemscore.Internal.Correction.Weighted>
   9.000000E+99

> <Gold.Protein.RotatedTorsions>
[ 6907 6896 6895 6894 ] final   29.55 input  -60.11 | X-H torsion
[ 7974 7965 7964 7962 ] final  111.19 input  175.53 | X-H torsion
[ 8008 7997 7996 7995 ] final  138.84 input   59.86 | X-H torsion
[ 10167 10162 10161 10158 ] final   94.00 input  -65.29 | X-H torsion
[ 10718 10713 10712 10709 ] final -166.15 input   66.30 | X-H torsion
[ 10763 10752 10751 10750 ] final  -46.04 input  -60.55 | X-H torsion
[ 11005 11000 10999 10996 ] final  -30.20 input  -57.11 | X-H torsion

> <Gold.Protein.ActiveResidues>
 VAL166  LYS551  ARG553  GLY616  TRP617  ASP618  TYR619  PRO620  LYS621  CYS622 
 ASP623  PHE694  ASN695  SER759  ASP760  ASP761  ALA762  ILE779  LEU786  VAL792 
 PHE793  MET794  SER795  GLU796  ALA797  LYS798  CYS799  TRP800  GLU811  SER814 

> <Gold.Protein.RotatedAtoms>
  152.0332  134.9755  160.0572 H   0  0  0  0  0  0  0  0  0  0  0  0  # atno 6907 bound_to 6896
  152.1223  133.4356  159.4690 H   0  0  0  0  0  0  0  0  0  0  0  0  # atno 6908 bound_to 6896
  150.6850  134.2438  159.4526 H   0  0  0  0  0  0  0  0  0  0  0  0  # atno 6909 bound_to 6896
  145.2453  139.2762  143.4096 H   0  0  0  0  0  0  0  0  0  0  0  0  # atno 7974 bound_to 7965
  156.2994  140.2383  156.4139 H   0  0  0  0  0  0  0  0  0  0  0  0  # atno 8008 bound_to 7997
  154.8416  140.0428  157.1565 H   0  0  0  0  0  0  0  0  0  0  0  0  # atno 8009 bound_to 7997
  154.9096  140.2988  155.5277 H   0  0  0  0  0  0  0  0  0  0  0  0  # atno 8010 bound_to 7997
  139.8126  144.6767  150.9621 H   0  0  0  0  0  0  0  0  0  0  0  0  # atno 10167 bound_to 10162
  156.6637  130.9056  151.3033 H   0  0  0  0  0  0  0  0  0  0  0  0  # atno 10718 bound_to 10713
  154.0384  135.6647  153.4787 H   0  0  0  0  0  0  0  0  0  0  0  0  # atno 10763 bound_to 10752
  153.0511  135.5084  154.7866 H   0  0  0  0  0  0  0  0  0  0  0  0  # atno 10764 bound_to 10752
  154.6834  135.3049  154.9547 H   0  0  0  0  0  0  0  0  0  0  0  0  # atno 10765 bound_to 10752
  140.9362  133.7307  156.1008 H   0  0  0  0  0  0  0  0  0  0  0  0  # atno 11005 bound_to 11000
  146.3317  140.2828  142.8611 LP  0  0  0  0  0  0  0  0  0  0  0  0  # atno 17320 bound_to 7965
  144.9552  140.8219  143.5547 LP  0  0  0  0  0  0  0  0  0  0  0  0  # atno 17321 bound_to 7965
  140.7817  143.4170  151.0901 LP  0  0  0  0  0  0  0  0  0  0  0  0  # atno 17342 bound_to 10162
  139.7836  143.8320  152.3141 LP  0  0  0  0  0  0  0  0  0  0  0  0  # atno 17343 bound_to 10162
  157.7101  130.9430  150.1060 LP  0  0  0  0  0  0  0  0  0  0  0  0  # atno 17370 bound_to 10713
  156.1991  130.3659  149.8811 LP  0  0  0  0  0  0  0  0  0  0  0  0  # atno 17371 bound_to 10713
  140.7796  134.3741  157.5490 LP  0  0  0  0  0  0  0  0  0  0  0  0  # atno 17394 bound_to 11000
  139.8808  134.9073  156.2942 LP  0  0  0  0  0  0  0  0  0  0  0  0  # atno 17395 bound_to 11000

$$$$
