AV-unprocessed.smi:25|AV-procd|sdf|180|dock6
  -GOLD-   2262015443D 1   1.00000     0.00000
 Structure written by MMmdl.
 47 50  0  0  0  0  0  0  0  0  1 V2000
  153.4358  139.1443  158.7470 C   0  0  0  0  0  0  0  0  0  0  0  0
  152.2356  139.9738  159.2453 C   0  0  1  0  0  0  0  0  0  0  0  0
  152.6890  141.1164  160.1817 C   0  0  0  0  0  0  0  0  0  0  0  0
  152.3160  142.3505  159.4203 C   0  0  0  0  0  0  0  0  0  0  0  0
  152.5990  143.6731  159.8029 C   0  0  0  0  0  0  0  0  0  0  0  0
  152.1935  144.7179  158.9490 C   0  0  0  0  0  0  0  0  0  0  0  0
  151.5288  144.4250  157.7379 C   0  0  0  0  0  0  0  0  0  0  0  0
  151.2544  143.0897  157.3692 C   0  0  0  0  0  0  0  0  0  0  0  0
  151.6469  142.0416  158.2367 C   0  0  0  0  0  0  0  0  0  0  0  0
  151.5089  140.6238  158.1297 N   0  0  0  0  0  0  0  0  0  0  0  0
  150.7276  139.8864  157.2926 C   0  0  0  0  0  0  0  0  0  0  0  0
  150.1146  140.4195  156.3644 O   0  0  0  0  0  0  0  0  0  0  0  0
  150.6016  138.3588  157.4521 C   0  0  0  0  0  0  0  0  0  0  0  0
  149.2872  137.9175  157.9747 N   0  0  0  0  0  0  0  0  0  0  0  0
  148.1208  138.2186  157.2268 C   0  0  0  0  0  0  0  0  0  0  0  0
  148.1846  138.8420  156.1662 O   0  0  0  0  0  0  0  0  0  0  0  0
  146.8667  137.7325  157.7910 C   0  0  0  0  0  0  0  0  0  0  0  0
  145.7114  137.9666  157.1458 F   0  0  0  0  0  0  0  0  0  0  0  0
  146.8473  137.0448  158.9508 C   0  0  0  0  0  0  0  0  0  0  0  0
  147.9925  136.7599  159.6713 N   0  0  0  0  0  0  0  0  0  0  0  0
  147.9335  135.9693  160.9594 C   0  0  2  0  0  0  0  0  0  0  0  0
  146.4957  135.5162  161.2372 C   0  0  0  0  0  0  0  0  0  0  0  0
  145.9942  136.6116  162.1532 C   0  0  0  0  0  0  0  0  0  0  0  0
  147.2542  136.9532  162.9403 C   0  0  0  0  0  0  0  0  0  0  0  0
  148.3294  136.7927  162.0188 O   0  0  0  0  0  0  0  0  0  0  0  0
  149.2484  137.1815  159.1837 C   0  0  0  0  0  0  0  0  0  0  0  0
  150.2848  136.9032  159.7908 O   0  0  0  0  0  0  0  0  0  0  0  0
  153.9882  138.7186  159.5851 H   0  0  0  0  0  0  0  0  0  0  0  0
  154.1282  139.7595  158.1714 H   0  0  0  0  0  0  0  0  0  0  0  0
  153.1250  138.3143  158.1129 H   0  0  0  0  0  0  0  0  0  0  0  0
  151.5576  139.3220  159.7994 H   0  0  0  0  0  0  0  0  0  0  0  0
  152.1529  141.0929  161.1311 H   0  0  0  0  0  0  0  0  0  0  0  0
  153.7601  141.0998  160.3877 H   0  0  0  0  0  0  0  0  0  0  0  0
  153.1187  143.8842  160.7260 H   0  0  0  0  0  0  0  0  0  0  0  0
  152.3985  145.7438  159.2170 H   0  0  0  0  0  0  0  0  0  0  0  0
  151.2312  145.2314  157.0839 H   0  0  0  0  0  0  0  0  0  0  0  0
  150.7630  142.9320  156.4265 H   0  0  0  0  0  0  0  0  0  0  0  0
  150.7939  137.8855  156.4890 H   0  0  0  0  0  0  0  0  0  0  0  0
  151.3934  138.0160  158.1181 H   0  0  0  0  0  0  0  0  0  0  0  0
  145.8909  136.7027  159.3167 H   0  0  0  0  0  0  0  0  0  0  0  0
  148.6440  135.1485  160.8490 H   0  0  0  0  0  0  0  0  0  0  0  0
  145.9113  135.3966  160.3240 H   0  0  0  0  0  0  0  0  0  0  0  0
  146.5274  134.5621  161.7647 H   0  0  0  0  0  0  0  0  0  0  0  0
  145.6661  137.4722  161.5693 H   0  0  0  0  0  0  0  0  0  0  0  0
  145.1673  136.2944  162.7890 H   0  0  0  0  0  0  0  0  0  0  0  0
  147.2302  137.9603  163.3566 H   0  0  0  0  0  0  0  0  0  0  0  0
  147.3904  136.2485  163.7615 H   0  0  0  0  0  0  0  0  0  0  0  0
  1  2  1  0  0  0  0
  1 28  1  0  0  0  0
  1 29  1  0  0  0  0
  1 30  1  0  0  0  0
  2 10  1  0  0  0  0
  2  3  1  0  0  0  0
  2 31  1  0  0  0  0
  3  4  1  0  0  0  0
  3 32  1  0  0  0  0
  3 33  1  0  0  0  0
  4  9  2  0  0  0  0
  4  5  1  0  0  0  0
  5  6  2  0  0  0  0
  5 34  1  0  0  0  0
  6  7  1  0  0  0  0
  6 35  1  0  0  0  0
  7  8  2  0  0  0  0
  7 36  1  0  0  0  0
  8  9  1  0  0  0  0
  8 37  1  0  0  0  0
  9 10  1  0  0  0  0
 10 11  1  0  0  0  0
 11 12  2  0  0  0  0
 11 13  1  0  0  0  0
 13 14  1  0  0  0  0
 13 38  1  0  0  0  0
 13 39  1  0  0  0  0
 14 26  1  0  0  0  0
 14 15  1  0  0  0  0
 15 16  2  0  0  0  0
 15 17  1  0  0  0  0
 17 18  1  0  0  0  0
 17 19  2  0  0  0  0
 19 20  1  0  0  0  0
 19 40  1  0  0  0  0
 20 21  1  0  0  0  0
 20 26  1  0  0  0  0
 21 25  1  0  0  0  0
 21 22  1  0  0  0  0
 21 41  1  0  0  0  0
 22 23  1  0  0  0  0
 22 42  1  0  0  0  0
 22 43  1  0  0  0  0
 23 24  1  0  0  0  0
 23 44  1  0  0  0  0
 23 45  1  0  0  0  0
 24 25  1  0  0  0  0
 24 46  1  0  0  0  0
 24 47  1  0  0  0  0
 26 27  2  0  0  0  0
M  END
> <s_m_source_file>
AV-unprocessed.smi

> <i_m_source_file_index>
25

> <i_lp_mmshare_version>
43012

> <i_f3d_flags>
0

> <s_epik_input>
W2NIXTFbY0hdW2NIXVtjSF1jKGMxMilOKFtDQEhdKFtDSDNdKVtDSDJdMilDKD1PKVtDSDJdbjNjKD1PKWMoRilbY0hdbihjMz1PKVtDQEBIXTRbQ0gyXVtDSDJdW0NIMl1PNA==

> <s_epik_cmdline>
J2VwaWtfcHl0aG9uJywgJy1waCcsICc3LjAnLCAnLXRuJywgJzgnLCAnLW1hJywgJzIwMCcsICctbWV0YWxfYmluZGluZycsICctaW1hZScsICc8aW5maWxlLm1hZT4nLCAnLW9tYWUnLCAnPG91dGZpbGUubWFlPic=

> <r_lp_tautomer_probability>
1

> <r_epik_Ionization_Penalty>
1.67943e-06

> <r_epik_Ionization_Penalty_Charging>
3.79603e-09

> <r_epik_Ionization_Penalty_Neutral>
1.67563e-06

> <r_epik_State_Penalty>
-0

> <r_epik_Charging_Adjusted_Penalty>
3.79603e-09

> <i_epik_Tot_Q>
0

> <i_epik_Tot_abs_Q>
0

> <r_epik_Metal_State_Penalty>
-0

> <b_epik_Metal_Only>
0

> <s_epik_Chemistry_Notes>
This compound contains an acetal/aminal-like group ( X-CH(R)-Y where X, Y are N, S, or O) that may be acid/base labile, releasing an aldehyde.

> <s_lp_Force_Field>
OPLS_2005

> <r_lp_Energy>
55.2786

> <b_lp_Chiralities_Consistent>
1

> <s_lp_Variant>
AV-unprocessed.smi:25-2

> <Gold.Version>
5.8.1

> <Gold.Id.Protein>
6NUR|6NUR_protein|mol2

> <Gold.PLP.Fitness>
54.5054

> <Gold.PLP.PLP>
-48.8737

> <Gold.PLP.part.hbond>
-2.2585

> <Gold.PLP.part.metal>
0.0000

> <Gold.PLP.part.buried>
-5.5459

> <Gold.PLP.part.nonpolar>
-41.6391

> <Gold.PLP.part.repulsive>
0.0256

> <Gold.PLP.ligand.clash>
0.0000

> <Gold.PLP.ligand.torsion>
0.2054

> <Gold.PLP.Chemscore.Hbond>
2.0000

> <Gold.PLP.Chemscore.CHOScore>
0.0000

> <Gold.PLP.Chemscore.Metal>
0.0000

> <Gold.Chemscore.Hbonds>
donor molecule, donor type, donor heavy atom, donor atom, acceptor molecule, acceptor atom, score
      P1  H  6896  6909       L1    27  1.00
      P1  H  6931  6943       L1    25  1.00

> <Gold.PLP.Chemscore.Internal.Correction>
0.0426

> <Gold.Rescore>
     Score         DG    S(hbond)    S(metal)    S(lipo)     H(rot)  DE(clash)    DE(int)     intcor
     17.57     -21.65       1.89        0.00     118.19       1.55       0.00       4.08       ----

> <Gold.Chemscore.Fitness>
17.5714

> <Gold.Chemscore.DG>
-21.6500

> <Gold.Chemscore.ZeroCoef>
-5.4800

> <Gold.Chemscore.Hbond>
1.8885

> <Gold.Chemscore.Metal>
0.0000

> <Gold.Chemscore.Lipo>
118.1858

> <Gold.Chemscore.Internal_Hbond>
0.0000

> <Gold.Chemscore.DEClash>
0.0009

> <Gold.Chemscore.DEInternal>
4.0777

> <Gold.Chemscore.Rot>
1.5489

> <Gold.Chemscore.Internal.Correction>
   9.000000E+99

> <Gold.Chemscore.Hbonds>
donor molecule, donor type, donor heavy atom, donor atom, acceptor molecule, acceptor atom, score
      P1  H  6896  6909       L1    27  0.96
      P1  H  6931  6943       L1    25  0.55

> <Gold.Chemscore.Hbond.Weighted>
-6.3074

> <Gold.Chemscore.Metal.Weighted>
-0.0000

> <Gold.Chemscore.Lipo.Weighted>
-13.8277

> <Gold.Chemscore.Internal_Hbond.Weighted>
0.0000

> <Gold.Chemscore.DEClash.Weighted>
0.0009

> <Gold.Chemscore.DEInternal.Weighted>
4.0777

> <Gold.Chemscore.Rot.Weighted>
3.9651

> <Gold.Chemscore.Internal.Correction.Weighted>
   9.000000E+99

> <Gold.Protein.RotatedTorsions>
[ 6907 6896 6895 6894 ] final   90.15 input  -60.11 | X-H torsion
[ 7974 7965 7964 7962 ] final  -80.91 input  175.53 | X-H torsion
[ 8008 7997 7996 7995 ] final -131.64 input   59.86 | X-H torsion
[ 10167 10162 10161 10158 ] final  171.48 input  -65.29 | X-H torsion
[ 10718 10713 10712 10709 ] final   28.59 input   66.30 | X-H torsion
[ 10763 10752 10751 10750 ] final  -15.91 input  -60.55 | X-H torsion
[ 11005 11000 10999 10996 ] final   53.76 input  -57.11 | X-H torsion

> <Gold.Protein.ActiveResidues>
 VAL166  LYS551  ARG553  GLY616  TRP617  ASP618  TYR619  PRO620  LYS621  CYS622 
 ASP623  PHE694  ASN695  SER759  ASP760  ASP761  ALA762  ILE779  LEU786  VAL792 
 PHE793  MET794  SER795  GLU796  ALA797  LYS798  CYS799  TRP800  GLU811  SER814 

> <Gold.Protein.RotatedAtoms>
  152.5442  134.1856  159.8653 H   0  0  0  0  0  0  0  0  0  0  0  0  # atno 6907 bound_to 6896
  151.1856  133.4691  159.2602 H   0  0  0  0  0  0  0  0  0  0  0  0  # atno 6908 bound_to 6896
  151.1135  135.0051  159.8560 H   0  0  0  0  0  0  0  0  0  0  0  0  # atno 6909 bound_to 6896
  145.5537  140.9493  143.1485 H   0  0  0  0  0  0  0  0  0  0  0  0  # atno 7974 bound_to 7965
  155.3157  140.0459  157.3037 H   0  0  0  0  0  0  0  0  0  0  0  0  # atno 8008 bound_to 7997
  154.5408  140.2287  155.8611 H   0  0  0  0  0  0  0  0  0  0  0  0  # atno 8009 bound_to 7997
  156.1879  140.3058  155.9280 H   0  0  0  0  0  0  0  0  0  0  0  0  # atno 8010 bound_to 7997
  139.5048  144.3481  151.9951 H   0  0  0  0  0  0  0  0  0  0  0  0  # atno 10167 bound_to 10162
  157.2354  130.7044  149.6333 H   0  0  0  0  0  0  0  0  0  0  0  0  # atno 10718 bound_to 10713
  153.5505  135.7011  153.5593 H   0  0  0  0  0  0  0  0  0  0  0  0  # atno 10763 bound_to 10752
  153.3519  135.3993  155.1653 H   0  0  0  0  0  0  0  0  0  0  0  0  # atno 10764 bound_to 10752
  154.8662  135.3767  154.5016 H   0  0  0  0  0  0  0  0  0  0  0  0  # atno 10765 bound_to 10752
  140.0741  134.5429  155.9015 H   0  0  0  0  0  0  0  0  0  0  0  0  # atno 11005 bound_to 11000
  144.7517  139.7177  143.7270 LP  0  0  0  0  0  0  0  0  0  0  0  0  # atno 17320 bound_to 7965
  146.1899  139.5134  142.9812 LP  0  0  0  0  0  0  0  0  0  0  0  0  # atno 17321 bound_to 7965
  140.2918  144.3745  150.6086 LP  0  0  0  0  0  0  0  0  0  0  0  0  # atno 17342 bound_to 10162
  140.5941  143.2167  151.7198 LP  0  0  0  0  0  0  0  0  0  0  0  0  # atno 17343 bound_to 10162
  155.9673  130.4475  150.5583 LP  0  0  0  0  0  0  0  0  0  0  0  0  # atno 17370 bound_to 10713
  157.3434  131.0721  151.1770 LP  0  0  0  0  0  0  0  0  0  0  0  0  # atno 17371 bound_to 10713
  141.2023  133.6624  156.5998 LP  0  0  0  0  0  0  0  0  0  0  0  0  # atno 17394 bound_to 11000
  140.3583  134.7709  157.4516 LP  0  0  0  0  0  0  0  0  0  0  0  0  # atno 17395 bound_to 11000

$$$$
