AV-unprocessed.smi:2775|AV-procd|sdf|10697|dock8
  -GOLD-   2272015133D 1   1.00000     0.00000
 Structure written by MMmdl.
 43 46  0  0  0  0  0  0  0  0  2 V2000
  143.8140  132.4103  150.5829 C   0  0  0  0  0  0  0  0  0  0  0  0
  143.9196  133.5633  151.5625 C   0  0  0  0  0  0  0  0  0  0  0  0
  142.7850  133.9838  152.1636 N   0  3  0  0  0  0  0  0  0  0  0  0
  142.7575  134.9942  153.0568 C   0  0  0  0  0  0  0  0  0  0  0  0
  143.9481  135.6659  153.3960 C   0  0  0  0  0  0  0  0  0  0  0  0
  145.1666  135.2760  152.7839 C   0  0  0  0  0  0  0  0  0  0  0  0
  146.4209  135.8824  153.0712 N   0  0  0  0  0  0  0  0  0  0  0  0
  146.7575  136.7392  154.0543 C   0  0  0  0  0  0  0  0  0  0  0  0
  145.9831  137.1782  154.9012 O   0  0  0  0  0  0  0  0  0  0  0  0
  148.0498  137.1083  154.0317 N   0  0  0  0  0  0  0  0  0  0  0  0
  148.7284  138.0200  154.9531 C   0  0  1  0  0  0  0  0  0  0  0  0
  150.2234  138.1482  154.6556 C   0  0  2  0  0  0  0  0  0  0  0  0
  151.4578  137.6972  155.3495 C   0  0  0  0  0  0  0  0  0  0  0  0
  152.2716  139.0078  155.1999 C   0  0  0  0  0  0  0  0  0  0  0  0
  151.3405  139.9946  154.6928 O   0  0  0  0  0  0  0  0  0  0  0  0
  150.0812  139.5698  155.1774 C   0  0  1  0  0  0  0  0  0  0  0  0
  148.6975  139.5243  154.5159 C   0  0  0  0  0  0  0  0  0  0  0  0
  147.5710  140.4672  154.9549 C   0  0  0  0  0  0  0  0  0  0  0  0
  147.0840  140.4959  153.5019 C   0  0  0  0  0  0  0  0  0  0  0  0
  148.4654  139.9946  153.0679 C   0  0  0  0  0  0  0  0  0  0  0  0
  145.1474  134.1993  151.8626 C   0  0  0  0  0  0  0  0  0  0  0  0
  146.6103  133.6643  151.1047 Cl  0  0  0  0  0  0  0  0  0  0  0  0
  144.1668  132.7158  149.5974 H   0  0  0  0  0  0  0  0  0  0  0  0
  142.7844  132.0654  150.4816 H   0  0  0  0  0  0  0  0  0  0  0  0
  144.4204  131.5696  150.9204 H   0  0  0  0  0  0  0  0  0  0  0  0
  141.7902  135.2309  153.4753 H   0  0  0  0  0  0  0  0  0  0  0  0
  143.8998  136.4572  154.1275 H   0  0  0  0  0  0  0  0  0  0  0  0
  147.1565  135.6711  152.4124 H   0  0  0  0  0  0  0  0  0  0  0  0
  148.6211  136.7196  153.2951 H   0  0  0  0  0  0  0  0  0  0  0  0
  148.5152  137.8511  156.0124 H   0  0  0  0  0  0  0  0  0  0  0  0
  150.3862  138.1247  153.5715 H   0  0  0  0  0  0  0  0  0  0  0  0
  151.2707  137.4491  156.3951 H   0  0  0  0  0  0  0  0  0  0  0  0
  151.9345  136.8481  154.8589 H   0  0  0  0  0  0  0  0  0  0  0  0
  152.6755  139.3251  156.1620 H   0  0  0  0  0  0  0  0  0  0  0  0
  153.1028  138.8962  154.5032 H   0  0  0  0  0  0  0  0  0  0  0  0
  150.0218  139.6393  156.2688 H   0  0  0  0  0  0  0  0  0  0  0  0
  146.8626  140.0392  155.6639 H   0  0  0  0  0  0  0  0  0  0  0  0
  147.9426  141.4359  155.2922 H   0  0  0  0  0  0  0  0  0  0  0  0
  146.2919  139.7720  153.3066 H   0  0  0  0  0  0  0  0  0  0  0  0
  146.8237  141.4875  153.1303 H   0  0  0  0  0  0  0  0  0  0  0  0
  149.1346  140.8071  152.7812 H   0  0  0  0  0  0  0  0  0  0  0  0
  148.4463  139.2080  152.3134 H   0  0  0  0  0  0  0  0  0  0  0  0
  141.9094  133.5122  151.9352 H   0  0  0  0  0  0  0  0  0  0  0  0
  1  2  1  0  0  0  0
  1 23  1  0  0  0  0
  1 24  1  0  0  0  0
  1 25  1  0  0  0  0
  2 21  1  0  0  0  0
  2  3  2  0  0  0  0
  3  4  1  0  0  0  0
  3 43  1  0  0  0  0
  4  5  2  0  0  0  0
  4 26  1  0  0  0  0
  5  6  1  0  0  0  0
  5 27  1  0  0  0  0
  6  7  1  0  0  0  0
  6 21  2  0  0  0  0
  7  8  1  0  0  0  0
  7 28  1  0  0  0  0
  8  9  2  0  0  0  0
  8 10  1  0  0  0  0
 10 11  1  0  0  0  0
 10 29  1  0  0  0  0
 11 17  1  0  0  0  0
 11 12  1  0  0  0  0
 11 30  1  0  0  0  0
 12 16  1  0  0  0  0
 12 13  1  0  0  0  0
 12 31  1  0  0  0  0
 13 14  1  0  0  0  0
 13 32  1  0  0  0  0
 13 33  1  0  0  0  0
 14 15  1  0  0  0  0
 14 34  1  0  0  0  0
 14 35  1  0  0  0  0
 15 16  1  0  0  0  0
 16 17  1  0  0  0  0
 16 36  1  0  0  0  0
 17 20  1  0  0  0  0
 17 18  1  0  0  0  0
 18 19  1  0  0  0  0
 18 37  1  0  0  0  0
 18 38  1  0  0  0  0
 19 20  1  0  0  0  0
 19 39  1  0  0  0  0
 19 40  1  0  0  0  0
 20 41  1  0  0  0  0
 20 42  1  0  0  0  0
 21 22  1  0  0  0  0
M  CHG  1   3   1
M  END
> <s_m_source_file>
AV-unprocessed.smi

> <i_m_source_file_index>
2775

> <i_lp_mmshare_version>
43012

> <i_f3d_flags>
0

> <s_epik_input>
W0NIM11jMW5bY0hdW2NIXWMoYzFDbClbTkhdQyg9TylbTkhdW0NAQEhdMltDQEhdKFtDSDJdW0NIMl1PMylbQ0BASF0zQzI0W0NIMl1bQ0gyXVtDSDJdNA==

> <s_epik_cmdline>
J2VwaWtfcHl0aG9uJywgJy1waCcsICc3LjAnLCAnLXRuJywgJzgnLCAnLW1hJywgJzIwMCcsICctbWV0YWxfYmluZGluZycsICctaW1hZScsICc8aW5maWxlLm1hZT4nLCAnLW9tYWUnLCAnPG91dGZpbGUubWFlPic=

> <r_epik_Ionization_Penalty>
2.4104

> <r_epik_Ionization_Penalty_Charging>
2.41038

> <r_epik_Ionization_Penalty_Neutral>
1.9872e-05

> <r_epik_State_Penalty>
2.56896

> <r_epik_Charging_Adjusted_Penalty>
4.97934

> <i_epik_Tot_Q>
1

> <i_epik_Tot_abs_Q>
1

> <r_epik_Metal_State_Penalty>
2.57906

> <b_epik_Metal_Only>
0

> <s_lp_Force_Field>
OPLS_2005

> <r_lp_Energy>
84.4101

> <b_lp_Chiralities_Consistent>
1

> <s_lp_Variant>
AV-unprocessed.smi:2775-10

> <Gold.Version>
5.8.1

> <Gold.Id.Protein>
6NUR|6NUR_protein|mol2

> <Gold.PLP.Fitness>
39.6100

> <Gold.PLP.PLP>
-31.1271

> <Gold.PLP.part.hbond>
-3.5718

> <Gold.PLP.part.metal>
0.0000

> <Gold.PLP.part.buried>
-1.0380

> <Gold.PLP.part.nonpolar>
-27.6563

> <Gold.PLP.part.repulsive>
0.1216

> <Gold.PLP.ligand.clash>
0.0000

> <Gold.PLP.ligand.torsion>
0.2246

> <Gold.PLP.Chemscore.Hbond>
2.8713

> <Gold.PLP.Chemscore.CHOScore>
0.0000

> <Gold.PLP.Chemscore.Metal>
0.0000

> <Gold.Chemscore.Hbonds>
donor molecule, donor type, donor heavy atom, donor atom, acceptor molecule, acceptor atom, score
      L1  H     7    28       P1  7948  0.88
      L1  H    10    29       P1  7948  1.00
      P1  H  7989  7998       L1    15  0.94

> <Gold.PLP.Chemscore.Internal.Correction>
0.3183

> <Gold.Rescore>
     Score         DG    S(hbond)    S(metal)    S(lipo)     H(rot)  DE(clash)    DE(int)     intcor
     19.63     -23.02       2.86        0.00      90.09       1.00       1.98       1.41       ----

> <Gold.Chemscore.Fitness>
19.6302

> <Gold.Chemscore.DG>
-23.0173

> <Gold.Chemscore.ZeroCoef>
-5.4800

> <Gold.Chemscore.Hbond>
2.8614

> <Gold.Chemscore.Metal>
0.0000

> <Gold.Chemscore.Lipo>
90.0869

> <Gold.Chemscore.Internal_Hbond>
0.0000

> <Gold.Chemscore.DEClash>
1.9762

> <Gold.Chemscore.DEInternal>
1.4109

> <Gold.Chemscore.Rot>
1.0000

> <Gold.Chemscore.Internal.Correction>
   9.000000E+99

> <Gold.Chemscore.Hbonds>
donor molecule, donor type, donor heavy atom, donor atom, acceptor molecule, acceptor atom, score
      L1  H     7    28       P1  7948  0.86
      L1  H    10    29       P1  7948  0.93
      P1  H  7989  7998       L1    15  0.89

> <Gold.Chemscore.Hbond.Weighted>
-9.5571

> <Gold.Chemscore.Metal.Weighted>
-0.0000

> <Gold.Chemscore.Lipo.Weighted>
-10.5402

> <Gold.Chemscore.Internal_Hbond.Weighted>
0.0000

> <Gold.Chemscore.DEClash.Weighted>
1.9762

> <Gold.Chemscore.DEInternal.Weighted>
1.4109

> <Gold.Chemscore.Rot.Weighted>
2.5600

> <Gold.Chemscore.Internal.Correction.Weighted>
   9.000000E+99

> <Gold.Protein.RotatedTorsions>
[ 6907 6896 6895 6894 ] final  162.15 input  -60.11 | X-H torsion
[ 7974 7965 7964 7962 ] final -140.58 input  175.53 | X-H torsion
[ 8008 7997 7996 7995 ] final   13.73 input   59.86 | X-H torsion
[ 10167 10162 10161 10158 ] final -129.05 input  -65.29 | X-H torsion
[ 10718 10713 10712 10709 ] final  142.19 input   66.30 | X-H torsion
[ 10763 10752 10751 10750 ] final -149.03 input  -60.55 | X-H torsion
[ 11005 11000 10999 10996 ] final  -44.13 input  -57.11 | X-H torsion

> <Gold.Protein.ActiveResidues>
 VAL166  LYS551  ARG553  GLY616  TRP617  ASP618  TYR619  PRO620  LYS621  CYS622 
 ASP623  PHE694  ASN695  SER759  ASP760  ASP761  ALA762  ILE779  LEU786  VAL792 
 PHE793  MET794  SER795  GLU796  ALA797  LYS798  CYS799  TRP800  GLU811  SER814 

> <Gold.Protein.RotatedAtoms>
  151.9449  133.3648  159.3978 H   0  0  0  0  0  0  0  0  0  0  0  0  # atno 6907 bound_to 6896
  150.6991  134.4401  159.5297 H   0  0  0  0  0  0  0  0  0  0  0  0  # atno 6908 bound_to 6896
  152.2064  134.8541  160.0553 H   0  0  0  0  0  0  0  0  0  0  0  0  # atno 6909 bound_to 6896
  144.8586  140.6183  143.5343 H   0  0  0  0  0  0  0  0  0  0  0  0  # atno 7974 bound_to 7965
  154.8385  140.2911  155.5675 H   0  0  0  0  0  0  0  0  0  0  0  0  # atno 8008 bound_to 7997
  156.3010  140.2518  156.3255 H   0  0  0  0  0  0  0  0  0  0  0  0  # atno 8009 bound_to 7997
  154.9151  140.0387  157.1957 H   0  0  0  0  0  0  0  0  0  0  0  0  # atno 8010 bound_to 7997
  139.9439  143.6132  152.2495 H   0  0  0  0  0  0  0  0  0  0  0  0  # atno 10167 bound_to 10162
  157.3834  131.0995  151.0716 H   0  0  0  0  0  0  0  0  0  0  0  0  # atno 10718 bound_to 10713
  154.8200  135.3319  154.7065 H   0  0  0  0  0  0  0  0  0  0  0  0  # atno 10763 bound_to 10752
  153.7699  135.6926  153.4913 H   0  0  0  0  0  0  0  0  0  0  0  0  # atno 10764 bound_to 10752
  153.2052  135.4502  155.0262 H   0  0  0  0  0  0  0  0  0  0  0  0  # atno 10765 bound_to 10752
  141.0430  133.6772  156.2829 H   0  0  0  0  0  0  0  0  0  0  0  0  # atno 11005 bound_to 11000
  145.4357  139.1542  143.3998 LP  0  0  0  0  0  0  0  0  0  0  0  0  # atno 17320 bound_to 7965
  146.2843  140.4476  142.8764 LP  0  0  0  0  0  0  0  0  0  0  0  0  # atno 17321 bound_to 7965
  139.6682  144.7661  151.1832 LP  0  0  0  0  0  0  0  0  0  0  0  0  # atno 17342 bound_to 10162
  140.7603  143.5905  150.8801 LP  0  0  0  0  0  0  0  0  0  0  0  0  # atno 17343 bound_to 10162
  157.1777  130.6295  149.5661 LP  0  0  0  0  0  0  0  0  0  0  0  0  # atno 17370 bound_to 10713
  155.9781  130.4764  150.6635 LP  0  0  0  0  0  0  0  0  0  0  0  0  # atno 17371 bound_to 10713
  140.6200  134.5372  157.5546 LP  0  0  0  0  0  0  0  0  0  0  0  0  # atno 17394 bound_to 11000
  139.9290  134.8000  156.0985 LP  0  0  0  0  0  0  0  0  0  0  0  0  # atno 17395 bound_to 11000

$$$$
