AV-unprocessed.smi:3278|AV-procd|sdf|12545|dock1
  -GOLD-   2272018463D 1   1.00000     0.00000
 Structure written by MMmdl.
 38 39  0  0  0  0  0  0  0  0  1 V2000
  150.0358  135.3192  155.0016 C   0  0  0  0  0  0  0  0  0  0  0  0
  150.2554  136.7351  154.7985 N   0  0  0  0  0  0  0  0  0  0  0  0
  149.4138  137.7858  155.0918 C   0  0  0  0  0  0  0  0  0  0  0  0
  150.0490  138.9407  154.7257 C   0  0  0  0  0  0  0  0  0  0  0  0
  149.5643  140.3722  154.8242 C   0  0  2  0  0  0  0  0  0  0  0  0
  148.1445  140.4003  155.4150 C   0  0  0  0  0  0  0  0  0  0  0  0
  149.4588  140.9903  153.5552 O   0  0  0  0  0  0  0  0  0  0  0  0
  150.5102  141.2408  155.6835 C   0  0  0  0  0  0  0  0  0  0  0  0
  150.5660  140.7862  157.0760 N   0  0  0  0  0  0  0  0  0  0  0  0
  151.6193  141.3863  157.8994 C   0  0  2  0  0  0  0  0  0  0  0  0
  151.8612  140.5866  159.2011 C   0  0  0  0  0  0  0  0  0  0  0  0
  152.9935  141.1729  160.0606 C   0  0  0  0  0  0  0  0  0  0  0  0
  152.7129  142.6141  160.5051 C   0  0  0  0  0  0  0  0  0  0  0  0
  152.5735  143.7183  159.0757 S   0  0  0  0  0  0  0  0  0  0  0  0
  151.2446  142.8489  158.2004 C   0  0  0  0  0  0  0  0  0  0  0  0
  151.2957  138.4747  154.2138 C   0  0  0  0  0  0  0  0  0  0  0  0
  151.4159  137.1581  154.2586 N   0  0  0  0  0  0  0  0  0  0  0  0
  148.9865  135.1340  155.2329 H   0  0  0  0  0  0  0  0  0  0  0  0
  150.6497  134.9677  155.8312 H   0  0  0  0  0  0  0  0  0  0  0  0
  150.3009  134.7676  154.0991 H   0  0  0  0  0  0  0  0  0  0  0  0
  148.4397  137.6277  155.5311 H   0  0  0  0  0  0  0  0  0  0  0  0
  148.1227  139.9701  156.4167 H   0  0  0  0  0  0  0  0  0  0  0  0
  147.4467  139.8312  154.7989 H   0  0  0  0  0  0  0  0  0  0  0  0
  147.7626  141.4193  155.4900 H   0  0  0  0  0  0  0  0  0  0  0  0
  149.3799  140.3153  152.8988 H   0  0  0  0  0  0  0  0  0  0  0  0
  151.5042  141.2516  155.2369 H   0  0  0  0  0  0  0  0  0  0  0  0
  150.1520  142.2708  155.6626 H   0  0  0  0  0  0  0  0  0  0  0  0
  149.6631  140.9380  157.5149 H   0  0  0  0  0  0  0  0  0  0  0  0
  152.5461  141.3952  157.3237 H   0  0  0  0  0  0  0  0  0  0  0  0
  150.9416  140.5449  159.7865 H   0  0  0  0  0  0  0  0  0  0  0  0
  152.1237  139.5545  158.9713 H   0  0  0  0  0  0  0  0  0  0  0  0
  153.1337  140.5474  160.9427 H   0  0  0  0  0  0  0  0  0  0  0  0
  153.9333  141.1350  159.5085 H   0  0  0  0  0  0  0  0  0  0  0  0
  151.7911  142.6623  161.0855 H   0  0  0  0  0  0  0  0  0  0  0  0
  153.5162  142.9743  161.1482 H   0  0  0  0  0  0  0  0  0  0  0  0
  151.0432  143.3880  157.2738 H   0  0  0  0  0  0  0  0  0  0  0  0
  150.3347  142.8969  158.8003 H   0  0  0  0  0  0  0  0  0  0  0  0
  152.1124  139.0547  153.8099 H   0  0  0  0  0  0  0  0  0  0  0  0
  1  2  1  0  0  0  0
  1 18  1  0  0  0  0
  1 19  1  0  0  0  0
  1 20  1  0  0  0  0
  2 17  1  0  0  0  0
  2  3  1  0  0  0  0
  3  4  2  0  0  0  0
  3 21  1  0  0  0  0
  4  5  1  0  0  0  0
  4 16  1  0  0  0  0
  5  6  1  0  0  0  0
  5  7  1  0  0  0  0
  5  8  1  0  0  0  0
  6 22  1  0  0  0  0
  6 23  1  0  0  0  0
  6 24  1  0  0  0  0
  7 25  1  0  0  0  0
  8  9  1  0  0  0  0
  8 26  1  0  0  0  0
  8 27  1  0  0  0  0
  9 10  1  0  0  0  0
  9 28  1  0  0  0  0
 10 15  1  0  0  0  0
 10 11  1  0  0  0  0
 10 29  1  0  0  0  0
 11 12  1  0  0  0  0
 11 30  1  0  0  0  0
 11 31  1  0  0  0  0
 12 13  1  0  0  0  0
 12 32  1  0  0  0  0
 12 33  1  0  0  0  0
 13 14  1  0  0  0  0
 13 34  1  0  0  0  0
 13 35  1  0  0  0  0
 14 15  1  0  0  0  0
 15 36  1  0  0  0  0
 15 37  1  0  0  0  0
 16 17  2  0  0  0  0
 16 38  1  0  0  0  0
M  END
> <s_m_source_file>
AV-unprocessed.smi

> <i_m_source_file_index>
3278

> <i_lp_mmshare_version>
43012

> <i_f3d_flags>
0

> <s_epik_input>
W0NIM11uMVtjSF1jKFtjSF1uMSlbQ0BAXShbQ0gzXSkoW09IXSlbQ0gyXVtOSF1bQ0BASF0yW0NIMl1bQ0gyXVtDSDJdU1tDSDJdMg==

> <s_epik_cmdline>
J2VwaWtfcHl0aG9uJywgJy1waCcsICc3LjAnLCAnLXRuJywgJzgnLCAnLW1hJywgJzIwMCcsICctbWV0YWxfYmluZGluZycsICctaW1hZScsICc8aW5maWxlLm1hZT4nLCAnLW9tYWUnLCAnPG91dGZpbGUubWFlPic=

> <r_lp_tautomer_probability>
1

> <r_epik_Ionization_Penalty>
2.06123

> <r_epik_Ionization_Penalty_Charging>
0

> <r_epik_Ionization_Penalty_Neutral>
2.06123

> <r_epik_State_Penalty>
2.1944

> <r_epik_Charging_Adjusted_Penalty>
2.1944

> <i_epik_Tot_Q>
0

> <i_epik_Tot_abs_Q>
0

> <r_epik_Metal_State_Penalty>
2.19434

> <b_epik_Metal_Only>
0

> <s_lp_Force_Field>
OPLS_2005

> <r_lp_Energy>
11.3172

> <b_lp_Chiralities_Consistent>
1

> <s_lp_Variant>
AV-unprocessed.smi:3278-6

> <Gold.Version>
5.8.1

> <Gold.Id.Protein>
6NUR|6NUR_protein|mol2

> <Gold.PLP.Fitness>
46.9850

> <Gold.PLP.PLP>
-39.1361

> <Gold.PLP.part.hbond>
-3.9615

> <Gold.PLP.part.metal>
0.0000

> <Gold.PLP.part.buried>
-4.8713

> <Gold.PLP.part.nonpolar>
-29.3825

> <Gold.PLP.part.repulsive>
0.1406

> <Gold.PLP.ligand.clash>
0.0000

> <Gold.PLP.ligand.torsion>
0.1524

> <Gold.PLP.Chemscore.Hbond>
2.6786

> <Gold.PLP.Chemscore.CHOScore>
0.0000

> <Gold.PLP.Chemscore.Metal>
0.0000

> <Gold.Chemscore.Hbonds>
donor molecule, donor type, donor heavy atom, donor atom, acceptor molecule, acceptor atom, score
      L1  H     7    25       P1  7957  0.82
      P1  H  7989  7998       L1     7  0.04
      P1  H  8011  8017       L1     7  0.80
      P1  H 10752 10765       L1    17  0.75

> <Gold.PLP.Chemscore.Internal.Correction>
0.1180

> <Gold.Rescore>
     Score         DG    S(hbond)    S(metal)    S(lipo)     H(rot)  DE(clash)    DE(int)     intcor
     17.51     -18.81       1.99        0.00      99.36       1.93       0.27       1.02       ----

> <Gold.Chemscore.Fitness>
17.5094

> <Gold.Chemscore.DG>
-18.8055

> <Gold.Chemscore.ZeroCoef>
-5.4800

> <Gold.Chemscore.Hbond>
1.9907

> <Gold.Chemscore.Metal>
0.0000

> <Gold.Chemscore.Lipo>
99.3569

> <Gold.Chemscore.Internal_Hbond>
0.0000

> <Gold.Chemscore.DEClash>
0.2723

> <Gold.Chemscore.DEInternal>
1.0237

> <Gold.Chemscore.Rot>
1.9329

> <Gold.Chemscore.Internal.Correction>
   9.000000E+99

> <Gold.Chemscore.Hbonds>
donor molecule, donor type, donor heavy atom, donor atom, acceptor molecule, acceptor atom, score
      L1  H     7    25       P1  7957  0.81
      P1  H  8011  8017       L1     7  0.11
      P1  H 10752 10765       L1    17  0.64

> <Gold.Chemscore.Hbond.Weighted>
-6.6490

> <Gold.Chemscore.Metal.Weighted>
-0.0000

> <Gold.Chemscore.Lipo.Weighted>
-11.6248

> <Gold.Chemscore.Internal_Hbond.Weighted>
0.0000

> <Gold.Chemscore.DEClash.Weighted>
0.2723

> <Gold.Chemscore.DEInternal.Weighted>
1.0237

> <Gold.Chemscore.Rot.Weighted>
4.9483

> <Gold.Chemscore.Internal.Correction.Weighted>
   9.000000E+99

> <Gold.Protein.RotatedTorsions>
[ 6907 6896 6895 6894 ] final   68.66 input  -60.11 | X-H torsion
[ 7974 7965 7964 7962 ] final   55.68 input  175.53 | X-H torsion
[ 8008 7997 7996 7995 ] final -175.63 input   59.86 | X-H torsion
[ 10167 10162 10161 10158 ] final  -76.63 input  -65.29 | X-H torsion
[ 10718 10713 10712 10709 ] final -151.49 input   66.30 | X-H torsion
[ 10763 10752 10751 10750 ] final  157.97 input  -60.55 | X-H torsion
[ 11005 11000 10999 10996 ] final  162.11 input  -57.11 | X-H torsion

> <Gold.Protein.ActiveResidues>
 VAL166  LYS551  ARG553  GLY616  TRP617  ASP618  TYR619  PRO620  LYS621  CYS622 
 ASP623  PHE694  ASN695  SER759  ASP760  ASP761  ALA762  ILE779  LEU786  VAL792 
 PHE793  MET794  SER795  GLU796  ALA797  LYS798  CYS799  TRP800  GLU811  SER814 

> <Gold.Protein.RotatedAtoms>
  152.4635  134.5130  159.9759 H   0  0  0  0  0  0  0  0  0  0  0  0  # atno 6907 bound_to 6896
  151.5173  133.3467  159.2903 H   0  0  0  0  0  0  0  0  0  0  0  0  # atno 6908 bound_to 6896
  150.8608  134.7988  159.7143 H   0  0  0  0  0  0  0  0  0  0  0  0  # atno 6909 bound_to 6896
  145.9479  139.3945  143.0324 H   0  0  0  0  0  0  0  0  0  0  0  0  # atno 7974 bound_to 7965
  155.9849  140.1189  157.0692 H   0  0  0  0  0  0  0  0  0  0  0  0  # atno 8008 bound_to 7997
  154.4194  140.1137  156.5554 H   0  0  0  0  0  0  0  0  0  0  0  0  # atno 8009 bound_to 7997
  155.6421  140.3473  155.4720 H   0  0  0  0  0  0  0  0  0  0  0  0  # atno 8010 bound_to 7997
  140.4840  143.2395  151.8013 H   0  0  0  0  0  0  0  0  0  0  0  0  # atno 10167 bound_to 10162
  156.4599  130.8208  151.2439 H   0  0  0  0  0  0  0  0  0  0  0  0  # atno 10718 bound_to 10713
  154.2087  135.2787  155.2966 H   0  0  0  0  0  0  0  0  0  0  0  0  # atno 10763 bound_to 10752
  154.5796  135.5593  153.7176 H   0  0  0  0  0  0  0  0  0  0  0  0  # atno 10764 bound_to 10752
  153.0069  135.6341  154.2226 H   0  0  0  0  0  0  0  0  0  0  0  0  # atno 10765 bound_to 10752
  140.2224  134.8186  157.3234 H   0  0  0  0  0  0  0  0  0  0  0  0  # atno 11005 bound_to 11000
  145.8212  140.9678  143.0898 LP  0  0  0  0  0  0  0  0  0  0  0  0  # atno 17320 bound_to 7965
  144.6790  140.0043  143.7484 LP  0  0  0  0  0  0  0  0  0  0  0  0  # atno 17321 bound_to 7965
  139.4838  144.4736  151.9395 LP  0  0  0  0  0  0  0  0  0  0  0  0  # atno 17342 bound_to 10162
  140.3821  144.2723  150.5907 LP  0  0  0  0  0  0  0  0  0  0  0  0  # atno 17343 bound_to 10162
  157.7498  131.0110  150.3330 LP  0  0  0  0  0  0  0  0  0  0  0  0  # atno 17370 bound_to 10713
  156.3727  130.3866  149.7163 LP  0  0  0  0  0  0  0  0  0  0  0  0  # atno 17371 bound_to 10713
  140.1835  134.4460  155.7758 LP  0  0  0  0  0  0  0  0  0  0  0  0  # atno 17394 bound_to 11000
  141.2222  133.6994  156.7908 LP  0  0  0  0  0  0  0  0  0  0  0  0  # atno 17395 bound_to 11000

$$$$
