AV-unprocessed.smi:2570|AV-procd|sdf|10106|dock6
  -GOLD-   2272014123D 1   1.00000     0.00000
 Structure written by MMmdl.
 32 33  0  0  0  0  0  0  0  0  1 V2000
  145.6455  143.6752  153.4123 C   0  0  0  0  0  0  0  0  0  0  0  0
  145.9222  142.8439  154.5379 O   0  0  0  0  0  0  0  0  0  0  0  0
  147.0320  142.0214  154.4493 C   0  0  0  0  0  0  0  0  0  0  0  0
  147.0089  140.9330  153.4948 C   0  0  0  0  0  0  0  0  0  0  0  0
  148.0862  140.1244  153.3969 C   0  0  0  0  0  0  0  0  0  0  0  0
  149.2733  140.3190  154.2290 C   0  0  0  0  0  0  0  0  0  0  0  0
  150.2691  139.5985  154.1624 O   0  0  0  0  0  0  0  0  0  0  0  0
  149.1749  141.3742  155.0915 N   0  0  0  0  0  0  0  0  0  0  0  0
  150.2707  141.7183  156.0058 C   0  0  0  0  0  0  0  0  0  0  0  0
  149.8086  141.7913  157.4783 C   0  0  2  0  0  0  0  0  0  0  0  0
  149.0540  142.9723  157.6686 O   0  0  0  0  0  0  0  0  0  0  0  0
  150.9936  141.7227  158.4334 C   0  0  0  0  0  0  0  0  0  0  0  0
  151.5786  140.4704  158.7225 C   0  0  0  0  0  0  0  0  0  0  0  0
  152.6787  140.3818  159.5970 C   0  0  0  0  0  0  0  0  0  0  0  0
  153.2038  141.5458  160.1889 C   0  0  0  0  0  0  0  0  0  0  0  0
  154.2606  141.4606  161.0310 F   0  0  0  0  0  0  0  0  0  0  0  0
  152.6300  142.7988  159.9022 C   0  0  0  0  0  0  0  0  0  0  0  0
  151.5305  142.8906  159.0263 C   0  0  0  0  0  0  0  0  0  0  0  0
  150.9997  144.1079  158.7579 F   0  0  0  0  0  0  0  0  0  0  0  0
  148.0752  142.2082  155.1946 N   0  0  0  0  0  0  0  0  0  0  0  0
  144.7500  144.2625  153.6146 H   0  0  0  0  0  0  0  0  0  0  0  0
  145.4533  143.0892  152.5116 H   0  0  0  0  0  0  0  0  0  0  0  0
  146.4579  144.3771  153.2160 H   0  0  0  0  0  0  0  0  0  0  0  0
  146.1380  140.7799  152.8745 H   0  0  0  0  0  0  0  0  0  0  0  0
  148.0728  139.3114  152.6859 H   0  0  0  0  0  0  0  0  0  0  0  0
  151.0467  140.9569  155.9068 H   0  0  0  0  0  0  0  0  0  0  0  0
  150.7518  142.6518  155.7069 H   0  0  0  0  0  0  0  0  0  0  0  0
  149.1487  140.9523  157.7015 H   0  0  0  0  0  0  0  0  0  0  0  0
  148.9875  143.4223  156.8403 H   0  0  0  0  0  0  0  0  0  0  0  0
  151.1867  139.5700  158.2726 H   0  0  0  0  0  0  0  0  0  0  0  0
  153.1201  139.4199  159.8130 H   0  0  0  0  0  0  0  0  0  0  0  0
  153.0351  143.6925  160.3535 H   0  0  0  0  0  0  0  0  0  0  0  0
  1  2  1  0  0  0  0
  1 21  1  0  0  0  0
  1 22  1  0  0  0  0
  1 23  1  0  0  0  0
  2  3  1  0  0  0  0
  3 20  2  0  0  0  0
  3  4  1  0  0  0  0
  4  5  2  0  0  0  0
  4 24  1  0  0  0  0
  5  6  1  0  0  0  0
  5 25  1  0  0  0  0
  6  7  2  0  0  0  0
  6  8  1  0  0  0  0
  8  9  1  0  0  0  0
  8 20  1  0  0  0  0
  9 10  1  0  0  0  0
  9 26  1  0  0  0  0
  9 27  1  0  0  0  0
 10 11  1  0  0  0  0
 10 12  1  0  0  0  0
 10 28  1  0  0  0  0
 11 29  1  0  0  0  0
 12 18  1  0  0  0  0
 12 13  2  0  0  0  0
 13 14  1  0  0  0  0
 13 30  1  0  0  0  0
 14 15  2  0  0  0  0
 14 31  1  0  0  0  0
 15 16  1  0  0  0  0
 15 17  1  0  0  0  0
 17 18  2  0  0  0  0
 17 32  1  0  0  0  0
 18 19  1  0  0  0  0
M  END
> <s_m_source_file>
AV-unprocessed.smi

> <i_m_source_file_index>
2570

> <i_lp_mmshare_version>
43012

> <i_f3d_flags>
0

> <s_epik_input>
W0NIM11PYzFbY0hdW2NIXWMoPU8pbihuMSlbQ0gyXVtDQEhdKFtPSF0pYzJbY0hdW2NIXWMoRilbY0hdYzJG

> <s_epik_cmdline>
J2VwaWtfcHl0aG9uJywgJy1waCcsICc3LjAnLCAnLXRuJywgJzgnLCAnLW1hJywgJzIwMCcsICctbWV0YWxfYmluZGluZycsICctaW1hZScsICc8aW5maWxlLm1hZT4nLCAnLW9tYWUnLCAnPG91dGZpbGUubWFlPic=

> <r_lp_tautomer_probability>
1

> <r_epik_Ionization_Penalty>
6.40224e-06

> <r_epik_Ionization_Penalty_Charging>
4.38647e-06

> <r_epik_Ionization_Penalty_Neutral>
2.01577e-06

> <r_epik_State_Penalty>
-0

> <r_epik_Charging_Adjusted_Penalty>
4.38647e-06

> <i_epik_Tot_Q>
0

> <i_epik_Tot_abs_Q>
0

> <r_epik_Metal_State_Penalty>
-0

> <b_epik_Metal_Only>
0

> <s_lp_Force_Field>
OPLS_2005

> <r_lp_Energy>
30.8929

> <b_lp_Chiralities_Consistent>
1

> <s_lp_Variant>
AV-unprocessed.smi:2570-1

> <Gold.Version>
5.8.1

> <Gold.Id.Protein>
6NUR|6NUR_protein|mol2

> <Gold.PLP.Fitness>
45.4078

> <Gold.PLP.PLP>
-40.9883

> <Gold.PLP.part.hbond>
-2.2134

> <Gold.PLP.part.metal>
0.0000

> <Gold.PLP.part.buried>
-2.2372

> <Gold.PLP.part.nonpolar>
-40.3028

> <Gold.PLP.part.repulsive>
3.7448

> <Gold.PLP.ligand.clash>
0.0000

> <Gold.PLP.ligand.torsion>
0.7969

> <Gold.PLP.Chemscore.Hbond>
2.0000

> <Gold.PLP.Chemscore.CHOScore>
0.0000

> <Gold.PLP.Chemscore.Metal>
0.0000

> <Gold.Chemscore.Hbonds>
donor molecule, donor type, donor heavy atom, donor atom, acceptor molecule, acceptor atom, score
      L1  H    11    29       P1  8028  1.00
      P1  H  7989  7998       L1     7  1.00

> <Gold.PLP.Chemscore.Internal.Correction>
0.0134

> <Gold.Rescore>
     Score         DG    S(hbond)    S(metal)    S(lipo)     H(rot)  DE(clash)    DE(int)     intcor
      7.67     -13.36       1.29        0.00      84.11       2.45       1.72       3.97       ----

> <Gold.Chemscore.Fitness>
7.6664

> <Gold.Chemscore.DG>
-13.3586

> <Gold.Chemscore.ZeroCoef>
-5.4800

> <Gold.Chemscore.Hbond>
1.2929

> <Gold.Chemscore.Metal>
0.0000

> <Gold.Chemscore.Lipo>
84.1081

> <Gold.Chemscore.Internal_Hbond>
0.0000

> <Gold.Chemscore.DEClash>
1.7213

> <Gold.Chemscore.DEInternal>
3.9708

> <Gold.Chemscore.Rot>
2.4533

> <Gold.Chemscore.Internal.Correction>
   9.000000E+99

> <Gold.Chemscore.Hbonds>
donor molecule, donor type, donor heavy atom, donor atom, acceptor molecule, acceptor atom, score
      L1  H    11    29       P1  8028  0.78
      P1  H  7989  7998       L1     7  0.29

> <Gold.Chemscore.Hbond.Weighted>
-4.3183

> <Gold.Chemscore.Metal.Weighted>
-0.0000

> <Gold.Chemscore.Lipo.Weighted>
-9.8406

> <Gold.Chemscore.Internal_Hbond.Weighted>
0.0000

> <Gold.Chemscore.DEClash.Weighted>
1.7213

> <Gold.Chemscore.DEInternal.Weighted>
3.9708

> <Gold.Chemscore.Rot.Weighted>
6.2804

> <Gold.Chemscore.Internal.Correction.Weighted>
   9.000000E+99

> <Gold.Protein.RotatedTorsions>
[ 6907 6896 6895 6894 ] final   38.64 input  -60.11 | X-H torsion
[ 7974 7965 7964 7962 ] final  -58.61 input  175.53 | X-H torsion
[ 8008 7997 7996 7995 ] final  107.09 input   59.86 | X-H torsion
[ 10167 10162 10161 10158 ] final  -14.24 input  -65.29 | X-H torsion
[ 10718 10713 10712 10709 ] final  -29.86 input   66.30 | X-H torsion
[ 10763 10752 10751 10750 ] final   29.65 input  -60.55 | X-H torsion
[ 11005 11000 10999 10996 ] final   80.63 input  -57.11 | X-H torsion

> <Gold.Protein.ActiveResidues>
 VAL166  LYS551  ARG553  GLY616  TRP617  ASP618  TYR619  PRO620  LYS621  CYS622 
 ASP623  PHE694  ASN695  SER759  ASP760  ASP761  ALA762  ILE779  LEU786  VAL792 
 PHE793  MET794  SER795  GLU796  ALA797  LYS798  CYS799  TRP800  GLU811  SER814 

> <Gold.Protein.RotatedAtoms>
  152.1591  134.8927  160.0542 H   0  0  0  0  0  0  0  0  0  0  0  0  # atno 6907 bound_to 6896
  151.9930  133.3792  159.4160 H   0  0  0  0  0  0  0  0  0  0  0  0  # atno 6908 bound_to 6896
  150.6885  134.3839  159.5090 H   0  0  0  0  0  0  0  0  0  0  0  0  # atno 6909 bound_to 6896
  145.8373  140.8440  143.0052 H   0  0  0  0  0  0  0  0  0  0  0  0  # atno 7974 bound_to 7965
  156.1796  140.3101  155.9123 H   0  0  0  0  0  0  0  0  0  0  0  0  # atno 8008 bound_to 7997
  155.3413  140.0466  157.3062 H   0  0  0  0  0  0  0  0  0  0  0  0  # atno 8009 bound_to 7997
  154.5328  140.2236  155.8785 H   0  0  0  0  0  0  0  0  0  0  0  0  # atno 8010 bound_to 7997
  140.7197  143.5342  150.9484 H   0  0  0  0  0  0  0  0  0  0  0  0  # atno 10167 bound_to 10162
  156.4070  130.4401  149.7280 H   0  0  0  0  0  0  0  0  0  0  0  0  # atno 10718 bound_to 10713
  153.0418  135.6483  154.0923 H   0  0  0  0  0  0  0  0  0  0  0  0  # atno 10763 bound_to 10752
  154.0628  135.2886  155.3323 H   0  0  0  0  0  0  0  0  0  0  0  0  # atno 10764 bound_to 10752
  154.6646  135.5379  153.8126 H   0  0  0  0  0  0  0  0  0  0  0  0  # atno 10765 bound_to 10752
  139.9127  134.7935  156.1935 H   0  0  0  0  0  0  0  0  0  0  0  0  # atno 11005 bound_to 11000
  144.6735  140.0760  143.7471 LP  0  0  0  0  0  0  0  0  0  0  0  0  # atno 17320 bound_to 7965
  145.9504  139.2730  143.1215 LP  0  0  0  0  0  0  0  0  0  0  0  0  # atno 17321 bound_to 7965
  139.9063  143.6774  152.3123 LP  0  0  0  0  0  0  0  0  0  0  0  0  # atno 17342 bound_to 10162
  139.7142  144.7615  151.1062 LP  0  0  0  0  0  0  0  0  0  0  0  0  # atno 17343 bound_to 10162
  156.4273  130.7798  151.2817 LP  0  0  0  0  0  0  0  0  0  0  0  0  # atno 17370 bound_to 10713
  157.7506  131.0164  150.3545 LP  0  0  0  0  0  0  0  0  0  0  0  0  # atno 17371 bound_to 10713
  141.0569  133.6861  156.1877 LP  0  0  0  0  0  0  0  0  0  0  0  0  # atno 17394 bound_to 11000
  140.6723  134.4855  157.5587 LP  0  0  0  0  0  0  0  0  0  0  0  0  # atno 17395 bound_to 11000

$$$$
