AV-unprocessed.smi:265|AV-procd|sdf|2028|dock6
  -GOLD-   2262021233D 1   1.00000     0.00000
 Structure written by MMmdl.
 52 56  0  0  0  0  0  0  0  0  1 V2000
  148.4634  133.3281  157.7770 C   0  0  0  0  0  0  0  0  0  0  0  0
  149.9214  133.6338  157.4006 C   0  0  1  0  0  0  0  0  0  0  0  0
  150.8056  132.6323  157.9019 O   0  0  0  0  0  0  0  0  0  0  0  0
  151.7386  132.2454  156.8997 C   0  0  0  0  0  0  0  0  0  0  0  0
  151.6903  133.3544  155.8541 C   0  0  0  0  0  0  0  0  0  0  0  0
  150.2293  133.7810  155.8927 C   0  0  1  0  0  0  0  0  0  0  0  0
  149.4691  132.8500  155.1401 O   0  0  0  0  0  0  0  0  0  0  0  0
  149.9344  135.1729  155.2752 C   0  0  0  0  0  0  0  0  0  0  0  0
  150.4146  136.3052  156.0522 N   0  0  0  0  0  0  0  0  0  0  0  0
  150.0530  136.6393  157.3378 C   0  0  0  0  0  0  0  0  0  0  0  0
  150.6329  137.7037  157.8210 N   0  0  0  0  0  0  0  0  0  0  0  0
  151.4676  138.1318  156.7951 C   0  0  0  0  0  0  0  0  0  0  0  0
  152.3820  139.2130  156.6460 C   0  0  0  0  0  0  0  0  0  0  0  0
  152.5897  140.1388  157.6167 N   0  0  0  0  0  0  0  0  0  0  0  0
  153.2541  139.6262  158.8185 C   0  0  0  0  0  0  0  0  0  0  0  0
  153.7875  140.7732  159.6970 C   0  0  0  0  0  0  0  0  0  0  0  0
  152.6589  141.7657  160.0046 C   0  0  1  0  0  0  0  0  0  0  0  0
  153.1251  142.8952  160.7270 O   0  0  0  0  0  0  0  0  0  0  0  0
  152.0738  143.7627  161.1657 C   0  0  0  0  0  0  0  0  0  0  0  0
  151.0499  144.0740  160.0530 C   0  0  0  0  0  0  0  0  0  0  0  0
  150.2363  144.9820  160.2066 O   0  0  0  0  0  0  0  0  0  0  0  0
  151.0543  143.3033  158.9528 N   0  0  0  0  0  0  0  0  0  0  0  0
  152.0743  142.2976  158.6870 C   0  0  2  0  0  0  0  0  0  0  0  0
  151.5343  141.1311  157.8447 C   0  0  0  0  0  0  0  0  0  0  0  0
  153.0618  139.2982  155.4708 N   0  0  0  0  0  0  0  0  0  0  0  0
  152.8579  138.3974  154.5052 C   0  0  0  0  0  0  0  0  0  0  0  0
  152.0356  137.3469  154.5046 N   0  0  0  0  0  0  0  0  0  0  0  0
  151.3536  137.2523  155.6816 C   0  0  0  0  0  0  0  0  0  0  0  0
  151.8907  141.2539  160.5889 H   0  0  0  0  0  0  0  0  0  0  0  0
  152.8651  142.7953  158.1225 H   0  0  0  0  0  0  0  0  0  0  0  0
  147.7906  134.0921  157.3868 H   0  0  0  0  0  0  0  0  0  0  0  0
  148.3428  133.3023  158.8600 H   0  0  0  0  0  0  0  0  0  0  0  0
  148.1404  132.3619  157.3890 H   0  0  0  0  0  0  0  0  0  0  0  0
  150.2214  134.5429  157.9195 H   0  0  0  0  0  0  0  0  0  0  0  0
  152.7363  132.1052  157.3161 H   0  0  0  0  0  0  0  0  0  0  0  0
  151.4160  131.2974  156.4676 H   0  0  0  0  0  0  0  0  0  0  0  0
  152.3421  134.1636  156.1811 H   0  0  0  0  0  0  0  0  0  0  0  0
  152.0280  133.0305  154.8689 H   0  0  0  0  0  0  0  0  0  0  0  0
  148.6579  133.2605  154.8834 H   0  0  0  0  0  0  0  0  0  0  0  0
  150.3761  135.2390  154.2799 H   0  0  0  0  0  0  0  0  0  0  0  0
  148.8594  135.2949  155.1354 H   0  0  0  0  0  0  0  0  0  0  0  0
  149.3364  136.0672  157.9093 H   0  0  0  0  0  0  0  0  0  0  0  0
  152.5348  139.0328  159.3845 H   0  0  0  0  0  0  0  0  0  0  0  0
  154.0761  138.9575  158.5665 H   0  0  0  0  0  0  0  0  0  0  0  0
  154.2025  140.3743  160.6229 H   0  0  0  0  0  0  0  0  0  0  0  0
  154.6022  141.2833  159.1814 H   0  0  0  0  0  0  0  0  0  0  0  0
  151.5505  143.2970  162.0017 H   0  0  0  0  0  0  0  0  0  0  0  0
  152.5100  144.6910  161.5351 H   0  0  0  0  0  0  0  0  0  0  0  0
  150.3668  143.4778  158.2342 H   0  0  0  0  0  0  0  0  0  0  0  0
  151.1686  141.5103  156.8892 H   0  0  0  0  0  0  0  0  0  0  0  0
  150.6925  140.6567  158.3516 H   0  0  0  0  0  0  0  0  0  0  0  0
  153.4352  138.5394  153.6036 H   0  0  0  0  0  0  0  0  0  0  0  0
  1  2  1  0  0  0  0
  1 31  1  0  0  0  0
  1 32  1  0  0  0  0
  1 33  1  0  0  0  0
  2  6  1  0  0  0  0
  2  3  1  0  0  0  0
  2 34  1  0  0  0  0
  3  4  1  0  0  0  0
  4  5  1  0  0  0  0
  4 35  1  0  0  0  0
  4 36  1  0  0  0  0
  5  6  1  0  0  0  0
  5 37  1  0  0  0  0
  5 38  1  0  0  0  0
  6  7  1  0  0  0  0
  6  8  1  0  0  0  0
  7 39  1  0  0  0  0
  8  9  1  0  0  0  0
  8 40  1  0  0  0  0
  8 41  1  0  0  0  0
  9 28  1  0  0  0  0
  9 10  1  0  0  0  0
 10 11  2  0  0  0  0
 10 42  1  0  0  0  0
 11 12  1  0  0  0  0
 12 28  2  0  0  0  0
 12 13  1  0  0  0  0
 13 14  1  0  0  0  0
 13 25  2  0  0  0  0
 14 24  1  0  0  0  0
 14 15  1  0  0  0  0
 15 16  1  0  0  0  0
 15 43  1  0  0  0  0
 15 44  1  0  0  0  0
 16 17  1  0  0  0  0
 16 45  1  0  0  0  0
 16 46  1  0  0  0  0
 17 29  1  0  0  0  0
 17 23  1  0  0  0  0
 17 18  1  0  0  0  0
 18 19  1  0  0  0  0
 19 20  1  0  0  0  0
 19 47  1  0  0  0  0
 19 48  1  0  0  0  0
 20 21  2  0  0  0  0
 20 22  1  0  0  0  0
 22 23  1  0  0  0  0
 22 49  1  0  0  0  0
 23 30  1  0  0  0  0
 23 24  1  0  0  0  0
 24 50  1  0  0  0  0
 24 51  1  0  0  0  0
 25 26  1  0  0  0  0
 26 27  2  0  0  0  0
 26 52  1  0  0  0  0
 27 28  1  0  0  0  0
M  END
> <s_m_source_file>
AV-unprocessed.smi

> <i_m_source_file_index>
265

> <i_lp_mmshare_version>
43012

> <i_f3d_flags>
0

> <s_epik_input>
W0NIMl0xW0NIMl1PW0NAQEhdKFtDSDNdKVtDQEBdMShbT0hdKVtDSDJdbihbY0hdbjIpYyhjMjMpbltjSF1uYzNOKFtDSDJdW0NIMl00KVtDSDJdW0NAQEhdKFtDQEhdNDUpW05IXUMoPU8pW0NIMl1PNQ==

> <s_epik_cmdline>
J2VwaWtfcHl0aG9uJywgJy1waCcsICc3LjAnLCAnLXRuJywgJzgnLCAnLW1hJywgJzIwMCcsICctbWV0YWxfYmluZGluZycsICctaW1hZScsICc8aW5maWxlLm1hZT4nLCAnLW9tYWUnLCAnPG91dGZpbGUubWFlPic=

> <r_lp_tautomer_probability>
1

> <r_epik_Ionization_Penalty>
0.00221504

> <r_epik_Ionization_Penalty_Charging>
0

> <r_epik_Ionization_Penalty_Neutral>
0.00221504

> <r_epik_State_Penalty>
-0

> <r_epik_Charging_Adjusted_Penalty>
0

> <i_epik_Tot_Q>
0

> <i_epik_Tot_abs_Q>
0

> <r_epik_Metal_State_Penalty>
-0

> <b_epik_Metal_Only>
0

> <s_lp_Force_Field>
OPLS_2005

> <r_lp_Energy>
47.2889

> <b_lp_Chiralities_Consistent>
1

> <s_lp_Variant>
AV-unprocessed.smi:265-14

> <Gold.Version>
5.8.1

> <Gold.Id.Protein>
6NUR|6NUR_protein|mol2

> <Gold.PLP.Fitness>
47.1897

> <Gold.PLP.PLP>
-38.7965

> <Gold.PLP.part.hbond>
-4.2185

> <Gold.PLP.part.metal>
0.0000

> <Gold.PLP.part.buried>
-8.6545

> <Gold.PLP.part.nonpolar>
-26.9524

> <Gold.PLP.part.repulsive>
0.4061

> <Gold.PLP.ligand.clash>
0.0000

> <Gold.PLP.ligand.torsion>
0.3275

> <Gold.PLP.Chemscore.Hbond>
2.8744

> <Gold.PLP.Chemscore.CHOScore>
0.0000

> <Gold.PLP.Chemscore.Metal>
0.0000

> <Gold.Chemscore.Hbonds>
donor molecule, donor type, donor heavy atom, donor atom, acceptor molecule, acceptor atom, score
      P1  H  6896  6909       L1     3  0.80
      P1  H  7997  8010       L1    25  0.85
      P1  H 10752 10763       L1    27  0.86

> <Gold.PLP.Chemscore.Internal.Correction>
0.4251

> <Gold.Rescore>
     Score         DG    S(hbond)    S(metal)    S(lipo)     H(rot)  DE(clash)    DE(int)     intcor
     13.68     -14.90       1.75        0.00      79.69       2.25       0.85       0.36       ----

> <Gold.Chemscore.Fitness>
13.6814

> <Gold.Chemscore.DG>
-14.8971

> <Gold.Chemscore.ZeroCoef>
-5.4800

> <Gold.Chemscore.Hbond>
1.7488

> <Gold.Chemscore.Metal>
0.0000

> <Gold.Chemscore.Lipo>
79.6929

> <Gold.Chemscore.Internal_Hbond>
0.0000

> <Gold.Chemscore.DEClash>
0.8511

> <Gold.Chemscore.DEInternal>
0.3647

> <Gold.Chemscore.Rot>
2.2453

> <Gold.Chemscore.Internal.Correction>
   9.000000E+99

> <Gold.Chemscore.Hbonds>
donor molecule, donor type, donor heavy atom, donor atom, acceptor molecule, acceptor atom, score
      P1  H  6896  6909       L1     3  0.11
      P1  H  7997  8010       L1    25  0.15
      P1  H 10752 10763       L1    27  0.45

> <Gold.Chemscore.Hbond.Weighted>
-5.8410

> <Gold.Chemscore.Metal.Weighted>
-0.0000

> <Gold.Chemscore.Lipo.Weighted>
-9.3241

> <Gold.Chemscore.Internal_Hbond.Weighted>
0.0000

> <Gold.Chemscore.DEClash.Weighted>
0.8511

> <Gold.Chemscore.DEInternal.Weighted>
0.3647

> <Gold.Chemscore.Rot.Weighted>
5.7479

> <Gold.Chemscore.Internal.Correction.Weighted>
   9.000000E+99

> <Gold.Protein.RotatedTorsions>
[ 6907 6896 6895 6894 ] final  -32.07 input  -60.11 | X-H torsion
[ 7974 7965 7964 7962 ] final -169.57 input  175.53 | X-H torsion
[ 8008 7997 7996 7995 ] final   93.75 input   59.86 | X-H torsion
[ 10167 10162 10161 10158 ] final  126.73 input  -65.29 | X-H torsion
[ 10718 10713 10712 10709 ] final  -19.73 input   66.30 | X-H torsion
[ 10763 10752 10751 10750 ] final   36.72 input  -60.55 | X-H torsion
[ 11005 11000 10999 10996 ] final -148.95 input  -57.11 | X-H torsion

> <Gold.Protein.ActiveResidues>
 VAL166  LYS551  ARG553  GLY616  TRP617  ASP618  TYR619  PRO620  LYS621  CYS622 
 ASP623  PHE694  ASN695  SER759  ASP760  ASP761  ALA762  ILE779  LEU786  VAL792 
 PHE793  MET794  SER795  GLU796  ALA797  LYS798  CYS799  TRP800  GLU811  SER814 

> <Gold.Protein.RotatedAtoms>
  151.0836  134.9873  159.8368 H   0  0  0  0  0  0  0  0  0  0  0  0  # atno 6907 bound_to 6896
  152.5422  134.2151  159.8775 H   0  0  0  0  0  0  0  0  0  0  0  0  # atno 6908 bound_to 6896
  151.2182  133.4473  159.2633 H   0  0  0  0  0  0  0  0  0  0  0  0  # atno 6909 bound_to 6896
  144.7183  140.2201  143.6317 H   0  0  0  0  0  0  0  0  0  0  0  0  # atno 7974 bound_to 7965
  156.0503  140.3309  155.7343 H   0  0  0  0  0  0  0  0  0  0  0  0  # atno 8008 bound_to 7997
  155.5611  140.0619  157.2846 H   0  0  0  0  0  0  0  0  0  0  0  0  # atno 8009 bound_to 7997
  154.4432  140.1877  156.0772 H   0  0  0  0  0  0  0  0  0  0  0  0  # atno 8010 bound_to 7997
  139.5615  144.6885  151.4028 H   0  0  0  0  0  0  0  0  0  0  0  0  # atno 10167 bound_to 10162
  156.5416  130.4679  149.6496 H   0  0  0  0  0  0  0  0  0  0  0  0  # atno 10718 bound_to 10713
  153.0066  135.6298  154.2030 H   0  0  0  0  0  0  0  0  0  0  0  0  # atno 10763 bound_to 10752
  154.1773  135.2815  155.3064 H   0  0  0  0  0  0  0  0  0  0  0  0  # atno 10764 bound_to 10752
  154.5862  135.5632  153.7293 H   0  0  0  0  0  0  0  0  0  0  0  0  # atno 10765 bound_to 10752
  140.7559  134.3354  157.5114 H   0  0  0  0  0  0  0  0  0  0  0  0  # atno 11005 bound_to 11000
  145.8509  139.2175  143.1773 LP  0  0  0  0  0  0  0  0  0  0  0  0  # atno 17320 bound_to 7965
  146.0262  140.8302  142.9899 LP  0  0  0  0  0  0  0  0  0  0  0  0  # atno 17321 bound_to 7965
  140.6896  143.7894  150.7235 LP  0  0  0  0  0  0  0  0  0  0  0  0  # atno 17342 bound_to 10162
  140.1372  143.4473  152.2217 LP  0  0  0  0  0  0  0  0  0  0  0  0  # atno 17343 bound_to 10162
  156.2966  130.7154  151.2016 LP  0  0  0  0  0  0  0  0  0  0  0  0  # atno 17370 bound_to 10713
  157.7404  131.0517  150.5167 LP  0  0  0  0  0  0  0  0  0  0  0  0  # atno 17371 bound_to 10713
  139.8779  134.9171  156.3171 LP  0  0  0  0  0  0  0  0  0  0  0  0  # atno 17394 bound_to 11000
  140.9708  133.7328  156.0532 LP  0  0  0  0  0  0  0  0  0  0  0  0  # atno 17395 bound_to 11000

$$$$
