AV-unprocessed.smi:1085|AV-procd|sdf|4721|dock8
  -GOLD-   22720 3253D 1   1.00000     0.00000
 Structure written by MMmdl.
 33 34  0  0  0  0  0  0  0  0  1 V2000
  148.9952  140.8810  157.4711 O   0  0  0  0  0  0  0  0  0  0  0  0
  149.9927  140.3644  156.9688 C   0  0  0  0  0  0  0  0  0  0  0  0
  149.8785  139.6184  155.6385 C   0  0  0  0  0  0  0  0  0  0  0  0
  151.1737  139.1360  155.1959 N   0  0  0  0  0  0  0  0  0  0  0  0
  151.5954  137.9063  154.8943 C   0  0  0  0  0  0  0  0  0  0  0  0
  152.8734  137.8996  154.5468 N   0  0  0  0  0  0  0  0  0  0  0  0
  153.2352  139.2324  154.6508 N   0  0  0  0  0  0  0  0  0  0  0  0
  152.2305  139.9710  155.0348 N   0  0  0  0  0  0  0  0  0  0  0  0
  151.2127  140.4118  157.5275 N   0  0  0  0  0  0  0  0  0  0  0  0
  151.5384  141.0460  158.8009 C   0  0  1  0  0  0  0  0  0  0  0  0
  152.9887  140.7238  159.2144 C   0  0  0  0  0  0  0  0  0  0  0  0
  153.3744  141.4529  160.5097 C   0  0  0  0  0  0  0  0  0  0  0  0
  153.1642  142.9692  160.3796 C   0  0  0  0  0  0  0  0  0  0  0  0
  151.7132  143.3101  159.9800 C   0  0  1  0  0  0  0  0  0  0  0  0
  151.4891  144.8317  159.8604 C   0  0  0  0  0  0  0  0  0  0  0  0
  150.1989  145.1071  159.6667 F   0  0  0  0  0  0  0  0  0  0  0  0
  151.8975  145.4418  160.9728 F   0  0  0  0  0  0  0  0  0  0  0  0
  152.1919  145.3183  158.8376 F   0  0  0  0  0  0  0  0  0  0  0  0
  151.3314  142.5677  158.6812 C   0  0  0  0  0  0  0  0  0  0  0  0
  149.2056  138.7661  155.7424 H   0  0  0  0  0  0  0  0  0  0  0  0
  149.4537  140.2756  154.8783 H   0  0  0  0  0  0  0  0  0  0  0  0
  150.9740  137.0239  154.9353 H   0  0  0  0  0  0  0  0  0  0  0  0
  151.9721  139.9583  157.0396 H   0  0  0  0  0  0  0  0  0  0  0  0
  150.8583  140.6682  159.5669 H   0  0  0  0  0  0  0  0  0  0  0  0
  153.1152  139.6494  159.3513 H   0  0  0  0  0  0  0  0  0  0  0  0
  153.6741  141.0158  158.4174 H   0  0  0  0  0  0  0  0  0  0  0  0
  152.7761  141.0694  161.3371 H   0  0  0  0  0  0  0  0  0  0  0  0
  154.4152  141.2419  160.7575 H   0  0  0  0  0  0  0  0  0  0  0  0
  153.4165  143.4507  161.3248 H   0  0  0  0  0  0  0  0  0  0  0  0
  153.8562  143.3680  159.6368 H   0  0  0  0  0  0  0  0  0  0  0  0
  151.0580  142.9463  160.7734 H   0  0  0  0  0  0  0  0  0  0  0  0
  151.9278  142.9538  157.8531 H   0  0  0  0  0  0  0  0  0  0  0  0
  150.2902  142.7734  158.4305 H   0  0  0  0  0  0  0  0  0  0  0  0
  1  2  2  0  0  0  0
  2  3  1  0  0  0  0
  2  9  1  0  0  0  0
  3  4  1  0  0  0  0
  3 20  1  0  0  0  0
  3 21  1  0  0  0  0
  4  8  1  0  0  0  0
  4  5  1  0  0  0  0
  5  6  2  0  0  0  0
  5 22  1  0  0  0  0
  6  7  1  0  0  0  0
  7  8  2  0  0  0  0
  9 10  1  0  0  0  0
  9 23  1  0  0  0  0
 10 19  1  0  0  0  0
 10 11  1  0  0  0  0
 10 24  1  0  0  0  0
 11 12  1  0  0  0  0
 11 25  1  0  0  0  0
 11 26  1  0  0  0  0
 12 13  1  0  0  0  0
 12 27  1  0  0  0  0
 12 28  1  0  0  0  0
 13 14  1  0  0  0  0
 13 29  1  0  0  0  0
 13 30  1  0  0  0  0
 14 15  1  0  0  0  0
 14 19  1  0  0  0  0
 14 31  1  0  0  0  0
 15 16  1  0  0  0  0
 15 17  1  0  0  0  0
 15 18  1  0  0  0  0
 19 32  1  0  0  0  0
 19 33  1  0  0  0  0
M  END
> <s_m_source_file>
AV-unprocessed.smi

> <i_m_source_file_index>
1085

> <i_lp_mmshare_version>
43012

> <i_f3d_flags>
0

> <s_epik_input>
bjFubltjSF1uMVtDSDJdQyg9TylbTkhdW0NAQEhdMltDSDJdW0NIMl1bQ0gyXVtDQEBIXShDKEYpKEYpRilbQ0gyXTI=

> <s_epik_cmdline>
J2VwaWtfcHl0aG9uJywgJy1waCcsICc3LjAnLCAnLXRuJywgJzgnLCAnLW1hJywgJzIwMCcsICctbWV0YWxfYmluZGluZycsICctaW1hZScsICc8aW5maWxlLm1hZT4nLCAnLW9tYWUnLCAnPG91dGZpbGUubWFlPic=

> <r_lp_tautomer_probability>
1

> <r_epik_Ionization_Penalty>
8.41315e-07

> <r_epik_Ionization_Penalty_Charging>
0

> <r_epik_Ionization_Penalty_Neutral>
8.41315e-07

> <r_epik_State_Penalty>
-0

> <r_epik_Charging_Adjusted_Penalty>
0

> <i_epik_Tot_Q>
0

> <i_epik_Tot_abs_Q>
0

> <r_epik_Metal_State_Penalty>
-0

> <b_epik_Metal_Only>
0

> <s_lp_Force_Field>
OPLS_2005

> <r_lp_Energy>
12.0143

> <b_lp_Chiralities_Consistent>
1

> <s_lp_Variant>
AV-unprocessed.smi:1085-2

> <Gold.Version>
5.8.1

> <Gold.Id.Protein>
6NUR|6NUR_protein|mol2

> <Gold.PLP.Fitness>
46.1104

> <Gold.PLP.PLP>
-40.7824

> <Gold.PLP.part.hbond>
-3.7465

> <Gold.PLP.part.metal>
0.0000

> <Gold.PLP.part.buried>
-5.8319

> <Gold.PLP.part.nonpolar>
-33.4589

> <Gold.PLP.part.repulsive>
0.1948

> <Gold.PLP.ligand.clash>
0.0000

> <Gold.PLP.ligand.torsion>
0.1157

> <Gold.PLP.Chemscore.Hbond>
1.8455

> <Gold.PLP.Chemscore.CHOScore>
0.0000

> <Gold.PLP.Chemscore.Metal>
0.0000

> <Gold.Chemscore.Hbonds>
donor molecule, donor type, donor heavy atom, donor atom, acceptor molecule, acceptor atom, score
      P1  H  7989  7998       L1     8  0.72
      P1  H  7997  8009       L1     7  0.90
      P1  H 10752 10765       L1     6  0.16

> <Gold.PLP.Chemscore.Internal.Correction>
0.0229

> <Gold.Rescore>
     Score         DG    S(hbond)    S(metal)    S(lipo)     H(rot)  DE(clash)    DE(int)     intcor
     12.20     -12.67       1.29        0.00      69.25       2.05       0.33       0.13       ----

> <Gold.Chemscore.Fitness>
12.2034

> <Gold.Chemscore.DG>
-12.6655

> <Gold.Chemscore.ZeroCoef>
-5.4800

> <Gold.Chemscore.Hbond>
1.2935

> <Gold.Chemscore.Metal>
0.0000

> <Gold.Chemscore.Lipo>
69.2485

> <Gold.Chemscore.Internal_Hbond>
0.0000

> <Gold.Chemscore.DEClash>
0.3324

> <Gold.Chemscore.DEInternal>
0.1297

> <Gold.Chemscore.Rot>
2.0456

> <Gold.Chemscore.Internal.Correction>
   9.000000E+99

> <Gold.Chemscore.Hbonds>
donor molecule, donor type, donor heavy atom, donor atom, acceptor molecule, acceptor atom, score
      P1  H  7989  7998       L1     8  0.09
      P1  H  7997  8009       L1     7  0.16
      P1  H 10752 10765       L1     6  0.03

> <Gold.Chemscore.Hbond.Weighted>
-4.3202

> <Gold.Chemscore.Metal.Weighted>
-0.0000

> <Gold.Chemscore.Lipo.Weighted>
-8.1021

> <Gold.Chemscore.Internal_Hbond.Weighted>
0.0000

> <Gold.Chemscore.DEClash.Weighted>
0.3324

> <Gold.Chemscore.DEInternal.Weighted>
0.1297

> <Gold.Chemscore.Rot.Weighted>
5.2368

> <Gold.Chemscore.Internal.Correction.Weighted>
   9.000000E+99

> <Gold.Protein.RotatedTorsions>
[ 6907 6896 6895 6894 ] final  -79.98 input  -60.11 | X-H torsion
[ 7974 7965 7964 7962 ] final -104.28 input  175.53 | X-H torsion
[ 8008 7997 7996 7995 ] final -111.07 input   59.86 | X-H torsion
[ 10167 10162 10161 10158 ] final  145.34 input  -65.29 | X-H torsion
[ 10718 10713 10712 10709 ] final   75.55 input   66.30 | X-H torsion
[ 10763 10752 10751 10750 ] final  149.74 input  -60.55 | X-H torsion
[ 11005 11000 10999 10996 ] final  141.60 input  -57.11 | X-H torsion

> <Gold.Protein.ActiveResidues>
 VAL166  LYS551  ARG553  GLY616  TRP617  ASP618  TYR619  PRO620  LYS621  CYS622 
 ASP623  PHE694  ASN695  SER759  ASP760  ASP761  ALA762  ILE779  LEU786  VAL792 
 PHE793  MET794  SER795  GLU796  ALA797  LYS798  CYS799  TRP800  GLU811  SER814 

> <Gold.Protein.RotatedAtoms>
  150.6938  134.4039  159.5130 H   0  0  0  0  0  0  0  0  0  0  0  0  # atno 6907 bound_to 6896
  152.1808  134.8753  160.0535 H   0  0  0  0  0  0  0  0  0  0  0  0  # atno 6908 bound_to 6896
  151.9744  133.3702  159.4120 H   0  0  0  0  0  0  0  0  0  0  0  0  # atno 6909 bound_to 6896
  145.2452  140.9219  143.3127 H   0  0  0  0  0  0  0  0  0  0  0  0  # atno 7974 bound_to 7965
  154.9842  140.0396  157.2291 H   0  0  0  0  0  0  0  0  0  0  0  0  # atno 8008 bound_to 7997
  154.7687  140.2798  155.6133 H   0  0  0  0  0  0  0  0  0  0  0  0  # atno 8009 bound_to 7997
  156.2917  140.2614  156.2484 H   0  0  0  0  0  0  0  0  0  0  0  0  # atno 8010 bound_to 7997
  139.4928  144.5908  151.6684 H   0  0  0  0  0  0  0  0  0  0  0  0  # atno 10167 bound_to 10162
  157.6638  130.9731  150.1369 H   0  0  0  0  0  0  0  0  0  0  0  0  # atno 10718 bound_to 10713
  154.0761  135.2863  155.3299 H   0  0  0  0  0  0  0  0  0  0  0  0  # atno 10763 bound_to 10752
  154.6715  135.5298  153.8147 H   0  0  0  0  0  0  0  0  0  0  0  0  # atno 10764 bound_to 10752
  153.0466  135.6559  154.0939 H   0  0  0  0  0  0  0  0  0  0  0  0  # atno 10765 bound_to 10752
  140.0414  134.9303  157.0849 H   0  0  0  0  0  0  0  0  0  0  0  0  # atno 11005 bound_to 11000
  144.9553  139.4038  143.6382 LP  0  0  0  0  0  0  0  0  0  0  0  0  # atno 17320 bound_to 7965
  146.3318  139.8580  142.8861 LP  0  0  0  0  0  0  0  0  0  0  0  0  # atno 17321 bound_to 7965
  140.5535  144.0386  150.6137 LP  0  0  0  0  0  0  0  0  0  0  0  0  # atno 17342 bound_to 10162
  140.3448  143.2998  152.0549 LP  0  0  0  0  0  0  0  0  0  0  0  0  # atno 17343 bound_to 10162
  156.2201  130.3673  149.8566 LP  0  0  0  0  0  0  0  0  0  0  0  0  # atno 17370 bound_to 10713
  156.6421  130.8709  151.3516 LP  0  0  0  0  0  0  0  0  0  0  0  0  # atno 17371 bound_to 10713
  140.4063  134.2028  155.7163 LP  0  0  0  0  0  0  0  0  0  0  0  0  # atno 17394 bound_to 11000
  141.1885  133.8259  157.0993 LP  0  0  0  0  0  0  0  0  0  0  0  0  # atno 17395 bound_to 11000

$$$$
