AV-unprocessed.smi:1488|AV-procd|sdf|6023|dock10
  -GOLD-   22720 6123D 1   1.00000     0.00000
 Structure written by MMmdl.
 36 37  0  0  0  0  0  0  0  0  1 V2000
  155.8266  132.6953  162.0850 C   0  0  0  0  0  0  0  0  0  0  0  0
  155.3369  133.9840  161.5192 C   0  0  0  0  0  0  0  0  0  0  0  0
  155.5085  135.2881  161.8902 C   0  0  0  0  0  0  0  0  0  0  0  0
  154.7674  135.9996  160.9095 C   0  0  0  0  0  0  0  0  0  0  0  0
  154.6916  137.4154  160.9398 N   0  0  0  0  0  0  0  0  0  0  0  0
  153.6591  138.1879  160.5607 C   0  0  0  0  0  0  0  0  0  0  0  0
  152.5905  137.7725  160.1117 O   0  0  0  0  0  0  0  0  0  0  0  0
  153.9375  139.4896  160.7253 N   0  0  0  0  0  0  0  0  0  0  0  0
  153.0373  140.5903  160.3943 C   0  0  2  0  0  0  0  0  0  0  0  0
  152.7729  140.6369  158.8765 C   0  0  0  0  0  0  0  0  0  0  0  0
  151.8856  141.8332  158.4969 C   0  0  0  0  0  0  0  0  0  0  0  0
  152.4875  143.1703  158.9788 C   0  0  1  0  0  0  0  0  0  0  0  0
  151.6066  144.3753  158.5885 C   0  0  0  0  0  0  0  0  0  0  0  0
  150.3635  144.2224  159.0457 F   0  0  0  0  0  0  0  0  0  0  0  0
  152.1174  145.4973  159.0955 F   0  0  0  0  0  0  0  0  0  0  0  0
  151.5655  144.5000  157.2619 F   0  0  0  0  0  0  0  0  0  0  0  0
  152.7502  143.1133  160.4988 C   0  0  0  0  0  0  0  0  0  0  0  0
  153.6423  141.9200  160.8781 C   0  0  0  0  0  0  0  0  0  0  0  0
  154.1934  135.2019  160.0218 N   0  0  0  0  0  0  0  0  0  0  0  0
  154.5548  133.9060  160.4085 O   0  0  0  0  0  0  0  0  0  0  0  0
  156.6107  132.8666  162.8226 H   0  0  0  0  0  0  0  0  0  0  0  0
  156.2348  132.0578  161.3006 H   0  0  0  0  0  0  0  0  0  0  0  0
  155.0150  132.1555  162.5726 H   0  0  0  0  0  0  0  0  0  0  0  0
  156.0751  135.6682  162.7274 H   0  0  0  0  0  0  0  0  0  0  0  0
  155.5141  137.8906  161.2805 H   0  0  0  0  0  0  0  0  0  0  0  0
  154.8401  139.7394  161.1019 H   0  0  0  0  0  0  0  0  0  0  0  0
  152.0883  140.4426  160.9136 H   0  0  0  0  0  0  0  0  0  0  0  0
  153.7192  140.7030  158.3374 H   0  0  0  0  0  0  0  0  0  0  0  0
  152.2957  139.7126  158.5490 H   0  0  0  0  0  0  0  0  0  0  0  0
  151.7495  141.8514  157.4153 H   0  0  0  0  0  0  0  0  0  0  0  0
  150.8934  141.6975  158.9289 H   0  0  0  0  0  0  0  0  0  0  0  0
  153.4505  143.2971  158.4817 H   0  0  0  0  0  0  0  0  0  0  0  0
  153.2231  144.0371  160.8330 H   0  0  0  0  0  0  0  0  0  0  0  0
  151.8033  143.0415  161.0352 H   0  0  0  0  0  0  0  0  0  0  0  0
  153.7802  141.8957  161.9600 H   0  0  0  0  0  0  0  0  0  0  0  0
  154.6334  142.0577  160.4432 H   0  0  0  0  0  0  0  0  0  0  0  0
  1  2  1  0  0  0  0
  1 21  1  0  0  0  0
  1 22  1  0  0  0  0
  1 23  1  0  0  0  0
  2 20  1  0  0  0  0
  2  3  2  0  0  0  0
  3  4  1  0  0  0  0
  3 24  1  0  0  0  0
  4  5  1  0  0  0  0
  4 19  2  0  0  0  0
  5  6  1  0  0  0  0
  5 25  1  0  0  0  0
  6  7  2  0  0  0  0
  6  8  1  0  0  0  0
  8  9  1  0  0  0  0
  8 26  1  0  0  0  0
  9 18  1  0  0  0  0
  9 10  1  0  0  0  0
  9 27  1  0  0  0  0
 10 11  1  0  0  0  0
 10 28  1  0  0  0  0
 10 29  1  0  0  0  0
 11 12  1  0  0  0  0
 11 30  1  0  0  0  0
 11 31  1  0  0  0  0
 12 13  1  0  0  0  0
 12 17  1  0  0  0  0
 12 32  1  0  0  0  0
 13 14  1  0  0  0  0
 13 15  1  0  0  0  0
 13 16  1  0  0  0  0
 17 18  1  0  0  0  0
 17 33  1  0  0  0  0
 17 34  1  0  0  0  0
 18 35  1  0  0  0  0
 18 36  1  0  0  0  0
 19 20  1  0  0  0  0
M  END
> <s_m_source_file>
AV-unprocessed.smi

> <i_m_source_file_index>
1488

> <i_lp_mmshare_version>
43012

> <i_f3d_flags>
0

> <s_epik_input>
W0NIM11jMVtjSF1jKG5vMSlbTkhdQyg9TylbTkhdW0NAQEhdMltDSDJdW0NIMl1bQ0BASF0oQyhGKShGKUYpW0NIMl1bQ0gyXTI=

> <s_epik_cmdline>
J2VwaWtfcHl0aG9uJywgJy1waCcsICc3LjAnLCAnLXRuJywgJzgnLCAnLW1hJywgJzIwMCcsICctbWV0YWxfYmluZGluZycsICctaW1hZScsICc8aW5maWxlLm1hZT4nLCAnLW9tYWUnLCAnPG91dGZpbGUubWFlPic=

> <r_lp_tautomer_probability>
1

> <r_epik_Ionization_Penalty>
2.30349e-05

> <r_epik_Ionization_Penalty_Charging>
0

> <r_epik_Ionization_Penalty_Neutral>
2.30349e-05

> <r_epik_State_Penalty>
-0

> <r_epik_Charging_Adjusted_Penalty>
0

> <i_epik_Tot_Q>
0

> <i_epik_Tot_abs_Q>
0

> <r_epik_Metal_State_Penalty>
-0

> <b_epik_Metal_Only>
0

> <s_lp_Force_Field>
OPLS_2005

> <r_lp_Energy>
8.97319

> <b_lp_Chiralities_Consistent>
1

> <s_lp_Variant>
AV-unprocessed.smi:1488-1

> <Gold.Version>
5.8.1

> <Gold.Id.Protein>
6NUR|6NUR_protein|mol2

> <Gold.PLP.Fitness>
40.0047

> <Gold.PLP.PLP>
-38.9904

> <Gold.PLP.part.hbond>
-1.8762

> <Gold.PLP.part.metal>
0.0000

> <Gold.PLP.part.buried>
-5.5740

> <Gold.PLP.part.nonpolar>
-32.4584

> <Gold.PLP.part.repulsive>
0.0621

> <Gold.PLP.ligand.clash>
0.0000

> <Gold.PLP.ligand.torsion>
0.3262

> <Gold.PLP.Chemscore.Hbond>
0.5500

> <Gold.PLP.Chemscore.CHOScore>
0.0000

> <Gold.PLP.Chemscore.Metal>
0.0000

> <Gold.Chemscore.Hbonds>
donor molecule, donor type, donor heavy atom, donor atom, acceptor molecule, acceptor atom, score
      P1  H  6896  6908       L1    19  0.30

> <Gold.PLP.Chemscore.Internal.Correction>
0.0167

> <Gold.Rescore>
     Score         DG    S(hbond)    S(metal)    S(lipo)     H(rot)  DE(clash)    DE(int)     intcor
     12.20     -12.73       0.01        0.00      83.64       1.00       0.12       0.41       ----

> <Gold.Chemscore.Fitness>
12.2023

> <Gold.Chemscore.DG>
-12.7296

> <Gold.Chemscore.ZeroCoef>
-5.4800

> <Gold.Chemscore.Hbond>
0.0070

> <Gold.Chemscore.Metal>
0.0000

> <Gold.Chemscore.Lipo>
83.6430

> <Gold.Chemscore.Internal_Hbond>
0.0000

> <Gold.Chemscore.DEClash>
0.1210

> <Gold.Chemscore.DEInternal>
0.4063

> <Gold.Chemscore.Rot>
1.0000

> <Gold.Chemscore.Internal.Correction>
   9.000000E+99

> <Gold.Chemscore.Hbond.Weighted>
-0.0233

> <Gold.Chemscore.Metal.Weighted>
-0.0000

> <Gold.Chemscore.Lipo.Weighted>
-9.7862

> <Gold.Chemscore.Internal_Hbond.Weighted>
0.0000

> <Gold.Chemscore.DEClash.Weighted>
0.1210

> <Gold.Chemscore.DEInternal.Weighted>
0.4063

> <Gold.Chemscore.Rot.Weighted>
2.5600

> <Gold.Chemscore.Internal.Correction.Weighted>
   9.000000E+99

> <Gold.Protein.RotatedTorsions>
[ 6907 6896 6895 6894 ] final  -55.29 input  -60.11 | X-H torsion
[ 7974 7965 7964 7962 ] final  -73.00 input  175.53 | X-H torsion
[ 8008 7997 7996 7995 ] final  -68.74 input   59.86 | X-H torsion
[ 10167 10162 10161 10158 ] final   49.48 input  -65.29 | X-H torsion
[ 10718 10713 10712 10709 ] final  175.46 input   66.30 | X-H torsion
[ 10763 10752 10751 10750 ] final  158.55 input  -60.55 | X-H torsion
[ 11005 11000 10999 10996 ] final   35.91 input  -57.11 | X-H torsion

> <Gold.Protein.ActiveResidues>
 VAL166  LYS551  ARG553  GLY616  TRP617  ASP618  TYR619  PRO620  LYS621  CYS622 
 ASP623  PHE694  ASN695  SER759  ASP760  ASP761  ALA762  ILE779  LEU786  VAL792 
 PHE793  MET794  SER795  GLU796  ALA797  LYS798  CYS799  TRP800  GLU811  SER814 

> <Gold.Protein.RotatedAtoms>
  150.8264  134.7497  159.6816 H   0  0  0  0  0  0  0  0  0  0  0  0  # atno 6907 bound_to 6896
  152.4374  134.5655  159.9916 H   0  0  0  0  0  0  0  0  0  0  0  0  # atno 6908 bound_to 6896
  151.5826  133.3338  159.3047 H   0  0  0  0  0  0  0  0  0  0  0  0  # atno 6909 bound_to 6896
  145.6579  140.9262  143.0950 H   0  0  0  0  0  0  0  0  0  0  0  0  # atno 7974 bound_to 7965
  154.4889  140.0867  156.7549 H   0  0  0  0  0  0  0  0  0  0  0  0  # atno 8008 bound_to 7997
  155.4280  140.3448  155.4259 H   0  0  0  0  0  0  0  0  0  0  0  0  # atno 8009 bound_to 7997
  156.1301  140.1499  156.9066 H   0  0  0  0  0  0  0  0  0  0  0  0  # atno 8010 bound_to 7997
  140.2824  144.3141  150.6261 H   0  0  0  0  0  0  0  0  0  0  0  0  # atno 10167 bound_to 10162
  156.9346  130.9982  151.2980 H   0  0  0  0  0  0  0  0  0  0  0  0  # atno 10718 bound_to 10713
  154.2178  135.2783  155.2935 H   0  0  0  0  0  0  0  0  0  0  0  0  # atno 10763 bound_to 10752
  154.5726  135.5614  153.7113 H   0  0  0  0  0  0  0  0  0  0  0  0  # atno 10764 bound_to 10752
  153.0049  135.6325  154.2318 H   0  0  0  0  0  0  0  0  0  0  0  0  # atno 10765 bound_to 10752
  140.2379  134.3449  155.7937 H   0  0  0  0  0  0  0  0  0  0  0  0  # atno 11005 bound_to 11000
  144.7099  139.8410  143.7418 LP  0  0  0  0  0  0  0  0  0  0  0  0  # atno 17320 bound_to 7965
  146.1150  139.4160  143.0264 LP  0  0  0  0  0  0  0  0  0  0  0  0  # atno 17321 bound_to 7965
  140.5800  143.2173  151.7445 LP  0  0  0  0  0  0  0  0  0  0  0  0  # atno 17342 bound_to 10162
  139.4959  144.4093  152.0098 LP  0  0  0  0  0  0  0  0  0  0  0  0  # atno 17343 bound_to 10162
  157.5825  130.8386  149.8542 LP  0  0  0  0  0  0  0  0  0  0  0  0  # atno 17370 bound_to 10713
  156.0432  130.3734  150.1384 LP  0  0  0  0  0  0  0  0  0  0  0  0  # atno 17371 bound_to 10713
  141.2213  133.7282  156.8838 LP  0  0  0  0  0  0  0  0  0  0  0  0  # atno 17394 bound_to 11000
  140.1683  134.9118  157.2801 LP  0  0  0  0  0  0  0  0  0  0  0  0  # atno 17395 bound_to 11000

$$$$
