AV-unprocessed.smi:2275|AV-procd|sdf|9171|dock10
  -GOLD-   2272012383D 1   1.00000     0.00000
 Structure written by MMmdl.
 38 39  0  0  0  0  0  0  0  0  1 V2000
  145.9329  136.3100  150.5456 C   0  0  0  0  0  0  0  0  0  0  0  0
  146.4424  137.3722  151.5036 C   0  0  0  0  0  0  0  0  0  0  0  0
  146.8554  138.5702  150.9131 N   0  0  0  0  0  0  0  0  0  0  0  0
  147.2981  139.5343  151.6522 C   0  0  0  0  0  0  0  0  0  0  0  0
  147.3742  139.4172  153.0493 N   0  0  0  0  0  0  0  0  0  0  0  0
  147.8874  140.5908  153.7746 C   0  0  0  0  0  0  0  0  0  0  0  0
  149.1615  140.2623  154.5846 C   0  0  1  0  0  0  0  0  0  0  0  0
  150.2121  139.8855  153.7177 O   0  0  0  0  0  0  0  0  0  0  0  0
  149.6573  141.4440  155.4345 C   0  0  0  0  0  0  0  0  0  0  0  0
  150.7452  141.0295  156.2525 O   0  0  0  0  0  0  0  0  0  0  0  0
  151.1598  141.8688  157.2639 C   0  0  0  0  0  0  0  0  0  0  0  0
  150.9265  143.2482  157.0855 C   0  0  0  0  0  0  0  0  0  0  0  0
  151.3167  144.1788  158.0675 C   0  0  0  0  0  0  0  0  0  0  0  0
  151.9471  143.7361  159.2447 C   0  0  0  0  0  0  0  0  0  0  0  0
  152.1867  142.3628  159.4362 C   0  0  0  0  0  0  0  0  0  0  0  0
  151.7967  141.4319  158.4534 C   0  0  0  0  0  0  0  0  0  0  0  0
  147.0133  138.2760  153.7043 C   0  0  0  0  0  0  0  0  0  0  0  0
  147.1129  138.1736  154.9286 O   0  0  0  0  0  0  0  0  0  0  0  0
  146.5029  137.1906  152.8511 C   0  0  0  0  0  0  0  0  0  0  0  0
  146.0665  135.9093  153.5505 C   0  0  0  0  0  0  0  0  0  0  0  0
  144.8900  136.0740  150.7576 H   0  0  0  0  0  0  0  0  0  0  0  0
  146.5235  135.3981  150.6364 H   0  0  0  0  0  0  0  0  0  0  0  0
  145.9959  136.6450  149.5096 H   0  0  0  0  0  0  0  0  0  0  0  0
  147.6391  140.4864  151.2415 H   0  0  0  0  0  0  0  0  0  0  0  0
  148.0623  141.4395  153.1098 H   0  0  0  0  0  0  0  0  0  0  0  0
  147.1085  140.9430  154.4536 H   0  0  0  0  0  0  0  0  0  0  0  0
  148.9780  139.4235  155.2574 H   0  0  0  0  0  0  0  0  0  0  0  0
  149.8690  139.8329  152.8385 H   0  0  0  0  0  0  0  0  0  0  0  0
  149.9972  142.2342  154.7630 H   0  0  0  0  0  0  0  0  0  0  0  0
  148.8430  141.8500  156.0375 H   0  0  0  0  0  0  0  0  0  0  0  0
  150.4430  143.5970  156.1848 H   0  0  0  0  0  0  0  0  0  0  0  0
  151.1321  145.2322  157.9167 H   0  0  0  0  0  0  0  0  0  0  0  0
  152.2469  144.4485  159.9992 H   0  0  0  0  0  0  0  0  0  0  0  0
  152.6708  142.0217  160.3393 H   0  0  0  0  0  0  0  0  0  0  0  0
  151.9972  140.3874  158.6369 H   0  0  0  0  0  0  0  0  0  0  0  0
  146.9084  135.4669  154.0838 H   0  0  0  0  0  0  0  0  0  0  0  0
  145.6787  135.1567  152.8660 H   0  0  0  0  0  0  0  0  0  0  0  0
  145.2821  136.1259  154.2765 H   0  0  0  0  0  0  0  0  0  0  0  0
  1  2  1  0  0  0  0
  1 21  1  0  0  0  0
  1 22  1  0  0  0  0
  1 23  1  0  0  0  0
  2 19  2  0  0  0  0
  2  3  1  0  0  0  0
  3  4  2  0  0  0  0
  4  5  1  0  0  0  0
  4 24  1  0  0  0  0
  5  6  1  0  0  0  0
  5 17  1  0  0  0  0
  6  7  1  0  0  0  0
  6 25  1  0  0  0  0
  6 26  1  0  0  0  0
  7  8  1  0  0  0  0
  7  9  1  0  0  0  0
  7 27  1  0  0  0  0
  8 28  1  0  0  0  0
  9 10  1  0  0  0  0
  9 29  1  0  0  0  0
  9 30  1  0  0  0  0
 10 11  1  0  0  0  0
 11 16  1  0  0  0  0
 11 12  2  0  0  0  0
 12 13  1  0  0  0  0
 12 31  1  0  0  0  0
 13 14  2  0  0  0  0
 13 32  1  0  0  0  0
 14 15  1  0  0  0  0
 14 33  1  0  0  0  0
 15 16  2  0  0  0  0
 15 34  1  0  0  0  0
 16 35  1  0  0  0  0
 17 18  2  0  0  0  0
 17 19  1  0  0  0  0
 19 20  1  0  0  0  0
 20 36  1  0  0  0  0
 20 37  1  0  0  0  0
 20 38  1  0  0  0  0
M  END
> <s_m_source_file>
AV-unprocessed.smi

> <i_m_source_file_index>
2275

> <i_lp_mmshare_version>
43012

> <i_f3d_flags>
0

> <s_epik_input>
W0NIM11jMW5bY0hdbihjKD1PKWMxW0NIM10pW0NIMl1bQ0BIXShbT0hdKVtDSDJdT2MyW2NIXVtjSF1bY0hdW2NIXVtjSF0y

> <s_epik_cmdline>
J2VwaWtfcHl0aG9uJywgJy1waCcsICc3LjAnLCAnLXRuJywgJzgnLCAnLW1hJywgJzIwMCcsICctbWV0YWxfYmluZGluZycsICctaW1hZScsICc8aW5maWxlLm1hZT4nLCAnLW9tYWUnLCAnPG91dGZpbGUubWFlPic=

> <r_lp_tautomer_probability>
1

> <r_epik_Ionization_Penalty>
4.18311e-05

> <r_epik_Ionization_Penalty_Charging>
1.04093e-07

> <r_epik_Ionization_Penalty_Neutral>
4.1727e-05

> <r_epik_State_Penalty>
-0

> <r_epik_Charging_Adjusted_Penalty>
1.04093e-07

> <i_epik_Tot_Q>
0

> <i_epik_Tot_abs_Q>
0

> <r_epik_Metal_State_Penalty>
-0

> <b_epik_Metal_Only>
0

> <s_lp_Force_Field>
OPLS_2005

> <r_lp_Energy>
23.5562

> <b_lp_Chiralities_Consistent>
1

> <s_lp_Variant>
AV-unprocessed.smi:2275-2

> <Gold.Version>
5.8.1

> <Gold.Id.Protein>
6NUR|6NUR_protein|mol2

> <Gold.PLP.Fitness>
46.0529

> <Gold.PLP.PLP>
-36.5583

> <Gold.PLP.part.hbond>
-3.0000

> <Gold.PLP.part.metal>
0.0000

> <Gold.PLP.part.buried>
5.1189

> <Gold.PLP.part.nonpolar>
-38.7949

> <Gold.PLP.part.repulsive>
0.7570

> <Gold.PLP.ligand.clash>
0.0000

> <Gold.PLP.ligand.torsion>
0.4244

> <Gold.PLP.Chemscore.Hbond>
2.9280

> <Gold.PLP.Chemscore.CHOScore>
0.4966

> <Gold.PLP.Chemscore.Metal>
0.0000

> <Gold.Chemscore.Hbonds>
donor molecule, donor type, donor heavy atom, donor atom, acceptor molecule, acceptor atom, score
      L1  H     8    28       P1  7957  1.00
      P1  H  7954  7966       L1     3  0.88
      P1  H  7989  7998       L1     8  0.86
      L1  C     4    24       P1  7957  0.31

> <Gold.PLP.Chemscore.Internal.Correction>
0.0694

> <Gold.Rescore>
     Score         DG    S(hbond)    S(metal)    S(lipo)     H(rot)  DE(clash)    DE(int)     intcor
     13.63     -16.79       1.60        0.00     103.06       2.38       2.62       0.54       ----

> <Gold.Chemscore.Fitness>
13.6344

> <Gold.Chemscore.DG>
-16.7939

> <Gold.Chemscore.ZeroCoef>
-5.4800

> <Gold.Chemscore.Hbond>
1.6035

> <Gold.Chemscore.Metal>
0.0000

> <Gold.Chemscore.Lipo>
103.0572

> <Gold.Chemscore.Internal_Hbond>
0.0000

> <Gold.Chemscore.DEClash>
2.6158

> <Gold.Chemscore.DEInternal>
0.5436

> <Gold.Chemscore.Rot>
2.3826

> <Gold.Chemscore.Internal.Correction>
   9.000000E+99

> <Gold.Chemscore.Hbonds>
donor molecule, donor type, donor heavy atom, donor atom, acceptor molecule, acceptor atom, score
      L1  H     8    28       P1  7957  1.00
      P1  H  7954  7966       L1     3  0.13
      P1  H  7989  7998       L1     8  0.25

> <Gold.Chemscore.Hbond.Weighted>
-5.3558

> <Gold.Chemscore.Metal.Weighted>
-0.0000

> <Gold.Chemscore.Lipo.Weighted>
-12.0577

> <Gold.Chemscore.Internal_Hbond.Weighted>
0.0000

> <Gold.Chemscore.DEClash.Weighted>
2.6158

> <Gold.Chemscore.DEInternal.Weighted>
0.5436

> <Gold.Chemscore.Rot.Weighted>
6.0996

> <Gold.Chemscore.Internal.Correction.Weighted>
   9.000000E+99

> <Gold.Protein.RotatedTorsions>
[ 6907 6896 6895 6894 ] final -123.83 input  -60.11 | X-H torsion
[ 7974 7965 7964 7962 ] final  -72.03 input  175.53 | X-H torsion
[ 8008 7997 7996 7995 ] final  159.12 input   59.86 | X-H torsion
[ 10167 10162 10161 10158 ] final  -85.35 input  -65.29 | X-H torsion
[ 10718 10713 10712 10709 ] final   76.04 input   66.30 | X-H torsion
[ 10763 10752 10751 10750 ] final -100.87 input  -60.55 | X-H torsion
[ 11005 11000 10999 10996 ] final  107.94 input  -57.11 | X-H torsion

> <Gold.Protein.ActiveResidues>
 VAL166  LYS551  ARG553  GLY616  TRP617  ASP618  TYR619  PRO620  LYS621  CYS622 
 ASP623  PHE694  ASN695  SER759  ASP760  ASP761  ALA762  ILE779  LEU786  VAL792 
 PHE793  MET794  SER795  GLU796  ALA797  LYS798  CYS799  TRP800  GLU811  SER814 

> <Gold.Protein.RotatedAtoms>
  150.8709  133.7507  159.2961 H   0  0  0  0  0  0  0  0  0  0  0  0  # atno 6907 bound_to 6896
  151.5119  135.1063  159.9865 H   0  0  0  0  0  0  0  0  0  0  0  0  # atno 6908 bound_to 6896
  152.4694  133.7951  159.6978 H   0  0  0  0  0  0  0  0  0  0  0  0  # atno 6909 bound_to 6896
  145.6705  140.9223  143.0886 H   0  0  0  0  0  0  0  0  0  0  0  0  # atno 7974 bound_to 7965
  156.2259  140.1839  156.7364 H   0  0  0  0  0  0  0  0  0  0  0  0  # atno 8008 bound_to 7997
  154.5940  140.0646  156.9306 H   0  0  0  0  0  0  0  0  0  0  0  0  # atno 8009 bound_to 7997
  155.2287  140.3313  155.4308 H   0  0  0  0  0  0  0  0  0  0  0  0  # atno 8010 bound_to 7997
  140.4046  143.2648  151.9098 H   0  0  0  0  0  0  0  0  0  0  0  0  # atno 10167 bound_to 10162
  157.6658  130.9755  150.1440 H   0  0  0  0  0  0  0  0  0  0  0  0  # atno 10718 bound_to 10713
  154.7613  135.4919  153.9470 H   0  0  0  0  0  0  0  0  0  0  0  0  # atno 10763 bound_to 10752
  153.1255  135.6741  153.9272 H   0  0  0  0  0  0  0  0  0  0  0  0  # atno 10764 bound_to 10752
  153.8991  135.3112  155.3427 H   0  0  0  0  0  0  0  0  0  0  0  0  # atno 10765 bound_to 10752
  139.8836  134.9416  156.5896 H   0  0  0  0  0  0  0  0  0  0  0  0  # atno 11005 bound_to 11000
  144.7058  139.8565  143.7430 LP  0  0  0  0  0  0  0  0  0  0  0  0  # atno 17320 bound_to 7965
  146.1050  139.4048  143.0323 LP  0  0  0  0  0  0  0  0  0  0  0  0  # atno 17321 bound_to 7965
  139.4784  144.5599  151.8255 LP  0  0  0  0  0  0  0  0  0  0  0  0  # atno 17342 bound_to 10162
  140.4703  144.1596  150.5917 LP  0  0  0  0  0  0  0  0  0  0  0  0  # atno 17343 bound_to 10162
  156.2256  130.3677  149.8505 LP  0  0  0  0  0  0  0  0  0  0  0  0  # atno 17370 bound_to 10713
  156.6346  130.8680  151.3502 LP  0  0  0  0  0  0  0  0  0  0  0  0  # atno 17371 bound_to 10713
  140.7965  133.8540  155.8690 LP  0  0  0  0  0  0  0  0  0  0  0  0  # atno 17394 bound_to 11000
  140.9630  134.1630  157.4638 LP  0  0  0  0  0  0  0  0  0  0  0  0  # atno 17395 bound_to 11000

$$$$
