AV-unprocessed.smi:278|AV-procd|sdf|2087|dock6
  -GOLD-   2262021363D 1   1.00000     0.00000
 Structure written by MMmdl.
 50 54  0  0  0  0  0  0  0  0  1 V2000
  152.8467  140.9048  159.6341 O   0  0  0  0  0  0  0  0  0  0  0  0
  152.1274  142.1834  159.7442 S   0  0  0  0  0  0  0  0  0  0  0  0
  151.7451  142.7193  161.0594 O   0  0  0  0  0  0  0  0  0  0  0  0
  153.0543  143.4715  158.8235 C   0  0  0  0  0  0  0  0  0  0  0  0
  152.0640  144.0800  157.8220 C   0  0  0  0  0  0  0  0  0  0  0  0
  151.0260  143.0135  157.4276 C   0  0  1  0  0  0  0  0  0  0  0  0
  151.5564  141.9605  156.4488 C   0  0  0  0  0  0  0  0  0  0  0  0
  150.7970  140.7538  156.7433 N   0  0  0  0  0  0  0  0  0  0  0  0
  151.0704  139.5761  156.1227 C   0  0  0  0  0  0  0  0  0  0  0  0
  151.5077  139.6061  154.8353 N   0  0  0  0  0  0  0  0  0  0  0  0
  151.7832  138.4733  154.1833 C   0  0  0  0  0  0  0  0  0  0  0  0
  151.6872  137.2167  154.6185 N   0  0  0  0  0  0  0  0  0  0  0  0
  151.2410  137.1740  155.9061 C   0  0  0  0  0  0  0  0  0  0  0  0
  150.9107  138.2924  156.7255 C   0  0  0  0  0  0  0  0  0  0  0  0
  150.4822  137.8444  157.9713 N   0  0  0  0  0  0  0  0  0  0  0  0
  150.5678  136.5446  157.8968 C   0  0  0  0  0  0  0  0  0  0  0  0
  151.0133  136.0573  156.6907 N   0  0  0  0  0  0  0  0  0  0  0  0
  151.1993  134.6618  156.3348 C   0  0  0  0  0  0  0  0  0  0  0  0
  150.0583  133.7643  156.8521 C   0  0  2  0  0  0  0  0  0  0  0  0
  150.5521  132.7916  157.7531 O   0  0  0  0  0  0  0  0  0  0  0  0
  149.2643  133.0943  155.7122 C   0  0  2  0  0  0  0  0  0  0  0  0
  149.8806  131.8349  155.0972 C   0  0  0  0  0  0  0  0  0  0  0  0
  149.2007  131.8066  153.7466 C   0  0  0  0  0  0  0  0  0  0  0  0
  149.1506  133.2909  153.3904 C   0  0  0  0  0  0  0  0  0  0  0  0
  149.0275  133.9885  154.6274 O   0  0  0  0  0  0  0  0  0  0  0  0
  150.2885  140.7915  158.1077 C   0  0  0  0  0  0  0  0  0  0  0  0
  150.6405  142.1833  158.6539 C   0  0  1  0  0  0  0  0  0  0  0  0
  150.1368  143.4774  156.9985 H   0  0  0  0  0  0  0  0  0  0  0  0
  149.8157  142.6311  159.2089 H   0  0  0  0  0  0  0  0  0  0  0  0
  153.4674  144.2059  159.5149 H   0  0  0  0  0  0  0  0  0  0  0  0
  153.8793  142.9835  158.3042 H   0  0  0  0  0  0  0  0  0  0  0  0
  151.5429  144.9065  158.3064 H   0  0  0  0  0  0  0  0  0  0  0  0
  152.5738  144.4955  156.9522 H   0  0  0  0  0  0  0  0  0  0  0  0
  151.4225  142.2760  155.4135 H   0  0  0  0  0  0  0  0  0  0  0  0
  152.6171  141.7655  156.6125 H   0  0  0  0  0  0  0  0  0  0  0  0
  152.1294  138.5910  153.1671 H   0  0  0  0  0  0  0  0  0  0  0  0
  150.3056  135.9014  158.7244 H   0  0  0  0  0  0  0  0  0  0  0  0
  151.2673  134.5935  155.2485 H   0  0  0  0  0  0  0  0  0  0  0  0
  152.1606  134.3283  156.7274 H   0  0  0  0  0  0  0  0  0  0  0  0
  149.3639  134.3843  157.4205 H   0  0  0  0  0  0  0  0  0  0  0  0
  151.0496  132.1558  157.2615 H   0  0  0  0  0  0  0  0  0  0  0  0
  148.2785  132.8261  156.0958 H   0  0  0  0  0  0  0  0  0  0  0  0
  150.9575  131.9373  154.9606 H   0  0  0  0  0  0  0  0  0  0  0  0
  149.6955  130.9384  155.6893 H   0  0  0  0  0  0  0  0  0  0  0  0
  149.7347  131.2086  153.0080 H   0  0  0  0  0  0  0  0  0  0  0  0
  148.1898  131.4084  153.8442 H   0  0  0  0  0  0  0  0  0  0  0  0
  150.0821  133.5974  152.9132 H   0  0  0  0  0  0  0  0  0  0  0  0
  148.3296  133.5297  152.7141 H   0  0  0  0  0  0  0  0  0  0  0  0
  149.2060  140.6660  158.0751 H   0  0  0  0  0  0  0  0  0  0  0  0
  150.6976  139.9926  158.7259 H   0  0  0  0  0  0  0  0  0  0  0  0
  1  2  2  0  0  0  0
  2 27  1  0  0  0  0
  2  3  2  0  0  0  0
  2  4  1  0  0  0  0
  4  5  1  0  0  0  0
  4 30  1  0  0  0  0
  4 31  1  0  0  0  0
  5  6  1  0  0  0  0
  5 32  1  0  0  0  0
  5 33  1  0  0  0  0
  6 28  1  0  0  0  0
  6 27  1  0  0  0  0
  6  7  1  0  0  0  0
  7  8  1  0  0  0  0
  7 34  1  0  0  0  0
  7 35  1  0  0  0  0
  8  9  1  0  0  0  0
  8 26  1  0  0  0  0
  9 14  1  0  0  0  0
  9 10  2  0  0  0  0
 10 11  1  0  0  0  0
 11 12  2  0  0  0  0
 11 36  1  0  0  0  0
 12 13  1  0  0  0  0
 13 17  1  0  0  0  0
 13 14  2  0  0  0  0
 14 15  1  0  0  0  0
 15 16  2  0  0  0  0
 16 17  1  0  0  0  0
 16 37  1  0  0  0  0
 17 18  1  0  0  0  0
 18 19  1  0  0  0  0
 18 38  1  0  0  0  0
 18 39  1  0  0  0  0
 19 20  1  0  0  0  0
 19 21  1  0  0  0  0
 19 40  1  0  0  0  0
 20 41  1  0  0  0  0
 21 25  1  0  0  0  0
 21 22  1  0  0  0  0
 21 42  1  0  0  0  0
 22 23  1  0  0  0  0
 22 43  1  0  0  0  0
 22 44  1  0  0  0  0
 23 24  1  0  0  0  0
 23 45  1  0  0  0  0
 23 46  1  0  0  0  0
 24 25  1  0  0  0  0
 24 47  1  0  0  0  0
 24 48  1  0  0  0  0
 26 27  1  0  0  0  0
 26 49  1  0  0  0  0
 26 50  1  0  0  0  0
 27 29  1  0  0  0  0
M  END
> <s_m_source_file>
AV-unprocessed.smi

> <i_m_source_file_index>
278

> <i_lp_mmshare_version>
43012

> <i_f3d_flags>
0

> <s_epik_input>
W0NIMl0xW0NIMl1TKD1PKSg9TylbQ0BASF0oW0NAQEhdMTIpW0NIMl1OKFtDSDJdMiljKG5bY0hdbjMpYyhjMzQpbltjSF1uNFtDSDJdW0NASF0oW09IXSlbQ0BASF01W0NIMl1bQ0gyXVtDSDJdTzU=

> <s_epik_cmdline>
J2VwaWtfcHl0aG9uJywgJy1waCcsICc3LjAnLCAnLXRuJywgJzgnLCAnLW1hJywgJzIwMCcsICctbWV0YWxfYmluZGluZycsICctaW1hZScsICc8aW5maWxlLm1hZT4nLCAnLW9tYWUnLCAnPG91dGZpbGUubWFlPic=

> <r_lp_tautomer_probability>
1

> <r_epik_Ionization_Penalty>
0.000636766

> <r_epik_Ionization_Penalty_Charging>
0

> <r_epik_Ionization_Penalty_Neutral>
0.000636766

> <r_epik_State_Penalty>
0.000329976

> <r_epik_Charging_Adjusted_Penalty>
0.000329976

> <i_epik_Tot_Q>
0

> <i_epik_Tot_abs_Q>
0

> <r_epik_Metal_State_Penalty>
-0

> <b_epik_Metal_Only>
0

> <s_lp_Force_Field>
OPLS_2005

> <r_lp_Energy>
50.3002

> <b_lp_Chiralities_Consistent>
1

> <s_lp_Variant>
AV-unprocessed.smi:278-1

> <Gold.Version>
5.8.1

> <Gold.Id.Protein>
6NUR|6NUR_protein|mol2

> <Gold.PLP.Fitness>
48.3287

> <Gold.PLP.PLP>
-41.3198

> <Gold.PLP.part.hbond>
-4.0000

> <Gold.PLP.part.metal>
0.0000

> <Gold.PLP.part.buried>
-7.5485

> <Gold.PLP.part.nonpolar>
-31.3173

> <Gold.PLP.part.repulsive>
0.3932

> <Gold.PLP.ligand.clash>
0.0000

> <Gold.PLP.ligand.torsion>
1.5241

> <Gold.PLP.Chemscore.Hbond>
3.2665

> <Gold.PLP.Chemscore.CHOScore>
0.0000

> <Gold.PLP.Chemscore.Metal>
0.0000

> <Gold.Chemscore.Hbonds>
donor molecule, donor type, donor heavy atom, donor atom, acceptor molecule, acceptor atom, score
      P1  H  6896  6909       L1    20  1.00
      P1  H  6933  6945       L1     3  0.16
      P1  H  7989  7998       L1    10  1.00
      P1  H 10752 10765       L1    12  1.00

> <Gold.PLP.Chemscore.Internal.Correction>
0.2576

> <Gold.Rescore>
     Score         DG    S(hbond)    S(metal)    S(lipo)     H(rot)  DE(clash)    DE(int)     intcor
     15.07     -17.91       2.36        0.00      85.47       2.13       0.24       2.60       ----

> <Gold.Chemscore.Fitness>
15.0720

> <Gold.Chemscore.DG>
-17.9092

> <Gold.Chemscore.ZeroCoef>
-5.4800

> <Gold.Chemscore.Hbond>
2.3633

> <Gold.Chemscore.Metal>
0.0000

> <Gold.Chemscore.Lipo>
85.4725

> <Gold.Chemscore.Internal_Hbond>
0.0000

> <Gold.Chemscore.DEClash>
0.2399

> <Gold.Chemscore.DEInternal>
2.5973

> <Gold.Chemscore.Rot>
2.1346

> <Gold.Chemscore.Internal.Correction>
   9.000000E+99

> <Gold.Chemscore.Hbonds>
donor molecule, donor type, donor heavy atom, donor atom, acceptor molecule, acceptor atom, score
      P1  H  6896  6909       L1    20  0.85
      P1  H  6933  6945       L1     3  0.15
      P1  H  7989  7998       L1    10  0.35
      P1  H 10752 10765       L1    12  0.60

> <Gold.Chemscore.Hbond.Weighted>
-7.8936

> <Gold.Chemscore.Metal.Weighted>
-0.0000

> <Gold.Chemscore.Lipo.Weighted>
-10.0003

> <Gold.Chemscore.Internal_Hbond.Weighted>
0.0000

> <Gold.Chemscore.DEClash.Weighted>
0.2399

> <Gold.Chemscore.DEInternal.Weighted>
2.5973

> <Gold.Chemscore.Rot.Weighted>
5.4646

> <Gold.Chemscore.Internal.Correction.Weighted>
   9.000000E+99

> <Gold.Protein.RotatedTorsions>
[ 6907 6896 6895 6894 ] final  -39.66 input  -60.11 | X-H torsion
[ 7974 7965 7964 7962 ] final  167.72 input  175.53 | X-H torsion
[ 8008 7997 7996 7995 ] final   31.18 input   59.86 | X-H torsion
[ 10167 10162 10161 10158 ] final    9.95 input  -65.29 | X-H torsion
[ 10718 10713 10712 10709 ] final  -54.92 input   66.30 | X-H torsion
[ 10763 10752 10751 10750 ] final  165.07 input  -60.55 | X-H torsion
[ 11005 11000 10999 10996 ] final  123.78 input  -57.11 | X-H torsion

> <Gold.Protein.ActiveResidues>
 VAL166  LYS551  ARG553  GLY616  TRP617  ASP618  TYR619  PRO620  LYS621  CYS622 
 ASP623  PHE694  ASN695  SER759  ASP760  ASP761  ALA762  ILE779  LEU786  VAL792 
 PHE793  MET794  SER795  GLU796  ALA797  LYS798  CYS799  TRP800  GLU811  SER814 

> <Gold.Protein.RotatedAtoms>
  150.9877  134.9219  159.7881 H   0  0  0  0  0  0  0  0  0  0  0  0  # atno 6907 bound_to 6896
  152.5241  134.3324  159.9197 H   0  0  0  0  0  0  0  0  0  0  0  0  # atno 6908 bound_to 6896
  151.3330  133.3951  159.2699 H   0  0  0  0  0  0  0  0  0  0  0  0  # atno 6909 bound_to 6896
  144.7414  139.8802  143.6395 H   0  0  0  0  0  0  0  0  0  0  0  0  # atno 7974 bound_to 7965
  155.1023  140.3231  155.4544 H   0  0  0  0  0  0  0  0  0  0  0  0  # atno 8008 bound_to 7997
  156.2714  140.2059  156.6095 H   0  0  0  0  0  0  0  0  0  0  0  0  # atno 8009 bound_to 7997
  154.6820  140.0525  157.0262 H   0  0  0  0  0  0  0  0  0  0  0  0  # atno 8010 bound_to 7997
  140.6224  143.8176  150.7191 H   0  0  0  0  0  0  0  0  0  0  0  0  # atno 10167 bound_to 10162
  156.1411  130.4154  150.0102 H   0  0  0  0  0  0  0  0  0  0  0  0  # atno 10718 bound_to 10713
  154.3185  135.2756  155.2531 H   0  0  0  0  0  0  0  0  0  0  0  0  # atno 10763 bound_to 10752
  154.4895  135.5837  153.6452 H   0  0  0  0  0  0  0  0  0  0  0  0  # atno 10764 bound_to 10752
  152.9879  135.6131  154.3368 H   0  0  0  0  0  0  0  0  0  0  0  0  # atno 10765 bound_to 10752
  139.9328  134.9641  156.8310 H   0  0  0  0  0  0  0  0  0  0  0  0  # atno 11005 bound_to 11000
  146.1217  139.4236  143.0224 LP  0  0  0  0  0  0  0  0  0  0  0  0  # atno 17320 bound_to 7965
  145.7295  141.0047  143.1359 LP  0  0  0  0  0  0  0  0  0  0  0  0  # atno 17321 bound_to 7965
  140.1769  143.4147  152.1961 LP  0  0  0  0  0  0  0  0  0  0  0  0  # atno 17342 bound_to 10162
  139.5450  144.7290  151.4613 LP  0  0  0  0  0  0  0  0  0  0  0  0  # atno 17343 bound_to 10162
  156.7987  130.9282  151.3646 LP  0  0  0  0  0  0  0  0  0  0  0  0  # atno 17370 bound_to 10713
  157.6576  130.8938  149.9762 LP  0  0  0  0  0  0  0  0  0  0  0  0  # atno 17371 bound_to 10713
  140.6156  134.0042  155.7595 LP  0  0  0  0  0  0  0  0  0  0  0  0  # atno 17394 bound_to 11000
  141.0926  133.9893  157.3212 LP  0  0  0  0  0  0  0  0  0  0  0  0  # atno 17395 bound_to 11000

$$$$
