AV-unprocessed.smi:1207|AV-procd|sdf|5054|dock7
  -GOLD-   22720 4 83D 1   1.00000     0.00000
 Structure written by MMmdl.
 52 54  0  0  0  0  0  0  0  0  2 V2000
  152.2677  144.2769  159.5152 C   0  0  0  0  0  0  0  0  0  0  0  0
  152.0602  143.0369  158.6633 C   0  0  0  0  0  0  0  0  0  0  0  0
  151.3003  143.1382  157.4763 C   0  0  0  0  0  0  0  0  0  0  0  0
  151.0862  142.0100  156.6548 C   0  0  0  0  0  0  0  0  0  0  0  0
  150.3893  141.8829  155.4654 N   0  0  0  0  0  0  0  0  0  0  0  0
  150.5580  140.5928  155.1918 C   0  0  0  0  0  0  0  0  0  0  0  0
  151.2839  139.8673  156.0639 N   0  0  0  0  0  0  0  0  0  0  0  0
  151.6050  138.4545  155.9699 C   0  0  0  0  0  0  0  0  0  0  0  0
  150.9074  137.7701  154.7786 C   0  0  1  0  0  0  0  0  0  0  0  0
  151.8792  137.1835  153.9326 O   0  0  0  0  0  0  0  0  0  0  0  0
  149.9333  136.6709  155.2384 C   0  0  0  0  0  0  0  0  0  0  0  0
  148.6776  136.6858  154.4412 N   0  3  2  0  0  0  0  0  0  0  0  0
  148.0204  138.0129  154.4364 C   0  0  0  0  0  0  0  0  0  0  0  0
  147.7320  135.5956  154.7881 C   0  0  0  0  0  0  0  0  0  0  0  0
  148.3014  134.2432  154.4398 C   0  0  0  0  0  0  0  0  0  0  0  0
  147.9427  133.3913  153.3554 C   0  0  0  0  0  0  0  0  0  0  0  0
  146.9212  133.6269  152.2795 C   0  0  0  0  0  0  0  0  0  0  0  0
  148.6353  132.2653  153.3633 N   0  0  0  0  0  0  0  0  0  0  0  0
  149.4900  132.3476  154.4664 O   0  0  0  0  0  0  0  0  0  0  0  0
  149.2752  133.5339  155.0883 C   0  0  0  0  0  0  0  0  0  0  0  0
  150.0927  133.8048  156.3055 C   0  0  0  0  0  0  0  0  0  0  0  0
  151.6560  140.7669  157.0576 C   0  0  0  0  0  0  0  0  0  0  0  0
  152.4122  140.6530  158.2376 C   0  0  0  0  0  0  0  0  0  0  0  0
  152.6187  141.7907  159.0453 C   0  0  0  0  0  0  0  0  0  0  0  0
  153.4404  141.6583  160.3151 C   0  0  0  0  0  0  0  0  0  0  0  0
  151.7462  145.1386  159.0975 H   0  0  0  0  0  0  0  0  0  0  0  0
  153.3276  144.5248  159.5766 H   0  0  0  0  0  0  0  0  0  0  0  0
  151.8899  144.1152  160.5251 H   0  0  0  0  0  0  0  0  0  0  0  0
  150.8749  144.0874  157.1848 H   0  0  0  0  0  0  0  0  0  0  0  0
  150.1319  140.1490  154.3040 H   0  0  0  0  0  0  0  0  0  0  0  0
  152.6881  138.3482  155.8952 H   0  0  0  0  0  0  0  0  0  0  0  0
  151.3103  137.9749  156.9042 H   0  0  0  0  0  0  0  0  0  0  0  0
  150.3717  138.5263  154.2040 H   0  0  0  0  0  0  0  0  0  0  0  0
  151.4619  136.9200  153.1262 H   0  0  0  0  0  0  0  0  0  0  0  0
  150.4402  135.7096  155.1561 H   0  0  0  0  0  0  0  0  0  0  0  0
  149.6935  136.7861  156.2966 H   0  0  0  0  0  0  0  0  0  0  0  0
  147.6544  138.2712  155.4311 H   0  0  0  0  0  0  0  0  0  0  0  0
  147.1736  138.0213  153.7492 H   0  0  0  0  0  0  0  0  0  0  0  0
  148.7097  138.7931  154.1138 H   0  0  0  0  0  0  0  0  0  0  0  0
  147.4780  135.6669  155.8466 H   0  0  0  0  0  0  0  0  0  0  0  0
  146.7981  135.7484  154.2457 H   0  0  0  0  0  0  0  0  0  0  0  0
  145.9377  133.8179  152.7086 H   0  0  0  0  0  0  0  0  0  0  0  0
  146.8285  132.7684  151.6129 H   0  0  0  0  0  0  0  0  0  0  0  0
  147.1908  134.4896  151.6702 H   0  0  0  0  0  0  0  0  0  0  0  0
  150.0733  134.8637  156.5631 H   0  0  0  0  0  0  0  0  0  0  0  0
  151.1321  133.5162  156.1472 H   0  0  0  0  0  0  0  0  0  0  0  0
  149.7110  133.2422  157.1577 H   0  0  0  0  0  0  0  0  0  0  0  0
  152.8325  139.6983  158.5172 H   0  0  0  0  0  0  0  0  0  0  0  0
  153.8193  140.6435  160.4400 H   0  0  0  0  0  0  0  0  0  0  0  0
  152.8339  141.8995  161.1881 H   0  0  0  0  0  0  0  0  0  0  0  0
  154.2962  142.3332  160.2894 H   0  0  0  0  0  0  0  0  0  0  0  0
  148.9571  136.5045  153.4873 H   0  0  0  0  0  0  0  0  0  0  0  0
  1  2  1  0  0  0  0
  1 26  1  0  0  0  0
  1 27  1  0  0  0  0
  1 28  1  0  0  0  0
  2 24  1  0  0  0  0
  2  3  2  0  0  0  0
  3  4  1  0  0  0  0
  3 29  1  0  0  0  0
  4 22  2  0  0  0  0
  4  5  1  0  0  0  0
  5  6  2  0  0  0  0
  6  7  1  0  0  0  0
  6 30  1  0  0  0  0
  7  8  1  0  0  0  0
  7 22  1  0  0  0  0
  8  9  1  0  0  0  0
  8 31  1  0  0  0  0
  8 32  1  0  0  0  0
  9 10  1  0  0  0  0
  9 11  1  0  0  0  0
  9 33  1  0  0  0  0
 10 34  1  0  0  0  0
 11 12  1  0  0  0  0
 11 35  1  0  0  0  0
 11 36  1  0  0  0  0
 12 13  1  0  0  0  0
 12 14  1  0  0  0  0
 12 52  1  0  0  0  0
 13 37  1  0  0  0  0
 13 38  1  0  0  0  0
 13 39  1  0  0  0  0
 14 15  1  0  0  0  0
 14 40  1  0  0  0  0
 14 41  1  0  0  0  0
 15 20  2  0  0  0  0
 15 16  1  0  0  0  0
 16 17  1  0  0  0  0
 16 18  2  0  0  0  0
 17 42  1  0  0  0  0
 17 43  1  0  0  0  0
 17 44  1  0  0  0  0
 18 19  1  0  0  0  0
 19 20  1  0  0  0  0
 20 21  1  0  0  0  0
 21 45  1  0  0  0  0
 21 46  1  0  0  0  0
 21 47  1  0  0  0  0
 22 23  1  0  0  0  0
 23 24  2  0  0  0  0
 23 48  1  0  0  0  0
 24 25  1  0  0  0  0
 25 49  1  0  0  0  0
 25 50  1  0  0  0  0
 25 51  1  0  0  0  0
M  CHG  1  12   1
M  END
> <s_m_source_file>
AV-unprocessed.smi

> <i_m_source_file_index>
1207

> <i_lp_mmshare_version>
43012

> <i_f3d_flags>
0

> <s_epik_input>
W0NIM11jKFtjSF0xKWMoW0NIM10pW2NIXWMoYzEyKW4oW2NIXW4yKVtDSDJdW0NASF0oW09IXSlbQ0gyXU4oW0NIM10pW0NIMl1jM2MoW0NIM10pbm9jM1tDSDNd

> <s_epik_cmdline>
J2VwaWtfcHl0aG9uJywgJy1waCcsICc3LjAnLCAnLXRuJywgJzgnLCAnLW1hJywgJzIwMCcsICctbWV0YWxfYmluZGluZycsICctaW1hZScsICc8aW5maWxlLm1hZT4nLCAnLW9tYWUnLCAnPG91dGZpbGUubWFlPic=

> <r_epik_Ionization_Penalty>
0.646518

> <r_epik_Ionization_Penalty_Charging>
0.559419

> <r_epik_Ionization_Penalty_Neutral>
0.0870981

> <r_epik_State_Penalty>
0.661677

> <r_epik_Charging_Adjusted_Penalty>
1.2211

> <i_epik_Tot_Q>
1

> <i_epik_Tot_abs_Q>
1

> <r_epik_Metal_State_Penalty>
0.649158

> <b_epik_Metal_Only>
0

> <s_lp_Force_Field>
OPLS_2005

> <r_lp_Energy>
8.09598

> <b_lp_Chiralities_Consistent>
1

> <s_lp_Variant>
AV-unprocessed.smi:1207-6

> <Gold.Version>
5.8.1

> <Gold.Id.Protein>
6NUR|6NUR_protein|mol2

> <Gold.PLP.Fitness>
56.4633

> <Gold.PLP.PLP>
-47.3494

> <Gold.PLP.part.hbond>
-3.0000

> <Gold.PLP.part.metal>
0.0000

> <Gold.PLP.part.buried>
-5.4193

> <Gold.PLP.part.nonpolar>
-39.7625

> <Gold.PLP.part.repulsive>
0.2862

> <Gold.PLP.ligand.clash>
0.0000

> <Gold.PLP.ligand.torsion>
1.5919

> <Gold.PLP.Chemscore.Hbond>
4.0000

> <Gold.PLP.Chemscore.CHOScore>
0.0000

> <Gold.PLP.Chemscore.Metal>
0.0000

> <Gold.Chemscore.Hbonds>
donor molecule, donor type, donor heavy atom, donor atom, acceptor molecule, acceptor atom, score
      L1  H    10    34       P1  7949  1.00
      L1  H    12    52       P1  7948  2.00
      P1  H 10752 10763       L1    10  0.85

> <Gold.PLP.Chemscore.Internal.Correction>
0.2977

> <Gold.Rescore>
     Score         DG    S(hbond)    S(metal)    S(lipo)     H(rot)  DE(clash)    DE(int)     intcor
     19.13     -20.85       2.42        0.00     115.96       2.46       0.16       1.56       ----

> <Gold.Chemscore.Fitness>
19.1299

> <Gold.Chemscore.DG>
-20.8508

> <Gold.Chemscore.ZeroCoef>
-5.4800

> <Gold.Chemscore.Hbond>
2.4228

> <Gold.Chemscore.Metal>
0.0000

> <Gold.Chemscore.Lipo>
115.9604

> <Gold.Chemscore.Internal_Hbond>
0.0000

> <Gold.Chemscore.DEClash>
0.1567

> <Gold.Chemscore.DEInternal>
1.5641

> <Gold.Chemscore.Rot>
2.4565

> <Gold.Chemscore.Internal.Correction>
   9.000000E+99

> <Gold.Chemscore.Hbonds>
donor molecule, donor type, donor heavy atom, donor atom, acceptor molecule, acceptor atom, score
      L1  H    10    34       P1  7949  0.87
      L1  H    12    52       P1  7948  0.99
      P1  H 10752 10763       L1    10  0.14

> <Gold.Chemscore.Hbond.Weighted>
-8.0921

> <Gold.Chemscore.Metal.Weighted>
-0.0000

> <Gold.Chemscore.Lipo.Weighted>
-13.5674

> <Gold.Chemscore.Internal_Hbond.Weighted>
0.0000

> <Gold.Chemscore.DEClash.Weighted>
0.1567

> <Gold.Chemscore.DEInternal.Weighted>
1.5641

> <Gold.Chemscore.Rot.Weighted>
6.2887

> <Gold.Chemscore.Internal.Correction.Weighted>
   9.000000E+99

> <Gold.Protein.RotatedTorsions>
[ 6907 6896 6895 6894 ] final -158.41 input  -60.11 | X-H torsion
[ 7974 7965 7964 7962 ] final  -31.07 input  175.53 | X-H torsion
[ 8008 7997 7996 7995 ] final  169.62 input   59.86 | X-H torsion
[ 10167 10162 10161 10158 ] final -117.40 input  -65.29 | X-H torsion
[ 10718 10713 10712 10709 ] final  -79.96 input   66.30 | X-H torsion
[ 10763 10752 10751 10750 ] final   31.63 input  -60.55 | X-H torsion
[ 11005 11000 10999 10996 ] final  173.58 input  -57.11 | X-H torsion

> <Gold.Protein.ActiveResidues>
 VAL166  LYS551  ARG553  GLY616  TRP617  ASP618  TYR619  PRO620  LYS621  CYS622 
 ASP623  PHE694  ASN695  SER759  ASP760  ASP761  ALA762  ILE779  LEU786  VAL792 
 PHE793  MET794  SER795  GLU796  ALA797  LYS798  CYS799  TRP800  GLU811  SER814 

> <Gold.Protein.RotatedAtoms>
  151.3177  133.4053  159.2651 H   0  0  0  0  0  0  0  0  0  0  0  0  # atno 6907 bound_to 6896
  151.0061  134.9360  159.7991 H   0  0  0  0  0  0  0  0  0  0  0  0  # atno 6908 bound_to 6896
  152.5288  134.3142  159.9177 H   0  0  0  0  0  0  0  0  0  0  0  0  # atno 6909 bound_to 6896
  146.1095  140.5620  142.8784 H   0  0  0  0  0  0  0  0  0  0  0  0  # atno 7974 bound_to 7965
  156.1440  140.1559  156.8876 H   0  0  0  0  0  0  0  0  0  0  0  0  # atno 8008 bound_to 7997
  154.5012  140.0825  156.7839 H   0  0  0  0  0  0  0  0  0  0  0  0  # atno 8009 bound_to 7997
  155.4024  140.3415  155.4260 H   0  0  0  0  0  0  0  0  0  0  0  0  # atno 8010 bound_to 7997
  140.0688  143.4897  152.1991 H   0  0  0  0  0  0  0  0  0  0  0  0  # atno 10167 bound_to 10162
  156.0080  130.4561  150.3728 H   0  0  0  0  0  0  0  0  0  0  0  0  # atno 10718 bound_to 10713
  153.0305  135.6434  154.1229 H   0  0  0  0  0  0  0  0  0  0  0  0  # atno 10763 bound_to 10752
  154.0952  135.2863  155.3265 H   0  0  0  0  0  0  0  0  0  0  0  0  # atno 10764 bound_to 10752
  154.6437  135.5450  153.7882 H   0  0  0  0  0  0  0  0  0  0  0  0  # atno 10765 bound_to 10752
  140.3420  134.7268  157.4209 H   0  0  0  0  0  0  0  0  0  0  0  0  # atno 11005 bound_to 11000
  144.7499  140.5165  143.6809 LP  0  0  0  0  0  0  0  0  0  0  0  0  # atno 17320 bound_to 7965
  145.5692  139.1482  143.3298 LP  0  0  0  0  0  0  0  0  0  0  0  0  # atno 17321 bound_to 7965
  139.5849  144.7526  151.3546 LP  0  0  0  0  0  0  0  0  0  0  0  0  # atno 17342 bound_to 10162
  140.7136  143.7326  150.7612 LP  0  0  0  0  0  0  0  0  0  0  0  0  # atno 17343 bound_to 10162
  157.1812  131.0392  151.2747 LP  0  0  0  0  0  0  0  0  0  0  0  0  # atno 17370 bound_to 10713
  157.4144  130.7403  149.6864 LP  0  0  0  0  0  0  0  0  0  0  0  0  # atno 17371 bound_to 10713
  140.0773  134.5780  155.8578 LP  0  0  0  0  0  0  0  0  0  0  0  0  # atno 17394 bound_to 11000
  141.2036  133.6633  156.6071 LP  0  0  0  0  0  0  0  0  0  0  0  0  # atno 17395 bound_to 11000

$$$$
