AV-unprocessed.smi:1550|AV-procd|sdf|6226|dock5
  -GOLD-   22720 6403D 1   1.00000     0.00000
 Structure written by MMmdl.
 43 44  0  0  0  0  0  0  0  0  1 V2000
  149.9144  136.5045  156.3363 C   0  0  0  0  0  0  0  0  0  0  0  0
  150.1808  136.6414  157.8426 C   0  0  2  0  0  0  0  0  0  0  0  0
  148.9541  136.3819  158.5199 O   0  0  0  0  0  0  0  0  0  0  0  0
  148.9877  136.5413  159.9340 C   0  0  0  0  0  0  0  0  0  0  0  0
  147.6179  136.1522  160.5041 C   0  0  1  0  0  0  0  0  0  0  0  0
  147.6204  134.7236  161.0828 C   0  0  0  0  0  0  0  0  0  0  0  0
  146.2673  134.4003  161.7271 C   0  0  0  0  0  0  0  0  0  0  0  0
  145.9073  135.4874  162.7453 C   0  0  0  0  0  0  0  0  0  0  0  0
  146.0007  136.8778  162.0973 C   0  0  0  0  0  0  0  0  0  0  0  0
  147.3012  137.0695  161.5494 O   0  0  0  0  0  0  0  0  0  0  0  0
  150.6944  138.0476  158.1928 C   0  0  0  0  0  0  0  0  0  0  0  0
  151.7418  138.1700  158.8278 O   0  0  0  0  0  0  0  0  0  0  0  0
  149.9275  139.0684  157.7618 N   0  0  0  0  0  0  0  0  0  0  0  0
  150.1557  140.4502  157.8639 C   0  0  0  0  0  0  0  0  0  0  0  0
  151.0881  141.0207  158.6708 C   0  0  0  0  0  0  0  0  0  0  0  0
  151.2886  142.4592  158.7205 C   0  0  0  0  0  0  0  0  0  0  0  0
  152.3770  143.0811  159.5818 C   0  0  0  0  0  0  0  0  0  0  0  0
  153.0937  142.1463  160.2075 F   0  0  0  0  0  0  0  0  0  0  0  0
  153.2032  143.7979  158.8211 F   0  0  0  0  0  0  0  0  0  0  0  0
  151.8527  143.8915  160.5014 F   0  0  0  0  0  0  0  0  0  0  0  0
  150.5204  143.2005  157.9009 C   0  0  0  0  0  0  0  0  0  0  0  0
  149.5594  142.6217  157.0687 N   0  0  0  0  0  0  0  0  0  0  0  0
  149.3256  141.2927  156.9875 C   0  0  0  0  0  0  0  0  0  0  0  0
  148.4676  140.8580  156.2200 O   0  0  0  0  0  0  0  0  0  0  0  0
  149.0175  143.2470  156.4898 H   0  0  0  0  0  0  0  0  0  0  0  0
  150.8149  136.7044  155.7545 H   0  0  0  0  0  0  0  0  0  0  0  0
  149.1383  137.1939  156.0014 H   0  0  0  0  0  0  0  0  0  0  0  0
  149.5831  135.4947  156.0932 H   0  0  0  0  0  0  0  0  0  0  0  0
  150.9188  135.8900  158.1309 H   0  0  0  0  0  0  0  0  0  0  0  0
  149.7593  135.8880  160.3442 H   0  0  0  0  0  0  0  0  0  0  0  0
  149.2349  137.5625  160.2261 H   0  0  0  0  0  0  0  0  0  0  0  0
  146.8702  136.2223  159.7118 H   0  0  0  0  0  0  0  0  0  0  0  0
  147.8424  133.9974  160.3004 H   0  0  0  0  0  0  0  0  0  0  0  0
  148.4105  134.6308  161.8293 H   0  0  0  0  0  0  0  0  0  0  0  0
  145.4964  134.3477  160.9573 H   0  0  0  0  0  0  0  0  0  0  0  0
  146.2982  133.4229  162.2090 H   0  0  0  0  0  0  0  0  0  0  0  0
  144.9049  135.3199  163.1397 H   0  0  0  0  0  0  0  0  0  0  0  0
  146.5911  135.4358  163.5936 H   0  0  0  0  0  0  0  0  0  0  0  0
  145.2452  136.9983  161.3195 H   0  0  0  0  0  0  0  0  0  0  0  0
  145.8161  137.6514  162.8425 H   0  0  0  0  0  0  0  0  0  0  0  0
  149.0492  138.8170  157.3313 H   0  0  0  0  0  0  0  0  0  0  0  0
  151.7269  140.4135  159.2917 H   0  0  0  0  0  0  0  0  0  0  0  0
  150.5842  144.2751  157.8138 H   0  0  0  0  0  0  0  0  0  0  0  0
  1  2  1  0  0  0  0
  1 26  1  0  0  0  0
  1 27  1  0  0  0  0
  1 28  1  0  0  0  0
  2  3  1  0  0  0  0
  2 11  1  0  0  0  0
  2 29  1  0  0  0  0
  3  4  1  0  0  0  0
  4  5  1  0  0  0  0
  4 30  1  0  0  0  0
  4 31  1  0  0  0  0
  5 10  1  0  0  0  0
  5  6  1  0  0  0  0
  5 32  1  0  0  0  0
  6  7  1  0  0  0  0
  6 33  1  0  0  0  0
  6 34  1  0  0  0  0
  7  8  1  0  0  0  0
  7 35  1  0  0  0  0
  7 36  1  0  0  0  0
  8  9  1  0  0  0  0
  8 37  1  0  0  0  0
  8 38  1  0  0  0  0
  9 10  1  0  0  0  0
  9 39  1  0  0  0  0
  9 40  1  0  0  0  0
 11 12  2  0  0  0  0
 11 13  1  0  0  0  0
 13 14  1  0  0  0  0
 13 41  1  0  0  0  0
 14 23  1  0  0  0  0
 14 15  2  0  0  0  0
 15 16  1  0  0  0  0
 15 42  1  0  0  0  0
 16 17  1  0  0  0  0
 16 21  2  0  0  0  0
 17 18  1  0  0  0  0
 17 19  1  0  0  0  0
 17 20  1  0  0  0  0
 21 22  1  0  0  0  0
 21 43  1  0  0  0  0
 22 25  1  0  0  0  0
 22 23  1  0  0  0  0
 23 24  2  0  0  0  0
M  END
> <s_m_source_file>
AV-unprocessed.smi

> <i_m_source_file_index>
1550

> <i_lp_mmshare_version>
43012

> <i_f3d_flags>
0

> <s_epik_input>
TzFbQ0gyXVtDSDJdW0NIMl1bQ0gyXVtDQEhdMVtDSDJdT1tDQEBIXShbQ0gzXSlDKD1PKVtOSF1jMltjSF1jKEMoRikoRilGKVtjSF1bbkhdYzI9Tw==

> <s_epik_cmdline>
J2VwaWtfcHl0aG9uJywgJy1waCcsICc3LjAnLCAnLXRuJywgJzgnLCAnLW1hJywgJzIwMCcsICctbWV0YWxfYmluZGluZycsICctaW1hZScsICc8aW5maWxlLm1hZT4nLCAnLW9tYWUnLCAnPG91dGZpbGUubWFlPic=

> <r_lp_tautomer_probability>
0.999

> <r_epik_Ionization_Penalty>
0.00891333

> <r_epik_Ionization_Penalty_Charging>
0.00891323

> <r_epik_Ionization_Penalty_Neutral>
1.00146e-07

> <r_epik_State_Penalty>
0.00674197

> <r_epik_Charging_Adjusted_Penalty>
0.0156552

> <i_epik_Tot_Q>
0

> <i_epik_Tot_abs_Q>
0

> <r_epik_Metal_State_Penalty>
0.321024

> <b_epik_Metal_Only>
0

> <s_lp_Force_Field>
OPLS_2005

> <r_lp_Energy>
25.8894

> <b_lp_Chiralities_Consistent>
1

> <s_lp_Variant>
AV-unprocessed.smi:1550-3

> <Gold.Version>
5.8.1

> <Gold.Id.Protein>
6NUR|6NUR_protein|mol2

> <Gold.PLP.Fitness>
48.1889

> <Gold.PLP.PLP>
-40.5766

> <Gold.PLP.part.hbond>
-3.0000

> <Gold.PLP.part.metal>
0.0000

> <Gold.PLP.part.buried>
-5.8018

> <Gold.PLP.part.nonpolar>
-32.1802

> <Gold.PLP.part.repulsive>
0.1674

> <Gold.PLP.ligand.clash>
0.0000

> <Gold.PLP.ligand.torsion>
0.7500

> <Gold.PLP.Chemscore.Hbond>
2.8240

> <Gold.PLP.Chemscore.CHOScore>
0.1772

> <Gold.PLP.Chemscore.Metal>
0.0000

> <Gold.Chemscore.Hbonds>
donor molecule, donor type, donor heavy atom, donor atom, acceptor molecule, acceptor atom, score
      L1  H    22    25       P1  8028  0.99
      P1  H  6931  6943       L1    10  0.72
      P1  H  6934  6947       L1    10  0.91
      L1  C    21    43       P1  8028  0.20

> <Gold.PLP.Chemscore.Internal.Correction>
0.1088

> <Gold.Rescore>
     Score         DG    S(hbond)    S(metal)    S(lipo)     H(rot)  DE(clash)    DE(int)     intcor
     14.23     -16.21       1.65        0.00      85.08       1.86       0.02       1.95       ----

> <Gold.Chemscore.Fitness>
14.2331

> <Gold.Chemscore.DG>
-16.2081

> <Gold.Chemscore.ZeroCoef>
-5.4800

> <Gold.Chemscore.Hbond>
1.6550

> <Gold.Chemscore.Metal>
0.0000

> <Gold.Chemscore.Lipo>
85.0812

> <Gold.Chemscore.Internal_Hbond>
0.0000

> <Gold.Chemscore.DEClash>
0.0202

> <Gold.Chemscore.DEInternal>
1.9547

> <Gold.Chemscore.Rot>
1.8571

> <Gold.Chemscore.Internal.Correction>
   9.000000E+99

> <Gold.Chemscore.Hbonds>
donor molecule, donor type, donor heavy atom, donor atom, acceptor molecule, acceptor atom, score
      L1  H    22    25       P1  8028  0.93
      P1  H  6931  6943       L1    10  0.46
      P1  H  6934  6947       L1    10  0.22

> <Gold.Chemscore.Hbond.Weighted>
-5.5276

> <Gold.Chemscore.Metal.Weighted>
-0.0000

> <Gold.Chemscore.Lipo.Weighted>
-9.9545

> <Gold.Chemscore.Internal_Hbond.Weighted>
0.0000

> <Gold.Chemscore.DEClash.Weighted>
0.0202

> <Gold.Chemscore.DEInternal.Weighted>
1.9547

> <Gold.Chemscore.Rot.Weighted>
4.7541

> <Gold.Chemscore.Internal.Correction.Weighted>
   9.000000E+99

> <Gold.Protein.RotatedTorsions>
[ 6907 6896 6895 6894 ] final -136.95 input  -60.11 | X-H torsion
[ 7974 7965 7964 7962 ] final   57.76 input  175.53 | X-H torsion
[ 8008 7997 7996 7995 ] final   88.89 input   59.86 | X-H torsion
[ 10167 10162 10161 10158 ] final  -85.09 input  -65.29 | X-H torsion
[ 10718 10713 10712 10709 ] final -158.07 input   66.30 | X-H torsion
[ 10763 10752 10751 10750 ] final  -31.18 input  -60.55 | X-H torsion
[ 11005 11000 10999 10996 ] final -143.38 input  -57.11 | X-H torsion

> <Gold.Protein.ActiveResidues>
 VAL166  LYS551  ARG553  GLY616  TRP617  ASP618  TYR619  PRO620  LYS621  CYS622 
 ASP623  PHE694  ASN695  SER759  ASP760  ASP761  ALA762  ILE779  LEU786  VAL792 
 PHE793  MET794  SER795  GLU796  ALA797  LYS798  CYS799  TRP800  GLU811  SER814 

> <Gold.Protein.RotatedAtoms>
  151.0165  133.5917  159.2676 H   0  0  0  0  0  0  0  0  0  0  0  0  # atno 6907 bound_to 6896
  151.3049  135.0778  159.9261 H   0  0  0  0  0  0  0  0  0  0  0  0  # atno 6908 bound_to 6896
  152.5312  133.9840  159.7874 H   0  0  0  0  0  0  0  0  0  0  0  0  # atno 6909 bound_to 6896
  145.9255  139.3764  143.0452 H   0  0  0  0  0  0  0  0  0  0  0  0  # atno 7974 bound_to 7965
  155.9933  140.3366  155.6774 H   0  0  0  0  0  0  0  0  0  0  0  0  # atno 8008 bound_to 7997
  155.6390  140.0693  157.2642 H   0  0  0  0  0  0  0  0  0  0  0  0  # atno 8009 bound_to 7997
  154.4226  140.1746  156.1541 H   0  0  0  0  0  0  0  0  0  0  0  0  # atno 8010 bound_to 7997
  140.4071  143.2638  151.9067 H   0  0  0  0  0  0  0  0  0  0  0  0  # atno 10167 bound_to 10162
  156.5491  130.8597  151.2774 H   0  0  0  0  0  0  0  0  0  0  0  0  # atno 10718 bound_to 10713
  153.7931  135.6896  153.4868 H   0  0  0  0  0  0  0  0  0  0  0  0  # atno 10763 bound_to 10752
  153.1736  135.4533  154.9934 H   0  0  0  0  0  0  0  0  0  0  0  0  # atno 10764 bound_to 10752
  154.8036  135.3348  154.7426 H   0  0  0  0  0  0  0  0  0  0  0  0  # atno 10765 bound_to 10752
  140.8131  134.2720  157.4932 H   0  0  0  0  0  0  0  0  0  0  0  0  # atno 11005 bound_to 11000
  145.8494  140.9537  143.0757 LP  0  0  0  0  0  0  0  0  0  0  0  0  # atno 17320 bound_to 7965
  144.6758  140.0387  143.7481 LP  0  0  0  0  0  0  0  0  0  0  0  0  # atno 17321 bound_to 7965
  139.4783  144.5575  151.8291 LP  0  0  0  0  0  0  0  0  0  0  0  0  # atno 17342 bound_to 10162
  140.4678  144.1630  150.5914 LP  0  0  0  0  0  0  0  0  0  0  0  0  # atno 17343 bound_to 10162
  157.7391  130.9825  150.2292 LP  0  0  0  0  0  0  0  0  0  0  0  0  # atno 17370 bound_to 10713
  156.2901  130.3744  149.7850 LP  0  0  0  0  0  0  0  0  0  0  0  0  # atno 17371 bound_to 10713
  139.8713  134.9494  156.4025 LP  0  0  0  0  0  0  0  0  0  0  0  0  # atno 17394 bound_to 11000
  140.9177  133.7667  155.9868 LP  0  0  0  0  0  0  0  0  0  0  0  0  # atno 17395 bound_to 11000

$$$$
