AV-unprocessed.smi:551|AV-procd|sdf|2900|dock6
  -GOLD-   2262023393D 1   1.00000     0.00000
 Structure written by MMmdl.
 38 39  0  0  0  0  0  0  0  0  1 V2000
  152.3474  138.0680  159.4681 C   0  0  0  0  0  0  0  0  0  0  0  0
  151.8627  138.9702  158.3198 C   0  0  2  0  0  0  0  0  0  0  0  0
  152.5217  138.6032  156.9702 C   0  0  0  0  0  0  0  0  0  0  0  0
  151.6675  138.8985  155.8346 N   0  0  0  0  0  0  0  0  0  0  0  0
  151.2925  138.0274  154.8199 C   0  0  0  0  0  0  0  0  0  0  0  0
  150.4842  138.7432  153.9661 C   0  0  0  0  0  0  0  0  0  0  0  0
  150.3468  140.0479  154.4346 N   0  0  0  0  0  0  0  0  0  0  0  0
  151.0730  140.0638  155.5449 C   0  0  0  0  0  0  0  0  0  0  0  0
  152.0060  140.3895  158.6574 N   0  0  0  0  0  0  0  0  0  0  0  0
  153.1220  141.0291  159.0478 C   0  0  0  0  0  0  0  0  0  0  0  0
  154.2108  140.4732  159.1931 O   0  0  0  0  0  0  0  0  0  0  0  0
  152.9856  142.5354  159.3047 C   0  0  0  0  0  0  0  0  0  0  0  0
  152.3749  142.8004  160.6975 C   0  0  0  0  0  0  0  0  0  0  0  0
  152.2192  144.3069  160.9626 C   0  0  0  0  0  0  0  0  0  0  0  0
  151.3840  144.9828  159.8638 C   0  0  0  0  0  0  0  0  0  0  0  0
  151.9792  144.7195  158.4718 C   0  0  0  0  0  0  0  0  0  0  0  0
  152.1349  143.2127  158.2085 C   0  0  0  0  0  0  0  0  0  0  0  0
  152.1226  137.0215  159.2612 H   0  0  0  0  0  0  0  0  0  0  0  0
  151.8583  138.3286  160.4071 H   0  0  0  0  0  0  0  0  0  0  0  0
  153.4241  138.1471  159.6196 H   0  0  0  0  0  0  0  0  0  0  0  0
  150.7897  138.8031  158.2174 H   0  0  0  0  0  0  0  0  0  0  0  0
  153.4718  139.1215  156.8380 H   0  0  0  0  0  0  0  0  0  0  0  0
  152.7523  137.5373  156.9480 H   0  0  0  0  0  0  0  0  0  0  0  0
  151.6267  137.0004  154.7889 H   0  0  0  0  0  0  0  0  0  0  0  0
  149.9952  138.4220  153.0583 H   0  0  0  0  0  0  0  0  0  0  0  0
  151.1777  140.9454  156.1603 H   0  0  0  0  0  0  0  0  0  0  0  0
  151.1695  140.9478  158.5684 H   0  0  0  0  0  0  0  0  0  0  0  0
  153.9827  142.9794  159.2810 H   0  0  0  0  0  0  0  0  0  0  0  0
  151.3988  142.3189  160.7784 H   0  0  0  0  0  0  0  0  0  0  0  0
  153.0012  142.3573  161.4732 H   0  0  0  0  0  0  0  0  0  0  0  0
  151.7529  144.4670  161.9352 H   0  0  0  0  0  0  0  0  0  0  0  0
  153.2042  144.7728  161.0117 H   0  0  0  0  0  0  0  0  0  0  0  0
  150.3606  144.6072  159.9002 H   0  0  0  0  0  0  0  0  0  0  0  0
  151.3260  146.0562  160.0465 H   0  0  0  0  0  0  0  0  0  0  0  0
  151.3447  145.1669  157.7062 H   0  0  0  0  0  0  0  0  0  0  0  0
  152.9513  145.2072  158.3911 H   0  0  0  0  0  0  0  0  0  0  0  0
  152.5920  143.0595  157.2300 H   0  0  0  0  0  0  0  0  0  0  0  0
  151.1458  142.7543  158.1619 H   0  0  0  0  0  0  0  0  0  0  0  0
  1  2  1  0  0  0  0
  1 18  1  0  0  0  0
  1 19  1  0  0  0  0
  1 20  1  0  0  0  0
  2  3  1  0  0  0  0
  2  9  1  0  0  0  0
  2 21  1  0  0  0  0
  3  4  1  0  0  0  0
  3 22  1  0  0  0  0
  3 23  1  0  0  0  0
  4  8  1  0  0  0  0
  4  5  1  0  0  0  0
  5  6  2  0  0  0  0
  5 24  1  0  0  0  0
  6  7  1  0  0  0  0
  6 25  1  0  0  0  0
  7  8  2  0  0  0  0
  8 26  1  0  0  0  0
  9 10  1  0  0  0  0
  9 27  1  0  0  0  0
 10 11  2  0  0  0  0
 10 12  1  0  0  0  0
 12 17  1  0  0  0  0
 12 13  1  0  0  0  0
 12 28  1  0  0  0  0
 13 14  1  0  0  0  0
 13 29  1  0  0  0  0
 13 30  1  0  0  0  0
 14 15  1  0  0  0  0
 14 31  1  0  0  0  0
 14 32  1  0  0  0  0
 15 16  1  0  0  0  0
 15 33  1  0  0  0  0
 15 34  1  0  0  0  0
 16 17  1  0  0  0  0
 16 35  1  0  0  0  0
 16 36  1  0  0  0  0
 17 37  1  0  0  0  0
 17 38  1  0  0  0  0
M  END
> <s_m_source_file>
AV-unprocessed.smi

> <i_m_source_file_index>
551

> <i_lp_mmshare_version>
43012

> <i_f3d_flags>
0

> <s_epik_input>
W2NIXTFuW2NIXVtjSF1uMVtDSDJdW0NAQEhdKFtDSDNdKVtOSF1DKD1PKVtDSF0yW0NIMl1bQ0gyXVtDSDJdW0NIMl1bQ0gyXTI=

> <s_epik_cmdline>
J2VwaWtfcHl0aG9uJywgJy1waCcsICc3LjAnLCAnLXRuJywgJzgnLCAnLW1hJywgJzIwMCcsICctbWV0YWxfYmluZGluZycsICctaW1hZScsICc8aW5maWxlLm1hZT4nLCAnLW9tYWUnLCAnPG91dGZpbGUubWFlPic=

> <r_lp_tautomer_probability>
1

> <r_epik_Ionization_Penalty>
0.642614

> <r_epik_Ionization_Penalty_Charging>
0.642614

> <r_epik_Ionization_Penalty_Neutral>
3.29891e-08

> <r_epik_State_Penalty>
0.660429

> <r_epik_Charging_Adjusted_Penalty>
1.30304

> <i_epik_Tot_Q>
0

> <i_epik_Tot_abs_Q>
0

> <r_epik_Metal_State_Penalty>
0.31224

> <b_epik_Metal_Only>
0

> <s_lp_Force_Field>
OPLS_2005

> <r_lp_Energy>
12.8339

> <b_lp_Chiralities_Consistent>
1

> <s_lp_Variant>
AV-unprocessed.smi:551-3

> <Gold.Version>
5.8.1

> <Gold.Id.Protein>
6NUR|6NUR_protein|mol2

> <Gold.PLP.Fitness>
47.8350

> <Gold.PLP.PLP>
-41.0361

> <Gold.PLP.part.hbond>
-2.0000

> <Gold.PLP.part.metal>
0.0000

> <Gold.PLP.part.buried>
-4.1379

> <Gold.PLP.part.nonpolar>
-33.9204

> <Gold.PLP.part.repulsive>
0.2300

> <Gold.PLP.ligand.clash>
0.0000

> <Gold.PLP.ligand.torsion>
0.9301

> <Gold.PLP.Chemscore.Hbond>
1.3110

> <Gold.PLP.Chemscore.CHOScore>
1.5565

> <Gold.PLP.Chemscore.Metal>
0.0000

> <Gold.Chemscore.Hbonds>
donor molecule, donor type, donor heavy atom, donor atom, acceptor molecule, acceptor atom, score
      P1  H  7989  7998       L1     7  0.65
      P1  H  7997  8008       L1    11  0.68
      L1  C     6    25       P1  7948  0.69
      L1  C     6    25       P1  7957  0.83

> <Gold.PLP.Chemscore.Internal.Correction>
0.0567

> <Gold.Rescore>
     Score         DG    S(hbond)    S(metal)    S(lipo)     H(rot)  DE(clash)    DE(int)     intcor
     14.10     -15.69       0.74        0.00     103.97       1.73       0.56       1.03       ----

> <Gold.Chemscore.Fitness>
14.1004

> <Gold.Chemscore.DG>
-15.6946

> <Gold.Chemscore.ZeroCoef>
-5.4800

> <Gold.Chemscore.Hbond>
0.7435

> <Gold.Chemscore.Metal>
0.0000

> <Gold.Chemscore.Lipo>
103.9739

> <Gold.Chemscore.Internal_Hbond>
0.0000

> <Gold.Chemscore.DEClash>
0.5630

> <Gold.Chemscore.DEInternal>
1.0313

> <Gold.Chemscore.Rot>
1.7319

> <Gold.Chemscore.Internal.Correction>
   9.000000E+99

> <Gold.Chemscore.Hbonds>
donor molecule, donor type, donor heavy atom, donor atom, acceptor molecule, acceptor atom, score
      P1  H  7989  7998       L1     7  0.02
      P1  H  7997  8008       L1    11  0.44

> <Gold.Chemscore.Hbond.Weighted>
-2.4834

> <Gold.Chemscore.Metal.Weighted>
-0.0000

> <Gold.Chemscore.Lipo.Weighted>
-12.1649

> <Gold.Chemscore.Internal_Hbond.Weighted>
0.0000

> <Gold.Chemscore.DEClash.Weighted>
0.5630

> <Gold.Chemscore.DEInternal.Weighted>
1.0313

> <Gold.Chemscore.Rot.Weighted>
4.4338

> <Gold.Chemscore.Internal.Correction.Weighted>
   9.000000E+99

> <Gold.Protein.RotatedTorsions>
[ 6907 6896 6895 6894 ] final   51.84 input  -60.11 | X-H torsion
[ 7974 7965 7964 7962 ] final  108.96 input  175.53 | X-H torsion
[ 8008 7997 7996 7995 ] final -111.17 input   59.86 | X-H torsion
[ 10167 10162 10161 10158 ] final -147.97 input  -65.29 | X-H torsion
[ 10718 10713 10712 10709 ] final  -34.07 input   66.30 | X-H torsion
[ 10763 10752 10751 10750 ] final  110.72 input  -60.55 | X-H torsion
[ 11005 11000 10999 10996 ] final  -66.29 input  -57.11 | X-H torsion

> <Gold.Protein.ActiveResidues>
 VAL166  LYS551  ARG553  GLY616  TRP617  ASP618  TYR619  PRO620  LYS621  CYS622 
 ASP623  PHE694  ASN695  SER759  ASP760  ASP761  ALA762  ILE779  LEU786  VAL792 
 PHE793  MET794  SER795  GLU796  ALA797  LYS798  CYS799  TRP800  GLU811  SER814 

> <Gold.Protein.RotatedAtoms>
  152.3169  134.7428  160.0322 H   0  0  0  0  0  0  0  0  0  0  0  0  # atno 6907 bound_to 6896
  151.7890  133.3352  159.3501 H   0  0  0  0  0  0  0  0  0  0  0  0  # atno 6908 bound_to 6896
  150.7349  134.5791  159.5974 H   0  0  0  0  0  0  0  0  0  0  0  0  # atno 6909 bound_to 6896
  145.2739  139.2657  143.3951 H   0  0  0  0  0  0  0  0  0  0  0  0  # atno 7974 bound_to 7965
  154.9858  140.0395  157.2298 H   0  0  0  0  0  0  0  0  0  0  0  0  # atno 8008 bound_to 7997
  154.7673  140.2795  155.6143 H   0  0  0  0  0  0  0  0  0  0  0  0  # atno 8009 bound_to 7997
  156.2915  140.2617  156.2467 H   0  0  0  0  0  0  0  0  0  0  0  0  # atno 8010 bound_to 7997
  139.7574  143.8428  152.2600 H   0  0  0  0  0  0  0  0  0  0  0  0  # atno 10167 bound_to 10162
  156.3550  130.4314  149.7672 H   0  0  0  0  0  0  0  0  0  0  0  0  # atno 10718 bound_to 10713
  153.4530  135.3739  155.2294 H   0  0  0  0  0  0  0  0  0  0  0  0  # atno 10763 bound_to 10752
  154.8756  135.3890  154.4016 H   0  0  0  0  0  0  0  0  0  0  0  0  # atno 10764 bound_to 10752
  153.4578  135.7086  153.6133 H   0  0  0  0  0  0  0  0  0  0  0  0  # atno 10765 bound_to 10752
  141.1478  133.6697  156.6117 H   0  0  0  0  0  0  0  0  0  0  0  0  # atno 11005 bound_to 11000
  146.3238  140.3189  142.8632 LP  0  0  0  0  0  0  0  0  0  0  0  0  # atno 17320 bound_to 7965
  144.9311  140.7976  143.5688 LP  0  0  0  0  0  0  0  0  0  0  0  0  # atno 17321 bound_to 7965
  139.8424  144.7204  150.9315 LP  0  0  0  0  0  0  0  0  0  0  0  0  # atno 17342 bound_to 10162
  140.7804  143.3972  151.1210 LP  0  0  0  0  0  0  0  0  0  0  0  0  # atno 17343 bound_to 10162
  156.4857  130.8062  151.3074 LP  0  0  0  0  0  0  0  0  0  0  0  0  # atno 17370 bound_to 10713
  157.7466  130.9991  150.2878 LP  0  0  0  0  0  0  0  0  0  0  0  0  # atno 17371 bound_to 10713
  140.3609  134.7688  157.4533 LP  0  0  0  0  0  0  0  0  0  0  0  0  # atno 17394 bound_to 11000
  140.0785  134.5763  155.8565 LP  0  0  0  0  0  0  0  0  0  0  0  0  # atno 17395 bound_to 11000

$$$$
