AV-unprocessed.smi:867|AV-procd|sdf|3995|dock4
  -GOLD-   22720 1473D 1   1.00000     0.00000
 Structure written by MMmdl.
 53 56  0  0  0  0  0  0  0  0  2 V2000
  151.0791  137.1905  159.4821 O   0  0  0  0  0  0  0  0  0  0  0  0
  150.7092  137.7329  158.4402 C   0  0  0  0  0  0  0  0  0  0  0  0
  149.5517  137.4139  157.8366 N   0  0  0  0  0  0  0  0  0  0  0  0
  148.5898  136.4339  158.3268 C   0  0  0  0  0  0  0  0  0  0  0  0
  147.6287  137.0531  159.3537 C   0  0  0  0  0  0  0  0  0  0  0  0
  147.3370  136.1073  160.5017 C   0  0  0  0  0  0  0  0  0  0  0  0
  147.5704  136.4965  161.8365 C   0  0  0  0  0  0  0  0  0  0  0  0
  147.2880  135.5815  162.8690 C   0  0  0  0  0  0  0  0  0  0  0  0
  146.7837  134.3123  162.5213 C   0  0  0  0  0  0  0  0  0  0  0  0
  146.5581  133.9281  161.2464 N   0  0  0  0  0  0  0  0  0  0  0  0
  146.8311  134.8119  160.2623 C   0  0  0  0  0  0  0  0  0  0  0  0
  151.4640  138.6373  157.7684 N   0  0  0  0  0  0  0  0  0  0  0  0
  151.0768  139.3391  156.5388 C   0  0  0  0  0  0  0  0  0  0  0  0
  150.7228  140.8023  156.8712 C   0  0  0  0  0  0  0  0  0  0  0  0
  151.8250  141.4991  157.5983 N   0  3  0  0  0  0  0  0  0  0  0  0
  151.5203  142.9107  157.9884 C   0  0  1  0  0  0  0  0  0  0  0  0
  150.4889  142.9763  159.1466 C   0  0  0  0  0  0  0  0  0  0  0  0
  151.1856  143.8439  160.2077 C   0  0  2  0  0  0  0  0  0  0  0  0
  151.2641  145.2974  159.7135 C   0  0  0  0  0  0  0  0  0  0  0  0
  152.3298  145.2141  158.6074 C   0  0  0  0  0  0  0  0  0  0  0  0
  152.7035  143.7178  158.5956 C   0  0  1  0  0  0  0  0  0  0  0  0
  152.6296  143.3778  160.0798 C   0  0  0  0  0  0  0  0  0  0  0  0
  152.3151  140.7011  158.7610 C   0  0  0  0  0  0  0  0  0  0  0  0
  152.6500  139.2547  158.3628 C   0  0  0  0  0  0  0  0  0  0  0  0
  149.3273  137.8748  156.9671 H   0  0  0  0  0  0  0  0  0  0  0  0
  148.0276  136.0567  157.4720 H   0  0  0  0  0  0  0  0  0  0  0  0
  149.1114  135.5771  158.7571 H   0  0  0  0  0  0  0  0  0  0  0  0
  148.0470  137.9767  159.7563 H   0  0  0  0  0  0  0  0  0  0  0  0
  146.6893  137.3254  158.8705 H   0  0  0  0  0  0  0  0  0  0  0  0
  147.9604  137.4772  162.0666 H   0  0  0  0  0  0  0  0  0  0  0  0
  147.4551  135.8452  163.9027 H   0  0  0  0  0  0  0  0  0  0  0  0
  146.5568  133.5863  163.2879 H   0  0  0  0  0  0  0  0  0  0  0  0
  146.6429  134.4734  159.2540 H   0  0  0  0  0  0  0  0  0  0  0  0
  151.9127  139.3100  155.8381 H   0  0  0  0  0  0  0  0  0  0  0  0
  150.2417  138.8766  156.0126 H   0  0  0  0  0  0  0  0  0  0  0  0
  150.5095  141.2994  155.9273 H   0  0  0  0  0  0  0  0  0  0  0  0
  149.8126  140.8391  157.4720 H   0  0  0  0  0  0  0  0  0  0  0  0
  151.1427  143.4285  157.1049 H   0  0  0  0  0  0  0  0  0  0  0  0
  149.5337  143.3956  158.8284 H   0  0  0  0  0  0  0  0  0  0  0  0
  150.2909  141.9919  159.5730 H   0  0  0  0  0  0  0  0  0  0  0  0
  150.7559  143.7440  161.2049 H   0  0  0  0  0  0  0  0  0  0  0  0
  150.3047  145.6610  159.3437 H   0  0  0  0  0  0  0  0  0  0  0  0
  151.5910  145.9642  160.5124 H   0  0  0  0  0  0  0  0  0  0  0  0
  151.9578  145.5604  157.6424 H   0  0  0  0  0  0  0  0  0  0  0  0
  153.1948  145.8261  158.8668 H   0  0  0  0  0  0  0  0  0  0  0  0
  153.6783  143.5666  158.1379 H   0  0  0  0  0  0  0  0  0  0  0  0
  153.3253  143.9543  160.6922 H   0  0  0  0  0  0  0  0  0  0  0  0
  152.7643  142.3150  160.2884 H   0  0  0  0  0  0  0  0  0  0  0  0
  153.2023  141.1580  159.1982 H   0  0  0  0  0  0  0  0  0  0  0  0
  151.5523  140.6960  159.5415 H   0  0  0  0  0  0  0  0  0  0  0  0
  153.0195  138.7028  159.2287 H   0  0  0  0  0  0  0  0  0  0  0  0
  153.4652  139.2438  157.6377 H   0  0  0  0  0  0  0  0  0  0  0  0
  152.5934  141.5462  156.9445 H   0  0  0  0  0  0  0  0  0  0  0  0
  1  2  2  0  0  0  0
  2  3  1  0  0  0  0
  2 12  1  0  0  0  0
  3  4  1  0  0  0  0
  3 25  1  0  0  0  0
  4  5  1  0  0  0  0
  4 26  1  0  0  0  0
  4 27  1  0  0  0  0
  5  6  1  0  0  0  0
  5 28  1  0  0  0  0
  5 29  1  0  0  0  0
  6 11  1  0  0  0  0
  6  7  2  0  0  0  0
  7  8  1  0  0  0  0
  7 30  1  0  0  0  0
  8  9  2  0  0  0  0
  8 31  1  0  0  0  0
  9 10  1  0  0  0  0
  9 32  1  0  0  0  0
 10 11  2  0  0  0  0
 11 33  1  0  0  0  0
 12 24  1  0  0  0  0
 12 13  1  0  0  0  0
 13 14  1  0  0  0  0
 13 34  1  0  0  0  0
 13 35  1  0  0  0  0
 14 15  1  0  0  0  0
 14 36  1  0  0  0  0
 14 37  1  0  0  0  0
 15 16  1  0  0  0  0
 15 23  1  0  0  0  0
 15 53  1  0  0  0  0
 16 21  1  0  0  0  0
 16 17  1  0  0  0  0
 16 38  1  0  0  0  0
 17 18  1  0  0  0  0
 17 39  1  0  0  0  0
 17 40  1  0  0  0  0
 18 22  1  0  0  0  0
 18 19  1  0  0  0  0
 18 41  1  0  0  0  0
 19 20  1  0  0  0  0
 19 42  1  0  0  0  0
 19 43  1  0  0  0  0
 20 21  1  0  0  0  0
 20 44  1  0  0  0  0
 20 45  1  0  0  0  0
 21 22  1  0  0  0  0
 21 46  1  0  0  0  0
 22 47  1  0  0  0  0
 22 48  1  0  0  0  0
 23 24  1  0  0  0  0
 23 49  1  0  0  0  0
 23 50  1  0  0  0  0
 24 51  1  0  0  0  0
 24 52  1  0  0  0  0
M  CHG  1  15   1
M  END
> <s_m_source_file>
AV-unprocessed.smi

> <i_m_source_file_index>
867

> <i_lp_mmshare_version>
43012

> <i_f3d_flags>
0

> <s_epik_input>
W0NIMl0xW0NIMl1bQ0BASF0oW0NIMl0yKVtDQEBIXShbQ0gyXVtDQEhdMTIpTihbQ0gyXVtDSDJdMylbQ0gyXVtDSDJdTjNDKD1PKVtOSF1bQ0gyXVtDSDJdYzRbY0hdW2NIXVtjSF1uW2NIXTQ=

> <s_epik_cmdline>
J2VwaWtfcHl0aG9uJywgJy1waCcsICc3LjAnLCAnLXRuJywgJzgnLCAnLW1hJywgJzIwMCcsICctbWV0YWxfYmluZGluZycsICctaW1hZScsICc8aW5maWxlLm1hZT4nLCAnLW9tYWUnLCAnPG91dGZpbGUubWFlPic=

> <r_epik_Ionization_Penalty>
0.0161279

> <r_epik_Ionization_Penalty_Charging>
0.00262064

> <r_epik_Ionization_Penalty_Neutral>
0.0135072

> <r_epik_State_Penalty>
0.0104914

> <r_epik_Charging_Adjusted_Penalty>
0.013112

> <i_epik_Tot_Q>
1

> <i_epik_Tot_abs_Q>
1

> <r_epik_Metal_State_Penalty>
0.0102536

> <b_epik_Metal_Only>
0

> <s_lp_Force_Field>
OPLS_2005

> <r_lp_Energy>
96.0256

> <b_lp_Chiralities_Consistent>
1

> <s_lp_Variant>
AV-unprocessed.smi:867-2

> <Gold.Version>
5.8.1

> <Gold.Id.Protein>
6NUR|6NUR_protein|mol2

> <Gold.PLP.Fitness>
50.8908

> <Gold.PLP.PLP>
-48.8607

> <Gold.PLP.part.hbond>
-0.9723

> <Gold.PLP.part.metal>
0.0000

> <Gold.PLP.part.buried>
-5.1691

> <Gold.PLP.part.nonpolar>
-42.7397

> <Gold.PLP.part.repulsive>
0.1652

> <Gold.PLP.ligand.clash>
0.0000

> <Gold.PLP.ligand.torsion>
0.5560

> <Gold.PLP.Chemscore.Hbond>
0.9913

> <Gold.PLP.Chemscore.CHOScore>
0.0000

> <Gold.PLP.Chemscore.Metal>
0.0000

> <Gold.Chemscore.Hbonds>
donor molecule, donor type, donor heavy atom, donor atom, acceptor molecule, acceptor atom, score
      P1  H  6896  6908       L1     1  0.81

> <Gold.PLP.Chemscore.Internal.Correction>
0.1684

> <Gold.Rescore>
     Score         DG    S(hbond)    S(metal)    S(lipo)     H(rot)  DE(clash)    DE(int)     intcor
     21.20     -22.87       0.99        0.00     150.50       1.37       0.08       1.59       ----

> <Gold.Chemscore.Fitness>
21.1990

> <Gold.Chemscore.DG>
-22.8717

> <Gold.Chemscore.ZeroCoef>
-5.4800

> <Gold.Chemscore.Hbond>
0.9877

> <Gold.Chemscore.Metal>
0.0000

> <Gold.Chemscore.Lipo>
150.4955

> <Gold.Chemscore.Internal_Hbond>
0.0000

> <Gold.Chemscore.DEClash>
0.0809

> <Gold.Chemscore.DEInternal>
1.5918

> <Gold.Chemscore.Rot>
1.3731

> <Gold.Chemscore.Internal.Correction>
   9.000000E+99

> <Gold.Chemscore.Hbonds>
donor molecule, donor type, donor heavy atom, donor atom, acceptor molecule, acceptor atom, score
      P1  H  6896  6908       L1     1  0.80

> <Gold.Chemscore.Hbond.Weighted>
-3.2988

> <Gold.Chemscore.Metal.Weighted>
-0.0000

> <Gold.Chemscore.Lipo.Weighted>
-17.6080

> <Gold.Chemscore.Internal_Hbond.Weighted>
0.0000

> <Gold.Chemscore.DEClash.Weighted>
0.0809

> <Gold.Chemscore.DEInternal.Weighted>
1.5918

> <Gold.Chemscore.Rot.Weighted>
3.5152

> <Gold.Chemscore.Internal.Correction.Weighted>
   9.000000E+99

> <Gold.Protein.RotatedTorsions>
[ 6907 6896 6895 6894 ] final -127.92 input  -60.11 | X-H torsion
[ 7974 7965 7964 7962 ] final   45.69 input  175.53 | X-H torsion
[ 8008 7997 7996 7995 ] final  -79.75 input   59.86 | X-H torsion
[ 10167 10162 10161 10158 ] final  -84.42 input  -65.29 | X-H torsion
[ 10718 10713 10712 10709 ] final  -73.08 input   66.30 | X-H torsion
[ 10763 10752 10751 10750 ] final  105.63 input  -60.55 | X-H torsion
[ 11005 11000 10999 10996 ] final   -6.51 input  -57.11 | X-H torsion

> <Gold.Protein.ActiveResidues>
 VAL166  LYS551  ARG553  GLY616  TRP617  ASP618  TYR619  PRO620  LYS621  CYS622 
 ASP623  PHE694  ASN695  SER759  ASP760  ASP761  ALA762  ILE779  LEU786  VAL792 
 PHE793  MET794  SER795  GLU796  ALA797  LYS798  CYS799  TRP800  GLU811  SER814 

> <Gold.Protein.RotatedAtoms>
  150.9124  133.6981  159.2851 H   0  0  0  0  0  0  0  0  0  0  0  0  # atno 6907 bound_to 6896
  151.4464  135.1024  159.9694 H   0  0  0  0  0  0  0  0  0  0  0  0  # atno 6908 bound_to 6896
  152.4936  133.8520  159.7261 H   0  0  0  0  0  0  0  0  0  0  0  0  # atno 6909 bound_to 6896
  146.0457  139.4936  142.9750 H   0  0  0  0  0  0  0  0  0  0  0  0  # atno 7974 bound_to 7965
  154.5815  140.0673  156.9111 H   0  0  0  0  0  0  0  0  0  0  0  0  # atno 8008 bound_to 7997
  155.2454  140.3348  155.4269 H   0  0  0  0  0  0  0  0  0  0  0  0  # atno 8009 bound_to 7997
  156.2193  140.1792  156.7500 H   0  0  0  0  0  0  0  0  0  0  0  0  # atno 8010 bound_to 7997
  140.4134  143.2613  151.8987 H   0  0  0  0  0  0  0  0  0  0  0  0  # atno 10167 bound_to 10162
  156.0294  130.4386  150.2688 H   0  0  0  0  0  0  0  0  0  0  0  0  # atno 10718 bound_to 10713
  153.3819  135.3904  155.1863 H   0  0  0  0  0  0  0  0  0  0  0  0  # atno 10763 bound_to 10752
  154.8708  135.3727  154.4846 H   0  0  0  0  0  0  0  0  0  0  0  0  # atno 10764 bound_to 10752
  153.5324  135.7085  153.5738 H   0  0  0  0  0  0  0  0  0  0  0  0  # atno 10765 bound_to 10752
  140.7027  133.8975  155.8695 H   0  0  0  0  0  0  0  0  0  0  0  0  # atno 11005 bound_to 11000
  145.6810  141.0191  143.1607 LP  0  0  0  0  0  0  0  0  0  0  0  0  # atno 17320 bound_to 7965
  144.7097  139.8421  143.7419 LP  0  0  0  0  0  0  0  0  0  0  0  0  # atno 17321 bound_to 7965
  139.4782  144.5513  151.8381 LP  0  0  0  0  0  0  0  0  0  0  0  0  # atno 17342 bound_to 10162
  140.4613  144.1718  150.5906 LP  0  0  0  0  0  0  0  0  0  0  0  0  # atno 17343 bound_to 10162
  157.0791  131.0138  151.3163 LP  0  0  0  0  0  0  0  0  0  0  0  0  # atno 17370 bound_to 10713
  157.4941  130.7840  149.7537 LP  0  0  0  0  0  0  0  0  0  0  0  0  # atno 17371 bound_to 10713
  141.0150  134.0968  157.4181 LP  0  0  0  0  0  0  0  0  0  0  0  0  # atno 17394 bound_to 11000
  139.8892  135.0103  156.6667 LP  0  0  0  0  0  0  0  0  0  0  0  0  # atno 17395 bound_to 11000

$$$$
