AV-unprocessed.smi:1703|AV-procd|sdf|6858|dock1
  -GOLD-   22720 8 43D 1   1.00000     0.00000
 Structure written by MMmdl.
 48 50  0  0  0  0  0  0  0  0  1 V2000
  156.5350  140.1876  163.8818 C   0  0  0  0  0  0  0  0  0  0  0  0
  155.4965  139.1415  163.4637 C   0  0  1  0  0  0  0  0  0  0  0  0
  155.4163  138.9840  161.9345 C   0  0  0  0  0  0  0  0  0  0  0  0
  154.4882  137.9313  161.5408 N   0  0  0  0  0  0  0  0  0  0  0  0
  154.4019  137.8335  160.0831 C   0  0  0  0  0  0  0  0  0  0  0  0
  154.0178  139.1387  159.3513 C   0  0  1  0  0  0  0  0  0  0  0  0
  154.2820  138.9713  157.9738 O   0  0  0  0  0  0  0  0  0  0  0  0
  152.5276  139.5111  159.4936 C   0  0  0  0  0  0  0  0  0  0  0  0
  152.1504  140.6760  158.7036 N   0  0  0  0  0  0  0  0  0  0  0  0
  151.7296  140.7132  157.4139 C   0  0  0  0  0  0  0  0  0  0  0  0
  151.5780  139.4750  156.5843 C   0  0  0  0  0  0  0  0  0  0  0  0
  152.5746  139.3602  155.5913 O   0  0  0  0  0  0  0  0  0  0  0  0
  151.4469  141.9233  156.9301 N   0  0  0  0  0  0  0  0  0  0  0  0
  151.6985  142.7484  158.0088 C   0  0  0  0  0  0  0  0  0  0  0  0
  151.5860  144.1512  158.1375 C   0  0  0  0  0  0  0  0  0  0  0  0
  151.9034  144.7842  159.3572 C   0  0  0  0  0  0  0  0  0  0  0  0
  152.3368  144.0253  160.4635 C   0  0  0  0  0  0  0  0  0  0  0  0
  152.4547  142.6261  160.3570 C   0  0  0  0  0  0  0  0  0  0  0  0
  152.1375  141.9988  159.1368 C   0  0  0  0  0  0  0  0  0  0  0  0
  154.9064  136.6770  162.1653 C   0  0  0  0  0  0  0  0  0  0  0  0
  155.0330  136.7877  163.6982 C   0  0  2  0  0  0  0  0  0  0  0  0
  153.6746  136.8446  164.4180 C   0  0  0  0  0  0  0  0  0  0  0  0
  155.8651  137.8942  164.0493 O   0  0  0  0  0  0  0  0  0  0  0  0
  156.2953  141.1669  163.4669 H   0  0  0  0  0  0  0  0  0  0  0  0
  157.5325  139.9123  163.5380 H   0  0  0  0  0  0  0  0  0  0  0  0
  156.5722  140.2867  164.9670 H   0  0  0  0  0  0  0  0  0  0  0  0
  154.5246  139.4498  163.8499 H   0  0  0  0  0  0  0  0  0  0  0  0
  155.1052  139.9325  161.4948 H   0  0  0  0  0  0  0  0  0  0  0  0
  156.4092  138.7676  161.5362 H   0  0  0  0  0  0  0  0  0  0  0  0
  155.3618  137.4987  159.6865 H   0  0  0  0  0  0  0  0  0  0  0  0
  153.6892  137.0476  159.8322 H   0  0  0  0  0  0  0  0  0  0  0  0
  154.6189  139.9716  159.7107 H   0  0  0  0  0  0  0  0  0  0  0  0
  153.9952  139.7496  157.5201 H   0  0  0  0  0  0  0  0  0  0  0  0
  151.8971  138.6707  159.2018 H   0  0  0  0  0  0  0  0  0  0  0  0
  152.2895  139.7136  160.5386 H   0  0  0  0  0  0  0  0  0  0  0  0
  151.6300  138.5993  157.2320 H   0  0  0  0  0  0  0  0  0  0  0  0
  150.5952  139.4573  156.1151 H   0  0  0  0  0  0  0  0  0  0  0  0
  152.7640  138.4437  155.4611 H   0  0  0  0  0  0  0  0  0  0  0  0
  151.2544  144.7413  157.2960 H   0  0  0  0  0  0  0  0  0  0  0  0
  151.8137  145.8571  159.4443 H   0  0  0  0  0  0  0  0  0  0  0  0
  152.5785  144.5177  161.3939 H   0  0  0  0  0  0  0  0  0  0  0  0
  152.7881  142.0430  161.2025 H   0  0  0  0  0  0  0  0  0  0  0  0
  154.2074  135.8758  161.9306 H   0  0  0  0  0  0  0  0  0  0  0  0
  155.8705  136.3734  161.7542 H   0  0  0  0  0  0  0  0  0  0  0  0
  155.5450  135.8944  164.0567 H   0  0  0  0  0  0  0  0  0  0  0  0
  153.1027  135.9343  164.2370 H   0  0  0  0  0  0  0  0  0  0  0  0
  153.0658  137.6832  164.0801 H   0  0  0  0  0  0  0  0  0  0  0  0
  153.8089  136.9412  165.4955 H   0  0  0  0  0  0  0  0  0  0  0  0
  1  2  1  0  0  0  0
  1 24  1  0  0  0  0
  1 25  1  0  0  0  0
  1 26  1  0  0  0  0
  2 23  1  0  0  0  0
  2  3  1  0  0  0  0
  2 27  1  0  0  0  0
  3  4  1  0  0  0  0
  3 28  1  0  0  0  0
  3 29  1  0  0  0  0
  4  5  1  0  0  0  0
  4 20  1  0  0  0  0
  5  6  1  0  0  0  0
  5 30  1  0  0  0  0
  5 31  1  0  0  0  0
  6  7  1  0  0  0  0
  6  8  1  0  0  0  0
  6 32  1  0  0  0  0
  7 33  1  0  0  0  0
  8  9  1  0  0  0  0
  8 34  1  0  0  0  0
  8 35  1  0  0  0  0
  9 19  1  0  0  0  0
  9 10  1  0  0  0  0
 10 11  1  0  0  0  0
 10 13  2  0  0  0  0
 11 12  1  0  0  0  0
 11 36  1  0  0  0  0
 11 37  1  0  0  0  0
 12 38  1  0  0  0  0
 13 14  1  0  0  0  0
 14 19  2  0  0  0  0
 14 15  1  0  0  0  0
 15 16  2  0  0  0  0
 15 39  1  0  0  0  0
 16 17  1  0  0  0  0
 16 40  1  0  0  0  0
 17 18  2  0  0  0  0
 17 41  1  0  0  0  0
 18 19  1  0  0  0  0
 18 42  1  0  0  0  0
 20 21  1  0  0  0  0
 20 43  1  0  0  0  0
 20 44  1  0  0  0  0
 21 22  1  0  0  0  0
 21 23  1  0  0  0  0
 21 45  1  0  0  0  0
 22 46  1  0  0  0  0
 22 47  1  0  0  0  0
 22 48  1  0  0  0  0
M  END
> <s_m_source_file>
AV-unprocessed.smi

> <i_m_source_file_index>
1703

> <i_lp_mmshare_version>
43012

> <i_f3d_flags>
0

> <s_epik_input>
W0NIM11bQ0BASF0xW0NIMl1OKFtDSDJdW0NASF0oTzEpW0NIM10pW0NIMl1bQ0BIXShbT0hdKVtDSDJdbihjKG4yKVtDSDJdW09IXSljKGMyMylbY0hdW2NIXVtjSF1bY0hdMw==

> <s_epik_cmdline>
J2VwaWtfcHl0aG9uJywgJy1waCcsICc3LjAnLCAnLXRuJywgJzgnLCAnLW1hJywgJzIwMCcsICctbWV0YWxfYmluZGluZycsICctaW1hZScsICc8aW5maWxlLm1hZT4nLCAnLW9tYWUnLCAnPG91dGZpbGUubWFlPic=

> <r_epik_Ionization_Penalty>
0.307685

> <r_epik_Ionization_Penalty_Charging>
0

> <r_epik_Ionization_Penalty_Neutral>
0.307685

> <r_epik_State_Penalty>
0.277856

> <r_epik_Charging_Adjusted_Penalty>
0.277856

> <i_epik_Tot_Q>
0

> <i_epik_Tot_abs_Q>
0

> <r_epik_Metal_State_Penalty>
0.238959

> <b_epik_Metal_Only>
0

> <s_lp_Force_Field>
OPLS_2005

> <r_lp_Energy>
33.4596

> <b_lp_Chiralities_Consistent>
1

> <s_lp_Variant>
AV-unprocessed.smi:1703-6

> <Gold.Version>
5.8.1

> <Gold.Id.Protein>
6NUR|6NUR_protein|mol2

> <Gold.PLP.Fitness>
45.2709

> <Gold.PLP.PLP>
-43.3808

> <Gold.PLP.part.hbond>
-1.3746

> <Gold.PLP.part.metal>
0.0000

> <Gold.PLP.part.buried>
-4.6338

> <Gold.PLP.part.nonpolar>
-37.3365

> <Gold.PLP.part.repulsive>
0.0800

> <Gold.PLP.ligand.clash>
0.0000

> <Gold.PLP.ligand.torsion>
0.6172

> <Gold.PLP.Chemscore.Hbond>
1.0000

> <Gold.PLP.Chemscore.CHOScore>
0.0000

> <Gold.PLP.Chemscore.Metal>
0.0000

> <Gold.Chemscore.Hbonds>
donor molecule, donor type, donor heavy atom, donor atom, acceptor molecule, acceptor atom, score
      P1  H  7997  8009       L1    12  1.00

> <Gold.PLP.Chemscore.Internal.Correction>
0.1245

> <Gold.Rescore>
     Score         DG    S(hbond)    S(metal)    S(lipo)     H(rot)  DE(clash)    DE(int)     intcor
     15.30     -16.15       0.95        0.00     127.21       2.88       0.01       0.84       ----

> <Gold.Chemscore.Fitness>
15.3046

> <Gold.Chemscore.DG>
-16.1538

> <Gold.Chemscore.ZeroCoef>
-5.4800

> <Gold.Chemscore.Hbond>
0.9454

> <Gold.Chemscore.Metal>
0.0000

> <Gold.Chemscore.Lipo>
127.2078

> <Gold.Chemscore.Internal_Hbond>
0.0000

> <Gold.Chemscore.DEClash>
0.0089

> <Gold.Chemscore.DEInternal>
0.8403

> <Gold.Chemscore.Rot>
2.8778

> <Gold.Chemscore.Internal.Correction>
   9.000000E+99

> <Gold.Chemscore.Hbonds>
donor molecule, donor type, donor heavy atom, donor atom, acceptor molecule, acceptor atom, score
      P1  H  7997  8009       L1    12  0.36

> <Gold.Chemscore.Hbond.Weighted>
-3.1575

> <Gold.Chemscore.Metal.Weighted>
-0.0000

> <Gold.Chemscore.Lipo.Weighted>
-14.8833

> <Gold.Chemscore.Internal_Hbond.Weighted>
0.0000

> <Gold.Chemscore.DEClash.Weighted>
0.0089

> <Gold.Chemscore.DEInternal.Weighted>
0.8403

> <Gold.Chemscore.Rot.Weighted>
7.3671

> <Gold.Chemscore.Internal.Correction.Weighted>
   9.000000E+99

> <Gold.Protein.RotatedTorsions>
[ 6907 6896 6895 6894 ] final  -99.81 input  -60.11 | X-H torsion
[ 7974 7965 7964 7962 ] final    4.70 input  175.53 | X-H torsion
[ 8008 7997 7996 7995 ] final -153.02 input   59.86 | X-H torsion
[ 10167 10162 10161 10158 ] final  -84.11 input  -65.29 | X-H torsion
[ 10718 10713 10712 10709 ] final  -40.43 input   66.30 | X-H torsion
[ 10763 10752 10751 10750 ] final -109.93 input  -60.55 | X-H torsion
[ 11005 11000 10999 10996 ] final -178.47 input  -57.11 | X-H torsion

> <Gold.Protein.ActiveResidues>
 VAL166  LYS551  ARG553  GLY616  TRP617  ASP618  TYR619  PRO620  LYS621  CYS622 
 ASP623  PHE694  ASN695  SER759  ASP760  ASP761  ALA762  ILE779  LEU786  VAL792 
 PHE793  MET794  SER795  GLU796  ALA797  LYS798  CYS799  TRP800  GLU811  SER814 

> <Gold.Protein.RotatedAtoms>
  150.7093  134.0983  159.3956 H   0  0  0  0  0  0  0  0  0  0  0  0  # atno 6907 bound_to 6896
  151.8969  135.0391  160.0512 H   0  0  0  0  0  0  0  0  0  0  0  0  # atno 6908 bound_to 6896
  152.2446  133.5128  159.5326 H   0  0  0  0  0  0  0  0  0  0  0  0  # atno 6909 bound_to 6896
  146.2443  140.0496  142.8376 H   0  0  0  0  0  0  0  0  0  0  0  0  # atno 7974 bound_to 7965
  155.6643  140.0726  157.2543 H   0  0  0  0  0  0  0  0  0  0  0  0  # atno 8008 bound_to 7997
  154.4136  140.1710  156.1861 H   0  0  0  0  0  0  0  0  0  0  0  0  # atno 8009 bound_to 7997
  155.9670  140.3365  155.6545 H   0  0  0  0  0  0  0  0  0  0  0  0  # atno 8010 bound_to 7997
  140.4163  143.2602  151.8950 H   0  0  0  0  0  0  0  0  0  0  0  0  # atno 10167 bound_to 10162
  156.2814  130.4217  149.8332 H   0  0  0  0  0  0  0  0  0  0  0  0  # atno 10718 bound_to 10713
  154.8220  135.4583  154.0808 H   0  0  0  0  0  0  0  0  0  0  0  0  # atno 10763 bound_to 10752
  153.2153  135.6887  153.8071 H   0  0  0  0  0  0  0  0  0  0  0  0  # atno 10764 bound_to 10752
  153.7508  135.3298  155.3297 H   0  0  0  0  0  0  0  0  0  0  0  0  # atno 10765 bound_to 10752
  140.4294  134.6533  157.4704 H   0  0  0  0  0  0  0  0  0  0  0  0  # atno 11005 bound_to 11000
  145.0996  140.9337  143.4720 LP  0  0  0  0  0  0  0  0  0  0  0  0  # atno 17320 bound_to 7965
  145.0686  139.3049  143.5844 LP  0  0  0  0  0  0  0  0  0  0  0  0  # atno 17321 bound_to 7965
  139.4782  144.5484  151.8423 LP  0  0  0  0  0  0  0  0  0  0  0  0  # atno 17342 bound_to 10162
  140.4582  144.1759  150.5903 LP  0  0  0  0  0  0  0  0  0  0  0  0  # atno 17343 bound_to 10162
  156.5778  130.8453  151.3374 LP  0  0  0  0  0  0  0  0  0  0  0  0  # atno 17370 bound_to 10713
  157.7315  130.9702  150.1885 LP  0  0  0  0  0  0  0  0  0  0  0  0  # atno 17371 bound_to 10713
  140.0145  134.6641  155.9331 LP  0  0  0  0  0  0  0  0  0  0  0  0  # atno 17394 bound_to 11000
  141.1752  133.6540  156.4800 LP  0  0  0  0  0  0  0  0  0  0  0  0  # atno 17395 bound_to 11000

$$$$
