AV-unprocessed.smi:931|AV-procd|sdf|4198|dock1
  -GOLD-   22720 2103D 1   1.00000     0.00000
 Structure written by MMmdl.
 36 37  0  0  0  0  0  0  0  0  1 V2000
  151.3965  145.5752  159.7289 C   0  0  0  0  0  0  0  0  0  0  0  0
  151.9161  144.3057  159.0392 C   0  0  0  0  0  0  0  0  0  0  0  0
  150.8480  143.6006  158.1905 C   0  0  0  0  0  0  0  0  0  0  0  0
  152.5772  143.3717  160.0037 C   0  0  0  0  0  0  0  0  0  0  0  0
  153.1303  142.2073  159.6496 N   0  0  0  0  0  0  0  0  0  0  0  0
  153.6790  141.5171  160.7347 C   0  0  0  0  0  0  0  0  0  0  0  0
  154.3530  140.1964  160.5195 C   0  0  0  0  0  0  0  0  0  0  0  0
  153.4392  139.0155  160.8879 C   0  0  0  0  0  0  0  0  0  0  0  0
  153.9331  138.2899  162.0525 N   0  0  0  0  0  0  0  0  0  0  0  0
  153.6432  137.0117  162.3429 C   0  0  0  0  0  0  0  0  0  0  0  0
  152.9464  136.2895  161.6303 O   0  0  0  0  0  0  0  0  0  0  0  0
  154.2574  136.5720  163.4529 N   0  0  0  0  0  0  0  0  0  0  0  0
  154.5683  137.2601  164.7026 C   0  0  0  0  0  0  0  0  0  0  0  0
  154.9113  135.8839  165.2679 C   0  0  0  0  0  0  0  0  0  0  0  0
  154.1894  135.2566  164.0778 C   0  0  0  0  0  0  0  0  0  0  0  0
  153.5345  142.1812  161.9270 C   0  0  0  0  0  0  0  0  0  0  0  0
  152.7007  143.6977  161.7293 S   0  0  0  0  0  0  0  0  0  0  0  0
  152.2001  146.0931  160.2529 H   0  0  0  0  0  0  0  0  0  0  0  0
  150.6191  145.3417  160.4570 H   0  0  0  0  0  0  0  0  0  0  0  0
  150.9739  146.2709  159.0036 H   0  0  0  0  0  0  0  0  0  0  0  0
  152.6931  144.6298  158.3459 H   0  0  0  0  0  0  0  0  0  0  0  0
  151.2740  142.7576  157.6459 H   0  0  0  0  0  0  0  0  0  0  0  0
  150.4158  144.2824  157.4576 H   0  0  0  0  0  0  0  0  0  0  0  0
  150.0353  143.2210  158.8108 H   0  0  0  0  0  0  0  0  0  0  0  0
  154.6654  140.1097  159.4783 H   0  0  0  0  0  0  0  0  0  0  0  0
  155.2689  140.1465  161.1099 H   0  0  0  0  0  0  0  0  0  0  0  0
  152.4366  139.3782  161.1161 H   0  0  0  0  0  0  0  0  0  0  0  0
  153.3378  138.3340  160.0416 H   0  0  0  0  0  0  0  0  0  0  0  0
  154.5369  138.7949  162.6847 H   0  0  0  0  0  0  0  0  0  0  0  0
  155.4206  137.9386  164.6521 H   0  0  0  0  0  0  0  0  0  0  0  0
  153.7023  137.7248  165.1768 H   0  0  0  0  0  0  0  0  0  0  0  0
  155.9834  135.6802  165.2684 H   0  0  0  0  0  0  0  0  0  0  0  0
  154.4573  135.6675  166.2355 H   0  0  0  0  0  0  0  0  0  0  0  0
  153.1736  134.9285  164.3044 H   0  0  0  0  0  0  0  0  0  0  0  0
  154.7654  134.4812  163.5715 H   0  0  0  0  0  0  0  0  0  0  0  0
  153.8706  141.8723  162.9058 H   0  0  0  0  0  0  0  0  0  0  0  0
  1  2  1  0  0  0  0
  1 18  1  0  0  0  0
  1 19  1  0  0  0  0
  1 20  1  0  0  0  0
  2  3  1  0  0  0  0
  2  4  1  0  0  0  0
  2 21  1  0  0  0  0
  3 22  1  0  0  0  0
  3 23  1  0  0  0  0
  3 24  1  0  0  0  0
  4 17  1  0  0  0  0
  4  5  2  0  0  0  0
  5  6  1  0  0  0  0
  6  7  1  0  0  0  0
  6 16  2  0  0  0  0
  7  8  1  0  0  0  0
  7 25  1  0  0  0  0
  7 26  1  0  0  0  0
  8  9  1  0  0  0  0
  8 27  1  0  0  0  0
  8 28  1  0  0  0  0
  9 10  1  0  0  0  0
  9 29  1  0  0  0  0
 10 11  2  0  0  0  0
 10 12  1  0  0  0  0
 12 15  1  0  0  0  0
 12 13  1  0  0  0  0
 13 14  1  0  0  0  0
 13 30  1  0  0  0  0
 13 31  1  0  0  0  0
 14 15  1  0  0  0  0
 14 32  1  0  0  0  0
 14 33  1  0  0  0  0
 15 34  1  0  0  0  0
 15 35  1  0  0  0  0
 16 17  1  0  0  0  0
 16 36  1  0  0  0  0
M  END
> <s_m_source_file>
AV-unprocessed.smi

> <i_m_source_file_index>
931

> <i_lp_mmshare_version>
43012

> <i_f3d_flags>
0

> <s_epik_input>
W0NIM11bQ0hdKFtDSDNdKWMxbmMoW2NIXXMxKVtDSDJdW0NIMl1bTkhdQyg9TylOMltDSDJdW0NIMl1bQ0gyXTI=

> <s_epik_cmdline>
J2VwaWtfcHl0aG9uJywgJy1waCcsICc3LjAnLCAnLXRuJywgJzgnLCAnLW1hJywgJzIwMCcsICctbWV0YWxfYmluZGluZycsICctaW1hZScsICc8aW5maWxlLm1hZT4nLCAnLW9tYWUnLCAnPG91dGZpbGUubWFlPic=

> <r_epik_Ionization_Penalty>
0.00159927

> <r_epik_Ionization_Penalty_Charging>
0

> <r_epik_Ionization_Penalty_Neutral>
0.00159927

> <r_epik_State_Penalty>
0.00102964

> <r_epik_Charging_Adjusted_Penalty>
0.00102964

> <i_epik_Tot_Q>
0

> <i_epik_Tot_abs_Q>
0

> <r_epik_Metal_State_Penalty>
-0

> <b_epik_Metal_Only>
0

> <s_lp_Force_Field>
OPLS_2005

> <r_lp_Energy>
8.94744

> <b_lp_Chiralities_Consistent>
1

> <s_lp_Variant>
AV-unprocessed.smi:931-1

> <Gold.Version>
5.8.1

> <Gold.Id.Protein>
6NUR|6NUR_protein|mol2

> <Gold.PLP.Fitness>
49.0622

> <Gold.PLP.PLP>
-47.8294

> <Gold.PLP.part.hbond>
-0.9807

> <Gold.PLP.part.metal>
0.0000

> <Gold.PLP.part.buried>
-5.0066

> <Gold.PLP.part.nonpolar>
-42.0878

> <Gold.PLP.part.repulsive>
0.0040

> <Gold.PLP.ligand.clash>
0.0000

> <Gold.PLP.ligand.torsion>
1.1031

> <Gold.PLP.Chemscore.Hbond>
1.0000

> <Gold.PLP.Chemscore.CHOScore>
0.0000

> <Gold.PLP.Chemscore.Metal>
0.0000

> <Gold.Chemscore.Hbonds>
donor molecule, donor type, donor heavy atom, donor atom, acceptor molecule, acceptor atom, score
      P1  H  6896  6908       L1    11  0.46

> <Gold.PLP.Chemscore.Internal.Correction>
0.4389

> <Gold.Rescore>
     Score         DG    S(hbond)    S(metal)    S(lipo)     H(rot)  DE(clash)    DE(int)     intcor
     18.37     -19.64       0.98        0.00     125.42       1.48       0.10       1.17       ----

> <Gold.Chemscore.Fitness>
18.3669

> <Gold.Chemscore.DG>
-19.6354

> <Gold.Chemscore.ZeroCoef>
-5.4800

> <Gold.Chemscore.Hbond>
0.9827

> <Gold.Chemscore.Metal>
0.0000

> <Gold.Chemscore.Lipo>
125.4186

> <Gold.Chemscore.Internal_Hbond>
0.0000

> <Gold.Chemscore.DEClash>
0.0971

> <Gold.Chemscore.DEInternal>
1.1714

> <Gold.Chemscore.Rot>
1.4847

> <Gold.Chemscore.Internal.Correction>
   9.000000E+99

> <Gold.Chemscore.Hbonds>
donor molecule, donor type, donor heavy atom, donor atom, acceptor molecule, acceptor atom, score
      P1  H  6896  6908       L1    11  0.44

> <Gold.Chemscore.Hbond.Weighted>
-3.2823

> <Gold.Chemscore.Metal.Weighted>
-0.0000

> <Gold.Chemscore.Lipo.Weighted>
-14.6740

> <Gold.Chemscore.Internal_Hbond.Weighted>
0.0000

> <Gold.Chemscore.DEClash.Weighted>
0.0971

> <Gold.Chemscore.DEInternal.Weighted>
1.1714

> <Gold.Chemscore.Rot.Weighted>
3.8009

> <Gold.Chemscore.Internal.Correction.Weighted>
   9.000000E+99

> <Gold.Protein.RotatedTorsions>
[ 6907 6896 6895 6894 ] final  -77.04 input  -60.11 | X-H torsion
[ 7974 7965 7964 7962 ] final  -30.65 input  175.53 | X-H torsion
[ 8008 7997 7996 7995 ] final -147.83 input   59.86 | X-H torsion
[ 10167 10162 10161 10158 ] final  116.33 input  -65.29 | X-H torsion
[ 10718 10713 10712 10709 ] final  104.32 input   66.30 | X-H torsion
[ 10763 10752 10751 10750 ] final  173.99 input  -60.55 | X-H torsion
[ 11005 11000 10999 10996 ] final  -92.20 input  -57.11 | X-H torsion

> <Gold.Protein.ActiveResidues>
 VAL166  LYS551  ARG553  GLY616  TRP617  ASP618  TYR619  PRO620  LYS621  CYS622 
 ASP623  PHE694  ASN695  SER759  ASP760  ASP761  ALA762  ILE779  LEU786  VAL792 
 PHE793  MET794  SER795  GLU796  ALA797  LYS798  CYS799  TRP800  GLU811  SER814 

> <Gold.Protein.RotatedAtoms>
  150.7010  134.4481  159.5323 H   0  0  0  0  0  0  0  0  0  0  0  0  # atno 6907 bound_to 6896
  152.2179  134.8438  160.0498 H   0  0  0  0  0  0  0  0  0  0  0  0  # atno 6908 bound_to 6896
  151.9299  133.3573  159.3964 H   0  0  0  0  0  0  0  0  0  0  0  0  # atno 6909 bound_to 6896
  146.1127  140.5568  142.8771 H   0  0  0  0  0  0  0  0  0  0  0  0  # atno 7974 bound_to 7965
  155.5819  140.0644  157.2781 H   0  0  0  0  0  0  0  0  0  0  0  0  # atno 8008 bound_to 7997
  154.4330  140.1850  156.1031 H   0  0  0  0  0  0  0  0  0  0  0  0  # atno 8009 bound_to 7997
  156.0299  140.3307  155.7132 H   0  0  0  0  0  0  0  0  0  0  0  0  # atno 8010 bound_to 7997
  139.6255  144.7107  151.2543 H   0  0  0  0  0  0  0  0  0  0  0  0  # atno 10167 bound_to 10162
  157.6744  131.0801  150.5689 H   0  0  0  0  0  0  0  0  0  0  0  0  # atno 10718 bound_to 10713
  154.4477  135.2764  155.1803 H   0  0  0  0  0  0  0  0  0  0  0  0  # atno 10763 bound_to 10752
  154.3644  135.6122  153.5710 H   0  0  0  0  0  0  0  0  0  0  0  0  # atno 10764 bound_to 10752
  152.9845  135.5842  154.4815 H   0  0  0  0  0  0  0  0  0  0  0  0  # atno 10765 bound_to 10752
  141.1527  133.7805  156.9986 H   0  0  0  0  0  0  0  0  0  0  0  0  # atno 11005 bound_to 11000
  144.7525  140.5227  143.6792 LP  0  0  0  0  0  0  0  0  0  0  0  0  # atno 17320 bound_to 7965
  145.5631  139.1480  143.3330 LP  0  0  0  0  0  0  0  0  0  0  0  0  # atno 17321 bound_to 7965
  140.7408  143.6577  150.8192 LP  0  0  0  0  0  0  0  0  0  0  0  0  # atno 17342 bound_to 10162
  140.0194  143.5559  152.2807 LP  0  0  0  0  0  0  0  0  0  0  0  0  # atno 17343 bound_to 10162
  156.5991  130.4349  149.5905 LP  0  0  0  0  0  0  0  0  0  0  0  0  # atno 17370 bound_to 10713
  156.2521  130.6913  151.1654 LP  0  0  0  0  0  0  0  0  0  0  0  0  # atno 17371 bound_to 10713
  140.0955  134.9567  157.1842 LP  0  0  0  0  0  0  0  0  0  0  0  0  # atno 17394 bound_to 11000
  140.3389  134.2726  155.7215 LP  0  0  0  0  0  0  0  0  0  0  0  0  # atno 17395 bound_to 11000

$$$$
