AV-unprocessed.smi:699|AV-procd|sdf|3399|dock3
  -GOLD-   22720 0383D 1   1.00000     0.00000
 Structure written by MMmdl.
 34 35  0  0  0  0  0  0  0  0  1 V2000
  150.3044  137.7973  153.7296 N   0  0  0  0  0  0  0  0  0  0  0  0
  150.5214  138.9150  154.4272 C   0  0  0  0  0  0  0  0  0  0  0  0
  151.6556  139.3068  154.6965 O   0  0  0  0  0  0  0  0  0  0  0  0
  149.2851  139.7018  154.8900 C   0  0  2  0  0  0  0  0  0  0  0  0
  147.9661  139.0795  154.4004 C   0  0  0  0  0  0  0  0  0  0  0  0
  147.0041  140.2572  154.2772 C   0  0  0  0  0  0  0  0  0  0  0  0
  147.8776  141.3987  153.7633 C   0  0  0  0  0  0  0  0  0  0  0  0
  149.2716  141.1655  154.3705 C   0  0  1  0  0  0  0  0  0  0  0  0
  149.5350  142.1249  155.4418 N   0  0  0  0  0  0  0  0  0  0  0  0
  150.4016  141.9431  156.4486 C   0  0  0  0  0  0  0  0  0  0  0  0
  151.0804  140.9253  156.5826 O   0  0  0  0  0  0  0  0  0  0  0  0
  150.4043  142.9982  157.2820 N   0  0  0  0  0  0  0  0  0  0  0  0
  151.1712  143.1992  158.4620 C   0  0  0  0  0  0  0  0  0  0  0  0
  151.1097  144.4679  159.0751 C   0  0  0  0  0  0  0  0  0  0  0  0
  151.8709  144.6986  160.2384 C   0  0  0  0  0  0  0  0  0  0  0  0
  152.6699  143.7666  160.7985 N   0  0  0  0  0  0  0  0  0  0  0  0
  152.7397  142.5575  160.2024 C   0  0  0  0  0  0  0  0  0  0  0  0
  152.0200  142.2230  159.0378 C   0  0  0  0  0  0  0  0  0  0  0  0
  151.0882  137.2426  153.4173 H   0  0  0  0  0  0  0  0  0  0  0  0
  149.3601  137.5029  153.5276 H   0  0  0  0  0  0  0  0  0  0  0  0
  149.2557  139.7074  155.9818 H   0  0  0  0  0  0  0  0  0  0  0  0
  148.0860  138.6088  153.4229 H   0  0  0  0  0  0  0  0  0  0  0  0
  147.5898  138.3193  155.0858 H   0  0  0  0  0  0  0  0  0  0  0  0
  146.1610  140.0446  153.6194 H   0  0  0  0  0  0  0  0  0  0  0  0
  146.6057  140.5122  155.2601 H   0  0  0  0  0  0  0  0  0  0  0  0
  147.9451  141.3318  152.6764 H   0  0  0  0  0  0  0  0  0  0  0  0
  147.4588  142.3784  153.9979 H   0  0  0  0  0  0  0  0  0  0  0  0
  150.0123  141.3234  153.5831 H   0  0  0  0  0  0  0  0  0  0  0  0
  149.0155  142.9899  155.4121 H   0  0  0  0  0  0  0  0  0  0  0  0
  149.7351  143.7251  157.0757 H   0  0  0  0  0  0  0  0  0  0  0  0
  150.4878  145.2522  158.6686 H   0  0  0  0  0  0  0  0  0  0  0  0
  151.8376  145.6590  160.7313 H   0  0  0  0  0  0  0  0  0  0  0  0
  153.3951  141.8342  160.6645 H   0  0  0  0  0  0  0  0  0  0  0  0
  152.1442  141.2400  158.6108 H   0  0  0  0  0  0  0  0  0  0  0  0
  1  2  1  0  0  0  0
  1 19  1  0  0  0  0
  1 20  1  0  0  0  0
  2  3  2  0  0  0  0
  2  4  1  0  0  0  0
  4  8  1  0  0  0  0
  4  5  1  0  0  0  0
  4 21  1  0  0  0  0
  5  6  1  0  0  0  0
  5 22  1  0  0  0  0
  5 23  1  0  0  0  0
  6  7  1  0  0  0  0
  6 24  1  0  0  0  0
  6 25  1  0  0  0  0
  7  8  1  0  0  0  0
  7 26  1  0  0  0  0
  7 27  1  0  0  0  0
  8  9  1  0  0  0  0
  8 28  1  0  0  0  0
  9 10  1  0  0  0  0
  9 29  1  0  0  0  0
 10 11  2  0  0  0  0
 10 12  1  0  0  0  0
 12 13  1  0  0  0  0
 12 30  1  0  0  0  0
 13 18  1  0  0  0  0
 13 14  2  0  0  0  0
 14 15  1  0  0  0  0
 14 31  1  0  0  0  0
 15 16  2  0  0  0  0
 15 32  1  0  0  0  0
 16 17  1  0  0  0  0
 17 18  2  0  0  0  0
 17 33  1  0  0  0  0
 18 34  1  0  0  0  0
M  END
> <s_m_source_file>
AV-unprocessed.smi

> <i_m_source_file_index>
699

> <i_lp_mmshare_version>
43012

> <i_f3d_flags>
0

> <s_epik_input>
W05IMl1DKD1PKVtDQEBIXTFbQ0gyXVtDSDJdW0NIMl1bQ0BIXTFbTkhdQyg9TylbTkhdYzJbY0hdW2NIXW5bY0hdW2NIXTI=

> <s_epik_cmdline>
J2VwaWtfcHl0aG9uJywgJy1waCcsICc3LjAnLCAnLXRuJywgJzgnLCAnLW1hJywgJzIwMCcsICctbWV0YWxfYmluZGluZycsICctaW1hZScsICc8aW5maWxlLm1hZT4nLCAnLW9tYWUnLCAnPG91dGZpbGUubWFlPic=

> <r_epik_Ionization_Penalty>
0.113907

> <r_epik_Ionization_Penalty_Charging>
0

> <r_epik_Ionization_Penalty_Neutral>
0.113907

> <r_epik_State_Penalty>
0.103543

> <r_epik_Charging_Adjusted_Penalty>
0.103543

> <i_epik_Tot_Q>
0

> <i_epik_Tot_abs_Q>
0

> <r_epik_Metal_State_Penalty>
0.0867106

> <b_epik_Metal_Only>
0

> <s_lp_Force_Field>
OPLS_2005

> <r_lp_Energy>
19.5976

> <b_lp_Chiralities_Consistent>
1

> <s_lp_Variant>
AV-unprocessed.smi:699-1

> <Gold.Version>
5.8.1

> <Gold.Id.Protein>
6NUR|6NUR_protein|mol2

> <Gold.PLP.Fitness>
46.8877

> <Gold.PLP.PLP>
-37.5408

> <Gold.PLP.part.hbond>
-5.0000

> <Gold.PLP.part.metal>
0.0000

> <Gold.PLP.part.buried>
-4.0827

> <Gold.PLP.part.nonpolar>
-29.0606

> <Gold.PLP.part.repulsive>
0.4246

> <Gold.PLP.ligand.clash>
0.0068

> <Gold.PLP.ligand.torsion>
0.3475

> <Gold.PLP.Chemscore.Hbond>
3.3485

> <Gold.PLP.Chemscore.CHOScore>
0.0000

> <Gold.PLP.Chemscore.Metal>
0.0000

> <Gold.Chemscore.Hbonds>
donor molecule, donor type, donor heavy atom, donor atom, acceptor molecule, acceptor atom, score
      L1  H     1    19       P1  7949  0.17
      L1  H     1    20       P1  7948  0.31
      L1  H     9    29       P1  8028  1.00
      L1  H    12    30       P1  8028  0.91
      P1  H  7989  7998       L1     3  0.85

> <Gold.PLP.Chemscore.Internal.Correction>
0.0034

> <Gold.Rescore>
     Score         DG    S(hbond)    S(metal)    S(lipo)     H(rot)  DE(clash)    DE(int)     intcor
     13.43     -19.66       2.43        0.00      84.48       1.49       0.25       5.98       ----

> <Gold.Chemscore.Fitness>
13.4326

> <Gold.Chemscore.DG>
-19.6630

> <Gold.Chemscore.ZeroCoef>
-5.4800

> <Gold.Chemscore.Hbond>
2.4285

> <Gold.Chemscore.Metal>
0.0000

> <Gold.Chemscore.Lipo>
84.4786

> <Gold.Chemscore.Internal_Hbond>
0.0000

> <Gold.Chemscore.DEClash>
0.2538

> <Gold.Chemscore.DEInternal>
5.9767

> <Gold.Chemscore.Rot>
1.4892

> <Gold.Chemscore.Internal.Correction>
   9.000000E+99

> <Gold.Chemscore.Hbonds>
donor molecule, donor type, donor heavy atom, donor atom, acceptor molecule, acceptor atom, score
      L1  H     1    19       P1  7949  0.07
      L1  H     1    20       P1  7948  0.29
      L1  H     9    29       P1  8028  0.96
      L1  H    12    30       P1  8028  0.81
      P1  H  7989  7998       L1     3  0.14

> <Gold.Chemscore.Hbond.Weighted>
-8.1113

> <Gold.Chemscore.Metal.Weighted>
-0.0000

> <Gold.Chemscore.Lipo.Weighted>
-9.8840

> <Gold.Chemscore.Internal_Hbond.Weighted>
0.0000

> <Gold.Chemscore.DEClash.Weighted>
0.2538

> <Gold.Chemscore.DEInternal.Weighted>
5.9767

> <Gold.Chemscore.Rot.Weighted>
3.8123

> <Gold.Chemscore.Internal.Correction.Weighted>
   9.000000E+99

> <Gold.Protein.RotatedTorsions>
[ 6907 6896 6895 6894 ] final  109.11 input  -60.11 | X-H torsion
[ 7974 7965 7964 7962 ] final   89.55 input  175.53 | X-H torsion
[ 8008 7997 7996 7995 ] final  -51.85 input   59.86 | X-H torsion
[ 10167 10162 10161 10158 ] final  155.40 input  -65.29 | X-H torsion
[ 10718 10713 10712 10709 ] final   98.32 input   66.30 | X-H torsion
[ 10763 10752 10751 10750 ] final  125.75 input  -60.55 | X-H torsion
[ 11005 11000 10999 10996 ] final   67.84 input  -57.11 | X-H torsion

> <Gold.Protein.ActiveResidues>
 VAL166  LYS551  ARG553  GLY616  TRP617  ASP618  TYR619  PRO620  LYS621  CYS622 
 ASP623  PHE694  ASN695  SER759  ASP760  ASP761  ALA762  ILE779  LEU786  VAL792 
 PHE793  MET794  SER795  GLU796  ALA797  LYS798  CYS799  TRP800  GLU811  SER814 

> <Gold.Protein.RotatedAtoms>
  152.5082  133.8992  159.7432 H   0  0  0  0  0  0  0  0  0  0  0  0  # atno 6907 bound_to 6896
  150.9412  133.6646  159.2797 H   0  0  0  0  0  0  0  0  0  0  0  0  # atno 6908 bound_to 6896
  151.3957  135.0968  159.9593 H   0  0  0  0  0  0  0  0  0  0  0  0  # atno 6909 bound_to 6896
  145.5309  139.2283  143.2619 H   0  0  0  0  0  0  0  0  0  0  0  0  # atno 7974 bound_to 7965
  154.4092  140.1238  156.4895 H   0  0  0  0  0  0  0  0  0  0  0  0  # atno 8008 bound_to 7997
  155.7004  140.3495  155.4911 H   0  0  0  0  0  0  0  0  0  0  0  0  # atno 8009 bound_to 7997
  155.9390  140.1083  157.1061 H   0  0  0  0  0  0  0  0  0  0  0  0  # atno 8010 bound_to 7997
  139.4821  144.5102  151.8037 H   0  0  0  0  0  0  0  0  0  0  0  0  # atno 10167 bound_to 10162
  157.6897  131.0636  150.4779 H   0  0  0  0  0  0  0  0  0  0  0  0  # atno 10718 bound_to 10713
  153.6823  135.3312  155.3181 H   0  0  0  0  0  0  0  0  0  0  0  0  # atno 10763 bound_to 10752
  154.8462  135.4412  154.1593 H   0  0  0  0  0  0  0  0  0  0  0  0  # atno 10764 bound_to 10752
  153.2613  135.6991  153.7653 H   0  0  0  0  0  0  0  0  0  0  0  0  # atno 10765 bound_to 10752
  139.9746  134.6843  156.0378 H   0  0  0  0  0  0  0  0  0  0  0  0  # atno 11005 bound_to 11000
  146.2045  140.6125  142.9087 LP  0  0  0  0  0  0  0  0  0  0  0  0  # atno 17320 bound_to 7965
  144.7626  140.5458  143.6725 LP  0  0  0  0  0  0  0  0  0  0  0  0  # atno 17321 bound_to 7965
  140.4604  144.1730  150.5906 LP  0  0  0  0  0  0  0  0  0  0  0  0  # atno 17342 bound_to 10162
  140.4491  143.2494  151.9372 LP  0  0  0  0  0  0  0  0  0  0  0  0  # atno 17343 bound_to 10162
  156.5112  130.4140  149.6300 LP  0  0  0  0  0  0  0  0  0  0  0  0  # atno 17370 bound_to 10713
  156.3239  130.7295  151.2212 LP  0  0  0  0  0  0  0  0  0  0  0  0  # atno 17371 bound_to 10713
  141.1424  133.6562  156.3769 LP  0  0  0  0  0  0  0  0  0  0  0  0  # atno 17394 bound_to 11000
  140.5220  134.6294  157.5321 LP  0  0  0  0  0  0  0  0  0  0  0  0  # atno 17395 bound_to 11000

$$$$
