AV-unprocessed.smi:2067|AV-procd|sdf|8423|dock10
  -GOLD-   2272011113D 1   1.00000     0.00000
 Structure written by MMmdl.
 47 48  0  0  0  0  0  0  0  0  1 V2000
  146.5534  130.8530  152.4832 C   0  0  0  0  0  0  0  0  0  0  0  0
  145.6350  132.0416  152.1545 C   0  0  2  0  0  0  0  0  0  0  0  0
  144.8530  131.7781  150.8518 C   0  0  0  0  0  0  0  0  0  0  0  0
  143.9284  132.9513  150.4935 C   0  0  0  0  0  0  0  0  0  0  0  0
  144.7177  134.2639  150.3958 C   0  0  0  0  0  0  0  0  0  0  0  0
  145.4887  134.5420  151.6945 C   0  0  0  0  0  0  0  0  0  0  0  0
  146.4233  133.3685  152.0610 C   0  0  1  0  0  0  0  0  0  0  0  0
  147.0299  133.5995  153.3272 O   0  0  0  0  0  0  0  0  0  0  0  0
  148.4446  133.7220  153.2992 C   0  0  0  0  0  0  0  0  0  0  0  0
  148.9056  134.3594  154.6126 C   0  0  0  0  0  0  0  0  0  0  0  0
  149.3396  135.7317  154.4055 N   0  0  0  0  0  0  0  0  0  0  0  0
  150.2157  136.4701  155.1948 C   0  0  0  0  0  0  0  0  0  0  0  0
  150.7672  135.9518  156.3285 C   0  0  0  0  0  0  0  0  0  0  0  0
  150.4804  134.6394  156.8169 C   0  0  0  0  0  0  0  0  0  0  0  0
  150.2527  133.5680  157.1932 N   0  0  0  0  0  0  0  0  0  0  0  0
  151.6720  136.7271  157.1743 C   0  0  0  0  0  0  0  0  0  0  0  0
  152.2020  136.2876  158.1978 O   0  0  0  0  0  0  0  0  0  0  0  0
  151.9053  138.0463  156.7369 N   0  0  0  0  0  0  0  0  0  0  0  0
  152.7874  138.8486  157.5617 C   0  0  0  0  0  0  0  0  0  0  0  0
  151.3420  138.6107  155.5733 C   0  0  0  0  0  0  0  0  0  0  0  0
  151.5777  139.7747  155.2358 O   0  0  0  0  0  0  0  0  0  0  0  0
  150.4909  137.7830  154.8002 N   0  0  0  0  0  0  0  0  0  0  0  0
  149.9604  138.4125  153.6072 C   0  0  0  0  0  0  0  0  0  0  0  0
  147.3164  130.7173  151.7160 H   0  0  0  0  0  0  0  0  0  0  0  0
  145.9844  129.9258  152.5543 H   0  0  0  0  0  0  0  0  0  0  0  0
  147.0625  130.9948  153.4369 H   0  0  0  0  0  0  0  0  0  0  0  0
  144.9109  132.1341  152.9655 H   0  0  0  0  0  0  0  0  0  0  0  0
  145.5513  131.6038  150.0318 H   0  0  0  0  0  0  0  0  0  0  0  0
  144.2616  130.8672  150.9507 H   0  0  0  0  0  0  0  0  0  0  0  0
  143.4216  132.7506  149.5491 H   0  0  0  0  0  0  0  0  0  0  0  0
  143.1478  133.0473  151.2491 H   0  0  0  0  0  0  0  0  0  0  0  0
  145.4165  134.2100  149.5602 H   0  0  0  0  0  0  0  0  0  0  0  0
  144.0403  135.0906  150.1805 H   0  0  0  0  0  0  0  0  0  0  0  0
  146.0552  135.4651  151.5768 H   0  0  0  0  0  0  0  0  0  0  0  0
  144.7822  134.7149  152.5073 H   0  0  0  0  0  0  0  0  0  0  0  0
  147.1928  133.2600  151.2942 H   0  0  0  0  0  0  0  0  0  0  0  0
  148.8988  132.7351  153.2009 H   0  0  0  0  0  0  0  0  0  0  0  0
  148.7770  134.3229  152.4524 H   0  0  0  0  0  0  0  0  0  0  0  0
  148.1046  134.3375  155.3520 H   0  0  0  0  0  0  0  0  0  0  0  0
  149.7321  133.7710  155.0108 H   0  0  0  0  0  0  0  0  0  0  0  0
  149.3302  135.9923  153.4293 H   0  0  0  0  0  0  0  0  0  0  0  0
  152.8741  139.8671  157.1854 H   0  0  0  0  0  0  0  0  0  0  0  0
  153.7655  138.3642  157.5524 H   0  0  0  0  0  0  0  0  0  0  0  0
  152.3632  138.8690  158.5674 H   0  0  0  0  0  0  0  0  0  0  0  0
  149.3191  139.2343  153.9312 H   0  0  0  0  0  0  0  0  0  0  0  0
  149.3873  137.7003  153.0177 H   0  0  0  0  0  0  0  0  0  0  0  0
  150.8057  138.7673  153.0145 H   0  0  0  0  0  0  0  0  0  0  0  0
  1  2  1  0  0  0  0
  1 24  1  0  0  0  0
  1 25  1  0  0  0  0
  1 26  1  0  0  0  0
  2  7  1  0  0  0  0
  2  3  1  0  0  0  0
  2 27  1  0  0  0  0
  3  4  1  0  0  0  0
  3 28  1  0  0  0  0
  3 29  1  0  0  0  0
  4  5  1  0  0  0  0
  4 30  1  0  0  0  0
  4 31  1  0  0  0  0
  5  6  1  0  0  0  0
  5 32  1  0  0  0  0
  5 33  1  0  0  0  0
  6  7  1  0  0  0  0
  6 34  1  0  0  0  0
  6 35  1  0  0  0  0
  7  8  1  0  0  0  0
  7 36  1  0  0  0  0
  8  9  1  0  0  0  0
  9 10  1  0  0  0  0
  9 37  1  0  0  0  0
  9 38  1  0  0  0  0
 10 11  1  0  0  0  0
 10 39  1  0  0  0  0
 10 40  1  0  0  0  0
 11 12  1  0  0  0  0
 11 41  1  0  0  0  0
 12 22  1  0  0  0  0
 12 13  2  0  0  0  0
 13 14  1  0  0  0  0
 13 16  1  0  0  0  0
 14 15  3  0  0  0  0
 16 17  2  0  0  0  0
 16 18  1  0  0  0  0
 18 19  1  0  0  0  0
 18 20  1  0  0  0  0
 19 42  1  0  0  0  0
 19 43  1  0  0  0  0
 19 44  1  0  0  0  0
 20 21  2  0  0  0  0
 20 22  1  0  0  0  0
 22 23  1  0  0  0  0
 23 45  1  0  0  0  0
 23 46  1  0  0  0  0
 23 47  1  0  0  0  0
M  END
> <s_m_source_file>
AV-unprocessed.smi

> <i_m_source_file_index>
2067

> <i_lp_mmshare_version>
43012

> <i_f3d_flags>
0

> <s_epik_input>
W0NIM11bQ0BASF0xW0NIMl1bQ0gyXVtDSDJdW0NIMl1bQ0BIXTFPW0NIMl1bQ0gyXVtOSF1jMmMoQyNOKWMoPU8pbihbQ0gzXSljKD1PKW4yW0NIM10=

> <s_epik_cmdline>
J2VwaWtfcHl0aG9uJywgJy1waCcsICc3LjAnLCAnLXRuJywgJzgnLCAnLW1hJywgJzIwMCcsICctbWV0YWxfYmluZGluZycsICctaW1hZScsICc8aW5maWxlLm1hZT4nLCAnLW9tYWUnLCAnPG91dGZpbGUubWFlPic=

> <r_epik_Ionization_Penalty>
0.00056529

> <r_epik_Ionization_Penalty_Charging>
3.94678e-10

> <r_epik_Ionization_Penalty_Neutral>
0.000565289

> <r_epik_State_Penalty>
0.000354611

> <r_epik_Charging_Adjusted_Penalty>
0.000354611

> <i_epik_Tot_Q>
0

> <i_epik_Tot_abs_Q>
0

> <r_epik_Metal_State_Penalty>
-0

> <b_epik_Metal_Only>
0

> <s_lp_Force_Field>
OPLS_2005

> <r_lp_Energy>
32.0891

> <b_lp_Chiralities_Consistent>
1

> <s_lp_Variant>
AV-unprocessed.smi:2067-1

> <Gold.Version>
5.8.1

> <Gold.Id.Protein>
6NUR|6NUR_protein|mol2

> <Gold.PLP.Fitness>
38.3605

> <Gold.PLP.PLP>
-31.4867

> <Gold.PLP.part.hbond>
-4.0000

> <Gold.PLP.part.metal>
0.0000

> <Gold.PLP.part.buried>
1.4630

> <Gold.PLP.part.nonpolar>
-28.5628

> <Gold.PLP.part.repulsive>
0.1475

> <Gold.PLP.ligand.clash>
8.7922

> <Gold.PLP.ligand.torsion>
1.3142

> <Gold.PLP.Chemscore.Hbond>
3.1671

> <Gold.PLP.Chemscore.CHOScore>
0.0000

> <Gold.PLP.Chemscore.Metal>
0.0000

> <Gold.Chemscore.Hbonds>
donor molecule, donor type, donor heavy atom, donor atom, acceptor molecule, acceptor atom, score
      L1  H    11    41       P1  7948  1.00
      P1  H  6896  6908       L1    15  0.72
      P1  H  6896  6909       L1    17  0.23
      P1  H  7989  7998       L1    21  0.96

> <Gold.PLP.Chemscore.Internal.Correction>
8.7932

> <Gold.Rescore>
     Score         DG    S(hbond)    S(metal)    S(lipo)     H(rot)  DE(clash)    DE(int)     intcor
     13.43     -18.18       2.67        0.00      70.89       1.76       0.93       3.81       ----

> <Gold.Chemscore.Fitness>
13.4321

> <Gold.Chemscore.DG>
-18.1752

> <Gold.Chemscore.ZeroCoef>
-5.4800

> <Gold.Chemscore.Hbond>
2.6653

> <Gold.Chemscore.Metal>
0.0000

> <Gold.Chemscore.Lipo>
70.8929

> <Gold.Chemscore.Internal_Hbond>
0.0000

> <Gold.Chemscore.DEClash>
0.9309

> <Gold.Chemscore.DEInternal>
3.8121

> <Gold.Chemscore.Rot>
1.7583

> <Gold.Chemscore.Internal.Correction>
   9.000000E+99

> <Gold.Chemscore.Hbonds>
donor molecule, donor type, donor heavy atom, donor atom, acceptor molecule, acceptor atom, score
      L1  H    11    41       P1  7948  0.60
      P1  H  6896  6908       L1    15  0.21
      P1  H  6896  6909       L1    17  0.23
      P1  H  7989  7998       L1    21  0.89

> <Gold.Chemscore.Hbond.Weighted>
-8.9019

> <Gold.Chemscore.Metal.Weighted>
-0.0000

> <Gold.Chemscore.Lipo.Weighted>
-8.2945

> <Gold.Chemscore.Internal_Hbond.Weighted>
0.0000

> <Gold.Chemscore.DEClash.Weighted>
0.9309

> <Gold.Chemscore.DEInternal.Weighted>
3.8121

> <Gold.Chemscore.Rot.Weighted>
4.5012

> <Gold.Chemscore.Internal.Correction.Weighted>
   9.000000E+99

> <Gold.Protein.RotatedTorsions>
[ 6907 6896 6895 6894 ] final  113.21 input  -60.11 | X-H torsion
[ 7974 7965 7964 7962 ] final  -70.31 input  175.53 | X-H torsion
[ 8008 7997 7996 7995 ] final  -15.12 input   59.86 | X-H torsion
[ 10167 10162 10161 10158 ] final   78.73 input  -65.29 | X-H torsion
[ 10718 10713 10712 10709 ] final -147.88 input   66.30 | X-H torsion
[ 10763 10752 10751 10750 ] final -172.95 input  -60.55 | X-H torsion
[ 11005 11000 10999 10996 ] final   26.48 input  -57.11 | X-H torsion

> <Gold.Protein.ActiveResidues>
 VAL166  LYS551  ARG553  GLY616  TRP617  ASP618  TYR619  PRO620  LYS621  CYS622 
 ASP623  PHE694  ASN695  SER759  ASP760  ASP761  ALA762  ILE779  LEU786  VAL792 
 PHE793  MET794  SER795  GLU796  ALA797  LYS798  CYS799  TRP800  GLU811  SER814 

> <Gold.Protein.RotatedAtoms>
  152.4873  133.8407  159.7150 H   0  0  0  0  0  0  0  0  0  0  0  0  # atno 6907 bound_to 6896
  150.8971  133.7157  159.2895 H   0  0  0  0  0  0  0  0  0  0  0  0  # atno 6908 bound_to 6896
  151.4610  135.1042  159.9777 H   0  0  0  0  0  0  0  0  0  0  0  0  # atno 6909 bound_to 6896
  145.6926  140.9147  143.0773 H   0  0  0  0  0  0  0  0  0  0  0  0  # atno 7974 bound_to 7965
  154.5155  140.2205  155.9073 H   0  0  0  0  0  0  0  0  0  0  0  0  # atno 8008 bound_to 7997
  156.1603  140.3143  155.8761 H   0  0  0  0  0  0  0  0  0  0  0  0  # atno 8009 bound_to 7997
  155.3765  140.0470  157.3035 H   0  0  0  0  0  0  0  0  0  0  0  0  # atno 8010 bound_to 7997
  139.9678  144.5916  150.8013 H   0  0  0  0  0  0  0  0  0  0  0  0  # atno 10167 bound_to 10162
  156.4132  130.7992  151.2210 H   0  0  0  0  0  0  0  0  0  0  0  0  # atno 10718 bound_to 10713
  154.6134  135.2867  155.0407 H   0  0  0  0  0  0  0  0  0  0  0  0  # atno 10763 bound_to 10752
  154.1628  135.6485  153.4994 H   0  0  0  0  0  0  0  0  0  0  0  0  # atno 10764 bound_to 10752
  153.0204  135.5382  154.6896 H   0  0  0  0  0  0  0  0  0  0  0  0  # atno 10765 bound_to 10752
  140.3366  134.2379  155.7695 H   0  0  0  0  0  0  0  0  0  0  0  0  # atno 11005 bound_to 11000
  144.6992  139.8842  143.7449 LP  0  0  0  0  0  0  0  0  0  0  0  0  # atno 17320 bound_to 7965
  146.0868  139.3857  143.0430 LP  0  0  0  0  0  0  0  0  0  0  0  0  # atno 17321 bound_to 7965
  140.7532  143.3004  151.3095 LP  0  0  0  0  0  0  0  0  0  0  0  0  # atno 17342 bound_to 10162
  139.6504  144.0372  152.2622 LP  0  0  0  0  0  0  0  0  0  0  0  0  # atno 17343 bound_to 10162
  157.7507  131.0251  150.3905 LP  0  0  0  0  0  0  0  0  0  0  0  0  # atno 17370 bound_to 10713
  156.4207  130.3952  149.6827 LP  0  0  0  0  0  0  0  0  0  0  0  0  # atno 17371 bound_to 10713
  141.2049  133.7873  157.0259 LP  0  0  0  0  0  0  0  0  0  0  0  0  # atno 17394 bound_to 11000
  140.0816  134.9645  157.1633 LP  0  0  0  0  0  0  0  0  0  0  0  0  # atno 17395 bound_to 11000

$$$$
