AV-unprocessed.smi:652|AV-procd|sdf|3197|dock2
  -GOLD-   22720 0123D 1   1.00000     0.00000
 Structure written by MMmdl.
 47 48  0  0  0  0  0  0  0  0  1 V2000
  146.8524  134.2736  161.9060 C   0  0  0  0  0  0  0  0  0  0  0  0
  147.9479  135.3508  161.8971 C   0  0  0  0  0  0  0  0  0  0  0  0
  147.8003  136.3228  163.0754 C   0  0  0  0  0  0  0  0  0  0  0  0
  147.9168  136.1008  160.6451 N   0  0  0  0  0  0  0  0  0  0  0  0
  148.1867  135.5995  159.4296 C   0  0  0  0  0  0  0  0  0  0  0  0
  148.4672  134.4175  159.2293 O   0  0  0  0  0  0  0  0  0  0  0  0
  148.1350  136.5852  158.2576 C   0  0  0  0  0  0  0  0  0  0  0  0
  149.4352  137.4013  158.0956 C   0  0  0  0  0  0  0  0  0  0  0  0
  149.4284  138.4052  157.0292 N   0  0  0  0  0  0  0  0  0  0  0  0
  149.6901  137.8294  155.7127 C   0  0  0  0  0  0  0  0  0  0  0  0
  149.6828  138.9009  154.6088 C   0  0  0  0  0  0  0  0  0  0  0  0
  150.6313  139.9180  154.9149 O   0  0  0  0  0  0  0  0  0  0  0  0
  150.3999  140.5306  156.1813 C   0  0  2  0  0  0  0  0  0  0  0  0
  151.4316  141.6484  156.4003 C   0  0  0  0  0  0  0  0  0  0  0  0
  150.8864  142.7698  157.1527 N   0  0  0  0  0  0  0  0  0  0  0  0
  151.3944  143.1037  158.4142 C   0  0  0  0  0  0  0  0  0  0  0  0
  152.0294  144.3379  158.6844 C   0  0  0  0  0  0  0  0  0  0  0  0
  152.4966  144.5562  159.9919 C   0  0  0  0  0  0  0  0  0  0  0  0
  152.2958  143.5280  160.9301 C   0  0  0  0  0  0  0  0  0  0  0  0
  151.6814  142.3658  160.6155 N   0  0  0  0  0  0  0  0  0  0  0  0
  151.2368  142.1588  159.3705 N   0  0  0  0  0  0  0  0  0  0  0  0
  150.4035  139.4572  157.2902 C   0  0  0  0  0  0  0  0  0  0  0  0
  146.8742  133.7021  162.8343 H   0  0  0  0  0  0  0  0  0  0  0  0
  146.9840  133.5681  161.0849 H   0  0  0  0  0  0  0  0  0  0  0  0
  145.8599  134.7149  161.8102 H   0  0  0  0  0  0  0  0  0  0  0  0
  148.9178  134.8596  161.9943 H   0  0  0  0  0  0  0  0  0  0  0  0
  147.8519  135.7943  164.0276 H   0  0  0  0  0  0  0  0  0  0  0  0
  146.8467  136.8508  163.0393 H   0  0  0  0  0  0  0  0  0  0  0  0
  148.5955  137.0693  163.0705 H   0  0  0  0  0  0  0  0  0  0  0  0
  147.6927  137.0831  160.7103 H   0  0  0  0  0  0  0  0  0  0  0  0
  147.9543  136.0148  157.3462 H   0  0  0  0  0  0  0  0  0  0  0  0
  147.2783  137.2516  158.3650 H   0  0  0  0  0  0  0  0  0  0  0  0
  149.6333  137.8989  159.0463 H   0  0  0  0  0  0  0  0  0  0  0  0
  150.2704  136.7157  157.9460 H   0  0  0  0  0  0  0  0  0  0  0  0
  150.6547  137.3198  155.7160 H   0  0  0  0  0  0  0  0  0  0  0  0
  148.9388  137.0778  155.4726 H   0  0  0  0  0  0  0  0  0  0  0  0
  149.9358  138.4556  153.6464 H   0  0  0  0  0  0  0  0  0  0  0  0
  148.6894  139.3402  154.5066 H   0  0  0  0  0  0  0  0  0  0  0  0
  149.4129  140.9960  156.1532 H   0  0  0  0  0  0  0  0  0  0  0  0
  152.2969  141.2490  156.9308 H   0  0  0  0  0  0  0  0  0  0  0  0
  151.7844  142.0058  155.4322 H   0  0  0  0  0  0  0  0  0  0  0  0
  150.0174  143.1822  156.8449 H   0  0  0  0  0  0  0  0  0  0  0  0
  152.1595  145.0995  157.9305 H   0  0  0  0  0  0  0  0  0  0  0  0
  152.9901  145.4769  160.2656 H   0  0  0  0  0  0  0  0  0  0  0  0
  152.6331  143.6377  161.9501 H   0  0  0  0  0  0  0  0  0  0  0  0
  150.1868  139.9300  158.2489 H   0  0  0  0  0  0  0  0  0  0  0  0
  151.3984  139.0182  157.3775 H   0  0  0  0  0  0  0  0  0  0  0  0
  1  2  1  0  0  0  0
  1 23  1  0  0  0  0
  1 24  1  0  0  0  0
  1 25  1  0  0  0  0
  2  3  1  0  0  0  0
  2  4  1  0  0  0  0
  2 26  1  0  0  0  0
  3 27  1  0  0  0  0
  3 28  1  0  0  0  0
  3 29  1  0  0  0  0
  4  5  1  0  0  0  0
  4 30  1  0  0  0  0
  5  6  2  0  0  0  0
  5  7  1  0  0  0  0
  7  8  1  0  0  0  0
  7 31  1  0  0  0  0
  7 32  1  0  0  0  0
  8  9  1  0  0  0  0
  8 33  1  0  0  0  0
  8 34  1  0  0  0  0
  9 22  1  0  0  0  0
  9 10  1  0  0  0  0
 10 11  1  0  0  0  0
 10 35  1  0  0  0  0
 10 36  1  0  0  0  0
 11 12  1  0  0  0  0
 11 37  1  0  0  0  0
 11 38  1  0  0  0  0
 12 13  1  0  0  0  0
 13 14  1  0  0  0  0
 13 22  1  0  0  0  0
 13 39  1  0  0  0  0
 14 15  1  0  0  0  0
 14 40  1  0  0  0  0
 14 41  1  0  0  0  0
 15 16  1  0  0  0  0
 15 42  1  0  0  0  0
 16 21  1  0  0  0  0
 16 17  2  0  0  0  0
 17 18  1  0  0  0  0
 17 43  1  0  0  0  0
 18 19  2  0  0  0  0
 18 44  1  0  0  0  0
 19 20  1  0  0  0  0
 19 45  1  0  0  0  0
 20 21  2  0  0  0  0
 22 46  1  0  0  0  0
 22 47  1  0  0  0  0
M  END
> <s_m_source_file>
AV-unprocessed.smi

> <i_m_source_file_index>
652

> <i_lp_mmshare_version>
43012

> <i_f3d_flags>
0

> <s_epik_input>
W0NIM11bQ0hdKFtDSDNdKVtOSF1DKD1PKVtDSDJdW0NIMl1OMVtDSDJdW0NIMl1PW0NASF0oW0NIMl0xKVtDSDJdW05IXWMyW2NIXVtjSF1bY0hdbm4y

> <s_epik_cmdline>
J2VwaWtfcHl0aG9uJywgJy1waCcsICc3LjAnLCAnLXRuJywgJzgnLCAnLW1hJywgJzIwMCcsICctbWV0YWxfYmluZGluZycsICctaW1hZScsICc8aW5maWxlLm1hZT4nLCAnLW9tYWUnLCAnPG91dGZpbGUubWFlPic=

> <r_lp_tautomer_probability>
0.999978

> <r_epik_Ionization_Penalty>
0.428793

> <r_epik_Ionization_Penalty_Charging>
0

> <r_epik_Ionization_Penalty_Neutral>
0.428793

> <r_epik_State_Penalty>
0.437051

> <r_epik_Charging_Adjusted_Penalty>
0.437051

> <i_epik_Tot_Q>
0

> <i_epik_Tot_abs_Q>
0

> <r_epik_Metal_State_Penalty>
0.432371

> <b_epik_Metal_Only>
0

> <s_lp_Force_Field>
OPLS_2005

> <r_lp_Energy>
25.2897

> <b_lp_Chiralities_Consistent>
1

> <s_lp_Variant>
AV-unprocessed.smi:652-6

> <Gold.Version>
5.8.1

> <Gold.Id.Protein>
6NUR|6NUR_protein|mol2

> <Gold.PLP.Fitness>
47.8890

> <Gold.PLP.PLP>
-42.0906

> <Gold.PLP.part.hbond>
-4.0000

> <Gold.PLP.part.metal>
0.0000

> <Gold.PLP.part.buried>
-7.1439

> <Gold.PLP.part.nonpolar>
-29.7888

> <Gold.PLP.part.repulsive>
0.3605

> <Gold.PLP.ligand.clash>
0.0000

> <Gold.PLP.ligand.torsion>
1.6325

> <Gold.PLP.Chemscore.Hbond>
2.9920

> <Gold.PLP.Chemscore.CHOScore>
0.0000

> <Gold.PLP.Chemscore.Metal>
0.0000

> <Gold.Chemscore.Hbonds>
donor molecule, donor type, donor heavy atom, donor atom, acceptor molecule, acceptor atom, score
      L1  H    15    42       P1  8028  0.47
      P1  H  6896  6909       L1     6  0.65
      P1  H  6933  6945       L1    20  0.03
      P1  H  7989  7998       L1    12  1.00

> <Gold.PLP.Chemscore.Internal.Correction>
0.0874

> <Gold.Rescore>
     Score         DG    S(hbond)    S(metal)    S(lipo)     H(rot)  DE(clash)    DE(int)     intcor
     18.48     -20.97       2.91        0.00      97.43       2.20       1.20       1.29       ----

> <Gold.Chemscore.Fitness>
18.4773

> <Gold.Chemscore.DG>
-20.9688

> <Gold.Chemscore.ZeroCoef>
-5.4800

> <Gold.Chemscore.Hbond>
2.9117

> <Gold.Chemscore.Metal>
0.0000

> <Gold.Chemscore.Lipo>
97.4288

> <Gold.Chemscore.Internal_Hbond>
0.0000

> <Gold.Chemscore.DEClash>
1.2048

> <Gold.Chemscore.DEInternal>
1.2867

> <Gold.Chemscore.Rot>
2.2013

> <Gold.Chemscore.Internal.Correction>
   9.000000E+99

> <Gold.Chemscore.Hbonds>
donor molecule, donor type, donor heavy atom, donor atom, acceptor molecule, acceptor atom, score
      L1  H    15    42       P1  8028  0.46
      P1  H  6896  6909       L1     6  0.22
      P1  H  6933  6945       L1    20  0.03
      P1  H  7989  7998       L1    12  0.95

> <Gold.Chemscore.Hbond.Weighted>
-9.7251

> <Gold.Chemscore.Metal.Weighted>
-0.0000

> <Gold.Chemscore.Lipo.Weighted>
-11.3992

> <Gold.Chemscore.Internal_Hbond.Weighted>
0.0000

> <Gold.Chemscore.DEClash.Weighted>
1.2048

> <Gold.Chemscore.DEInternal.Weighted>
1.2867

> <Gold.Chemscore.Rot.Weighted>
5.6354

> <Gold.Chemscore.Internal.Correction.Weighted>
   9.000000E+99

> <Gold.Protein.RotatedTorsions>
[ 6907 6896 6895 6894 ] final   40.11 input  -60.11 | X-H torsion
[ 7974 7965 7964 7962 ] final   19.18 input  175.53 | X-H torsion
[ 8008 7997 7996 7995 ] final  -76.99 input   59.86 | X-H torsion
[ 10167 10162 10161 10158 ] final  122.00 input  -65.29 | X-H torsion
[ 10718 10713 10712 10709 ] final  -92.73 input   66.30 | X-H torsion
[ 10763 10752 10751 10750 ] final   61.95 input  -60.55 | X-H torsion
[ 11005 11000 10999 10996 ] final  134.25 input  -57.11 | X-H torsion

> <Gold.Protein.ActiveResidues>
 VAL166  LYS551  ARG553  GLY616  TRP617  ASP618  TYR619  PRO620  LYS621  CYS622 
 ASP623  PHE694  ASN695  SER759  ASP760  ASP761  ALA762  ILE779  LEU786  VAL792 
 PHE793  MET794  SER795  GLU796  ALA797  LYS798  CYS799  TRP800  GLU811  SER814 

> <Gold.Protein.RotatedAtoms>
  152.1782  134.8776  160.0528 H   0  0  0  0  0  0  0  0  0  0  0  0  # atno 6907 bound_to 6896
  151.9710  133.3721  159.4079 H   0  0  0  0  0  0  0  0  0  0  0  0  # atno 6908 bound_to 6896
  150.6913  134.4063  159.5185 H   0  0  0  0  0  0  0  0  0  0  0  0  # atno 6909 bound_to 6896
  146.2158  139.8350  142.8652 H   0  0  0  0  0  0  0  0  0  0  0  0  # atno 7974 bound_to 7965
  154.5555  140.0718  156.8736 H   0  0  0  0  0  0  0  0  0  0  0  0  # atno 8008 bound_to 7997
  155.2911  140.3378  155.4234 H   0  0  0  0  0  0  0  0  0  0  0  0  # atno 8009 bound_to 7997
  156.1998  140.1717  156.7909 H   0  0  0  0  0  0  0  0  0  0  0  0  # atno 8010 bound_to 7997
  139.5885  144.7016  151.3348 H   0  0  0  0  0  0  0  0  0  0  0  0  # atno 10167 bound_to 10162
  156.0005  130.4999  150.5669 H   0  0  0  0  0  0  0  0  0  0  0  0  # atno 10718 bound_to 10713
  152.9966  135.5482  154.6115 H   0  0  0  0  0  0  0  0  0  0  0  0  # atno 10763 bound_to 10752
  154.5434  135.2821  155.1077 H   0  0  0  0  0  0  0  0  0  0  0  0  # atno 10764 bound_to 10752
  154.2345  135.6427  153.5239 H   0  0  0  0  0  0  0  0  0  0  0  0  # atno 10765 bound_to 10752
  139.9903  134.9517  156.9840 H   0  0  0  0  0  0  0  0  0  0  0  0  # atno 11005 bound_to 11000
  145.2958  141.0180  143.3637 LP  0  0  0  0  0  0  0  0  0  0  0  0  # atno 17320 bound_to 7965
  144.9043  139.4609  143.6617 LP  0  0  0  0  0  0  0  0  0  0  0  0  # atno 17321 bound_to 7965
  140.7153  143.7284  150.7643 LP  0  0  0  0  0  0  0  0  0  0  0  0  # atno 17342 bound_to 10162
  140.0834  143.4947  152.2518 LP  0  0  0  0  0  0  0  0  0  0  0  0  # atno 17343 bound_to 10162
  157.3570  131.0743  151.1667 LP  0  0  0  0  0  0  0  0  0  0  0  0  # atno 17370 bound_to 10713
  157.2464  130.6593  149.5912 LP  0  0  0  0  0  0  0  0  0  0  0  0  # atno 17371 bound_to 10713
  140.4922  134.1182  155.7235 LP  0  0  0  0  0  0  0  0  0  0  0  0  # atno 17394 bound_to 11000
  141.1560  133.8882  157.1976 LP  0  0  0  0  0  0  0  0  0  0  0  0  # atno 17395 bound_to 11000

$$$$
