AV-unprocessed.smi:221|AV-procd|sdf|1697|dock2
  -GOLD-   2262020143D 1   1.00000     0.00000
 Structure written by MMmdl.
 50 53  0  0  0  0  0  0  0  0  1 V2000
  142.3176  134.1579  154.5593 N   0  0  0  0  0  0  0  0  0  0  0  0
  142.9850  135.2353  154.1327 C   0  0  0  0  0  0  0  0  0  0  0  0
  142.6269  136.3724  154.4308 O   0  0  0  0  0  0  0  0  0  0  0  0
  144.2280  135.0364  153.2428 C   0  0  1  0  0  0  0  0  0  0  0  0
  143.8429  134.3987  151.8977 C   0  0  0  0  0  0  0  0  0  0  0  0
  144.9508  134.8456  150.9503 C   0  0  2  0  0  0  0  0  0  0  0  0
  146.0143  134.0551  151.1040 F   0  0  0  0  0  0  0  0  0  0  0  0
  145.2868  136.2521  151.4441 C   0  0  0  0  0  0  0  0  0  0  0  0
  144.9199  136.2745  152.8565 N   0  0  0  0  0  0  0  0  0  0  0  0
  145.7012  136.9740  153.7239 C   0  0  0  0  0  0  0  0  0  0  0  0
  145.8450  136.5334  155.0021 N   0  0  0  0  0  0  0  0  0  0  0  0
  146.6038  137.2059  155.8719 C   0  0  0  0  0  0  0  0  0  0  0  0
  147.2927  138.3319  155.6810 N   0  0  0  0  0  0  0  0  0  0  0  0
  147.1453  138.7886  154.4051 C   0  0  0  0  0  0  0  0  0  0  0  0
  146.3779  138.1783  153.3720 C   0  0  0  0  0  0  0  0  0  0  0  0
  146.4616  138.9428  152.2130 N   0  0  0  0  0  0  0  0  0  0  0  0
  147.2405  139.9377  152.5386 C   0  0  0  0  0  0  0  0  0  0  0  0
  147.6881  139.9284  153.8398 N   0  0  0  0  0  0  0  0  0  0  0  0
  148.5529  140.9088  154.4725 C   0  0  0  0  0  0  0  0  0  0  0  0
  148.9841  140.4951  155.9035 C   0  0  2  0  0  0  0  0  0  0  0  0
  148.1969  141.2791  156.9793 C   0  0  0  0  0  0  0  0  0  0  0  0
  148.8546  142.4809  157.3229 O   0  0  0  0  0  0  0  0  0  0  0  0
  150.5185  140.5809  156.1317 C   0  0  1  0  0  0  0  0  0  0  0  0
  150.9944  140.3067  157.5585 C   0  0  0  0  0  0  0  0  0  0  0  0
  152.2381  139.4325  157.3779 C   0  0  0  0  0  0  0  0  0  0  0  0
  152.5995  139.5934  156.0147 O   0  0  0  0  0  0  0  0  0  0  0  0
  151.3913  139.6560  155.2769 C   0  0  0  0  0  0  0  0  0  0  0  0
  144.9290  134.3742  153.7542 H   0  0  0  0  0  0  0  0  0  0  0  0
  144.6651  134.8129  149.8987 H   0  0  0  0  0  0  0  0  0  0  0  0
  141.4993  134.2719  155.1394 H   0  0  0  0  0  0  0  0  0  0  0  0
  142.6323  133.2354  154.2963 H   0  0  0  0  0  0  0  0  0  0  0  0
  143.7531  133.3133  151.9561 H   0  0  0  0  0  0  0  0  0  0  0  0
  142.8883  134.7908  151.5414 H   0  0  0  0  0  0  0  0  0  0  0  0
  146.3376  136.4884  151.2680 H   0  0  0  0  0  0  0  0  0  0  0  0
  144.6818  136.9934  150.9210 H   0  0  0  0  0  0  0  0  0  0  0  0
  146.6659  136.7815  156.8631 H   0  0  0  0  0  0  0  0  0  0  0  0
  147.5025  140.7162  151.8368 H   0  0  0  0  0  0  0  0  0  0  0  0
  149.4155  141.0501  153.8225 H   0  0  0  0  0  0  0  0  0  0  0  0
  148.0237  141.8616  154.4910 H   0  0  0  0  0  0  0  0  0  0  0  0
  148.7164  139.4441  156.0230 H   0  0  0  0  0  0  0  0  0  0  0  0
  147.1867  141.5039  156.6365 H   0  0  0  0  0  0  0  0  0  0  0  0
  148.0995  140.6979  157.8956 H   0  0  0  0  0  0  0  0  0  0  0  0
  148.5167  143.1758  156.7790 H   0  0  0  0  0  0  0  0  0  0  0  0
  150.8399  141.5994  155.9096 H   0  0  0  0  0  0  0  0  0  0  0  0
  151.2483  141.2444  158.0542 H   0  0  0  0  0  0  0  0  0  0  0  0
  150.2540  139.8064  158.1813 H   0  0  0  0  0  0  0  0  0  0  0  0
  153.0533  139.7182  158.0428 H   0  0  0  0  0  0  0  0  0  0  0  0
  151.9992  138.3842  157.5626 H   0  0  0  0  0  0  0  0  0  0  0  0
  150.9813  138.6499  155.1936 H   0  0  0  0  0  0  0  0  0  0  0  0
  151.5568  140.0436  154.2714 H   0  0  0  0  0  0  0  0  0  0  0  0
  1  2  1  0  0  0  0
  1 30  1  0  0  0  0
  1 31  1  0  0  0  0
  2  3  2  0  0  0  0
  2  4  1  0  0  0  0
  4 28  1  0  0  0  0
  4  9  1  0  0  0  0
  4  5  1  0  0  0  0
  5  6  1  0  0  0  0
  5 32  1  0  0  0  0
  5 33  1  0  0  0  0
  6 29  1  0  0  0  0
  6  7  1  0  0  0  0
  6  8  1  0  0  0  0
  8  9  1  0  0  0  0
  8 34  1  0  0  0  0
  8 35  1  0  0  0  0
  9 10  1  0  0  0  0
 10 15  1  0  0  0  0
 10 11  2  0  0  0  0
 11 12  1  0  0  0  0
 12 13  2  0  0  0  0
 12 36  1  0  0  0  0
 13 14  1  0  0  0  0
 14 18  1  0  0  0  0
 14 15  2  0  0  0  0
 15 16  1  0  0  0  0
 16 17  2  0  0  0  0
 17 18  1  0  0  0  0
 17 37  1  0  0  0  0
 18 19  1  0  0  0  0
 19 20  1  0  0  0  0
 19 38  1  0  0  0  0
 19 39  1  0  0  0  0
 20 21  1  0  0  0  0
 20 23  1  0  0  0  0
 20 40  1  0  0  0  0
 21 22  1  0  0  0  0
 21 41  1  0  0  0  0
 21 42  1  0  0  0  0
 22 43  1  0  0  0  0
 23 27  1  0  0  0  0
 23 24  1  0  0  0  0
 23 44  1  0  0  0  0
 24 25  1  0  0  0  0
 24 45  1  0  0  0  0
 24 46  1  0  0  0  0
 25 26  1  0  0  0  0
 25 47  1  0  0  0  0
 25 48  1  0  0  0  0
 26 27  1  0  0  0  0
 27 49  1  0  0  0  0
 27 50  1  0  0  0  0
M  END
> <s_m_source_file>
AV-unprocessed.smi

> <i_m_source_file_index>
221

> <i_lp_mmshare_version>
43012

> <i_f3d_flags>
0

> <s_epik_input>
W05IMl1DKD1PKVtDQEBIXTFbQ0gyXVtDQEBIXShGKVtDSDJdTjFjKG5bY0hdbjIpYyhjMjMpbltjSF1uM1tDSDJdW0NASF0oW0NIMl1bT0hdKVtDQEBIXTRbQ0gyXVtDSDJdT1tDSDJdNA==

> <s_epik_cmdline>
J2VwaWtfcHl0aG9uJywgJy1waCcsICc3LjAnLCAnLXRuJywgJzgnLCAnLW1hJywgJzIwMCcsICctbWV0YWxfYmluZGluZycsICctaW1hZScsICc8aW5maWxlLm1hZT4nLCAnLW9tYWUnLCAnPG91dGZpbGUubWFlPic=

> <r_lp_tautomer_probability>
1

> <r_epik_Ionization_Penalty>
0.000818822

> <r_epik_Ionization_Penalty_Charging>
0

> <r_epik_Ionization_Penalty_Neutral>
0.000818822

> <r_epik_State_Penalty>
0.000440551

> <r_epik_Charging_Adjusted_Penalty>
0.000440551

> <i_epik_Tot_Q>
0

> <i_epik_Tot_abs_Q>
0

> <r_epik_Metal_State_Penalty>
-0

> <b_epik_Metal_Only>
0

> <s_lp_Force_Field>
OPLS_2005

> <r_lp_Energy>
49.9883

> <b_lp_Chiralities_Consistent>
1

> <s_lp_Variant>
AV-unprocessed.smi:221-12

> <Gold.Version>
5.8.1

> <Gold.Id.Protein>
6NUR|6NUR_protein|mol2

> <Gold.PLP.Fitness>
46.3568

> <Gold.PLP.PLP>
-35.1687

> <Gold.PLP.part.hbond>
-4.0000

> <Gold.PLP.part.metal>
0.0000

> <Gold.PLP.part.buried>
-1.7166

> <Gold.PLP.part.nonpolar>
-30.1331

> <Gold.PLP.part.repulsive>
0.4681

> <Gold.PLP.ligand.clash>
0.0000

> <Gold.PLP.ligand.torsion>
1.3203

> <Gold.PLP.Chemscore.Hbond>
3.9520

> <Gold.PLP.Chemscore.CHOScore>
0.4798

> <Gold.PLP.Chemscore.Metal>
0.0000

> <Gold.Chemscore.Hbonds>
donor molecule, donor type, donor heavy atom, donor atom, acceptor molecule, acceptor atom, score
      L1  H     1    30       P1 11000  1.00
      L1  H     1    31       P1 10957  0.83
      L1  H    22    43       P1  8028  0.98
      P1  H  7997  8008       L1    26  1.00
      L1  C    17    37       P1  7957  0.45

> <Gold.PLP.Chemscore.Internal.Correction>
0.5334

> <Gold.Rescore>
     Score         DG    S(hbond)    S(metal)    S(lipo)     H(rot)  DE(clash)    DE(int)     intcor
     10.75     -15.83       3.64        0.00      56.91       3.31       1.37       3.71       ----

> <Gold.Chemscore.Fitness>
10.7469

> <Gold.Chemscore.DG>
-15.8258

> <Gold.Chemscore.ZeroCoef>
-5.4800

> <Gold.Chemscore.Hbond>
3.6400

> <Gold.Chemscore.Metal>
0.0000

> <Gold.Chemscore.Lipo>
56.9147

> <Gold.Chemscore.Internal_Hbond>
0.0000

> <Gold.Chemscore.DEClash>
1.3723

> <Gold.Chemscore.DEInternal>
3.7067

> <Gold.Chemscore.Rot>
3.3089

> <Gold.Chemscore.Internal.Correction>
   9.000000E+99

> <Gold.Chemscore.Hbonds>
donor molecule, donor type, donor heavy atom, donor atom, acceptor molecule, acceptor atom, score
      L1  H     1    30       P1 11000  0.92
      L1  H     1    31       P1 10957  0.79
      L1  H    22    43       P1  8028  0.51
      P1  H  7997  8008       L1    26  0.40

> <Gold.Chemscore.Hbond.Weighted>
-12.1577

> <Gold.Chemscore.Metal.Weighted>
-0.0000

> <Gold.Chemscore.Lipo.Weighted>
-6.6590

> <Gold.Chemscore.Internal_Hbond.Weighted>
0.0000

> <Gold.Chemscore.DEClash.Weighted>
1.3723

> <Gold.Chemscore.DEInternal.Weighted>
3.7067

> <Gold.Chemscore.Rot.Weighted>
8.4709

> <Gold.Chemscore.Internal.Correction.Weighted>
   9.000000E+99

> <Gold.Protein.RotatedTorsions>
[ 6907 6896 6895 6894 ] final  -56.77 input  -60.11 | X-H torsion
[ 7974 7965 7964 7962 ] final  162.27 input  175.53 | X-H torsion
[ 8008 7997 7996 7995 ] final  -29.68 input   59.86 | X-H torsion
[ 10167 10162 10161 10158 ] final -170.33 input  -65.29 | X-H torsion
[ 10718 10713 10712 10709 ] final -172.41 input   66.30 | X-H torsion
[ 10763 10752 10751 10750 ] final   58.04 input  -60.55 | X-H torsion
[ 11005 11000 10999 10996 ] final  144.43 input  -57.11 | X-H torsion

> <Gold.Protein.ActiveResidues>
 VAL166  LYS551  ARG553  GLY616  TRP617  ASP618  TYR619  PRO620  LYS621  CYS622 
 ASP623  PHE694  ASN695  SER759  ASP760  ASP761  ALA762  ILE779  LEU786  VAL792 
 PHE793  MET794  SER795  GLU796  ALA797  LYS798  CYS799  TRP800  GLU811  SER814 

> <Gold.Protein.RotatedAtoms>
  150.8140  134.7312  159.6713 H   0  0  0  0  0  0  0  0  0  0  0  0  # atno 6907 bound_to 6896
  152.4260  134.5864  159.9972 H   0  0  0  0  0  0  0  0  0  0  0  0  # atno 6908 bound_to 6896
  151.6066  133.3314  159.3094 H   0  0  0  0  0  0  0  0  0  0  0  0  # atno 6909 bound_to 6896
  144.7645  139.8016  143.6320 H   0  0  0  0  0  0  0  0  0  0  0  0  # atno 7974 bound_to 7965
  154.4280  140.1811  156.1287 H   0  0  0  0  0  0  0  0  0  0  0  0  # atno 8008 bound_to 7997
  156.0085  140.3353  155.6892 H   0  0  0  0  0  0  0  0  0  0  0  0  # atno 8009 bound_to 7997
  155.6144  140.0653  157.2687 H   0  0  0  0  0  0  0  0  0  0  0  0  # atno 8010 bound_to 7997
  139.5868  144.1300  152.1586 H   0  0  0  0  0  0  0  0  0  0  0  0  # atno 10167 bound_to 10162
  156.7551  130.9393  151.3116 H   0  0  0  0  0  0  0  0  0  0  0  0  # atno 10718 bound_to 10713
  152.9862  135.5621  154.5487 H   0  0  0  0  0  0  0  0  0  0  0  0  # atno 10763 bound_to 10752
  154.4928  135.2793  155.1485 H   0  0  0  0  0  0  0  0  0  0  0  0  # atno 10764 bound_to 10752
  154.2947  135.6319  153.5453 H   0  0  0  0  0  0  0  0  0  0  0  0  # atno 10765 bound_to 10752
  140.0632  134.9193  157.1219 H   0  0  0  0  0  0  0  0  0  0  0  0  # atno 11005 bound_to 11000
  146.1739  139.4901  142.9910 LP  0  0  0  0  0  0  0  0  0  0  0  0  # atno 17320 bound_to 7965
  145.6514  141.0262  143.1758 LP  0  0  0  0  0  0  0  0  0  0  0  0  # atno 17321 bound_to 7965
  140.0865  144.5656  150.7085 LP  0  0  0  0  0  0  0  0  0  0  0  0  # atno 17342 bound_to 10162
  140.7139  143.2527  151.4497 LP  0  0  0  0  0  0  0  0  0  0  0  0  # atno 17343 bound_to 10162
  157.6759  130.9094  150.0150 LP  0  0  0  0  0  0  0  0  0  0  0  0  # atno 17370 bound_to 10713
  156.1375  130.3642  149.9633 LP  0  0  0  0  0  0  0  0  0  0  0  0  # atno 17371 bound_to 10713
  140.3739  134.2361  155.7176 LP  0  0  0  0  0  0  0  0  0  0  0  0  # atno 17394 bound_to 11000
  141.1982  133.8042  157.0594 LP  0  0  0  0  0  0  0  0  0  0  0  0  # atno 17395 bound_to 11000

$$$$
