AV-unprocessed.smi:2693|AV-procd|sdf|10397|dock8
  -GOLD-   2272014433D 1   1.00000     0.00000
 Structure written by MMmdl.
 45 47  0  0  0  0  0  0  0  0  1 V2000
  151.7819  140.9338  158.1445 C   0  0  0  0  0  0  0  0  0  0  0  0
  150.9765  141.2210  156.9613 N   0  0  0  0  0  0  0  0  0  0  0  0
  150.9015  142.6097  156.5168 C   0  0  0  0  0  0  0  0  0  0  0  0
  150.2982  140.2048  156.2819 C   0  0  0  0  0  0  0  0  0  0  0  0
  150.4451  140.1471  154.9516 N   0  0  0  0  0  0  0  0  0  0  0  0
  149.7938  139.1663  154.2921 C   0  0  0  0  0  0  0  0  0  0  0  0
  148.9773  138.2319  154.9597 C   0  0  0  0  0  0  0  0  0  0  0  0
  148.3357  137.2139  154.2051 N   0  0  0  0  0  0  0  0  0  0  0  0
  147.1653  136.6036  154.4553 C   0  0  0  0  0  0  0  0  0  0  0  0
  146.4097  136.8668  155.3901 O   0  0  0  0  0  0  0  0  0  0  0  0
  146.8987  135.6721  153.5310 N   0  0  0  0  0  0  0  0  0  0  0  0
  145.6849  134.8490  153.5058 C   0  0  2  0  0  0  0  0  0  0  0  0
  145.7699  133.7048  152.4928 C   0  0  2  0  0  0  0  0  0  0  0  0
  146.8597  133.0108  151.7589 C   0  0  0  0  0  0  0  0  0  0  0  0
  146.1355  132.9107  150.3887 C   0  0  0  0  0  0  0  0  0  0  0  0
  144.9493  133.7387  150.5018 O   0  0  0  0  0  0  0  0  0  0  0  0
  145.3043  134.7132  151.4627 C   0  0  1  0  0  0  0  0  0  0  0  0
  144.5118  135.3969  152.5994 C   0  0  0  0  0  0  0  0  0  0  0  0
  143.0945  134.8683  152.8851 C   0  0  0  0  0  0  0  0  0  0  0  0
  144.3730  136.9189  152.4824 C   0  0  0  0  0  0  0  0  0  0  0  0
  148.8980  138.3780  156.3651 C   0  0  0  0  0  0  0  0  0  0  0  0
  149.5566  139.3624  157.0131 N   0  0  0  0  0  0  0  0  0  0  0  0
  151.1463  140.5869  158.9594 H   0  0  0  0  0  0  0  0  0  0  0  0
  152.3224  141.8142  158.4921 H   0  0  0  0  0  0  0  0  0  0  0  0
  152.5185  140.1597  157.9276 H   0  0  0  0  0  0  0  0  0  0  0  0
  149.8623  142.9288  156.4307 H   0  0  0  0  0  0  0  0  0  0  0  0
  151.3780  142.7216  155.5426 H   0  0  0  0  0  0  0  0  0  0  0  0
  151.3965  143.2868  157.2130 H   0  0  0  0  0  0  0  0  0  0  0  0
  149.9259  139.1306  153.2207 H   0  0  0  0  0  0  0  0  0  0  0  0
  148.8048  136.9453  153.3523 H   0  0  0  0  0  0  0  0  0  0  0  0
  147.5700  135.5221  152.7923 H   0  0  0  0  0  0  0  0  0  0  0  0
  145.3527  134.5167  154.4909 H   0  0  0  0  0  0  0  0  0  0  0  0
  145.0007  132.9703  152.7434 H   0  0  0  0  0  0  0  0  0  0  0  0
  147.7675  133.6123  151.6997 H   0  0  0  0  0  0  0  0  0  0  0  0
  147.1013  132.0343  152.1794 H   0  0  0  0  0  0  0  0  0  0  0  0
  146.7765  133.2728  149.5839 H   0  0  0  0  0  0  0  0  0  0  0  0
  145.8447  131.8862  150.1553 H   0  0  0  0  0  0  0  0  0  0  0  0
  146.1013  135.3558  151.0744 H   0  0  0  0  0  0  0  0  0  0  0  0
  142.4185  135.0852  152.0574 H   0  0  0  0  0  0  0  0  0  0  0  0
  142.6731  135.3316  153.7779 H   0  0  0  0  0  0  0  0  0  0  0  0
  143.0545  133.7925  153.0465 H   0  0  0  0  0  0  0  0  0  0  0  0
  143.6095  137.1980  151.7555 H   0  0  0  0  0  0  0  0  0  0  0  0
  145.3003  137.3915  152.1584 H   0  0  0  0  0  0  0  0  0  0  0  0
  144.0993  137.3677  153.4377 H   0  0  0  0  0  0  0  0  0  0  0  0
  148.3319  137.7079  156.9925 H   0  0  0  0  0  0  0  0  0  0  0  0
  1  2  1  0  0  0  0
  1 23  1  0  0  0  0
  1 24  1  0  0  0  0
  1 25  1  0  0  0  0
  2  3  1  0  0  0  0
  2  4  1  0  0  0  0
  3 26  1  0  0  0  0
  3 27  1  0  0  0  0
  3 28  1  0  0  0  0
  4 22  1  0  0  0  0
  4  5  2  0  0  0  0
  5  6  1  0  0  0  0
  6  7  2  0  0  0  0
  6 29  1  0  0  0  0
  7  8  1  0  0  0  0
  7 21  1  0  0  0  0
  8  9  1  0  0  0  0
  8 30  1  0  0  0  0
  9 10  2  0  0  0  0
  9 11  1  0  0  0  0
 11 12  1  0  0  0  0
 11 31  1  0  0  0  0
 12 18  1  0  0  0  0
 12 13  1  0  0  0  0
 12 32  1  0  0  0  0
 13 17  1  0  0  0  0
 13 14  1  0  0  0  0
 13 33  1  0  0  0  0
 14 15  1  0  0  0  0
 14 34  1  0  0  0  0
 14 35  1  0  0  0  0
 15 16  1  0  0  0  0
 15 36  1  0  0  0  0
 15 37  1  0  0  0  0
 16 17  1  0  0  0  0
 17 18  1  0  0  0  0
 17 38  1  0  0  0  0
 18 19  1  0  0  0  0
 18 20  1  0  0  0  0
 19 39  1  0  0  0  0
 19 40  1  0  0  0  0
 19 41  1  0  0  0  0
 20 42  1  0  0  0  0
 20 43  1  0  0  0  0
 20 44  1  0  0  0  0
 21 22  2  0  0  0  0
 21 45  1  0  0  0  0
M  END
> <s_m_source_file>
AV-unprocessed.smi

> <i_m_source_file_index>
2693

> <i_lp_mmshare_version>
43012

> <i_f3d_flags>
0

> <s_epik_input>
W0NIM11OKFtDSDNdKWMxbltjSF1jKFtjSF1uMSlbTkhdQyg9TylbTkhdW0NASF0yQyhbQ0gzXSkoW0NIM10pW0NAQEhdKFtDQEhdMjMpT1tDSDJdW0NIMl0z

> <s_epik_cmdline>
J2VwaWtfcHl0aG9uJywgJy1waCcsICc3LjAnLCAnLXRuJywgJzgnLCAnLW1hJywgJzIwMCcsICctbWV0YWxfYmluZGluZycsICctaW1hZScsICc8aW5maWxlLm1hZT4nLCAnLW9tYWUnLCAnPG91dGZpbGUubWFlPic=

> <r_lp_tautomer_probability>
1

> <r_epik_Ionization_Penalty>
0.00031779

> <r_epik_Ionization_Penalty_Charging>
0

> <r_epik_Ionization_Penalty_Neutral>
0.00031779

> <r_epik_State_Penalty>
-0

> <r_epik_Charging_Adjusted_Penalty>
0

> <i_epik_Tot_Q>
0

> <i_epik_Tot_abs_Q>
0

> <r_epik_Metal_State_Penalty>
-0

> <b_epik_Metal_Only>
0

> <s_lp_Force_Field>
OPLS_2005

> <r_lp_Energy>
57.3168

> <b_lp_Chiralities_Consistent>
1

> <s_lp_Variant>
AV-unprocessed.smi:2693-1

> <Gold.Version>
5.8.1

> <Gold.Id.Protein>
6NUR|6NUR_protein|mol2

> <Gold.PLP.Fitness>
38.1459

> <Gold.PLP.PLP>
-28.5764

> <Gold.PLP.part.hbond>
-3.0000

> <Gold.PLP.part.metal>
0.0000

> <Gold.PLP.part.buried>
-3.8223

> <Gold.PLP.part.nonpolar>
-22.1503

> <Gold.PLP.part.repulsive>
0.2329

> <Gold.PLP.ligand.clash>
0.0000

> <Gold.PLP.ligand.torsion>
1.2861

> <Gold.PLP.Chemscore.Hbond>
2.9600

> <Gold.PLP.Chemscore.CHOScore>
1.0000

> <Gold.PLP.Chemscore.Metal>
0.0000

> <Gold.Chemscore.Hbonds>
donor molecule, donor type, donor heavy atom, donor atom, acceptor molecule, acceptor atom, score
      L1  H     8    30       P1  7948  1.00
      L1  H    11    31       P1  7948  0.94
      P1  H  7989  7998       L1     5  1.00
      L1  C     6    29       P1  7957  1.00

> <Gold.PLP.Chemscore.Internal.Correction>
0.2618

> <Gold.Rescore>
     Score         DG    S(hbond)    S(metal)    S(lipo)     H(rot)  DE(clash)    DE(int)     intcor
     17.41     -18.85       2.52        0.00      64.36       1.00       0.16       1.29       ----

> <Gold.Chemscore.Fitness>
17.4073

> <Gold.Chemscore.DG>
-18.8509

> <Gold.Chemscore.ZeroCoef>
-5.4800

> <Gold.Chemscore.Hbond>
2.5151

> <Gold.Chemscore.Metal>
0.0000

> <Gold.Chemscore.Lipo>
64.3625

> <Gold.Chemscore.Internal_Hbond>
0.0000

> <Gold.Chemscore.DEClash>
0.1553

> <Gold.Chemscore.DEInternal>
1.2883

> <Gold.Chemscore.Rot>
1.0000

> <Gold.Chemscore.Internal.Correction>
   9.000000E+99

> <Gold.Chemscore.Hbonds>
donor molecule, donor type, donor heavy atom, donor atom, acceptor molecule, acceptor atom, score
      L1  H     8    30       P1  7948  0.99
      L1  H    11    31       P1  7948  0.91
      P1  H  7989  7998       L1     5  0.28

> <Gold.Chemscore.Hbond.Weighted>
-8.4005

> <Gold.Chemscore.Metal.Weighted>
-0.0000

> <Gold.Chemscore.Lipo.Weighted>
-7.5304

> <Gold.Chemscore.Internal_Hbond.Weighted>
0.0000

> <Gold.Chemscore.DEClash.Weighted>
0.1553

> <Gold.Chemscore.DEInternal.Weighted>
1.2883

> <Gold.Chemscore.Rot.Weighted>
2.5600

> <Gold.Chemscore.Internal.Correction.Weighted>
   9.000000E+99

> <Gold.Protein.RotatedTorsions>
[ 6907 6896 6895 6894 ] final  172.82 input  -60.11 | X-H torsion
[ 7974 7965 7964 7962 ] final -133.82 input  175.53 | X-H torsion
[ 8008 7997 7996 7995 ] final   30.52 input   59.86 | X-H torsion
[ 10167 10162 10161 10158 ] final   62.69 input  -65.29 | X-H torsion
[ 10718 10713 10712 10709 ] final   22.92 input   66.30 | X-H torsion
[ 10763 10752 10751 10750 ] final  -26.25 input  -60.55 | X-H torsion
[ 11005 11000 10999 10996 ] final   94.43 input  -57.11 | X-H torsion

> <Gold.Protein.ActiveResidues>
 VAL166  LYS551  ARG553  GLY616  TRP617  ASP618  TYR619  PRO620  LYS621  CYS622 
 ASP623  PHE694  ASN695  SER759  ASP760  ASP761  ALA762  ILE779  LEU786  VAL792 
 PHE793  MET794  SER795  GLU796  ALA797  LYS798  CYS799  TRP800  GLU811  SER814 

> <Gold.Protein.RotatedAtoms>
  151.7782  133.3347  159.3463 H   0  0  0  0  0  0  0  0  0  0  0  0  # atno 6907 bound_to 6896
  150.7436  134.5955  159.6019 H   0  0  0  0  0  0  0  0  0  0  0  0  # atno 6908 bound_to 6896
  152.3294  134.7280  160.0345 H   0  0  0  0  0  0  0  0  0  0  0  0  # atno 6909 bound_to 6896
  144.9158  140.6953  143.4996 H   0  0  0  0  0  0  0  0  0  0  0  0  # atno 7974 bound_to 7965
  155.0917  140.3220  155.4572 H   0  0  0  0  0  0  0  0  0  0  0  0  # atno 8008 bound_to 7997
  156.2741  140.2076  156.5991 H   0  0  0  0  0  0  0  0  0  0  0  0  # atno 8009 bound_to 7997
  154.6898  140.0517  157.0339 H   0  0  0  0  0  0  0  0  0  0  0  0  # atno 8010 bound_to 7997
  140.1412  144.4552  150.6810 H   0  0  0  0  0  0  0  0  0  0  0  0  # atno 10167 bound_to 10162
  157.1589  130.6708  149.6037 H   0  0  0  0  0  0  0  0  0  0  0  0  # atno 10718 bound_to 10713
  153.7128  135.6949  153.5033 H   0  0  0  0  0  0  0  0  0  0  0  0  # atno 10763 bound_to 10752
  153.2260  135.4354  155.0541 H   0  0  0  0  0  0  0  0  0  0  0  0  # atno 10764 bound_to 10752
  154.8309  135.3472  154.6665 H   0  0  0  0  0  0  0  0  0  0  0  0  # atno 10765 bound_to 10752
  139.8799  134.8844  156.3862 H   0  0  0  0  0  0  0  0  0  0  0  0  # atno 11005 bound_to 11000
  145.3378  139.1741  143.4502 LP  0  0  0  0  0  0  0  0  0  0  0  0  # atno 17320 bound_to 7965
  146.3181  140.3415  142.8648 LP  0  0  0  0  0  0  0  0  0  0  0  0  # atno 17321 bound_to 7965
  140.6759  143.2305  151.5508 LP  0  0  0  0  0  0  0  0  0  0  0  0  # atno 17342 bound_to 10162
  139.5471  144.2492  152.1463 LP  0  0  0  0  0  0  0  0  0  0  0  0  # atno 17343 bound_to 10162
  155.9757  130.4718  150.6479 LP  0  0  0  0  0  0  0  0  0  0  0  0  # atno 17370 bound_to 10713
  157.4151  131.0829  151.1184 LP  0  0  0  0  0  0  0  0  0  0  0  0  # atno 17371 bound_to 10713
  140.9364  133.7544  156.0090 LP  0  0  0  0  0  0  0  0  0  0  0  0  # atno 17394 bound_to 11000
  140.8270  134.3222  157.5362 LP  0  0  0  0  0  0  0  0  0  0  0  0  # atno 17395 bound_to 11000

$$$$
