AV-unprocessed.smi:1165|AV-procd|sdf|4933|dock6
  -GOLD-   22720 3513D 1   1.00000     0.00000
 Structure written by MMmdl.
 40 41  0  0  0  0  0  0  0  0  2 V2000
  149.5370  136.6345  158.4721 C   0  0  0  0  0  0  0  0  0  0  0  0
  148.9041  136.9840  157.1126 C   0  0  1  0  0  0  0  0  0  0  0  0
  149.5573  138.2053  156.4382 C   0  0  0  0  0  0  0  0  0  0  0  0
  150.8664  137.8595  155.8648 N   0  0  0  0  0  0  0  0  0  0  0  0
  151.9270  139.1668  155.4165 S   0  0  0  0  0  0  0  0  0  0  0  0
  152.9717  138.5485  154.5858 O   0  0  0  0  0  0  0  0  0  0  0  0
  151.0862  140.2006  154.7886 O   0  0  0  0  0  0  0  0  0  0  0  0
  152.4677  139.5703  156.8991 N   0  5  0  0  0  0  0  0  0  0  0  0
  151.9188  140.7121  157.6242 C   0  0  0  0  0  0  0  0  0  0  0  0
  152.9781  141.3014  158.5801 C   0  0  0  0  0  0  0  0  0  0  0  0
  152.6181  142.6633  159.1650 C   0  0  0  0  0  0  0  0  0  0  0  0
  152.1806  143.7183  158.3347 C   0  0  0  0  0  0  0  0  0  0  0  0
  151.8654  144.9596  158.9198 C   0  0  0  0  0  0  0  0  0  0  0  0
  152.0052  145.0974  160.3147 C   0  0  0  0  0  0  0  0  0  0  0  0
  152.4306  144.1010  161.1206 N   0  0  0  0  0  0  0  0  0  0  0  0
  152.7280  142.9128  160.5514 C   0  0  0  0  0  0  0  0  0  0  0  0
  150.8091  136.6769  154.9884 C   0  0  0  0  0  0  0  0  0  0  0  0
  150.1602  135.4899  155.7197 C   0  0  2  0  0  0  0  0  0  0  0  0
  149.9617  134.2864  154.7911 C   0  0  0  0  0  0  0  0  0  0  0  0
  148.8840  135.8687  156.2244 O   0  0  0  0  0  0  0  0  0  0  0  0
  149.4072  137.4541  159.1792 H   0  0  0  0  0  0  0  0  0  0  0  0
  150.6076  136.4464  158.3931 H   0  0  0  0  0  0  0  0  0  0  0  0
  149.0702  135.7493  158.9042 H   0  0  0  0  0  0  0  0  0  0  0  0
  147.8603  137.2321  157.3069 H   0  0  0  0  0  0  0  0  0  0  0  0
  148.9174  138.5791  155.6382 H   0  0  0  0  0  0  0  0  0  0  0  0
  149.6628  139.0130  157.1619 H   0  0  0  0  0  0  0  0  0  0  0  0
  151.5736  141.4972  156.9510 H   0  0  0  0  0  0  0  0  0  0  0  0
  151.0472  140.4194  158.2104 H   0  0  0  0  0  0  0  0  0  0  0  0
  153.1327  140.6089  159.4081 H   0  0  0  0  0  0  0  0  0  0  0  0
  153.9405  141.3732  158.0713 H   0  0  0  0  0  0  0  0  0  0  0  0
  152.0824  143.5761  157.2684 H   0  0  0  0  0  0  0  0  0  0  0  0
  151.5219  145.7846  158.3137 H   0  0  0  0  0  0  0  0  0  0  0  0
  151.7711  146.0351  160.7966 H   0  0  0  0  0  0  0  0  0  0  0  0
  153.0634  142.1363  161.2232 H   0  0  0  0  0  0  0  0  0  0  0  0
  150.2410  136.9324  154.0930 H   0  0  0  0  0  0  0  0  0  0  0  0
  151.8097  136.4001  154.6581 H   0  0  0  0  0  0  0  0  0  0  0  0
  150.8033  135.1757  156.5421 H   0  0  0  0  0  0  0  0  0  0  0  0
  150.9132  133.9458  154.3819 H   0  0  0  0  0  0  0  0  0  0  0  0
  149.3082  134.5364  153.9550 H   0  0  0  0  0  0  0  0  0  0  0  0
  149.5124  133.4504  155.3272 H   0  0  0  0  0  0  0  0  0  0  0  0
  1  2  1  0  0  0  0
  1 21  1  0  0  0  0
  1 22  1  0  0  0  0
  1 23  1  0  0  0  0
  2 20  1  0  0  0  0
  2  3  1  0  0  0  0
  2 24  1  0  0  0  0
  3  4  1  0  0  0  0
  3 25  1  0  0  0  0
  3 26  1  0  0  0  0
  4  5  1  0  0  0  0
  4 17  1  0  0  0  0
  5  6  2  0  0  0  0
  5  7  2  0  0  0  0
  5  8  1  0  0  0  0
  8  9  1  0  0  0  0
  9 10  1  0  0  0  0
  9 27  1  0  0  0  0
  9 28  1  0  0  0  0
 10 11  1  0  0  0  0
 10 29  1  0  0  0  0
 10 30  1  0  0  0  0
 11 16  1  0  0  0  0
 11 12  2  0  0  0  0
 12 13  1  0  0  0  0
 12 31  1  0  0  0  0
 13 14  2  0  0  0  0
 13 32  1  0  0  0  0
 14 15  1  0  0  0  0
 14 33  1  0  0  0  0
 15 16  2  0  0  0  0
 16 34  1  0  0  0  0
 17 18  1  0  0  0  0
 17 35  1  0  0  0  0
 17 36  1  0  0  0  0
 18 19  1  0  0  0  0
 18 20  1  0  0  0  0
 18 37  1  0  0  0  0
 19 38  1  0  0  0  0
 19 39  1  0  0  0  0
 19 40  1  0  0  0  0
M  CHG  1   8  -1
M  END
> <s_m_source_file>
AV-unprocessed.smi

> <i_m_source_file_index>
1165

> <i_lp_mmshare_version>
43012

> <i_f3d_flags>
0

> <s_epik_input>
W0NIM11bQ0BASF0xW0NIMl1OKFtDSDJdW0NASF0oTzEpW0NIM10pUyg9TykoPU8pW05IXVtDSDJdW0NIMl1jMltjSF1bY0hdW2NIXW5bY0hdMg==

> <s_epik_cmdline>
J2VwaWtfcHl0aG9uJywgJy1waCcsICc3LjAnLCAnLXRuJywgJzgnLCAnLW1hJywgJzIwMCcsICctbWV0YWxfYmluZGluZycsICctaW1hZScsICc8aW5maWxlLm1hZT4nLCAnLW9tYWUnLCAnPG91dGZpbGUubWFlPic=

> <r_epik_Ionization_Penalty>
1.23471

> <r_epik_Ionization_Penalty_Charging>
1.20871

> <r_epik_Ionization_Penalty_Neutral>
0.025996

> <r_epik_State_Penalty>
1.46261

> <r_epik_Charging_Adjusted_Penalty>
2.67132

> <i_epik_Tot_Q>
-1

> <i_epik_Tot_abs_Q>
1

> <r_epik_Metal_State_Penalty>
0.521406

> <b_epik_Metal_Only>
0

> <s_lp_Force_Field>
OPLS_2005

> <r_lp_Energy>
6.37225

> <b_lp_Chiralities_Consistent>
1

> <s_lp_Variant>
AV-unprocessed.smi:1165-6

> <Gold.Version>
5.8.1

> <Gold.Id.Protein>
6NUR|6NUR_protein|mol2

> <Gold.PLP.Fitness>
44.8527

> <Gold.PLP.PLP>
-37.4681

> <Gold.PLP.part.hbond>
-1.9680

> <Gold.PLP.part.metal>
0.0000

> <Gold.PLP.part.buried>
-6.1963

> <Gold.PLP.part.nonpolar>
-29.3198

> <Gold.PLP.part.repulsive>
0.2838

> <Gold.PLP.ligand.clash>
0.0000

> <Gold.PLP.ligand.torsion>
1.6104

> <Gold.PLP.Chemscore.Hbond>
3.0000

> <Gold.PLP.Chemscore.CHOScore>
0.0000

> <Gold.PLP.Chemscore.Metal>
0.0000

> <Gold.Chemscore.Hbonds>
donor molecule, donor type, donor heavy atom, donor atom, acceptor molecule, acceptor atom, score
      P1  H  7989  7998       L1     7  1.00
      P1  H  7997  8010       L1     8  2.00

> <Gold.PLP.Chemscore.Internal.Correction>
1.6053

> <Gold.Rescore>
     Score         DG    S(hbond)    S(metal)    S(lipo)     H(rot)  DE(clash)    DE(int)     intcor
     15.20     -16.87       1.22        0.00      94.74       1.47       0.04       1.63       ----

> <Gold.Chemscore.Fitness>
15.1981

> <Gold.Chemscore.DG>
-16.8701

> <Gold.Chemscore.ZeroCoef>
-5.4800

> <Gold.Chemscore.Hbond>
1.2205

> <Gold.Chemscore.Metal>
0.0000

> <Gold.Chemscore.Lipo>
94.7417

> <Gold.Chemscore.Internal_Hbond>
0.0000

> <Gold.Chemscore.DEClash>
0.0422

> <Gold.Chemscore.DEInternal>
1.6298

> <Gold.Chemscore.Rot>
1.4731

> <Gold.Chemscore.Internal.Correction>
   9.000000E+99

> <Gold.Chemscore.Hbonds>
donor molecule, donor type, donor heavy atom, donor atom, acceptor molecule, acceptor atom, score
      P1  H  7989  7998       L1     7  0.90
      P1  H  7997  8010       L1     8  0.13

> <Gold.Chemscore.Hbond.Weighted>
-4.0765

> <Gold.Chemscore.Metal.Weighted>
-0.0000

> <Gold.Chemscore.Lipo.Weighted>
-11.0848

> <Gold.Chemscore.Internal_Hbond.Weighted>
0.0000

> <Gold.Chemscore.DEClash.Weighted>
0.0422

> <Gold.Chemscore.DEInternal.Weighted>
1.6298

> <Gold.Chemscore.Rot.Weighted>
3.7712

> <Gold.Chemscore.Internal.Correction.Weighted>
   9.000000E+99

> <Gold.Protein.RotatedTorsions>
[ 6907 6896 6895 6894 ] final  155.32 input  -60.11 | X-H torsion
[ 7974 7965 7964 7962 ] final   30.07 input  175.53 | X-H torsion
[ 8008 7997 7996 7995 ] final   69.71 input   59.86 | X-H torsion
[ 10167 10162 10161 10158 ] final -146.59 input  -65.29 | X-H torsion
[ 10718 10713 10712 10709 ] final  110.07 input   66.30 | X-H torsion
[ 10763 10752 10751 10750 ] final   -7.54 input  -60.55 | X-H torsion
[ 11005 11000 10999 10996 ] final  163.14 input  -57.11 | X-H torsion

> <Gold.Protein.ActiveResidues>
 VAL166  LYS551  ARG553  GLY616  TRP617  ASP618  TYR619  PRO620  LYS621  CYS622 
 ASP623  PHE694  ASN695  SER759  ASP760  ASP761  ALA762  ILE779  LEU786  VAL792 
 PHE793  MET794  SER795  GLU796  ALA797  LYS798  CYS799  TRP800  GLU811  SER814 

> <Gold.Protein.RotatedAtoms>
  152.0459  133.3997  159.4356 H   0  0  0  0  0  0  0  0  0  0  0  0  # atno 6907 bound_to 6896
  150.6873  134.3363  159.4858 H   0  0  0  0  0  0  0  0  0  0  0  0  # atno 6908 bound_to 6896
  152.1167  134.9235  160.0615 H   0  0  0  0  0  0  0  0  0  0  0  0  # atno 6909 bound_to 6896
  146.1633  139.6837  142.9018 H   0  0  0  0  0  0  0  0  0  0  0  0  # atno 7974 bound_to 7965
  155.7277  140.3492  155.5045 H   0  0  0  0  0  0  0  0  0  0  0  0  # atno 8008 bound_to 7997
  155.9211  140.1067  157.1228 H   0  0  0  0  0  0  0  0  0  0  0  0  # atno 8009 bound_to 7997
  154.4070  140.1249  156.4667 H   0  0  0  0  0  0  0  0  0  0  0  0  # atno 8010 bound_to 7997
  139.7699  143.8252  152.2623 H   0  0  0  0  0  0  0  0  0  0  0  0  # atno 10167 bound_to 10162
  157.6512  131.0926  150.6547 H   0  0  0  0  0  0  0  0  0  0  0  0  # atno 10718 bound_to 10713
  153.4278  135.7011  153.6251 H   0  0  0  0  0  0  0  0  0  0  0  0  # atno 10763 bound_to 10752
  153.4679  135.3721  155.2375 H   0  0  0  0  0  0  0  0  0  0  0  0  # atno 10764 bound_to 10752
  154.8724  135.4036  154.3656 H   0  0  0  0  0  0  0  0  0  0  0  0  # atno 10765 bound_to 10752
  140.2328  134.8111  157.3333 H   0  0  0  0  0  0  0  0  0  0  0  0  # atno 11005 bound_to 11000
  145.4531  141.0429  143.2793 LP  0  0  0  0  0  0  0  0  0  0  0  0  # atno 17320 bound_to 7965
  144.8058  139.6055  143.7051 LP  0  0  0  0  0  0  0  0  0  0  0  0  # atno 17321 bound_to 7965
  139.8284  144.7265  150.9482 LP  0  0  0  0  0  0  0  0  0  0  0  0  # atno 17342 bound_to 10162
  140.7813  143.4093  151.1019 LP  0  0  0  0  0  0  0  0  0  0  0  0  # atno 17343 bound_to 10162
  156.6858  130.4580  149.5614 LP  0  0  0  0  0  0  0  0  0  0  0  0  # atno 17370 bound_to 10713
  156.1896  130.6551  151.1046 LP  0  0  0  0  0  0  0  0  0  0  0  0  # atno 17371 bound_to 10713
  140.1733  134.4581  155.7817 LP  0  0  0  0  0  0  0  0  0  0  0  0  # atno 17394 bound_to 11000
  141.2216  133.6951  156.7745 LP  0  0  0  0  0  0  0  0  0  0  0  0  # atno 17395 bound_to 11000

$$$$
