AV-unprocessed.smi:1|AV-procd|sdf|20|dock5
  -GOLD-   2262015123D 1   1.00000     0.00000
 Structure written by MMmdl.
 56 61  0  0  0  0  0  0  0  0  2 V2000
  149.2611  141.2824  157.3448 O   0  0  0  0  0  0  0  0  0  0  0  0
  150.4817  141.4349  157.2616 C   0  0  0  0  0  0  0  0  0  0  0  0
  151.3172  140.9573  156.3044 N   0  5  0  0  0  0  0  0  0  0  0  0
  151.1254  139.7250  155.8087 C   0  0  0  0  0  0  0  0  0  0  0  0
  151.3417  139.4739  154.4925 N   0  0  0  0  0  0  0  0  0  0  0  0
  151.1570  138.2440  153.9999 C   0  0  0  0  0  0  0  0  0  0  0  0
  150.7645  137.1355  154.6346 N   0  0  0  0  0  0  0  0  0  0  0  0
  150.5307  137.3754  155.9576 C   0  0  0  0  0  0  0  0  0  0  0  0
  150.6825  138.6350  156.6079 C   0  0  0  0  0  0  0  0  0  0  0  0
  150.3592  138.5371  157.9526 N   0  0  0  0  0  0  0  0  0  0  0  0
  150.0380  137.2500  158.0582 C   0  0  0  0  0  0  0  0  0  0  0  0
  150.1192  136.4935  156.9454 N   0  0  0  0  0  0  0  0  0  0  0  0
  149.8077  135.0359  156.8267 C   0  0  1  0  0  0  0  0  0  0  0  0
  148.4429  134.8756  156.5751 O   0  0  0  0  0  0  0  0  0  0  0  0
  148.2333  134.2897  155.2929 C   0  0  2  0  0  0  0  0  0  0  0  0
  146.9510  133.4506  155.2741 C   0  0  0  0  0  0  0  0  0  0  0  0
  146.6478  133.1146  153.9306 O   0  0  0  0  0  0  0  0  0  0  0  0
  145.9313  133.9592  153.1658 C   0  0  0  0  0  0  0  0  0  0  0  0
  145.6115  135.0958  153.5197 O   0  0  0  0  0  0  0  0  0  0  0  0
  145.5648  133.3728  151.8444 C   0  0  0  0  0  0  0  0  0  0  0  0
  146.3244  132.2970  151.3283 C   0  0  0  0  0  0  0  0  0  0  0  0
  146.0004  131.7219  150.0842 C   0  0  0  0  0  0  0  0  0  0  0  0
  144.9130  132.2157  149.3405 C   0  0  0  0  0  0  0  0  0  0  0  0
  144.1498  133.2858  149.8425 C   0  0  0  0  0  0  0  0  0  0  0  0
  144.4721  133.8623  151.0866 C   0  0  0  0  0  0  0  0  0  0  0  0
  149.5147  133.5010  155.0312 C   0  0  2  0  0  0  0  0  0  0  0  0
  149.4996  132.2515  155.7019 O   0  0  0  0  0  0  0  0  0  0  0  0
  150.9963  132.0135  156.4050 S   0  0  0  0  0  0  0  0  0  0  0  0
  150.7989  131.8050  157.8475 O   0  0  0  0  0  0  0  0  0  0  0  0
  151.7584  131.0773  155.5648 O   0  0  0  0  0  0  0  0  0  0  0  0
  151.6204  133.5469  156.1756 O   0  0  0  0  0  0  0  0  0  0  0  0
  150.5890  134.3802  155.6776 C   0  0  2  0  0  0  0  0  0  0  0  0
  151.1959  142.1795  158.3576 C   0  0  0  0  0  0  0  0  0  0  0  0
  150.7331  143.4550  158.7540 C   0  0  0  0  0  0  0  0  0  0  0  0
  151.4036  144.1800  159.7584 C   0  0  0  0  0  0  0  0  0  0  0  0
  152.5508  143.6412  160.3704 C   0  0  0  0  0  0  0  0  0  0  0  0
  153.0289  142.3781  159.9746 C   0  0  0  0  0  0  0  0  0  0  0  0
  152.3586  141.6521  158.9707 C   0  0  0  0  0  0  0  0  0  0  0  0
  151.3555  138.1311  152.9445 H   0  0  0  0  0  0  0  0  0  0  0  0
  149.7293  136.8311  159.0045 H   0  0  0  0  0  0  0  0  0  0  0  0
  150.0442  134.6176  157.8061 H   0  0  0  0  0  0  0  0  0  0  0  0
  148.1594  135.0816  154.5480 H   0  0  0  0  0  0  0  0  0  0  0  0
  147.1007  132.5325  155.8438 H   0  0  0  0  0  0  0  0  0  0  0  0
  146.1246  133.9953  155.7328 H   0  0  0  0  0  0  0  0  0  0  0  0
  147.1634  131.9010  151.8818 H   0  0  0  0  0  0  0  0  0  0  0  0
  146.5878  130.9009  149.7005 H   0  0  0  0  0  0  0  0  0  0  0  0
  144.6647  131.7742  148.3866 H   0  0  0  0  0  0  0  0  0  0  0  0
  143.3142  133.6660  149.2735 H   0  0  0  0  0  0  0  0  0  0  0  0
  143.8647  134.6815  151.4428 H   0  0  0  0  0  0  0  0  0  0  0  0
  149.6943  133.3345  153.9687 H   0  0  0  0  0  0  0  0  0  0  0  0
  150.9687  135.1262  154.9787 H   0  0  0  0  0  0  0  0  0  0  0  0
  149.8553  143.8836  158.2922 H   0  0  0  0  0  0  0  0  0  0  0  0
  151.0377  145.1510  160.0576 H   0  0  0  0  0  0  0  0  0  0  0  0
  153.0656  144.1974  161.1395 H   0  0  0  0  0  0  0  0  0  0  0  0
  153.9130  141.9659  160.4381 H   0  0  0  0  0  0  0  0  0  0  0  0
  152.7484  140.6892  158.6735 H   0  0  0  0  0  0  0  0  0  0  0  0
  1  2  2  0  0  0  0
  2  3  1  0  0  0  0
  2 33  1  0  0  0  0
  3  4  1  0  0  0  0
  4  9  1  0  0  0  0
  4  5  2  0  0  0  0
  5  6  1  0  0  0  0
  6  7  2  0  0  0  0
  6 39  1  0  0  0  0
  7  8  1  0  0  0  0
  8 12  1  0  0  0  0
  8  9  2  0  0  0  0
  9 10  1  0  0  0  0
 10 11  2  0  0  0  0
 11 12  1  0  0  0  0
 11 40  1  0  0  0  0
 12 13  1  0  0  0  0
 13 32  1  0  0  0  0
 13 14  1  0  0  0  0
 13 41  1  0  0  0  0
 14 15  1  0  0  0  0
 15 16  1  0  0  0  0
 15 26  1  0  0  0  0
 15 42  1  0  0  0  0
 16 17  1  0  0  0  0
 16 43  1  0  0  0  0
 16 44  1  0  0  0  0
 17 18  1  0  0  0  0
 18 19  2  0  0  0  0
 18 20  1  0  0  0  0
 20 25  1  0  0  0  0
 20 21  2  0  0  0  0
 21 22  1  0  0  0  0
 21 45  1  0  0  0  0
 22 23  2  0  0  0  0
 22 46  1  0  0  0  0
 23 24  1  0  0  0  0
 23 47  1  0  0  0  0
 24 25  2  0  0  0  0
 24 48  1  0  0  0  0
 25 49  1  0  0  0  0
 26 32  1  0  0  0  0
 26 27  1  0  0  0  0
 26 50  1  0  0  0  0
 27 28  1  0  0  0  0
 28 29  2  0  0  0  0
 28 30  2  0  0  0  0
 28 31  1  0  0  0  0
 31 32  1  0  0  0  0
 32 51  1  0  0  0  0
 33 38  1  0  0  0  0
 33 34  2  0  0  0  0
 34 35  1  0  0  0  0
 34 52  1  0  0  0  0
 35 36  2  0  0  0  0
 35 53  1  0  0  0  0
 36 37  1  0  0  0  0
 36 54  1  0  0  0  0
 37 38  2  0  0  0  0
 37 55  1  0  0  0  0
 38 56  1  0  0  0  0
M  CHG  1   3  -1
M  END
> <s_m_source_file>
AV-unprocessed.smi

> <i_m_source_file_index>
1

> <i_lp_mmshare_version>
43012

> <i_f3d_flags>
0

> <s_epik_input>
W2NIXTFbY0hdW2NIXVtjSF1bY0hdYzFDKD1PKVtOSF1jKG5bY0hdbjIpYyhjMjMpbltjSF1uM1tDQEBIXShbQ0BIXShbQ0BIXTQ1KU9TKE81KSg9Tyk9TylPW0NASF00W0NIMl1PQyg9TyljNltjSF1bY0hdW2NIXVtjSF1bY0hdNg==

> <s_epik_cmdline>
J2VwaWtfcHl0aG9uJywgJy1waCcsICc3LjAnLCAnLXRuJywgJzgnLCAnLW1hJywgJzIwMCcsICctbWV0YWxfYmluZGluZycsICctaW1hZScsICc8aW5maWxlLm1hZT4nLCAnLW9tYWUnLCAnPG91dGZpbGUubWFlPic=

> <r_lp_tautomer_probability>
1

> <r_epik_Ionization_Penalty>
4.39121

> <r_epik_Ionization_Penalty_Charging>
3.39398

> <r_epik_Ionization_Penalty_Neutral>
0.997232

> <r_epik_State_Penalty>
3.39839

> <r_epik_Charging_Adjusted_Penalty>
6.79237

> <i_epik_Tot_Q>
-1

> <i_epik_Tot_abs_Q>
1

> <r_epik_Metal_State_Penalty>
0.497663

> <b_epik_Metal_Only>
1

> <s_epik_Chemistry_Notes>
This compound has an ester and may undergo hydrolysis at high or low pH. This compound contains an acetal/aminal-like group ( X-CH(R)-Y where X, Y are N, S, or O) that may be acid/base labile, releasing an aldehyde.

> <s_lp_Force_Field>
OPLS_2005

> <r_lp_Energy>
42.8802

> <b_lp_Chiralities_Consistent>
1

> <s_lp_Variant>
AV-unprocessed.smi:1-20

> <Gold.Version>
5.8.1

> <Gold.Id.Protein>
6NUR|6NUR_protein|mol2

> <Gold.PLP.Fitness>
56.5036

> <Gold.PLP.PLP>
-52.4123

> <Gold.PLP.part.hbond>
-2.0000

> <Gold.PLP.part.metal>
0.0000

> <Gold.PLP.part.buried>
-7.7545

> <Gold.PLP.part.nonpolar>
-42.8373

> <Gold.PLP.part.repulsive>
0.5886

> <Gold.PLP.ligand.clash>
0.0000

> <Gold.PLP.ligand.torsion>
2.6721

> <Gold.PLP.Chemscore.Hbond>
2.0000

> <Gold.PLP.Chemscore.CHOScore>
0.9332

> <Gold.PLP.Chemscore.Metal>
0.0000

> <Gold.Chemscore.Hbonds>
donor molecule, donor type, donor heavy atom, donor atom, acceptor molecule, acceptor atom, score
      P1  H  6896  6907       L1    29  0.73
      P1  H  7989  7998       L1     5  1.00
      L1  C     6    39       P1  7949  0.84

> <Gold.PLP.Chemscore.Internal.Correction>
0.6358

> <Gold.Rescore>
     Score         DG    S(hbond)    S(metal)    S(lipo)     H(rot)  DE(clash)    DE(int)     intcor
     18.85     -21.01       1.80        0.00     127.49       2.11       0.06       2.10       ----

> <Gold.Chemscore.Fitness>
18.8549

> <Gold.Chemscore.DG>
-21.0080

> <Gold.Chemscore.ZeroCoef>
-5.4800

> <Gold.Chemscore.Hbond>
1.8030

> <Gold.Chemscore.Metal>
0.0000

> <Gold.Chemscore.Lipo>
127.4941

> <Gold.Chemscore.Internal_Hbond>
0.0000

> <Gold.Chemscore.DEClash>
0.0567

> <Gold.Chemscore.DEInternal>
2.0963

> <Gold.Chemscore.Rot>
2.1136

> <Gold.Chemscore.Internal.Correction>
   9.000000E+99

> <Gold.Chemscore.Hbonds>
donor molecule, donor type, donor heavy atom, donor atom, acceptor molecule, acceptor atom, score
      P1  H  6896  6907       L1    29  0.71
      P1  H  7989  7998       L1     5  0.92

> <Gold.Chemscore.Hbond.Weighted>
-6.0220

> <Gold.Chemscore.Metal.Weighted>
-0.0000

> <Gold.Chemscore.Lipo.Weighted>
-14.9168

> <Gold.Chemscore.Internal_Hbond.Weighted>
0.0000

> <Gold.Chemscore.DEClash.Weighted>
0.0567

> <Gold.Chemscore.DEInternal.Weighted>
2.0963

> <Gold.Chemscore.Rot.Weighted>
5.4107

> <Gold.Chemscore.Internal.Correction.Weighted>
   9.000000E+99

> <Gold.Protein.RotatedTorsions>
[ 6907 6896 6895 6894 ] final -163.89 input  -60.11 | X-H torsion
[ 7974 7965 7964 7962 ] final  -73.78 input  175.53 | X-H torsion
[ 8008 7997 7996 7995 ] final  -56.14 input   59.86 | X-H torsion
[ 10167 10162 10161 10158 ] final    6.79 input  -65.29 | X-H torsion
[ 10718 10713 10712 10709 ] final    7.85 input   66.30 | X-H torsion
[ 10763 10752 10751 10750 ] final  -30.22 input  -60.55 | X-H torsion
[ 11005 11000 10999 10996 ] final  147.60 input  -57.11 | X-H torsion

> <Gold.Protein.ActiveResidues>
 VAL166  LYS551  ARG553  GLY616  TRP617  ASP618  TYR619  PRO620  LYS621  CYS622 
 ASP623  PHE694  ASN695  SER759  ASP760  ASP761  ALA762  ILE779  LEU786  VAL792 
 PHE793  MET794  SER795  GLU796  ALA797  LYS798  CYS799  TRP800  GLU811  SER814 

> <Gold.Protein.RotatedAtoms>
  151.4032  133.3751  159.2734 H   0  0  0  0  0  0  0  0  0  0  0  0  # atno 6907 bound_to 6896
  150.9418  134.8828  159.7627 H   0  0  0  0  0  0  0  0  0  0  0  0  # atno 6908 bound_to 6896
  152.5074  134.3983  159.9459 H   0  0  0  0  0  0  0  0  0  0  0  0  # atno 6909 bound_to 6896
  145.6477  140.9292  143.1001 H   0  0  0  0  0  0  0  0  0  0  0  0  # atno 7974 bound_to 7965
  154.4219  140.1136  156.5590 H   0  0  0  0  0  0  0  0  0  0  0  0  # atno 8008 bound_to 7997
  155.6331  140.3496  155.4670 H   0  0  0  0  0  0  0  0  0  0  0  0  # atno 8009 bound_to 7997
  155.9932  140.1183  157.0608 H   0  0  0  0  0  0  0  0  0  0  0  0  # atno 8010 bound_to 7997
  140.6408  143.7778  150.7426 H   0  0  0  0  0  0  0  0  0  0  0  0  # atno 10167 bound_to 10162
  156.9429  130.5868  149.5653 H   0  0  0  0  0  0  0  0  0  0  0  0  # atno 10718 bound_to 10713
  153.7775  135.6907  153.4895 H   0  0  0  0  0  0  0  0  0  0  0  0  # atno 10763 bound_to 10752
  153.1834  135.4498  155.0055 H   0  0  0  0  0  0  0  0  0  0  0  0  # atno 10764 bound_to 10752
  154.8094  135.3371  154.7280 H   0  0  0  0  0  0  0  0  0  0  0  0  # atno 10765 bound_to 10752
  140.0889  134.9053  157.1620 H   0  0  0  0  0  0  0  0  0  0  0  0  # atno 11005 bound_to 11000
  144.7134  139.8286  143.7407 LP  0  0  0  0  0  0  0  0  0  0  0  0  # atno 17320 bound_to 7965
  146.1229  139.4250  143.0217 LP  0  0  0  0  0  0  0  0  0  0  0  0  # atno 17321 bound_to 7965
  140.1409  143.4442  152.2194 LP  0  0  0  0  0  0  0  0  0  0  0  0  # atno 17342 bound_to 10162
  139.5617  144.7410  151.4135 LP  0  0  0  0  0  0  0  0  0  0  0  0  # atno 17343 bound_to 10162
  156.0396  130.5480  150.8739 LP  0  0  0  0  0  0  0  0  0  0  0  0  # atno 17370 bound_to 10713
  157.5773  131.0946  150.9326 LP  0  0  0  0  0  0  0  0  0  0  0  0  # atno 17371 bound_to 10713
  140.3380  134.2735  155.7216 LP  0  0  0  0  0  0  0  0  0  0  0  0  # atno 17394 bound_to 11000
  141.2071  133.7813  157.0135 LP  0  0  0  0  0  0  0  0  0  0  0  0  # atno 17395 bound_to 11000

$$$$
