AV-unprocessed.smi:1958|AV-procd|sdf|7911|dock10
  -GOLD-   2272010 73D 1   1.00000     0.00000
 Structure written by MMmdl.
 47 48  0  0  0  0  0  0  0  0  3 V2000
  157.2198  140.0976  159.8261 C   0  0  0  0  0  0  0  0  0  0  0  0
  156.4236  139.4161  158.8727 O   0  0  0  0  0  0  0  0  0  0  0  0
  155.8669  138.2185  159.3876 C   0  0  0  0  0  0  0  0  0  0  0  0
  154.8912  138.5708  160.5206 C   0  0  0  0  0  0  0  0  0  0  0  0
  153.8610  139.5127  160.0716 N   0  0  0  0  0  0  0  0  0  0  0  0
  153.0504  139.0220  159.0623 N   0  0  0  0  0  0  0  0  0  0  0  0
  152.1005  139.7517  158.5712 C   0  0  0  0  0  0  0  0  0  0  0  0
  151.2198  139.2449  157.4713 C   0  0  0  0  0  0  0  0  0  0  0  0
  151.5418  138.1611  156.9668 O   0  0  0  0  0  0  0  0  0  0  0  0
  150.1362  140.0010  157.1176 N   0  5  0  0  0  0  0  0  0  0  0  0
  150.1903  141.3584  156.5723 C   0  0  0  0  0  0  0  0  0  0  0  0
  149.4840  141.4290  155.1899 C   0  0  1  0  0  0  0  0  0  0  0  0
  149.3483  140.0604  154.4755 C   0  0  0  0  0  0  0  0  0  0  0  0
  148.1834  142.1604  155.2980 N   0  3  0  0  0  0  0  0  0  0  0  0
  147.4098  142.1803  154.0314 C   0  0  0  0  0  0  0  0  0  0  0  0
  146.1820  143.0964  154.1694 C   0  0  0  0  0  0  0  0  0  0  0  0
  145.3801  142.6693  155.2636 O   0  0  0  0  0  0  0  0  0  0  0  0
  146.0868  142.7268  156.4968 C   0  0  0  0  0  0  0  0  0  0  0  0
  147.2979  141.7826  156.4353 C   0  0  0  0  0  0  0  0  0  0  0  0
  151.8679  141.0979  159.0765 C   0  0  0  0  0  0  0  0  0  0  0  0
  152.6634  141.5606  160.0655 C   0  0  0  0  0  0  0  0  0  0  0  0
  153.7417  140.7519  160.6349 C   0  0  0  0  0  0  0  0  0  0  0  0
  154.4744  141.1491  161.5407 O   0  0  0  0  0  0  0  0  0  0  0  0
  157.6283  141.0048  159.3811 H   0  0  0  0  0  0  0  0  0  0  0  0
  158.0549  139.4792  160.1574 H   0  0  0  0  0  0  0  0  0  0  0  0
  156.6303  140.3865  160.6972 H   0  0  0  0  0  0  0  0  0  0  0  0
  155.3437  137.6797  158.5959 H   0  0  0  0  0  0  0  0  0  0  0  0
  156.6621  137.5696  159.7583 H   0  0  0  0  0  0  0  0  0  0  0  0
  154.4303  137.6629  160.9136 H   0  0  0  0  0  0  0  0  0  0  0  0
  155.4470  138.9990  161.3570 H   0  0  0  0  0  0  0  0  0  0  0  0
  149.7216  142.0745  157.2475 H   0  0  0  0  0  0  0  0  0  0  0  0
  151.2191  141.7053  156.4623 H   0  0  0  0  0  0  0  0  0  0  0  0
  150.1278  142.0448  154.5595 H   0  0  0  0  0  0  0  0  0  0  0  0
  150.3221  139.6159  154.2619 H   0  0  0  0  0  0  0  0  0  0  0  0
  148.8438  140.1717  153.5157 H   0  0  0  0  0  0  0  0  0  0  0  0
  148.7827  139.3328  155.0604 H   0  0  0  0  0  0  0  0  0  0  0  0
  148.0349  142.5411  153.2135 H   0  0  0  0  0  0  0  0  0  0  0  0
  147.0969  141.1674  153.7745 H   0  0  0  0  0  0  0  0  0  0  0  0
  146.4859  144.1348  154.3108 H   0  0  0  0  0  0  0  0  0  0  0  0
  145.5839  143.0619  153.2588 H   0  0  0  0  0  0  0  0  0  0  0  0
  146.3989  143.7511  156.7070 H   0  0  0  0  0  0  0  0  0  0  0  0
  145.4162  142.4260  157.3019 H   0  0  0  0  0  0  0  0  0  0  0  0
  146.9457  140.7573  156.3162 H   0  0  0  0  0  0  0  0  0  0  0  0
  147.8417  141.8278  157.3792 H   0  0  0  0  0  0  0  0  0  0  0  0
  151.0808  141.7227  158.6808 H   0  0  0  0  0  0  0  0  0  0  0  0
  152.5003  142.5570  160.4485 H   0  0  0  0  0  0  0  0  0  0  0  0
  148.4481  143.1220  155.4592 H   0  0  0  0  0  0  0  0  0  0  0  0
  1  2  1  0  0  0  0
  1 24  1  0  0  0  0
  1 25  1  0  0  0  0
  1 26  1  0  0  0  0
  2  3  1  0  0  0  0
  3  4  1  0  0  0  0
  3 27  1  0  0  0  0
  3 28  1  0  0  0  0
  4  5  1  0  0  0  0
  4 29  1  0  0  0  0
  4 30  1  0  0  0  0
  5 22  1  0  0  0  0
  5  6  1  0  0  0  0
  6  7  2  0  0  0  0
  7  8  1  0  0  0  0
  7 20  1  0  0  0  0
  8  9  2  0  0  0  0
  8 10  1  0  0  0  0
 10 11  1  0  0  0  0
 11 12  1  0  0  0  0
 11 31  1  0  0  0  0
 11 32  1  0  0  0  0
 12 13  1  0  0  0  0
 12 14  1  0  0  0  0
 12 33  1  0  0  0  0
 13 34  1  0  0  0  0
 13 35  1  0  0  0  0
 13 36  1  0  0  0  0
 14 19  1  0  0  0  0
 14 15  1  0  0  0  0
 14 47  1  0  0  0  0
 15 16  1  0  0  0  0
 15 37  1  0  0  0  0
 15 38  1  0  0  0  0
 16 17  1  0  0  0  0
 16 39  1  0  0  0  0
 16 40  1  0  0  0  0
 17 18  1  0  0  0  0
 18 19  1  0  0  0  0
 18 41  1  0  0  0  0
 18 42  1  0  0  0  0
 19 43  1  0  0  0  0
 19 44  1  0  0  0  0
 20 21  2  0  0  0  0
 20 45  1  0  0  0  0
 21 22  1  0  0  0  0
 21 46  1  0  0  0  0
 22 23  2  0  0  0  0
M  CHG  1  10  -1
M  CHG  1  14   1
M  END
> <s_m_source_file>
AV-unprocessed.smi

> <i_m_source_file_index>
1958

> <i_lp_mmshare_version>
43012

> <i_f3d_flags>
0

> <s_epik_input>
W0NIM11PW0NIMl1bQ0gyXW4xbmMoW2NIXVtjSF1jMT1PKUMoPU8pW05IXVtDSDJdW0NASF0oW0NIM10pTjJbQ0gyXVtDSDJdT1tDSDJdW0NIMl0y

> <s_epik_cmdline>
J2VwaWtfcHl0aG9uJywgJy1waCcsICc3LjAnLCAnLXRuJywgJzgnLCAnLW1hJywgJzIwMCcsICctbWV0YWxfYmluZGluZycsICctaW1hZScsICc8aW5maWxlLm1hZT4nLCAnLW9tYWUnLCAnPG91dGZpbGUubWFlPic=

> <r_lp_tautomer_probability>
1

> <r_epik_Ionization_Penalty>
6.89388

> <r_epik_Ionization_Penalty_Charging>
6.89388

> <r_epik_Ionization_Penalty_Neutral>
1.08445e-11

> <r_epik_State_Penalty>
7.53214

> <r_epik_Charging_Adjusted_Penalty>
14.426

> <i_epik_Tot_Q>
0

> <i_epik_Tot_abs_Q>
2

> <r_epik_Metal_State_Penalty>
3.44743

> <b_epik_Metal_Only>
1

> <s_lp_Force_Field>
OPLS_2005

> <r_lp_Energy>
43.2643

> <b_lp_Chiralities_Consistent>
1

> <s_lp_Variant>
AV-unprocessed.smi:1958-6

> <Gold.Version>
5.8.1

> <Gold.Id.Protein>
6NUR|6NUR_protein|mol2

> <Gold.PLP.Fitness>
44.0815

> <Gold.PLP.PLP>
-37.7391

> <Gold.PLP.part.hbond>
-3.0000

> <Gold.PLP.part.metal>
0.0000

> <Gold.PLP.part.buried>
-6.1785

> <Gold.PLP.part.nonpolar>
-28.7806

> <Gold.PLP.part.repulsive>
0.3730

> <Gold.PLP.ligand.clash>
0.0000

> <Gold.PLP.ligand.torsion>
1.4592

> <Gold.PLP.Chemscore.Hbond>
3.0000

> <Gold.PLP.Chemscore.CHOScore>
0.0000

> <Gold.PLP.Chemscore.Metal>
0.0000

> <Gold.Chemscore.Hbonds>
donor molecule, donor type, donor heavy atom, donor atom, acceptor molecule, acceptor atom, score
      L1  H    14    47       P1  8028  2.00
      P1  H  7997  8008       L1     2  1.00

> <Gold.PLP.Chemscore.Internal.Correction>
0.2609

> <Gold.Rescore>
     Score         DG    S(hbond)    S(metal)    S(lipo)     H(rot)  DE(clash)    DE(int)     intcor
     14.03     -15.51       1.97        0.00      74.81       2.07       0.02       1.46       ----

> <Gold.Chemscore.Fitness>
14.0324

> <Gold.Chemscore.DG>
-15.5125

> <Gold.Chemscore.ZeroCoef>
-5.4800

> <Gold.Chemscore.Hbond>
1.9675

> <Gold.Chemscore.Metal>
0.0000

> <Gold.Chemscore.Lipo>
74.8146

> <Gold.Chemscore.Internal_Hbond>
0.0000

> <Gold.Chemscore.DEClash>
0.0222

> <Gold.Chemscore.DEInternal>
1.4579

> <Gold.Chemscore.Rot>
2.0673

> <Gold.Chemscore.Internal.Correction>
   9.000000E+99

> <Gold.Chemscore.Hbonds>
donor molecule, donor type, donor heavy atom, donor atom, acceptor molecule, acceptor atom, score
      L1  H    14    47       P1  8028  0.99
      P1  H  7997  8008       L1     2  0.94

> <Gold.Chemscore.Hbond.Weighted>
-6.5715

> <Gold.Chemscore.Metal.Weighted>
-0.0000

> <Gold.Chemscore.Lipo.Weighted>
-8.7533

> <Gold.Chemscore.Internal_Hbond.Weighted>
0.0000

> <Gold.Chemscore.DEClash.Weighted>
0.0222

> <Gold.Chemscore.DEInternal.Weighted>
1.4579

> <Gold.Chemscore.Rot.Weighted>
5.2923

> <Gold.Chemscore.Internal.Correction.Weighted>
   9.000000E+99

> <Gold.Protein.RotatedTorsions>
[ 6907 6896 6895 6894 ] final   95.10 input  -60.11 | X-H torsion
[ 7974 7965 7964 7962 ] final  113.90 input  175.53 | X-H torsion
[ 8008 7997 7996 7995 ] final -155.47 input   59.86 | X-H torsion
[ 10167 10162 10161 10158 ] final -151.64 input  -65.29 | X-H torsion
[ 10718 10713 10712 10709 ] final   -9.32 input   66.30 | X-H torsion
[ 10763 10752 10751 10750 ] final   24.83 input  -60.55 | X-H torsion
[ 11005 11000 10999 10996 ] final  105.03 input  -57.11 | X-H torsion

> <Gold.Protein.ActiveResidues>
 VAL166  LYS551  ARG553  GLY616  TRP617  ASP618  TYR619  PRO620  LYS621  CYS622 
 ASP623  PHE694  ASN695  SER759  ASP760  ASP761  ALA762  ILE779  LEU786  VAL792 
 PHE793  MET794  SER795  GLU796  ALA797  LYS798  CYS799  TRP800  GLU811  SER814 

> <Gold.Protein.RotatedAtoms>
  152.5446  134.1092  159.8350 H   0  0  0  0  0  0  0  0  0  0  0  0  # atno 6907 bound_to 6896
  151.1161  133.5130  159.2611 H   0  0  0  0  0  0  0  0  0  0  0  0  # atno 6908 bound_to 6896
  151.1831  135.0379  159.8855 H   0  0  0  0  0  0  0  0  0  0  0  0  # atno 6909 bound_to 6896
  145.2112  139.2905  143.4267 H   0  0  0  0  0  0  0  0  0  0  0  0  # atno 7974 bound_to 7965
  155.7024  140.0768  157.2405 H   0  0  0  0  0  0  0  0  0  0  0  0  # atno 8008 bound_to 7997
  154.4071  140.1645  156.2258 H   0  0  0  0  0  0  0  0  0  0  0  0  # atno 8009 bound_to 7997
  155.9356  140.3388  155.6288 H   0  0  0  0  0  0  0  0  0  0  0  0  # atno 8010 bound_to 7997
  139.7250  143.8897  152.2516 H   0  0  0  0  0  0  0  0  0  0  0  0  # atno 10167 bound_to 10162
  156.6897  130.5061  149.5947 H   0  0  0  0  0  0  0  0  0  0  0  0  # atno 10718 bound_to 10713
  153.0735  135.6596  154.0196 H   0  0  0  0  0  0  0  0  0  0  0  0  # atno 10763 bound_to 10752
  153.9835  135.2953  155.3419 H   0  0  0  0  0  0  0  0  0  0  0  0  # atno 10764 bound_to 10752
  154.7117  135.5202  153.8746 H   0  0  0  0  0  0  0  0  0  0  0  0  # atno 10765 bound_to 10752
  139.8798  134.9321  156.5452 H   0  0  0  0  0  0  0  0  0  0  0  0  # atno 11005 bound_to 11000
  146.3397  140.2388  142.8595 LP  0  0  0  0  0  0  0  0  0  0  0  0  # atno 17320 bound_to 7965
  144.9854  140.8498  143.5371 LP  0  0  0  0  0  0  0  0  0  0  0  0  # atno 17321 bound_to 7965
  139.8804  144.7020  150.8884 LP  0  0  0  0  0  0  0  0  0  0  0  0  # atno 17342 bound_to 10162
  140.7761  143.3665  151.1728 LP  0  0  0  0  0  0  0  0  0  0  0  0  # atno 17343 bound_to 10162
  156.1807  130.6497  151.0948 LP  0  0  0  0  0  0  0  0  0  0  0  0  # atno 17370 bound_to 10713
  157.7013  131.0774  150.6810 LP  0  0  0  0  0  0  0  0  0  0  0  0  # atno 17371 bound_to 10713
  140.8281  133.8301  155.8958 LP  0  0  0  0  0  0  0  0  0  0  0  0  # atno 17394 bound_to 11000
  140.9355  134.1967  157.4834 LP  0  0  0  0  0  0  0  0  0  0  0  0  # atno 17395 bound_to 11000

$$$$
