AV-unprocessed.smi:2592|AV-procd|sdf|10162|dock5
  -GOLD-   2272014173D 1   1.00000     0.00000
 Structure written by MMmdl.
 41 42  0  0  0  0  0  0  0  0  2 V2000
  151.4233  144.8771  160.0256 C   0  0  0  0  0  0  0  0  0  0  0  0
  151.8548  143.4471  159.9166 C   0  0  0  0  0  0  0  0  0  0  0  0
  151.5649  142.7241  158.7568 N   0  0  0  0  0  0  0  0  0  0  0  0
  152.0114  141.4646  158.7842 C   0  0  0  0  0  0  0  0  0  0  0  0
  151.8302  140.6009  157.7717 N   0  5  0  0  0  0  0  0  0  0  0  0
  152.1817  139.3030  157.9174 C   0  0  0  0  0  0  0  0  0  0  0  0
  153.2926  138.8167  157.6921 O   0  0  0  0  0  0  0  0  0  0  0  0
  151.1850  138.5206  158.3560 N   0  0  0  0  0  0  0  0  0  0  0  0
  151.2745  137.0885  158.6197 C   0  0  0  0  0  0  0  0  0  0  0  0
  150.7501  136.7380  160.0215 C   0  0  0  0  0  0  0  0  0  0  0  0
  149.2133  136.7143  160.0769 C   0  0  0  0  0  0  0  0  0  0  0  0
  148.6434  136.5829  161.4173 N   0  0  0  0  0  0  0  0  0  0  0  0
  147.1912  136.4563  161.3559 C   0  0  0  0  0  0  0  0  0  0  0  0
  146.5654  136.3136  162.7541 C   0  0  0  0  0  0  0  0  0  0  0  0
  147.1396  135.1938  163.4198 O   0  0  0  0  0  0  0  0  0  0  0  0
  148.5543  135.2959  163.5438 C   0  0  0  0  0  0  0  0  0  0  0  0
  149.1885  135.4410  162.1494 C   0  0  0  0  0  0  0  0  0  0  0  0
  152.8242  141.0884  160.3040 S   0  0  0  0  0  0  0  0  0  0  0  0
  152.5306  142.7141  160.8606 C   0  0  0  0  0  0  0  0  0  0  0  0
  152.9963  143.1595  162.2066 C   0  0  0  0  0  0  0  0  0  0  0  0
  150.6077  144.9858  160.7406 H   0  0  0  0  0  0  0  0  0  0  0  0
  151.0775  145.2684  159.0683 H   0  0  0  0  0  0  0  0  0  0  0  0
  152.2444  145.5110  160.3612 H   0  0  0  0  0  0  0  0  0  0  0  0
  150.2921  138.9608  158.5246 H   0  0  0  0  0  0  0  0  0  0  0  0
  150.6859  136.5703  157.8625 H   0  0  0  0  0  0  0  0  0  0  0  0
  152.3041  136.7479  158.4988 H   0  0  0  0  0  0  0  0  0  0  0  0
  151.1510  135.7689  160.3176 H   0  0  0  0  0  0  0  0  0  0  0  0
  151.1282  137.4643  160.7422 H   0  0  0  0  0  0  0  0  0  0  0  0
  148.8542  137.6450  159.6352 H   0  0  0  0  0  0  0  0  0  0  0  0
  148.8378  135.9149  159.4363 H   0  0  0  0  0  0  0  0  0  0  0  0
  146.7642  137.3281  160.8587 H   0  0  0  0  0  0  0  0  0  0  0  0
  146.9208  135.5894  160.7509 H   0  0  0  0  0  0  0  0  0  0  0  0
  146.7242  137.2177  163.3437 H   0  0  0  0  0  0  0  0  0  0  0  0
  145.4883  136.1673  162.6744 H   0  0  0  0  0  0  0  0  0  0  0  0
  148.8106  136.1486  164.1745 H   0  0  0  0  0  0  0  0  0  0  0  0
  148.9337  134.4037  164.0420 H   0  0  0  0  0  0  0  0  0  0  0  0
  149.0238  134.5242  161.5811 H   0  0  0  0  0  0  0  0  0  0  0  0
  150.2662  135.5455  162.2693 H   0  0  0  0  0  0  0  0  0  0  0  0
  153.8924  143.7739  162.1198 H   0  0  0  0  0  0  0  0  0  0  0  0
  153.2320  142.3066  162.8436 H   0  0  0  0  0  0  0  0  0  0  0  0
  152.2288  143.7491  162.7084 H   0  0  0  0  0  0  0  0  0  0  0  0
  1  2  1  0  0  0  0
  1 21  1  0  0  0  0
  1 22  1  0  0  0  0
  1 23  1  0  0  0  0
  2 19  2  0  0  0  0
  2  3  1  0  0  0  0
  3  4  2  0  0  0  0
  4  5  1  0  0  0  0
  4 18  1  0  0  0  0
  5  6  1  0  0  0  0
  6  7  2  0  0  0  0
  6  8  1  0  0  0  0
  8  9  1  0  0  0  0
  8 24  1  0  0  0  0
  9 10  1  0  0  0  0
  9 25  1  0  0  0  0
  9 26  1  0  0  0  0
 10 11  1  0  0  0  0
 10 27  1  0  0  0  0
 10 28  1  0  0  0  0
 11 12  1  0  0  0  0
 11 29  1  0  0  0  0
 11 30  1  0  0  0  0
 12 17  1  0  0  0  0
 12 13  1  0  0  0  0
 13 14  1  0  0  0  0
 13 31  1  0  0  0  0
 13 32  1  0  0  0  0
 14 15  1  0  0  0  0
 14 33  1  0  0  0  0
 14 34  1  0  0  0  0
 15 16  1  0  0  0  0
 16 17  1  0  0  0  0
 16 35  1  0  0  0  0
 16 36  1  0  0  0  0
 17 37  1  0  0  0  0
 17 38  1  0  0  0  0
 18 19  1  0  0  0  0
 19 20  1  0  0  0  0
 20 39  1  0  0  0  0
 20 40  1  0  0  0  0
 20 41  1  0  0  0  0
M  CHG  1   5  -1
M  END
> <s_m_source_file>
AV-unprocessed.smi

> <i_m_source_file_index>
2592

> <i_lp_mmshare_version>
43012

> <i_f3d_flags>
0

> <s_epik_input>
W0NIM11jMW5jKHNjMVtDSDNdKVtOSF1DKD1PKVtOSF1bQ0gyXVtDSDJdW0NIMl1OMltDSDJdW0NIMl1PW0NIMl1bQ0gyXTI=

> <s_epik_cmdline>
J2VwaWtfcHl0aG9uJywgJy1waCcsICc3LjAnLCAnLXRuJywgJzgnLCAnLW1hJywgJzIwMCcsICctbWV0YWxfYmluZGluZycsICctaW1hZScsICc8aW5maWxlLm1hZT4nLCAnLW9tYWUnLCAnPG91dGZpbGUubWFlPic=

> <r_lp_tautomer_probability>
0.999

> <r_epik_Ionization_Penalty>
8.38414

> <r_epik_Ionization_Penalty_Charging>
6.24826

> <r_epik_Ionization_Penalty_Neutral>
2.13587

> <r_epik_State_Penalty>
6.83636

> <r_epik_Charging_Adjusted_Penalty>
13.0846

> <i_epik_Tot_Q>
-1

> <i_epik_Tot_abs_Q>
1

> <r_epik_Metal_State_Penalty>
2.77797

> <b_epik_Metal_Only>
1

> <s_lp_Force_Field>
OPLS_2005

> <r_lp_Energy>
16.0962

> <b_lp_Chiralities_Consistent>
1

> <s_lp_Variant>
AV-unprocessed.smi:2592-4

> <Gold.Version>
5.8.1

> <Gold.Id.Protein>
6NUR|6NUR_protein|mol2

> <Gold.PLP.Fitness>
40.9667

> <Gold.PLP.PLP>
-37.9038

> <Gold.PLP.part.hbond>
-3.0000

> <Gold.PLP.part.metal>
0.0000

> <Gold.PLP.part.buried>
-4.6628

> <Gold.PLP.part.nonpolar>
-31.3114

> <Gold.PLP.part.repulsive>
0.0733

> <Gold.PLP.ligand.clash>
0.0000

> <Gold.PLP.ligand.torsion>
0.9086

> <Gold.PLP.Chemscore.Hbond>
1.5788

> <Gold.PLP.Chemscore.CHOScore>
0.0000

> <Gold.PLP.Chemscore.Metal>
0.0000

> <Gold.Chemscore.Hbonds>
donor molecule, donor type, donor heavy atom, donor atom, acceptor molecule, acceptor atom, score
      P1  H  6931  6943       L1    12  0.75
      P1  H  7997  8009       L1     7  1.00

> <Gold.PLP.Chemscore.Internal.Correction>
0.1438

> <Gold.Rescore>
     Score         DG    S(hbond)    S(metal)    S(lipo)     H(rot)  DE(clash)    DE(int)     intcor
     14.77     -15.64       1.05        0.00      92.92       1.65       0.05       0.83       ----

> <Gold.Chemscore.Fitness>
14.7696

> <Gold.Chemscore.DG>
-15.6419

> <Gold.Chemscore.ZeroCoef>
-5.4800

> <Gold.Chemscore.Hbond>
1.0485

> <Gold.Chemscore.Metal>
0.0000

> <Gold.Chemscore.Lipo>
92.9199

> <Gold.Chemscore.Internal_Hbond>
0.0000

> <Gold.Chemscore.DEClash>
0.0457

> <Gold.Chemscore.DEInternal>
0.8266

> <Gold.Chemscore.Rot>
1.6452

> <Gold.Chemscore.Internal.Correction>
   9.000000E+99

> <Gold.Chemscore.Hbonds>
donor molecule, donor type, donor heavy atom, donor atom, acceptor molecule, acceptor atom, score
      P1  H  6931  6943       L1    12  0.06
      P1  H  7997  8009       L1     7  0.90

> <Gold.Chemscore.Hbond.Weighted>
-3.5021

> <Gold.Chemscore.Metal.Weighted>
-0.0000

> <Gold.Chemscore.Lipo.Weighted>
-10.8716

> <Gold.Chemscore.Internal_Hbond.Weighted>
0.0000

> <Gold.Chemscore.DEClash.Weighted>
0.0457

> <Gold.Chemscore.DEInternal.Weighted>
0.8266

> <Gold.Chemscore.Rot.Weighted>
4.2118

> <Gold.Chemscore.Internal.Correction.Weighted>
   9.000000E+99

> <Gold.Protein.RotatedTorsions>
[ 6907 6896 6895 6894 ] final  -44.20 input  -60.11 | X-H torsion
[ 7974 7965 7964 7962 ] final  -14.08 input  175.53 | X-H torsion
[ 8008 7997 7996 7995 ] final  156.36 input   59.86 | X-H torsion
[ 10167 10162 10161 10158 ] final  105.47 input  -65.29 | X-H torsion
[ 10718 10713 10712 10709 ] final  -36.69 input   66.30 | X-H torsion
[ 10763 10752 10751 10750 ] final -129.63 input  -60.55 | X-H torsion
[ 11005 11000 10999 10996 ] final   98.43 input  -57.11 | X-H torsion

> <Gold.Protein.ActiveResidues>
 VAL166  LYS551  ARG553  GLY616  TRP617  ASP618  TYR619  PRO620  LYS621  CYS622 
 ASP623  PHE694  ASN695  SER759  ASP760  ASP761  ALA762  ILE779  LEU786  VAL792 
 PHE793  MET794  SER795  GLU796  ALA797  LYS798  CYS799  TRP800  GLU811  SER814 

> <Gold.Protein.RotatedAtoms>
  150.9355  134.8768  159.7578 H   0  0  0  0  0  0  0  0  0  0  0  0  # atno 6907 bound_to 6896
  152.5057  134.4017  159.9428 H   0  0  0  0  0  0  0  0  0  0  0  0  # atno 6908 bound_to 6896
  151.4041  133.3708  159.2771 H   0  0  0  0  0  0  0  0  0  0  0  0  # atno 6909 bound_to 6896
  146.2089  140.3296  142.8398 H   0  0  0  0  0  0  0  0  0  0  0  0  # atno 7974 bound_to 7965
  156.2426  140.1914  156.6944 H   0  0  0  0  0  0  0  0  0  0  0  0  # atno 8008 bound_to 7997
  154.6228  140.0606  156.9662 H   0  0  0  0  0  0  0  0  0  0  0  0  # atno 8009 bound_to 7997
  155.1834  140.3278  155.4373 H   0  0  0  0  0  0  0  0  0  0  0  0  # atno 8010 bound_to 7997
  139.7090  144.7081  151.1058 H   0  0  0  0  0  0  0  0  0  0  0  0  # atno 10167 bound_to 10162
  156.3240  130.4269  149.7934 H   0  0  0  0  0  0  0  0  0  0  0  0  # atno 10718 bound_to 10713
  154.8757  135.3889  154.3951 H   0  0  0  0  0  0  0  0  0  0  0  0  # atno 10763 bound_to 10752
  153.4682  135.7029  153.6014 H   0  0  0  0  0  0  0  0  0  0  0  0  # atno 10764 bound_to 10752
  153.4483  135.3840  155.2237 H   0  0  0  0  0  0  0  0  0  0  0  0  # atno 10765 bound_to 10752
  139.8772  134.9048  156.4455 H   0  0  0  0  0  0  0  0  0  0  0  0  # atno 11005 bound_to 11000
  144.8861  140.7464  143.5956 LP  0  0  0  0  0  0  0  0  0  0  0  0  # atno 17320 bound_to 7965
  145.3218  139.1786  143.4584 LP  0  0  0  0  0  0  0  0  0  0  0  0  # atno 17321 bound_to 7965
  140.7729  143.5319  150.9414 LP  0  0  0  0  0  0  0  0  0  0  0  0  # atno 17342 bound_to 10162
  139.9003  143.6844  152.3132 LP  0  0  0  0  0  0  0  0  0  0  0  0  # atno 17343 bound_to 10162
  156.5231  130.8224  151.3211 LP  0  0  0  0  0  0  0  0  0  0  0  0  # atno 17370 bound_to 10713
  157.7417  130.9876  150.2466 LP  0  0  0  0  0  0  0  0  0  0  0  0  # atno 17371 bound_to 10713
  140.8969  133.7807  155.9635 LP  0  0  0  0  0  0  0  0  0  0  0  0  # atno 17394 bound_to 11000
  140.8693  134.2746  157.5198 LP  0  0  0  0  0  0  0  0  0  0  0  0  # atno 17395 bound_to 11000

$$$$
