AV-unprocessed.smi:2968|AV-procd|sdf|11328|dock3
  -GOLD-   2272016233D 1   1.00000     0.00000
 Structure written by MMmdl.
 45 46  0  0  0  0  0  0  0  0  1 V2000
  153.4457  139.0583  158.0567 O   0  0  0  0  0  0  0  0  0  0  0  0
  152.2033  139.6511  157.5368 S   0  0  0  0  0  0  0  0  0  0  0  0
  152.1774  140.2270  156.1829 O   0  0  0  0  0  0  0  0  0  0  0  0
  150.9091  138.4235  157.6476 C   0  0  0  0  0  0  0  0  0  0  0  0
  149.9874  138.2578  156.5965 C   0  0  0  0  0  0  0  0  0  0  0  0
  149.0025  137.2587  156.7222 C   0  0  0  0  0  0  0  0  0  0  0  0
  148.9898  136.4578  157.8844 C   0  0  0  0  0  0  0  0  0  0  0  0
  148.0423  135.4285  157.9809 N   0  0  0  0  0  0  0  0  0  0  0  0
  148.0522  134.5803  159.1692 C   0  0  0  0  0  0  0  0  0  0  0  0
  147.9658  135.3966  160.4703 C   0  0  0  0  0  0  0  0  0  0  0  0
  146.6172  135.4321  160.9048 O   0  0  0  0  0  0  0  0  0  0  0  0
  146.4673  135.3607  162.3105 C   0  0  0  0  0  0  0  0  0  0  0  0
  147.3111  136.4753  162.9413 C   0  0  0  0  0  0  0  0  0  0  0  0
  146.9688  137.7228  162.3741 O   0  0  0  0  0  0  0  0  0  0  0  0
  149.8705  136.6302  158.9000 N   0  0  0  0  0  0  0  0  0  0  0  0
  150.8161  137.5853  158.7753 C   0  0  0  0  0  0  0  0  0  0  0  0
  151.6926  140.8862  158.6521 N   0  0  0  0  0  0  0  0  0  0  0  0
  152.5051  141.1727  159.8527 C   0  0  0  0  0  0  0  0  0  0  0  0
  153.3774  142.4268  159.6638 C   0  0  0  0  0  0  0  0  0  0  0  0
  152.5313  143.6315  159.2386 C   0  0  0  0  0  0  0  0  0  0  0  0
  151.7476  143.2876  157.9675 C   0  0  0  0  0  0  0  0  0  0  0  0
  150.8873  142.0268  158.1675 C   0  0  0  0  0  0  0  0  0  0  0  0
  150.0299  138.8783  155.7139 H   0  0  0  0  0  0  0  0  0  0  0  0
  148.2856  137.0992  155.9300 H   0  0  0  0  0  0  0  0  0  0  0  0
  147.8060  134.9643  157.1161 H   0  0  0  0  0  0  0  0  0  0  0  0
  147.2640  133.8279  159.1254 H   0  0  0  0  0  0  0  0  0  0  0  0
  148.9944  134.0323  159.1587 H   0  0  0  0  0  0  0  0  0  0  0  0
  148.5729  134.9285  161.2461 H   0  0  0  0  0  0  0  0  0  0  0  0
  148.3582  136.4025  160.3112 H   0  0  0  0  0  0  0  0  0  0  0  0
  145.4150  135.5102  162.5563 H   0  0  0  0  0  0  0  0  0  0  0  0
  146.7593  134.3833  162.6986 H   0  0  0  0  0  0  0  0  0  0  0  0
  147.1862  136.5030  164.0242 H   0  0  0  0  0  0  0  0  0  0  0  0
  148.3679  136.2982  162.7410 H   0  0  0  0  0  0  0  0  0  0  0  0
  146.6114  138.2742  163.0535 H   0  0  0  0  0  0  0  0  0  0  0  0
  151.5062  137.6843  159.5998 H   0  0  0  0  0  0  0  0  0  0  0  0
  151.8306  141.3223  160.6962 H   0  0  0  0  0  0  0  0  0  0  0  0
  153.1260  140.3137  160.1052 H   0  0  0  0  0  0  0  0  0  0  0  0
  153.9033  142.6532  160.5914 H   0  0  0  0  0  0  0  0  0  0  0  0
  154.1468  142.2394  158.9159 H   0  0  0  0  0  0  0  0  0  0  0  0
  151.8415  143.9023  160.0387 H   0  0  0  0  0  0  0  0  0  0  0  0
  153.1693  144.4986  159.0656 H   0  0  0  0  0  0  0  0  0  0  0  0
  151.1108  144.1268  157.6869 H   0  0  0  0  0  0  0  0  0  0  0  0
  152.4411  143.1425  157.1404 H   0  0  0  0  0  0  0  0  0  0  0  0
  150.3765  141.7649  157.2412 H   0  0  0  0  0  0  0  0  0  0  0  0
  150.1069  142.2319  158.9009 H   0  0  0  0  0  0  0  0  0  0  0  0
  1  2  2  0  0  0  0
  2  3  2  0  0  0  0
  2  4  1  0  0  0  0
  2 17  1  0  0  0  0
  4 16  1  0  0  0  0
  4  5  2  0  0  0  0
  5  6  1  0  0  0  0
  5 23  1  0  0  0  0
  6  7  2  0  0  0  0
  6 24  1  0  0  0  0
  7  8  1  0  0  0  0
  7 15  1  0  0  0  0
  8  9  1  0  0  0  0
  8 25  1  0  0  0  0
  9 10  1  0  0  0  0
  9 26  1  0  0  0  0
  9 27  1  0  0  0  0
 10 11  1  0  0  0  0
 10 28  1  0  0  0  0
 10 29  1  0  0  0  0
 11 12  1  0  0  0  0
 12 13  1  0  0  0  0
 12 30  1  0  0  0  0
 12 31  1  0  0  0  0
 13 14  1  0  0  0  0
 13 32  1  0  0  0  0
 13 33  1  0  0  0  0
 14 34  1  0  0  0  0
 15 16  2  0  0  0  0
 16 35  1  0  0  0  0
 17 22  1  0  0  0  0
 17 18  1  0  0  0  0
 18 19  1  0  0  0  0
 18 36  1  0  0  0  0
 18 37  1  0  0  0  0
 19 20  1  0  0  0  0
 19 38  1  0  0  0  0
 19 39  1  0  0  0  0
 20 21  1  0  0  0  0
 20 40  1  0  0  0  0
 20 41  1  0  0  0  0
 21 22  1  0  0  0  0
 21 42  1  0  0  0  0
 21 43  1  0  0  0  0
 22 44  1  0  0  0  0
 22 45  1  0  0  0  0
M  END
> <s_m_source_file>
AV-unprocessed.smi

> <i_m_source_file_index>
2968

> <i_lp_mmshare_version>
43012

> <i_f3d_flags>
0

> <s_epik_input>
W0NIMl0xW0NIMl1bQ0gyXVtDSDJdW0NIMl1OMVMoPU8pKD1PKWMyW2NIXVtjSF1jKG5bY0hdMilbTkhdW0NIMl1bQ0gyXU9bQ0gyXVtDSDJdW09IXQ==

> <s_epik_cmdline>
J2VwaWtfcHl0aG9uJywgJy1waCcsICc3LjAnLCAnLXRuJywgJzgnLCAnLW1hJywgJzIwMCcsICctbWV0YWxfYmluZGluZycsICctaW1hZScsICc8aW5maWxlLm1hZT4nLCAnLW9tYWUnLCAnPG91dGZpbGUubWFlPic=

> <r_lp_tautomer_probability>
1

> <r_epik_Ionization_Penalty>
0.000398056

> <r_epik_Ionization_Penalty_Charging>
0

> <r_epik_Ionization_Penalty_Neutral>
0.000398056

> <r_epik_State_Penalty>
0.00024364

> <r_epik_Charging_Adjusted_Penalty>
0.00024364

> <i_epik_Tot_Q>
0

> <i_epik_Tot_abs_Q>
0

> <r_epik_Metal_State_Penalty>
-0

> <b_epik_Metal_Only>
0

> <s_lp_Force_Field>
OPLS_2005

> <r_lp_Energy>
3.3881

> <b_lp_Chiralities_Consistent>
1

> <s_lp_Variant>
AV-unprocessed.smi:2968-1

> <Gold.Version>
5.8.1

> <Gold.Id.Protein>
6NUR|6NUR_protein|mol2

> <Gold.PLP.Fitness>
45.8472

> <Gold.PLP.PLP>
-38.2902

> <Gold.PLP.part.hbond>
-4.2540

> <Gold.PLP.part.metal>
0.0000

> <Gold.PLP.part.buried>
-4.2085

> <Gold.PLP.part.nonpolar>
-28.5921

> <Gold.PLP.part.repulsive>
0.0542

> <Gold.PLP.ligand.clash>
0.0000

> <Gold.PLP.ligand.torsion>
2.6018

> <Gold.PLP.Chemscore.Hbond>
2.8570

> <Gold.PLP.Chemscore.CHOScore>
0.0000

> <Gold.PLP.Chemscore.Metal>
0.0000

> <Gold.Chemscore.Hbonds>
donor molecule, donor type, donor heavy atom, donor atom, acceptor molecule, acceptor atom, score
      P1  H  6896  6909       L1    15  0.68
      P1  H  6931  6943       L1    14  0.25
      P1  H  6934  6947       L1    14  0.49
      P1  H  7997  8008       L1     1  1.00

> <Gold.PLP.Chemscore.Internal.Correction>
4.1896

> <Gold.Rescore>
     Score         DG    S(hbond)    S(metal)    S(lipo)     H(rot)  DE(clash)    DE(int)     intcor
     12.87     -16.67       2.17        0.00      90.60       2.60       0.07       3.73       ----

> <Gold.Chemscore.Fitness>
12.8724

> <Gold.Chemscore.DG>
-16.6723

> <Gold.Chemscore.ZeroCoef>
-5.4800

> <Gold.Chemscore.Hbond>
2.1710

> <Gold.Chemscore.Metal>
0.0000

> <Gold.Chemscore.Lipo>
90.5957

> <Gold.Chemscore.Internal_Hbond>
0.0000

> <Gold.Chemscore.DEClash>
0.0719

> <Gold.Chemscore.DEInternal>
3.7281

> <Gold.Chemscore.Rot>
2.6009

> <Gold.Chemscore.Internal.Correction>
   9.000000E+99

> <Gold.Chemscore.Hbonds>
donor molecule, donor type, donor heavy atom, donor atom, acceptor molecule, acceptor atom, score
      P1  H  6896  6909       L1    15  0.30
      P1  H  6931  6943       L1    14  0.02
      P1  H  6934  6947       L1    14  0.11
      P1  H  7997  8008       L1     1  0.40

> <Gold.Chemscore.Hbond.Weighted>
-7.2510

> <Gold.Chemscore.Metal.Weighted>
-0.0000

> <Gold.Chemscore.Lipo.Weighted>
-10.5997

> <Gold.Chemscore.Internal_Hbond.Weighted>
0.0000

> <Gold.Chemscore.DEClash.Weighted>
0.0719

> <Gold.Chemscore.DEInternal.Weighted>
3.7281

> <Gold.Chemscore.Rot.Weighted>
6.6583

> <Gold.Chemscore.Internal.Correction.Weighted>
   9.000000E+99

> <Gold.Protein.RotatedTorsions>
[ 6907 6896 6895 6894 ] final   78.16 input  -60.11 | X-H torsion
[ 7974 7965 7964 7962 ] final  175.59 input  175.53 | X-H torsion
[ 8008 7997 7996 7995 ] final  -98.93 input   59.86 | X-H torsion
[ 10167 10162 10161 10158 ] final   25.81 input  -65.29 | X-H torsion
[ 10718 10713 10712 10709 ] final   99.87 input   66.30 | X-H torsion
[ 10763 10752 10751 10750 ] final  -41.46 input  -60.55 | X-H torsion
[ 11005 11000 10999 10996 ] final  -33.81 input  -57.11 | X-H torsion

> <Gold.Protein.ActiveResidues>
 VAL166  LYS551  ARG553  GLY616  TRP617  ASP618  TYR619  PRO620  LYS621  CYS622 
 ASP623  PHE694  ASN695  SER759  ASP760  ASP761  ALA762  ILE779  LEU786  VAL792 
 PHE793  MET794  SER795  GLU796  ALA797  LYS798  CYS799  TRP800  GLU811  SER814 

> <Gold.Protein.RotatedAtoms>
  152.5148  134.3707  159.9316 H   0  0  0  0  0  0  0  0  0  0  0  0  # atno 6907 bound_to 6896
  151.3661  133.3865  159.2702 H   0  0  0  0  0  0  0  0  0  0  0  0  # atno 6908 bound_to 6896
  150.9614  134.9021  159.7791 H   0  0  0  0  0  0  0  0  0  0  0  0  # atno 6909 bound_to 6896
  144.7199  139.9969  143.6440 H   0  0  0  0  0  0  0  0  0  0  0  0  # atno 7974 bound_to 7965
  154.8078  140.0451  157.1320 H   0  0  0  0  0  0  0  0  0  0  0  0  # atno 8008 bound_to 7997
  154.9403  140.3051  155.5104 H   0  0  0  0  0  0  0  0  0  0  0  0  # atno 8009 bound_to 7997
  156.2968  140.2307  156.4472 H   0  0  0  0  0  0  0  0  0  0  0  0  # atno 8010 bound_to 7997
  140.5075  144.0215  150.6358 H   0  0  0  0  0  0  0  0  0  0  0  0  # atno 10167 bound_to 10162
  157.6867  131.0682  150.5013 H   0  0  0  0  0  0  0  0  0  0  0  0  # atno 10718 bound_to 10713
  153.9628  135.6737  153.4745 H   0  0  0  0  0  0  0  0  0  0  0  0  # atno 10763 bound_to 10752
  153.0830  135.4913  154.8537 H   0  0  0  0  0  0  0  0  0  0  0  0  # atno 10764 bound_to 10752
  154.7263  135.3128  154.8926 H   0  0  0  0  0  0  0  0  0  0  0  0  # atno 10765 bound_to 10752
  140.9665  133.7134  156.1454 H   0  0  0  0  0  0  0  0  0  0  0  0  # atno 11005 bound_to 11000
  146.0366  139.3383  143.0722 LP  0  0  0  0  0  0  0  0  0  0  0  0  # atno 17320 bound_to 7965
  145.8386  140.9592  143.0811 LP  0  0  0  0  0  0  0  0  0  0  0  0  # atno 17321 bound_to 7965
  140.3528  143.2953  152.0469 LP  0  0  0  0  0  0  0  0  0  0  0  0  # atno 17342 bound_to 10162
  139.4887  144.6361  151.6972 LP  0  0  0  0  0  0  0  0  0  0  0  0  # atno 17343 bound_to 10162
  156.5335  130.4190  149.6189 LP  0  0  0  0  0  0  0  0  0  0  0  0  # atno 17370 bound_to 10713
  156.3048  130.7197  151.2076 LP  0  0  0  0  0  0  0  0  0  0  0  0  # atno 17371 bound_to 10713
  140.7391  134.4170  157.5557 LP  0  0  0  0  0  0  0  0  0  0  0  0  # atno 17394 bound_to 11000
  139.8896  134.8825  156.2410 LP  0  0  0  0  0  0  0  0  0  0  0  0  # atno 17395 bound_to 11000

$$$$
