AV-unprocessed.smi:1469|AV-procd|sdf|5958|dock2
  -GOLD-   22720 6 43D 1   1.00000     0.00000
 Structure written by MMmdl.
 41 42  0  0  0  0  0  0  0  0  2 V2000
  152.0826  141.6478  157.9755 C   0  0  0  0  0  0  0  0  0  0  0  0
  150.7501  142.2705  157.4992 C   0  0  2  0  0  0  0  0  0  0  0  0
  150.5869  142.1454  155.9618 C   0  0  0  0  0  0  0  0  0  0  0  0
  149.2238  141.8082  155.5586 N   0  0  0  0  0  0  0  0  0  0  0  0
  148.8819  140.8590  154.6736 C   0  0  0  0  0  0  0  0  0  0  0  0
  149.7039  140.1293  154.1172 O   0  0  0  0  0  0  0  0  0  0  0  0
  147.3773  140.7112  154.4026 C   0  0  0  0  0  0  0  0  0  0  0  0
  146.9211  139.3126  154.3338 N   0  0  0  0  0  0  0  0  0  0  0  0
  146.5554  138.8197  153.0652 C   0  0  0  0  0  0  0  0  0  0  0  0
  146.1303  137.5585  152.8890 C   0  0  0  0  0  0  0  0  0  0  0  0
  146.0520  136.6966  154.0448 C   0  0  0  0  0  0  0  0  0  0  0  0
  146.3955  137.1591  155.2634 C   0  0  0  0  0  0  0  0  0  0  0  0
  146.8587  138.5376  155.4609 C   0  0  0  0  0  0  0  0  0  0  0  0
  147.1714  138.9697  156.5708 O   0  0  0  0  0  0  0  0  0  0  0  0
  150.6422  143.6984  157.9209 N   0  3  0  0  0  0  0  0  0  0  0  0
  150.4255  143.9155  159.3748 C   0  0  0  0  0  0  0  0  0  0  0  0
  151.2385  145.1529  159.7799 C   0  0  0  0  0  0  0  0  0  0  0  0
  151.6815  145.7761  158.4620 C   0  0  0  0  0  0  0  0  0  0  0  0
  151.7680  144.5749  157.5278 C   0  0  0  0  0  0  0  0  0  0  0  0
  152.1582  140.5968  157.6985 H   0  0  0  0  0  0  0  0  0  0  0  0
  152.1882  141.6767  159.0597 H   0  0  0  0  0  0  0  0  0  0  0  0
  152.9381  142.1661  157.5410 H   0  0  0  0  0  0  0  0  0  0  0  0
  149.9371  141.7218  157.9783 H   0  0  0  0  0  0  0  0  0  0  0  0
  150.8200  143.0893  155.4700 H   0  0  0  0  0  0  0  0  0  0  0  0
  151.3012  141.4210  155.5664 H   0  0  0  0  0  0  0  0  0  0  0  0
  148.4805  142.3534  155.9714 H   0  0  0  0  0  0  0  0  0  0  0  0
  146.8364  141.2497  155.1823 H   0  0  0  0  0  0  0  0  0  0  0  0
  147.1302  141.2306  153.4747 H   0  0  0  0  0  0  0  0  0  0  0  0
  146.6376  139.5284  152.2539 H   0  0  0  0  0  0  0  0  0  0  0  0
  145.8519  137.1988  151.9093 H   0  0  0  0  0  0  0  0  0  0  0  0
  145.7152  135.6766  153.9317 H   0  0  0  0  0  0  0  0  0  0  0  0
  146.3292  136.5002  156.1168 H   0  0  0  0  0  0  0  0  0  0  0  0
  149.3608  144.0629  159.5596 H   0  0  0  0  0  0  0  0  0  0  0  0
  150.7500  143.0577  159.9659 H   0  0  0  0  0  0  0  0  0  0  0  0
  150.6681  145.8472  160.3977 H   0  0  0  0  0  0  0  0  0  0  0  0
  152.1148  144.8444  160.3515 H   0  0  0  0  0  0  0  0  0  0  0  0
  150.9197  146.4703  158.1047 H   0  0  0  0  0  0  0  0  0  0  0  0
  152.6232  146.3199  158.5434 H   0  0  0  0  0  0  0  0  0  0  0  0
  152.7143  144.0542  157.6851 H   0  0  0  0  0  0  0  0  0  0  0  0
  151.7095  144.8717  156.4801 H   0  0  0  0  0  0  0  0  0  0  0  0
  149.8283  144.0798  157.4596 H   0  0  0  0  0  0  0  0  0  0  0  0
  1  2  1  0  0  0  0
  1 20  1  0  0  0  0
  1 21  1  0  0  0  0
  1 22  1  0  0  0  0
  2  3  1  0  0  0  0
  2 15  1  0  0  0  0
  2 23  1  0  0  0  0
  3  4  1  0  0  0  0
  3 24  1  0  0  0  0
  3 25  1  0  0  0  0
  4  5  1  0  0  0  0
  4 26  1  0  0  0  0
  5  6  2  0  0  0  0
  5  7  1  0  0  0  0
  7  8  1  0  0  0  0
  7 27  1  0  0  0  0
  7 28  1  0  0  0  0
  8 13  1  0  0  0  0
  8  9  1  0  0  0  0
  9 10  2  0  0  0  0
  9 29  1  0  0  0  0
 10 11  1  0  0  0  0
 10 30  1  0  0  0  0
 11 12  2  0  0  0  0
 11 31  1  0  0  0  0
 12 13  1  0  0  0  0
 12 32  1  0  0  0  0
 13 14  2  0  0  0  0
 15 19  1  0  0  0  0
 15 16  1  0  0  0  0
 15 41  1  0  0  0  0
 16 17  1  0  0  0  0
 16 33  1  0  0  0  0
 16 34  1  0  0  0  0
 17 18  1  0  0  0  0
 17 35  1  0  0  0  0
 17 36  1  0  0  0  0
 18 19  1  0  0  0  0
 18 37  1  0  0  0  0
 18 38  1  0  0  0  0
 19 39  1  0  0  0  0
 19 40  1  0  0  0  0
M  CHG  1  15   1
M  END
> <s_m_source_file>
AV-unprocessed.smi

> <i_m_source_file_index>
1469

> <i_lp_mmshare_version>
43012

> <i_f3d_flags>
0

> <s_epik_input>
W0NIMl0xW0NIMl1bQ0gyXVtDSDJdTjFbQ0BIXShbQ0gzXSlbQ0gyXVtOSF1DKD1PKVtDSDJdbjJbY0hdW2NIXVtjSF1bY0hdYzI9Tw==

> <s_epik_cmdline>
J2VwaWtfcHl0aG9uJywgJy1waCcsICc3LjAnLCAnLXRuJywgJzgnLCAnLW1hJywgJzIwMCcsICctbWV0YWxfYmluZGluZycsICctaW1hZScsICc8aW5maWxlLm1hZT4nLCAnLW9tYWUnLCAnPG91dGZpbGUubWFlPic=

> <r_lp_tautomer_probability>
1

> <r_epik_Ionization_Penalty>
0.00497231

> <r_epik_Ionization_Penalty_Charging>
0.00497223

> <r_epik_Ionization_Penalty_Neutral>
8.2288e-08

> <r_epik_State_Penalty>
0.0036131

> <r_epik_Charging_Adjusted_Penalty>
0.00858533

> <i_epik_Tot_Q>
1

> <i_epik_Tot_abs_Q>
1

> <r_epik_Metal_State_Penalty>
-0

> <b_epik_Metal_Only>
0

> <s_lp_Force_Field>
OPLS_2005

> <r_lp_Energy>
39.8185

> <b_lp_Chiralities_Consistent>
1

> <s_lp_Variant>
AV-unprocessed.smi:1469-1

> <Gold.Version>
5.8.1

> <Gold.Id.Protein>
6NUR|6NUR_protein|mol2

> <Gold.PLP.Fitness>
51.3500

> <Gold.PLP.PLP>
-39.6565

> <Gold.PLP.part.hbond>
-3.0000

> <Gold.PLP.part.metal>
0.0000

> <Gold.PLP.part.buried>
-2.3348

> <Gold.PLP.part.nonpolar>
-35.8756

> <Gold.PLP.part.repulsive>
1.0293

> <Gold.PLP.ligand.clash>
0.0000

> <Gold.PLP.ligand.torsion>
1.0837

> <Gold.PLP.Chemscore.Hbond>
3.7105

> <Gold.PLP.Chemscore.CHOScore>
0.8886

> <Gold.PLP.Chemscore.Metal>
0.0000

> <Gold.Chemscore.Hbonds>
donor molecule, donor type, donor heavy atom, donor atom, acceptor molecule, acceptor atom, score
      L1  H     4    26       P1  8028  0.01
      L1  H    15    41       P1  8028  1.61
      P1  H  7989  7998       L1     6  0.59

> <Gold.PLP.Chemscore.Internal.Correction>
0.0637

> <Gold.Rescore>
     Score         DG    S(hbond)    S(metal)    S(lipo)     H(rot)  DE(clash)    DE(int)     intcor
     15.85     -18.39       1.60        0.00     105.95       1.89       1.64       0.90       ----

> <Gold.Chemscore.Fitness>
15.8500

> <Gold.Chemscore.DG>
-18.3917

> <Gold.Chemscore.ZeroCoef>
-5.4800

> <Gold.Chemscore.Hbond>
1.6018

> <Gold.Chemscore.Metal>
0.0000

> <Gold.Chemscore.Lipo>
105.9450

> <Gold.Chemscore.Internal_Hbond>
0.0000

> <Gold.Chemscore.DEClash>
1.6390

> <Gold.Chemscore.DEInternal>
0.9027

> <Gold.Chemscore.Rot>
1.8882

> <Gold.Chemscore.Internal.Correction>
   9.000000E+99

> <Gold.Chemscore.Hbonds>
donor molecule, donor type, donor heavy atom, donor atom, acceptor molecule, acceptor atom, score
      L1  H     4    26       P1  8028  0.02
      L1  H    15    41       P1  8028  0.38
      P1  H  7989  7998       L1     6  0.58

> <Gold.Chemscore.Hbond.Weighted>
-5.3499

> <Gold.Chemscore.Metal.Weighted>
-0.0000

> <Gold.Chemscore.Lipo.Weighted>
-12.3956

> <Gold.Chemscore.Internal_Hbond.Weighted>
0.0000

> <Gold.Chemscore.DEClash.Weighted>
1.6390

> <Gold.Chemscore.DEInternal.Weighted>
0.9027

> <Gold.Chemscore.Rot.Weighted>
4.8338

> <Gold.Chemscore.Internal.Correction.Weighted>
   9.000000E+99

> <Gold.Protein.RotatedTorsions>
[ 6907 6896 6895 6894 ] final  130.77 input  -60.11 | X-H torsion
[ 7974 7965 7964 7962 ] final -137.37 input  175.53 | X-H torsion
[ 8008 7997 7996 7995 ] final  -69.27 input   59.86 | X-H torsion
[ 10167 10162 10161 10158 ] final  -10.81 input  -65.29 | X-H torsion
[ 10718 10713 10712 10709 ] final -112.92 input   66.30 | X-H torsion
[ 10763 10752 10751 10750 ] final   36.62 input  -60.55 | X-H torsion
[ 11005 11000 10999 10996 ] final  150.92 input  -57.11 | X-H torsion

> <Gold.Protein.ActiveResidues>
 VAL166  LYS551  ARG553  GLY616  TRP617  ASP618  TYR619  PRO620  LYS621  CYS622 
 ASP623  PHE694  ASN695  SER759  ASP760  ASP761  ALA762  ILE779  LEU786  VAL792 
 PHE793  MET794  SER795  GLU796  ALA797  LYS798  CYS799  TRP800  GLU811  SER814 

> <Gold.Protein.RotatedAtoms>
  152.3493  133.6160  159.5932 H   0  0  0  0  0  0  0  0  0  0  0  0  # atno 6907 bound_to 6896
  150.7528  133.9599  159.3521 H   0  0  0  0  0  0  0  0  0  0  0  0  # atno 6908 bound_to 6896
  151.7453  135.0846  160.0373 H   0  0  0  0  0  0  0  0  0  0  0  0  # atno 6909 bound_to 6896
  144.8847  140.6558  143.5183 H   0  0  0  0  0  0  0  0  0  0  0  0  # atno 7974 bound_to 7965
  154.4926  140.0857  156.7628 H   0  0  0  0  0  0  0  0  0  0  0  0  # atno 8008 bound_to 7997
  155.4193  140.3445  155.4252 H   0  0  0  0  0  0  0  0  0  0  0  0  # atno 8009 bound_to 7997
  156.1351  140.1513  156.8994 H   0  0  0  0  0  0  0  0  0  0  0  0  # atno 8010 bound_to 7997
  140.7123  143.5708  150.9095 H   0  0  0  0  0  0  0  0  0  0  0  0  # atno 10167 bound_to 10162
  156.0735  130.5945  150.8573 H   0  0  0  0  0  0  0  0  0  0  0  0  # atno 10718 bound_to 10713
  153.0070  135.6301  154.2014 H   0  0  0  0  0  0  0  0  0  0  0  0  # atno 10763 bound_to 10752
  154.1757  135.2816  155.3069 H   0  0  0  0  0  0  0  0  0  0  0  0  # atno 10764 bound_to 10752
  154.5874  135.5628  153.7304 H   0  0  0  0  0  0  0  0  0  0  0  0  # atno 10765 bound_to 10752
  140.1174  134.8886  157.2023 H   0  0  0  0  0  0  0  0  0  0  0  0  # atno 11005 bound_to 11000
  145.3890  139.1620  143.4239 LP  0  0  0  0  0  0  0  0  0  0  0  0  # atno 17320 bound_to 7965
  146.3017  140.3977  142.8701 LP  0  0  0  0  0  0  0  0  0  0  0  0  # atno 17321 bound_to 7965
  139.9434  143.6356  152.3048 LP  0  0  0  0  0  0  0  0  0  0  0  0  # atno 17342 bound_to 10162
  139.6848  144.7652  151.1543 LP  0  0  0  0  0  0  0  0  0  0  0  0  # atno 17343 bound_to 10162
  157.5818  131.0946  150.9259 LP  0  0  0  0  0  0  0  0  0  0  0  0  # atno 17370 bound_to 10713
  156.9453  130.5399  149.5281 LP  0  0  0  0  0  0  0  0  0  0  0  0  # atno 17371 bound_to 10713
  140.3010  134.3131  155.7290 LP  0  0  0  0  0  0  0  0  0  0  0  0  # atno 17394 bound_to 11000
  141.2144  133.7592  156.9641 LP  0  0  0  0  0  0  0  0  0  0  0  0  # atno 17395 bound_to 11000

$$$$
