AV-unprocessed.smi:1340|AV-procd|sdf|5503|dock2
  -GOLD-   22720 5 83D 1   1.00000     0.00000
 Structure written by MMmdl.
 40 41  0  0  0  0  0  0  0  0  1 V2000
  153.9515  142.4471  162.6291 C   0  0  0  0  0  0  0  0  0  0  0  0
  152.8154  143.3734  162.1824 C   0  0  0  0  0  0  0  0  0  0  0  0
  152.6079  143.3653  160.6563 C   0  0  0  0  0  0  0  0  0  0  0  0
  151.7632  144.5459  160.1368 C   0  0  2  0  0  0  0  0  0  0  0  0
  150.3871  144.6076  160.8164 C   0  0  0  0  0  0  0  0  0  0  0  0
  151.6004  144.4342  158.6909 N   0  0  0  0  0  0  0  0  0  0  0  0
  151.0143  143.4195  158.0356 C   0  0  0  0  0  0  0  0  0  0  0  0
  150.6323  142.3850  158.5822 O   0  0  0  0  0  0  0  0  0  0  0  0
  150.8103  143.6165  156.5309 C   0  0  0  0  0  0  0  0  0  0  0  0
  150.6085  142.2844  155.8651 C   0  0  0  0  0  0  0  0  0  0  0  0
  151.4631  141.2092  155.8930 C   0  0  0  0  0  0  0  0  0  0  0  0
  150.8104  139.8334  155.0449 S   0  0  0  0  0  0  0  0  0  0  0  0
  149.3725  140.7878  154.6718 C   0  0  0  0  0  0  0  0  0  0  0  0
  148.2127  140.3402  153.9731 N   0  0  0  0  0  0  0  0  0  0  0  0
  148.1971  139.0750  153.2453 C   0  0  0  0  0  0  0  0  0  0  0  0
  146.8116  139.0363  152.6086 C   0  0  0  0  0  0  0  0  0  0  0  0
  146.2277  140.2713  153.0769 N   0  0  0  0  0  0  0  0  0  0  0  0
  147.0413  140.9950  153.8491 C   0  0  0  0  0  0  0  0  0  0  0  0
  146.7339  142.0751  154.3496 O   0  0  0  0  0  0  0  0  0  0  0  0
  149.4368  142.0376  155.1405 N   0  0  0  0  0  0  0  0  0  0  0  0
  154.0764  142.4814  163.7117 H   0  0  0  0  0  0  0  0  0  0  0  0
  154.8996  142.7402  162.1773 H   0  0  0  0  0  0  0  0  0  0  0  0
  153.7505  141.4129  162.3489 H   0  0  0  0  0  0  0  0  0  0  0  0
  151.8909  143.0756  162.6783 H   0  0  0  0  0  0  0  0  0  0  0  0
  153.0358  144.3828  162.5283 H   0  0  0  0  0  0  0  0  0  0  0  0
  153.5796  143.3673  160.1601 H   0  0  0  0  0  0  0  0  0  0  0  0
  152.1254  142.4293  160.3721 H   0  0  0  0  0  0  0  0  0  0  0  0
  152.2994  145.4679  160.3695 H   0  0  0  0  0  0  0  0  0  0  0  0
  150.4885  144.7054  161.8974 H   0  0  0  0  0  0  0  0  0  0  0  0
  149.8044  143.7077  160.6167 H   0  0  0  0  0  0  0  0  0  0  0  0
  149.8111  145.4636  160.4630 H   0  0  0  0  0  0  0  0  0  0  0  0
  151.8838  145.2354  158.1451 H   0  0  0  0  0  0  0  0  0  0  0  0
  149.9517  144.2688  156.3660 H   0  0  0  0  0  0  0  0  0  0  0  0
  151.6758  144.1309  156.1110 H   0  0  0  0  0  0  0  0  0  0  0  0
  152.4261  141.1372  156.3766 H   0  0  0  0  0  0  0  0  0  0  0  0
  148.9837  139.0507  152.4899 H   0  0  0  0  0  0  0  0  0  0  0  0
  148.3449  138.2377  153.9291 H   0  0  0  0  0  0  0  0  0  0  0  0
  146.8618  139.0252  151.5191 H   0  0  0  0  0  0  0  0  0  0  0  0
  146.2272  138.1802  152.9481 H   0  0  0  0  0  0  0  0  0  0  0  0
  145.2875  140.5502  152.8362 H   0  0  0  0  0  0  0  0  0  0  0  0
  1  2  1  0  0  0  0
  1 21  1  0  0  0  0
  1 22  1  0  0  0  0
  1 23  1  0  0  0  0
  2  3  1  0  0  0  0
  2 24  1  0  0  0  0
  2 25  1  0  0  0  0
  3  4  1  0  0  0  0
  3 26  1  0  0  0  0
  3 27  1  0  0  0  0
  4  5  1  0  0  0  0
  4  6  1  0  0  0  0
  4 28  1  0  0  0  0
  5 29  1  0  0  0  0
  5 30  1  0  0  0  0
  5 31  1  0  0  0  0
  6  7  1  0  0  0  0
  6 32  1  0  0  0  0
  7  8  2  0  0  0  0
  7  9  1  0  0  0  0
  9 10  1  0  0  0  0
  9 33  1  0  0  0  0
  9 34  1  0  0  0  0
 10 20  1  0  0  0  0
 10 11  2  0  0  0  0
 11 12  1  0  0  0  0
 11 35  1  0  0  0  0
 12 13  1  0  0  0  0
 13 14  1  0  0  0  0
 13 20  2  0  0  0  0
 14 18  1  0  0  0  0
 14 15  1  0  0  0  0
 15 16  1  0  0  0  0
 15 36  1  0  0  0  0
 15 37  1  0  0  0  0
 16 17  1  0  0  0  0
 16 38  1  0  0  0  0
 16 39  1  0  0  0  0
 17 18  1  0  0  0  0
 17 40  1  0  0  0  0
 18 19  2  0  0  0  0
M  END
> <s_m_source_file>
AV-unprocessed.smi

> <i_m_source_file_index>
1340

> <i_lp_mmshare_version>
43012

> <i_f3d_flags>
0

> <s_epik_input>
W0NIM11bQ0gyXVtDSDJdW0NASF0oW0NIM10pW05IXUMoPU8pW0NIMl1jMVtjSF1zYyhuMSlOMltDSDJdW0NIMl1bTkhdQzI9Tw==

> <s_epik_cmdline>
J2VwaWtfcHl0aG9uJywgJy1waCcsICc3LjAnLCAnLXRuJywgJzgnLCAnLW1hJywgJzIwMCcsICctbWV0YWxfYmluZGluZycsICctaW1hZScsICc8aW5maWxlLm1hZT4nLCAnLW9tYWUnLCAnPG91dGZpbGUubWFlPic=

> <r_lp_tautomer_probability>
1

> <r_epik_Ionization_Penalty>
0.00012151

> <r_epik_Ionization_Penalty_Charging>
0

> <r_epik_Ionization_Penalty_Neutral>
0.00012151

> <r_epik_State_Penalty>
-0

> <r_epik_Charging_Adjusted_Penalty>
0

> <i_epik_Tot_Q>
0

> <i_epik_Tot_abs_Q>
0

> <r_epik_Metal_State_Penalty>
-0

> <b_epik_Metal_Only>
0

> <s_lp_Force_Field>
OPLS_2005

> <r_lp_Energy>
29.8855

> <b_lp_Chiralities_Consistent>
1

> <s_lp_Variant>
AV-unprocessed.smi:1340-1

> <Gold.Version>
5.8.1

> <Gold.Id.Protein>
6NUR|6NUR_protein|mol2

> <Gold.PLP.Fitness>
42.0613

> <Gold.PLP.PLP>
-39.8784

> <Gold.PLP.part.hbond>
-1.1559

> <Gold.PLP.part.metal>
0.0000

> <Gold.PLP.part.buried>
-3.1377

> <Gold.PLP.part.nonpolar>
-35.1678

> <Gold.PLP.part.repulsive>
0.3811

> <Gold.PLP.ligand.clash>
0.0000

> <Gold.PLP.ligand.torsion>
0.4101

> <Gold.PLP.Chemscore.Hbond>
0.9920

> <Gold.PLP.Chemscore.CHOScore>
0.0000

> <Gold.PLP.Chemscore.Metal>
0.0000

> <Gold.Chemscore.Hbonds>
donor molecule, donor type, donor heavy atom, donor atom, acceptor molecule, acceptor atom, score
      L1  H    17    40       P1 10175  1.00

> <Gold.PLP.Chemscore.Internal.Correction>
0.0270

> <Gold.Rescore>
     Score         DG    S(hbond)    S(metal)    S(lipo)     H(rot)  DE(clash)    DE(int)     intcor
      9.83     -15.86       0.96        0.00     103.12       1.92       2.23       3.80       ----

> <Gold.Chemscore.Fitness>
9.8287

> <Gold.Chemscore.DG>
-15.8561

> <Gold.Chemscore.ZeroCoef>
-5.4800

> <Gold.Chemscore.Hbond>
0.9641

> <Gold.Chemscore.Metal>
0.0000

> <Gold.Chemscore.Lipo>
103.1188

> <Gold.Chemscore.Internal_Hbond>
0.0000

> <Gold.Chemscore.DEClash>
2.2275

> <Gold.Chemscore.DEInternal>
3.7998

> <Gold.Chemscore.Rot>
1.9176

> <Gold.Chemscore.Internal.Correction>
   9.000000E+99

> <Gold.Chemscore.Hbonds>
donor molecule, donor type, donor heavy atom, donor atom, acceptor molecule, acceptor atom, score
      L1  H    17    40       P1 10175  0.74

> <Gold.Chemscore.Hbond.Weighted>
-3.2203

> <Gold.Chemscore.Metal.Weighted>
-0.0000

> <Gold.Chemscore.Lipo.Weighted>
-12.0649

> <Gold.Chemscore.Internal_Hbond.Weighted>
0.0000

> <Gold.Chemscore.DEClash.Weighted>
2.2275

> <Gold.Chemscore.DEInternal.Weighted>
3.7998

> <Gold.Chemscore.Rot.Weighted>
4.9091

> <Gold.Chemscore.Internal.Correction.Weighted>
   9.000000E+99

> <Gold.Protein.RotatedTorsions>
[ 6907 6896 6895 6894 ] final  -53.40 input  -60.11 | X-H torsion
[ 7974 7965 7964 7962 ] final  132.30 input  175.53 | X-H torsion
[ 8008 7997 7996 7995 ] final  -44.54 input   59.86 | X-H torsion
[ 10167 10162 10161 10158 ] final  -25.14 input  -65.29 | X-H torsion
[ 10718 10713 10712 10709 ] final   95.08 input   66.30 | X-H torsion
[ 10763 10752 10751 10750 ] final   29.36 input  -60.55 | X-H torsion
[ 11005 11000 10999 10996 ] final  -87.72 input  -57.11 | X-H torsion

> <Gold.Protein.ActiveResidues>
 VAL166  LYS551  ARG553  GLY616  TRP617  ASP618  TYR619  PRO620  LYS621  CYS622 
 ASP623  PHE694  ASN695  SER759  ASP760  ASP761  ALA762  ILE779  LEU786  VAL792 
 PHE793  MET794  SER795  GLU796  ALA797  LYS798  CYS799  TRP800  GLU811  SER814 

> <Gold.Protein.RotatedAtoms>
  150.8430  134.7729  159.6947 H   0  0  0  0  0  0  0  0  0  0  0  0  # atno 6907 bound_to 6896
  152.4513  134.5384  159.9841 H   0  0  0  0  0  0  0  0  0  0  0  0  # atno 6908 bound_to 6896
  151.5520  133.3378  159.2990 H   0  0  0  0  0  0  0  0  0  0  0  0  # atno 6909 bound_to 6896
  144.9983  139.4338  143.5305 H   0  0  0  0  0  0  0  0  0  0  0  0  # atno 7974 bound_to 7965
  154.3998  140.1419  156.3700 H   0  0  0  0  0  0  0  0  0  0  0  0  # atno 8008 bound_to 7997
  155.8101  140.3473  155.5432 H   0  0  0  0  0  0  0  0  0  0  0  0  # atno 8009 bound_to 7997
  155.8395  140.0924  157.1733 H   0  0  0  0  0  0  0  0  0  0  0  0  # atno 8010 bound_to 7997
  140.7287  143.4291  151.0830 H   0  0  0  0  0  0  0  0  0  0  0  0  # atno 10167 bound_to 10162
  157.6942  131.0533  150.4284 H   0  0  0  0  0  0  0  0  0  0  0  0  # atno 10718 bound_to 10713
  153.0435  135.6491  154.0879 H   0  0  0  0  0  0  0  0  0  0  0  0  # atno 10763 bound_to 10752
  154.0581  135.2890  155.3331 H   0  0  0  0  0  0  0  0  0  0  0  0  # atno 10764 bound_to 10752
  154.6675  135.5368  153.8161 H   0  0  0  0  0  0  0  0  0  0  0  0  # atno 10765 bound_to 10752
  141.1613  133.7527  156.9347 H   0  0  0  0  0  0  0  0  0  0  0  0  # atno 11005 bound_to 11000
  146.3446  139.9355  142.8748 LP  0  0  0  0  0  0  0  0  0  0  0  0  # atno 17320 bound_to 7965
  145.2189  140.9927  143.4057 LP  0  0  0  0  0  0  0  0  0  0  0  0  # atno 17321 bound_to 7965
  139.7946  143.8170  152.3156 LP  0  0  0  0  0  0  0  0  0  0  0  0  # atno 17342 bound_to 10162
  139.8166  144.7314  150.9628 LP  0  0  0  0  0  0  0  0  0  0  0  0  # atno 17343 bound_to 10162
  156.4652  130.4040  149.6551 LP  0  0  0  0  0  0  0  0  0  0  0  0  # atno 17370 bound_to 10713
  156.3652  130.7502  151.2479 LP  0  0  0  0  0  0  0  0  0  0  0  0  # atno 17371 bound_to 10713
  140.1362  134.9323  157.2405 LP  0  0  0  0  0  0  0  0  0  0  0  0  # atno 17394 bound_to 11000
  140.2892  134.3260  155.7320 LP  0  0  0  0  0  0  0  0  0  0  0  0  # atno 17395 bound_to 11000

$$$$
