AV-unprocessed.smi:2991|AV-procd|sdf|11399|dock1
  -GOLD-   2272016323D 1   1.00000     0.00000
 Structure written by MMmdl.
 38 39  0  0  0  0  0  0  0  0  2 V2000
  145.8514  130.8545  151.5808 C   0  0  0  0  0  0  0  0  0  0  0  0
  145.4153  132.2787  151.2949 C   0  0  0  0  0  0  0  0  0  0  0  0
  144.2458  132.4591  150.6425 N   0  3  0  0  0  0  0  0  0  0  0  0
  143.7597  133.6777  150.3278 C   0  0  0  0  0  0  0  0  0  0  0  0
  144.4777  134.8347  150.6873 C   0  0  0  0  0  0  0  0  0  0  0  0
  145.7030  134.7047  151.3891 C   0  0  0  0  0  0  0  0  0  0  0  0
  146.4978  135.8210  151.7727 N   0  0  0  0  0  0  0  0  0  0  0  0
  146.0925  137.0135  152.2407 C   0  0  0  0  0  0  0  0  0  0  0  0
  144.9204  137.3454  152.4179 O   0  0  0  0  0  0  0  0  0  0  0  0
  147.1377  137.8073  152.5135 N   0  0  0  0  0  0  0  0  0  0  0  0
  147.0634  139.1554  153.0767 C   0  0  2  0  0  0  0  0  0  0  0  0
  148.4800  139.7705  153.2147 C   0  0  0  0  0  0  0  0  0  0  0  0
  148.6394  140.8739  154.2817 C   0  0  0  0  0  0  0  0  0  0  0  0
  147.6436  142.0469  154.1784 C   0  0  0  0  0  0  0  0  0  0  0  0
  146.1388  141.6848  154.1840 C   0  0  0  0  0  0  0  0  0  0  0  0
  145.8274  140.4032  154.8158 N   0  0  0  0  0  0  0  0  0  0  0  0
  146.1981  139.1976  154.3511 C   0  0  0  0  0  0  0  0  0  0  0  0
  145.8790  138.1598  154.9301 O   0  0  0  0  0  0  0  0  0  0  0  0
  146.1818  133.4035  151.6822 C   0  0  0  0  0  0  0  0  0  0  0  0
  147.6851  133.1851  152.5140 Cl  0  0  0  0  0  0  0  0  0  0  0  0
  146.8132  130.6497  151.1093 H   0  0  0  0  0  0  0  0  0  0  0  0
  145.1276  130.1319  151.2017 H   0  0  0  0  0  0  0  0  0  0  0  0
  145.9544  130.6984  152.6549 H   0  0  0  0  0  0  0  0  0  0  0  0
  142.8196  133.6904  149.7955 H   0  0  0  0  0  0  0  0  0  0  0  0
  144.0814  135.7988  150.4075 H   0  0  0  0  0  0  0  0  0  0  0  0
  147.4952  135.6632  151.7683 H   0  0  0  0  0  0  0  0  0  0  0  0
  148.0663  137.4479  152.3447 H   0  0  0  0  0  0  0  0  0  0  0  0
  146.5185  139.7550  152.3463 H   0  0  0  0  0  0  0  0  0  0  0  0
  149.1948  138.9814  153.4530 H   0  0  0  0  0  0  0  0  0  0  0  0
  148.7897  140.1627  152.2452 H   0  0  0  0  0  0  0  0  0  0  0  0
  148.5697  140.4295  155.2755 H   0  0  0  0  0  0  0  0  0  0  0  0
  149.6532  141.2711  154.2224 H   0  0  0  0  0  0  0  0  0  0  0  0
  147.8377  142.7157  155.0176 H   0  0  0  0  0  0  0  0  0  0  0  0
  147.8616  142.6325  153.2846 H   0  0  0  0  0  0  0  0  0  0  0  0
  145.5792  142.4660  154.6991 H   0  0  0  0  0  0  0  0  0  0  0  0
  145.7518  141.6819  153.1644 H   0  0  0  0  0  0  0  0  0  0  0  0
  145.2730  140.4328  155.6594 H   0  0  0  0  0  0  0  0  0  0  0  0
  143.7078  131.6357  150.3711 H   0  0  0  0  0  0  0  0  0  0  0  0
  1  2  1  0  0  0  0
  1 21  1  0  0  0  0
  1 22  1  0  0  0  0
  1 23  1  0  0  0  0
  2 19  1  0  0  0  0
  2  3  2  0  0  0  0
  3  4  1  0  0  0  0
  3 38  1  0  0  0  0
  4  5  2  0  0  0  0
  4 24  1  0  0  0  0
  5  6  1  0  0  0  0
  5 25  1  0  0  0  0
  6  7  1  0  0  0  0
  6 19  2  0  0  0  0
  7  8  1  0  0  0  0
  7 26  1  0  0  0  0
  8  9  2  0  0  0  0
  8 10  1  0  0  0  0
 10 11  1  0  0  0  0
 10 27  1  0  0  0  0
 11 17  1  0  0  0  0
 11 12  1  0  0  0  0
 11 28  1  0  0  0  0
 12 13  1  0  0  0  0
 12 29  1  0  0  0  0
 12 30  1  0  0  0  0
 13 14  1  0  0  0  0
 13 31  1  0  0  0  0
 13 32  1  0  0  0  0
 14 15  1  0  0  0  0
 14 33  1  0  0  0  0
 14 34  1  0  0  0  0
 15 16  1  0  0  0  0
 15 35  1  0  0  0  0
 15 36  1  0  0  0  0
 16 17  1  0  0  0  0
 16 37  1  0  0  0  0
 17 18  2  0  0  0  0
 19 20  1  0  0  0  0
M  CHG  1   3   1
M  END
> <s_m_source_file>
AV-unprocessed.smi

> <i_m_source_file_index>
2991

> <i_lp_mmshare_version>
43012

> <i_f3d_flags>
0

> <s_epik_input>
W0NIM11jMW5bY0hdW2NIXWMoYzFDbClbTkhdQyg9TylbTkhdW0NAQEhdMltDSDJdW0NIMl1bQ0gyXVtDSDJdW05IXUMyPU8=

> <s_epik_cmdline>
J2VwaWtfcHl0aG9uJywgJy1waCcsICc3LjAnLCAnLXRuJywgJzgnLCAnLW1hJywgJzIwMCcsICctbWV0YWxfYmluZGluZycsICctaW1hZScsICc8aW5maWxlLm1hZT4nLCAnLW9tYWUnLCAnPG91dGZpbGUubWFlPic=

> <r_epik_Ionization_Penalty>
2.55031

> <r_epik_Ionization_Penalty_Charging>
2.55029

> <r_epik_Ionization_Penalty_Neutral>
1.86001e-05

> <r_epik_State_Penalty>
2.71882

> <r_epik_Charging_Adjusted_Penalty>
5.26911

> <i_epik_Tot_Q>
1

> <i_epik_Tot_abs_Q>
1

> <r_epik_Metal_State_Penalty>
2.7268

> <b_epik_Metal_Only>
0

> <s_lp_Force_Field>
OPLS_2005

> <r_lp_Energy>
25.1386

> <b_lp_Chiralities_Consistent>
1

> <s_lp_Variant>
AV-unprocessed.smi:2991-3

> <Gold.Version>
5.8.1

> <Gold.Id.Protein>
6NUR|6NUR_protein|mol2

> <Gold.PLP.Fitness>
34.0481

> <Gold.PLP.PLP>
-28.7674

> <Gold.PLP.part.hbond>
-2.1242

> <Gold.PLP.part.metal>
0.0000

> <Gold.PLP.part.buried>
3.2538

> <Gold.PLP.part.nonpolar>
-31.3387

> <Gold.PLP.part.repulsive>
0.8540

> <Gold.PLP.ligand.clash>
0.0000

> <Gold.PLP.ligand.torsion>
0.3259

> <Gold.PLP.Chemscore.Hbond>
1.9600

> <Gold.PLP.Chemscore.CHOScore>
0.0000

> <Gold.PLP.Chemscore.Metal>
0.0000

> <Gold.Chemscore.Hbonds>
donor molecule, donor type, donor heavy atom, donor atom, acceptor molecule, acceptor atom, score
      L1  H     7    26       P1  7948  1.00
      L1  H    10    27       P1  7948  0.96

> <Gold.PLP.Chemscore.Internal.Correction>
0.0525

> <Gold.Rescore>
     Score         DG    S(hbond)    S(metal)    S(lipo)     H(rot)  DE(clash)    DE(int)     intcor
     15.24     -18.98       1.89        0.00      83.34       1.00       2.69       1.04       ----

> <Gold.Chemscore.Fitness>
15.2426

> <Gold.Chemscore.DG>
-18.9762

> <Gold.Chemscore.ZeroCoef>
-5.4800

> <Gold.Chemscore.Hbond>
1.8878

> <Gold.Chemscore.Metal>
0.0000

> <Gold.Chemscore.Lipo>
83.3402

> <Gold.Chemscore.Internal_Hbond>
0.0000

> <Gold.Chemscore.DEClash>
2.6927

> <Gold.Chemscore.DEInternal>
1.0409

> <Gold.Chemscore.Rot>
1.0000

> <Gold.Chemscore.Internal.Correction>
   9.000000E+99

> <Gold.Chemscore.Hbonds>
donor molecule, donor type, donor heavy atom, donor atom, acceptor molecule, acceptor atom, score
      L1  H     7    26       P1  7948  0.89
      L1  H    10    27       P1  7948  0.89

> <Gold.Chemscore.Hbond.Weighted>
-6.3054

> <Gold.Chemscore.Metal.Weighted>
-0.0000

> <Gold.Chemscore.Lipo.Weighted>
-9.7508

> <Gold.Chemscore.Internal_Hbond.Weighted>
0.0000

> <Gold.Chemscore.DEClash.Weighted>
2.6927

> <Gold.Chemscore.DEInternal.Weighted>
1.0409

> <Gold.Chemscore.Rot.Weighted>
2.5600

> <Gold.Chemscore.Internal.Correction.Weighted>
   9.000000E+99

> <Gold.Protein.RotatedTorsions>
[ 6907 6896 6895 6894 ] final  -99.19 input  -60.11 | X-H torsion
[ 7974 7965 7964 7962 ] final   48.41 input  175.53 | X-H torsion
[ 8008 7997 7996 7995 ] final  -31.78 input   59.86 | X-H torsion
[ 10167 10162 10161 10158 ] final  -36.98 input  -65.29 | X-H torsion
[ 10718 10713 10712 10709 ] final  167.83 input   66.30 | X-H torsion
[ 10763 10752 10751 10750 ] final   85.50 input  -60.55 | X-H torsion
[ 11005 11000 10999 10996 ] final -153.66 input  -57.11 | X-H torsion

> <Gold.Protein.ActiveResidues>
 VAL166  LYS551  ARG553  GLY616  TRP617  ASP618  TYR619  PRO620  LYS621  CYS622 
 ASP623  PHE694  ASN695  SER759  ASP760  ASP761  ALA762  ILE779  LEU786  VAL792 
 PHE793  MET794  SER795  GLU796  ALA797  LYS798  CYS799  TRP800  GLU811  SER814 

> <Gold.Protein.RotatedAtoms>
  150.7071  134.1079  159.3989 H   0  0  0  0  0  0  0  0  0  0  0  0  # atno 6907 bound_to 6896
  151.9065  135.0354  160.0520 H   0  0  0  0  0  0  0  0  0  0  0  0  # atno 6908 bound_to 6896
  152.2371  133.5069  159.5285 H   0  0  0  0  0  0  0  0  0  0  0  0  # atno 6909 bound_to 6896
  146.0207  139.4648  142.9899 H   0  0  0  0  0  0  0  0  0  0  0  0  # atno 7974 bound_to 7965
  154.4202  140.1755  156.1622 H   0  0  0  0  0  0  0  0  0  0  0  0  # atno 8008 bound_to 7997
  155.9829  140.3376  155.6655 H   0  0  0  0  0  0  0  0  0  0  0  0  # atno 8009 bound_to 7997
  155.6476  140.0687  157.2588 H   0  0  0  0  0  0  0  0  0  0  0  0  # atno 8010 bound_to 7997
  140.7129  143.3372  151.2437 H   0  0  0  0  0  0  0  0  0  0  0  0  # atno 10167 bound_to 10162
  157.0459  131.0300  151.2697 H   0  0  0  0  0  0  0  0  0  0  0  0  # atno 10718 bound_to 10713
  153.1481  135.4615  154.9596 H   0  0  0  0  0  0  0  0  0  0  0  0  # atno 10763 bound_to 10752
  154.7802  135.3186  154.8008 H   0  0  0  0  0  0  0  0  0  0  0  0  # atno 10764 bound_to 10752
  153.8518  135.6921  153.4846 H   0  0  0  0  0  0  0  0  0  0  0  0  # atno 10765 bound_to 10752
  140.7057  134.3888  157.5204 H   0  0  0  0  0  0  0  0  0  0  0  0  # atno 11005 bound_to 11000
  145.7198  141.0079  143.1409 LP  0  0  0  0  0  0  0  0  0  0  0  0  # atno 17320 bound_to 7965
  144.6989  139.8856  143.7450 LP  0  0  0  0  0  0  0  0  0  0  0  0  # atno 17321 bound_to 7965
  139.6870  143.9756  152.2839 LP  0  0  0  0  0  0  0  0  0  0  0  0  # atno 17342 bound_to 10162
  139.9405  144.6684  150.8271 LP  0  0  0  0  0  0  0  0  0  0  0  0  # atno 17343 bound_to 10162
  157.5068  130.7914  149.7663 LP  0  0  0  0  0  0  0  0  0  0  0  0  # atno 17370 bound_to 10713
  156.0023  130.3873  150.2559 LP  0  0  0  0  0  0  0  0  0  0  0  0  # atno 17371 bound_to 10713
  139.8885  134.8855  156.2472 LP  0  0  0  0  0  0  0  0  0  0  0  0  # atno 17394 bound_to 11000
  141.0126  133.7087  156.1137 LP  0  0  0  0  0  0  0  0  0  0  0  0  # atno 17395 bound_to 11000

$$$$
