AV-unprocessed.smi:2252|AV-procd|sdf|9112|dock3
  -GOLD-   2272012313D 1   1.00000     0.00000
 Structure written by MMmdl.
 44 46  0  0  0  0  0  0  0  0  3 V2000
  153.3573  142.9670  159.6341 C   0  0  0  0  0  0  0  0  0  0  0  0
  152.0399  143.4195  159.2287 N   0  0  0  0  0  0  0  0  0  0  0  0
  151.6443  144.7436  159.0916 C   0  0  0  0  0  0  0  0  0  0  0  0
  150.3314  144.7236  158.6889 C   0  0  0  0  0  0  0  0  0  0  0  0
  149.9048  143.4055  158.5732 N   0  0  0  0  0  0  0  0  0  0  0  0
  150.9633  142.6693  158.9104 C   0  0  0  0  0  0  0  0  0  0  0  0
  150.9684  141.1637  158.9248 C   0  0  0  0  0  0  0  0  0  0  0  0
  151.8556  140.5172  157.8370 C   0  0  0  0  0  0  0  0  0  0  0  0
  151.0308  140.0396  156.7291 N   0  5  0  0  0  0  0  0  0  0  0  0
  151.5207  139.7249  155.4957 C   0  0  0  0  0  0  0  0  0  0  0  0
  152.6443  139.8999  155.0138 O   0  0  0  0  0  0  0  0  0  0  0  0
  150.4514  139.0481  154.6161 C   0  0  1  0  0  0  0  0  0  0  0  0
  150.3093  137.5584  155.0087 C   0  0  0  0  0  0  0  0  0  0  0  0
  150.1792  137.1507  156.4609 C   0  0  0  0  0  0  0  0  0  0  0  0
  151.4341  136.8153  155.6971 C   0  0  0  0  0  0  0  0  0  0  0  0
  149.1449  139.7647  154.6662 N   0  3  0  0  0  0  0  0  0  0  0  0
  149.2046  141.2185  154.4030 C   0  0  0  0  0  0  0  0  0  0  0  0
  147.7641  141.6144  154.1008 C   0  0  0  0  0  0  0  0  0  0  0  0
  147.2159  140.4090  153.3404 C   0  0  0  0  0  0  0  0  0  0  0  0
  148.0814  139.2214  153.7877 C   0  0  0  0  0  0  0  0  0  0  0  0
  153.9915  143.8207  159.8736 H   0  0  0  0  0  0  0  0  0  0  0  0
  153.8186  142.4016  158.8243 H   0  0  0  0  0  0  0  0  0  0  0  0
  153.2758  142.3316  160.5162 H   0  0  0  0  0  0  0  0  0  0  0  0
  152.3125  145.5696  159.2855 H   0  0  0  0  0  0  0  0  0  0  0  0
  149.6672  145.5477  158.4745 H   0  0  0  0  0  0  0  0  0  0  0  0
  151.3083  140.8430  159.9106 H   0  0  0  0  0  0  0  0  0  0  0  0
  149.9440  140.8011  158.8352 H   0  0  0  0  0  0  0  0  0  0  0  0
  152.5752  141.2574  157.4865 H   0  0  0  0  0  0  0  0  0  0  0  0
  152.4531  139.7194  158.2800 H   0  0  0  0  0  0  0  0  0  0  0  0
  150.8053  139.0935  153.5844 H   0  0  0  0  0  0  0  0  0  0  0  0
  149.7081  136.9767  154.3117 H   0  0  0  0  0  0  0  0  0  0  0  0
  150.2453  137.9323  157.2155 H   0  0  0  0  0  0  0  0  0  0  0  0
  149.4952  136.3368  156.6920 H   0  0  0  0  0  0  0  0  0  0  0  0
  151.5912  135.7755  155.4179 H   0  0  0  0  0  0  0  0  0  0  0  0
  152.3347  137.3715  155.9490 H   0  0  0  0  0  0  0  0  0  0  0  0
  149.6139  141.7739  155.2476 H   0  0  0  0  0  0  0  0  0  0  0  0
  149.8330  141.4109  153.5320 H   0  0  0  0  0  0  0  0  0  0  0  0
  147.2152  141.7430  155.0347 H   0  0  0  0  0  0  0  0  0  0  0  0
  147.6892  142.5440  153.5360 H   0  0  0  0  0  0  0  0  0  0  0  0
  146.1558  140.2484  153.5395 H   0  0  0  0  0  0  0  0  0  0  0  0
  147.3300  140.5634  152.2665 H   0  0  0  0  0  0  0  0  0  0  0  0
  148.5092  138.7377  152.9089 H   0  0  0  0  0  0  0  0  0  0  0  0
  147.4990  138.4760  154.3300 H   0  0  0  0  0  0  0  0  0  0  0  0
  148.8092  139.6704  155.6146 H   0  0  0  0  0  0  0  0  0  0  0  0
  1  2  1  0  0  0  0
  1 21  1  0  0  0  0
  1 22  1  0  0  0  0
  1 23  1  0  0  0  0
  2  6  1  0  0  0  0
  2  3  1  0  0  0  0
  3  4  2  0  0  0  0
  3 24  1  0  0  0  0
  4  5  1  0  0  0  0
  4 25  1  0  0  0  0
  5  6  2  0  0  0  0
  6  7  1  0  0  0  0
  7  8  1  0  0  0  0
  7 26  1  0  0  0  0
  7 27  1  0  0  0  0
  8  9  1  0  0  0  0
  8 28  1  0  0  0  0
  8 29  1  0  0  0  0
  9 10  1  0  0  0  0
 10 11  2  0  0  0  0
 10 12  1  0  0  0  0
 12 13  1  0  0  0  0
 12 16  1  0  0  0  0
 12 30  1  0  0  0  0
 13 15  1  0  0  0  0
 13 14  1  0  0  0  0
 13 31  1  0  0  0  0
 14 15  1  0  0  0  0
 14 32  1  0  0  0  0
 14 33  1  0  0  0  0
 15 34  1  0  0  0  0
 15 35  1  0  0  0  0
 16 20  1  0  0  0  0
 16 17  1  0  0  0  0
 16 44  1  0  0  0  0
 17 18  1  0  0  0  0
 17 36  1  0  0  0  0
 17 37  1  0  0  0  0
 18 19  1  0  0  0  0
 18 38  1  0  0  0  0
 18 39  1  0  0  0  0
 19 20  1  0  0  0  0
 19 40  1  0  0  0  0
 19 41  1  0  0  0  0
 20 42  1  0  0  0  0
 20 43  1  0  0  0  0
M  CHG  1   9  -1
M  CHG  1  16   1
M  END
> <s_m_source_file>
AV-unprocessed.smi

> <i_m_source_file_index>
2252

> <i_lp_mmshare_version>
43012

> <i_f3d_flags>
0

> <s_epik_input>
W0NIM11uMVtjSF1bY0hdbmMxW0NIMl1bQ0gyXVtOSF1DKD1PKVtDQEhdKFtDSF0yW0NIMl1bQ0gyXTIpTjNbQ0gyXVtDSDJdW0NIMl1bQ0gyXTM=

> <s_epik_cmdline>
J2VwaWtfcHl0aG9uJywgJy1waCcsICc3LjAnLCAnLXRuJywgJzgnLCAnLW1hJywgJzIwMCcsICctbWV0YWxfYmluZGluZycsICctaW1hZScsICc8aW5maWxlLm1hZT4nLCAnLW9tYWUnLCAnPG91dGZpbGUubWFlPic=

> <r_lp_tautomer_probability>
1

> <r_epik_Ionization_Penalty>
7.86289

> <r_epik_Ionization_Penalty_Charging>
7.86289

> <r_epik_Ionization_Penalty_Neutral>
4.79398e-13

> <r_epik_State_Penalty>
7.18546

> <r_epik_Charging_Adjusted_Penalty>
15.0484

> <i_epik_Tot_Q>
0

> <i_epik_Tot_abs_Q>
2

> <r_epik_Metal_State_Penalty>
3.4294

> <b_epik_Metal_Only>
1

> <s_lp_Force_Field>
OPLS_2005

> <r_lp_Energy>
30.1163

> <b_lp_Chiralities_Consistent>
1

> <s_lp_Variant>
AV-unprocessed.smi:2252-10

> <Gold.Version>
5.8.1

> <Gold.Id.Protein>
6NUR|6NUR_protein|mol2

> <Gold.PLP.Fitness>
46.0292

> <Gold.PLP.PLP>
-41.4825

> <Gold.PLP.part.hbond>
-2.0000

> <Gold.PLP.part.metal>
0.0000

> <Gold.PLP.part.buried>
-2.4628

> <Gold.PLP.part.nonpolar>
-36.8467

> <Gold.PLP.part.repulsive>
0.2665

> <Gold.PLP.ligand.clash>
0.0000

> <Gold.PLP.ligand.torsion>
1.5017

> <Gold.PLP.Chemscore.Hbond>
1.0824

> <Gold.PLP.Chemscore.CHOScore>
1.0000

> <Gold.PLP.Chemscore.Metal>
0.0000

> <Gold.Chemscore.Hbonds>
donor molecule, donor type, donor heavy atom, donor atom, acceptor molecule, acceptor atom, score
      P1  H  7989  7998       L1    11  0.16
      P1  H  7997  8010       L1    11  0.99
      L1  C     4    25       P1  8029  1.00

> <Gold.PLP.Chemscore.Internal.Correction>
1.3030

> <Gold.Rescore>
     Score         DG    S(hbond)    S(metal)    S(lipo)     H(rot)  DE(clash)    DE(int)     intcor
     13.07     -15.43       1.00        0.00      97.73       1.88       0.07       2.29       ----

> <Gold.Chemscore.Fitness>
13.0682

> <Gold.Chemscore.DG>
-15.4305

> <Gold.Chemscore.ZeroCoef>
-5.4800

> <Gold.Chemscore.Hbond>
0.9978

> <Gold.Chemscore.Metal>
0.0000

> <Gold.Chemscore.Lipo>
97.7287

> <Gold.Chemscore.Internal_Hbond>
0.0000

> <Gold.Chemscore.DEClash>
0.0718

> <Gold.Chemscore.DEInternal>
2.2905

> <Gold.Chemscore.Rot>
1.8814

> <Gold.Chemscore.Internal.Correction>
   9.000000E+99

> <Gold.Chemscore.Hbonds>
donor molecule, donor type, donor heavy atom, donor atom, acceptor molecule, acceptor atom, score
      P1  H  7997  8010       L1    11  0.92

> <Gold.Chemscore.Hbond.Weighted>
-3.3325

> <Gold.Chemscore.Metal.Weighted>
-0.0000

> <Gold.Chemscore.Lipo.Weighted>
-11.4343

> <Gold.Chemscore.Internal_Hbond.Weighted>
0.0000

> <Gold.Chemscore.DEClash.Weighted>
0.0718

> <Gold.Chemscore.DEInternal.Weighted>
2.2905

> <Gold.Chemscore.Rot.Weighted>
4.8163

> <Gold.Chemscore.Internal.Correction.Weighted>
   9.000000E+99

> <Gold.Protein.RotatedTorsions>
[ 6907 6896 6895 6894 ] final  -75.73 input  -60.11 | X-H torsion
[ 7974 7965 7964 7962 ] final -160.33 input  175.53 | X-H torsion
[ 8008 7997 7996 7995 ] final  107.03 input   59.86 | X-H torsion
[ 10167 10162 10161 10158 ] final    1.59 input  -65.29 | X-H torsion
[ 10718 10713 10712 10709 ] final  116.53 input   66.30 | X-H torsion
[ 10763 10752 10751 10750 ] final -174.51 input  -60.55 | X-H torsion
[ 11005 11000 10999 10996 ] final -175.01 input  -57.11 | X-H torsion

> <Gold.Protein.ActiveResidues>
 VAL166  LYS551  ARG553  GLY616  TRP617  ASP618  TYR619  PRO620  LYS621  CYS622 
 ASP623  PHE694  ASN695  SER759  ASP760  ASP761  ALA762  ILE779  LEU786  VAL792 
 PHE793  MET794  SER795  GLU796  ALA797  LYS798  CYS799  TRP800  GLU811  SER814 

> <Gold.Protein.RotatedAtoms>
  150.7049  134.4677  159.5410 H   0  0  0  0  0  0  0  0  0  0  0  0  # atno 6907 bound_to 6896
  152.2340  134.8292  160.0479 H   0  0  0  0  0  0  0  0  0  0  0  0  # atno 6908 bound_to 6896
  151.9097  133.3523  159.3896 H   0  0  0  0  0  0  0  0  0  0  0  0  # atno 6909 bound_to 6896
  144.7431  140.3557  143.6106 H   0  0  0  0  0  0  0  0  0  0  0  0  # atno 7974 bound_to 7965
  156.1791  140.3102  155.9115 H   0  0  0  0  0  0  0  0  0  0  0  0  # atno 8008 bound_to 7997
  155.3423  140.0466  157.3062 H   0  0  0  0  0  0  0  0  0  0  0  0  # atno 8009 bound_to 7997
  154.5323  140.2234  155.8794 H   0  0  0  0  0  0  0  0  0  0  0  0  # atno 8010 bound_to 7997
  140.6676  143.7138  150.7857 H   0  0  0  0  0  0  0  0  0  0  0  0  # atno 10167 bound_to 10162
  157.6154  131.1026  150.7486 H   0  0  0  0  0  0  0  0  0  0  0  0  # atno 10718 bound_to 10713
  154.5954  135.2849  155.0592 H   0  0  0  0  0  0  0  0  0  0  0  0  # atno 10763 bound_to 10752
  154.1876  135.6446  153.5055 H   0  0  0  0  0  0  0  0  0  0  0  0  # atno 10764 bound_to 10752
  153.0136  135.5438  154.6654 H   0  0  0  0  0  0  0  0  0  0  0  0  # atno 10765 bound_to 10752
  140.4681  134.6191  157.4871 H   0  0  0  0  0  0  0  0  0  0  0  0  # atno 11005 bound_to 11000
  145.7229  139.1715  143.2474 LP  0  0  0  0  0  0  0  0  0  0  0  0  # atno 17320 bound_to 7965
  146.1263  140.7243  142.9433 LP  0  0  0  0  0  0  0  0  0  0  0  0  # atno 17321 bound_to 7965
  140.0818  143.4962  152.2526 LP  0  0  0  0  0  0  0  0  0  0  0  0  # atno 17342 bound_to 10162
  139.5930  144.7557  151.3354 LP  0  0  0  0  0  0  0  0  0  0  0  0  # atno 17343 bound_to 10162
  156.7854  130.4873  149.5394 LP  0  0  0  0  0  0  0  0  0  0  0  0  # atno 17370 bound_to 10713
  156.1274  130.6154  151.0284 LP  0  0  0  0  0  0  0  0  0  0  0  0  # atno 17371 bound_to 10713
  139.9902  134.6997  155.9702 LP  0  0  0  0  0  0  0  0  0  0  0  0  # atno 17394 bound_to 11000
  141.1590  133.6540  156.4255 LP  0  0  0  0  0  0  0  0  0  0  0  0  # atno 17395 bound_to 11000

$$$$
