AV-unprocessed.smi:844|AV-procd|sdf|3924|dock1
  -GOLD-   22720 1383D 1   1.00000     0.00000
 Structure written by MMmdl.
 32 34  0  0  0  0  0  0  0  0  1 V2000
  152.1552  143.5106  157.7187 O   0  0  0  0  0  0  0  0  0  0  0  0
  151.7484  142.4606  158.5730 C   0  0  1  0  0  0  0  0  0  0  0  0
  152.1669  141.1258  157.9247 C   0  0  0  0  0  0  0  0  0  0  0  0
  151.3881  140.8238  156.7370 N   0  0  0  0  0  0  0  0  0  0  0  0
  151.8124  140.1807  155.6323 C   0  0  0  0  0  0  0  0  0  0  0  0
  150.9351  140.0190  154.6458 N   0  0  0  0  0  0  0  0  0  0  0  0
  149.8089  140.6290  155.1712 C   0  0  0  0  0  0  0  0  0  0  0  0
  148.5205  140.8078  154.6185 C   0  0  0  0  0  0  0  0  0  0  0  0
  147.5159  141.4759  155.3494 C   0  0  0  0  0  0  0  0  0  0  0  0
  147.7823  141.9732  156.6417 C   0  0  0  0  0  0  0  0  0  0  0  0
  149.0577  141.8054  157.2138 C   0  0  0  0  0  0  0  0  0  0  0  0
  150.0581  141.1400  156.4807 C   0  0  0  0  0  0  0  0  0  0  0  0
  152.3016  142.6178  159.9856 C   0  0  0  0  0  0  0  0  0  0  0  0
  153.0965  141.5987  160.5568 C   0  0  0  0  0  0  0  0  0  0  0  0
  153.5875  141.7295  161.8699 C   0  0  0  0  0  0  0  0  0  0  0  0
  153.2867  142.8797  162.6229 C   0  0  0  0  0  0  0  0  0  0  0  0
  153.7577  143.0047  163.8863 F   0  0  0  0  0  0  0  0  0  0  0  0
  152.4940  143.8988  162.0619 C   0  0  0  0  0  0  0  0  0  0  0  0
  152.0011  143.7700  160.7487 C   0  0  0  0  0  0  0  0  0  0  0  0
  151.2283  144.7548  160.2304 F   0  0  0  0  0  0  0  0  0  0  0  0
  151.4178  143.7651  157.1853 H   0  0  0  0  0  0  0  0  0  0  0  0
  150.6595  142.5086  158.6093 H   0  0  0  0  0  0  0  0  0  0  0  0
  153.2177  141.1636  157.6332 H   0  0  0  0  0  0  0  0  0  0  0  0
  152.0702  140.3009  158.6318 H   0  0  0  0  0  0  0  0  0  0  0  0
  152.8250  139.8145  155.5455 H   0  0  0  0  0  0  0  0  0  0  0  0
  148.3054  140.4317  153.6292 H   0  0  0  0  0  0  0  0  0  0  0  0
  146.5355  141.6080  154.9157 H   0  0  0  0  0  0  0  0  0  0  0  0
  147.0068  142.4841  157.1933 H   0  0  0  0  0  0  0  0  0  0  0  0
  149.2660  142.1879  158.2019 H   0  0  0  0  0  0  0  0  0  0  0  0
  153.3261  140.7069  159.9921 H   0  0  0  0  0  0  0  0  0  0  0  0
  154.1929  140.9453  162.3004 H   0  0  0  0  0  0  0  0  0  0  0  0
  152.2604  144.7797  162.6411 H   0  0  0  0  0  0  0  0  0  0  0  0
  1  2  1  0  0  0  0
  1 21  1  0  0  0  0
  2  3  1  0  0  0  0
  2 13  1  0  0  0  0
  2 22  1  0  0  0  0
  3  4  1  0  0  0  0
  3 23  1  0  0  0  0
  3 24  1  0  0  0  0
  4 12  1  0  0  0  0
  4  5  1  0  0  0  0
  5  6  2  0  0  0  0
  5 25  1  0  0  0  0
  6  7  1  0  0  0  0
  7 12  2  0  0  0  0
  7  8  1  0  0  0  0
  8  9  2  0  0  0  0
  8 26  1  0  0  0  0
  9 10  1  0  0  0  0
  9 27  1  0  0  0  0
 10 11  2  0  0  0  0
 10 28  1  0  0  0  0
 11 12  1  0  0  0  0
 11 29  1  0  0  0  0
 13 19  1  0  0  0  0
 13 14  2  0  0  0  0
 14 15  1  0  0  0  0
 14 30  1  0  0  0  0
 15 16  2  0  0  0  0
 15 31  1  0  0  0  0
 16 17  1  0  0  0  0
 16 18  1  0  0  0  0
 18 19  2  0  0  0  0
 18 32  1  0  0  0  0
 19 20  1  0  0  0  0
M  END
> <s_m_source_file>
AV-unprocessed.smi

> <i_m_source_file_index>
844

> <i_lp_mmshare_version>
43012

> <i_f3d_flags>
0

> <s_epik_input>
RmMxW2NIXWMoRilbY0hdW2NIXWMxW0NASF0oW09IXSlbQ0gyXW4oW2NIXW4yKWMoYzIzKVtjSF1bY0hdW2NIXVtjSF0z

> <s_epik_cmdline>
J2VwaWtfcHl0aG9uJywgJy1waCcsICc3LjAnLCAnLXRuJywgJzgnLCAnLW1hJywgJzIwMCcsICctbWV0YWxfYmluZGluZycsICctaW1hZScsICc8aW5maWxlLm1hZT4nLCAnLW9tYWUnLCAnPG91dGZpbGUubWFlPic=

> <r_epik_Ionization_Penalty>
0.0696514

> <r_epik_Ionization_Penalty_Charging>
0

> <r_epik_Ionization_Penalty_Neutral>
0.0696514

> <r_epik_State_Penalty>
0.0610247

> <r_epik_Charging_Adjusted_Penalty>
0.0610247

> <i_epik_Tot_Q>
0

> <i_epik_Tot_abs_Q>
0

> <r_epik_Metal_State_Penalty>
6.42746e-05

> <b_epik_Metal_Only>
0

> <s_lp_Force_Field>
OPLS_2005

> <r_lp_Energy>
12.0275

> <b_lp_Chiralities_Consistent>
1

> <s_lp_Variant>
AV-unprocessed.smi:844-2

> <Gold.Version>
5.8.1

> <Gold.Id.Protein>
6NUR|6NUR_protein|mol2

> <Gold.PLP.Fitness>
49.3597

> <Gold.PLP.PLP>
-47.1998

> <Gold.PLP.part.hbond>
-1.0000

> <Gold.PLP.part.metal>
0.0000

> <Gold.PLP.part.buried>
-2.9002

> <Gold.PLP.part.nonpolar>
-42.2355

> <Gold.PLP.part.repulsive>
0.0810

> <Gold.PLP.ligand.clash>
0.0000

> <Gold.PLP.ligand.torsion>
0.4410

> <Gold.PLP.Chemscore.Hbond>
1.0000

> <Gold.PLP.Chemscore.CHOScore>
0.0000

> <Gold.PLP.Chemscore.Metal>
0.0000

> <Gold.Chemscore.Hbonds>
donor molecule, donor type, donor heavy atom, donor atom, acceptor molecule, acceptor atom, score
      P1  H  7989  7998       L1     6  1.00

> <Gold.PLP.Chemscore.Internal.Correction>
0.0418

> <Gold.Rescore>
     Score         DG    S(hbond)    S(metal)    S(lipo)     H(rot)  DE(clash)    DE(int)     intcor
     15.60     -16.71       0.81        0.00     116.83       2.00       0.50       0.61       ----

> <Gold.Chemscore.Fitness>
15.5987

> <Gold.Chemscore.DG>
-16.7083

> <Gold.Chemscore.ZeroCoef>
-5.4800

> <Gold.Chemscore.Hbond>
0.8053

> <Gold.Chemscore.Metal>
0.0000

> <Gold.Chemscore.Lipo>
116.8272

> <Gold.Chemscore.Internal_Hbond>
0.0000

> <Gold.Chemscore.DEClash>
0.5009

> <Gold.Chemscore.DEInternal>
0.6087

> <Gold.Chemscore.Rot>
2.0040

> <Gold.Chemscore.Internal.Correction>
   9.000000E+99

> <Gold.Chemscore.Hbonds>
donor molecule, donor type, donor heavy atom, donor atom, acceptor molecule, acceptor atom, score
      P1  H  7989  7998       L1     6  0.21

> <Gold.Chemscore.Hbond.Weighted>
-2.6899

> <Gold.Chemscore.Metal.Weighted>
-0.0000

> <Gold.Chemscore.Lipo.Weighted>
-13.6688

> <Gold.Chemscore.Internal_Hbond.Weighted>
0.0000

> <Gold.Chemscore.DEClash.Weighted>
0.5009

> <Gold.Chemscore.DEInternal.Weighted>
0.6087

> <Gold.Chemscore.Rot.Weighted>
5.1303

> <Gold.Chemscore.Internal.Correction.Weighted>
   9.000000E+99

> <Gold.Protein.RotatedTorsions>
[ 6907 6896 6895 6894 ] final  145.18 input  -60.11 | X-H torsion
[ 7974 7965 7964 7962 ] final   90.31 input  175.53 | X-H torsion
[ 8008 7997 7996 7995 ] final  -18.11 input   59.86 | X-H torsion
[ 10167 10162 10161 10158 ] final  179.16 input  -65.29 | X-H torsion
[ 10718 10713 10712 10709 ] final  135.88 input   66.30 | X-H torsion
[ 10763 10752 10751 10750 ] final -175.39 input  -60.55 | X-H torsion
[ 11005 11000 10999 10996 ] final -110.57 input  -57.11 | X-H torsion

> <Gold.Protein.ActiveResidues>
 VAL166  LYS551  ARG553  GLY616  TRP617  ASP618  TYR619  PRO620  LYS621  CYS622 
 ASP623  PHE694  ASN695  SER759  ASP760  ASP761  ALA762  ILE779  LEU786  VAL792 
 PHE793  MET794  SER795  GLU796  ALA797  LYS798  CYS799  TRP800  GLU811  SER814 

> <Gold.Protein.RotatedAtoms>
  152.1841  133.4728  159.4973 H   0  0  0  0  0  0  0  0  0  0  0  0  # atno 6907 bound_to 6896
  150.6939  134.1796  159.4252 H   0  0  0  0  0  0  0  0  0  0  0  0  # atno 6908 bound_to 6896
  151.9708  135.0077  160.0603 H   0  0  0  0  0  0  0  0  0  0  0  0  # atno 6909 bound_to 6896
  145.5207  139.2279  143.2673 H   0  0  0  0  0  0  0  0  0  0  0  0  # atno 7974 bound_to 7965
  154.4929  140.2124  155.9509 H   0  0  0  0  0  0  0  0  0  0  0  0  # atno 8008 bound_to 7997
  156.1331  140.3193  155.8347 H   0  0  0  0  0  0  0  0  0  0  0  0  # atno 8009 bound_to 7997
  155.4260  140.0500  157.3013 H   0  0  0  0  0  0  0  0  0  0  0  0  # atno 8010 bound_to 7997
  139.5324  144.2594  152.0719 H   0  0  0  0  0  0  0  0  0  0  0  0  # atno 10167 bound_to 10162
  157.4524  131.1067  151.0017 H   0  0  0  0  0  0  0  0  0  0  0  0  # atno 10718 bound_to 10713
  154.5849  135.2839  155.0695 H   0  0  0  0  0  0  0  0  0  0  0  0  # atno 10763 bound_to 10752
  154.2017  135.6423  153.5093 H   0  0  0  0  0  0  0  0  0  0  0  0  # atno 10764 bound_to 10752
  153.0101  135.5470  154.6516 H   0  0  0  0  0  0  0  0  0  0  0  0  # atno 10765 bound_to 10752
  141.0784  133.9262  157.2341 H   0  0  0  0  0  0  0  0  0  0  0  0  # atno 11005 bound_to 11000
  146.2108  140.6019  142.9060 LP  0  0  0  0  0  0  0  0  0  0  0  0  # atno 17320 bound_to 7965
  144.7678  140.5569  143.6691 LP  0  0  0  0  0  0  0  0  0  0  0  0  # atno 17321 bound_to 7965
  140.2059  144.4611  150.6409 LP  0  0  0  0  0  0  0  0  0  0  0  0  # atno 17342 bound_to 10162
  140.6511  143.2225  151.6075 LP  0  0  0  0  0  0  0  0  0  0  0  0  # atno 17343 bound_to 10162
  157.0843  130.5916  149.5426 LP  0  0  0  0  0  0  0  0  0  0  0  0  # atno 17370 bound_to 10713
  155.9993  130.5068  150.7601 LP  0  0  0  0  0  0  0  0  0  0  0  0  # atno 17371 bound_to 10713
  139.9597  135.0157  156.9226 LP  0  0  0  0  0  0  0  0  0  0  0  0  # atno 17394 bound_to 11000
  140.5523  134.0615  155.7373 LP  0  0  0  0  0  0  0  0  0  0  0  0  # atno 17395 bound_to 11000

$$$$
