AV-unprocessed.smi:2802|AV-procd|sdf|10803|dock2
  -GOLD-   2272015233D 1   1.00000     0.00000
 Structure written by MMmdl.
 47 48  0  0  0  0  0  0  0  0  1 V2000
  148.1950  140.3476  154.1438 C   0  0  0  0  0  0  0  0  0  0  0  0
  148.9456  139.3006  154.9799 C   0  0  2  0  0  0  0  0  0  0  0  0
  150.4144  139.1834  154.5329 C   0  0  0  0  0  0  0  0  0  0  0  0
  151.2226  138.1377  155.3357 C   0  0  0  0  0  0  0  0  0  0  0  0
  152.5769  137.9203  154.6303 C   0  0  0  0  0  0  0  0  0  0  0  0
  151.5354  138.6549  156.7580 C   0  0  0  0  0  0  0  0  0  0  0  0
  150.4596  136.7823  155.3523 C   0  0  0  0  0  0  0  0  0  0  0  0
  148.9507  136.8278  155.7406 C   0  0  1  0  0  0  0  0  0  0  0  0
  148.3062  135.4509  155.4161 C   0  0  0  0  0  0  0  0  0  0  0  0
  147.9892  135.3167  154.0438 O   0  0  0  0  0  0  0  0  0  0  0  0
  148.7636  137.1441  157.1653 N   0  0  0  0  0  0  0  0  0  0  0  0
  149.0995  136.4147  158.2444 C   0  0  0  0  0  0  0  0  0  0  0  0
  149.6377  135.3090  158.1866 O   0  0  0  0  0  0  0  0  0  0  0  0
  148.7738  137.0466  159.6014 C   0  0  0  0  0  0  0  0  0  0  0  0
  148.1047  136.0493  160.5320 C   0  0  0  0  0  0  0  0  0  0  0  0
  147.8865  136.3586  161.8910 C   0  0  0  0  0  0  0  0  0  0  0  0
  147.2639  135.4002  162.7136 C   0  0  0  0  0  0  0  0  0  0  0  0
  146.8827  134.1706  162.1401 C   0  0  0  0  0  0  0  0  0  0  0  0
  147.0852  133.8635  160.8407 N   0  0  0  0  0  0  0  0  0  0  0  0
  147.6854  134.7871  160.0593 C   0  0  0  0  0  0  0  0  0  0  0  0
  148.2533  137.9267  154.8996 C   0  0  0  0  0  0  0  0  0  0  0  0
  148.1739  140.0728  153.0887 H   0  0  0  0  0  0  0  0  0  0  0  0
  148.6679  141.3269  154.2233 H   0  0  0  0  0  0  0  0  0  0  0  0
  147.1634  140.4531  154.4805 H   0  0  0  0  0  0  0  0  0  0  0  0
  148.9176  139.6451  156.0133 H   0  0  0  0  0  0  0  0  0  0  0  0
  150.4312  138.9162  153.4748 H   0  0  0  0  0  0  0  0  0  0  0  0
  150.9002  140.1580  154.6008 H   0  0  0  0  0  0  0  0  0  0  0  0
  153.1871  137.1878  155.1602 H   0  0  0  0  0  0  0  0  0  0  0  0
  153.1507  138.8462  154.5746 H   0  0  0  0  0  0  0  0  0  0  0  0
  152.4465  137.5588  153.6096 H   0  0  0  0  0  0  0  0  0  0  0  0
  152.0508  137.8969  157.3488 H   0  0  0  0  0  0  0  0  0  0  0  0
  150.6460  138.9489  157.3109 H   0  0  0  0  0  0  0  0  0  0  0  0
  152.1807  139.5333  156.7232 H   0  0  0  0  0  0  0  0  0  0  0  0
  150.5155  136.3669  154.3447 H   0  0  0  0  0  0  0  0  0  0  0  0
  150.9974  136.0652  155.9727 H   0  0  0  0  0  0  0  0  0  0  0  0
  148.9902  134.6428  155.6778 H   0  0  0  0  0  0  0  0  0  0  0  0
  147.4032  135.2799  156.0017 H   0  0  0  0  0  0  0  0  0  0  0  0
  148.5690  135.8732  153.5464 H   0  0  0  0  0  0  0  0  0  0  0  0
  148.3221  138.0332  157.3493 H   0  0  0  0  0  0  0  0  0  0  0  0
  149.6840  137.4197  160.0738 H   0  0  0  0  0  0  0  0  0  0  0  0
  148.1225  137.9070  159.4447 H   0  0  0  0  0  0  0  0  0  0  0  0
  148.1922  137.3115  162.2971 H   0  0  0  0  0  0  0  0  0  0  0  0
  147.0829  135.6020  163.7590 H   0  0  0  0  0  0  0  0  0  0  0  0
  146.4008  133.4138  162.7411 H   0  0  0  0  0  0  0  0  0  0  0  0
  147.8356  134.5094  159.0265 H   0  0  0  0  0  0  0  0  0  0  0  0
  147.2127  138.0306  155.2102 H   0  0  0  0  0  0  0  0  0  0  0  0
  148.2217  137.6132  153.8550 H   0  0  0  0  0  0  0  0  0  0  0  0
  1  2  1  0  0  0  0
  1 22  1  0  0  0  0
  1 23  1  0  0  0  0
  1 24  1  0  0  0  0
  2 21  1  0  0  0  0
  2  3  1  0  0  0  0
  2 25  1  0  0  0  0
  3  4  1  0  0  0  0
  3 26  1  0  0  0  0
  3 27  1  0  0  0  0
  4  5  1  0  0  0  0
  4  6  1  0  0  0  0
  4  7  1  0  0  0  0
  5 28  1  0  0  0  0
  5 29  1  0  0  0  0
  5 30  1  0  0  0  0
  6 31  1  0  0  0  0
  6 32  1  0  0  0  0
  6 33  1  0  0  0  0
  7  8  1  0  0  0  0
  7 34  1  0  0  0  0
  7 35  1  0  0  0  0
  8  9  1  0  0  0  0
  8 11  1  0  0  0  0
  8 21  1  0  0  0  0
  9 10  1  0  0  0  0
  9 36  1  0  0  0  0
  9 37  1  0  0  0  0
 10 38  1  0  0  0  0
 11 12  1  0  0  0  0
 11 39  1  0  0  0  0
 12 13  2  0  0  0  0
 12 14  1  0  0  0  0
 14 15  1  0  0  0  0
 14 40  1  0  0  0  0
 14 41  1  0  0  0  0
 15 20  1  0  0  0  0
 15 16  2  0  0  0  0
 16 17  1  0  0  0  0
 16 42  1  0  0  0  0
 17 18  2  0  0  0  0
 17 43  1  0  0  0  0
 18 19  1  0  0  0  0
 18 44  1  0  0  0  0
 19 20  2  0  0  0  0
 20 45  1  0  0  0  0
 21 46  1  0  0  0  0
 21 47  1  0  0  0  0
M  END
> <s_m_source_file>
AV-unprocessed.smi

> <i_m_source_file_index>
2802

> <i_lp_mmshare_version>
43012

> <i_f3d_flags>
0

> <s_epik_input>
W0NIM11DMShbQ0gzXSlbQ0gyXVtDQEBIXShbQ0gzXSlbQ0gyXVtDQF0oW0NIMl0xKShbQ0gyXVtPSF0pW05IXUMoPU8pW0NIMl1jMltjSF1bY0hdW2NIXW5bY0hdMg==

> <s_epik_cmdline>
J2VwaWtfcHl0aG9uJywgJy1waCcsICc3LjAnLCAnLXRuJywgJzgnLCAnLW1hJywgJzIwMCcsICctbWV0YWxfYmluZGluZycsICctaW1hZScsICc8aW5maWxlLm1hZT4nLCAnLW9tYWUnLCAnPG91dGZpbGUubWFlPic=

> <r_epik_Ionization_Penalty>
0.004793

> <r_epik_Ionization_Penalty_Charging>
0

> <r_epik_Ionization_Penalty_Neutral>
0.004793

> <r_epik_State_Penalty>
0.00347421

> <r_epik_Charging_Adjusted_Penalty>
0.00347421

> <i_epik_Tot_Q>
0

> <i_epik_Tot_abs_Q>
0

> <r_epik_Metal_State_Penalty>
-0

> <b_epik_Metal_Only>
0

> <s_lp_Force_Field>
OPLS_2005

> <r_lp_Energy>
18.2871

> <b_lp_Chiralities_Consistent>
1

> <s_lp_Variant>
AV-unprocessed.smi:2802-1

> <Gold.Version>
5.8.1

> <Gold.Id.Protein>
6NUR|6NUR_protein|mol2

> <Gold.PLP.Fitness>
39.1429

> <Gold.PLP.PLP>
-34.9696

> <Gold.PLP.part.hbond>
-2.0000

> <Gold.PLP.part.metal>
0.0000

> <Gold.PLP.part.buried>
-4.4239

> <Gold.PLP.part.nonpolar>
-29.6853

> <Gold.PLP.part.repulsive>
0.0000

> <Gold.PLP.ligand.clash>
0.0000

> <Gold.PLP.ligand.torsion>
0.6075

> <Gold.PLP.Chemscore.Hbond>
1.7840

> <Gold.PLP.Chemscore.CHOScore>
0.0000

> <Gold.PLP.Chemscore.Metal>
0.0000

> <Gold.Chemscore.Hbonds>
donor molecule, donor type, donor heavy atom, donor atom, acceptor molecule, acceptor atom, score
      L1  H    10    38       P1  7948  0.78
      P1  H  6896  6909       L1    13  1.00

> <Gold.PLP.Chemscore.Internal.Correction>
0.0363

> <Gold.Rescore>
     Score         DG    S(hbond)    S(metal)    S(lipo)     H(rot)  DE(clash)    DE(int)     intcor
     15.25     -17.49       1.92        0.00      91.67       2.00       0.12       2.12       ----

> <Gold.Chemscore.Fitness>
15.2500

> <Gold.Chemscore.DG>
-17.4850

> <Gold.Chemscore.ZeroCoef>
-5.4800

> <Gold.Chemscore.Hbond>
1.9182

> <Gold.Chemscore.Metal>
0.0000

> <Gold.Chemscore.Lipo>
91.6661

> <Gold.Chemscore.Internal_Hbond>
0.0000

> <Gold.Chemscore.DEClash>
0.1155

> <Gold.Chemscore.DEInternal>
2.1195

> <Gold.Chemscore.Rot>
2.0026

> <Gold.Chemscore.Internal.Correction>
   9.000000E+99

> <Gold.Chemscore.Hbonds>
donor molecule, donor type, donor heavy atom, donor atom, acceptor molecule, acceptor atom, score
      L1  H    10    38       P1  7948  0.78
      P1  H  6896  6909       L1    13  0.98

> <Gold.Chemscore.Hbond.Weighted>
-6.4067

> <Gold.Chemscore.Metal.Weighted>
-0.0000

> <Gold.Chemscore.Lipo.Weighted>
-10.7249

> <Gold.Chemscore.Internal_Hbond.Weighted>
0.0000

> <Gold.Chemscore.DEClash.Weighted>
0.1155

> <Gold.Chemscore.DEInternal.Weighted>
2.1195

> <Gold.Chemscore.Rot.Weighted>
5.1267

> <Gold.Chemscore.Internal.Correction.Weighted>
   9.000000E+99

> <Gold.Protein.RotatedTorsions>
[ 6907 6896 6895 6894 ] final   47.48 input  -60.11 | X-H torsion
[ 7974 7965 7964 7962 ] final   -3.45 input  175.53 | X-H torsion
[ 8008 7997 7996 7995 ] final -130.40 input   59.86 | X-H torsion
[ 10167 10162 10161 10158 ] final  -66.82 input  -65.29 | X-H torsion
[ 10718 10713 10712 10709 ] final  -26.45 input   66.30 | X-H torsion
[ 10763 10752 10751 10750 ] final -121.99 input  -60.55 | X-H torsion
[ 11005 11000 10999 10996 ] final   88.69 input  -57.11 | X-H torsion

> <Gold.Protein.ActiveResidues>
 VAL166  LYS551  ARG553  GLY616  TRP617  ASP618  TYR619  PRO620  LYS621  CYS622 
 ASP623  PHE694  ASN695  SER759  ASP760  ASP761  ALA762  ILE779  LEU786  VAL792 
 PHE793  MET794  SER795  GLU796  ALA797  LYS798  CYS799  TRP800  GLU811  SER814 

> <Gold.Protein.RotatedAtoms>
  152.2686  134.7957  160.0417 H   0  0  0  0  0  0  0  0  0  0  0  0  # atno 6907 bound_to 6896
  151.8578  133.3446  159.3702 H   0  0  0  0  0  0  0  0  0  0  0  0  # atno 6908 bound_to 6896
  150.7143  134.5163  159.5676 H   0  0  0  0  0  0  0  0  0  0  0  0  # atno 6909 bound_to 6896
  146.2389  140.1723  142.8332 H   0  0  0  0  0  0  0  0  0  0  0  0  # atno 7974 bound_to 7965
  155.2952  140.0450  157.3026 H   0  0  0  0  0  0  0  0  0  0  0  0  # atno 8008 bound_to 7997
  154.5518  140.2320  155.8440 H   0  0  0  0  0  0  0  0  0  0  0  0  # atno 8009 bound_to 7997
  156.1973  140.3035  155.9461 H   0  0  0  0  0  0  0  0  0  0  0  0  # atno 8010 bound_to 7997
  140.5629  143.2313  151.6692 H   0  0  0  0  0  0  0  0  0  0  0  0  # atno 10167 bound_to 10162
  156.4510  130.4484  149.6990 H   0  0  0  0  0  0  0  0  0  0  0  0  # atno 10718 bound_to 10713
  154.8680  135.4148  154.2710 H   0  0  0  0  0  0  0  0  0  0  0  0  # atno 10763 bound_to 10752
  153.3620  135.7004  153.6710 H   0  0  0  0  0  0  0  0  0  0  0  0  # atno 10764 bound_to 10752
  153.5607  135.3610  155.2770 H   0  0  0  0  0  0  0  0  0  0  0  0  # atno 10765 bound_to 10752
  139.8891  134.8504  156.3037 H   0  0  0  0  0  0  0  0  0  0  0  0  # atno 11005 bound_to 11000
  145.0002  140.8625  143.5286 LP  0  0  0  0  0  0  0  0  0  0  0  0  # atno 17320 bound_to 7965
  145.1741  139.2388  143.5326 LP  0  0  0  0  0  0  0  0  0  0  0  0  # atno 17321 bound_to 7965
  139.5079  144.3631  152.0543 LP  0  0  0  0  0  0  0  0  0  0  0  0  # atno 17342 bound_to 10162
  140.2760  144.3912  150.6135 LP  0  0  0  0  0  0  0  0  0  0  0  0  # atno 17343 bound_to 10162
  156.3816  130.7582  151.2575 LP  0  0  0  0  0  0  0  0  0  0  0  0  # atno 17370 bound_to 10713
  157.7503  131.0294  150.4091 LP  0  0  0  0  0  0  0  0  0  0  0  0  # atno 17371 bound_to 10713
  140.9896  133.7216  156.0794 LP  0  0  0  0  0  0  0  0  0  0  0  0  # atno 17394 bound_to 11000
  140.7642  134.3905  157.5520 LP  0  0  0  0  0  0  0  0  0  0  0  0  # atno 17395 bound_to 11000

$$$$
