AV-unprocessed.smi:119|AV-procd|sdf|1136|dock3
  -GOLD-   2262018263D 1   1.00000     0.00000
 Structure written by MMmdl.
 51 54  0  0  0  0  0  0  0  0  1 V2000
  150.8275  138.1012  157.3619 C   0  0  0  0  0  0  0  0  0  0  0  0
  150.8245  139.6353  157.3711 C   0  0  1  0  0  0  0  0  0  0  0  0
  149.4698  140.1905  156.8945 C   0  0  0  0  0  0  0  0  0  0  0  0
  149.4635  141.7055  156.6187 C   0  0  0  0  0  0  0  0  0  0  0  0
  149.5311  142.5101  157.8458 N   0  0  0  0  0  0  0  0  0  0  0  0
  148.4367  142.8880  158.5574 C   0  0  0  0  0  0  0  0  0  0  0  0
  148.5309  143.5287  159.6078 O   0  0  0  0  0  0  0  0  0  0  0  0
  147.0307  142.5075  158.0417 C   0  0  0  0  0  0  0  0  0  0  0  0
  145.9399  143.2963  158.6571 N   0  0  0  0  0  0  0  0  0  0  0  0
  145.7836  143.2514  160.0640 C   0  0  0  0  0  0  0  0  0  0  0  0
  146.5299  142.5695  160.7682 O   0  0  0  0  0  0  0  0  0  0  0  0
  144.6972  144.0613  160.6012 C   0  0  0  0  0  0  0  0  0  0  0  0
  144.4636  144.0657  161.9247 F   0  0  0  0  0  0  0  0  0  0  0  0
  143.9151  144.8048  159.7913 C   0  0  0  0  0  0  0  0  0  0  0  0
  144.0843  144.8504  158.4173 N   0  0  0  0  0  0  0  0  0  0  0  0
  143.2368  145.7152  157.5043 C   0  0  1  0  0  0  0  0  0  0  0  0
  143.9999  146.7374  156.6572 C   0  0  0  0  0  0  0  0  0  0  0  0
  142.9808  146.9810  155.5688 C   0  0  0  0  0  0  0  0  0  0  0  0
  142.4344  145.5712  155.3437 C   0  0  0  0  0  0  0  0  0  0  0  0
  142.5881  144.8864  156.5865 O   0  0  0  0  0  0  0  0  0  0  0  0
  145.1160  144.0891  157.8229 C   0  0  0  0  0  0  0  0  0  0  0  0
  145.2950  144.1189  156.6031 O   0  0  0  0  0  0  0  0  0  0  0  0
  150.8298  142.8845  158.2870 C   0  0  0  0  0  0  0  0  0  0  0  0
  151.2359  144.2335  158.1735 C   0  0  0  0  0  0  0  0  0  0  0  0
  152.5166  144.6292  158.6034 C   0  0  0  0  0  0  0  0  0  0  0  0
  153.4000  143.6791  159.1492 C   0  0  0  0  0  0  0  0  0  0  0  0
  153.0024  142.3337  159.2649 C   0  0  0  0  0  0  0  0  0  0  0  0
  151.7233  141.9304  158.8324 C   0  0  0  0  0  0  0  0  0  0  0  0
  151.2629  140.2355  159.0273 S   0  0  0  0  0  0  0  0  0  0  0  0
  150.6308  137.7125  156.3623 H   0  0  0  0  0  0  0  0  0  0  0  0
  150.0671  137.6996  158.0324 H   0  0  0  0  0  0  0  0  0  0  0  0
  151.7939  137.7096  157.6809 H   0  0  0  0  0  0  0  0  0  0  0  0
  151.6051  139.9725  156.6881 H   0  0  0  0  0  0  0  0  0  0  0  0
  149.2016  139.6879  155.9646 H   0  0  0  0  0  0  0  0  0  0  0  0
  148.6901  139.9240  157.6083 H   0  0  0  0  0  0  0  0  0  0  0  0
  150.3112  141.9573  155.9796 H   0  0  0  0  0  0  0  0  0  0  0  0
  148.5910  141.9694  156.0220 H   0  0  0  0  0  0  0  0  0  0  0  0
  147.0151  142.6187  156.9570 H   0  0  0  0  0  0  0  0  0  0  0  0
  146.8551  141.4446  158.2046 H   0  0  0  0  0  0  0  0  0  0  0  0
  143.1265  145.3626  160.2683 H   0  0  0  0  0  0  0  0  0  0  0  0
  142.5078  146.2005  158.1568 H   0  0  0  0  0  0  0  0  0  0  0  0
  144.2692  147.6232  157.2330 H   0  0  0  0  0  0  0  0  0  0  0  0
  144.8852  146.2951  156.2016 H   0  0  0  0  0  0  0  0  0  0  0  0
  142.1917  147.6410  155.9322 H   0  0  0  0  0  0  0  0  0  0  0  0
  143.4092  147.4216  154.6681 H   0  0  0  0  0  0  0  0  0  0  0  0
  141.3927  145.5806  155.0215 H   0  0  0  0  0  0  0  0  0  0  0  0
  143.0188  145.0479  154.5859 H   0  0  0  0  0  0  0  0  0  0  0  0
  150.5634  144.9693  157.7567 H   0  0  0  0  0  0  0  0  0  0  0  0
  152.8200  145.6621  158.5163 H   0  0  0  0  0  0  0  0  0  0  0  0
  154.3817  143.9827  159.4814 H   0  0  0  0  0  0  0  0  0  0  0  0
  153.6833  141.6101  159.6892 H   0  0  0  0  0  0  0  0  0  0  0  0
  1  2  1  0  0  0  0
  1 30  1  0  0  0  0
  1 31  1  0  0  0  0
  1 32  1  0  0  0  0
  2 29  1  0  0  0  0
  2  3  1  0  0  0  0
  2 33  1  0  0  0  0
  3  4  1  0  0  0  0
  3 34  1  0  0  0  0
  3 35  1  0  0  0  0
  4  5  1  0  0  0  0
  4 36  1  0  0  0  0
  4 37  1  0  0  0  0
  5  6  1  0  0  0  0
  5 23  1  0  0  0  0
  6  7  2  0  0  0  0
  6  8  1  0  0  0  0
  8  9  1  0  0  0  0
  8 38  1  0  0  0  0
  8 39  1  0  0  0  0
  9 21  1  0  0  0  0
  9 10  1  0  0  0  0
 10 11  2  0  0  0  0
 10 12  1  0  0  0  0
 12 13  1  0  0  0  0
 12 14  2  0  0  0  0
 14 15  1  0  0  0  0
 14 40  1  0  0  0  0
 15 16  1  0  0  0  0
 15 21  1  0  0  0  0
 16 20  1  0  0  0  0
 16 17  1  0  0  0  0
 16 41  1  0  0  0  0
 17 18  1  0  0  0  0
 17 42  1  0  0  0  0
 17 43  1  0  0  0  0
 18 19  1  0  0  0  0
 18 44  1  0  0  0  0
 18 45  1  0  0  0  0
 19 20  1  0  0  0  0
 19 46  1  0  0  0  0
 19 47  1  0  0  0  0
 21 22  2  0  0  0  0
 23 28  2  0  0  0  0
 23 24  1  0  0  0  0
 24 25  2  0  0  0  0
 24 48  1  0  0  0  0
 25 26  1  0  0  0  0
 25 49  1  0  0  0  0
 26 27  2  0  0  0  0
 26 50  1  0  0  0  0
 27 28  1  0  0  0  0
 27 51  1  0  0  0  0
 28 29  1  0  0  0  0
M  END
> <s_m_source_file>
AV-unprocessed.smi

> <i_m_source_file_index>
119

> <i_lp_mmshare_version>
43012

> <i_f3d_flags>
0

> <s_epik_input>
W2NIXTFbY0hdW2NIXVtjSF1jKGMxMilTW0NASF0oW0NIM10pW0NIMl1bQ0gyXU4yQyg9TylbQ0gyXW4zYyg9TyljKEYpW2NIXW4oYzM9TylbQ0BASF00W0NIMl1bQ0gyXVtDSDJdTzQ=

> <s_epik_cmdline>
J2VwaWtfcHl0aG9uJywgJy1waCcsICc3LjAnLCAnLXRuJywgJzgnLCAnLW1hJywgJzIwMCcsICctbWV0YWxfYmluZGluZycsICctaW1hZScsICc8aW5maWxlLm1hZT4nLCAnLW9tYWUnLCAnPG91dGZpbGUubWFlPic=

> <r_lp_tautomer_probability>
1

> <r_epik_Ionization_Penalty>
1.68882e-06

> <r_epik_Ionization_Penalty_Charging>
3.67303e-09

> <r_epik_Ionization_Penalty_Neutral>
1.68515e-06

> <r_epik_State_Penalty>
-0

> <r_epik_Charging_Adjusted_Penalty>
3.67303e-09

> <i_epik_Tot_Q>
0

> <i_epik_Tot_abs_Q>
0

> <r_epik_Metal_State_Penalty>
-0

> <b_epik_Metal_Only>
0

> <s_epik_Chemistry_Notes>
This compound contains an acetal/aminal-like group ( X-CH(R)-Y where X, Y are N, S, or O) that may be acid/base labile, releasing an aldehyde.

> <s_lp_Force_Field>
OPLS_2005

> <r_lp_Energy>
51.7973

> <b_lp_Chiralities_Consistent>
1

> <s_lp_Variant>
AV-unprocessed.smi:119-4

> <Gold.Version>
5.8.1

> <Gold.Id.Protein>
6NUR|6NUR_protein|mol2

> <Gold.PLP.Fitness>
49.2334

> <Gold.PLP.PLP>
-44.7141

> <Gold.PLP.part.hbond>
-3.0000

> <Gold.PLP.part.metal>
0.0000

> <Gold.PLP.part.buried>
-3.8709

> <Gold.PLP.part.nonpolar>
-37.2762

> <Gold.PLP.part.repulsive>
0.2959

> <Gold.PLP.ligand.clash>
0.0000

> <Gold.PLP.ligand.torsion>
0.2397

> <Gold.PLP.Chemscore.Hbond>
1.6618

> <Gold.PLP.Chemscore.CHOScore>
0.0000

> <Gold.PLP.Chemscore.Metal>
0.0000

> <Gold.Chemscore.Hbonds>
donor molecule, donor type, donor heavy atom, donor atom, acceptor molecule, acceptor atom, score
      P1  H  6933  6944       L1    11  0.64
      P1  H  6934  6946       L1    11  0.99

> <Gold.PLP.Chemscore.Internal.Correction>
0.0135

> <Gold.Rescore>
     Score         DG    S(hbond)    S(metal)    S(lipo)     H(rot)  DE(clash)    DE(int)     intcor
     13.31     -20.61       1.65        0.00     115.56       1.53       0.03       7.28       ----

> <Gold.Chemscore.Fitness>
13.3051

> <Gold.Chemscore.DG>
-20.6095

> <Gold.Chemscore.ZeroCoef>
-5.4800

> <Gold.Chemscore.Hbond>
1.6519

> <Gold.Chemscore.Metal>
0.0000

> <Gold.Chemscore.Lipo>
115.5582

> <Gold.Chemscore.Internal_Hbond>
0.0000

> <Gold.Chemscore.DEClash>
0.0280

> <Gold.Chemscore.DEInternal>
7.2764

> <Gold.Chemscore.Rot>
1.5266

> <Gold.Chemscore.Internal.Correction>
   9.000000E+99

> <Gold.Chemscore.Hbonds>
donor molecule, donor type, donor heavy atom, donor atom, acceptor molecule, acceptor atom, score
      P1  H  6933  6944       L1    11  0.62
      P1  H  6934  6946       L1    11  0.94

> <Gold.Chemscore.Hbond.Weighted>
-5.5173

> <Gold.Chemscore.Metal.Weighted>
-0.0000

> <Gold.Chemscore.Lipo.Weighted>
-13.5203

> <Gold.Chemscore.Internal_Hbond.Weighted>
0.0000

> <Gold.Chemscore.DEClash.Weighted>
0.0280

> <Gold.Chemscore.DEInternal.Weighted>
7.2764

> <Gold.Chemscore.Rot.Weighted>
3.9081

> <Gold.Chemscore.Internal.Correction.Weighted>
   9.000000E+99

> <Gold.Protein.RotatedTorsions>
[ 6907 6896 6895 6894 ] final    1.38 input  -60.11 | X-H torsion
[ 7974 7965 7964 7962 ] final  164.63 input  175.53 | X-H torsion
[ 8008 7997 7996 7995 ] final  -50.22 input   59.86 | X-H torsion
[ 10167 10162 10161 10158 ] final  -15.73 input  -65.29 | X-H torsion
[ 10718 10713 10712 10709 ] final  -87.58 input   66.30 | X-H torsion
[ 10763 10752 10751 10750 ] final  168.27 input  -60.55 | X-H torsion
[ 11005 11000 10999 10996 ] final  -36.73 input  -57.11 | X-H torsion

> <Gold.Protein.ActiveResidues>
 VAL166  LYS551  ARG553  GLY616  TRP617  ASP618  TYR619  PRO620  LYS621  CYS622 
 ASP623  PHE694  ASN695  SER759  ASP760  ASP761  ALA762  ILE779  LEU786  VAL792 
 PHE793  MET794  SER795  GLU796  ALA797  LYS798  CYS799  TRP800  GLU811  SER814 

> <Gold.Protein.RotatedAtoms>
  151.5916  135.1053  160.0040 H   0  0  0  0  0  0  0  0  0  0  0  0  # atno 6907 bound_to 6896
  152.4303  133.7262  159.6572 H   0  0  0  0  0  0  0  0  0  0  0  0  # atno 6908 bound_to 6896
  150.8195  133.8207  159.3168 H   0  0  0  0  0  0  0  0  0  0  0  0  # atno 6909 bound_to 6896
  144.7537  139.8353  143.6357 H   0  0  0  0  0  0  0  0  0  0  0  0  # atno 7974 bound_to 7965
  154.4058  140.1277  156.4630 H   0  0  0  0  0  0  0  0  0  0  0  0  # atno 8008 bound_to 7997
  155.7254  140.3492  155.5015 H   0  0  0  0  0  0  0  0  0  0  0  0  # atno 8009 bound_to 7997
  155.9176  140.1047  157.1222 H   0  0  0  0  0  0  0  0  0  0  0  0  # atno 8010 bound_to 7997
  140.7223  143.5189  150.9658 H   0  0  0  0  0  0  0  0  0  0  0  0  # atno 10167 bound_to 10162
  155.9985  130.4805  150.4889 H   0  0  0  0  0  0  0  0  0  0  0  0  # atno 10718 bound_to 10713
  154.3661  135.2753  155.2293 H   0  0  0  0  0  0  0  0  0  0  0  0  # atno 10763 bound_to 10752
  154.4460  135.5942  153.6164 H   0  0  0  0  0  0  0  0  0  0  0  0  # atno 10764 bound_to 10752
  152.9841  135.6030  154.3887 H   0  0  0  0  0  0  0  0  0  0  0  0  # atno 10765 bound_to 10752
  140.9897  133.7011  156.1829 H   0  0  0  0  0  0  0  0  0  0  0  0  # atno 11005 bound_to 11000
  146.1520  139.4606  143.0042 LP  0  0  0  0  0  0  0  0  0  0  0  0  # atno 17320 bound_to 7965
  145.6854  141.0179  143.1584 LP  0  0  0  0  0  0  0  0  0  0  0  0  # atno 17321 bound_to 7965
  139.8905  143.6959  152.3146 LP  0  0  0  0  0  0  0  0  0  0  0  0  # atno 17342 bound_to 10162
  139.7273  144.7590  151.0858 LP  0  0  0  0  0  0  0  0  0  0  0  0  # atno 17343 bound_to 10162
  157.2886  131.0621  151.2149 LP  0  0  0  0  0  0  0  0  0  0  0  0  # atno 17370 bound_to 10713
  157.3169  130.6918  149.6247 LP  0  0  0  0  0  0  0  0  0  0  0  0  # atno 17371 bound_to 10713
  140.7058  134.4514  157.5584 LP  0  0  0  0  0  0  0  0  0  0  0  0  # atno 17394 bound_to 11000
  139.8987  134.8608  156.1992 LP  0  0  0  0  0  0  0  0  0  0  0  0  # atno 17395 bound_to 11000

$$$$
