AV-unprocessed.smi:1221|AV-procd|sdf|5118|dock8
  -GOLD-   22720 4173D 1   1.00000     0.00000
 Structure written by MMmdl.
 40 41  0  0  0  0  0  0  0  0  1 V2000
  147.0854  129.7904  153.0858 C   0  0  0  0  0  0  0  0  0  0  0  0
  147.8162  130.9855  153.5943 C   0  0  0  0  0  0  0  0  0  0  0  0
  147.8364  132.2967  153.2094 C   0  0  0  0  0  0  0  0  0  0  0  0
  148.7476  132.8848  154.1265 C   0  0  0  0  0  0  0  0  0  0  0  0
  149.0523  134.2685  154.0634 N   0  0  0  0  0  0  0  0  0  0  0  0
  149.6308  135.0225  155.0135 C   0  0  0  0  0  0  0  0  0  0  0  0
  149.9960  134.6159  156.1170 O   0  0  0  0  0  0  0  0  0  0  0  0
  149.7699  136.2938  154.6106 N   0  0  0  0  0  0  0  0  0  0  0  0
  150.3657  137.3580  155.4087 C   0  0  0  0  0  0  0  0  0  0  0  0
  151.0669  138.4037  154.5215 C   0  0  0  0  0  0  0  0  0  0  0  0
  150.7809  139.7676  154.9831 N   0  0  0  0  0  0  0  0  0  0  0  0
  149.6503  140.4536  154.3360 C   0  0  0  0  0  0  0  0  0  0  0  0
  148.4259  140.6436  155.2620 C   0  0  0  0  0  0  0  0  0  0  0  0
  148.7232  140.7876  156.7678 C   0  0  0  0  0  0  0  0  0  0  0  0
  149.7656  141.8669  157.1267 C   0  0  0  0  0  0  0  0  0  0  0  0
  151.1328  141.7720  156.4082 C   0  0  0  0  0  0  0  0  0  0  0  0
  151.5161  140.3520  155.9614 C   0  0  0  0  0  0  0  0  0  0  0  0
  152.4685  139.7960  156.5092 O   0  0  0  0  0  0  0  0  0  0  0  0
  149.2391  132.0118  154.9924 N   0  0  0  0  0  0  0  0  0  0  0  0
  148.6434  130.7903  154.6569 O   0  0  0  0  0  0  0  0  0  0  0  0
  146.7292  129.9556  152.0689 H   0  0  0  0  0  0  0  0  0  0  0  0
  146.2234  129.5699  153.7153 H   0  0  0  0  0  0  0  0  0  0  0  0
  147.7329  128.9134  153.0781 H   0  0  0  0  0  0  0  0  0  0  0  0
  147.2870  132.7576  152.4021 H   0  0  0  0  0  0  0  0  0  0  0  0
  148.8056  134.7326  153.2020 H   0  0  0  0  0  0  0  0  0  0  0  0
  149.4433  136.5429  153.6885 H   0  0  0  0  0  0  0  0  0  0  0  0
  149.5733  137.8348  155.9865 H   0  0  0  0  0  0  0  0  0  0  0  0
  151.0611  136.9307  156.1334 H   0  0  0  0  0  0  0  0  0  0  0  0
  152.1453  138.2350  154.5196 H   0  0  0  0  0  0  0  0  0  0  0  0
  150.7594  138.2714  153.4838 H   0  0  0  0  0  0  0  0  0  0  0  0
  149.9856  141.4221  153.9640 H   0  0  0  0  0  0  0  0  0  0  0  0
  149.3269  139.9251  153.4388 H   0  0  0  0  0  0  0  0  0  0  0  0
  147.8546  141.5064  154.9180 H   0  0  0  0  0  0  0  0  0  0  0  0
  147.7635  139.7862  155.1378 H   0  0  0  0  0  0  0  0  0  0  0  0
  147.7921  141.0105  157.2893 H   0  0  0  0  0  0  0  0  0  0  0  0
  149.0445  139.8244  157.1665 H   0  0  0  0  0  0  0  0  0  0  0  0
  149.3384  142.8504  156.9286 H   0  0  0  0  0  0  0  0  0  0  0  0
  149.9331  141.8334  158.2039 H   0  0  0  0  0  0  0  0  0  0  0  0
  151.1477  142.4320  155.5411 H   0  0  0  0  0  0  0  0  0  0  0  0
  151.9104  142.1612  157.0667 H   0  0  0  0  0  0  0  0  0  0  0  0
  1  2  1  0  0  0  0
  1 21  1  0  0  0  0
  1 22  1  0  0  0  0
  1 23  1  0  0  0  0
  2 20  1  0  0  0  0
  2  3  2  0  0  0  0
  3  4  1  0  0  0  0
  3 24  1  0  0  0  0
  4  5  1  0  0  0  0
  4 19  2  0  0  0  0
  5  6  1  0  0  0  0
  5 25  1  0  0  0  0
  6  7  2  0  0  0  0
  6  8  1  0  0  0  0
  8  9  1  0  0  0  0
  8 26  1  0  0  0  0
  9 10  1  0  0  0  0
  9 27  1  0  0  0  0
  9 28  1  0  0  0  0
 10 11  1  0  0  0  0
 10 29  1  0  0  0  0
 10 30  1  0  0  0  0
 11 17  1  0  0  0  0
 11 12  1  0  0  0  0
 12 13  1  0  0  0  0
 12 31  1  0  0  0  0
 12 32  1  0  0  0  0
 13 14  1  0  0  0  0
 13 33  1  0  0  0  0
 13 34  1  0  0  0  0
 14 15  1  0  0  0  0
 14 35  1  0  0  0  0
 14 36  1  0  0  0  0
 15 16  1  0  0  0  0
 15 37  1  0  0  0  0
 15 38  1  0  0  0  0
 16 17  1  0  0  0  0
 16 39  1  0  0  0  0
 16 40  1  0  0  0  0
 17 18  2  0  0  0  0
 19 20  1  0  0  0  0
M  END
> <s_m_source_file>
AV-unprocessed.smi

> <i_m_source_file_index>
1221

> <i_lp_mmshare_version>
43012

> <i_f3d_flags>
0

> <s_epik_input>
W0NIM11jMVtjSF1jKG5vMSlbTkhdQyg9TylbTkhdW0NIMl1bQ0gyXU4yW0NIMl1bQ0gyXVtDSDJdW0NIMl1bQ0gyXUMyPU8=

> <s_epik_cmdline>
J2VwaWtfcHl0aG9uJywgJy1waCcsICc3LjAnLCAnLXRuJywgJzgnLCAnLW1hJywgJzIwMCcsICctbWV0YWxfYmluZGluZycsICctaW1hZScsICc8aW5maWxlLm1hZT4nLCAnLW9tYWUnLCAnPG91dGZpbGUubWFlPic=

> <r_lp_tautomer_probability>
1

> <r_epik_Ionization_Penalty>
2.943e-05

> <r_epik_Ionization_Penalty_Charging>
0

> <r_epik_Ionization_Penalty_Neutral>
2.943e-05

> <r_epik_State_Penalty>
-0

> <r_epik_Charging_Adjusted_Penalty>
0

> <i_epik_Tot_Q>
0

> <i_epik_Tot_abs_Q>
0

> <r_epik_Metal_State_Penalty>
0.0104721

> <b_epik_Metal_Only>
0

> <s_lp_Force_Field>
OPLS_2005

> <r_lp_Energy>
18.1231

> <b_lp_Chiralities_Consistent>
1

> <s_lp_Variant>
AV-unprocessed.smi:1221-1

> <Gold.Version>
5.8.1

> <Gold.Id.Protein>
6NUR|6NUR_protein|mol2

> <Gold.PLP.Fitness>
40.7187

> <Gold.PLP.PLP>
-33.5460

> <Gold.PLP.part.hbond>
-3.0000

> <Gold.PLP.part.metal>
0.0000

> <Gold.PLP.part.buried>
-3.4843

> <Gold.PLP.part.nonpolar>
-26.7190

> <Gold.PLP.part.repulsive>
0.1315

> <Gold.PLP.ligand.clash>
0.0000

> <Gold.PLP.ligand.torsion>
0.9061

> <Gold.PLP.Chemscore.Hbond>
2.9920

> <Gold.PLP.Chemscore.CHOScore>
0.0000

> <Gold.PLP.Chemscore.Metal>
0.0000

> <Gold.Chemscore.Hbonds>
donor molecule, donor type, donor heavy atom, donor atom, acceptor molecule, acceptor atom, score
      L1  H     5    25       P1  7948  0.95
      L1  H     8    26       P1  7948  1.00
      P1  H  7997  8009       L1    18  1.00

> <Gold.PLP.Chemscore.Internal.Correction>
0.0089

> <Gold.Rescore>
     Score         DG    S(hbond)    S(metal)    S(lipo)     H(rot)  DE(clash)    DE(int)     intcor
     14.11     -16.21       2.60        0.00      53.07       1.63       0.03       2.08       ----

> <Gold.Chemscore.Fitness>
14.1056

> <Gold.Chemscore.DG>
-16.2096

> <Gold.Chemscore.ZeroCoef>
-5.4800

> <Gold.Chemscore.Hbond>
2.6002

> <Gold.Chemscore.Metal>
0.0000

> <Gold.Chemscore.Lipo>
53.0684

> <Gold.Chemscore.Internal_Hbond>
0.0000

> <Gold.Chemscore.DEClash>
0.0270

> <Gold.Chemscore.DEInternal>
2.0770

> <Gold.Chemscore.Rot>
1.6266

> <Gold.Chemscore.Internal.Correction>
   9.000000E+99

> <Gold.Chemscore.Hbonds>
donor molecule, donor type, donor heavy atom, donor atom, acceptor molecule, acceptor atom, score
      L1  H     5    25       P1  7948  0.20
      L1  H     8    26       P1  7948  0.80
      P1  H  7997  8009       L1    18  0.96

> <Gold.Chemscore.Hbond.Weighted>
-8.6847

> <Gold.Chemscore.Metal.Weighted>
-0.0000

> <Gold.Chemscore.Lipo.Weighted>
-6.2090

> <Gold.Chemscore.Internal_Hbond.Weighted>
0.0000

> <Gold.Chemscore.DEClash.Weighted>
0.0270

> <Gold.Chemscore.DEInternal.Weighted>
2.0770

> <Gold.Chemscore.Rot.Weighted>
4.1641

> <Gold.Chemscore.Internal.Correction.Weighted>
   9.000000E+99

> <Gold.Protein.RotatedTorsions>
[ 6907 6896 6895 6894 ] final -146.31 input  -60.11 | X-H torsion
[ 7974 7965 7964 7962 ] final -104.42 input  175.53 | X-H torsion
[ 8008 7997 7996 7995 ] final -150.83 input   59.86 | X-H torsion
[ 10167 10162 10161 10158 ] final  -59.76 input  -65.29 | X-H torsion
[ 10718 10713 10712 10709 ] final  137.80 input   66.30 | X-H torsion
[ 10763 10752 10751 10750 ] final  -29.57 input  -60.55 | X-H torsion
[ 11005 11000 10999 10996 ] final  -42.41 input  -57.11 | X-H torsion

> <Gold.Protein.ActiveResidues>
 VAL166  LYS551  ARG553  GLY616  TRP617  ASP618  TYR619  PRO620  LYS621  CYS622 
 ASP623  PHE694  ASN695  SER759  ASP760  ASP761  ALA762  ILE779  LEU786  VAL792 
 PHE793  MET794  SER795  GLU796  ALA797  LYS798  CYS799  TRP800  GLU811  SER814 

> <Gold.Protein.RotatedAtoms>
  151.1398  133.4979  159.2596 H   0  0  0  0  0  0  0  0  0  0  0  0  # atno 6907 bound_to 6896
  151.1667  135.0298  159.8744 H   0  0  0  0  0  0  0  0  0  0  0  0  # atno 6908 bound_to 6896
  152.5462  134.1266  159.8475 H   0  0  0  0  0  0  0  0  0  0  0  0  # atno 6909 bound_to 6896
  145.2434  140.9213  143.3137 H   0  0  0  0  0  0  0  0  0  0  0  0  # atno 7974 bound_to 7965
  155.6298  140.0690  157.2652 H   0  0  0  0  0  0  0  0  0  0  0  0  # atno 8008 bound_to 7997
  154.4209  140.1769  156.1509 H   0  0  0  0  0  0  0  0  0  0  0  0  # atno 8009 bound_to 7997
  155.9942  140.3342  155.6786 H   0  0  0  0  0  0  0  0  0  0  0  0  # atno 8010 bound_to 7997
  140.6115  143.2388  151.5699 H   0  0  0  0  0  0  0  0  0  0  0  0  # atno 10167 bound_to 10162
  157.4322  131.1049  151.0238 H   0  0  0  0  0  0  0  0  0  0  0  0  # atno 10718 bound_to 10713
  153.7668  135.6915  153.4914 H   0  0  0  0  0  0  0  0  0  0  0  0  # atno 10763 bound_to 10752
  153.1901  135.4474  155.0137 H   0  0  0  0  0  0  0  0  0  0  0  0  # atno 10764 bound_to 10752
  154.8132  135.3387  154.7180 H   0  0  0  0  0  0  0  0  0  0  0  0  # atno 10765 bound_to 10752
  141.0314  133.6818  156.2591 H   0  0  0  0  0  0  0  0  0  0  0  0  # atno 11005 bound_to 11000
  144.9568  139.4023  143.6375 LP  0  0  0  0  0  0  0  0  0  0  0  0  # atno 17320 bound_to 7965
  146.3322  139.8602  142.8857 LP  0  0  0  0  0  0  0  0  0  0  0  0  # atno 17321 bound_to 7965
  139.5365  144.2767  152.1261 LP  0  0  0  0  0  0  0  0  0  0  0  0  # atno 17342 bound_to 10162
  140.1968  144.4698  150.6451 LP  0  0  0  0  0  0  0  0  0  0  0  0  # atno 17343 bound_to 10162
  157.1130  130.6029  149.5486 LP  0  0  0  0  0  0  0  0  0  0  0  0  # atno 17370 bound_to 10713
  155.9917  130.4973  150.7311 LP  0  0  0  0  0  0  0  0  0  0  0  0  # atno 17371 bound_to 10713
  140.6400  134.5175  157.5568 LP  0  0  0  0  0  0  0  0  0  0  0  0  # atno 17394 bound_to 11000
  139.9210  134.8149  156.1211 LP  0  0  0  0  0  0  0  0  0  0  0  0  # atno 17395 bound_to 11000

$$$$
