AV-unprocessed.smi:3329|AV-procd|sdf|12799|dock10
  -GOLD-   2272019163D 1   1.00000     0.00000
 Structure written by MMmdl.
 41 42  0  0  0  0  0  0  0  0  3 V2000
  146.3709  133.0809  151.2267 C   0  0  0  0  0  0  0  0  0  0  0  0
  145.8013  134.4014  151.6595 C   0  0  0  0  0  0  0  0  0  0  0  0
  144.4752  134.8833  151.4686 C   0  0  0  0  0  0  0  0  0  0  0  0
  144.2894  136.0913  151.9758 N   0  0  0  0  0  0  0  0  0  0  0  0
  145.4854  136.4221  152.5065 N   0  0  0  0  0  0  0  0  0  0  0  0
  145.6520  137.7051  153.1650 C   0  0  0  0  0  0  0  0  0  0  0  0
  146.6510  138.6124  152.4287 C   0  0  0  0  0  0  0  0  0  0  0  0
  146.6227  139.9885  152.9614 N   0  3  0  0  0  0  0  0  0  0  0  0
  147.0554  140.1026  154.3671 C   0  0  0  0  0  0  0  0  0  0  0  0
  148.2795  141.0188  154.4612 C   0  0  0  0  0  0  0  0  0  0  0  0
  148.9137  141.3014  153.4439 O   0  0  0  0  0  0  0  0  0  0  0  0
  148.5054  141.4106  155.7380 N   0  5  0  0  0  0  0  0  0  0  0  0
  149.7922  141.2297  156.4223 C   0  0  1  0  0  0  0  0  0  0  0  0
  149.5905  140.3818  157.6950 C   0  0  0  0  0  0  0  0  0  0  0  0
  150.7721  140.5856  155.5244 C   0  0  0  0  0  0  0  0  0  0  0  0
  151.5410  140.0809  154.8211 N   0  0  0  0  0  0  0  0  0  0  0  0
  150.3820  142.5873  156.8170 C   0  0  0  0  0  0  0  0  0  0  0  0
  151.4502  142.7723  157.8717 C   0  0  0  0  0  0  0  0  0  0  0  0
  150.0460  143.2967  158.1093 C   0  0  0  0  0  0  0  0  0  0  0  0
  146.4179  135.4225  152.3256 C   0  0  0  0  0  0  0  0  0  0  0  0
  146.1919  132.8932  150.1679 H   0  0  0  0  0  0  0  0  0  0  0  0
  145.9272  132.2528  151.7796 H   0  0  0  0  0  0  0  0  0  0  0  0
  147.4488  133.0314  151.3838 H   0  0  0  0  0  0  0  0  0  0  0  0
  143.6461  134.3924  150.9803 H   0  0  0  0  0  0  0  0  0  0  0  0
  144.6787  138.1917  153.2413 H   0  0  0  0  0  0  0  0  0  0  0  0
  145.9926  137.5247  154.1856 H   0  0  0  0  0  0  0  0  0  0  0  0
  147.6598  138.2128  152.5379 H   0  0  0  0  0  0  0  0  0  0  0  0
  146.4302  138.6294  151.3603 H   0  0  0  0  0  0  0  0  0  0  0  0
  147.2343  140.5656  152.4017 H   0  0  0  0  0  0  0  0  0  0  0  0
  146.2265  140.4865  154.9651 H   0  0  0  0  0  0  0  0  0  0  0  0
  147.3171  139.1177  154.7558 H   0  0  0  0  0  0  0  0  0  0  0  0
  150.5255  140.2759  158.2455 H   0  0  0  0  0  0  0  0  0  0  0  0
  149.2409  139.3745  157.4672 H   0  0  0  0  0  0  0  0  0  0  0  0
  148.8649  140.8408  158.3677 H   0  0  0  0  0  0  0  0  0  0  0  0
  150.4755  143.2512  155.9589 H   0  0  0  0  0  0  0  0  0  0  0  0
  151.7681  141.9068  158.4495 H   0  0  0  0  0  0  0  0  0  0  0  0
  152.2309  143.5019  157.6674 H   0  0  0  0  0  0  0  0  0  0  0  0
  149.8978  144.3737  158.0640 H   0  0  0  0  0  0  0  0  0  0  0  0
  149.4330  142.7763  158.8423 H   0  0  0  0  0  0  0  0  0  0  0  0
  147.4318  135.5162  152.6865 H   0  0  0  0  0  0  0  0  0  0  0  0
  145.6831  140.3517  152.8886 H   0  0  0  0  0  0  0  0  0  0  0  0
  1  2  1  0  0  0  0
  1 21  1  0  0  0  0
  1 22  1  0  0  0  0
  1 23  1  0  0  0  0
  2 20  2  0  0  0  0
  2  3  1  0  0  0  0
  3  4  2  0  0  0  0
  3 24  1  0  0  0  0
  4  5  1  0  0  0  0
  5  6  1  0  0  0  0
  5 20  1  0  0  0  0
  6  7  1  0  0  0  0
  6 25  1  0  0  0  0
  6 26  1  0  0  0  0
  7  8  1  0  0  0  0
  7 27  1  0  0  0  0
  7 28  1  0  0  0  0
  8  9  1  0  0  0  0
  8 29  1  0  0  0  0
  8 41  1  0  0  0  0
  9 10  1  0  0  0  0
  9 30  1  0  0  0  0
  9 31  1  0  0  0  0
 10 11  2  0  0  0  0
 10 12  1  0  0  0  0
 12 13  1  0  0  0  0
 13 14  1  0  0  0  0
 13 15  1  0  0  0  0
 13 17  1  0  0  0  0
 14 32  1  0  0  0  0
 14 33  1  0  0  0  0
 14 34  1  0  0  0  0
 15 16  3  0  0  0  0
 17 19  1  0  0  0  0
 17 18  1  0  0  0  0
 17 35  1  0  0  0  0
 18 19  1  0  0  0  0
 18 36  1  0  0  0  0
 18 37  1  0  0  0  0
 19 38  1  0  0  0  0
 19 39  1  0  0  0  0
 20 40  1  0  0  0  0
M  CHG  1   8   1
M  CHG  1  12  -1
M  END
> <s_m_source_file>
AV-unprocessed.smi

> <i_m_source_file_index>
3329

> <i_lp_mmshare_version>
43012

> <i_f3d_flags>
0

> <s_epik_input>
W0NIM11jMVtjSF1ubihbY0hdMSlbQ0gyXVtDSDJdW05IXVtDSDJdQyg9TylbTkhdW0NAQF0oW0NIM10pKEMjTilbQ0hdMltDSDJdW0NIMl0y

> <s_epik_cmdline>
J2VwaWtfcHl0aG9uJywgJy1waCcsICc3LjAnLCAnLXRuJywgJzgnLCAnLW1hJywgJzIwMCcsICctbWV0YWxfYmluZGluZycsICctaW1hZScsICc8aW5maWxlLm1hZT4nLCAnLW9tYWUnLCAnPG91dGZpbGUubWFlPic=

> <r_lp_tautomer_probability>
1

> <r_epik_Ionization_Penalty>
5.61187

> <r_epik_Ionization_Penalty_Charging>
5.61186

> <r_epik_Ionization_Penalty_Neutral>
4.91277e-06

> <r_epik_State_Penalty>
5.94522

> <r_epik_Charging_Adjusted_Penalty>
11.5571

> <i_epik_Tot_Q>
0

> <i_epik_Tot_abs_Q>
2

> <r_epik_Metal_State_Penalty>
1.9215

> <b_epik_Metal_Only>
1

> <s_lp_Force_Field>
OPLS_2005

> <r_lp_Energy>
13.6964

> <b_lp_Chiralities_Consistent>
1

> <s_lp_Variant>
AV-unprocessed.smi:3329-5

> <Gold.Version>
5.8.1

> <Gold.Id.Protein>
6NUR|6NUR_protein|mol2

> <Gold.PLP.Fitness>
44.9430

> <Gold.PLP.PLP>
-29.2718

> <Gold.PLP.part.hbond>
-3.5953

> <Gold.PLP.part.metal>
0.0000

> <Gold.PLP.part.buried>
-5.6955

> <Gold.PLP.part.nonpolar>
-25.7032

> <Gold.PLP.part.repulsive>
4.8553

> <Gold.PLP.ligand.clash>
0.2075

> <Gold.PLP.ligand.torsion>
1.8391

> <Gold.PLP.Chemscore.Hbond>
4.0000

> <Gold.PLP.Chemscore.CHOScore>
1.9984

> <Gold.PLP.Chemscore.Metal>
0.0000

> <Gold.Chemscore.Hbonds>
donor molecule, donor type, donor heavy atom, donor atom, acceptor molecule, acceptor atom, score
      L1  H     8    41       P1 10175  1.95
      P1  H  7989  7998       L1    16  1.00
      P1  H  8011  8017       L1    11  0.93
      L1  C    20    40       P1  7948  0.56

> <Gold.PLP.Chemscore.Internal.Correction>
1.5616

> <Gold.Rescore>
     Score         DG    S(hbond)    S(metal)    S(lipo)     H(rot)  DE(clash)    DE(int)     intcor
     10.24     -16.46       2.62        0.00      69.81       2.31       3.03       3.19       ----

> <Gold.Chemscore.Fitness>
10.2397

> <Gold.Chemscore.DG>
-16.4625

> <Gold.Chemscore.ZeroCoef>
-5.4800

> <Gold.Chemscore.Hbond>
2.6164

> <Gold.Chemscore.Metal>
0.0000

> <Gold.Chemscore.Lipo>
69.8064

> <Gold.Chemscore.Internal_Hbond>
0.0000

> <Gold.Chemscore.DEClash>
3.0347

> <Gold.Chemscore.DEInternal>
3.1881

> <Gold.Chemscore.Rot>
2.3140

> <Gold.Chemscore.Internal.Correction>
   9.000000E+99

> <Gold.Chemscore.Hbonds>
donor molecule, donor type, donor heavy atom, donor atom, acceptor molecule, acceptor atom, score
      L1  H     8    41       P1 10175  0.80
      P1  H  7989  7998       L1    16  0.68
      P1  H  8011  8017       L1    11  0.91

> <Gold.Chemscore.Hbond.Weighted>
-8.7389

> <Gold.Chemscore.Metal.Weighted>
-0.0000

> <Gold.Chemscore.Lipo.Weighted>
-8.1674

> <Gold.Chemscore.Internal_Hbond.Weighted>
0.0000

> <Gold.Chemscore.DEClash.Weighted>
3.0347

> <Gold.Chemscore.DEInternal.Weighted>
3.1881

> <Gold.Chemscore.Rot.Weighted>
5.9238

> <Gold.Chemscore.Internal.Correction.Weighted>
   9.000000E+99

> <Gold.Protein.RotatedTorsions>
[ 6907 6896 6895 6894 ] final -145.79 input  -60.11 | X-H torsion
[ 7974 7965 7964 7962 ] final   62.42 input  175.53 | X-H torsion
[ 8008 7997 7996 7995 ] final  -51.51 input   59.86 | X-H torsion
[ 10167 10162 10161 10158 ] final  -89.89 input  -65.29 | X-H torsion
[ 10718 10713 10712 10709 ] final   80.01 input   66.30 | X-H torsion
[ 10763 10752 10751 10750 ] final  -19.44 input  -60.55 | X-H torsion
[ 11005 11000 10999 10996 ] final  -51.58 input  -57.11 | X-H torsion

> <Gold.Protein.ActiveResidues>
 VAL166  LYS551  ARG553  GLY616  TRP617  ASP618  TYR619  PRO620  LYS621  CYS622 
 ASP623  PHE694  ASN695  SER759  ASP760  ASP761  ALA762  ILE779  LEU786  VAL792 
 PHE793  MET794  SER795  GLU796  ALA797  LYS798  CYS799  TRP800  GLU811  SER814 

> <Gold.Protein.RotatedAtoms>
  151.1327  133.5026  159.2598 H   0  0  0  0  0  0  0  0  0  0  0  0  # atno 6907 bound_to 6896
  151.1740  135.0330  159.8774 H   0  0  0  0  0  0  0  0  0  0  0  0  # atno 6908 bound_to 6896
  152.5460  134.1186  159.8443 H   0  0  0  0  0  0  0  0  0  0  0  0  # atno 6909 bound_to 6896
  145.8736  139.3394  143.0748 H   0  0  0  0  0  0  0  0  0  0  0  0  # atno 7974 bound_to 7965
  154.4084  140.1246  156.4840 H   0  0  0  0  0  0  0  0  0  0  0  0  # atno 8008 bound_to 7997
  155.7056  140.3494  155.4932 H   0  0  0  0  0  0  0  0  0  0  0  0  # atno 8009 bound_to 7997
  155.9346  140.1076  157.1095 H   0  0  0  0  0  0  0  0  0  0  0  0  # atno 8010 bound_to 7997
  140.3603  143.2845  151.9622 H   0  0  0  0  0  0  0  0  0  0  0  0  # atno 10167 bound_to 10162
  157.6794  130.9940  150.2016 H   0  0  0  0  0  0  0  0  0  0  0  0  # atno 10718 bound_to 10713
  153.6048  135.6998  153.5370 H   0  0  0  0  0  0  0  0  0  0  0  0  # atno 10763 bound_to 10752
  153.3066  135.4113  155.1299 H   0  0  0  0  0  0  0  0  0  0  0  0  # atno 10764 bound_to 10752
  154.8575  135.3662  154.5584 H   0  0  0  0  0  0  0  0  0  0  0  0  # atno 10765 bound_to 10752
  141.0879  133.6638  156.3899 H   0  0  0  0  0  0  0  0  0  0  0  0  # atno 11005 bound_to 11000
  145.9108  140.9181  143.0455 LP  0  0  0  0  0  0  0  0  0  0  0  0  # atno 17320 bound_to 7965
  144.6726  140.1157  143.7453 LP  0  0  0  0  0  0  0  0  0  0  0  0  # atno 17321 bound_to 7965
  139.4815  144.5998  151.7625 LP  0  0  0  0  0  0  0  0  0  0  0  0  # atno 17342 bound_to 10162
  140.5133  144.0991  150.6001 LP  0  0  0  0  0  0  0  0  0  0  0  0  # atno 17343 bound_to 10162
  156.2706  130.3721  149.8035 LP  0  0  0  0  0  0  0  0  0  0  0  0  # atno 17370 bound_to 10713
  156.5754  130.8442  151.3368 LP  0  0  0  0  0  0  0  0  0  0  0  0  # atno 17371 bound_to 10713
  140.5321  134.6203  157.5353 LP  0  0  0  0  0  0  0  0  0  0  0  0  # atno 17394 bound_to 11000
  139.9700  134.7309  156.0061 LP  0  0  0  0  0  0  0  0  0  0  0  0  # atno 17395 bound_to 11000

$$$$
