AV-unprocessed.smi:1033|AV-procd|sdf|4502|dock5
  -GOLD-   22720 2503D 1   1.00000     0.00000
 Structure written by MMmdl.
 57 59  0  0  0  0  0  0  0  0  3 V2000
  152.2829  143.8854  161.1090 C   0  0  0  0  0  0  0  0  0  0  0  0
  152.0952  143.0192  159.8751 C   0  0  0  0  0  0  0  0  0  0  0  0
  151.1132  143.3946  158.9302 C   0  0  0  0  0  0  0  0  0  0  0  0
  150.9640  142.5811  157.8133 C   0  0  0  0  0  0  0  0  0  0  0  0
  150.0995  142.6743  156.7199 N   0  3  0  0  0  0  0  0  0  0  0  0
  150.3261  141.6334  155.8710 C   0  0  0  0  0  0  0  0  0  0  0  0
  151.3261  140.8805  156.4050 N   0  0  0  0  0  0  0  0  0  0  0  0
  151.9578  139.6527  155.9061 C   0  0  0  0  0  0  0  0  0  0  0  0
  150.9785  138.7509  155.1273 C   0  0  2  0  0  0  0  0  0  0  0  0
  150.6388  139.3830  153.9103 O   0  0  0  0  0  0  0  0  0  0  0  0
  149.6750  138.4837  155.9039 C   0  0  0  0  0  0  0  0  0  0  0  0
  149.5368  139.2139  157.1698 N   0  0  0  0  0  0  0  0  0  0  0  0
  148.1471  139.3175  157.6134 C   0  0  0  0  0  0  0  0  0  0  0  0
  147.5693  137.9820  158.1256 C   0  0  0  0  0  0  0  0  0  0  0  0
  148.4033  137.4458  159.2321 N   0  3  0  0  0  0  0  0  0  0  0  0
  147.8447  136.1955  159.8077 C   0  0  0  0  0  0  0  0  0  0  0  0
  148.1213  136.0597  161.3181 C   0  0  2  0  0  0  0  0  0  0  0  0
  147.3922  134.8573  161.9317 C   0  0  0  0  0  0  0  0  0  0  0  0
  147.6781  137.2273  161.9802 O   0  0  0  0  0  0  0  0  0  0  0  0
  149.8241  137.3273  158.8072 C   0  0  0  0  0  0  0  0  0  0  0  0
  150.3374  138.6811  158.2756 C   0  0  0  0  0  0  0  0  0  0  0  0
  151.7514  141.4302  157.6182 C   0  0  0  0  0  0  0  0  0  0  0  0
  152.7226  141.0449  158.5386 C   0  0  0  0  0  0  0  0  0  0  0  0
  152.8897  141.8591  159.6815 C   0  0  0  0  0  0  0  0  0  0  0  0
  153.9418  141.4646  160.7037 C   0  0  0  0  0  0  0  0  0  0  0  0
  151.6099  144.7434  161.1006 H   0  0  0  0  0  0  0  0  0  0  0  0
  153.3035  144.2648  161.1602 H   0  0  0  0  0  0  0  0  0  0  0  0
  152.0798  143.3118  162.0137 H   0  0  0  0  0  0  0  0  0  0  0  0
  150.5045  144.2759  159.0715 H   0  0  0  0  0  0  0  0  0  0  0  0
  149.8084  141.4415  154.9419 H   0  0  0  0  0  0  0  0  0  0  0  0
  152.8099  139.9366  155.2872 H   0  0  0  0  0  0  0  0  0  0  0  0
  152.3655  139.1190  156.7660 H   0  0  0  0  0  0  0  0  0  0  0  0
  151.4617  137.8105  154.8654 H   0  0  0  0  0  0  0  0  0  0  0  0
  149.7995  139.0544  153.6262 H   0  0  0  0  0  0  0  0  0  0  0  0
  148.8408  138.7479  155.2524 H   0  0  0  0  0  0  0  0  0  0  0  0
  149.5790  137.4122  156.0785 H   0  0  0  0  0  0  0  0  0  0  0  0
  148.0834  140.0583  158.4116 H   0  0  0  0  0  0  0  0  0  0  0  0
  147.5268  139.7026  156.8034 H   0  0  0  0  0  0  0  0  0  0  0  0
  146.5523  138.1470  158.4833 H   0  0  0  0  0  0  0  0  0  0  0  0
  147.5033  137.2499  157.3197 H   0  0  0  0  0  0  0  0  0  0  0  0
  146.7650  136.1696  159.6497 H   0  0  0  0  0  0  0  0  0  0  0  0
  148.2504  135.3398  159.2655 H   0  0  0  0  0  0  0  0  0  0  0  0
  149.1880  135.9439  161.5059 H   0  0  0  0  0  0  0  0  0  0  0  0
  147.7163  133.9253  161.4672 H   0  0  0  0  0  0  0  0  0  0  0  0
  146.3122  134.9348  161.8007 H   0  0  0  0  0  0  0  0  0  0  0  0
  147.5933  134.7781  163.0007 H   0  0  0  0  0  0  0  0  0  0  0  0
  147.1719  136.9743  162.7376 H   0  0  0  0  0  0  0  0  0  0  0  0
  150.4454  137.0255  159.6493 H   0  0  0  0  0  0  0  0  0  0  0  0
  149.9261  136.5481  158.0509 H   0  0  0  0  0  0  0  0  0  0  0  0
  151.3838  138.5950  157.9872 H   0  0  0  0  0  0  0  0  0  0  0  0
  150.3259  139.4014  159.0949 H   0  0  0  0  0  0  0  0  0  0  0  0
  153.3254  140.1613  158.3905 H   0  0  0  0  0  0  0  0  0  0  0  0
  154.4720  140.5606  160.4024 H   0  0  0  0  0  0  0  0  0  0  0  0
  153.4801  141.2732  161.6728 H   0  0  0  0  0  0  0  0  0  0  0  0
  154.6791  142.2589  160.8214 H   0  0  0  0  0  0  0  0  0  0  0  0
  148.3718  138.1379  159.9676 H   0  0  0  0  0  0  0  0  0  0  0  0
  149.4042  143.3928  156.5631 H   0  0  0  0  0  0  0  0  0  0  0  0
  1  2  1  0  0  0  0
  1 26  1  0  0  0  0
  1 27  1  0  0  0  0
  1 28  1  0  0  0  0
  2 24  1  0  0  0  0
  2  3  2  0  0  0  0
  3  4  1  0  0  0  0
  3 29  1  0  0  0  0
  4 22  2  0  0  0  0
  4  5  1  0  0  0  0
  5  6  2  0  0  0  0
  5 57  1  0  0  0  0
  6  7  1  0  0  0  0
  6 30  1  0  0  0  0
  7  8  1  0  0  0  0
  7 22  1  0  0  0  0
  8  9  1  0  0  0  0
  8 31  1  0  0  0  0
  8 32  1  0  0  0  0
  9 10  1  0  0  0  0
  9 11  1  0  0  0  0
  9 33  1  0  0  0  0
 10 34  1  0  0  0  0
 11 12  1  0  0  0  0
 11 35  1  0  0  0  0
 11 36  1  0  0  0  0
 12 21  1  0  0  0  0
 12 13  1  0  0  0  0
 13 14  1  0  0  0  0
 13 37  1  0  0  0  0
 13 38  1  0  0  0  0
 14 15  1  0  0  0  0
 14 39  1  0  0  0  0
 14 40  1  0  0  0  0
 15 16  1  0  0  0  0
 15 20  1  0  0  0  0
 15 56  1  0  0  0  0
 16 17  1  0  0  0  0
 16 41  1  0  0  0  0
 16 42  1  0  0  0  0
 17 18  1  0  0  0  0
 17 19  1  0  0  0  0
 17 43  1  0  0  0  0
 18 44  1  0  0  0  0
 18 45  1  0  0  0  0
 18 46  1  0  0  0  0
 19 47  1  0  0  0  0
 20 21  1  0  0  0  0
 20 48  1  0  0  0  0
 20 49  1  0  0  0  0
 21 50  1  0  0  0  0
 21 51  1  0  0  0  0
 22 23  1  0  0  0  0
 23 24  2  0  0  0  0
 23 52  1  0  0  0  0
 24 25  1  0  0  0  0
 25 53  1  0  0  0  0
 25 54  1  0  0  0  0
 25 55  1  0  0  0  0
M  CHG  1   5   1
M  CHG  1  15   1
M  END
> <s_m_source_file>
AV-unprocessed.smi

> <i_m_source_file_index>
1033

> <i_lp_mmshare_version>
43012

> <i_f3d_flags>
0

> <s_epik_input>
W0NIM11jKFtjSF0xKWMoW0NIM10pW2NIXWMoYzEyKW4oW2NIXW4yKVtDSDJdW0NASF0oW09IXSlbQ0gyXU4zW0NIMl1bQ0gyXU4oW0NIMl1bQ0gyXTMpW0NIMl1bQ0BIXShbQ0gzXSlbT0hd

> <s_epik_cmdline>
J2VwaWtfcHl0aG9uJywgJy1waCcsICc3LjAnLCAnLXRuJywgJzgnLCAnLW1hJywgJzIwMCcsICctbWV0YWxfYmluZGluZycsICctaW1hZScsICc8aW5maWxlLm1hZT4nLCAnLW9tYWUnLCAnPG91dGZpbGUubWFlPic=

> <r_epik_Ionization_Penalty>
1.28617

> <r_epik_Ionization_Penalty_Charging>
1.23646

> <r_epik_Ionization_Penalty_Neutral>
0.0497112

> <r_epik_State_Penalty>
1.79157

> <r_epik_Charging_Adjusted_Penalty>
3.02803

> <i_epik_Tot_Q>
2

> <i_epik_Tot_abs_Q>
2

> <r_epik_Metal_State_Penalty>
5.81739

> <b_epik_Metal_Only>
0

> <s_lp_Force_Field>
OPLS_2005

> <r_lp_Energy>
39.1755

> <b_lp_Chiralities_Consistent>
1

> <s_lp_Variant>
AV-unprocessed.smi:1033-13

> <Gold.Version>
5.8.1

> <Gold.Id.Protein>
6NUR|6NUR_protein|mol2

> <Gold.PLP.Fitness>
59.7109

> <Gold.PLP.PLP>
-49.2119

> <Gold.PLP.part.hbond>
-5.0000

> <Gold.PLP.part.metal>
0.0000

> <Gold.PLP.part.buried>
-5.6971

> <Gold.PLP.part.nonpolar>
-38.4732

> <Gold.PLP.part.repulsive>
0.2313

> <Gold.PLP.ligand.clash>
0.0000

> <Gold.PLP.ligand.torsion>
1.7031

> <Gold.PLP.Chemscore.Hbond>
4.5875

> <Gold.PLP.Chemscore.CHOScore>
0.0000

> <Gold.PLP.Chemscore.Metal>
0.0000

> <Gold.Chemscore.Hbonds>
donor molecule, donor type, donor heavy atom, donor atom, acceptor molecule, acceptor atom, score
      L1  H     5    57       P1  8028  1.95
      P1  H  6931  6943       L1    19  0.98
      P1  H  6934  6947       L1    19  0.48
      P1  H  7989  7998       L1    10  1.00

> <Gold.PLP.Chemscore.Internal.Correction>
0.1427

> <Gold.Rescore>
     Score         DG    S(hbond)    S(metal)    S(lipo)     H(rot)  DE(clash)    DE(int)     intcor
     17.80     -22.57       3.30        0.00     120.70       3.15       0.21       4.56       ----

> <Gold.Chemscore.Fitness>
17.7987

> <Gold.Chemscore.DG>
-22.5700

> <Gold.Chemscore.ZeroCoef>
-5.4800

> <Gold.Chemscore.Hbond>
3.3016

> <Gold.Chemscore.Metal>
0.0000

> <Gold.Chemscore.Lipo>
120.7035

> <Gold.Chemscore.Internal_Hbond>
0.0000

> <Gold.Chemscore.DEClash>
0.2121

> <Gold.Chemscore.DEInternal>
4.5592

> <Gold.Chemscore.Rot>
3.1483

> <Gold.Chemscore.Internal.Correction>
   9.000000E+99

> <Gold.Chemscore.Hbonds>
donor molecule, donor type, donor heavy atom, donor atom, acceptor molecule, acceptor atom, score
      L1  H     5    57       P1  8028  0.93
      P1  H  6931  6943       L1    19  0.42
      P1  H  6934  6947       L1    19  0.45
      P1  H  7989  7998       L1    10  0.91

> <Gold.Chemscore.Hbond.Weighted>
-11.0273

> <Gold.Chemscore.Metal.Weighted>
-0.0000

> <Gold.Chemscore.Lipo.Weighted>
-14.1223

> <Gold.Chemscore.Internal_Hbond.Weighted>
0.0000

> <Gold.Chemscore.DEClash.Weighted>
0.2121

> <Gold.Chemscore.DEInternal.Weighted>
4.5592

> <Gold.Chemscore.Rot.Weighted>
8.0597

> <Gold.Chemscore.Internal.Correction.Weighted>
   9.000000E+99

> <Gold.Protein.RotatedTorsions>
[ 6907 6896 6895 6894 ] final  -91.47 input  -60.11 | X-H torsion
[ 7974 7965 7964 7962 ] final  159.17 input  175.53 | X-H torsion
[ 8008 7997 7996 7995 ] final   69.23 input   59.86 | X-H torsion
[ 10167 10162 10161 10158 ] final  150.16 input  -65.29 | X-H torsion
[ 10718 10713 10712 10709 ] final    5.53 input   66.30 | X-H torsion
[ 10763 10752 10751 10750 ] final -102.44 input  -60.55 | X-H torsion
[ 11005 11000 10999 10996 ] final -157.24 input  -57.11 | X-H torsion

> <Gold.Protein.ActiveResidues>
 VAL166  LYS551  ARG553  GLY616  TRP617  ASP618  TYR619  PRO620  LYS621  CYS622 
 ASP623  PHE694  ASN695  SER759  ASP760  ASP761  ALA762  ILE779  LEU786  VAL792 
 PHE793  MET794  SER795  GLU796  ALA797  LYS798  CYS799  TRP800  GLU811  SER814 

> <Gold.Protein.RotatedAtoms>
  150.6893  134.2272  159.4419 H   0  0  0  0  0  0  0  0  0  0  0  0  # atno 6907 bound_to 6896
  152.0224  134.9812  160.0580 H   0  0  0  0  0  0  0  0  0  0  0  0  # atno 6908 bound_to 6896
  152.1384  133.4414  159.4791 H   0  0  0  0  0  0  0  0  0  0  0  0  # atno 6909 bound_to 6896
  144.7805  139.7580  143.6261 H   0  0  0  0  0  0  0  0  0  0  0  0  # atno 7974 bound_to 7965
  155.7204  140.3493  155.5013 H   0  0  0  0  0  0  0  0  0  0  0  0  # atno 8008 bound_to 7997
  155.9275  140.1078  157.1180 H   0  0  0  0  0  0  0  0  0  0  0  0  # atno 8009 bound_to 7997
  154.4079  140.1237  156.4746 H   0  0  0  0  0  0  0  0  0  0  0  0  # atno 8010 bound_to 7997
  139.4853  144.5544  151.7343 H   0  0  0  0  0  0  0  0  0  0  0  0  # atno 10167 bound_to 10162
  156.9088  130.5748  149.5647 H   0  0  0  0  0  0  0  0  0  0  0  0  # atno 10718 bound_to 10713
  154.7734  135.4860  153.9694 H   0  0  0  0  0  0  0  0  0  0  0  0  # atno 10763 bound_to 10752
  153.1396  135.6770  153.9055 H   0  0  0  0  0  0  0  0  0  0  0  0  # atno 10764 bound_to 10752
  153.8733  135.3141  155.3421 H   0  0  0  0  0  0  0  0  0  0  0  0  # atno 10765 bound_to 10752
  140.6668  134.4290  157.5233 H   0  0  0  0  0  0  0  0  0  0  0  0  # atno 11005 bound_to 11000
  146.2010  139.5305  142.9743 LP  0  0  0  0  0  0  0  0  0  0  0  0  # atno 17320 bound_to 7965
  145.6064  141.0347  143.1990 LP  0  0  0  0  0  0  0  0  0  0  0  0  # atno 17321 bound_to 7965
  140.5104  144.1034  150.5993 LP  0  0  0  0  0  0  0  0  0  0  0  0  # atno 17342 bound_to 10162
  140.3958  143.2729  152.0006 LP  0  0  0  0  0  0  0  0  0  0  0  0  # atno 17343 bound_to 10162
  156.0546  130.5609  150.9063 LP  0  0  0  0  0  0  0  0  0  0  0  0  # atno 17370 bound_to 10713
  157.5980  131.0942  150.9008 LP  0  0  0  0  0  0  0  0  0  0  0  0  # atno 17371 bound_to 10713
  139.8994  134.8591  156.1959 LP  0  0  0  0  0  0  0  0  0  0  0  0  # atno 17394 bound_to 11000
  141.0423  133.6931  156.1620 LP  0  0  0  0  0  0  0  0  0  0  0  0  # atno 17395 bound_to 11000

$$$$
