AV-unprocessed.smi:235|AV-procd|sdf|1804|dock8
  -GOLD-   2262020383D 1   1.00000     0.00000
 Structure written by MMmdl.
 54 58  0  0  0  0  0  0  0  0  1 V2000
  150.5377  140.2839  154.8035 O   0  0  0  0  0  0  0  0  0  0  0  0
  150.1836  141.2859  155.4267 C   0  0  0  0  0  0  0  0  0  0  0  0
  149.0429  141.9457  155.1793 N   0  0  0  0  0  0  0  0  0  0  0  0
  148.0881  141.6027  154.1760 C   0  0  0  0  0  0  0  0  0  0  0  0
  146.8866  142.5078  154.0107 C   0  0  0  0  0  0  0  0  0  0  0  0
  146.7191  141.1504  154.6359 C   0  0  0  0  0  0  0  0  0  0  0  0
  151.0558  141.8450  156.5621 C   0  0  1  0  0  0  0  0  0  0  0  0
  150.9611  143.3775  156.6442 C   0  0  0  0  0  0  0  0  0  0  0  0
  151.2263  143.6798  158.1157 C   0  0  0  0  0  0  0  0  0  0  0  0
  150.5806  142.4986  158.8381 C   0  0  0  0  0  0  0  0  0  0  0  0
  150.6016  141.3985  157.8822 N   0  0  0  0  0  0  0  0  0  0  0  0
  150.7752  140.1237  158.3241 C   0  0  0  0  0  0  0  0  0  0  0  0
  152.0228  139.6980  158.6585 N   0  0  0  0  0  0  0  0  0  0  0  0
  152.2214  138.4510  159.0938 C   0  0  0  0  0  0  0  0  0  0  0  0
  151.3281  137.4760  159.2654 N   0  0  0  0  0  0  0  0  0  0  0  0
  150.0744  137.8911  158.9260 C   0  0  0  0  0  0  0  0  0  0  0  0
  149.7113  139.1838  158.4505 C   0  0  0  0  0  0  0  0  0  0  0  0
  148.3445  139.2223  158.1963 N   0  0  0  0  0  0  0  0  0  0  0  0
  147.9254  138.0264  158.5073 C   0  0  0  0  0  0  0  0  0  0  0  0
  148.8974  137.1649  158.9617 N   0  0  0  0  0  0  0  0  0  0  0  0
  148.7136  135.7829  159.3751 C   0  0  0  0  0  0  0  0  0  0  0  0
  148.2272  135.6278  160.8332 C   0  0  1  0  0  0  0  0  0  0  0  0
  147.9511  136.9069  161.3693 O   0  0  0  0  0  0  0  0  0  0  0  0
  146.9659  134.7532  160.9822 C   0  0  2  0  0  0  0  0  0  0  0  0
  146.5512  134.4765  162.4287 C   0  0  0  0  0  0  0  0  0  0  0  0
  145.8119  133.1488  162.3474 C   0  0  0  0  0  0  0  0  0  0  0  0
  146.1381  132.6236  160.9469 C   0  0  0  0  0  0  0  0  0  0  0  0
  147.2028  133.4435  160.4895 O   0  0  0  0  0  0  0  0  0  0  0  0
  148.8383  142.7589  155.7417 H   0  0  0  0  0  0  0  0  0  0  0  0
  148.4634  141.1349  153.2667 H   0  0  0  0  0  0  0  0  0  0  0  0
  146.8089  143.3748  154.6642 H   0  0  0  0  0  0  0  0  0  0  0  0
  146.5000  142.6483  153.0034 H   0  0  0  0  0  0  0  0  0  0  0  0
  146.2203  140.3835  154.0466 H   0  0  0  0  0  0  0  0  0  0  0  0
  146.5281  141.1118  155.7068 H   0  0  0  0  0  0  0  0  0  0  0  0
  152.1004  141.5588  156.4236 H   0  0  0  0  0  0  0  0  0  0  0  0
  151.6718  143.8755  155.9840 H   0  0  0  0  0  0  0  0  0  0  0  0
  149.9613  143.7277  156.3804 H   0  0  0  0  0  0  0  0  0  0  0  0
  152.3015  143.6816  158.2999 H   0  0  0  0  0  0  0  0  0  0  0  0
  150.8278  144.6433  158.4345 H   0  0  0  0  0  0  0  0  0  0  0  0
  151.1145  142.2686  159.7615 H   0  0  0  0  0  0  0  0  0  0  0  0
  149.5433  142.7227  159.0895 H   0  0  0  0  0  0  0  0  0  0  0  0
  153.2426  138.1985  159.3381 H   0  0  0  0  0  0  0  0  0  0  0  0
  146.8875  137.7393  158.4190 H   0  0  0  0  0  0  0  0  0  0  0  0
  147.9995  135.3180  158.6944 H   0  0  0  0  0  0  0  0  0  0  0  0
  149.6550  135.2503  159.2334 H   0  0  0  0  0  0  0  0  0  0  0  0
  149.0379  135.1922  161.4183 H   0  0  0  0  0  0  0  0  0  0  0  0
  147.2592  136.8225  162.0074 H   0  0  0  0  0  0  0  0  0  0  0  0
  146.1240  135.1868  160.4387 H   0  0  0  0  0  0  0  0  0  0  0  0
  147.4323  134.3627  163.0616 H   0  0  0  0  0  0  0  0  0  0  0  0
  145.9396  135.2766  162.8472 H   0  0  0  0  0  0  0  0  0  0  0  0
  146.1632  132.4657  163.1218 H   0  0  0  0  0  0  0  0  0  0  0  0
  144.7361  133.2757  162.4734 H   0  0  0  0  0  0  0  0  0  0  0  0
  146.4220  131.5710  160.9478 H   0  0  0  0  0  0  0  0  0  0  0  0
  145.2817  132.7454  160.2823 H   0  0  0  0  0  0  0  0  0  0  0  0
  1  2  2  0  0  0  0
  2  3  1  0  0  0  0
  2  7  1  0  0  0  0
  3  4  1  0  0  0  0
  3 29  1  0  0  0  0
  4  6  1  0  0  0  0
  4  5  1  0  0  0  0
  4 30  1  0  0  0  0
  5  6  1  0  0  0  0
  5 31  1  0  0  0  0
  5 32  1  0  0  0  0
  6 33  1  0  0  0  0
  6 34  1  0  0  0  0
  7 11  1  0  0  0  0
  7  8  1  0  0  0  0
  7 35  1  0  0  0  0
  8  9  1  0  0  0  0
  8 36  1  0  0  0  0
  8 37  1  0  0  0  0
  9 10  1  0  0  0  0
  9 38  1  0  0  0  0
  9 39  1  0  0  0  0
 10 11  1  0  0  0  0
 10 40  1  0  0  0  0
 10 41  1  0  0  0  0
 11 12  1  0  0  0  0
 12 17  1  0  0  0  0
 12 13  2  0  0  0  0
 13 14  1  0  0  0  0
 14 15  2  0  0  0  0
 14 42  1  0  0  0  0
 15 16  1  0  0  0  0
 16 20  1  0  0  0  0
 16 17  2  0  0  0  0
 17 18  1  0  0  0  0
 18 19  2  0  0  0  0
 19 20  1  0  0  0  0
 19 43  1  0  0  0  0
 20 21  1  0  0  0  0
 21 22  1  0  0  0  0
 21 44  1  0  0  0  0
 21 45  1  0  0  0  0
 22 23  1  0  0  0  0
 22 24  1  0  0  0  0
 22 46  1  0  0  0  0
 23 47  1  0  0  0  0
 24 28  1  0  0  0  0
 24 25  1  0  0  0  0
 24 48  1  0  0  0  0
 25 26  1  0  0  0  0
 25 49  1  0  0  0  0
 25 50  1  0  0  0  0
 26 27  1  0  0  0  0
 26 51  1  0  0  0  0
 26 52  1  0  0  0  0
 27 28  1  0  0  0  0
 27 53  1  0  0  0  0
 27 54  1  0  0  0  0
M  END
> <s_m_source_file>
AV-unprocessed.smi

> <i_m_source_file_index>
235

> <i_lp_mmshare_version>
43012

> <i_f3d_flags>
0

> <s_epik_input>
W0NIMl0xW0NIMl1bQ0hdMVtOSF1DKD1PKVtDQEBIXTJbQ0gyXVtDSDJdW0NIMl1OMmMobltjSF1uMyljKGMzNCluW2NIXW40W0NIMl1bQ0BIXShbT0hdKVtDQEBIXTVbQ0gyXVtDSDJdW0NIMl1PNQ==

> <s_epik_cmdline>
J2VwaWtfcHl0aG9uJywgJy1waCcsICc3LjAnLCAnLXRuJywgJzgnLCAnLW1hJywgJzIwMCcsICctbWV0YWxfYmluZGluZycsICctaW1hZScsICc8aW5maWxlLm1hZT4nLCAnLW9tYWUnLCAnPG91dGZpbGUubWFlPic=

> <r_lp_tautomer_probability>
1

> <r_epik_Ionization_Penalty>
0.000526714

> <r_epik_Ionization_Penalty_Charging>
0

> <r_epik_Ionization_Penalty_Neutral>
0.000526714

> <r_epik_State_Penalty>
0.000272704

> <r_epik_Charging_Adjusted_Penalty>
0.000272704

> <i_epik_Tot_Q>
0

> <i_epik_Tot_abs_Q>
0

> <r_epik_Metal_State_Penalty>
-0

> <b_epik_Metal_Only>
0

> <s_lp_Force_Field>
OPLS_2005

> <r_lp_Energy>
57.0845

> <b_lp_Chiralities_Consistent>
1

> <s_lp_Variant>
AV-unprocessed.smi:235-4

> <Gold.Version>
5.8.1

> <Gold.Id.Protein>
6NUR|6NUR_protein|mol2

> <Gold.PLP.Fitness>
49.8083

> <Gold.PLP.PLP>
-45.9695

> <Gold.PLP.part.hbond>
-5.0140

> <Gold.PLP.part.metal>
0.0000

> <Gold.PLP.part.buried>
-5.4256

> <Gold.PLP.part.nonpolar>
-36.6346

> <Gold.PLP.part.repulsive>
0.2513

> <Gold.PLP.ligand.clash>
0.0000

> <Gold.PLP.ligand.torsion>
3.1572

> <Gold.PLP.Chemscore.Hbond>
3.2739

> <Gold.PLP.Chemscore.CHOScore>
0.0000

> <Gold.PLP.Chemscore.Metal>
0.0000

> <Gold.Chemscore.Hbonds>
donor molecule, donor type, donor heavy atom, donor atom, acceptor molecule, acceptor atom, score
      L1  H     3    29       P1  8028  0.82
      P1  H  6931  6943       L1    23  1.00
      P1  H  6934  6947       L1    23  0.11
      P1  H  7989  7998       L1     1  1.00

> <Gold.PLP.Chemscore.Internal.Correction>
0.3315

> <Gold.Rescore>
     Score         DG    S(hbond)    S(metal)    S(lipo)     H(rot)  DE(clash)    DE(int)     intcor
     13.91     -17.57       2.52        0.00      89.91       2.68       0.66       3.01       ----

> <Gold.Chemscore.Fitness>
13.9098

> <Gold.Chemscore.DG>
-17.5742

> <Gold.Chemscore.ZeroCoef>
-5.4800

> <Gold.Chemscore.Hbond>
2.5226

> <Gold.Chemscore.Metal>
0.0000

> <Gold.Chemscore.Lipo>
89.9090

> <Gold.Chemscore.Internal_Hbond>
0.0000

> <Gold.Chemscore.DEClash>
0.6563

> <Gold.Chemscore.DEInternal>
3.0081

> <Gold.Chemscore.Rot>
2.6760

> <Gold.Chemscore.Internal.Correction>
   9.000000E+99

> <Gold.Chemscore.Hbonds>
donor molecule, donor type, donor heavy atom, donor atom, acceptor molecule, acceptor atom, score
      L1  H     3    29       P1  8028  0.80
      P1  H  6896  6908       L1    15  0.05
      P1  H  6931  6943       L1    23  0.65
      P1  H  7989  7998       L1     1  0.55

> <Gold.Chemscore.Hbond.Weighted>
-8.4255

> <Gold.Chemscore.Metal.Weighted>
-0.0000

> <Gold.Chemscore.Lipo.Weighted>
-10.5194

> <Gold.Chemscore.Internal_Hbond.Weighted>
0.0000

> <Gold.Chemscore.DEClash.Weighted>
0.6563

> <Gold.Chemscore.DEInternal.Weighted>
3.0081

> <Gold.Chemscore.Rot.Weighted>
6.8506

> <Gold.Chemscore.Internal.Correction.Weighted>
   9.000000E+99

> <Gold.Protein.RotatedTorsions>
[ 6907 6896 6895 6894 ] final -140.11 input  -60.11 | X-H torsion
[ 7974 7965 7964 7962 ] final    7.57 input  175.53 | X-H torsion
[ 8008 7997 7996 7995 ] final   78.37 input   59.86 | X-H torsion
[ 10167 10162 10161 10158 ] final   34.46 input  -65.29 | X-H torsion
[ 10718 10713 10712 10709 ] final   99.95 input   66.30 | X-H torsion
[ 10763 10752 10751 10750 ] final -178.15 input  -60.55 | X-H torsion
[ 11005 11000 10999 10996 ] final  -14.01 input  -57.11 | X-H torsion

> <Gold.Protein.ActiveResidues>
 VAL166  LYS551  ARG553  GLY616  TRP617  ASP618  TYR619  PRO620  LYS621  CYS622 
 ASP623  PHE694  ASN695  SER759  ASP760  ASP761  ALA762  ILE779  LEU786  VAL792 
 PHE793  MET794  SER795  GLU796  ALA797  LYS798  CYS799  TRP800  GLU811  SER814 

> <Gold.Protein.RotatedAtoms>
  151.0565  133.5580  159.2637 H   0  0  0  0  0  0  0  0  0  0  0  0  # atno 6907 bound_to 6896
  151.2571  135.0641  159.9094 H   0  0  0  0  0  0  0  0  0  0  0  0  # atno 6908 bound_to 6896
  152.5390  134.0316  159.8081 H   0  0  0  0  0  0  0  0  0  0  0  0  # atno 6909 bound_to 6896
  146.2425  140.0063  142.8411 H   0  0  0  0  0  0  0  0  0  0  0  0  # atno 7974 bound_to 7965
  155.8548  140.3456  155.5717 H   0  0  0  0  0  0  0  0  0  0  0  0  # atno 8008 bound_to 7997
  155.7998  140.0883  157.1982 H   0  0  0  0  0  0  0  0  0  0  0  0  # atno 8009 bound_to 7997
  154.4009  140.1467  156.3249 H   0  0  0  0  0  0  0  0  0  0  0  0  # atno 8010 bound_to 7997
  140.4312  144.1321  150.6160 H   0  0  0  0  0  0  0  0  0  0  0  0  # atno 10167 bound_to 10162
  157.6865  131.0684  150.5026 H   0  0  0  0  0  0  0  0  0  0  0  0  # atno 10718 bound_to 10713
  154.5512  135.2813  155.1006 H   0  0  0  0  0  0  0  0  0  0  0  0  # atno 10763 bound_to 10752
  154.2451  135.6350  153.5224 H   0  0  0  0  0  0  0  0  0  0  0  0  # atno 10764 bound_to 10752
  153.0003  135.5569  154.6079 H   0  0  0  0  0  0  0  0  0  0  0  0  # atno 10765 bound_to 10752
  140.7820  133.8355  155.9300 H   0  0  0  0  0  0  0  0  0  0  0  0  # atno 11005 bound_to 11000
  145.1369  140.9549  143.4511 LP  0  0  0  0  0  0  0  0  0  0  0  0  # atno 17320 bound_to 7965
  145.0333  139.3322  143.6013 LP  0  0  0  0  0  0  0  0  0  0  0  0  # atno 17321 bound_to 7965
  140.4424  143.2521  151.9455 LP  0  0  0  0  0  0  0  0  0  0  0  0  # atno 17342 bound_to 10162
  139.4785  144.5641  151.8193 LP  0  0  0  0  0  0  0  0  0  0  0  0  # atno 17343 bound_to 10162
  156.5347  130.4193  149.6184 LP  0  0  0  0  0  0  0  0  0  0  0  0  # atno 17370 bound_to 10713
  156.3038  130.7191  151.2069 LP  0  0  0  0  0  0  0  0  0  0  0  0  # atno 17371 bound_to 10713
  140.9473  134.1823  157.4754 LP  0  0  0  0  0  0  0  0  0  0  0  0  # atno 17394 bound_to 11000
  139.8741  134.9895  156.5462 LP  0  0  0  0  0  0  0  0  0  0  0  0  # atno 17395 bound_to 11000

$$$$
