AV-unprocessed.smi:2322|AV-procd|sdf|9286|dock1
  -GOLD-   2272012513D 1   1.00000     0.00000
 Structure written by MMmdl.
 38 40  0  0  0  0  0  0  0  0  1 V2000
  147.2012  133.0786  152.2175 C   0  0  0  0  0  0  0  0  0  0  0  0
  148.0044  132.4538  153.2508 N   0  0  0  0  0  0  0  0  0  0  0  0
  147.8637  131.1387  153.5385 N   0  0  0  0  0  0  0  0  0  0  0  0
  148.7542  130.9545  154.5122 C   0  0  0  0  0  0  0  0  0  0  0  0
  149.4714  132.0559  154.8829 N   0  0  0  0  0  0  0  0  0  0  0  0
  148.9504  132.9551  154.0517 C   0  0  0  0  0  0  0  0  0  0  0  0
  149.2985  134.3351  153.9523 N   0  0  0  0  0  0  0  0  0  0  0  0
  150.0871  135.1112  154.7252 C   0  0  0  0  0  0  0  0  0  0  0  0
  150.6537  134.6519  155.7155 O   0  0  0  0  0  0  0  0  0  0  0  0
  150.2076  136.3947  154.3484 N   0  0  0  0  0  0  0  0  0  0  0  0
  150.9923  137.4132  155.0379 C   0  0  1  0  0  0  0  0  0  0  0  0
  152.2136  137.8268  154.2003 C   0  0  0  0  0  0  0  0  0  0  0  0
  152.9400  139.0135  154.8535 C   0  0  0  0  0  0  0  0  0  0  0  0
  152.0366  140.0984  155.0387 O   0  0  0  0  0  0  0  0  0  0  0  0
  150.9570  139.7867  155.9144 C   0  0  1  0  0  0  0  0  0  0  0  0
  150.1349  141.0441  156.1158 C   0  0  0  0  0  0  0  0  0  0  0  0
  150.6752  142.2023  156.9218 C   0  0  0  0  0  0  0  0  0  0  0  0
  149.5417  141.3680  157.4675 C   0  0  0  0  0  0  0  0  0  0  0  0
  150.1192  138.6474  155.3051 C   0  0  0  0  0  0  0  0  0  0  0  0
  147.8292  133.3113  151.3575 H   0  0  0  0  0  0  0  0  0  0  0  0
  146.7613  134.0005  152.5986 H   0  0  0  0  0  0  0  0  0  0  0  0
  146.3983  132.4116  151.9011 H   0  0  0  0  0  0  0  0  0  0  0  0
  148.8923  129.9879  154.9738 H   0  0  0  0  0  0  0  0  0  0  0  0
  148.8804  134.8145  153.1683 H   0  0  0  0  0  0  0  0  0  0  0  0
  149.7095  136.6875  153.5196 H   0  0  0  0  0  0  0  0  0  0  0  0
  151.3333  137.0203  155.9979 H   0  0  0  0  0  0  0  0  0  0  0  0
  152.9000  136.9874  154.0858 H   0  0  0  0  0  0  0  0  0  0  0  0
  151.8957  138.1101  153.1958 H   0  0  0  0  0  0  0  0  0  0  0  0
  153.3763  138.7230  155.8105 H   0  0  0  0  0  0  0  0  0  0  0  0
  153.7616  139.3444  154.2179 H   0  0  0  0  0  0  0  0  0  0  0  0
  151.3566  139.4743  156.8811 H   0  0  0  0  0  0  0  0  0  0  0  0
  149.5201  141.3073  155.2569 H   0  0  0  0  0  0  0  0  0  0  0  0
  151.6526  142.0862  157.3857 H   0  0  0  0  0  0  0  0  0  0  0  0
  150.4401  143.2066  156.5754 H   0  0  0  0  0  0  0  0  0  0  0  0
  148.5501  141.8150  157.4853 H   0  0  0  0  0  0  0  0  0  0  0  0
  149.7654  140.6956  158.2934 H   0  0  0  0  0  0  0  0  0  0  0  0
  149.6663  138.9885  154.3728 H   0  0  0  0  0  0  0  0  0  0  0  0
  149.2980  138.3869  155.9740 H   0  0  0  0  0  0  0  0  0  0  0  0
  1  2  1  0  0  0  0
  1 20  1  0  0  0  0
  1 21  1  0  0  0  0
  1 22  1  0  0  0  0
  2  6  1  0  0  0  0
  2  3  1  0  0  0  0
  3  4  2  0  0  0  0
  4  5  1  0  0  0  0
  4 23  1  0  0  0  0
  5  6  2  0  0  0  0
  6  7  1  0  0  0  0
  7  8  1  0  0  0  0
  7 24  1  0  0  0  0
  8  9  2  0  0  0  0
  8 10  1  0  0  0  0
 10 11  1  0  0  0  0
 10 25  1  0  0  0  0
 11 19  1  0  0  0  0
 11 12  1  0  0  0  0
 11 26  1  0  0  0  0
 12 13  1  0  0  0  0
 12 27  1  0  0  0  0
 12 28  1  0  0  0  0
 13 14  1  0  0  0  0
 13 29  1  0  0  0  0
 13 30  1  0  0  0  0
 14 15  1  0  0  0  0
 15 16  1  0  0  0  0
 15 19  1  0  0  0  0
 15 31  1  0  0  0  0
 16 18  1  0  0  0  0
 16 17  1  0  0  0  0
 16 32  1  0  0  0  0
 17 18  1  0  0  0  0
 17 33  1  0  0  0  0
 17 34  1  0  0  0  0
 18 35  1  0  0  0  0
 18 36  1  0  0  0  0
 19 37  1  0  0  0  0
 19 38  1  0  0  0  0
M  END
> <s_m_source_file>
AV-unprocessed.smi

> <i_m_source_file_index>
2322

> <i_lp_mmshare_version>
43012

> <i_f3d_flags>
0

> <s_epik_input>
W0NIM11uMW5bY0hdbmMxW05IXUMoPU8pW05IXVtDQEBIXTJbQ0gyXVtDSDJdT1tDQEhdKFtDSDJdMilbQ0hdM1tDSDJdW0NIMl0z

> <s_epik_cmdline>
J2VwaWtfcHl0aG9uJywgJy1waCcsICc3LjAnLCAnLXRuJywgJzgnLCAnLW1hJywgJzIwMCcsICctbWV0YWxfYmluZGluZycsICctaW1hZScsICc8aW5maWxlLm1hZT4nLCAnLW9tYWUnLCAnPG91dGZpbGUubWFlPic=

> <r_lp_tautomer_probability>
1

> <r_epik_Ionization_Penalty>
2.16399e-05

> <r_epik_Ionization_Penalty_Charging>
0

> <r_epik_Ionization_Penalty_Neutral>
2.16399e-05

> <r_epik_State_Penalty>
-0

> <r_epik_Charging_Adjusted_Penalty>
0

> <i_epik_Tot_Q>
0

> <i_epik_Tot_abs_Q>
0

> <r_epik_Metal_State_Penalty>
-0

> <b_epik_Metal_Only>
0

> <s_lp_Force_Field>
OPLS_2005

> <r_lp_Energy>
20.3548

> <b_lp_Chiralities_Consistent>
1

> <s_lp_Variant>
AV-unprocessed.smi:2322-2

> <Gold.Version>
5.8.1

> <Gold.Id.Protein>
6NUR|6NUR_protein|mol2

> <Gold.PLP.Fitness>
40.1381

> <Gold.PLP.PLP>
-32.3913

> <Gold.PLP.part.hbond>
-4.0000

> <Gold.PLP.part.metal>
0.0000

> <Gold.PLP.part.buried>
-1.2243

> <Gold.PLP.part.nonpolar>
-27.9656

> <Gold.PLP.part.repulsive>
0.2652

> <Gold.PLP.ligand.clash>
0.0000

> <Gold.PLP.ligand.torsion>
0.6726

> <Gold.PLP.Chemscore.Hbond>
2.6712

> <Gold.PLP.Chemscore.CHOScore>
0.0000

> <Gold.PLP.Chemscore.Metal>
0.0000

> <Gold.Chemscore.Hbonds>
donor molecule, donor type, donor heavy atom, donor atom, acceptor molecule, acceptor atom, score
      L1  H     7    24       P1  7948  0.88
      L1  H    10    25       P1  7948  0.96
      P1  H  7989  7998       L1    14  0.78

> <Gold.PLP.Chemscore.Internal.Correction>
1.0784

> <Gold.Rescore>
     Score         DG    S(hbond)    S(metal)    S(lipo)     H(rot)  DE(clash)    DE(int)     intcor
     14.68     -16.45       2.13        0.00      61.41       1.31       0.01       1.76       ----

> <Gold.Chemscore.Fitness>
14.6765

> <Gold.Chemscore.DG>
-16.4475

> <Gold.Chemscore.ZeroCoef>
-5.4800

> <Gold.Chemscore.Hbond>
2.1343

> <Gold.Chemscore.Metal>
0.0000

> <Gold.Chemscore.Lipo>
61.4137

> <Gold.Chemscore.Internal_Hbond>
0.0000

> <Gold.Chemscore.DEClash>
0.0149

> <Gold.Chemscore.DEInternal>
1.7561

> <Gold.Chemscore.Rot>
1.3072

> <Gold.Chemscore.Internal.Correction>
   9.000000E+99

> <Gold.Chemscore.Hbonds>
donor molecule, donor type, donor heavy atom, donor atom, acceptor molecule, acceptor atom, score
      L1  H     7    24       P1  7948  0.17
      L1  H    10    25       P1  7948  0.46
      P1  H  7989  7998       L1    14  0.59

> <Gold.Chemscore.Hbond.Weighted>
-7.1285

> <Gold.Chemscore.Metal.Weighted>
-0.0000

> <Gold.Chemscore.Lipo.Weighted>
-7.1854

> <Gold.Chemscore.Internal_Hbond.Weighted>
0.0000

> <Gold.Chemscore.DEClash.Weighted>
0.0149

> <Gold.Chemscore.DEInternal.Weighted>
1.7561

> <Gold.Chemscore.Rot.Weighted>
3.3464

> <Gold.Chemscore.Internal.Correction.Weighted>
   9.000000E+99

> <Gold.Protein.RotatedTorsions>
[ 6907 6896 6895 6894 ] final   77.43 input  -60.11 | X-H torsion
[ 7974 7965 7964 7962 ] final   -6.06 input  175.53 | X-H torsion
[ 8008 7997 7996 7995 ] final   87.28 input   59.86 | X-H torsion
[ 10167 10162 10161 10158 ] final  -31.74 input  -65.29 | X-H torsion
[ 10718 10713 10712 10709 ] final  145.61 input   66.30 | X-H torsion
[ 10763 10752 10751 10750 ] final -109.50 input  -60.55 | X-H torsion
[ 11005 11000 10999 10996 ] final   34.84 input  -57.11 | X-H torsion

> <Gold.Protein.ActiveResidues>
 VAL166  LYS551  ARG553  GLY616  TRP617  ASP618  TYR619  PRO620  LYS621  CYS622 
 ASP623  PHE694  ASN695  SER759  ASP760  ASP761  ALA762  ILE779  LEU786  VAL792 
 PHE793  MET794  SER795  GLU796  ALA797  LYS798  CYS799  TRP800  GLU811  SER814 

> <Gold.Protein.RotatedAtoms>
  152.5117  134.3817  159.9353 H   0  0  0  0  0  0  0  0  0  0  0  0  # atno 6907 bound_to 6896
  151.3775  133.3827  159.2714 H   0  0  0  0  0  0  0  0  0  0  0  0  # atno 6908 bound_to 6896
  150.9530  134.8948  159.7742 H   0  0  0  0  0  0  0  0  0  0  0  0  # atno 6909 bound_to 6896
  146.2339  140.2115  142.8335 H   0  0  0  0  0  0  0  0  0  0  0  0  # atno 7974 bound_to 7965
  155.9734  140.3383  155.6596 H   0  0  0  0  0  0  0  0  0  0  0  0  # atno 8008 bound_to 7997
  155.6645  140.0720  157.2560 H   0  0  0  0  0  0  0  0  0  0  0  0  # atno 8009 bound_to 7997
  154.4172  140.1702  156.1800 H   0  0  0  0  0  0  0  0  0  0  0  0  # atno 8010 bound_to 7997
  140.7232  143.3747  151.1711 H   0  0  0  0  0  0  0  0  0  0  0  0  # atno 10167 bound_to 10162
  157.3431  131.0939  151.1065 H   0  0  0  0  0  0  0  0  0  0  0  0  # atno 10718 bound_to 10713
  154.8197  135.4598  154.0743 H   0  0  0  0  0  0  0  0  0  0  0  0  # atno 10763 bound_to 10752
  153.2107  135.6881  153.8124 H   0  0  0  0  0  0  0  0  0  0  0  0  # atno 10764 bound_to 10752
  153.7577  135.3289  155.3308 H   0  0  0  0  0  0  0  0  0  0  0  0  # atno 10765 bound_to 10752
  140.2488  134.3328  155.7898 H   0  0  0  0  0  0  0  0  0  0  0  0  # atno 11005 bound_to 11000
  144.9703  140.8362  143.5459 LP  0  0  0  0  0  0  0  0  0  0  0  0  # atno 17320 bound_to 7965
  145.2095  139.2211  143.5150 LP  0  0  0  0  0  0  0  0  0  0  0  0  # atno 17321 bound_to 7965
  139.7325  143.9050  152.3024 LP  0  0  0  0  0  0  0  0  0  0  0  0  # atno 17342 bound_to 10162
  139.8844  144.7000  150.8841 LP  0  0  0  0  0  0  0  0  0  0  0  0  # atno 17343 bound_to 10162
  157.2269  130.6507  149.5834 LP  0  0  0  0  0  0  0  0  0  0  0  0  # atno 17370 bound_to 10713
  155.9710  130.4611  150.6097 LP  0  0  0  0  0  0  0  0  0  0  0  0  # atno 17371 bound_to 10713
  141.2203  133.7341  156.9003 LP  0  0  0  0  0  0  0  0  0  0  0  0  # atno 17394 bound_to 11000
  140.1579  134.9185  157.2677 LP  0  0  0  0  0  0  0  0  0  0  0  0  # atno 17395 bound_to 11000

$$$$
