AV-unprocessed.smi:101|AV-procd|sdf|923|dock10
  -GOLD-   2262017433D 1   1.00000     0.00000
 Structure written by MMmdl.
 44 46  0  0  0  0  0  0  0  0  1 V2000
  146.7153  142.3250  157.8309 C   0  0  0  0  0  0  0  0  0  0  0  0
  146.7531  141.4176  156.6125 C   0  0  0  0  0  0  0  0  0  0  0  0
  147.6874  140.4449  156.4583 C   0  0  0  0  0  0  0  0  0  0  0  0
  147.7498  139.6049  155.3551 N   0  0  0  0  0  0  0  0  0  0  0  0
  148.8176  138.5363  155.2615 C   0  0  2  0  0  0  0  0  0  0  0  0
  149.4221  138.4254  156.5104 O   0  0  0  0  0  0  0  0  0  0  0  0
  150.7959  138.1219  156.3312 C   0  0  2  0  0  0  0  0  0  0  0  0
  151.5794  138.5233  157.5857 C   0  0  0  0  0  0  0  0  0  0  0  0
  151.5854  139.9370  157.6959 O   0  0  0  0  0  0  0  0  0  0  0  0
  152.5413  140.5529  158.4179 C   0  0  0  0  0  0  0  0  0  0  0  0
  153.5537  139.9858  158.8333 O   0  0  0  0  0  0  0  0  0  0  0  0
  152.2461  141.9944  158.6623 C   0  0  0  0  0  0  0  0  0  0  0  0
  152.7167  142.6060  159.8479 C   0  0  0  0  0  0  0  0  0  0  0  0
  152.4547  143.9653  160.1066 C   0  0  0  0  0  0  0  0  0  0  0  0
  151.7195  144.7304  159.1825 C   0  0  0  0  0  0  0  0  0  0  0  0
  151.2457  144.1338  157.9994 C   0  0  0  0  0  0  0  0  0  0  0  0
  151.5063  142.7744  157.7390 C   0  0  0  0  0  0  0  0  0  0  0  0
  151.1756  138.9296  155.0873 C   0  0  1  0  0  0  0  0  0  0  0  0
  152.2760  138.3315  154.4309 O   0  0  0  0  0  0  0  0  0  0  0  0
  149.9196  138.8558  154.2241 C   0  0  2  0  0  0  0  0  0  0  0  0
  149.7278  140.0668  153.5145 O   0  0  0  0  0  0  0  0  0  0  0  0
  146.8109  139.7566  154.3141 C   0  0  0  0  0  0  0  0  0  0  0  0
  146.8201  139.0675  153.2949 O   0  0  0  0  0  0  0  0  0  0  0  0
  145.8478  140.7513  154.4744 N   0  0  0  0  0  0  0  0  0  0  0  0
  145.7409  141.6118  155.5702 C   0  0  0  0  0  0  0  0  0  0  0  0
  144.8426  142.4512  155.5972 O   0  0  0  0  0  0  0  0  0  0  0  0
  145.1708  140.8623  153.7336 H   0  0  0  0  0  0  0  0  0  0  0  0
  147.5197  142.0963  158.5307 H   0  0  0  0  0  0  0  0  0  0  0  0
  145.7687  142.2122  158.3606 H   0  0  0  0  0  0  0  0  0  0  0  0
  146.8194  143.3688  157.5323 H   0  0  0  0  0  0  0  0  0  0  0  0
  148.4307  140.3223  157.2335 H   0  0  0  0  0  0  0  0  0  0  0  0
  148.3194  137.5869  155.0587 H   0  0  0  0  0  0  0  0  0  0  0  0
  150.8952  137.0528  156.1323 H   0  0  0  0  0  0  0  0  0  0  0  0
  151.1041  138.1023  158.4728 H   0  0  0  0  0  0  0  0  0  0  0  0
  152.5974  138.1335  157.5392 H   0  0  0  0  0  0  0  0  0  0  0  0
  153.2839  142.0390  160.5724 H   0  0  0  0  0  0  0  0  0  0  0  0
  152.8189  144.4213  161.0154 H   0  0  0  0  0  0  0  0  0  0  0  0
  151.5192  145.7729  159.3809 H   0  0  0  0  0  0  0  0  0  0  0  0
  150.6809  144.7202  157.2894 H   0  0  0  0  0  0  0  0  0  0  0  0
  151.1287  142.3481  156.8209 H   0  0  0  0  0  0  0  0  0  0  0  0
  151.4024  139.9617  155.3613 H   0  0  0  0  0  0  0  0  0  0  0  0
  152.2063  138.5046  153.5045 H   0  0  0  0  0  0  0  0  0  0  0  0
  149.9639  138.0228  153.5207 H   0  0  0  0  0  0  0  0  0  0  0  0
  149.4469  139.8573  152.6367 H   0  0  0  0  0  0  0  0  0  0  0  0
  1  2  1  0  0  0  0
  1 28  1  0  0  0  0
  1 29  1  0  0  0  0
  1 30  1  0  0  0  0
  2 25  1  0  0  0  0
  2  3  2  0  0  0  0
  3  4  1  0  0  0  0
  3 31  1  0  0  0  0
  4  5  1  0  0  0  0
  4 22  1  0  0  0  0
  5 20  1  0  0  0  0
  5  6  1  0  0  0  0
  5 32  1  0  0  0  0
  6  7  1  0  0  0  0
  7  8  1  0  0  0  0
  7 18  1  0  0  0  0
  7 33  1  0  0  0  0
  8  9  1  0  0  0  0
  8 34  1  0  0  0  0
  8 35  1  0  0  0  0
  9 10  1  0  0  0  0
 10 11  2  0  0  0  0
 10 12  1  0  0  0  0
 12 17  1  0  0  0  0
 12 13  2  0  0  0  0
 13 14  1  0  0  0  0
 13 36  1  0  0  0  0
 14 15  2  0  0  0  0
 14 37  1  0  0  0  0
 15 16  1  0  0  0  0
 15 38  1  0  0  0  0
 16 17  2  0  0  0  0
 16 39  1  0  0  0  0
 17 40  1  0  0  0  0
 18 19  1  0  0  0  0
 18 20  1  0  0  0  0
 18 41  1  0  0  0  0
 19 42  1  0  0  0  0
 20 21  1  0  0  0  0
 20 43  1  0  0  0  0
 21 44  1  0  0  0  0
 22 23  2  0  0  0  0
 22 24  1  0  0  0  0
 24 27  1  0  0  0  0
 24 25  1  0  0  0  0
 25 26  2  0  0  0  0
M  END
> <s_m_source_file>
AV-unprocessed.smi

> <i_m_source_file_index>
101

> <i_lp_mmshare_version>
43012

> <i_f3d_flags>
0

> <s_epik_input>
Tz1jMVtuSF1jKD1PKW4oW2NIXWMxW0NIM10pW0NAQEhdMk9bQ0BIXShbQ0BASF0oW09IXSlbQ0BIXTJbT0hdKVtDSDJdT0MoPU8pYzNbY0hdW2NIXVtjSF1bY0hdW2NIXTM=

> <s_epik_cmdline>
J2VwaWtfcHl0aG9uJywgJy1waCcsICc3LjAnLCAnLXRuJywgJzgnLCAnLW1hJywgJzIwMCcsICctbWV0YWxfYmluZGluZycsICctaW1hZScsICc8aW5maWxlLm1hZT4nLCAnLW9tYWUnLCAnPG91dGZpbGUubWFlPic=

> <r_lp_tautomer_probability>
0.999537

> <r_epik_Ionization_Penalty>
0.00263537

> <r_epik_Ionization_Penalty_Charging>
0.00263428

> <r_epik_Ionization_Penalty_Neutral>
1.09111e-06

> <r_epik_State_Penalty>
0.00183335

> <r_epik_Charging_Adjusted_Penalty>
0.00446763

> <i_epik_Tot_Q>
0

> <i_epik_Tot_abs_Q>
0

> <r_epik_Metal_State_Penalty>
1.00528

> <b_epik_Metal_Only>
0

> <s_epik_Chemistry_Notes>
This compound has an ester and may undergo hydrolysis at high or low pH. This compound contains an acetal/aminal-like group ( X-CH(R)-Y where X, Y are N, S, or O) that may be acid/base labile, releasing an aldehyde.

> <s_lp_Force_Field>
OPLS_2005

> <r_lp_Energy>
35.5527

> <b_lp_Chiralities_Consistent>
1

> <s_lp_Variant>
AV-unprocessed.smi:101-11

> <Gold.Version>
5.8.1

> <Gold.Id.Protein>
6NUR|6NUR_protein|mol2

> <Gold.PLP.Fitness>
47.6781

> <Gold.PLP.PLP>
-38.3241

> <Gold.PLP.part.hbond>
-3.5258

> <Gold.PLP.part.metal>
0.0000

> <Gold.PLP.part.buried>
-7.9474

> <Gold.PLP.part.nonpolar>
-28.3592

> <Gold.PLP.part.repulsive>
0.3582

> <Gold.PLP.ligand.clash>
0.0000

> <Gold.PLP.ligand.torsion>
0.9543

> <Gold.PLP.Chemscore.Hbond>
3.6298

> <Gold.PLP.Chemscore.CHOScore>
0.0000

> <Gold.PLP.Chemscore.Metal>
0.0000

> <Gold.Chemscore.Hbonds>
donor molecule, donor type, donor heavy atom, donor atom, acceptor molecule, acceptor atom, score
      L1  H    21    44       P1  7957  0.89
      L1  H    24    27       P1 10175  1.00
      P1  H  7989  7998       L1    21  0.61
      P1  H  7997  8008       L1    11  0.94

> <Gold.PLP.Chemscore.Internal.Correction>
0.3734

> <Gold.Rescore>
     Score         DG    S(hbond)    S(metal)    S(lipo)     H(rot)  DE(clash)    DE(int)     intcor
     16.70     -17.92       2.90        0.00      96.04       3.32       0.04       1.18       ----

> <Gold.Chemscore.Fitness>
16.7020

> <Gold.Chemscore.DG>
-17.9208

> <Gold.Chemscore.ZeroCoef>
-5.4800

> <Gold.Chemscore.Hbond>
2.9031

> <Gold.Chemscore.Metal>
0.0000

> <Gold.Chemscore.Lipo>
96.0399

> <Gold.Chemscore.Internal_Hbond>
0.0000

> <Gold.Chemscore.DEClash>
0.0383

> <Gold.Chemscore.DEInternal>
1.1805

> <Gold.Chemscore.Rot>
3.3172

> <Gold.Chemscore.Internal.Correction>
   9.000000E+99

> <Gold.Chemscore.Hbonds>
donor molecule, donor type, donor heavy atom, donor atom, acceptor molecule, acceptor atom, score
      L1  H    21    44       P1  7957  0.83
      L1  H    24    27       P1 10175  0.86
      P1  H  7989  7998       L1    21  0.16
      P1  H  7997  8008       L1    11  0.39

> <Gold.Chemscore.Hbond.Weighted>
-9.6962

> <Gold.Chemscore.Metal.Weighted>
-0.0000

> <Gold.Chemscore.Lipo.Weighted>
-11.2367

> <Gold.Chemscore.Internal_Hbond.Weighted>
0.0000

> <Gold.Chemscore.DEClash.Weighted>
0.0383

> <Gold.Chemscore.DEInternal.Weighted>
1.1805

> <Gold.Chemscore.Rot.Weighted>
8.4920

> <Gold.Chemscore.Internal.Correction.Weighted>
   9.000000E+99

> <Gold.Protein.RotatedTorsions>
[ 6907 6896 6895 6894 ] final  159.94 input  -60.11 | X-H torsion
[ 7974 7965 7964 7962 ] final   69.10 input  175.53 | X-H torsion
[ 8008 7997 7996 7995 ] final -104.32 input   59.86 | X-H torsion
[ 10167 10162 10161 10158 ] final  -57.34 input  -65.29 | X-H torsion
[ 10718 10713 10712 10709 ] final -121.60 input   66.30 | X-H torsion
[ 10763 10752 10751 10750 ] final   70.23 input  -60.55 | X-H torsion
[ 11005 11000 10999 10996 ] final  102.23 input  -57.11 | X-H torsion

> <Gold.Protein.ActiveResidues>
 VAL166  LYS551  ARG553  GLY616  TRP617  ASP618  TYR619  PRO620  LYS621  CYS622 
 ASP623  PHE694  ASN695  SER759  ASP760  ASP761  ALA762  ILE779  LEU786  VAL792 
 PHE793  MET794  SER795  GLU796  ALA797  LYS798  CYS799  TRP800  GLU811  SER814 

> <Gold.Protein.RotatedAtoms>
  151.9780  133.3748  159.4096 H   0  0  0  0  0  0  0  0  0  0  0  0  # atno 6907 bound_to 6896
  150.6939  134.4069  159.5153 H   0  0  0  0  0  0  0  0  0  0  0  0  # atno 6908 bound_to 6896
  152.1783  134.8775  160.0579 H   0  0  0  0  0  0  0  0  0  0  0  0  # atno 6909 bound_to 6896
  145.7946  139.2951  143.1190 H   0  0  0  0  0  0  0  0  0  0  0  0  # atno 7974 bound_to 7965
  154.8837  140.0418  157.1797 H   0  0  0  0  0  0  0  0  0  0  0  0  # atno 8008 bound_to 7997
  154.8613  140.2944  155.5516 H   0  0  0  0  0  0  0  0  0  0  0  0  # atno 8009 bound_to 7997
  156.2998  140.2446  156.3587 H   0  0  0  0  0  0  0  0  0  0  0  0  # atno 8010 bound_to 7997
  140.6264  143.2440  151.5353 H   0  0  0  0  0  0  0  0  0  0  0  0  # atno 10167 bound_to 10162
  156.1350  130.6424  150.9682 H   0  0  0  0  0  0  0  0  0  0  0  0  # atno 10718 bound_to 10713
  153.0330  135.5181  154.7410 H   0  0  0  0  0  0  0  0  0  0  0  0  # atno 10763 bound_to 10752
  154.6409  135.2912  155.0107 H   0  0  0  0  0  0  0  0  0  0  0  0  # atno 10764 bound_to 10752
  154.1025  135.6634  153.4923 H   0  0  0  0  0  0  0  0  0  0  0  0  # atno 10765 bound_to 10752
  139.8776  134.9216  156.5027 H   0  0  0  0  0  0  0  0  0  0  0  0  # atno 11005 bound_to 11000
  145.9941  140.8577  143.0051 LP  0  0  0  0  0  0  0  0  0  0  0  0  # atno 17320 bound_to 7965
  144.6777  140.2258  143.7361 LP  0  0  0  0  0  0  0  0  0  0  0  0  # atno 17321 bound_to 7965
  139.5484  144.2461  152.1485 LP  0  0  0  0  0  0  0  0  0  0  0  0  # atno 17342 bound_to 10162
  140.1693  144.4951  150.6588 LP  0  0  0  0  0  0  0  0  0  0  0  0  # atno 17343 bound_to 10162
  157.6524  131.0895  150.8022 LP  0  0  0  0  0  0  0  0  0  0  0  0  # atno 17370 bound_to 10713
  156.8103  130.4950  149.5357 LP  0  0  0  0  0  0  0  0  0  0  0  0  # atno 17371 bound_to 10713
  140.8578  133.8083  155.9233 LP  0  0  0  0  0  0  0  0  0  0  0  0  # atno 17394 bound_to 11000
  140.9080  134.2296  157.5003 LP  0  0  0  0  0  0  0  0  0  0  0  0  # atno 17395 bound_to 11000

$$$$
