AV-unprocessed.smi:1867|AV-procd|sdf|7563|dock2
  -GOLD-   22720 9283D 1   1.00000     0.00000
 Structure written by MMmdl.
 52 55  0  0  0  0  0  0  0  0  2 V2000
  146.3967  136.6738  155.4600 O   0  0  0  0  0  0  0  0  0  0  0  0
  147.0729  136.4602  154.4569 C   0  0  0  0  0  0  0  0  0  0  0  0
  148.2407  137.0684  154.1705 N   0  0  0  0  0  0  0  0  0  0  0  0
  148.9405  138.0537  154.9179 C   0  0  0  0  0  0  0  0  0  0  0  0
  148.7864  138.2650  156.3090 C   0  0  0  0  0  0  0  0  0  0  0  0
  149.5541  139.2662  156.9339 C   0  0  0  0  0  0  0  0  0  0  0  0
  150.4574  140.0195  156.1565 C   0  0  0  0  0  0  0  0  0  0  0  0
  151.2210  141.0156  156.7840 N   0  0  0  0  0  0  0  0  0  0  0  0
  150.7293  142.3738  156.6200 C   0  0  0  0  0  0  0  0  0  0  0  0
  151.4713  143.2029  157.6704 C   0  0  0  0  0  0  0  0  0  0  0  0
  151.8991  142.1896  158.7389 C   0  0  0  0  0  0  0  0  0  0  0  0
  151.4187  140.8335  158.2128 C   0  0  0  0  0  0  0  0  0  0  0  0
  150.6178  139.8143  154.8273 N   0  0  0  0  0  0  0  0  0  0  0  0
  149.8791  138.8534  154.2343 C   0  0  0  0  0  0  0  0  0  0  0  0
  146.6680  135.5792  153.5244 N   0  0  0  0  0  0  0  0  0  0  0  0
  145.4573  134.7541  153.5217 C   0  0  1  0  0  0  0  0  0  0  0  0
  144.2174  135.5140  153.0304 C   0  0  0  0  0  0  0  0  0  0  0  0
  143.3432  134.4546  152.3362 C   0  0  0  0  0  0  0  0  0  0  0  0
  144.0967  133.1835  152.4137 N   0  3  1  0  0  0  0  0  0  0  0  0
  143.7964  132.1720  151.3682 C   0  0  0  0  0  0  0  0  0  0  0  0
  144.4822  132.4826  150.0273 C   0  0  0  0  0  0  0  0  0  0  0  0
  145.9886  132.6800  150.2250 C   0  0  0  0  0  0  0  0  0  0  0  0
  146.2317  133.8062  151.2351 C   0  0  0  0  0  0  0  0  0  0  0  0
  145.5246  133.5321  152.5876 C   0  0  1  0  0  0  0  0  0  0  0  0
  148.6518  136.8355  153.2788 H   0  0  0  0  0  0  0  0  0  0  0  0
  148.1116  137.6771  156.9106 H   0  0  0  0  0  0  0  0  0  0  0  0
  149.4529  139.4474  157.9941 H   0  0  0  0  0  0  0  0  0  0  0  0
  150.9179  142.7416  155.6110 H   0  0  0  0  0  0  0  0  0  0  0  0
  149.6542  142.4184  156.7999 H   0  0  0  0  0  0  0  0  0  0  0  0
  152.3532  143.6684  157.2288 H   0  0  0  0  0  0  0  0  0  0  0  0
  150.8431  143.9969  158.0751 H   0  0  0  0  0  0  0  0  0  0  0  0
  152.9847  142.1958  158.8445 H   0  0  0  0  0  0  0  0  0  0  0  0
  151.4692  142.4124  159.7158 H   0  0  0  0  0  0  0  0  0  0  0  0
  150.4819  140.5542  158.6971 H   0  0  0  0  0  0  0  0  0  0  0  0
  152.1470  140.0467  158.4107 H   0  0  0  0  0  0  0  0  0  0  0  0
  150.0418  138.7215  153.1745 H   0  0  0  0  0  0  0  0  0  0  0  0
  147.2792  135.4629  152.7286 H   0  0  0  0  0  0  0  0  0  0  0  0
  145.2480  134.4111  154.5371 H   0  0  0  0  0  0  0  0  0  0  0  0
  143.6949  136.0048  153.8521 H   0  0  0  0  0  0  0  0  0  0  0  0
  144.4933  136.2869  152.3113 H   0  0  0  0  0  0  0  0  0  0  0  0
  142.3740  134.3427  152.8229 H   0  0  0  0  0  0  0  0  0  0  0  0
  143.1640  134.7420  151.2996 H   0  0  0  0  0  0  0  0  0  0  0  0
  144.1446  131.2039  151.7307 H   0  0  0  0  0  0  0  0  0  0  0  0
  142.7170  132.0838  151.2393 H   0  0  0  0  0  0  0  0  0  0  0  0
  144.3027  131.6697  149.3232 H   0  0  0  0  0  0  0  0  0  0  0  0
  144.0471  133.3764  149.5790 H   0  0  0  0  0  0  0  0  0  0  0  0
  146.4443  131.7545  150.5794 H   0  0  0  0  0  0  0  0  0  0  0  0
  146.4640  132.9204  149.2735 H   0  0  0  0  0  0  0  0  0  0  0  0
  147.3043  133.9272  151.3900 H   0  0  0  0  0  0  0  0  0  0  0  0
  145.8778  134.7452  150.8075 H   0  0  0  0  0  0  0  0  0  0  0  0
  146.0282  132.7003  153.0825 H   0  0  0  0  0  0  0  0  0  0  0  0
  143.8127  132.7718  153.2913 H   0  0  0  0  0  0  0  0  0  0  0  0
  1  2  2  0  0  0  0
  2  3  1  0  0  0  0
  2 15  1  0  0  0  0
  3  4  1  0  0  0  0
  3 25  1  0  0  0  0
  4 14  1  0  0  0  0
  4  5  2  0  0  0  0
  5  6  1  0  0  0  0
  5 26  1  0  0  0  0
  6  7  2  0  0  0  0
  6 27  1  0  0  0  0
  7  8  1  0  0  0  0
  7 13  1  0  0  0  0
  8 12  1  0  0  0  0
  8  9  1  0  0  0  0
  9 10  1  0  0  0  0
  9 28  1  0  0  0  0
  9 29  1  0  0  0  0
 10 11  1  0  0  0  0
 10 30  1  0  0  0  0
 10 31  1  0  0  0  0
 11 12  1  0  0  0  0
 11 32  1  0  0  0  0
 11 33  1  0  0  0  0
 12 34  1  0  0  0  0
 12 35  1  0  0  0  0
 13 14  2  0  0  0  0
 14 36  1  0  0  0  0
 15 16  1  0  0  0  0
 15 37  1  0  0  0  0
 16 24  1  0  0  0  0
 16 17  1  0  0  0  0
 16 38  1  0  0  0  0
 17 18  1  0  0  0  0
 17 39  1  0  0  0  0
 17 40  1  0  0  0  0
 18 19  1  0  0  0  0
 18 41  1  0  0  0  0
 18 42  1  0  0  0  0
 19 24  1  0  0  0  0
 19 20  1  0  0  0  0
 19 52  1  0  0  0  0
 20 21  1  0  0  0  0
 20 43  1  0  0  0  0
 20 44  1  0  0  0  0
 21 22  1  0  0  0  0
 21 45  1  0  0  0  0
 21 46  1  0  0  0  0
 22 23  1  0  0  0  0
 22 47  1  0  0  0  0
 22 48  1  0  0  0  0
 23 24  1  0  0  0  0
 23 49  1  0  0  0  0
 23 50  1  0  0  0  0
 24 51  1  0  0  0  0
M  CHG  1  19   1
M  END
> <s_m_source_file>
AV-unprocessed.smi

> <i_m_source_file_index>
1867

> <i_lp_mmshare_version>
43012

> <i_f3d_flags>
0

> <s_epik_input>
W0NIMl0xW0NIMl1bQ0gyXVtDSDJdW0NASF0oTjEyKVtDQEBIXShbQ0gyXVtDSDJdMilbTkhdQyg9TylbTkhdYzNbY0hdW2NIXWMobltjSF0zKU40W0NIMl1bQ0gyXVtDSDJdW0NIMl00

> <s_epik_cmdline>
J2VwaWtfcHl0aG9uJywgJy1waCcsICc3LjAnLCAnLXRuJywgJzgnLCAnLW1hJywgJzIwMCcsICctbWV0YWxfYmluZGluZycsICctaW1hZScsICc8aW5maWxlLm1hZT4nLCAnLW9tYWUnLCAnPG91dGZpbGUubWFlPic=

> <r_lp_tautomer_probability>
1

> <r_epik_Ionization_Penalty>
0.0751123

> <r_epik_Ionization_Penalty_Charging>
0.000974069

> <r_epik_Ionization_Penalty_Neutral>
0.0741382

> <r_epik_State_Penalty>
0.0647261

> <r_epik_Charging_Adjusted_Penalty>
0.0657002

> <i_epik_Tot_Q>
1

> <i_epik_Tot_abs_Q>
1

> <r_epik_Metal_State_Penalty>
0.0580571

> <b_epik_Metal_Only>
0

> <s_lp_Force_Field>
OPLS_2005

> <r_lp_Energy>
77.3857

> <b_lp_Chiralities_Consistent>
1

> <s_lp_Variant>
AV-unprocessed.smi:1867-4

> <Gold.Version>
5.8.1

> <Gold.Id.Protein>
6NUR|6NUR_protein|mol2

> <Gold.PLP.Fitness>
48.5078

> <Gold.PLP.PLP>
-34.3448

> <Gold.PLP.part.hbond>
-3.7655

> <Gold.PLP.part.metal>
0.0000

> <Gold.PLP.part.buried>
-6.4789

> <Gold.PLP.part.nonpolar>
-26.2522

> <Gold.PLP.part.repulsive>
0.1094

> <Gold.PLP.ligand.clash>
0.0000

> <Gold.PLP.ligand.torsion>
1.0181

> <Gold.PLP.Chemscore.Hbond>
4.3915

> <Gold.PLP.Chemscore.CHOScore>
1.0000

> <Gold.PLP.Chemscore.Metal>
0.0000

> <Gold.Chemscore.Hbonds>
donor molecule, donor type, donor heavy atom, donor atom, acceptor molecule, acceptor atom, score
      L1  H     3    25       P1  7948  1.00
      L1  H    15    37       P1  7948  0.86
      L1  H    19    52       P1 10957  1.53
      P1  H  7989  7998       L1    13  1.00
      L1  C    14    36       P1  7957  1.00

> <Gold.PLP.Chemscore.Internal.Correction>
0.0248

> <Gold.Rescore>
     Score         DG    S(hbond)    S(metal)    S(lipo)     H(rot)  DE(clash)    DE(int)     intcor
     22.45     -24.65       3.28        0.00      96.20       1.18       0.37       1.83       ----

> <Gold.Chemscore.Fitness>
22.4518

> <Gold.Chemscore.DG>
-24.6519

> <Gold.Chemscore.ZeroCoef>
-5.4800

> <Gold.Chemscore.Hbond>
3.2781

> <Gold.Chemscore.Metal>
0.0000

> <Gold.Chemscore.Lipo>
96.2010

> <Gold.Chemscore.Internal_Hbond>
0.0000

> <Gold.Chemscore.DEClash>
0.3663

> <Gold.Chemscore.DEInternal>
1.8338

> <Gold.Chemscore.Rot>
1.1845

> <Gold.Chemscore.Internal.Correction>
   9.000000E+99

> <Gold.Chemscore.Hbonds>
donor molecule, donor type, donor heavy atom, donor atom, acceptor molecule, acceptor atom, score
      L1  H     3    25       P1  7948  0.96
      L1  H    15    37       P1  7948  0.80
      L1  H    19    52       P1 10957  0.34
      P1  H  7989  7998       L1    13  0.77

> <Gold.Chemscore.Hbond.Weighted>
-10.9487

> <Gold.Chemscore.Metal.Weighted>
-0.0000

> <Gold.Chemscore.Lipo.Weighted>
-11.2555

> <Gold.Chemscore.Internal_Hbond.Weighted>
0.0000

> <Gold.Chemscore.DEClash.Weighted>
0.3663

> <Gold.Chemscore.DEInternal.Weighted>
1.8338

> <Gold.Chemscore.Rot.Weighted>
3.0324

> <Gold.Chemscore.Internal.Correction.Weighted>
   9.000000E+99

> <Gold.Protein.RotatedTorsions>
[ 6907 6896 6895 6894 ] final -159.64 input  -60.11 | X-H torsion
[ 7974 7965 7964 7962 ] final  140.31 input  175.53 | X-H torsion
[ 8008 7997 7996 7995 ] final -102.23 input   59.86 | X-H torsion
[ 10167 10162 10161 10158 ] final   15.30 input  -65.29 | X-H torsion
[ 10718 10713 10712 10709 ] final  165.80 input   66.30 | X-H torsion
[ 10763 10752 10751 10750 ] final -131.85 input  -60.55 | X-H torsion
[ 11005 11000 10999 10996 ] final  134.50 input  -57.11 | X-H torsion

> <Gold.Protein.ActiveResidues>
 VAL166  LYS551  ARG553  GLY616  TRP617  ASP618  TYR619  PRO620  LYS621  CYS622 
 ASP623  PHE694  ASN695  SER759  ASP760  ASP761  ALA762  ILE779  LEU786  VAL792 
 PHE793  MET794  SER795  GLU796  ALA797  LYS798  CYS799  TRP800  GLU811  SER814 

> <Gold.Protein.RotatedAtoms>
  151.3367  133.3979  159.2667 H   0  0  0  0  0  0  0  0  0  0  0  0  # atno 6907 bound_to 6896
  150.9911  134.9247  159.7911 H   0  0  0  0  0  0  0  0  0  0  0  0  # atno 6908 bound_to 6896
  152.5247  134.3331  159.9242 H   0  0  0  0  0  0  0  0  0  0  0  0  # atno 6909 bound_to 6896
  144.9198  139.5183  143.5669 H   0  0  0  0  0  0  0  0  0  0  0  0  # atno 7974 bound_to 7965
  154.8537  140.0429  157.1621 H   0  0  0  0  0  0  0  0  0  0  0  0  # atno 8008 bound_to 7997
  154.8914  140.2987  155.5348 H   0  0  0  0  0  0  0  0  0  0  0  0  # atno 8009 bound_to 7997
  156.2997  140.2393  156.3931 H   0  0  0  0  0  0  0  0  0  0  0  0  # atno 8010 bound_to 7997
  140.5877  143.8857  150.6845 H   0  0  0  0  0  0  0  0  0  0  0  0  # atno 10167 bound_to 10162
  157.0749  131.0376  151.2597 H   0  0  0  0  0  0  0  0  0  0  0  0  # atno 10718 bound_to 10713
  154.8748  135.3816  154.4314 H   0  0  0  0  0  0  0  0  0  0  0  0  # atno 10763 bound_to 10752
  153.5008  135.7030  153.5838 H   0  0  0  0  0  0  0  0  0  0  0  0  # atno 10764 bound_to 10752
  153.4171  135.3910  155.2054 H   0  0  0  0  0  0  0  0  0  0  0  0  # atno 10765 bound_to 10752
  139.9919  134.9512  156.9876 H   0  0  0  0  0  0  0  0  0  0  0  0  # atno 11005 bound_to 11000
  146.3199  139.8069  142.8954 LP  0  0  0  0  0  0  0  0  0  0  0  0  # atno 17320 bound_to 7965
  145.3315  141.0267  143.3444 LP  0  0  0  0  0  0  0  0  0  0  0  0  # atno 17321 bound_to 7965
  140.2372  143.3691  152.1516 LP  0  0  0  0  0  0  0  0  0  0  0  0  # atno 17342 bound_to 10162
  139.5208  144.7037  151.5417 LP  0  0  0  0  0  0  0  0  0  0  0  0  # atno 17343 bound_to 10162
  157.4847  130.7786  149.7449 LP  0  0  0  0  0  0  0  0  0  0  0  0  # atno 17370 bound_to 10713
  155.9940  130.3921  150.2878 LP  0  0  0  0  0  0  0  0  0  0  0  0  # atno 17371 bound_to 10713
  140.4892  134.1210  155.7230 LP  0  0  0  0  0  0  0  0  0  0  0  0  # atno 17394 bound_to 11000
  141.1573  133.8859  157.1944 LP  0  0  0  0  0  0  0  0  0  0  0  0  # atno 17395 bound_to 11000

$$$$
