AV-unprocessed.smi:2270|AV-procd|sdf|9154|dock6
  -GOLD-   2272012363D 1   1.00000     0.00000
 Structure written by MMmdl.
 53 54  0  0  0  0  0  0  0  0  2 V2000
  153.9760  141.8884  160.4392 C   0  0  0  0  0  0  0  0  0  0  0  0
  152.8864  142.8654  160.0507 C   0  0  0  0  0  0  0  0  0  0  0  0
  152.5760  143.9676  160.8704 C   0  0  0  0  0  0  0  0  0  0  0  0
  151.5576  144.8405  160.4487 C   0  0  0  0  0  0  0  0  0  0  0  0
  150.8908  144.5740  159.2376 C   0  0  0  0  0  0  0  0  0  0  0  0
  151.2532  143.4301  158.4811 C   0  0  0  0  0  0  0  0  0  0  0  0
  150.6180  143.1535  157.2416 N   0  0  0  0  0  0  0  0  0  0  0  0
  150.8389  142.1235  156.4063 C   0  0  0  0  0  0  0  0  0  0  0  0
  151.6595  141.2240  156.5890 O   0  0  0  0  0  0  0  0  0  0  0  0
  150.0522  142.1998  155.3236 N   0  0  0  0  0  0  0  0  0  0  0  0
  150.0177  141.2262  154.2391 C   0  0  0  0  0  0  0  0  0  0  0  0
  148.9243  140.1328  154.4435 C   0  0  2  0  0  0  0  0  0  0  0  0
  149.4753  138.6709  154.2984 C   0  0  0  0  0  0  0  0  0  0  0  0
  148.6987  137.6380  155.1356 C   0  0  0  0  0  0  0  0  0  0  0  0
  150.9928  138.5498  154.5322 C   0  0  0  0  0  0  0  0  0  0  0  0
  147.7639  140.3084  153.5356 N   0  0  0  0  0  0  0  0  0  0  0  0
  146.6598  139.3552  153.7497 C   0  0  0  0  0  0  0  0  0  0  0  0
  145.8457  139.6661  155.0250 C   0  0  0  0  0  0  0  0  0  0  0  0
  145.3009  141.0412  154.9711 N   0  3  0  0  0  0  0  0  0  0  0  0
  144.4745  141.3773  156.1497 C   0  0  0  0  0  0  0  0  0  0  0  0
  146.3884  142.0157  154.7330 C   0  0  0  0  0  0  0  0  0  0  0  0
  147.1552  141.6445  153.4463 C   0  0  0  0  0  0  0  0  0  0  0  0
  152.2496  142.6095  158.8870 N   0  0  0  0  0  0  0  0  0  0  0  0
  154.4511  142.1781  161.3770 H   0  0  0  0  0  0  0  0  0  0  0  0
  154.7443  141.8493  159.6665 H   0  0  0  0  0  0  0  0  0  0  0  0
  153.5610  140.8879  160.5634 H   0  0  0  0  0  0  0  0  0  0  0  0
  153.1055  144.1454  161.7950 H   0  0  0  0  0  0  0  0  0  0  0  0
  151.2945  145.7039  161.0416 H   0  0  0  0  0  0  0  0  0  0  0  0
  150.1229  145.2551  158.9027 H   0  0  0  0  0  0  0  0  0  0  0  0
  149.9931  143.8724  156.9081 H   0  0  0  0  0  0  0  0  0  0  0  0
  149.4127  142.9780  155.2559 H   0  0  0  0  0  0  0  0  0  0  0  0
  149.8264  141.8140  153.3429 H   0  0  0  0  0  0  0  0  0  0  0  0
  150.9945  140.7600  154.0997 H   0  0  0  0  0  0  0  0  0  0  0  0
  148.5591  140.2559  155.4621 H   0  0  0  0  0  0  0  0  0  0  0  0
  149.3255  138.3319  153.2771 H   0  0  0  0  0  0  0  0  0  0  0  0
  148.8906  137.7307  156.2030 H   0  0  0  0  0  0  0  0  0  0  0  0
  148.9827  136.6241  154.8524 H   0  0  0  0  0  0  0  0  0  0  0  0
  147.6239  137.7287  154.9770 H   0  0  0  0  0  0  0  0  0  0  0  0
  151.2632  138.7259  155.5731 H   0  0  0  0  0  0  0  0  0  0  0  0
  151.5440  139.2619  153.9175 H   0  0  0  0  0  0  0  0  0  0  0  0
  151.3474  137.5520  154.2722 H   0  0  0  0  0  0  0  0  0  0  0  0
  145.9970  139.4022  152.8845 H   0  0  0  0  0  0  0  0  0  0  0  0
  147.0042  138.3247  153.7880 H   0  0  0  0  0  0  0  0  0  0  0  0
  145.0181  138.9601  155.1036 H   0  0  0  0  0  0  0  0  0  0  0  0
  146.4496  139.5352  155.9233 H   0  0  0  0  0  0  0  0  0  0  0  0
  145.0692  141.3592  157.0641 H   0  0  0  0  0  0  0  0  0  0  0  0
  143.6558  140.6656  156.2598 H   0  0  0  0  0  0  0  0  0  0  0  0
  144.0396  142.3715  156.0431 H   0  0  0  0  0  0  0  0  0  0  0  0
  145.9597  143.0126  154.6250 H   0  0  0  0  0  0  0  0  0  0  0  0
  147.0532  142.0491  155.5970 H   0  0  0  0  0  0  0  0  0  0  0  0
  147.8959  142.4031  153.1965 H   0  0  0  0  0  0  0  0  0  0  0  0
  146.4603  141.6491  152.6051 H   0  0  0  0  0  0  0  0  0  0  0  0
  144.6934  141.0827  154.1651 H   0  0  0  0  0  0  0  0  0  0  0  0
  1  2  1  0  0  0  0
  1 24  1  0  0  0  0
  1 25  1  0  0  0  0
  1 26  1  0  0  0  0
  2 23  1  0  0  0  0
  2  3  2  0  0  0  0
  3  4  1  0  0  0  0
  3 27  1  0  0  0  0
  4  5  2  0  0  0  0
  4 28  1  0  0  0  0
  5  6  1  0  0  0  0
  5 29  1  0  0  0  0
  6  7  1  0  0  0  0
  6 23  2  0  0  0  0
  7  8  1  0  0  0  0
  7 30  1  0  0  0  0
  8  9  2  0  0  0  0
  8 10  1  0  0  0  0
 10 11  1  0  0  0  0
 10 31  1  0  0  0  0
 11 12  1  0  0  0  0
 11 32  1  0  0  0  0
 11 33  1  0  0  0  0
 12 13  1  0  0  0  0
 12 16  1  0  0  0  0
 12 34  1  0  0  0  0
 13 14  1  0  0  0  0
 13 15  1  0  0  0  0
 13 35  1  0  0  0  0
 14 36  1  0  0  0  0
 14 37  1  0  0  0  0
 14 38  1  0  0  0  0
 15 39  1  0  0  0  0
 15 40  1  0  0  0  0
 15 41  1  0  0  0  0
 16 22  1  0  0  0  0
 16 17  1  0  0  0  0
 17 18  1  0  0  0  0
 17 42  1  0  0  0  0
 17 43  1  0  0  0  0
 18 19  1  0  0  0  0
 18 44  1  0  0  0  0
 18 45  1  0  0  0  0
 19 20  1  0  0  0  0
 19 21  1  0  0  0  0
 19 53  1  0  0  0  0
 20 46  1  0  0  0  0
 20 47  1  0  0  0  0
 20 48  1  0  0  0  0
 21 22  1  0  0  0  0
 21 49  1  0  0  0  0
 21 50  1  0  0  0  0
 22 51  1  0  0  0  0
 22 52  1  0  0  0  0
M  CHG  1  19   1
M  END
> <s_m_source_file>
AV-unprocessed.smi

> <i_m_source_file_index>
2270

> <i_lp_mmshare_version>
43012

> <i_f3d_flags>
0

> <s_epik_input>
W0NIM11jMVtjSF1bY0hdW2NIXWMobjEpW05IXUMoPU8pW05IXVtDSDJdW0NASF0oW0NIXShbQ0gzXSlbQ0gzXSlOMltDSDJdW0NIMl1OKFtDSDNdKVtDSDJdW0NIMl0y

> <s_epik_cmdline>
J2VwaWtfcHl0aG9uJywgJy1waCcsICc3LjAnLCAnLXRuJywgJzgnLCAnLW1hJywgJzIwMCcsICctbWV0YWxfYmluZGluZycsICctaW1hZScsICc8aW5maWxlLm1hZT4nLCAnLW9tYWUnLCAnPG91dGZpbGUubWFlPic=

> <r_epik_Ionization_Penalty>
0.0278292

> <r_epik_Ionization_Penalty_Charging>
0.0272987

> <r_epik_Ionization_Penalty_Neutral>
0.000530468

> <r_epik_State_Penalty>
0.0776825

> <r_epik_Charging_Adjusted_Penalty>
0.104981

> <i_epik_Tot_Q>
1

> <i_epik_Tot_abs_Q>
1

> <r_epik_Metal_State_Penalty>
0.0776809

> <b_epik_Metal_Only>
0

> <s_lp_Force_Field>
OPLS_2005

> <r_lp_Energy>
34.9975

> <b_lp_Chiralities_Consistent>
1

> <s_lp_Variant>
AV-unprocessed.smi:2270-1

> <Gold.Version>
5.8.1

> <Gold.Id.Protein>
6NUR|6NUR_protein|mol2

> <Gold.PLP.Fitness>
49.4659

> <Gold.PLP.PLP>
-40.6047

> <Gold.PLP.part.hbond>
-3.0000

> <Gold.PLP.part.metal>
0.0000

> <Gold.PLP.part.buried>
-5.2967

> <Gold.PLP.part.nonpolar>
-33.0183

> <Gold.PLP.part.repulsive>
0.3662

> <Gold.PLP.ligand.clash>
0.0000

> <Gold.PLP.ligand.torsion>
1.6631

> <Gold.PLP.Chemscore.Hbond>
3.9920

> <Gold.PLP.Chemscore.CHOScore>
0.0000

> <Gold.PLP.Chemscore.Metal>
0.0000

> <Gold.Chemscore.Hbonds>
donor molecule, donor type, donor heavy atom, donor atom, acceptor molecule, acceptor atom, score
      L1  H     7    30       P1  8028  1.00
      L1  H    10    31       P1  8028  1.00
      L1  H    19    53       P1 10175  1.95

> <Gold.PLP.Chemscore.Internal.Correction>
0.2113

> <Gold.Rescore>
     Score         DG    S(hbond)    S(metal)    S(lipo)     H(rot)  DE(clash)    DE(int)     intcor
     17.98     -22.53       2.83        0.00     100.09       1.61       1.20       3.35       ----

> <Gold.Chemscore.Fitness>
17.9763

> <Gold.Chemscore.DG>
-22.5321

> <Gold.Chemscore.ZeroCoef>
-5.4800

> <Gold.Chemscore.Hbond>
2.8311

> <Gold.Chemscore.Metal>
0.0000

> <Gold.Chemscore.Lipo>
100.0884

> <Gold.Chemscore.Internal_Hbond>
0.0000

> <Gold.Chemscore.DEClash>
1.2010

> <Gold.Chemscore.DEInternal>
3.3549

> <Gold.Chemscore.Rot>
1.6070

> <Gold.Chemscore.Internal.Correction>
   9.000000E+99

> <Gold.Chemscore.Hbonds>
donor molecule, donor type, donor heavy atom, donor atom, acceptor molecule, acceptor atom, score
      L1  H     7    30       P1  8028  0.97
      L1  H    10    31       P1  8028  0.97
      L1  H    19    53       P1 10175  0.76

> <Gold.Chemscore.Hbond.Weighted>
-9.4557

> <Gold.Chemscore.Metal.Weighted>
-0.0000

> <Gold.Chemscore.Lipo.Weighted>
-11.7103

> <Gold.Chemscore.Internal_Hbond.Weighted>
0.0000

> <Gold.Chemscore.DEClash.Weighted>
1.2010

> <Gold.Chemscore.DEInternal.Weighted>
3.3549

> <Gold.Chemscore.Rot.Weighted>
4.1140

> <Gold.Chemscore.Internal.Correction.Weighted>
   9.000000E+99

> <Gold.Protein.RotatedTorsions>
[ 6907 6896 6895 6894 ] final  -89.82 input  -60.11 | X-H torsion
[ 7974 7965 7964 7962 ] final  -61.34 input  175.53 | X-H torsion
[ 8008 7997 7996 7995 ] final  175.37 input   59.86 | X-H torsion
[ 10167 10162 10161 10158 ] final  -72.91 input  -65.29 | X-H torsion
[ 10718 10713 10712 10709 ] final   76.11 input   66.30 | X-H torsion
[ 10763 10752 10751 10750 ] final -101.85 input  -60.55 | X-H torsion
[ 11005 11000 10999 10996 ] final  -36.82 input  -57.11 | X-H torsion

> <Gold.Protein.ActiveResidues>
 VAL166  LYS551  ARG553  GLY616  TRP617  ASP618  TYR619  PRO620  LYS621  CYS622 
 ASP623  PHE694  ASN695  SER759  ASP760  ASP761  ALA762  ILE779  LEU786  VAL792 
 PHE793  MET794  SER795  GLU796  ALA797  LYS798  CYS799  TRP800  GLU811  SER814 

> <Gold.Protein.RotatedAtoms>
  150.6876  134.2528  159.4517 H   0  0  0  0  0  0  0  0  0  0  0  0  # atno 6907 bound_to 6896
  152.0464  134.9678  160.0583 H   0  0  0  0  0  0  0  0  0  0  0  0  # atno 6908 bound_to 6896
  152.1159  133.4292  159.4690 H   0  0  0  0  0  0  0  0  0  0  0  0  # atno 6909 bound_to 6896
  145.8046  140.8635  143.0213 H   0  0  0  0  0  0  0  0  0  0  0  0  # atno 7974 bound_to 7965
  156.0878  140.1411  156.9631 H   0  0  0  0  0  0  0  0  0  0  0  0  # atno 8008 bound_to 7997
  154.4623  140.0939  156.6974 H   0  0  0  0  0  0  0  0  0  0  0  0  # atno 8009 bound_to 7997
  155.4970  140.3450  155.4367 H   0  0  0  0  0  0  0  0  0  0  0  0  # atno 8010 bound_to 7997
  140.5153  143.2339  151.7523 H   0  0  0  0  0  0  0  0  0  0  0  0  # atno 10167 bound_to 10162
  157.6661  130.9759  150.1450 H   0  0  0  0  0  0  0  0  0  0  0  0  # atno 10718 bound_to 10713
  154.7689  135.4882  153.9609 H   0  0  0  0  0  0  0  0  0  0  0  0  # atno 10763 bound_to 10752
  153.1342  135.6759  153.9136 H   0  0  0  0  0  0  0  0  0  0  0  0  # atno 10764 bound_to 10752
  153.8830  135.3130  155.3424 H   0  0  0  0  0  0  0  0  0  0  0  0  # atno 10765 bound_to 10752
  140.9904  133.7008  156.1840 H   0  0  0  0  0  0  0  0  0  0  0  0  # atno 11005 bound_to 11000
  144.6764  140.0308  143.7482 LP  0  0  0  0  0  0  0  0  0  0  0  0  # atno 17320 bound_to 7965
  145.9841  139.2964  143.1024 LP  0  0  0  0  0  0  0  0  0  0  0  0  # atno 17321 bound_to 7965
  139.4907  144.4332  151.9849 LP  0  0  0  0  0  0  0  0  0  0  0  0  # atno 17342 bound_to 10162
  140.3426  144.3185  150.5964 LP  0  0  0  0  0  0  0  0  0  0  0  0  # atno 17343 bound_to 10162
  156.2264  130.3678  149.8496 LP  0  0  0  0  0  0  0  0  0  0  0  0  # atno 17370 bound_to 10713
  156.6335  130.8675  151.3500 LP  0  0  0  0  0  0  0  0  0  0  0  0  # atno 17371 bound_to 10713
  140.7049  134.4524  157.5584 LP  0  0  0  0  0  0  0  0  0  0  0  0  # atno 17394 bound_to 11000
  139.8990  134.8602  156.1980 LP  0  0  0  0  0  0  0  0  0  0  0  0  # atno 17395 bound_to 11000

$$$$
