AV-unprocessed.smi:198|AV-procd|sdf|1555|dock6
  -GOLD-   2262019423D 1   1.00000     0.00000
 Structure written by MMmdl.
 59 63  0  0  0  0  0  0  0  0  2 V2000
  148.0488  128.2921  152.3332 C   0  0  0  0  0  0  0  0  0  0  0  0
  147.5105  129.6504  152.1069 N   0  3  2  0  0  0  0  0  0  0  0  0
  148.1177  130.6561  153.0123 C   0  0  0  0  0  0  0  0  0  0  0  0
  147.6521  132.0734  152.6482 C   0  0  0  0  0  0  0  0  0  0  0  0
  146.1118  132.1726  152.6790 C   0  0  2  0  0  0  0  0  0  0  0  0
  145.4726  131.0782  151.7914 C   0  0  1  0  0  0  0  0  0  0  0  0
  145.6096  131.4042  150.2895 C   0  0  0  0  0  0  0  0  0  0  0  0
  145.0566  132.8055  149.9946 C   0  0  0  0  0  0  0  0  0  0  0  0
  145.7288  133.8645  150.8817 C   0  0  0  0  0  0  0  0  0  0  0  0
  145.6227  133.5040  152.2983 N   0  0  0  0  0  0  0  0  0  0  0  0
  145.8303  134.4875  153.2128 C   0  0  0  0  0  0  0  0  0  0  0  0
  145.9645  134.1672  154.5279 N   0  0  0  0  0  0  0  0  0  0  0  0
  146.1494  135.1244  155.4415 C   0  0  0  0  0  0  0  0  0  0  0  0
  146.2260  136.4440  155.2627 N   0  0  0  0  0  0  0  0  0  0  0  0
  146.0954  136.7738  153.9460 C   0  0  0  0  0  0  0  0  0  0  0  0
  145.9032  135.8665  152.8654 C   0  0  0  0  0  0  0  0  0  0  0  0
  145.8449  136.5675  151.6665 N   0  0  0  0  0  0  0  0  0  0  0  0
  145.9904  137.8156  152.0185 C   0  0  0  0  0  0  0  0  0  0  0  0
  146.1147  138.0333  153.3720 N   0  0  0  0  0  0  0  0  0  0  0  0
  146.3247  139.2935  154.0233 C   0  0  0  0  0  0  0  0  0  0  0  0
  146.8625  140.5025  153.2492 C   0  0  0  0  0  0  0  0  0  0  0  0
  147.6895  140.9348  154.4818 C   0  0  0  0  0  0  0  0  0  0  0  0
  149.1437  141.3650  154.2125 C   0  0  0  0  0  0  0  0  0  0  0  0
  149.9144  140.3456  153.6075 O   0  0  0  0  0  0  0  0  0  0  0  0
  147.0895  142.0652  155.3441 C   0  0  0  0  0  0  0  0  0  0  0  0
  147.8538  142.3614  156.4954 O   0  0  0  0  0  0  0  0  0  0  0  0
  147.4857  139.4946  155.0051 C   0  0  0  0  0  0  0  0  0  0  0  0
  146.0265  129.6837  152.1498 C   0  0  0  0  0  0  0  0  0  0  0  0
  147.8061  127.9367  153.3357 H   0  0  0  0  0  0  0  0  0  0  0  0
  149.1333  128.2838  152.2201 H   0  0  0  0  0  0  0  0  0  0  0  0
  147.6346  127.5882  151.6107 H   0  0  0  0  0  0  0  0  0  0  0  0
  147.8545  130.4264  154.0460 H   0  0  0  0  0  0  0  0  0  0  0  0
  149.2050  130.6032  152.9421 H   0  0  0  0  0  0  0  0  0  0  0  0
  148.0886  132.7873  153.3476 H   0  0  0  0  0  0  0  0  0  0  0  0
  148.0382  132.3374  151.6636 H   0  0  0  0  0  0  0  0  0  0  0  0
  145.7987  131.9620  153.7005 H   0  0  0  0  0  0  0  0  0  0  0  0
  144.4038  131.0633  152.0116 H   0  0  0  0  0  0  0  0  0  0  0  0
  146.6533  131.3514  149.9786 H   0  0  0  0  0  0  0  0  0  0  0  0
  145.0732  130.6650  149.6936 H   0  0  0  0  0  0  0  0  0  0  0  0
  145.2025  133.0530  148.9427 H   0  0  0  0  0  0  0  0  0  0  0  0
  143.9799  132.8166  150.1691 H   0  0  0  0  0  0  0  0  0  0  0  0
  146.7783  133.9741  150.6067 H   0  0  0  0  0  0  0  0  0  0  0  0
  145.2516  134.8297  150.7060 H   0  0  0  0  0  0  0  0  0  0  0  0
  146.2463  134.7851  156.4622 H   0  0  0  0  0  0  0  0  0  0  0  0
  146.0056  138.6169  151.2939 H   0  0  0  0  0  0  0  0  0  0  0  0
  145.3749  139.5382  154.5003 H   0  0  0  0  0  0  0  0  0  0  0  0
  147.4719  140.2045  152.3951 H   0  0  0  0  0  0  0  0  0  0  0  0
  146.0941  141.2125  152.9422 H   0  0  0  0  0  0  0  0  0  0  0  0
  149.1749  142.2369  153.5584 H   0  0  0  0  0  0  0  0  0  0  0  0
  149.6412  141.6501  155.1402 H   0  0  0  0  0  0  0  0  0  0  0  0
  149.5517  140.1602  152.7549 H   0  0  0  0  0  0  0  0  0  0  0  0
  146.9989  142.9848  154.7650 H   0  0  0  0  0  0  0  0  0  0  0  0
  146.0836  141.8051  155.6755 H   0  0  0  0  0  0  0  0  0  0  0  0
  148.3984  143.1114  156.3104 H   0  0  0  0  0  0  0  0  0  0  0  0
  147.1985  139.4263  156.0548 H   0  0  0  0  0  0  0  0  0  0  0  0
  148.3267  138.8328  154.7938 H   0  0  0  0  0  0  0  0  0  0  0  0
  145.6196  128.9372  151.4662 H   0  0  0  0  0  0  0  0  0  0  0  0
  145.6945  129.4027  153.1508 H   0  0  0  0  0  0  0  0  0  0  0  0
  147.7767  129.9107  151.1679 H   0  0  0  0  0  0  0  0  0  0  0  0
  1  2  1  0  0  0  0
  1 29  1  0  0  0  0
  1 30  1  0  0  0  0
  1 31  1  0  0  0  0
  2 28  1  0  0  0  0
  2  3  1  0  0  0  0
  2 59  1  0  0  0  0
  3  4  1  0  0  0  0
  3 32  1  0  0  0  0
  3 33  1  0  0  0  0
  4  5  1  0  0  0  0
  4 34  1  0  0  0  0
  4 35  1  0  0  0  0
  5 10  1  0  0  0  0
  5  6  1  0  0  0  0
  5 36  1  0  0  0  0
  6  7  1  0  0  0  0
  6 28  1  0  0  0  0
  6 37  1  0  0  0  0
  7  8  1  0  0  0  0
  7 38  1  0  0  0  0
  7 39  1  0  0  0  0
  8  9  1  0  0  0  0
  8 40  1  0  0  0  0
  8 41  1  0  0  0  0
  9 10  1  0  0  0  0
  9 42  1  0  0  0  0
  9 43  1  0  0  0  0
 10 11  1  0  0  0  0
 11 16  1  0  0  0  0
 11 12  2  0  0  0  0
 12 13  1  0  0  0  0
 13 14  2  0  0  0  0
 13 44  1  0  0  0  0
 14 15  1  0  0  0  0
 15 19  1  0  0  0  0
 15 16  2  0  0  0  0
 16 17  1  0  0  0  0
 17 18  2  0  0  0  0
 18 19  1  0  0  0  0
 18 45  1  0  0  0  0
 19 20  1  0  0  0  0
 20 27  1  0  0  0  0
 20 21  1  0  0  0  0
 20 46  1  0  0  0  0
 21 22  1  0  0  0  0
 21 47  1  0  0  0  0
 21 48  1  0  0  0  0
 22 23  1  0  0  0  0
 22 25  1  0  0  0  0
 22 27  1  0  0  0  0
 23 24  1  0  0  0  0
 23 49  1  0  0  0  0
 23 50  1  0  0  0  0
 24 51  1  0  0  0  0
 25 26  1  0  0  0  0
 25 52  1  0  0  0  0
 25 53  1  0  0  0  0
 26 54  1  0  0  0  0
 27 55  1  0  0  0  0
 27 56  1  0  0  0  0
 28 57  1  0  0  0  0
 28 58  1  0  0  0  0
M  CHG  1   2   1
M  END
> <s_m_source_file>
AV-unprocessed.smi

> <i_m_source_file_index>
198

> <i_lp_mmshare_version>
43012

> <i_f3d_flags>
0

> <s_epik_input>
W0NIMl0xW0NIMl1OKFtDSDNdKVtDSDJdW0NAQEhdKFtDQEhdMTIpW0NIMl1bQ0gyXVtDSDJdTjJjKG5bY0hdbjMpYyhjMzQpbltjSF1uNFtDSF0oW0NIMl01KVtDSDJdQzUoW0NIMl1bT0hdKVtDSDJdW09IXQ==

> <s_epik_cmdline>
J2VwaWtfcHl0aG9uJywgJy1waCcsICc3LjAnLCAnLXRuJywgJzgnLCAnLW1hJywgJzIwMCcsICctbWV0YWxfYmluZGluZycsICctaW1hZScsICc8aW5maWxlLm1hZT4nLCAnLW9tYWUnLCAnPG91dGZpbGUubWFlPic=

> <r_lp_tautomer_probability>
1

> <r_epik_Ionization_Penalty>
0.00239938

> <r_epik_Ionization_Penalty_Charging>
0.00138697

> <r_epik_Ionization_Penalty_Neutral>
0.00101241

> <r_epik_State_Penalty>
-0

> <r_epik_Charging_Adjusted_Penalty>
0.00138697

> <i_epik_Tot_Q>
1

> <i_epik_Tot_abs_Q>
1

> <r_epik_Metal_State_Penalty>
-0

> <b_epik_Metal_Only>
0

> <s_lp_Force_Field>
OPLS_2005

> <r_lp_Energy>
59.0053

> <b_lp_Chiralities_Consistent>
1

> <s_lp_Variant>
AV-unprocessed.smi:198-4

> <Gold.Version>
5.8.1

> <Gold.Id.Protein>
6NUR|6NUR_protein|mol2

> <Gold.PLP.Fitness>
49.2117

> <Gold.PLP.PLP>
-38.3566

> <Gold.PLP.part.hbond>
-4.0000

> <Gold.PLP.part.metal>
0.0000

> <Gold.PLP.part.buried>
-2.7743

> <Gold.PLP.part.nonpolar>
-32.5016

> <Gold.PLP.part.repulsive>
1.0822

> <Gold.PLP.ligand.clash>
0.0000

> <Gold.PLP.ligand.torsion>
1.0515

> <Gold.PLP.Chemscore.Hbond>
3.7280

> <Gold.PLP.Chemscore.CHOScore>
0.2889

> <Gold.PLP.Chemscore.Metal>
0.0000

> <Gold.Chemscore.Hbonds>
donor molecule, donor type, donor heavy atom, donor atom, acceptor molecule, acceptor atom, score
      L1  H     2    59       P1 10747  0.85
      L1  H    24    51       P1  7957  1.00
      L1  H    26    54       P1  8028  1.00
      P1  H  7989  7998       L1    24  0.59
      L1  C    18    45       P1 10171  0.56

> <Gold.PLP.Chemscore.Internal.Correction>
0.9074

> <Gold.Rescore>
     Score         DG    S(hbond)    S(metal)    S(lipo)     H(rot)  DE(clash)    DE(int)     intcor
     16.60     -19.39       3.03        0.00      99.63       3.08       0.51       2.27       ----

> <Gold.Chemscore.Fitness>
16.6020

> <Gold.Chemscore.DG>
-19.3852

> <Gold.Chemscore.ZeroCoef>
-5.4800

> <Gold.Chemscore.Hbond>
3.0326

> <Gold.Chemscore.Metal>
0.0000

> <Gold.Chemscore.Lipo>
99.6265

> <Gold.Chemscore.Internal_Hbond>
0.0000

> <Gold.Chemscore.DEClash>
0.5089

> <Gold.Chemscore.DEInternal>
2.2743

> <Gold.Chemscore.Rot>
3.0781

> <Gold.Chemscore.Internal.Correction>
   9.000000E+99

> <Gold.Chemscore.Hbonds>
donor molecule, donor type, donor heavy atom, donor atom, acceptor molecule, acceptor atom, score
      L1  H     2    59       P1 10747  0.83
      L1  H    24    51       P1  7957  0.96
      L1  H    26    54       P1  8028  0.78
      P1  H  7989  7998       L1    24  0.33

> <Gold.Chemscore.Hbond.Weighted>
-10.1290

> <Gold.Chemscore.Metal.Weighted>
-0.0000

> <Gold.Chemscore.Lipo.Weighted>
-11.6563

> <Gold.Chemscore.Internal_Hbond.Weighted>
0.0000

> <Gold.Chemscore.DEClash.Weighted>
0.5089

> <Gold.Chemscore.DEInternal.Weighted>
2.2743

> <Gold.Chemscore.Rot.Weighted>
7.8800

> <Gold.Chemscore.Internal.Correction.Weighted>
   9.000000E+99

> <Gold.Protein.RotatedTorsions>
[ 6907 6896 6895 6894 ] final  -33.03 input  -60.11 | X-H torsion
[ 7974 7965 7964 7962 ] final   30.52 input  175.53 | X-H torsion
[ 8008 7997 7996 7995 ] final -155.51 input   59.86 | X-H torsion
[ 10167 10162 10161 10158 ] final  127.52 input  -65.29 | X-H torsion
[ 10718 10713 10712 10709 ] final -120.52 input   66.30 | X-H torsion
[ 10763 10752 10751 10750 ] final -179.68 input  -60.55 | X-H torsion
[ 11005 11000 10999 10996 ] final   43.04 input  -57.11 | X-H torsion

> <Gold.Protein.ActiveResidues>
 VAL166  LYS551  ARG553  GLY616  TRP617  ASP618  TYR619  PRO620  LYS621  CYS622 
 ASP623  PHE694  ASN695  SER759  ASP760  ASP761  ALA762  ILE779  LEU786  VAL792 
 PHE793  MET794  SER795  GLU796  ALA797  LYS798  CYS799  TRP800  GLU811  SER814 

> <Gold.Protein.RotatedAtoms>
  151.0709  134.9798  159.8307 H   0  0  0  0  0  0  0  0  0  0  0  0  # atno 6907 bound_to 6896
  152.5408  134.2300  159.8831 H   0  0  0  0  0  0  0  0  0  0  0  0  # atno 6908 bound_to 6896
  151.2325  133.4399  159.2638 H   0  0  0  0  0  0  0  0  0  0  0  0  # atno 6909 bound_to 6896
  146.1607  139.6778  142.9035 H   0  0  0  0  0  0  0  0  0  0  0  0  # atno 7974 bound_to 7965
  155.7030  140.0769  157.2402 H   0  0  0  0  0  0  0  0  0  0  0  0  # atno 8008 bound_to 7997
  154.4070  140.1644  156.2265 H   0  0  0  0  0  0  0  0  0  0  0  0  # atno 8009 bound_to 7997
  155.9351  140.3388  155.6284 H   0  0  0  0  0  0  0  0  0  0  0  0  # atno 8010 bound_to 7997
  139.5574  144.6858  151.4142 H   0  0  0  0  0  0  0  0  0  0  0  0  # atno 10167 bound_to 10162
  156.1265  130.6363  150.9550 H   0  0  0  0  0  0  0  0  0  0  0  0  # atno 10718 bound_to 10713
  154.5320  135.2800  155.1172 H   0  0  0  0  0  0  0  0  0  0  0  0  # atno 10763 bound_to 10752
  154.2688  135.6307  153.5306 H   0  0  0  0  0  0  0  0  0  0  0  0  # atno 10764 bound_to 10752
  152.9959  135.5623  154.5836 H   0  0  0  0  0  0  0  0  0  0  0  0  # atno 10765 bound_to 10752
  140.1682  134.4255  155.8274 H   0  0  0  0  0  0  0  0  0  0  0  0  # atno 11005 bound_to 11000
  145.4596  141.0432  143.2759 LP  0  0  0  0  0  0  0  0  0  0  0  0  # atno 17320 bound_to 7965
  144.8023  139.6117  143.7066 LP  0  0  0  0  0  0  0  0  0  0  0  0  # atno 17321 bound_to 7965
  140.6849  143.7996  150.7172 LP  0  0  0  0  0  0  0  0  0  0  0  0  # atno 17342 bound_to 10162
  140.1461  143.4398  152.2162 LP  0  0  0  0  0  0  0  0  0  0  0  0  # atno 17343 bound_to 10162
  157.6446  131.0906  150.8181 LP  0  0  0  0  0  0  0  0  0  0  0  0  # atno 17370 bound_to 10713
  156.8271  130.5003  149.5336 LP  0  0  0  0  0  0  0  0  0  0  0  0  # atno 17371 bound_to 10713
  141.2215  133.6944  156.7716 LP  0  0  0  0  0  0  0  0  0  0  0  0  # atno 17394 bound_to 11000
  140.2408  134.8615  157.3572 LP  0  0  0  0  0  0  0  0  0  0  0  0  # atno 17395 bound_to 11000

$$$$
