AV-unprocessed.smi:3352|AV-procd|sdf|12951|dock10
  -GOLD-   2272019393D 1   1.00000     0.00000
 Structure written by MMmdl.
 38 39  0  0  0  0  0  0  0  0  1 V2000
  150.4713  145.0967  159.8744 C   0  0  0  0  0  0  0  0  0  0  0  0
  151.9546  144.8419  159.5717 C   0  0  0  0  0  0  0  0  0  0  0  0
  152.2284  144.6812  158.0693 C   0  0  0  0  0  0  0  0  0  0  0  0
  152.4905  143.6923  160.3669 C   0  0  0  0  0  0  0  0  0  0  0  0
  153.1152  142.6488  159.8149 N   0  0  0  0  0  0  0  0  0  0  0  0
  153.5688  141.7233  160.7614 C   0  0  0  0  0  0  0  0  0  0  0  0
  154.3369  140.5108  160.3186 C   0  0  0  0  0  0  0  0  0  0  0  0
  153.4998  139.7205  159.3121 C   0  0  0  0  0  0  0  0  0  0  0  0
  154.0281  139.2372  158.3110 O   0  0  0  0  0  0  0  0  0  0  0  0
  152.1870  139.6305  159.5747 N   0  0  0  0  0  0  0  0  0  0  0  0
  151.1811  139.1030  158.6621 C   0  0  0  0  0  0  0  0  0  0  0  0
  151.1794  139.8699  157.3273 C   0  0  2  0  0  0  0  0  0  0  0  0
  150.8439  141.3584  157.4416 C   0  0  0  0  0  0  0  0  0  0  0  0
  150.2645  141.7017  156.0782 C   0  0  0  0  0  0  0  0  0  0  0  0
  150.0024  140.3400  155.4268 C   0  0  0  0  0  0  0  0  0  0  0  0
  150.1557  139.3897  156.4722 O   0  0  0  0  0  0  0  0  0  0  0  0
  153.2570  142.0748  162.0514 C   0  0  0  0  0  0  0  0  0  0  0  0
  152.4078  143.5938  162.1243 S   0  0  0  0  0  0  0  0  0  0  0  0
  150.3146  145.2806  160.9378 H   0  0  0  0  0  0  0  0  0  0  0  0
  149.8550  144.2437  159.5893 H   0  0  0  0  0  0  0  0  0  0  0  0
  150.1040  145.9682  159.3322 H   0  0  0  0  0  0  0  0  0  0  0  0
  152.4978  145.7315  159.8948 H   0  0  0  0  0  0  0  0  0  0  0  0
  153.2953  144.5660  157.8752 H   0  0  0  0  0  0  0  0  0  0  0  0
  151.8848  145.5539  157.5134 H   0  0  0  0  0  0  0  0  0  0  0  0
  151.7185  143.8080  157.6611 H   0  0  0  0  0  0  0  0  0  0  0  0
  155.2828  140.7995  159.8585 H   0  0  0  0  0  0  0  0  0  0  0  0
  154.5855  139.8717  161.1671 H   0  0  0  0  0  0  0  0  0  0  0  0
  151.8482  140.0534  160.4270 H   0  0  0  0  0  0  0  0  0  0  0  0
  151.3410  138.0372  158.4920 H   0  0  0  0  0  0  0  0  0  0  0  0
  150.2084  139.1982  159.1454 H   0  0  0  0  0  0  0  0  0  0  0  0
  152.1391  139.7478  156.8213 H   0  0  0  0  0  0  0  0  0  0  0  0
  150.0867  141.5177  158.2105 H   0  0  0  0  0  0  0  0  0  0  0  0
  151.7138  141.9649  157.6971 H   0  0  0  0  0  0  0  0  0  0  0  0
  149.3463  142.2805  156.1834 H   0  0  0  0  0  0  0  0  0  0  0  0
  150.9636  142.2873  155.4805 H   0  0  0  0  0  0  0  0  0  0  0  0
  149.0114  140.2743  154.9772 H   0  0  0  0  0  0  0  0  0  0  0  0
  150.7418  140.1388  154.6502 H   0  0  0  0  0  0  0  0  0  0  0  0
  153.4908  141.5419  162.9612 H   0  0  0  0  0  0  0  0  0  0  0  0
  1  2  1  0  0  0  0
  1 19  1  0  0  0  0
  1 20  1  0  0  0  0
  1 21  1  0  0  0  0
  2  3  1  0  0  0  0
  2  4  1  0  0  0  0
  2 22  1  0  0  0  0
  3 23  1  0  0  0  0
  3 24  1  0  0  0  0
  3 25  1  0  0  0  0
  4 18  1  0  0  0  0
  4  5  2  0  0  0  0
  5  6  1  0  0  0  0
  6  7  1  0  0  0  0
  6 17  2  0  0  0  0
  7  8  1  0  0  0  0
  7 26  1  0  0  0  0
  7 27  1  0  0  0  0
  8  9  2  0  0  0  0
  8 10  1  0  0  0  0
 10 11  1  0  0  0  0
 10 28  1  0  0  0  0
 11 12  1  0  0  0  0
 11 29  1  0  0  0  0
 11 30  1  0  0  0  0
 12 16  1  0  0  0  0
 12 13  1  0  0  0  0
 12 31  1  0  0  0  0
 13 14  1  0  0  0  0
 13 32  1  0  0  0  0
 13 33  1  0  0  0  0
 14 15  1  0  0  0  0
 14 34  1  0  0  0  0
 14 35  1  0  0  0  0
 15 16  1  0  0  0  0
 15 36  1  0  0  0  0
 15 37  1  0  0  0  0
 17 18  1  0  0  0  0
 17 38  1  0  0  0  0
M  END
> <s_m_source_file>
AV-unprocessed.smi

> <i_m_source_file_index>
3352

> <i_lp_mmshare_version>
43012

> <i_f3d_flags>
0

> <s_epik_input>
W0NIM11bQ0hdKFtDSDNdKWMxbmMoW2NIXXMxKVtDSDJdQyg9TylbTkhdW0NIMl1bQ0BASF0yW0NIMl1bQ0gyXVtDSDJdTzI=

> <s_epik_cmdline>
J2VwaWtfcHl0aG9uJywgJy1waCcsICc3LjAnLCAnLXRuJywgJzgnLCAnLW1hJywgJzIwMCcsICctbWV0YWxfYmluZGluZycsICctaW1hZScsICc8aW5maWxlLm1hZT4nLCAnLW9tYWUnLCAnPG91dGZpbGUubWFlPic=

> <r_lp_tautomer_probability>
1

> <r_epik_Ionization_Penalty>
4.66014e-05

> <r_epik_Ionization_Penalty_Charging>
0

> <r_epik_Ionization_Penalty_Neutral>
4.66014e-05

> <r_epik_State_Penalty>
-0

> <r_epik_Charging_Adjusted_Penalty>
0

> <i_epik_Tot_Q>
0

> <i_epik_Tot_abs_Q>
0

> <r_epik_Metal_State_Penalty>
-0

> <b_epik_Metal_Only>
0

> <s_lp_Force_Field>
OPLS_2005

> <r_lp_Energy>
7.75536

> <b_lp_Chiralities_Consistent>
1

> <s_lp_Variant>
AV-unprocessed.smi:3352-1

> <Gold.Version>
5.8.1

> <Gold.Id.Protein>
6NUR|6NUR_protein|mol2

> <Gold.PLP.Fitness>
47.2276

> <Gold.PLP.PLP>
-44.7957

> <Gold.PLP.part.hbond>
-1.0000

> <Gold.PLP.part.metal>
0.0000

> <Gold.PLP.part.buried>
-6.1528

> <Gold.PLP.part.nonpolar>
-36.9664

> <Gold.PLP.part.repulsive>
0.1410

> <Gold.PLP.ligand.clash>
0.0000

> <Gold.PLP.ligand.torsion>
0.3255

> <Gold.PLP.Chemscore.Hbond>
1.0000

> <Gold.PLP.Chemscore.CHOScore>
0.0000

> <Gold.PLP.Chemscore.Metal>
0.0000

> <Gold.Chemscore.Hbonds>
donor molecule, donor type, donor heavy atom, donor atom, acceptor molecule, acceptor atom, score
      P1  H  7997  8009       L1     9  1.00

> <Gold.PLP.Chemscore.Internal.Correction>
0.0828

> <Gold.Rescore>
     Score         DG    S(hbond)    S(metal)    S(lipo)     H(rot)  DE(clash)    DE(int)     intcor
     19.32     -19.72       0.99        0.00     127.30       1.55       0.13       0.27       ----

> <Gold.Chemscore.Fitness>
19.3234

> <Gold.Chemscore.DG>
-19.7225

> <Gold.Chemscore.ZeroCoef>
-5.4800

> <Gold.Chemscore.Hbond>
0.9942

> <Gold.Chemscore.Metal>
0.0000

> <Gold.Chemscore.Lipo>
127.3025

> <Gold.Chemscore.Internal_Hbond>
0.0000

> <Gold.Chemscore.DEClash>
0.1273

> <Gold.Chemscore.DEInternal>
0.2719

> <Gold.Chemscore.Rot>
1.5518

> <Gold.Chemscore.Internal.Correction>
   9.000000E+99

> <Gold.Chemscore.Hbonds>
donor molecule, donor type, donor heavy atom, donor atom, acceptor molecule, acceptor atom, score
      P1  H  7997  8009       L1     9  0.96

> <Gold.Chemscore.Hbond.Weighted>
-3.3208

> <Gold.Chemscore.Metal.Weighted>
-0.0000

> <Gold.Chemscore.Lipo.Weighted>
-14.8944

> <Gold.Chemscore.Internal_Hbond.Weighted>
0.0000

> <Gold.Chemscore.DEClash.Weighted>
0.1273

> <Gold.Chemscore.DEInternal.Weighted>
0.2719

> <Gold.Chemscore.Rot.Weighted>
3.9727

> <Gold.Chemscore.Internal.Correction.Weighted>
   9.000000E+99

> <Gold.Protein.RotatedTorsions>
[ 6907 6896 6895 6894 ] final -109.58 input  -60.11 | X-H torsion
[ 7974 7965 7964 7962 ] final  -48.74 input  175.53 | X-H torsion
[ 8008 7997 7996 7995 ] final  135.21 input   59.86 | X-H torsion
[ 10167 10162 10161 10158 ] final  -79.32 input  -65.29 | X-H torsion
[ 10718 10713 10712 10709 ] final   84.63 input   66.30 | X-H torsion
[ 10763 10752 10751 10750 ] final   93.46 input  -60.55 | X-H torsion
[ 11005 11000 10999 10996 ] final  117.30 input  -57.11 | X-H torsion

> <Gold.Protein.ActiveResidues>
 VAL166  LYS551  ARG553  GLY616  TRP617  ASP618  TYR619  PRO620  LYS621  CYS622 
 ASP623  PHE694  ASN695  SER759  ASP760  ASP761  ALA762  ILE779  LEU786  VAL792 
 PHE793  MET794  SER795  GLU796  ALA797  LYS798  CYS799  TRP800  GLU811  SER814 

> <Gold.Protein.RotatedAtoms>
  150.7571  133.9509  159.3485 H   0  0  0  0  0  0  0  0  0  0  0  0  # atno 6907 bound_to 6896
  151.7426  135.0849  160.0327 H   0  0  0  0  0  0  0  0  0  0  0  0  # atno 6908 bound_to 6896
  152.3519  133.6152  159.5987 H   0  0  0  0  0  0  0  0  0  0  0  0  # atno 6909 bound_to 6896
  145.9480  140.7600  142.9519 H   0  0  0  0  0  0  0  0  0  0  0  0  # atno 7974 bound_to 7965
  156.3002  140.2476  156.3545 H   0  0  0  0  0  0  0  0  0  0  0  0  # atno 8008 bound_to 7997
  154.8935  140.0408  157.1871 H   0  0  0  0  0  0  0  0  0  0  0  0  # atno 8009 bound_to 7997
  154.8573  140.2915  155.5565 H   0  0  0  0  0  0  0  0  0  0  0  0  # atno 8010 bound_to 7997
  140.4603  143.2455  151.8358 H   0  0  0  0  0  0  0  0  0  0  0  0  # atno 10167 bound_to 10162
  157.6901  131.0141  150.2701 H   0  0  0  0  0  0  0  0  0  0  0  0  # atno 10718 bound_to 10713
  153.2305  135.4325  155.0590 H   0  0  0  0  0  0  0  0  0  0  0  0  # atno 10763 bound_to 10752
  154.8294  135.3378  154.6794 H   0  0  0  0  0  0  0  0  0  0  0  0  # atno 10764 bound_to 10752
  153.7222  135.7016  153.5066 H   0  0  0  0  0  0  0  0  0  0  0  0  # atno 10765 bound_to 10752
  139.9070  134.9608  156.7330 H   0  0  0  0  0  0  0  0  0  0  0  0  # atno 11005 bound_to 11000
  144.6790  140.2387  143.7346 LP  0  0  0  0  0  0  0  0  0  0  0  0  # atno 17320 bound_to 7965
  145.8210  139.2044  143.1938 LP  0  0  0  0  0  0  0  0  0  0  0  0  # atno 17321 bound_to 7965
  139.4805  144.5015  151.9054 LP  0  0  0  0  0  0  0  0  0  0  0  0  # atno 17342 bound_to 10162
  140.4101  144.2380  150.5889 LP  0  0  0  0  0  0  0  0  0  0  0  0  # atno 17343 bound_to 10162
  156.3265  130.3794  149.7528 LP  0  0  0  0  0  0  0  0  0  0  0  0  # atno 17370 bound_to 10713
  156.5082  130.8160  151.3159 LP  0  0  0  0  0  0  0  0  0  0  0  0  # atno 17371 bound_to 10713
  140.6910  133.9390  155.7966 LP  0  0  0  0  0  0  0  0  0  0  0  0  # atno 17394 bound_to 11000
  141.0442  134.0578  157.3865 LP  0  0  0  0  0  0  0  0  0  0  0  0  # atno 17395 bound_to 11000

$$$$
