AV-unprocessed.smi:1545|AV-procd|sdf|6214|dock4
  -GOLD-   22720 6383D 1   1.00000     0.00000
 Structure written by MMmdl.
 42 44  0  0  0  0  0  0  0  0  2 V2000
  145.8069  140.2972  154.3373 O   0  0  0  0  0  0  0  0  0  0  0  0
  146.8498  139.4275  153.9536 C   0  0  0  0  0  0  0  0  0  0  0  0
  146.4837  138.7174  152.6441 C   0  0  0  0  0  0  0  0  0  0  0  0
  145.2359  137.9808  152.7644 N   0  0  0  0  0  0  0  0  0  0  0  0
  145.1950  136.6416  152.3627 C   0  0  0  0  0  0  0  0  0  0  0  0
  146.2672  135.8710  152.0373 N   0  3  0  0  0  0  0  0  0  0  0  0
  145.8040  134.6003  151.6835 C   0  0  0  0  0  0  0  0  0  0  0  0
  146.4943  133.4630  151.2756 C   0  0  0  0  0  0  0  0  0  0  0  0
  145.7189  132.3217  150.9833 C   0  0  0  0  0  0  0  0  0  0  0  0
  144.3136  132.3376  151.0989 C   0  0  0  0  0  0  0  0  0  0  0  0
  143.6213  133.4943  151.5143 C   0  0  0  0  0  0  0  0  0  0  0  0
  144.3933  134.6186  151.8047 C   0  0  0  0  0  0  0  0  0  0  0  0
  144.0589  135.9079  152.2364 N   0  0  0  0  0  0  0  0  0  0  0  0
  142.6496  136.2595  152.4655 C   0  0  0  0  0  0  0  0  0  0  0  0
  142.4245  136.9915  153.8031 C   0  0  2  0  0  0  0  0  0  0  0  0
  142.6194  136.0940  154.8792 O   0  0  0  0  0  0  0  0  0  0  0  0
  141.0550  137.6497  153.8457 C   0  0  0  0  0  0  0  0  0  0  0  0
  140.9306  139.0347  154.0951 C   0  0  0  0  0  0  0  0  0  0  0  0
  139.6577  139.6354  154.1440 C   0  0  0  0  0  0  0  0  0  0  0  0
  138.5023  138.8557  153.9448 C   0  0  0  0  0  0  0  0  0  0  0  0
  138.6204  137.4742  153.6984 C   0  0  0  0  0  0  0  0  0  0  0  0
  137.5101  136.7228  153.5085 F   0  0  0  0  0  0  0  0  0  0  0  0
  139.8930  136.8726  153.6503 C   0  0  0  0  0  0  0  0  0  0  0  0
  145.1714  140.3292  153.6387 H   0  0  0  0  0  0  0  0  0  0  0  0
  147.7927  139.9699  153.8717 H   0  0  0  0  0  0  0  0  0  0  0  0
  146.9720  138.6911  154.7480 H   0  0  0  0  0  0  0  0  0  0  0  0
  146.3507  139.4664  151.8622 H   0  0  0  0  0  0  0  0  0  0  0  0
  147.2907  138.0589  152.3201 H   0  0  0  0  0  0  0  0  0  0  0  0
  144.3755  138.4871  152.9183 H   0  0  0  0  0  0  0  0  0  0  0  0
  147.5705  133.4468  151.1843 H   0  0  0  0  0  0  0  0  0  0  0  0
  146.2124  131.4154  150.6631 H   0  0  0  0  0  0  0  0  0  0  0  0
  143.7543  131.4433  150.8643 H   0  0  0  0  0  0  0  0  0  0  0  0
  142.5445  133.4953  151.5988 H   0  0  0  0  0  0  0  0  0  0  0  0
  142.3046  136.8661  151.6275 H   0  0  0  0  0  0  0  0  0  0  0  0
  142.0688  135.3367  152.4326 H   0  0  0  0  0  0  0  0  0  0  0  0
  143.1809  137.7703  153.9092 H   0  0  0  0  0  0  0  0  0  0  0  0
  141.8978  136.1884  155.4823 H   0  0  0  0  0  0  0  0  0  0  0  0
  141.8112  139.6406  154.2528 H   0  0  0  0  0  0  0  0  0  0  0  0
  139.5677  140.6947  154.3359 H   0  0  0  0  0  0  0  0  0  0  0  0
  137.5262  139.3165  153.9825 H   0  0  0  0  0  0  0  0  0  0  0  0
  139.9720  135.8115  153.4640 H   0  0  0  0  0  0  0  0  0  0  0  0
  147.2280  136.1870  152.0546 H   0  0  0  0  0  0  0  0  0  0  0  0
  1  2  1  0  0  0  0
  1 24  1  0  0  0  0
  2  3  1  0  0  0  0
  2 25  1  0  0  0  0
  2 26  1  0  0  0  0
  3  4  1  0  0  0  0
  3 27  1  0  0  0  0
  3 28  1  0  0  0  0
  4  5  1  0  0  0  0
  4 29  1  0  0  0  0
  5 13  1  0  0  0  0
  5  6  2  0  0  0  0
  6  7  1  0  0  0  0
  6 42  1  0  0  0  0
  7 12  2  0  0  0  0
  7  8  1  0  0  0  0
  8  9  2  0  0  0  0
  8 30  1  0  0  0  0
  9 10  1  0  0  0  0
  9 31  1  0  0  0  0
 10 11  2  0  0  0  0
 10 32  1  0  0  0  0
 11 12  1  0  0  0  0
 11 33  1  0  0  0  0
 12 13  1  0  0  0  0
 13 14  1  0  0  0  0
 14 15  1  0  0  0  0
 14 34  1  0  0  0  0
 14 35  1  0  0  0  0
 15 16  1  0  0  0  0
 15 17  1  0  0  0  0
 15 36  1  0  0  0  0
 16 37  1  0  0  0  0
 17 23  1  0  0  0  0
 17 18  2  0  0  0  0
 18 19  1  0  0  0  0
 18 38  1  0  0  0  0
 19 20  2  0  0  0  0
 19 39  1  0  0  0  0
 20 21  1  0  0  0  0
 20 40  1  0  0  0  0
 21 22  1  0  0  0  0
 21 23  2  0  0  0  0
 23 41  1  0  0  0  0
M  CHG  1   6   1
M  END
> <s_m_source_file>
AV-unprocessed.smi

> <i_m_source_file_index>
1545

> <i_lp_mmshare_version>
43012

> <i_f3d_flags>
0

> <s_epik_input>
W09IXVtDSDJdW0NIMl1bTkhdYyhuMSluKGMoYzEyKVtjSF1bY0hdW2NIXVtjSF0yKVtDSDJdW0NASF0oW09IXSljM1tjSF1bY0hdW2NIXWMoRilbY0hdMw==

> <s_epik_cmdline>
J2VwaWtfcHl0aG9uJywgJy1waCcsICc3LjAnLCAnLXRuJywgJzgnLCAnLW1hJywgJzIwMCcsICctbWV0YWxfYmluZGluZycsICctaW1hZScsICc8aW5maWxlLm1hZT4nLCAnLW9tYWUnLCAnPG91dGZpbGUubWFlPic=

> <r_epik_Ionization_Penalty>
0.0688114

> <r_epik_Ionization_Penalty_Charging>
0.0688055

> <r_epik_Ionization_Penalty_Neutral>
5.85933e-06

> <r_epik_State_Penalty>
0.0602293

> <r_epik_Charging_Adjusted_Penalty>
0.129035

> <i_epik_Tot_Q>
1

> <i_epik_Tot_abs_Q>
1

> <r_epik_Metal_State_Penalty>
2.77411

> <b_epik_Metal_Only>
0

> <s_lp_Force_Field>
OPLS_2005

> <r_lp_Energy>
22.2772

> <b_lp_Chiralities_Consistent>
1

> <s_lp_Variant>
AV-unprocessed.smi:1545-1

> <Gold.Version>
5.8.1

> <Gold.Id.Protein>
6NUR|6NUR_protein|mol2

> <Gold.PLP.Fitness>
57.0552

> <Gold.PLP.PLP>
-42.7133

> <Gold.PLP.part.hbond>
-4.0000

> <Gold.PLP.part.metal>
0.0000

> <Gold.PLP.part.buried>
-4.0157

> <Gold.PLP.part.nonpolar>
-35.3389

> <Gold.PLP.part.repulsive>
0.0939

> <Gold.PLP.ligand.clash>
0.0000

> <Gold.PLP.ligand.torsion>
0.3301

> <Gold.PLP.Chemscore.Hbond>
4.9840

> <Gold.PLP.Chemscore.CHOScore>
0.0000

> <Gold.PLP.Chemscore.Metal>
0.0000

> <Gold.Chemscore.Hbonds>
donor molecule, donor type, donor heavy atom, donor atom, acceptor molecule, acceptor atom, score
      L1  H     1    24       P1 10175  1.00
      L1  H     4    29       P1 10175  1.08
      L1  H     6    42       P1  7948  2.00

> <Gold.PLP.Chemscore.Internal.Correction>
0.0502

> <Gold.Rescore>
     Score         DG    S(hbond)    S(metal)    S(lipo)     H(rot)  DE(clash)    DE(int)     intcor
     17.39     -17.79       2.87        0.00      92.06       3.15       0.09       0.30       ----

> <Gold.Chemscore.Fitness>
17.3911

> <Gold.Chemscore.DG>
-17.7862

> <Gold.Chemscore.ZeroCoef>
-5.4800

> <Gold.Chemscore.Hbond>
2.8744

> <Gold.Chemscore.Metal>
0.0000

> <Gold.Chemscore.Lipo>
92.0603

> <Gold.Chemscore.Internal_Hbond>
0.0000

> <Gold.Chemscore.DEClash>
0.0931

> <Gold.Chemscore.DEInternal>
0.3019

> <Gold.Chemscore.Rot>
3.1505

> <Gold.Chemscore.Internal.Correction>
   9.000000E+99

> <Gold.Chemscore.Hbonds>
donor molecule, donor type, donor heavy atom, donor atom, acceptor molecule, acceptor atom, score
      L1  H     1    24       P1 10175  1.00
      L1  H     4    29       P1 10175  0.54
      L1  H     6    42       P1  7948  1.00

> <Gold.Chemscore.Hbond.Weighted>
-9.6003

> <Gold.Chemscore.Metal.Weighted>
-0.0000

> <Gold.Chemscore.Lipo.Weighted>
-10.7711

> <Gold.Chemscore.Internal_Hbond.Weighted>
0.0000

> <Gold.Chemscore.DEClash.Weighted>
0.0931

> <Gold.Chemscore.DEInternal.Weighted>
0.3019

> <Gold.Chemscore.Rot.Weighted>
8.0652

> <Gold.Chemscore.Internal.Correction.Weighted>
   9.000000E+99

> <Gold.Protein.RotatedTorsions>
[ 6907 6896 6895 6894 ] final  -52.90 input  -60.11 | X-H torsion
[ 7974 7965 7964 7962 ] final  -78.06 input  175.53 | X-H torsion
[ 8008 7997 7996 7995 ] final -101.43 input   59.86 | X-H torsion
[ 10167 10162 10161 10158 ] final  125.21 input  -65.29 | X-H torsion
[ 10718 10713 10712 10709 ] final   45.51 input   66.30 | X-H torsion
[ 10763 10752 10751 10750 ] final -143.71 input  -60.55 | X-H torsion
[ 11005 11000 10999 10996 ] final -172.76 input  -57.11 | X-H torsion

> <Gold.Protein.ActiveResidues>
 VAL166  LYS551  ARG553  GLY616  TRP617  ASP618  TYR619  PRO620  LYS621  CYS622 
 ASP623  PHE694  ASN695  SER759  ASP760  ASP761  ALA762  ILE779  LEU786  VAL792 
 PHE793  MET794  SER795  GLU796  ALA797  LYS798  CYS799  TRP800  GLU811  SER814 

> <Gold.Protein.RotatedAtoms>
  150.8475  134.7789  159.6982 H   0  0  0  0  0  0  0  0  0  0  0  0  # atno 6907 bound_to 6896
  152.4548  134.5311  159.9821 H   0  0  0  0  0  0  0  0  0  0  0  0  # atno 6908 bound_to 6896
  151.5439  133.3390  159.2976 H   0  0  0  0  0  0  0  0  0  0  0  0  # atno 6909 bound_to 6896
  145.5914  140.9428  143.1290 H   0  0  0  0  0  0  0  0  0  0  0  0  # atno 7974 bound_to 7965
  154.8425  140.0434  157.1550 H   0  0  0  0  0  0  0  0  0  0  0  0  # atno 8008 bound_to 7997
  154.9031  140.3003  155.5286 H   0  0  0  0  0  0  0  0  0  0  0  0  # atno 8009 bound_to 7997
  156.2993  140.2372  156.4062 H   0  0  0  0  0  0  0  0  0  0  0  0  # atno 8010 bound_to 7997
  139.5698  144.6932  151.3810 H   0  0  0  0  0  0  0  0  0  0  0  0  # atno 10167 bound_to 10162
  157.4383  130.8066  149.7669 H   0  0  0  0  0  0  0  0  0  0  0  0  # atno 10718 bound_to 10713
  154.8458  135.3460  154.6231 H   0  0  0  0  0  0  0  0  0  0  0  0  # atno 10763 bound_to 10752
  153.6840  135.6978  153.5114 H   0  0  0  0  0  0  0  0  0  0  0  0  # atno 10764 bound_to 10752
  153.2646  135.4312  155.0884 H   0  0  0  0  0  0  0  0  0  0  0  0  # atno 10765 bound_to 10752
  140.4933  134.5964  157.4962 H   0  0  0  0  0  0  0  0  0  0  0  0  # atno 11005 bound_to 11000
  144.7349  139.7614  143.7333 LP  0  0  0  0  0  0  0  0  0  0  0  0  # atno 17320 bound_to 7965
  146.1644  139.4769  142.9968 LP  0  0  0  0  0  0  0  0  0  0  0  0  # atno 17321 bound_to 7965
  140.6982  143.7697  150.7360 LP  0  0  0  0  0  0  0  0  0  0  0  0  # atno 17342 bound_to 10162
  140.1199  143.4621  152.2319 LP  0  0  0  0  0  0  0  0  0  0  0  0  # atno 17343 bound_to 10162
  155.9939  130.3921  150.2882 LP  0  0  0  0  0  0  0  0  0  0  0  0  # atno 17370 bound_to 10713
  157.1044  131.0204  151.3073 LP  0  0  0  0  0  0  0  0  0  0  0  0  # atno 17371 bound_to 10713
  139.9756  134.7221  155.9956 LP  0  0  0  0  0  0  0  0  0  0  0  0  # atno 17394 bound_to 11000
  141.1473  133.6554  156.3906 LP  0  0  0  0  0  0  0  0  0  0  0  0  # atno 17395 bound_to 11000

$$$$
