AV-unprocessed.smi:634|AV-procd|sdf|3138|dock7
  -GOLD-   22720 0 63D 1   1.00000     0.00000
 Structure written by MMmdl.
 32 33  0  0  0  0  0  0  0  0  2 V2000
  145.5767  133.5486  162.5008 C   0  0  0  0  0  0  0  0  0  0  0  0
  146.5087  134.3122  161.6241 C   0  0  0  0  0  0  0  0  0  0  0  0
  146.7093  135.6485  161.4209 C   0  0  0  0  0  0  0  0  0  0  0  0
  147.7467  135.6739  160.4509 C   0  0  0  0  0  0  0  0  0  0  0  0
  148.2478  136.9084  159.9602 N   0  0  0  0  0  0  0  0  0  0  0  0
  149.2840  137.1277  159.1311 C   0  0  0  0  0  0  0  0  0  0  0  0
  149.9631  136.1828  158.7159 O   0  0  0  0  0  0  0  0  0  0  0  0
  149.4468  138.4518  158.8514 N   0  5  0  0  0  0  0  0  0  0  0  0
  150.5195  139.0849  158.0621 C   0  0  2  0  0  0  0  0  0  0  0  0
  151.8411  138.8057  158.8080 C   0  0  0  0  0  0  0  0  0  0  0  0
  150.3157  140.6190  157.9293 C   0  0  0  0  0  0  0  0  0  0  0  0
  151.2322  141.1628  156.8217 C   0  0  0  0  0  0  0  0  0  0  0  0
  151.4237  139.8002  155.6075 S   0  0  0  0  0  0  0  0  0  0  0  0
  150.5999  140.0793  154.4210 O   0  0  0  0  0  0  0  0  0  0  0  0
  152.8538  139.4811  155.4702 O   0  0  0  0  0  0  0  0  0  0  0  0
  150.5973  138.5142  156.6269 C   0  0  0  0  0  0  0  0  0  0  0  0
  148.1447  134.4606  160.0967 N   0  0  0  0  0  0  0  0  0  0  0  0
  147.3539  133.5823  160.8468 O   0  0  0  0  0  0  0  0  0  0  0  0
  144.7925  134.1964  162.8929 H   0  0  0  0  0  0  0  0  0  0  0  0
  146.1112  133.1140  163.3455 H   0  0  0  0  0  0  0  0  0  0  0  0
  145.0999  132.7391  161.9480 H   0  0  0  0  0  0  0  0  0  0  0  0
  146.1944  136.4741  161.8892 H   0  0  0  0  0  0  0  0  0  0  0  0
  147.7490  137.7324  160.2607 H   0  0  0  0  0  0  0  0  0  0  0  0
  152.7022  139.2240  158.2871 H   0  0  0  0  0  0  0  0  0  0  0  0
  152.0194  137.7347  158.9135 H   0  0  0  0  0  0  0  0  0  0  0  0
  151.8301  139.2346  159.8109 H   0  0  0  0  0  0  0  0  0  0  0  0
  149.2905  140.8427  157.6360 H   0  0  0  0  0  0  0  0  0  0  0  0
  150.4829  141.1385  158.8736 H   0  0  0  0  0  0  0  0  0  0  0  0
  150.8182  142.0440  156.3316 H   0  0  0  0  0  0  0  0  0  0  0  0
  152.2193  141.4172  157.2098 H   0  0  0  0  0  0  0  0  0  0  0  0
  151.1482  137.5757  156.5646 H   0  0  0  0  0  0  0  0  0  0  0  0
  149.6124  138.3516  156.1908 H   0  0  0  0  0  0  0  0  0  0  0  0
  1  2  1  0  0  0  0
  1 19  1  0  0  0  0
  1 20  1  0  0  0  0
  1 21  1  0  0  0  0
  2 18  1  0  0  0  0
  2  3  2  0  0  0  0
  3  4  1  0  0  0  0
  3 22  1  0  0  0  0
  4  5  1  0  0  0  0
  4 17  2  0  0  0  0
  5  6  1  0  0  0  0
  5 23  1  0  0  0  0
  6  7  2  0  0  0  0
  6  8  1  0  0  0  0
  8  9  1  0  0  0  0
  9 16  1  0  0  0  0
  9 10  1  0  0  0  0
  9 11  1  0  0  0  0
 10 24  1  0  0  0  0
 10 25  1  0  0  0  0
 10 26  1  0  0  0  0
 11 12  1  0  0  0  0
 11 27  1  0  0  0  0
 11 28  1  0  0  0  0
 12 13  1  0  0  0  0
 12 29  1  0  0  0  0
 12 30  1  0  0  0  0
 13 14  2  0  0  0  0
 13 15  2  0  0  0  0
 13 16  1  0  0  0  0
 16 31  1  0  0  0  0
 16 32  1  0  0  0  0
 17 18  1  0  0  0  0
M  CHG  1   8  -1
M  END
> <s_m_source_file>
AV-unprocessed.smi

> <i_m_source_file_index>
634

> <i_lp_mmshare_version>
43012

> <i_f3d_flags>
0

> <s_epik_input>
W0NIM11jMVtjSF1jKG5vMSlbTkhdQyg9TylbTkhdW0NAQF0yKFtDSDNdKVtDSDJdW0NIMl1TKD1PKSg9TylbQ0gyXTI=

> <s_epik_cmdline>
J2VwaWtfcHl0aG9uJywgJy1waCcsICc3LjAnLCAnLXRuJywgJzgnLCAnLW1hJywgJzIwMCcsICctbWV0YWxfYmluZGluZycsICctaW1hZScsICc8aW5maWxlLm1hZT4nLCAnLW9tYWUnLCAnPG91dGZpbGUubWFlPic=

> <r_lp_tautomer_probability>
1

> <r_epik_Ionization_Penalty>
6.62388

> <r_epik_Ionization_Penalty_Charging>
6.62387

> <r_epik_Ionization_Penalty_Neutral>
5.45748e-06

> <r_epik_State_Penalty>
6.65157

> <r_epik_Charging_Adjusted_Penalty>
13.2754

> <i_epik_Tot_Q>
-1

> <i_epik_Tot_abs_Q>
1

> <r_epik_Metal_State_Penalty>
2.59195

> <b_epik_Metal_Only>
1

> <s_lp_Force_Field>
OPLS_2005

> <r_lp_Energy>
8.10378

> <b_lp_Chiralities_Consistent>
1

> <s_lp_Variant>
AV-unprocessed.smi:634-6

> <Gold.Version>
5.8.1

> <Gold.Id.Protein>
6NUR|6NUR_protein|mol2

> <Gold.PLP.Fitness>
35.6749

> <Gold.PLP.PLP>
-26.7103

> <Gold.PLP.part.hbond>
-3.7853

> <Gold.PLP.part.metal>
0.0000

> <Gold.PLP.part.buried>
-5.6648

> <Gold.PLP.part.nonpolar>
-17.6616

> <Gold.PLP.part.repulsive>
0.3189

> <Gold.PLP.ligand.clash>
0.0000

> <Gold.PLP.ligand.torsion>
0.0215

> <Gold.PLP.Chemscore.Hbond>
3.0000

> <Gold.PLP.Chemscore.CHOScore>
0.0000

> <Gold.PLP.Chemscore.Metal>
0.0000

> <Gold.Chemscore.Hbonds>
donor molecule, donor type, donor heavy atom, donor atom, acceptor molecule, acceptor atom, score
      P1  H  6896  6907       L1     7  1.00
      P1  H  7989  7998       L1    14  1.00
      P1  H  7997  8008       L1    15  1.00

> <Gold.PLP.Chemscore.Internal.Correction>
0.0078

> <Gold.Rescore>
     Score         DG    S(hbond)    S(metal)    S(lipo)     H(rot)  DE(clash)    DE(int)     intcor
     16.56     -17.94       2.92        0.00      44.87       1.00       0.01       1.37       ----

> <Gold.Chemscore.Fitness>
16.5611

> <Gold.Chemscore.DG>
-17.9388

> <Gold.Chemscore.ZeroCoef>
-5.4800

> <Gold.Chemscore.Hbond>
2.9249

> <Gold.Chemscore.Metal>
0.0000

> <Gold.Chemscore.Lipo>
44.8682

> <Gold.Chemscore.Internal_Hbond>
0.0000

> <Gold.Chemscore.DEClash>
0.0104

> <Gold.Chemscore.DEInternal>
1.3673

> <Gold.Chemscore.Rot>
1.0000

> <Gold.Chemscore.Internal.Correction>
   9.000000E+99

> <Gold.Chemscore.Hbonds>
donor molecule, donor type, donor heavy atom, donor atom, acceptor molecule, acceptor atom, score
      P1  H  6896  6907       L1     7  0.99
      P1  H  7989  7998       L1    14  0.34
      P1  H  7997  8008       L1    15  0.99

> <Gold.Chemscore.Hbond.Weighted>
-9.7692

> <Gold.Chemscore.Metal.Weighted>
-0.0000

> <Gold.Chemscore.Lipo.Weighted>
-5.2496

> <Gold.Chemscore.Internal_Hbond.Weighted>
0.0000

> <Gold.Chemscore.DEClash.Weighted>
0.0104

> <Gold.Chemscore.DEInternal.Weighted>
1.3673

> <Gold.Chemscore.Rot.Weighted>
2.5600

> <Gold.Chemscore.Internal.Correction.Weighted>
   9.000000E+99

> <Gold.Protein.RotatedTorsions>
[ 6907 6896 6895 6894 ] final  -58.07 input  -60.11 | X-H torsion
[ 7974 7965 7964 7962 ] final  -74.30 input  175.53 | X-H torsion
[ 8008 7997 7996 7995 ] final  -10.52 input   59.86 | X-H torsion
[ 10167 10162 10161 10158 ] final   38.22 input  -65.29 | X-H torsion
[ 10718 10713 10712 10709 ] final  -99.51 input   66.30 | X-H torsion
[ 10763 10752 10751 10750 ] final   26.84 input  -60.55 | X-H torsion
[ 11005 11000 10999 10996 ] final   -0.32 input  -57.11 | X-H torsion

> <Gold.Protein.ActiveResidues>
 VAL166  LYS551  ARG553  GLY616  TRP617  ASP618  TYR619  PRO620  LYS621  CYS622 
 ASP623  PHE694  ASN695  SER759  ASP760  ASP761  ALA762  ILE779  LEU786  VAL792 
 PHE793  MET794  SER795  GLU796  ALA797  LYS798  CYS799  TRP800  GLU811  SER814 

> <Gold.Protein.RotatedAtoms>
  150.8035  134.7145  159.6622 H   0  0  0  0  0  0  0  0  0  0  0  0  # atno 6907 bound_to 6896
  152.4154  134.6048  160.0019 H   0  0  0  0  0  0  0  0  0  0  0  0  # atno 6908 bound_to 6896
  151.6279  133.3297  159.3138 H   0  0  0  0  0  0  0  0  0  0  0  0  # atno 6909 bound_to 6896
  145.6410  140.9311  143.1036 H   0  0  0  0  0  0  0  0  0  0  0  0  # atno 7974 bound_to 7965
  154.5547  140.2326  155.8430 H   0  0  0  0  0  0  0  0  0  0  0  0  # atno 8008 bound_to 7997
  156.1977  140.3060  155.9422 H   0  0  0  0  0  0  0  0  0  0  0  0  # atno 8009 bound_to 7997
  155.3003  140.0431  157.3019 H   0  0  0  0  0  0  0  0  0  0  0  0  # atno 8010 bound_to 7997
  140.3957  144.1792  150.6132 H   0  0  0  0  0  0  0  0  0  0  0  0  # atno 10167 bound_to 10162
  156.0136  130.5286  150.6680 H   0  0  0  0  0  0  0  0  0  0  0  0  # atno 10718 bound_to 10713
  153.0595  135.6551  154.0496 H   0  0  0  0  0  0  0  0  0  0  0  0  # atno 10763 bound_to 10752
  154.0166  135.2923  155.3387 H   0  0  0  0  0  0  0  0  0  0  0  0  # atno 10764 bound_to 10752
  154.6927  135.5276  153.8483 H   0  0  0  0  0  0  0  0  0  0  0  0  # atno 10765 bound_to 10752
  140.6349  133.9541  155.8294 H   0  0  0  0  0  0  0  0  0  0  0  0  # atno 11005 bound_to 11000
  144.7157  139.8204  143.7399 LP  0  0  0  0  0  0  0  0  0  0  0  0  # atno 17320 bound_to 7965
  146.1281  139.4311  143.0186 LP  0  0  0  0  0  0  0  0  0  0  0  0  # atno 17321 bound_to 7965
  140.4793  143.2385  151.8978 LP  0  0  0  0  0  0  0  0  0  0  0  0  # atno 17342 bound_to 10162
  139.4787  144.5287  151.8698 LP  0  0  0  0  0  0  0  0  0  0  0  0  # atno 17343 bound_to 10162
  157.4409  131.0861  151.0945 LP  0  0  0  0  0  0  0  0  0  0  0  0  # atno 17370 bound_to 10713
  157.1489  130.6175  149.5576 LP  0  0  0  0  0  0  0  0  0  0  0  0  # atno 17371 bound_to 10713
  141.0648  134.0292  157.3608 LP  0  0  0  0  0  0  0  0  0  0  0  0  # atno 17394 bound_to 11000
  139.9102  135.0188  156.7658 LP  0  0  0  0  0  0  0  0  0  0  0  0  # atno 17395 bound_to 11000

$$$$
