AV-unprocessed.smi:766|AV-procd|sdf|3652|dock8
  -GOLD-   22720 1 53D 1   1.00000     0.00000
 Structure written by MMmdl.
 47 49  0  0  0  0  0  0  0  0  2 V2000
  153.5553  143.1211  163.3898 C   0  0  0  0  0  0  0  0  0  0  0  0
  153.0886  142.7074  162.0051 C   0  0  0  0  0  0  0  0  0  0  0  0
  152.2560  143.5822  161.2711 C   0  0  0  0  0  0  0  0  0  0  0  0
  151.8010  143.2356  159.9800 C   0  0  0  0  0  0  0  0  0  0  0  0
  150.9930  143.9290  159.0952 N   0  0  0  0  0  0  0  0  0  0  0  0
  150.9347  143.0862  158.0682 C   0  0  0  0  0  0  0  0  0  0  0  0
  151.6091  141.9255  158.1839 N   0  0  0  0  0  0  0  0  0  0  0  0
  151.6957  140.8570  157.2048 C   0  0  0  0  0  0  0  0  0  0  0  0
  150.9078  141.1715  155.9187 C   0  0  1  0  0  0  0  0  0  0  0  0
  151.1103  140.1342  154.9775 O   0  0  0  0  0  0  0  0  0  0  0  0
  149.4008  141.3143  156.1865 C   0  0  0  0  0  0  0  0  0  0  0  0
  148.7320  142.0530  155.0970 N   0  3  0  0  0  0  0  0  0  0  0  0
  147.2569  142.0309  155.1662 C   0  0  0  0  0  0  0  0  0  0  0  0
  146.6213  142.8193  154.0094 C   0  0  0  0  0  0  0  0  0  0  0  0
  145.6163  143.7619  154.4681 N   0  0  0  0  0  0  0  0  0  0  0  0
  144.7029  144.4720  153.7174 C   0  0  0  0  0  0  0  0  0  0  0  0
  143.9662  145.2287  154.5829 C   0  0  0  0  0  0  0  0  0  0  0  0
  144.5091  144.9088  155.8586 C   0  0  0  0  0  0  0  0  0  0  0  0
  145.4975  144.0317  155.7863 N   0  0  0  0  0  0  0  0  0  0  0  0
  152.2036  141.9793  159.4398 C   0  0  0  0  0  0  0  0  0  0  0  0
  153.0309  141.0999  160.1604 C   0  0  0  0  0  0  0  0  0  0  0  0
  153.4785  141.4629  161.4481 C   0  0  0  0  0  0  0  0  0  0  0  0
  154.3755  140.5089  162.2169 C   0  0  0  0  0  0  0  0  0  0  0  0
  153.1539  144.0949  163.6712 H   0  0  0  0  0  0  0  0  0  0  0  0
  154.6430  143.1862  163.4227 H   0  0  0  0  0  0  0  0  0  0  0  0
  153.2283  142.3965  164.1358 H   0  0  0  0  0  0  0  0  0  0  0  0
  151.9594  144.5306  161.6944 H   0  0  0  0  0  0  0  0  0  0  0  0
  150.3667  143.3251  157.1811 H   0  0  0  0  0  0  0  0  0  0  0  0
  152.7470  140.6732  156.9779 H   0  0  0  0  0  0  0  0  0  0  0  0
  151.3138  139.9455  157.6664 H   0  0  0  0  0  0  0  0  0  0  0  0
  151.2855  142.1009  155.4895 H   0  0  0  0  0  0  0  0  0  0  0  0
  150.8001  139.3216  155.3477 H   0  0  0  0  0  0  0  0  0  0  0  0
  148.9379  140.3340  156.3098 H   0  0  0  0  0  0  0  0  0  0  0  0
  149.2438  141.8614  157.1172 H   0  0  0  0  0  0  0  0  0  0  0  0
  149.0424  143.0139  155.1181 H   0  0  0  0  0  0  0  0  0  0  0  0
  146.9013  140.9996  155.1561 H   0  0  0  0  0  0  0  0  0  0  0  0
  146.9469  142.4657  156.1171 H   0  0  0  0  0  0  0  0  0  0  0  0
  147.3933  143.3804  153.4815 H   0  0  0  0  0  0  0  0  0  0  0  0
  146.1727  142.1451  153.2778 H   0  0  0  0  0  0  0  0  0  0  0  0
  144.6526  144.3813  152.6423 H   0  0  0  0  0  0  0  0  0  0  0  0
  143.1608  145.9066  154.3414 H   0  0  0  0  0  0  0  0  0  0  0  0
  144.2166  145.2861  156.8274 H   0  0  0  0  0  0  0  0  0  0  0  0
  153.3199  140.1549  159.7251 H   0  0  0  0  0  0  0  0  0  0  0  0
  154.6096  139.6214  161.6284 H   0  0  0  0  0  0  0  0  0  0  0  0
  153.8876  140.1836  163.1360 H   0  0  0  0  0  0  0  0  0  0  0  0
  155.3168  140.9939  162.4765 H   0  0  0  0  0  0  0  0  0  0  0  0
  149.0160  141.6466  154.2162 H   0  0  0  0  0  0  0  0  0  0  0  0
  1  2  1  0  0  0  0
  1 24  1  0  0  0  0
  1 25  1  0  0  0  0
  1 26  1  0  0  0  0
  2 22  1  0  0  0  0
  2  3  2  0  0  0  0
  3  4  1  0  0  0  0
  3 27  1  0  0  0  0
  4 20  2  0  0  0  0
  4  5  1  0  0  0  0
  5  6  2  0  0  0  0
  6  7  1  0  0  0  0
  6 28  1  0  0  0  0
  7  8  1  0  0  0  0
  7 20  1  0  0  0  0
  8  9  1  0  0  0  0
  8 29  1  0  0  0  0
  8 30  1  0  0  0  0
  9 10  1  0  0  0  0
  9 11  1  0  0  0  0
  9 31  1  0  0  0  0
 10 32  1  0  0  0  0
 11 12  1  0  0  0  0
 11 33  1  0  0  0  0
 11 34  1  0  0  0  0
 12 13  1  0  0  0  0
 12 35  1  0  0  0  0
 12 47  1  0  0  0  0
 13 14  1  0  0  0  0
 13 36  1  0  0  0  0
 13 37  1  0  0  0  0
 14 15  1  0  0  0  0
 14 38  1  0  0  0  0
 14 39  1  0  0  0  0
 15 19  1  0  0  0  0
 15 16  1  0  0  0  0
 16 17  2  0  0  0  0
 16 40  1  0  0  0  0
 17 18  1  0  0  0  0
 17 41  1  0  0  0  0
 18 19  2  0  0  0  0
 18 42  1  0  0  0  0
 20 21  1  0  0  0  0
 21 22  2  0  0  0  0
 21 43  1  0  0  0  0
 22 23  1  0  0  0  0
 23 44  1  0  0  0  0
 23 45  1  0  0  0  0
 23 46  1  0  0  0  0
M  CHG  1  12   1
M  END
> <s_m_source_file>
AV-unprocessed.smi

> <i_m_source_file_index>
766

> <i_lp_mmshare_version>
43012

> <i_f3d_flags>
0

> <s_epik_input>
W0NIM11jKFtjSF0xKWMoW0NIM10pW2NIXWMoYzEyKW4oW2NIXW4yKVtDSDJdW0NASF0oW09IXSlbQ0gyXVtOSF1bQ0gyXVtDSDJdbjNbY0hdW2NIXVtjSF1uMw==

> <s_epik_cmdline>
J2VwaWtfcHl0aG9uJywgJy1waCcsICc3LjAnLCAnLXRuJywgJzgnLCAnLW1hJywgJzIwMCcsICctbWV0YWxfYmluZGluZycsICctaW1hZScsICc8aW5maWxlLm1hZT4nLCAnLW9tYWUnLCAnPG91dGZpbGUubWFlPic=

> <r_lp_tautomer_probability>
1

> <r_epik_Ionization_Penalty>
0.127222

> <r_epik_Ionization_Penalty_Charging>
0.043815

> <r_epik_Ionization_Penalty_Neutral>
0.0834074

> <r_epik_State_Penalty>
0.115563

> <r_epik_Charging_Adjusted_Penalty>
0.159378

> <i_epik_Tot_Q>
1

> <i_epik_Tot_abs_Q>
1

> <r_epik_Metal_State_Penalty>
0.102594

> <b_epik_Metal_Only>
0

> <s_lp_Force_Field>
OPLS_2005

> <r_lp_Energy>
11.1584

> <b_lp_Chiralities_Consistent>
1

> <s_lp_Variant>
AV-unprocessed.smi:766-2

> <Gold.Version>
5.8.1

> <Gold.Id.Protein>
6NUR|6NUR_protein|mol2

> <Gold.PLP.Fitness>
65.4024

> <Gold.PLP.PLP>
-52.6505

> <Gold.PLP.part.hbond>
-2.0000

> <Gold.PLP.part.metal>
0.0000

> <Gold.PLP.part.buried>
-5.8870

> <Gold.PLP.part.nonpolar>
-44.7838

> <Gold.PLP.part.repulsive>
0.4180

> <Gold.PLP.ligand.clash>
0.0000

> <Gold.PLP.ligand.torsion>
0.6680

> <Gold.PLP.Chemscore.Hbond>
3.0000

> <Gold.PLP.Chemscore.CHOScore>
1.6318

> <Gold.PLP.Chemscore.Metal>
0.0000

> <Gold.Chemscore.Hbonds>
donor molecule, donor type, donor heavy atom, donor atom, acceptor molecule, acceptor atom, score
      L1  H    12    35       P1  8028  2.00
      P1  H  7989  7998       L1    10  1.00
      L1  C     6    28       P1  8028  1.00
      L1  C    16    40       P1 10174  0.23

> <Gold.PLP.Chemscore.Internal.Correction>
0.1924

> <Gold.Rescore>
     Score         DG    S(hbond)    S(metal)    S(lipo)     H(rot)  DE(clash)    DE(int)     intcor
     18.81     -19.46       1.93        0.00     128.70       2.93       0.01       0.65       ----

> <Gold.Chemscore.Fitness>
18.8064

> <Gold.Chemscore.DG>
-19.4636

> <Gold.Chemscore.ZeroCoef>
-5.4800

> <Gold.Chemscore.Hbond>
1.9269

> <Gold.Chemscore.Metal>
0.0000

> <Gold.Chemscore.Lipo>
128.6969

> <Gold.Chemscore.Internal_Hbond>
0.0000

> <Gold.Chemscore.DEClash>
0.0081

> <Gold.Chemscore.DEInternal>
0.6490

> <Gold.Chemscore.Rot>
2.9335

> <Gold.Chemscore.Internal.Correction>
   9.000000E+99

> <Gold.Chemscore.Hbonds>
donor molecule, donor type, donor heavy atom, donor atom, acceptor molecule, acceptor atom, score
      L1  H    12    35       P1  8028  0.96
      P1  H  7989  7998       L1    10  0.60

> <Gold.Chemscore.Hbond.Weighted>
-6.4357

> <Gold.Chemscore.Metal.Weighted>
-0.0000

> <Gold.Chemscore.Lipo.Weighted>
-15.0575

> <Gold.Chemscore.Internal_Hbond.Weighted>
0.0000

> <Gold.Chemscore.DEClash.Weighted>
0.0081

> <Gold.Chemscore.DEInternal.Weighted>
0.6490

> <Gold.Chemscore.Rot.Weighted>
7.5097

> <Gold.Chemscore.Internal.Correction.Weighted>
   9.000000E+99

> <Gold.Protein.RotatedTorsions>
[ 6907 6896 6895 6894 ] final -124.86 input  -60.11 | X-H torsion
[ 7974 7965 7964 7962 ] final -103.86 input  175.53 | X-H torsion
[ 8008 7997 7996 7995 ] final -175.52 input   59.86 | X-H torsion
[ 10167 10162 10161 10158 ] final -144.82 input  -65.29 | X-H torsion
[ 10718 10713 10712 10709 ] final  -54.86 input   66.30 | X-H torsion
[ 10763 10752 10751 10750 ] final   47.75 input  -60.55 | X-H torsion
[ 11005 11000 10999 10996 ] final  -97.81 input  -57.11 | X-H torsion

> <Gold.Protein.ActiveResidues>
 VAL166  LYS551  ARG553  GLY616  TRP617  ASP618  TYR619  PRO620  LYS621  CYS622 
 ASP623  PHE694  ASN695  SER759  ASP760  ASP761  ALA762  ILE779  LEU786  VAL792 
 PHE793  MET794  SER795  GLU796  ALA797  LYS798  CYS799  TRP800  GLU811  SER814 

> <Gold.Protein.RotatedAtoms>
  150.8810  133.7372  159.2931 H   0  0  0  0  0  0  0  0  0  0  0  0  # atno 6907 bound_to 6896
  151.4953  135.1058  159.9824 H   0  0  0  0  0  0  0  0  0  0  0  0  # atno 6908 bound_to 6896
  152.4760  133.8093  159.7050 H   0  0  0  0  0  0  0  0  0  0  0  0  # atno 6909 bound_to 6896
  145.2505  140.9236  143.3098 H   0  0  0  0  0  0  0  0  0  0  0  0  # atno 7974 bound_to 7965
  155.9835  140.1186  157.0704 H   0  0  0  0  0  0  0  0  0  0  0  0  # atno 8008 bound_to 7997
  154.4190  140.1140  156.5536 H   0  0  0  0  0  0  0  0  0  0  0  0  # atno 8009 bound_to 7997
  155.6438  140.3473  155.4726 H   0  0  0  0  0  0  0  0  0  0  0  0  # atno 8010 bound_to 7997
  139.7863  143.8030  152.2645 H   0  0  0  0  0  0  0  0  0  0  0  0  # atno 10167 bound_to 10162
  156.1416  130.4154  150.0094 H   0  0  0  0  0  0  0  0  0  0  0  0  # atno 10718 bound_to 10713
  152.9797  135.5966  154.3814 H   0  0  0  0  0  0  0  0  0  0  0  0  # atno 10763 bound_to 10752
  154.3478  135.2767  155.2390 H   0  0  0  0  0  0  0  0  0  0  0  0  # atno 10764 bound_to 10752
  154.4443  135.6005  153.6205 H   0  0  0  0  0  0  0  0  0  0  0  0  # atno 10765 bound_to 10752
  141.1366  133.8198  157.0756 H   0  0  0  0  0  0  0  0  0  0  0  0  # atno 11005 bound_to 11000
  144.9507  139.4086  143.6404 LP  0  0  0  0  0  0  0  0  0  0  0  0  # atno 17320 bound_to 7965
  146.3304  139.8513  142.8872 LP  0  0  0  0  0  0  0  0  0  0  0  0  # atno 17321 bound_to 7965
  139.8107  144.7337  150.9701 LP  0  0  0  0  0  0  0  0  0  0  0  0  # atno 17342 bound_to 10162
  140.7819  143.4253  151.0777 LP  0  0  0  0  0  0  0  0  0  0  0  0  # atno 17343 bound_to 10162
  156.7977  130.9279  151.3646 LP  0  0  0  0  0  0  0  0  0  0  0  0  # atno 17370 bound_to 10713
  157.6580  130.8941  149.9770 LP  0  0  0  0  0  0  0  0  0  0  0  0  # atno 17371 bound_to 10713
  140.0484  134.9818  157.1091 LP  0  0  0  0  0  0  0  0  0  0  0  0  # atno 17394 bound_to 11000
  140.4028  134.2064  155.7163 LP  0  0  0  0  0  0  0  0  0  0  0  0  # atno 17395 bound_to 11000

$$$$
