AV-unprocessed.smi:176|AV-procd|sdf|1433|dock1
  -GOLD-   2262019213D 1   1.00000     0.00000
 Structure written by MMmdl.
 57 61  0  0  0  0  0  0  0  0  1 V2000
  148.5893  132.3728  152.5877 O   0  0  0  0  0  0  0  0  0  0  0  0
  148.0650  132.9742  153.7536 C   0  0  0  0  0  0  0  0  0  0  0  0
  149.1305  133.1166  154.8546 C   0  0  0  0  0  0  0  0  0  0  0  0
  149.7250  131.7274  155.1705 C   0  0  0  0  0  0  0  0  0  0  0  0
  148.7252  130.7486  155.3666 O   0  0  0  0  0  0  0  0  0  0  0  0
  150.1948  134.2033  154.5798 C   0  0  0  0  0  0  0  0  0  0  0  0
  150.1478  134.6099  156.0545 C   0  0  0  0  0  0  0  0  0  0  0  0
  150.3780  135.9684  156.4494 N   0  0  0  0  0  0  0  0  0  0  0  0
  150.1707  136.5187  157.6947 C   0  0  0  0  0  0  0  0  0  0  0  0
  150.4989  137.7767  157.8084 N   0  0  0  0  0  0  0  0  0  0  0  0
  150.9982  138.1123  156.5553 C   0  0  0  0  0  0  0  0  0  0  0  0
  151.5432  139.3001  155.9914 C   0  0  0  0  0  0  0  0  0  0  0  0
  151.6436  140.4611  156.6869 N   0  0  0  0  0  0  0  0  0  0  0  0
  150.7975  141.5802  156.2687 C   0  0  0  0  0  0  0  0  0  0  0  0
  151.2768  142.9039  156.8953 C   0  0  0  0  0  0  0  0  0  0  0  0
  151.4112  142.8014  158.4296 C   0  0  2  0  0  0  0  0  0  0  0  0
  150.1076  142.6277  158.9614 O   0  0  0  0  0  0  0  0  0  0  0  0
  151.9957  144.0944  159.0409 C   0  0  0  0  0  0  0  0  0  0  0  0
  152.2345  143.9683  160.5581 C   0  0  0  0  0  0  0  0  0  0  0  0
  153.1021  142.7452  160.8968 C   0  0  0  0  0  0  0  0  0  0  0  0
  152.5141  141.4533  160.3050 C   0  0  0  0  0  0  0  0  0  0  0  0
  152.3087  141.5865  158.7837 C   0  0  1  0  0  0  0  0  0  0  0  0
  151.7870  140.2915  158.1326 C   0  0  0  0  0  0  0  0  0  0  0  0
  151.9733  139.2400  154.7023 N   0  0  0  0  0  0  0  0  0  0  0  0
  151.8694  138.1027  154.0084 C   0  0  0  0  0  0  0  0  0  0  0  0
  151.3748  136.9273  154.4012 N   0  0  0  0  0  0  0  0  0  0  0  0
  150.9464  136.9794  155.6949 C   0  0  0  0  0  0  0  0  0  0  0  0
  148.7462  133.9964  156.0667 C   0  0  0  0  0  0  0  0  0  0  0  0
  148.2922  132.8626  151.8363 H   0  0  0  0  0  0  0  0  0  0  0  0
  147.6326  133.9401  153.4907 H   0  0  0  0  0  0  0  0  0  0  0  0
  147.2370  132.3519  154.0944 H   0  0  0  0  0  0  0  0  0  0  0  0
  150.3878  131.3927  154.3720 H   0  0  0  0  0  0  0  0  0  0  0  0
  150.3347  131.7563  156.0737 H   0  0  0  0  0  0  0  0  0  0  0  0
  147.8815  131.1739  155.3553 H   0  0  0  0  0  0  0  0  0  0  0  0
  151.1629  133.8275  154.2467 H   0  0  0  0  0  0  0  0  0  0  0  0
  149.8409  134.9987  153.9211 H   0  0  0  0  0  0  0  0  0  0  0  0
  150.8374  134.0046  156.6454 H   0  0  0  0  0  0  0  0  0  0  0  0
  149.7616  135.9581  158.5227 H   0  0  0  0  0  0  0  0  0  0  0  0
  150.8110  141.6715  155.1818 H   0  0  0  0  0  0  0  0  0  0  0  0
  149.7655  141.3800  156.5602 H   0  0  0  0  0  0  0  0  0  0  0  0
  152.2442  143.1652  156.4638 H   0  0  0  0  0  0  0  0  0  0  0  0
  150.5951  143.7109  156.6237 H   0  0  0  0  0  0  0  0  0  0  0  0
  149.6459  142.0045  158.4216 H   0  0  0  0  0  0  0  0  0  0  0  0
  152.9444  144.3271  158.5553 H   0  0  0  0  0  0  0  0  0  0  0  0
  151.3378  144.9410  158.8392 H   0  0  0  0  0  0  0  0  0  0  0  0
  152.7120  144.8742  160.9323 H   0  0  0  0  0  0  0  0  0  0  0  0
  151.2786  143.8919  161.0773 H   0  0  0  0  0  0  0  0  0  0  0  0
  154.1097  142.8963  160.5077 H   0  0  0  0  0  0  0  0  0  0  0  0
  153.2011  142.6478  161.9783 H   0  0  0  0  0  0  0  0  0  0  0  0
  153.1833  140.6189  160.5177 H   0  0  0  0  0  0  0  0  0  0  0  0
  151.5680  141.2185  160.7942 H   0  0  0  0  0  0  0  0  0  0  0  0
  153.2941  141.7728  158.3521 H   0  0  0  0  0  0  0  0  0  0  0  0
  150.8184  140.0179  158.5532 H   0  0  0  0  0  0  0  0  0  0  0  0
  152.4670  139.4731  158.3660 H   0  0  0  0  0  0  0  0  0  0  0  0
  152.2345  138.1407  152.9928 H   0  0  0  0  0  0  0  0  0  0  0  0
  147.9667  134.7225  155.8275 H   0  0  0  0  0  0  0  0  0  0  0  0
  148.5019  133.4495  156.9778 H   0  0  0  0  0  0  0  0  0  0  0  0
  1  2  1  0  0  0  0
  1 29  1  0  0  0  0
  2  3  1  0  0  0  0
  2 30  1  0  0  0  0
  2 31  1  0  0  0  0
  3 28  1  0  0  0  0
  3  4  1  0  0  0  0
  3  6  1  0  0  0  0
  4  5  1  0  0  0  0
  4 32  1  0  0  0  0
  4 33  1  0  0  0  0
  5 34  1  0  0  0  0
  6  7  1  0  0  0  0
  6 35  1  0  0  0  0
  6 36  1  0  0  0  0
  7  8  1  0  0  0  0
  7 28  1  0  0  0  0
  7 37  1  0  0  0  0
  8 27  1  0  0  0  0
  8  9  1  0  0  0  0
  9 10  2  0  0  0  0
  9 38  1  0  0  0  0
 10 11  1  0  0  0  0
 11 27  2  0  0  0  0
 11 12  1  0  0  0  0
 12 13  1  0  0  0  0
 12 24  2  0  0  0  0
 13 23  1  0  0  0  0
 13 14  1  0  0  0  0
 14 15  1  0  0  0  0
 14 39  1  0  0  0  0
 14 40  1  0  0  0  0
 15 16  1  0  0  0  0
 15 41  1  0  0  0  0
 15 42  1  0  0  0  0
 16 22  1  0  0  0  0
 16 17  1  0  0  0  0
 16 18  1  0  0  0  0
 17 43  1  0  0  0  0
 18 19  1  0  0  0  0
 18 44  1  0  0  0  0
 18 45  1  0  0  0  0
 19 20  1  0  0  0  0
 19 46  1  0  0  0  0
 19 47  1  0  0  0  0
 20 21  1  0  0  0  0
 20 48  1  0  0  0  0
 20 49  1  0  0  0  0
 21 22  1  0  0  0  0
 21 50  1  0  0  0  0
 21 51  1  0  0  0  0
 22 23  1  0  0  0  0
 22 52  1  0  0  0  0
 23 53  1  0  0  0  0
 23 54  1  0  0  0  0
 24 25  1  0  0  0  0
 25 26  2  0  0  0  0
 25 55  1  0  0  0  0
 26 27  1  0  0  0  0
 28 56  1  0  0  0  0
 28 57  1  0  0  0  0
M  END
> <s_m_source_file>
AV-unprocessed.smi

> <i_m_source_file_index>
176

> <i_lp_mmshare_version>
43012

> <i_f3d_flags>
0

> <s_epik_input>
W09IXVtDSDJdQzEoW0NIMl1bT0hdKVtDSDJdW0NIXShbQ0gyXTEpbihbY0hdbjIpYyhjMjMpbltjSF1uYzNOKFtDSDJdW0NIMl00KVtDSDJdW0NAQEhdKFtDQF00NVtPSF0pW0NIMl1bQ0gyXVtDSDJdW0NIMl01

> <s_epik_cmdline>
J2VwaWtfcHl0aG9uJywgJy1waCcsICc3LjAnLCAnLXRuJywgJzgnLCAnLW1hJywgJzIwMCcsICctbWV0YWxfYmluZGluZycsICctaW1hZScsICc8aW5maWxlLm1hZT4nLCAnLW9tYWUnLCAnPG91dGZpbGUubWFlPic=

> <r_lp_tautomer_probability>
1

> <r_epik_Ionization_Penalty>
0.00642876

> <r_epik_Ionization_Penalty_Charging>
0

> <r_epik_Ionization_Penalty_Neutral>
0.00642876

> <r_epik_State_Penalty>
0.00467813

> <r_epik_Charging_Adjusted_Penalty>
0.00467813

> <i_epik_Tot_Q>
0

> <i_epik_Tot_abs_Q>
0

> <r_epik_Metal_State_Penalty>
-0

> <b_epik_Metal_Only>
0

> <s_lp_Force_Field>
OPLS_2005

> <r_lp_Energy>
51.6301

> <b_lp_Chiralities_Consistent>
1

> <s_lp_Variant>
AV-unprocessed.smi:176-1

> <Gold.Version>
5.8.1

> <Gold.Id.Protein>
6NUR|6NUR_protein|mol2

> <Gold.PLP.Fitness>
52.4779

> <Gold.PLP.PLP>
-47.0616

> <Gold.PLP.part.hbond>
-3.7313

> <Gold.PLP.part.metal>
0.0000

> <Gold.PLP.part.buried>
-7.6760

> <Gold.PLP.part.nonpolar>
-36.0184

> <Gold.PLP.part.repulsive>
0.6730

> <Gold.PLP.ligand.clash>
0.0000

> <Gold.PLP.ligand.torsion>
0.8469

> <Gold.PLP.Chemscore.Hbond>
1.8865

> <Gold.PLP.Chemscore.CHOScore>
0.1794

> <Gold.PLP.Chemscore.Metal>
0.0000

> <Gold.Chemscore.Hbonds>
donor molecule, donor type, donor heavy atom, donor atom, acceptor molecule, acceptor atom, score
      P1  H  7989  7998       L1    24  0.92
      P1  H 10752 10764       L1    26  0.94
      L1  C    25    55       P1  7949  0.17

> <Gold.PLP.Chemscore.Internal.Correction>
0.9124

> <Gold.Rescore>
     Score         DG    S(hbond)    S(metal)    S(lipo)     H(rot)  DE(clash)    DE(int)     intcor
      9.08     -12.43       0.82        0.00     117.16       3.71       0.05       3.30       ----

> <Gold.Chemscore.Fitness>
9.0760

> <Gold.Chemscore.DG>
-12.4269

> <Gold.Chemscore.ZeroCoef>
-5.4800

> <Gold.Chemscore.Hbond>
0.8201

> <Gold.Chemscore.Metal>
0.0000

> <Gold.Chemscore.Lipo>
117.1592

> <Gold.Chemscore.Internal_Hbond>
0.0000

> <Gold.Chemscore.DEClash>
0.0509

> <Gold.Chemscore.DEInternal>
3.3000

> <Gold.Chemscore.Rot>
3.7109

> <Gold.Chemscore.Internal.Correction>
   9.000000E+99

> <Gold.Chemscore.Hbonds>
donor molecule, donor type, donor heavy atom, donor atom, acceptor molecule, acceptor atom, score
      P1  H  7989  7998       L1    24  0.64
      P1  H 10752 10764       L1    26  0.23

> <Gold.Chemscore.Hbond.Weighted>
-2.7393

> <Gold.Chemscore.Metal.Weighted>
-0.0000

> <Gold.Chemscore.Lipo.Weighted>
-13.7076

> <Gold.Chemscore.Internal_Hbond.Weighted>
0.0000

> <Gold.Chemscore.DEClash.Weighted>
0.0509

> <Gold.Chemscore.DEInternal.Weighted>
3.3000

> <Gold.Chemscore.Rot.Weighted>
9.5000

> <Gold.Chemscore.Internal.Correction.Weighted>
   9.000000E+99

> <Gold.Protein.RotatedTorsions>
[ 6907 6896 6895 6894 ] final   90.17 input  -60.11 | X-H torsion
[ 7974 7965 7964 7962 ] final   -1.01 input  175.53 | X-H torsion
[ 8008 7997 7996 7995 ] final   35.18 input   59.86 | X-H torsion
[ 10167 10162 10161 10158 ] final  146.15 input  -65.29 | X-H torsion
[ 10718 10713 10712 10709 ] final  -64.15 input   66.30 | X-H torsion
[ 10763 10752 10751 10750 ] final  -90.06 input  -60.55 | X-H torsion
[ 11005 11000 10999 10996 ] final  -22.22 input  -57.11 | X-H torsion

> <Gold.Protein.ActiveResidues>
 VAL166  LYS551  ARG553  GLY616  TRP617  ASP618  TYR619  PRO620  LYS621  CYS622 
 ASP623  PHE694  ASN695  SER759  ASP760  ASP761  ALA762  ILE779  LEU786  VAL792 
 PHE793  MET794  SER795  GLU796  ALA797  LYS798  CYS799  TRP800  GLU811  SER814 

> <Gold.Protein.RotatedAtoms>
  152.5442  134.1853  159.8651 H   0  0  0  0  0  0  0  0  0  0  0  0  # atno 6907 bound_to 6896
  151.1853  133.4693  159.2602 H   0  0  0  0  0  0  0  0  0  0  0  0  # atno 6908 bound_to 6896
  151.1138  135.0053  159.8561 H   0  0  0  0  0  0  0  0  0  0  0  0  # atno 6909 bound_to 6896
  146.2421  140.1357  142.8336 H   0  0  0  0  0  0  0  0  0  0  0  0  # atno 7974 bound_to 7965
  155.1670  140.3288  155.4400 H   0  0  0  0  0  0  0  0  0  0  0  0  # atno 8008 bound_to 7997
  156.2523  140.1950  156.6725 H   0  0  0  0  0  0  0  0  0  0  0  0  # atno 8009 bound_to 7997
  154.6365  140.0576  156.9780 H   0  0  0  0  0  0  0  0  0  0  0  0  # atno 8010 bound_to 7997
  139.4912  144.5850  151.6796 H   0  0  0  0  0  0  0  0  0  0  0  0  # atno 10167 bound_to 10162
  156.0747  130.4229  150.1378 H   0  0  0  0  0  0  0  0  0  0  0  0  # atno 10718 bound_to 10713
  154.6618  135.5318  153.8027 H   0  0  0  0  0  0  0  0  0  0  0  0  # atno 10763 bound_to 10752
  153.0446  135.6507  154.0860 H   0  0  0  0  0  0  0  0  0  0  0  0  # atno 10764 bound_to 10752
  154.0768  135.2950  155.3278 H   0  0  0  0  0  0  0  0  0  0  0  0  # atno 10765 bound_to 10752
  140.8636  133.7771  156.0103 H   0  0  0  0  0  0  0  0  0  0  0  0  # atno 11005 bound_to 11000
  145.0289  140.8854  143.5121 LP  0  0  0  0  0  0  0  0  0  0  0  0  # atno 17320 bound_to 7965
  145.1417  139.2568  143.5486 LP  0  0  0  0  0  0  0  0  0  0  0  0  # atno 17321 bound_to 7965
  140.5464  144.0496  150.6109 LP  0  0  0  0  0  0  0  0  0  0  0  0  # atno 17342 bound_to 10162
  140.3535  143.2949  152.0461 LP  0  0  0  0  0  0  0  0  0  0  0  0  # atno 17343 bound_to 10162
  156.9422  130.9748  151.3514 LP  0  0  0  0  0  0  0  0  0  0  0  0  # atno 17370 bound_to 10713
  157.5836  130.8394  149.8558 LP  0  0  0  0  0  0  0  0  0  0  0  0  # atno 17371 bound_to 10713
  140.8655  134.2789  157.5215 LP  0  0  0  0  0  0  0  0  0  0  0  0  # atno 17394 bound_to 11000
  139.8708  134.9540  156.4163 LP  0  0  0  0  0  0  0  0  0  0  0  0  # atno 17395 bound_to 11000

$$$$
