AV-unprocessed.smi:224|AV-procd|sdf|1721|dock9
  -GOLD-   2262020203D 1   1.00000     0.00000
 Structure written by MMmdl.
 56 59  0  0  0  0  0  0  0  0  2 V2000
  145.5465  132.7408  150.2708 C   0  0  0  0  0  0  0  0  0  0  0  0
  144.1434  132.4579  150.8234 C   0  0  2  0  0  0  0  0  0  0  0  0
  143.3480  131.9790  149.7572 O   0  0  0  0  0  0  0  0  0  0  0  0
  143.4953  133.7259  151.4166 C   0  0  0  0  0  0  0  0  0  0  0  0
  143.7857  133.8913  152.8700 N   0  3  1  0  0  0  0  0  0  0  0  0
  145.2543  133.8777  153.1273 C   0  0  0  0  0  0  0  0  0  0  0  0
  145.5850  133.9976  154.6238 C   0  0  0  0  0  0  0  0  0  0  0  0
  144.9229  135.1547  155.2148 N   0  0  0  0  0  0  0  0  0  0  0  0
  145.5490  136.3623  155.2144 C   0  0  0  0  0  0  0  0  0  0  0  0
  144.8392  137.4911  154.9476 N   0  0  0  0  0  0  0  0  0  0  0  0
  145.4371  138.6859  154.9523 C   0  0  0  0  0  0  0  0  0  0  0  0
  146.7171  138.9758  155.1889 N   0  0  0  0  0  0  0  0  0  0  0  0
  147.4417  137.8488  155.4415 C   0  0  0  0  0  0  0  0  0  0  0  0
  146.9412  136.5158  155.4767 C   0  0  0  0  0  0  0  0  0  0  0  0
  147.9772  135.6329  155.7590 N   0  0  0  0  0  0  0  0  0  0  0  0
  149.0246  136.3994  155.8942 C   0  0  0  0  0  0  0  0  0  0  0  0
  148.7957  137.7443  155.7095 N   0  0  0  0  0  0  0  0  0  0  0  0
  149.7783  138.8147  155.7966 C   0  0  0  0  0  0  0  0  0  0  0  0
  150.8372  138.7814  154.6677 C   0  0  2  0  0  0  0  0  0  0  0  0
  150.1726  138.7869  153.4170 O   0  0  0  0  0  0  0  0  0  0  0  0
  151.7369  137.5457  154.7464 C   0  0  0  0  0  0  0  0  0  0  0  0
  153.0815  138.1077  155.1921 C   0  0  0  0  0  0  0  0  0  0  0  0
  153.1170  139.3700  154.5513 O   0  0  0  0  0  0  0  0  0  0  0  0
  151.8344  139.9568  154.7176 C   0  0  0  0  0  0  0  0  0  0  0  0
  143.4798  135.1635  155.0111 C   0  0  0  0  0  0  0  0  0  0  0  0
  143.1060  135.0619  153.5140 C   0  0  2  0  0  0  0  0  0  0  0  0
  141.5674  134.9977  153.4123 C   0  0  0  0  0  0  0  0  0  0  0  0
  146.2101  133.1046  151.0556 H   0  0  0  0  0  0  0  0  0  0  0  0
  145.5210  133.4934  149.4817 H   0  0  0  0  0  0  0  0  0  0  0  0
  145.9951  131.8378  149.8552 H   0  0  0  0  0  0  0  0  0  0  0  0
  144.2250  131.6702  151.5715 H   0  0  0  0  0  0  0  0  0  0  0  0
  142.5855  132.5296  149.6691 H   0  0  0  0  0  0  0  0  0  0  0  0
  143.8409  134.6123  150.8822 H   0  0  0  0  0  0  0  0  0  0  0  0
  142.4291  133.6707  151.2130 H   0  0  0  0  0  0  0  0  0  0  0  0
  145.7018  132.9615  152.7450 H   0  0  0  0  0  0  0  0  0  0  0  0
  145.7187  134.6988  152.5798 H   0  0  0  0  0  0  0  0  0  0  0  0
  145.2405  133.1055  155.1480 H   0  0  0  0  0  0  0  0  0  0  0  0
  146.6637  134.0408  154.7795 H   0  0  0  0  0  0  0  0  0  0  0  0
  144.7995  139.5303  154.7352 H   0  0  0  0  0  0  0  0  0  0  0  0
  150.0020  136.0015  156.1266 H   0  0  0  0  0  0  0  0  0  0  0  0
  149.2492  139.7684  155.7827 H   0  0  0  0  0  0  0  0  0  0  0  0
  150.2634  138.7513  156.7713 H   0  0  0  0  0  0  0  0  0  0  0  0
  150.3904  139.5890  152.9671 H   0  0  0  0  0  0  0  0  0  0  0  0
  151.3640  136.7782  155.4254 H   0  0  0  0  0  0  0  0  0  0  0  0
  151.8549  137.0828  153.7653 H   0  0  0  0  0  0  0  0  0  0  0  0
  153.1124  138.2412  156.2747 H   0  0  0  0  0  0  0  0  0  0  0  0
  153.9215  137.4793  154.8951 H   0  0  0  0  0  0  0  0  0  0  0  0
  151.6455  140.7246  153.9662 H   0  0  0  0  0  0  0  0  0  0  0  0
  151.8225  140.4424  155.6935 H   0  0  0  0  0  0  0  0  0  0  0  0
  143.0608  134.3159  155.5550 H   0  0  0  0  0  0  0  0  0  0  0  0
  143.0200  136.0515  155.4424 H   0  0  0  0  0  0  0  0  0  0  0  0
  143.4499  135.9686  153.0131 H   0  0  0  0  0  0  0  0  0  0  0  0
  141.1076  135.7645  154.0365 H   0  0  0  0  0  0  0  0  0  0  0  0
  141.1865  134.0328  153.7485 H   0  0  0  0  0  0  0  0  0  0  0  0
  141.1990  135.1765  152.4035 H   0  0  0  0  0  0  0  0  0  0  0  0
  143.4040  133.0769  153.3288 H   0  0  0  0  0  0  0  0  0  0  0  0
  1  2  1  0  0  0  0
  1 28  1  0  0  0  0
  1 29  1  0  0  0  0
  1 30  1  0  0  0  0
  2  3  1  0  0  0  0
  2  4  1  0  0  0  0
  2 31  1  0  0  0  0
  3 32  1  0  0  0  0
  4  5  1  0  0  0  0
  4 33  1  0  0  0  0
  4 34  1  0  0  0  0
  5 26  1  0  0  0  0
  5  6  1  0  0  0  0
  5 56  1  0  0  0  0
  6  7  1  0  0  0  0
  6 35  1  0  0  0  0
  6 36  1  0  0  0  0
  7  8  1  0  0  0  0
  7 37  1  0  0  0  0
  7 38  1  0  0  0  0
  8  9  1  0  0  0  0
  8 25  1  0  0  0  0
  9 14  1  0  0  0  0
  9 10  2  0  0  0  0
 10 11  1  0  0  0  0
 11 12  2  0  0  0  0
 11 39  1  0  0  0  0
 12 13  1  0  0  0  0
 13 17  1  0  0  0  0
 13 14  2  0  0  0  0
 14 15  1  0  0  0  0
 15 16  2  0  0  0  0
 16 17  1  0  0  0  0
 16 40  1  0  0  0  0
 17 18  1  0  0  0  0
 18 19  1  0  0  0  0
 18 41  1  0  0  0  0
 18 42  1  0  0  0  0
 19 24  1  0  0  0  0
 19 20  1  0  0  0  0
 19 21  1  0  0  0  0
 20 43  1  0  0  0  0
 21 22  1  0  0  0  0
 21 44  1  0  0  0  0
 21 45  1  0  0  0  0
 22 23  1  0  0  0  0
 22 46  1  0  0  0  0
 22 47  1  0  0  0  0
 23 24  1  0  0  0  0
 24 48  1  0  0  0  0
 24 49  1  0  0  0  0
 25 26  1  0  0  0  0
 25 50  1  0  0  0  0
 25 51  1  0  0  0  0
 26 27  1  0  0  0  0
 26 52  1  0  0  0  0
 27 53  1  0  0  0  0
 27 54  1  0  0  0  0
 27 55  1  0  0  0  0
M  CHG  1   5   1
M  END
> <s_m_source_file>
AV-unprocessed.smi

> <i_m_source_file_index>
224

> <i_lp_mmshare_version>
43012

> <i_f3d_flags>
0

> <s_epik_input>
W0NIM11bQ0BIXShbT0hdKVtDSDJdTjFbQ0gyXVtDSDJdTihbQ0gyXVtDQEhdMVtDSDNdKWMobltjSF1uMiljKGMyMyluW2NIXW4zW0NIMl1bQ0BAXTQoW09IXSlbQ0gyXVtDSDJdT1tDSDJdNA==

> <s_epik_cmdline>
J2VwaWtfcHl0aG9uJywgJy1waCcsICc3LjAnLCAnLXRuJywgJzgnLCAnLW1hJywgJzIwMCcsICctbWV0YWxfYmluZGluZycsICctaW1hZScsICc8aW5maWxlLm1hZT4nLCAnLW9tYWUnLCAnPG91dGZpbGUubWFlPic=

> <r_lp_tautomer_probability>
1

> <r_epik_Ionization_Penalty>
0.00516958

> <r_epik_Ionization_Penalty_Charging>
0.00509693

> <r_epik_Ionization_Penalty_Neutral>
7.26542e-05

> <r_epik_State_Penalty>
-0

> <r_epik_Charging_Adjusted_Penalty>
0.00509693

> <i_epik_Tot_Q>
1

> <i_epik_Tot_abs_Q>
1

> <r_epik_Metal_State_Penalty>
-0

> <b_epik_Metal_Only>
0

> <s_lp_Force_Field>
OPLS_2005

> <r_lp_Energy>
50.3432

> <b_lp_Chiralities_Consistent>
1

> <s_lp_Variant>
AV-unprocessed.smi:224-15

> <Gold.Version>
5.8.1

> <Gold.Id.Protein>
6NUR|6NUR_protein|mol2

> <Gold.PLP.Fitness>
47.4867

> <Gold.PLP.PLP>
-32.0618

> <Gold.PLP.part.hbond>
-6.6450

> <Gold.PLP.part.metal>
0.0000

> <Gold.PLP.part.buried>
-1.6498

> <Gold.PLP.part.nonpolar>
-24.2021

> <Gold.PLP.part.repulsive>
0.2137

> <Gold.PLP.ligand.clash>
0.0000

> <Gold.PLP.ligand.torsion>
0.7443

> <Gold.PLP.Chemscore.Hbond>
4.4555

> <Gold.PLP.Chemscore.CHOScore>
1.0000

> <Gold.PLP.Chemscore.Metal>
0.0000

> <Gold.Chemscore.Hbonds>
donor molecule, donor type, donor heavy atom, donor atom, acceptor molecule, acceptor atom, score
      L1  H     5    56       P1 10957  1.72
      L1  H    20    43       P1  7957  0.43
      P1  H  7997  8010       L1    23  0.81
      P1  H 10785 10796       L1     3  0.81
      L1  C    11    39       P1 10175  0.62

> <Gold.PLP.Chemscore.Internal.Correction>
0.5470

> <Gold.Rescore>
     Score         DG    S(hbond)    S(metal)    S(lipo)     H(rot)  DE(clash)    DE(int)     intcor
     11.52     -13.68       2.58        0.00      70.09       3.36       1.38       0.78       ----

> <Gold.Chemscore.Fitness>
11.5180

> <Gold.Chemscore.DG>
-13.6826

> <Gold.Chemscore.ZeroCoef>
-5.4800

> <Gold.Chemscore.Hbond>
2.5768

> <Gold.Chemscore.Metal>
0.0000

> <Gold.Chemscore.Lipo>
70.0896

> <Gold.Chemscore.Internal_Hbond>
0.0000

> <Gold.Chemscore.DEClash>
1.3815

> <Gold.Chemscore.DEInternal>
0.7831

> <Gold.Chemscore.Rot>
3.3611

> <Gold.Chemscore.Internal.Correction>
   9.000000E+99

> <Gold.Chemscore.Hbonds>
donor molecule, donor type, donor heavy atom, donor atom, acceptor molecule, acceptor atom, score
      L1  H     3    32       P1 10186  0.04
      L1  H     5    56       P1 10957  0.69
      L1  H    20    43       P1  7957  0.39
      P1  H  7997  8010       L1    23  0.11
      P1  H 10785 10796       L1     3  0.70

> <Gold.Chemscore.Hbond.Weighted>
-8.6066

> <Gold.Chemscore.Metal.Weighted>
-0.0000

> <Gold.Chemscore.Lipo.Weighted>
-8.2005

> <Gold.Chemscore.Internal_Hbond.Weighted>
0.0000

> <Gold.Chemscore.DEClash.Weighted>
1.3815

> <Gold.Chemscore.DEInternal.Weighted>
0.7831

> <Gold.Chemscore.Rot.Weighted>
8.6045

> <Gold.Chemscore.Internal.Correction.Weighted>
   9.000000E+99

> <Gold.Protein.RotatedTorsions>
[ 6907 6896 6895 6894 ] final  111.73 input  -60.11 | X-H torsion
[ 7974 7965 7964 7962 ] final -102.24 input  175.53 | X-H torsion
[ 8008 7997 7996 7995 ] final  114.57 input   59.86 | X-H torsion
[ 10167 10162 10161 10158 ] final  -91.79 input  -65.29 | X-H torsion
[ 10718 10713 10712 10709 ] final -128.89 input   66.30 | X-H torsion
[ 10763 10752 10751 10750 ] final  168.74 input  -60.55 | X-H torsion
[ 11005 11000 10999 10996 ] final   82.70 input  -57.11 | X-H torsion

> <Gold.Protein.ActiveResidues>
 VAL166  LYS551  ARG553  GLY616  TRP617  ASP618  TYR619  PRO620  LYS621  CYS622 
 ASP623  PHE694  ASN695  SER759  ASP760  ASP761  ALA762  ILE779  LEU786  VAL792 
 PHE793  MET794  SER795  GLU796  ALA797  LYS798  CYS799  TRP800  GLU811  SER814 

> <Gold.Protein.RotatedAtoms>
  152.4954  133.8616  159.7252 H   0  0  0  0  0  0  0  0  0  0  0  0  # atno 6907 bound_to 6896
  150.9126  133.6969  159.2858 H   0  0  0  0  0  0  0  0  0  0  0  0  # atno 6908 bound_to 6896
  151.4373  135.1020  159.9712 H   0  0  0  0  0  0  0  0  0  0  0  0  # atno 6909 bound_to 6896
  145.2713  140.9299  143.2985 H   0  0  0  0  0  0  0  0  0  0  0  0  # atno 7974 bound_to 7965
  156.2329  140.2956  156.0236 H   0  0  0  0  0  0  0  0  0  0  0  0  # atno 8008 bound_to 7997
  155.2174  140.0414  157.2960 H   0  0  0  0  0  0  0  0  0  0  0  0  # atno 8009 bound_to 7997
  154.6027  140.2431  155.7778 H   0  0  0  0  0  0  0  0  0  0  0  0  # atno 8010 bound_to 7997
  140.3413  143.2940  151.9832 H   0  0  0  0  0  0  0  0  0  0  0  0  # atno 10167 bound_to 10162
  156.1994  130.6847  151.0521 H   0  0  0  0  0  0  0  0  0  0  0  0  # atno 10718 bound_to 10713
  154.3729  135.2753  155.2256 H   0  0  0  0  0  0  0  0  0  0  0  0  # atno 10763 bound_to 10752
  154.4395  135.5958  153.6124 H   0  0  0  0  0  0  0  0  0  0  0  0  # atno 10764 bound_to 10752
  152.9837  135.6015  154.3963 H   0  0  0  0  0  0  0  0  0  0  0  0  # atno 10765 bound_to 10752
  139.9055  134.8090  156.2209 H   0  0  0  0  0  0  0  0  0  0  0  0  # atno 11005 bound_to 11000
  144.9333  139.4274  143.6485 LP  0  0  0  0  0  0  0  0  0  0  0  0  # atno 17320 bound_to 7965
  146.3245  139.8255  142.8918 LP  0  0  0  0  0  0  0  0  0  0  0  0  # atno 17321 bound_to 7965
  139.4840  144.6154  151.7356 LP  0  0  0  0  0  0  0  0  0  0  0  0  # atno 17342 bound_to 10162
  140.5306  144.0736  150.6052 LP  0  0  0  0  0  0  0  0  0  0  0  0  # atno 17343 bound_to 10162
  157.6977  131.0788  150.6919 LP  0  0  0  0  0  0  0  0  0  0  0  0  # atno 17370 bound_to 10713
  156.6976  130.4614  149.5582 LP  0  0  0  0  0  0  0  0  0  0  0  0  # atno 17371 bound_to 10713
  141.0406  133.6940  156.1591 LP  0  0  0  0  0  0  0  0  0  0  0  0  # atno 17394 bound_to 11000
  140.6961  134.4614  157.5587 LP  0  0  0  0  0  0  0  0  0  0  0  0  # atno 17395 bound_to 11000

$$$$
