AV-unprocessed.smi:740|AV-procd|sdf|3548|dock7
  -GOLD-   22720 0543D 1   1.00000     0.00000
 Structure written by MMmdl.
 44 46  0  0  0  0  0  0  0  0  1 V2000
  152.5418  142.6759  160.3641 C   0  0  0  0  0  0  0  0  0  0  0  0
  151.9702  142.1610  159.0548 C   0  0  0  0  0  0  0  0  0  0  0  0
  152.5837  141.0548  158.4251 C   0  0  0  0  0  0  0  0  0  0  0  0
  152.0853  140.5473  157.2053 C   0  0  0  0  0  0  0  0  0  0  0  0
  152.5249  139.4915  156.4251 N   0  0  0  0  0  0  0  0  0  0  0  0
  151.6548  139.5214  155.4199 C   0  0  0  0  0  0  0  0  0  0  0  0
  150.7008  140.4713  155.4576 N   0  0  0  0  0  0  0  0  0  0  0  0
  149.6547  140.6943  154.4755 C   0  0  0  0  0  0  0  0  0  0  0  0
  148.8251  139.4250  154.2025 C   0  0  2  0  0  0  0  0  0  0  0  0
  149.4890  138.6525  153.2206 O   0  0  0  0  0  0  0  0  0  0  0  0
  147.4095  139.7664  153.6929 C   0  0  0  0  0  0  0  0  0  0  0  0
  146.6386  138.5605  153.3699 N   0  0  0  0  0  0  0  0  0  0  0  0
  146.3877  138.1420  152.1217 C   0  0  0  0  0  0  0  0  0  0  0  0
  146.7681  138.6808  151.0826 O   0  0  0  0  0  0  0  0  0  0  0  0
  145.5379  136.8792  152.1293 C   0  0  0  0  0  0  0  0  0  0  0  0
  145.3112  136.6153  153.6256 C   0  0  2  0  0  0  0  0  0  0  0  0
  143.8287  136.5937  154.0332 C   0  0  0  0  0  0  0  0  0  0  0  0
  146.0648  137.7681  154.2862 C   0  0  0  0  0  0  0  0  0  0  0  0
  146.1131  137.9178  155.5073 O   0  0  0  0  0  0  0  0  0  0  0  0
  150.9455  141.1804  156.6288 C   0  0  0  0  0  0  0  0  0  0  0  0
  150.3258  142.2813  157.2462 C   0  0  0  0  0  0  0  0  0  0  0  0
  150.8380  142.7771  158.4634 C   0  0  0  0  0  0  0  0  0  0  0  0
  150.1644  143.9691  159.1199 C   0  0  0  0  0  0  0  0  0  0  0  0
  153.3847  142.0695  160.6967 H   0  0  0  0  0  0  0  0  0  0  0  0
  151.7847  142.6534  161.1482 H   0  0  0  0  0  0  0  0  0  0  0  0
  152.8917  143.7021  160.2493 H   0  0  0  0  0  0  0  0  0  0  0  0
  153.4468  140.5860  158.8744 H   0  0  0  0  0  0  0  0  0  0  0  0
  151.7141  138.8125  154.6068 H   0  0  0  0  0  0  0  0  0  0  0  0
  149.0091  141.4914  154.8467 H   0  0  0  0  0  0  0  0  0  0  0  0
  150.1078  141.0653  153.5553 H   0  0  0  0  0  0  0  0  0  0  0  0
  148.7641  138.8420  155.1226 H   0  0  0  0  0  0  0  0  0  0  0  0
  149.3958  139.0826  152.3843 H   0  0  0  0  0  0  0  0  0  0  0  0
  146.8673  140.3148  154.4656 H   0  0  0  0  0  0  0  0  0  0  0  0
  147.4583  140.4490  152.8424 H   0  0  0  0  0  0  0  0  0  0  0  0
  144.6066  137.0516  151.5888 H   0  0  0  0  0  0  0  0  0  0  0  0
  146.0712  136.0582  151.6489 H   0  0  0  0  0  0  0  0  0  0  0  0
  145.7869  135.6774  153.9151 H   0  0  0  0  0  0  0  0  0  0  0  0
  143.7152  136.4151  155.1030 H   0  0  0  0  0  0  0  0  0  0  0  0
  143.2947  135.8001  153.5103 H   0  0  0  0  0  0  0  0  0  0  0  0
  143.3340  137.5370  153.7979 H   0  0  0  0  0  0  0  0  0  0  0  0
  149.4654  142.7424  156.7842 H   0  0  0  0  0  0  0  0  0  0  0  0
  149.3257  144.3297  158.5236 H   0  0  0  0  0  0  0  0  0  0  0  0
  150.8703  144.7918  159.2355 H   0  0  0  0  0  0  0  0  0  0  0  0
  149.7830  143.6976  160.1044 H   0  0  0  0  0  0  0  0  0  0  0  0
  1  2  1  0  0  0  0
  1 24  1  0  0  0  0
  1 25  1  0  0  0  0
  1 26  1  0  0  0  0
  2 22  1  0  0  0  0
  2  3  2  0  0  0  0
  3  4  1  0  0  0  0
  3 27  1  0  0  0  0
  4 20  2  0  0  0  0
  4  5  1  0  0  0  0
  5  6  2  0  0  0  0
  6  7  1  0  0  0  0
  6 28  1  0  0  0  0
  7  8  1  0  0  0  0
  7 20  1  0  0  0  0
  8  9  1  0  0  0  0
  8 29  1  0  0  0  0
  8 30  1  0  0  0  0
  9 10  1  0  0  0  0
  9 11  1  0  0  0  0
  9 31  1  0  0  0  0
 10 32  1  0  0  0  0
 11 12  1  0  0  0  0
 11 33  1  0  0  0  0
 11 34  1  0  0  0  0
 12 18  1  0  0  0  0
 12 13  1  0  0  0  0
 13 14  2  0  0  0  0
 13 15  1  0  0  0  0
 15 16  1  0  0  0  0
 15 35  1  0  0  0  0
 15 36  1  0  0  0  0
 16 17  1  0  0  0  0
 16 18  1  0  0  0  0
 16 37  1  0  0  0  0
 17 38  1  0  0  0  0
 17 39  1  0  0  0  0
 17 40  1  0  0  0  0
 18 19  2  0  0  0  0
 20 21  1  0  0  0  0
 21 22  2  0  0  0  0
 21 41  1  0  0  0  0
 22 23  1  0  0  0  0
 23 42  1  0  0  0  0
 23 43  1  0  0  0  0
 23 44  1  0  0  0  0
M  END
> <s_m_source_file>
AV-unprocessed.smi

> <i_m_source_file_index>
740

> <i_lp_mmshare_version>
43012

> <i_f3d_flags>
0

> <s_epik_input>
W0NIM11jKFtjSF0xKWMoW0NIM10pW2NIXWMoYzEyKW4oW2NIXW4yKVtDSDJdW0NASF0oW09IXSlbQ0gyXU4zQyg9TylbQ0gyXVtDQEBIXShbQ0gzXSlDMz1P

> <s_epik_cmdline>
J2VwaWtfcHl0aG9uJywgJy1waCcsICc3LjAnLCAnLXRuJywgJzgnLCAnLW1hJywgJzIwMCcsICctbWV0YWxfYmluZGluZycsICctaW1hZScsICc8aW5maWxlLm1hZT4nLCAnLW9tYWUnLCAnPG91dGZpbGUubWFlPic=

> <r_lp_tautomer_probability>
1

> <r_epik_Ionization_Penalty>
0.104021

> <r_epik_Ionization_Penalty_Charging>
0

> <r_epik_Ionization_Penalty_Neutral>
0.104021

> <r_epik_State_Penalty>
0.0939354

> <r_epik_Charging_Adjusted_Penalty>
0.0939354

> <i_epik_Tot_Q>
0

> <i_epik_Tot_abs_Q>
0

> <r_epik_Metal_State_Penalty>
0.000101783

> <b_epik_Metal_Only>
0

> <s_lp_Force_Field>
OPLS_2005

> <r_lp_Energy>
16.7866

> <b_lp_Chiralities_Consistent>
1

> <s_lp_Variant>
AV-unprocessed.smi:740-3

> <Gold.Version>
5.8.1

> <Gold.Id.Protein>
6NUR|6NUR_protein|mol2

> <Gold.PLP.Fitness>
48.7370

> <Gold.PLP.PLP>
-40.8890

> <Gold.PLP.part.hbond>
-3.7478

> <Gold.PLP.part.metal>
0.0000

> <Gold.PLP.part.buried>
-2.3435

> <Gold.PLP.part.nonpolar>
-34.9454

> <Gold.PLP.part.repulsive>
0.8370

> <Gold.PLP.ligand.clash>
0.0000

> <Gold.PLP.ligand.torsion>
0.5225

> <Gold.PLP.Chemscore.Hbond>
2.9600

> <Gold.PLP.Chemscore.CHOScore>
0.0000

> <Gold.PLP.Chemscore.Metal>
0.0000

> <Gold.Chemscore.Hbonds>
donor molecule, donor type, donor heavy atom, donor atom, acceptor molecule, acceptor atom, score
      L1  H    10    32       P1  7957  1.00
      P1  H  7954  7966       L1    14  0.98
      P1  H  7997  8010       L1     5  0.85

> <Gold.PLP.Chemscore.Internal.Correction>
0.0130

> <Gold.Rescore>
     Score         DG    S(hbond)    S(metal)    S(lipo)     H(rot)  DE(clash)    DE(int)     intcor
     17.39     -18.36       2.49        0.00      89.78       2.31       0.31       0.66       ----

> <Gold.Chemscore.Fitness>
17.3929

> <Gold.Chemscore.DG>
-18.3632

> <Gold.Chemscore.ZeroCoef>
-5.4800

> <Gold.Chemscore.Hbond>
2.4865

> <Gold.Chemscore.Metal>
0.0000

> <Gold.Chemscore.Lipo>
89.7770

> <Gold.Chemscore.Internal_Hbond>
0.0000

> <Gold.Chemscore.DEClash>
0.3131

> <Gold.Chemscore.DEInternal>
0.6572

> <Gold.Chemscore.Rot>
2.3147

> <Gold.Chemscore.Internal.Correction>
   9.000000E+99

> <Gold.Chemscore.Hbonds>
donor molecule, donor type, donor heavy atom, donor atom, acceptor molecule, acceptor atom, score
      L1  H    10    32       P1  7957  0.91
      P1  H  7954  7966       L1    14  0.89
      P1  H  7997  8010       L1     5  0.13

> <Gold.Chemscore.Hbond.Weighted>
-8.3049

> <Gold.Chemscore.Metal.Weighted>
-0.0000

> <Gold.Chemscore.Lipo.Weighted>
-10.5039

> <Gold.Chemscore.Internal_Hbond.Weighted>
0.0000

> <Gold.Chemscore.DEClash.Weighted>
0.3131

> <Gold.Chemscore.DEInternal.Weighted>
0.6572

> <Gold.Chemscore.Rot.Weighted>
5.9256

> <Gold.Chemscore.Internal.Correction.Weighted>
   9.000000E+99

> <Gold.Protein.RotatedTorsions>
[ 6907 6896 6895 6894 ] final   23.23 input  -60.11 | X-H torsion
[ 7974 7965 7964 7962 ] final  -29.10 input  175.53 | X-H torsion
[ 8008 7997 7996 7995 ] final   92.21 input   59.86 | X-H torsion
[ 10167 10162 10161 10158 ] final  -15.42 input  -65.29 | X-H torsion
[ 10718 10713 10712 10709 ] final   69.17 input   66.30 | X-H torsion
[ 10763 10752 10751 10750 ] final  113.15 input  -60.55 | X-H torsion
[ 11005 11000 10999 10996 ] final   -8.50 input  -57.11 | X-H torsion

> <Gold.Protein.ActiveResidues>
 VAL166  LYS551  ARG553  GLY616  TRP617  ASP618  TYR619  PRO620  LYS621  CYS622 
 ASP623  PHE694  ASN695  SER759  ASP760  ASP761  ALA762  ILE779  LEU786  VAL792 
 PHE793  MET794  SER795  GLU796  ALA797  LYS798  CYS799  TRP800  GLU811  SER814 

> <Gold.Protein.RotatedAtoms>
  151.9393  135.0221  160.0534 H   0  0  0  0  0  0  0  0  0  0  0  0  # atno 6907 bound_to 6896
  152.2050  133.4864  159.5087 H   0  0  0  0  0  0  0  0  0  0  0  0  # atno 6908 bound_to 6896
  150.6963  134.1458  159.4164 H   0  0  0  0  0  0  0  0  0  0  0  0  # atno 6909 bound_to 6896
  146.1241  140.5369  142.8722 H   0  0  0  0  0  0  0  0  0  0  0  0  # atno 7974 bound_to 7965
  156.0327  140.3328  155.7157 H   0  0  0  0  0  0  0  0  0  0  0  0  # atno 8008 bound_to 7997
  155.5861  140.0641  157.2788 H   0  0  0  0  0  0  0  0  0  0  0  0  # atno 8009 bound_to 7997
  154.4360  140.1835  156.1014 H   0  0  0  0  0  0  0  0  0  0  0  0  # atno 8010 bound_to 7997
  140.7218  143.5220  150.9622 H   0  0  0  0  0  0  0  0  0  0  0  0  # atno 10167 bound_to 10162
  157.6331  130.9412  150.0477 H   0  0  0  0  0  0  0  0  0  0  0  0  # atno 10718 bound_to 10713
  153.4883  135.3664  155.2478 H   0  0  0  0  0  0  0  0  0  0  0  0  # atno 10763 bound_to 10752
  154.8753  135.3971  154.3619 H   0  0  0  0  0  0  0  0  0  0  0  0  # atno 10764 bound_to 10752
  153.4234  135.7081  153.6344 H   0  0  0  0  0  0  0  0  0  0  0  0  # atno 10765 bound_to 10752
  140.7242  133.8803  155.8843 H   0  0  0  0  0  0  0  0  0  0  0  0  # atno 11005 bound_to 11000
  144.7625  140.5454  143.6726 LP  0  0  0  0  0  0  0  0  0  0  0  0  # atno 17320 bound_to 7965
  145.5404  139.1475  143.3450 LP  0  0  0  0  0  0  0  0  0  0  0  0  # atno 17321 bound_to 7965
  139.8938  143.6921  152.3141 LP  0  0  0  0  0  0  0  0  0  0  0  0  # atno 17342 bound_to 10162
  139.7246  144.7595  151.0900 LP  0  0  0  0  0  0  0  0  0  0  0  0  # atno 17343 bound_to 10162
  156.1549  130.3643  149.9384 LP  0  0  0  0  0  0  0  0  0  0  0  0  # atno 17370 bound_to 10713
  156.7395  130.9074  151.3631 LP  0  0  0  0  0  0  0  0  0  0  0  0  # atno 17371 bound_to 10713
  140.9977  134.1192  157.4347 LP  0  0  0  0  0  0  0  0  0  0  0  0  # atno 17394 bound_to 11000
  139.8841  135.0059  156.6346 LP  0  0  0  0  0  0  0  0  0  0  0  0  # atno 17395 bound_to 11000

$$$$
