AV-unprocessed.smi:2620|AV-procd|sdf|10223|dock1
  -GOLD-   2272014223D 1   1.00000     0.00000
 Structure written by MMmdl.
 36 37  0  0  0  0  0  0  0  0  1 V2000
  151.4622  145.1656  160.0759 C   0  0  0  0  0  0  0  0  0  0  0  0
  151.0716  144.0744  160.8907 O   0  0  0  0  0  0  0  0  0  0  0  0
  152.1186  143.1389  161.0845 C   0  0  0  0  0  0  0  0  0  0  0  0
  152.5146  142.5471  159.7234 C   0  0  0  0  0  0  0  0  0  0  0  0
  152.8936  141.1329  159.8432 N   0  0  0  0  0  0  0  0  0  0  0  0
  152.1220  140.2045  159.1175 C   0  0  0  0  0  0  0  0  0  0  0  0
  152.3660  138.8813  159.1594 C   0  0  0  0  0  0  0  0  0  0  0  0
  151.5248  137.9354  158.3873 C   0  0  0  0  0  0  0  0  0  0  0  0
  151.1788  136.8550  158.8674 O   0  0  0  0  0  0  0  0  0  0  0  0
  151.0842  138.3282  157.0166 C   0  0  0  0  0  0  0  0  0  0  0  0
  149.7206  138.1563  156.6860 C   0  0  0  0  0  0  0  0  0  0  0  0
  149.2381  138.5187  155.4142 C   0  0  0  0  0  0  0  0  0  0  0  0
  150.1172  139.0513  154.4545 C   0  0  0  0  0  0  0  0  0  0  0  0
  151.4798  139.2133  154.7654 C   0  0  0  0  0  0  0  0  0  0  0  0
  151.9710  138.8511  156.0364 C   0  0  0  0  0  0  0  0  0  0  0  0
  153.3106  138.9919  156.2729 O   0  0  0  0  0  0  0  0  0  0  0  0
  153.4751  138.4266  159.9749 C   0  0  0  0  0  0  0  0  0  0  0  0
  154.2112  139.3092  160.6785 C   0  0  0  0  0  0  0  0  0  0  0  0
  155.3024  138.8820  161.4901 C   0  0  0  0  0  0  0  0  0  0  0  0
  156.1718  138.5324  162.1694 N   0  0  0  0  0  0  0  0  0  0  0  0
  153.9323  140.7518  160.6471 C   0  0  0  0  0  0  0  0  0  0  0  0
  154.5851  141.5697  161.2977 O   0  0  0  0  0  0  0  0  0  0  0  0
  150.6271  145.8565  159.9635 H   0  0  0  0  0  0  0  0  0  0  0  0
  151.7563  144.8287  159.0814 H   0  0  0  0  0  0  0  0  0  0  0  0
  152.2941  145.7133  160.5203 H   0  0  0  0  0  0  0  0  0  0  0  0
  152.9754  143.6300  161.5485 H   0  0  0  0  0  0  0  0  0  0  0  0
  151.7884  142.3459  161.7577 H   0  0  0  0  0  0  0  0  0  0  0  0
  151.6839  142.6544  159.0245 H   0  0  0  0  0  0  0  0  0  0  0  0
  153.3275  143.1295  159.2860 H   0  0  0  0  0  0  0  0  0  0  0  0
  151.3167  140.6404  158.5428 H   0  0  0  0  0  0  0  0  0  0  0  0
  149.0294  137.7531  157.4125 H   0  0  0  0  0  0  0  0  0  0  0  0
  148.1927  138.3886  155.1760 H   0  0  0  0  0  0  0  0  0  0  0  0
  149.7485  139.3290  153.4781 H   0  0  0  0  0  0  0  0  0  0  0  0
  152.1515  139.6117  154.0190 H   0  0  0  0  0  0  0  0  0  0  0  0
  153.8155  138.2409  156.0004 H   0  0  0  0  0  0  0  0  0  0  0  0
  153.7238  137.3762  160.0238 H   0  0  0  0  0  0  0  0  0  0  0  0
  1  2  1  0  0  0  0
  1 23  1  0  0  0  0
  1 24  1  0  0  0  0
  1 25  1  0  0  0  0
  2  3  1  0  0  0  0
  3  4  1  0  0  0  0
  3 26  1  0  0  0  0
  3 27  1  0  0  0  0
  4  5  1  0  0  0  0
  4 28  1  0  0  0  0
  4 29  1  0  0  0  0
  5 21  1  0  0  0  0
  5  6  1  0  0  0  0
  6  7  2  0  0  0  0
  6 30  1  0  0  0  0
  7  8  1  0  0  0  0
  7 17  1  0  0  0  0
  8  9  2  0  0  0  0
  8 10  1  0  0  0  0
 10 15  1  0  0  0  0
 10 11  2  0  0  0  0
 11 12  1  0  0  0  0
 11 31  1  0  0  0  0
 12 13  2  0  0  0  0
 12 32  1  0  0  0  0
 13 14  1  0  0  0  0
 13 33  1  0  0  0  0
 14 15  2  0  0  0  0
 14 34  1  0  0  0  0
 15 16  1  0  0  0  0
 16 35  1  0  0  0  0
 17 18  2  0  0  0  0
 17 36  1  0  0  0  0
 18 19  1  0  0  0  0
 18 21  1  0  0  0  0
 19 20  3  0  0  0  0
 21 22  2  0  0  0  0
M  END
> <s_m_source_file>
AV-unprocessed.smi

> <i_m_source_file_index>
2620

> <i_lp_mmshare_version>
43012

> <i_f3d_flags>
0

> <s_epik_input>
W0NIM11PW0NIMl1bQ0gyXW4xW2NIXWMoW2NIXWMoQyNOKWMxPU8pQyg9TyljMltjSF1bY0hdW2NIXVtjSF1jMltPSF0=

> <s_epik_cmdline>
J2VwaWtfcHl0aG9uJywgJy1waCcsICc3LjAnLCAnLXRuJywgJzgnLCAnLW1hJywgJzIwMCcsICctbWV0YWxfYmluZGluZycsICctaW1hZScsICc8aW5maWxlLm1hZT4nLCAnLW9tYWUnLCAnPG91dGZpbGUubWFlPic=

> <r_epik_Ionization_Penalty>
0.219503

> <r_epik_Ionization_Penalty_Charging>
5.62591e-11

> <r_epik_Ionization_Penalty_Neutral>
0.219503

> <r_epik_State_Penalty>
0.209817

> <r_epik_Charging_Adjusted_Penalty>
0.209817

> <i_epik_Tot_Q>
0

> <i_epik_Tot_abs_Q>
0

> <r_epik_Metal_State_Penalty>
0.209817

> <b_epik_Metal_Only>
0

> <s_lp_Force_Field>
OPLS_2005

> <r_lp_Energy>
23.6774

> <b_lp_Chiralities_Consistent>
1

> <s_lp_Variant>
AV-unprocessed.smi:2620-1

> <Gold.Version>
5.8.1

> <Gold.Id.Protein>
6NUR|6NUR_protein|mol2

> <Gold.PLP.Fitness>
44.6518

> <Gold.PLP.PLP>
-40.2643

> <Gold.PLP.part.hbond>
-3.0000

> <Gold.PLP.part.metal>
0.0000

> <Gold.PLP.part.buried>
-5.2783

> <Gold.PLP.part.nonpolar>
-32.1142

> <Gold.PLP.part.repulsive>
0.1465

> <Gold.PLP.ligand.clash>
0.0000

> <Gold.PLP.ligand.torsion>
1.6759

> <Gold.PLP.Chemscore.Hbond>
2.0000

> <Gold.PLP.Chemscore.CHOScore>
0.0000

> <Gold.PLP.Chemscore.Metal>
0.0000

> <Gold.Chemscore.Hbonds>
donor molecule, donor type, donor heavy atom, donor atom, acceptor molecule, acceptor atom, score
      P1  H  6896  6907       L1     9  0.98
      P1  H  7997  8010       L1    16  0.98

> <Gold.PLP.Chemscore.Internal.Correction>
1.7393

> <Gold.Rescore>
     Score         DG    S(hbond)    S(metal)    S(lipo)     H(rot)  DE(clash)    DE(int)     intcor
     14.60     -16.63       1.83        0.00      86.53       1.98       0.12       1.90       ----

> <Gold.Chemscore.Fitness>
14.6050

> <Gold.Chemscore.DG>
-16.6259

> <Gold.Chemscore.ZeroCoef>
-5.4800

> <Gold.Chemscore.Hbond>
1.8265

> <Gold.Chemscore.Metal>
0.0000

> <Gold.Chemscore.Lipo>
86.5267

> <Gold.Chemscore.Internal_Hbond>
0.0000

> <Gold.Chemscore.DEClash>
0.1236

> <Gold.Chemscore.DEInternal>
1.8974

> <Gold.Chemscore.Rot>
1.9836

> <Gold.Chemscore.Internal.Correction>
   9.000000E+99

> <Gold.Chemscore.Hbonds>
donor molecule, donor type, donor heavy atom, donor atom, acceptor molecule, acceptor atom, score
      P1  H  6896  6907       L1     9  0.89
      P1  H  7997  8010       L1    16  0.35

> <Gold.Chemscore.Hbond.Weighted>
-6.1004

> <Gold.Chemscore.Metal.Weighted>
-0.0000

> <Gold.Chemscore.Lipo.Weighted>
-10.1236

> <Gold.Chemscore.Internal_Hbond.Weighted>
0.0000

> <Gold.Chemscore.DEClash.Weighted>
0.1236

> <Gold.Chemscore.DEInternal.Weighted>
1.8974

> <Gold.Chemscore.Rot.Weighted>
5.0780

> <Gold.Chemscore.Internal.Correction.Weighted>
   9.000000E+99

> <Gold.Protein.RotatedTorsions>
[ 6907 6896 6895 6894 ] final  -24.72 input  -60.11 | X-H torsion
[ 7974 7965 7964 7962 ] final  144.69 input  175.53 | X-H torsion
[ 8008 7997 7996 7995 ] final   77.95 input   59.86 | X-H torsion
[ 10167 10162 10161 10158 ] final  131.74 input  -65.29 | X-H torsion
[ 10718 10713 10712 10709 ] final  135.70 input   66.30 | X-H torsion
[ 10763 10752 10751 10750 ] final   61.54 input  -60.55 | X-H torsion
[ 11005 11000 10999 10996 ] final  107.62 input  -57.11 | X-H torsion

> <Gold.Protein.ActiveResidues>
 VAL166  LYS551  ARG553  GLY616  TRP617  ASP618  TYR619  PRO620  LYS621  CYS622 
 ASP623  PHE694  ASN695  SER759  ASP760  ASP761  ALA762  ILE779  LEU786  VAL792 
 PHE793  MET794  SER795  GLU796  ALA797  LYS798  CYS799  TRP800  GLU811  SER814 

> <Gold.Protein.RotatedAtoms>
  151.1854  135.0379  159.8809 H   0  0  0  0  0  0  0  0  0  0  0  0  # atno 6907 bound_to 6896
  152.5442  134.1016  159.8330 H   0  0  0  0  0  0  0  0  0  0  0  0  # atno 6908 bound_to 6896
  151.1138  133.5107  159.2637 H   0  0  0  0  0  0  0  0  0  0  0  0  # atno 6909 bound_to 6896
  144.8815  139.5693  143.5841 H   0  0  0  0  0  0  0  0  0  0  0  0  # atno 7974 bound_to 7965
  155.8489  140.3459  155.5680 H   0  0  0  0  0  0  0  0  0  0  0  0  # atno 8008 bound_to 7997
  155.8059  140.0892  157.1950 H   0  0  0  0  0  0  0  0  0  0  0  0  # atno 8009 bound_to 7997
  154.4007  140.1457  156.3317 H   0  0  0  0  0  0  0  0  0  0  0  0  # atno 8010 bound_to 7997
  139.5370  144.6693  151.4751 H   0  0  0  0  0  0  0  0  0  0  0  0  # atno 10167 bound_to 10162
  157.4544  131.1068  150.9996 H   0  0  0  0  0  0  0  0  0  0  0  0  # atno 10718 bound_to 10713
  152.9954  135.5497  154.6049 H   0  0  0  0  0  0  0  0  0  0  0  0  # atno 10763 bound_to 10752
  154.5383  135.2818  155.1121 H   0  0  0  0  0  0  0  0  0  0  0  0  # atno 10764 bound_to 10752
  154.2408  135.6416  153.5259 H   0  0  0  0  0  0  0  0  0  0  0  0  # atno 10765 bound_to 10752
  139.8831  134.9406  156.5847 H   0  0  0  0  0  0  0  0  0  0  0  0  # atno 11005 bound_to 11000
  146.2997  139.7388  142.9100 LP  0  0  0  0  0  0  0  0  0  0  0  0  # atno 17320 bound_to 7965
  145.3946  141.0377  143.3104 LP  0  0  0  0  0  0  0  0  0  0  0  0  # atno 17321 bound_to 7965
  140.6582  143.8554  150.6858 LP  0  0  0  0  0  0  0  0  0  0  0  0  # atno 17342 bound_to 10162
  140.1941  143.4013  152.1841 LP  0  0  0  0  0  0  0  0  0  0  0  0  # atno 17343 bound_to 10162
  157.0814  130.5905  149.5421 LP  0  0  0  0  0  0  0  0  0  0  0  0  # atno 17370 bound_to 10713
  156.0001  130.5078  150.7629 LP  0  0  0  0  0  0  0  0  0  0  0  0  # atno 17371 bound_to 10713
  140.8001  133.8512  155.8719 LP  0  0  0  0  0  0  0  0  0  0  0  0  # atno 17394 bound_to 11000
  140.9600  134.1667  157.4661 LP  0  0  0  0  0  0  0  0  0  0  0  0  # atno 17395 bound_to 11000

$$$$
