AV-unprocessed.smi:2884|AV-procd|sdf|11085|dock4
  -GOLD-   2272015553D 1   1.00000     0.00000
 Structure written by MMmdl.
 41 42  0  0  0  0  0  0  0  0  2 V2000
  152.8689  144.4202  158.1913 C   0  0  0  0  0  0  0  0  0  0  0  0
  151.4422  144.1121  158.6639 C   0  0  0  0  0  0  0  0  0  0  0  0
  151.0322  142.6551  158.4168 C   0  0  0  0  0  0  0  0  0  0  0  0
  150.8784  142.4748  157.0139 O   0  0  0  0  0  0  0  0  0  0  0  0
  150.4054  141.2264  156.4954 C   0  0  0  0  0  0  0  0  0  0  0  0
  151.7151  140.4107  156.3398 C   0  0  0  0  0  0  0  0  0  0  0  0
  152.3198  140.0637  157.6196 N   0  0  0  0  0  0  0  0  0  0  0  0
  152.3402  138.8384  158.2771 C   0  0  0  0  0  0  0  0  0  0  0  0
  151.7127  137.6153  157.7160 C   0  0  0  0  0  0  0  0  0  0  0  0
  151.7422  136.4936  158.3202 N   0  0  0  0  0  0  0  0  0  0  0  0
  152.4004  136.3527  159.5997 N   0  5  0  0  0  0  0  0  0  0  0  0
  153.0074  137.4313  160.1813 C   0  0  0  0  0  0  0  0  0  0  0  0
  153.5821  137.3527  161.2658 O   0  0  0  0  0  0  0  0  0  0  0  0
  152.9638  138.7181  159.4767 C   0  0  0  0  0  0  0  0  0  0  0  0
  153.7400  140.0847  160.2093 Cl  0  0  0  0  0  0  0  0  0  0  0  0
  149.3992  140.5340  157.4569 C   0  0  0  0  0  0  0  0  0  0  0  0
  148.8507  139.2169  156.8794 C   0  0  0  0  0  0  0  0  0  0  0  0
  148.2034  139.4418  155.5031 C   0  0  0  0  0  0  0  0  0  0  0  0
  149.1741  140.1226  154.5244 C   0  0  0  0  0  0  0  0  0  0  0  0
  149.7376  141.4312  155.1104 C   0  0  0  0  0  0  0  0  0  0  0  0
  153.1309  145.4578  158.3989 H   0  0  0  0  0  0  0  0  0  0  0  0
  152.9749  144.2630  157.1179 H   0  0  0  0  0  0  0  0  0  0  0  0
  153.5975  143.7847  158.6950 H   0  0  0  0  0  0  0  0  0  0  0  0
  151.3687  144.3280  159.7300 H   0  0  0  0  0  0  0  0  0  0  0  0
  150.7393  144.7803  158.1652 H   0  0  0  0  0  0  0  0  0  0  0  0
  151.7903  141.9962  158.8369 H   0  0  0  0  0  0  0  0  0  0  0  0
  150.0942  142.4579  158.9342 H   0  0  0  0  0  0  0  0  0  0  0  0
  151.5266  139.4741  155.8180 H   0  0  0  0  0  0  0  0  0  0  0  0
  152.4266  140.9488  155.7150 H   0  0  0  0  0  0  0  0  0  0  0  0
  152.8725  140.7994  158.0353 H   0  0  0  0  0  0  0  0  0  0  0  0
  151.2212  137.7182  156.7466 H   0  0  0  0  0  0  0  0  0  0  0  0
  149.8518  140.3566  158.4328 H   0  0  0  0  0  0  0  0  0  0  0  0
  148.5425  141.1806  157.6398 H   0  0  0  0  0  0  0  0  0  0  0  0
  149.6483  138.4783  156.7993 H   0  0  0  0  0  0  0  0  0  0  0  0
  148.1163  138.7936  157.5650 H   0  0  0  0  0  0  0  0  0  0  0  0
  147.8658  138.4905  155.0909 H   0  0  0  0  0  0  0  0  0  0  0  0
  147.3126  140.0609  155.6187 H   0  0  0  0  0  0  0  0  0  0  0  0
  149.9859  139.4395  154.2745 H   0  0  0  0  0  0  0  0  0  0  0  0
  148.6599  140.3333  153.5863 H   0  0  0  0  0  0  0  0  0  0  0  0
  148.9073  142.1317  155.1911 H   0  0  0  0  0  0  0  0  0  0  0  0
  150.4460  141.8777  154.4119 H   0  0  0  0  0  0  0  0  0  0  0  0
  1  2  1  0  0  0  0
  1 21  1  0  0  0  0
  1 22  1  0  0  0  0
  1 23  1  0  0  0  0
  2  3  1  0  0  0  0
  2 24  1  0  0  0  0
  2 25  1  0  0  0  0
  3  4  1  0  0  0  0
  3 26  1  0  0  0  0
  3 27  1  0  0  0  0
  4  5  1  0  0  0  0
  5 20  1  0  0  0  0
  5  6  1  0  0  0  0
  5 16  1  0  0  0  0
  6  7  1  0  0  0  0
  6 28  1  0  0  0  0
  6 29  1  0  0  0  0
  7  8  1  0  0  0  0
  7 30  1  0  0  0  0
  8 14  2  0  0  0  0
  8  9  1  0  0  0  0
  9 10  2  0  0  0  0
  9 31  1  0  0  0  0
 10 11  1  0  0  0  0
 11 12  1  0  0  0  0
 12 13  2  0  0  0  0
 12 14  1  0  0  0  0
 14 15  1  0  0  0  0
 16 17  1  0  0  0  0
 16 32  1  0  0  0  0
 16 33  1  0  0  0  0
 17 18  1  0  0  0  0
 17 34  1  0  0  0  0
 17 35  1  0  0  0  0
 18 19  1  0  0  0  0
 18 36  1  0  0  0  0
 18 37  1  0  0  0  0
 19 20  1  0  0  0  0
 19 38  1  0  0  0  0
 19 39  1  0  0  0  0
 20 40  1  0  0  0  0
 20 41  1  0  0  0  0
M  CHG  1  11  -1
M  END
> <s_m_source_file>
AV-unprocessed.smi

> <i_m_source_file_index>
2884

> <i_lp_mmshare_version>
43012

> <i_f3d_flags>
0

> <s_epik_input>
W0NIMl0xW0NIMl1bQ0gyXVtDSDJdW0NIMl1DMShPW0NIMl1bQ0gyXVtDSDNdKVtDSDJdW05IXWMyW2NIXW5bbkhdYyg9TyljMkNs

> <s_epik_cmdline>
J2VwaWtfcHl0aG9uJywgJy1waCcsICc3LjAnLCAnLXRuJywgJzgnLCAnLW1hJywgJzIwMCcsICctbWV0YWxfYmluZGluZycsICctaW1hZScsICc8aW5maWxlLm1hZT4nLCAnLW9tYWUnLCAnPG91dGZpbGUubWFlPic=

> <r_lp_tautomer_probability>
0.986175

> <r_epik_Ionization_Penalty>
3.75229

> <r_epik_Ionization_Penalty_Charging>
0.0129106

> <r_epik_Ionization_Penalty_Neutral>
3.73938

> <r_epik_State_Penalty>
3.73863

> <r_epik_Charging_Adjusted_Penalty>
3.75154

> <i_epik_Tot_Q>
-1

> <i_epik_Tot_abs_Q>
1

> <r_epik_Metal_State_Penalty>
0.55642

> <b_epik_Metal_Only>
1

> <s_lp_Force_Field>
OPLS_2005

> <r_lp_Energy>
41.2708

> <b_lp_Chiralities_Consistent>
1

> <s_lp_Variant>
AV-unprocessed.smi:2884-3

> <Gold.Version>
5.8.1

> <Gold.Id.Protein>
6NUR|6NUR_protein|mol2

> <Gold.PLP.Fitness>
37.2720

> <Gold.PLP.PLP>
-32.5145

> <Gold.PLP.part.hbond>
-1.8295

> <Gold.PLP.part.metal>
0.0000

> <Gold.PLP.part.buried>
-5.5174

> <Gold.PLP.part.nonpolar>
-25.5626

> <Gold.PLP.part.repulsive>
0.6953

> <Gold.PLP.ligand.clash>
0.0000

> <Gold.PLP.ligand.torsion>
0.6319

> <Gold.PLP.Chemscore.Hbond>
2.0000

> <Gold.PLP.Chemscore.CHOScore>
0.0000

> <Gold.PLP.Chemscore.Metal>
0.0000

> <Gold.Chemscore.Hbonds>
donor molecule, donor type, donor heavy atom, donor atom, acceptor molecule, acceptor atom, score
      P1  H  6896  6907       L1    11  1.53

> <Gold.PLP.Chemscore.Internal.Correction>
0.0212

> <Gold.Rescore>
     Score         DG    S(hbond)    S(metal)    S(lipo)     H(rot)  DE(clash)    DE(int)     intcor
     13.28     -14.21       0.81        0.00      88.91       1.71       0.00       0.93       ----

> <Gold.Chemscore.Fitness>
13.2824

> <Gold.Chemscore.DG>
-14.2104

> <Gold.Chemscore.ZeroCoef>
-5.4800

> <Gold.Chemscore.Hbond>
0.8075

> <Gold.Chemscore.Metal>
0.0000

> <Gold.Chemscore.Lipo>
88.9124

> <Gold.Chemscore.Internal_Hbond>
0.0000

> <Gold.Chemscore.DEClash>
0.0000

> <Gold.Chemscore.DEInternal>
0.9280

> <Gold.Chemscore.Rot>
1.7068

> <Gold.Chemscore.Internal.Correction>
   9.000000E+99

> <Gold.Chemscore.Hbonds>
donor molecule, donor type, donor heavy atom, donor atom, acceptor molecule, acceptor atom, score
      P1  H  6896  6907       L1    11  0.36

> <Gold.Chemscore.Hbond.Weighted>
-2.6971

> <Gold.Chemscore.Metal.Weighted>
-0.0000

> <Gold.Chemscore.Lipo.Weighted>
-10.4027

> <Gold.Chemscore.Internal_Hbond.Weighted>
0.0000

> <Gold.Chemscore.DEClash.Weighted>
0.0000

> <Gold.Chemscore.DEInternal.Weighted>
0.9280

> <Gold.Chemscore.Rot.Weighted>
4.3694

> <Gold.Chemscore.Internal.Correction.Weighted>
   9.000000E+99

> <Gold.Protein.RotatedTorsions>
[ 6907 6896 6895 6894 ] final   31.08 input  -60.11 | X-H torsion
[ 7974 7965 7964 7962 ] final  -70.52 input  175.53 | X-H torsion
[ 8008 7997 7996 7995 ] final -113.89 input   59.86 | X-H torsion
[ 10167 10162 10161 10158 ] final   34.71 input  -65.29 | X-H torsion
[ 10718 10713 10712 10709 ] final  167.60 input   66.30 | X-H torsion
[ 10763 10752 10751 10750 ] final  -18.42 input  -60.55 | X-H torsion
[ 11005 11000 10999 10996 ] final  -10.43 input  -57.11 | X-H torsion

> <Gold.Protein.ActiveResidues>
 VAL166  LYS551  ARG553  GLY616  TRP617  ASP618  TYR619  PRO620  LYS621  CYS622 
 ASP623  PHE694  ASN695  SER759  ASP760  ASP761  ALA762  ILE779  LEU786  VAL792 
 PHE793  MET794  SER795  GLU796  ALA797  LYS798  CYS799  TRP800  GLU811  SER814 

> <Gold.Protein.RotatedAtoms>
  152.0552  134.9628  160.0574 H   0  0  0  0  0  0  0  0  0  0  0  0  # atno 6907 bound_to 6896
  152.1013  133.4247  159.4597 H   0  0  0  0  0  0  0  0  0  0  0  0  # atno 6908 bound_to 6896
  150.6839  134.2676  159.4618 H   0  0  0  0  0  0  0  0  0  0  0  0  # atno 6909 bound_to 6896
  145.6899  140.9157  143.0787 H   0  0  0  0  0  0  0  0  0  0  0  0  # atno 7974 bound_to 7965
  155.0277  140.0393  157.2462 H   0  0  0  0  0  0  0  0  0  0  0  0  # atno 8008 bound_to 7997
  154.7323  140.2733  155.6422 H   0  0  0  0  0  0  0  0  0  0  0  0  # atno 8009 bound_to 7997
  156.2844  140.2681  156.2027 H   0  0  0  0  0  0  0  0  0  0  0  0  # atno 8010 bound_to 7997
  140.4290  144.1352  150.6157 H   0  0  0  0  0  0  0  0  0  0  0  0  # atno 10167 bound_to 10162
  157.0492  131.0308  151.2686 H   0  0  0  0  0  0  0  0  0  0  0  0  # atno 10718 bound_to 10713
  153.5890  135.7003  153.5431 H   0  0  0  0  0  0  0  0  0  0  0  0  # atno 10763 bound_to 10752
  153.3195  135.4078  155.1404 H   0  0  0  0  0  0  0  0  0  0  0  0  # atno 10764 bound_to 10752
  154.8604  135.3692  154.5421 H   0  0  0  0  0  0  0  0  0  0  0  0  # atno 10765 bound_to 10752
  140.7447  133.8641  155.8996 H   0  0  0  0  0  0  0  0  0  0  0  0  # atno 11005 bound_to 11000
  144.7000  139.8808  143.7447 LP  0  0  0  0  0  0  0  0  0  0  0  0  # atno 17320 bound_to 7965
  146.0891  139.3880  143.0417 LP  0  0  0  0  0  0  0  0  0  0  0  0  # atno 17321 bound_to 7965
  140.4449  143.2511  151.9424 LP  0  0  0  0  0  0  0  0  0  0  0  0  # atno 17342 bound_to 10162
  139.4784  144.5619  151.8226 LP  0  0  0  0  0  0  0  0  0  0  0  0  # atno 17343 bound_to 10162
  157.5043  130.7899  149.7638 LP  0  0  0  0  0  0  0  0  0  0  0  0  # atno 17370 bound_to 10713
  156.0013  130.3879  150.2595 LP  0  0  0  0  0  0  0  0  0  0  0  0  # atno 17371 bound_to 10713
  140.9805  134.1411  157.4498 LP  0  0  0  0  0  0  0  0  0  0  0  0  # atno 17394 bound_to 11000
  139.8799  135.0009  156.6036 LP  0  0  0  0  0  0  0  0  0  0  0  0  # atno 17395 bound_to 11000

$$$$
