AV-unprocessed.smi:2618|AV-procd|sdf|10219|dock6
  -GOLD-   2272014223D 1   1.00000     0.00000
 Structure written by MMmdl.
 39 40  0  0  0  0  0  0  0  0  1 V2000
  155.6204  138.8448  151.9427 C   0  0  0  0  0  0  0  0  0  0  0  0
  156.3009  139.6968  152.8469 O   0  0  0  0  0  0  0  0  0  0  0  0
  155.4488  140.2110  153.8589 C   0  0  0  0  0  0  0  0  0  0  0  0
  155.1303  141.6903  153.5696 C   0  0  0  0  0  0  0  0  0  0  0  0
  154.1721  142.3188  154.5526 C   0  0  0  0  0  0  0  0  0  0  0  0
  154.2787  142.2357  155.8276 N   0  0  0  0  0  0  0  0  0  0  0  0
  153.2910  142.8924  156.4351 N   0  0  0  0  0  0  0  0  0  0  0  0
  153.2066  143.0257  157.8261 C   0  0  0  0  0  0  0  0  0  0  0  0
  154.0369  142.2951  158.5810 N   0  0  0  0  0  0  0  0  0  0  0  0
  153.9473  142.4245  159.9220 C   0  0  0  0  0  0  0  0  0  0  0  0
  154.9011  141.5899  160.7496 C   0  0  0  0  0  0  0  0  0  0  0  0
  153.0109  143.2891  160.5230 C   0  0  0  0  0  0  0  0  0  0  0  0
  152.1802  144.0082  159.6404 C   0  0  0  0  0  0  0  0  0  0  0  0
  151.1275  144.9703  160.1475 C   0  0  0  0  0  0  0  0  0  0  0  0
  152.2819  143.8741  158.3005 N   0  0  0  0  0  0  0  0  0  0  0  0
  152.3192  143.4240  155.4677 C   0  0  2  0  0  0  0  0  0  0  0  0
  152.0986  144.8242  155.5225 O   0  0  0  0  0  0  0  0  0  0  0  0
  150.9437  142.7020  155.5424 C   0  0  0  0  0  0  0  0  0  0  0  0
  151.1041  141.3871  155.3832 F   0  0  0  0  0  0  0  0  0  0  0  0
  150.3299  142.9020  156.7077 F   0  0  0  0  0  0  0  0  0  0  0  0
  150.1440  143.1392  154.5682 F   0  0  0  0  0  0  0  0  0  0  0  0
  153.0119  143.1439  154.1273 C   0  0  0  0  0  0  0  0  0  0  0  0
  156.3200  138.4711  151.1953 H   0  0  0  0  0  0  0  0  0  0  0  0
  154.8253  139.3796  151.4213 H   0  0  0  0  0  0  0  0  0  0  0  0
  155.1870  137.9869  152.4584 H   0  0  0  0  0  0  0  0  0  0  0  0
  154.5315  139.6238  153.9321 H   0  0  0  0  0  0  0  0  0  0  0  0
  155.9534  140.1318  154.8231 H   0  0  0  0  0  0  0  0  0  0  0  0
  156.0576  142.2633  153.5707 H   0  0  0  0  0  0  0  0  0  0  0  0
  154.7212  141.7757  152.5625 H   0  0  0  0  0  0  0  0  0  0  0  0
  154.9126  141.9211  161.7884 H   0  0  0  0  0  0  0  0  0  0  0  0
  155.9159  141.6664  160.3577 H   0  0  0  0  0  0  0  0  0  0  0  0
  154.6016  140.5419  160.7271 H   0  0  0  0  0  0  0  0  0  0  0  0
  152.9338  143.3930  161.5955 H   0  0  0  0  0  0  0  0  0  0  0  0
  151.1019  144.9888  161.2373 H   0  0  0  0  0  0  0  0  0  0  0  0
  150.1407  144.6768  159.7887 H   0  0  0  0  0  0  0  0  0  0  0  0
  151.3361  145.9804  159.7937 H   0  0  0  0  0  0  0  0  0  0  0  0
  151.2736  144.9798  155.9557 H   0  0  0  0  0  0  0  0  0  0  0  0
  153.3653  144.0492  153.6309 H   0  0  0  0  0  0  0  0  0  0  0  0
  152.3789  142.5983  153.4268 H   0  0  0  0  0  0  0  0  0  0  0  0
  1  2  1  0  0  0  0
  1 23  1  0  0  0  0
  1 24  1  0  0  0  0
  1 25  1  0  0  0  0
  2  3  1  0  0  0  0
  3  4  1  0  0  0  0
  3 26  1  0  0  0  0
  3 27  1  0  0  0  0
  4  5  1  0  0  0  0
  4 28  1  0  0  0  0
  4 29  1  0  0  0  0
  5 22  1  0  0  0  0
  5  6  2  0  0  0  0
  6  7  1  0  0  0  0
  7  8  1  0  0  0  0
  7 16  1  0  0  0  0
  8 15  1  0  0  0  0
  8  9  2  0  0  0  0
  9 10  1  0  0  0  0
 10 11  1  0  0  0  0
 10 12  2  0  0  0  0
 11 30  1  0  0  0  0
 11 31  1  0  0  0  0
 11 32  1  0  0  0  0
 12 13  1  0  0  0  0
 12 33  1  0  0  0  0
 13 14  1  0  0  0  0
 13 15  2  0  0  0  0
 14 34  1  0  0  0  0
 14 35  1  0  0  0  0
 14 36  1  0  0  0  0
 16 17  1  0  0  0  0
 16 18  1  0  0  0  0
 16 22  1  0  0  0  0
 17 37  1  0  0  0  0
 18 19  1  0  0  0  0
 18 20  1  0  0  0  0
 18 21  1  0  0  0  0
 22 38  1  0  0  0  0
 22 39  1  0  0  0  0
M  END
> <s_m_source_file>
AV-unprocessed.smi

> <i_m_source_file_index>
2618

> <i_lp_mmshare_version>
43012

> <i_f3d_flags>
0

> <s_epik_input>
W0NIM11PW0NIMl1bQ0gyXUMoW0NIMl0xKT1OTihbQ0BAXTEoW09IXSlDKEYpKEYpRiljMm5jKFtDSDNdKVtjSF1jKG4yKVtDSDNd

> <s_epik_cmdline>
J2VwaWtfcHl0aG9uJywgJy1waCcsICc3LjAnLCAnLXRuJywgJzgnLCAnLW1hJywgJzIwMCcsICctbWV0YWxfYmluZGluZycsICctaW1hZScsICc8aW5maWxlLm1hZT4nLCAnLW9tYWUnLCAnPG91dGZpbGUubWFlPic=

> <r_lp_tautomer_probability>
1

> <r_epik_Ionization_Penalty>
0.0648608

> <r_epik_Ionization_Penalty_Charging>
0

> <r_epik_Ionization_Penalty_Neutral>
0.0648608

> <r_epik_State_Penalty>
0.0551477

> <r_epik_Charging_Adjusted_Penalty>
0.0551477

> <i_epik_Tot_Q>
0

> <i_epik_Tot_abs_Q>
0

> <r_epik_Metal_State_Penalty>
0.0550619

> <b_epik_Metal_Only>
0

> <s_epik_Chemistry_Notes>
This compound has an imine and may undergo hydrolysis.

> <s_lp_Force_Field>
OPLS_2005

> <r_lp_Energy>
16.3005

> <b_lp_Chiralities_Consistent>
1

> <s_lp_Variant>
AV-unprocessed.smi:2618-2

> <Gold.Version>
5.8.1

> <Gold.Id.Protein>
6NUR|6NUR_protein|mol2

> <Gold.PLP.Fitness>
44.7062

> <Gold.PLP.PLP>
-39.8796

> <Gold.PLP.part.hbond>
-2.0667

> <Gold.PLP.part.metal>
0.0000

> <Gold.PLP.part.buried>
-3.5687

> <Gold.PLP.part.nonpolar>
-34.4277

> <Gold.PLP.part.repulsive>
0.2415

> <Gold.PLP.ligand.clash>
0.0000

> <Gold.PLP.ligand.torsion>
0.5493

> <Gold.PLP.Chemscore.Hbond>
1.9440

> <Gold.PLP.Chemscore.CHOScore>
0.0000

> <Gold.PLP.Chemscore.Metal>
0.0000

> <Gold.Chemscore.Hbonds>
donor molecule, donor type, donor heavy atom, donor atom, acceptor molecule, acceptor atom, score
      L1  H    17    37       P1  8028  0.12

> <Gold.PLP.Chemscore.Internal.Correction>
0.0931

> <Gold.Rescore>
     Score         DG    S(hbond)    S(metal)    S(lipo)     H(rot)  DE(clash)    DE(int)     intcor
     12.04     -14.54       1.37        0.00      82.72       2.03       0.30       2.21       ----

> <Gold.Chemscore.Fitness>
12.0382

> <Gold.Chemscore.DG>
-14.5407

> <Gold.Chemscore.ZeroCoef>
-5.4800

> <Gold.Chemscore.Hbond>
1.3743

> <Gold.Chemscore.Metal>
0.0000

> <Gold.Chemscore.Lipo>
82.7165

> <Gold.Chemscore.Internal_Hbond>
0.0000

> <Gold.Chemscore.DEClash>
0.2970

> <Gold.Chemscore.DEInternal>
2.2056

> <Gold.Chemscore.Rot>
2.0340

> <Gold.Chemscore.Internal.Correction>
   9.000000E+99

> <Gold.Chemscore.Hbonds>
donor molecule, donor type, donor heavy atom, donor atom, acceptor molecule, acceptor atom, score
      L1  H    17    37       P1  8028  0.15

> <Gold.Chemscore.Hbond.Weighted>
-4.5900

> <Gold.Chemscore.Metal.Weighted>
-0.0000

> <Gold.Chemscore.Lipo.Weighted>
-9.6778

> <Gold.Chemscore.Internal_Hbond.Weighted>
0.0000

> <Gold.Chemscore.DEClash.Weighted>
0.2970

> <Gold.Chemscore.DEInternal.Weighted>
2.2056

> <Gold.Chemscore.Rot.Weighted>
5.2071

> <Gold.Chemscore.Internal.Correction.Weighted>
   9.000000E+99

> <Gold.Protein.RotatedTorsions>
[ 6907 6896 6895 6894 ] final  143.25 input  -60.11 | X-H torsion
[ 7974 7965 7964 7962 ] final  133.79 input  175.53 | X-H torsion
[ 8008 7997 7996 7995 ] final   24.19 input   59.86 | X-H torsion
[ 10167 10162 10161 10158 ] final  -86.81 input  -65.29 | X-H torsion
[ 10718 10713 10712 10709 ] final -131.34 input   66.30 | X-H torsion
[ 10763 10752 10751 10750 ] final  178.64 input  -60.55 | X-H torsion
[ 11005 11000 10999 10996 ] final   75.48 input  -57.11 | X-H torsion

> <Gold.Protein.ActiveResidues>
 VAL166  LYS551  ARG553  GLY616  TRP617  ASP618  TYR619  PRO620  LYS621  CYS622 
 ASP623  PHE694  ASN695  SER759  ASP760  ASP761  ALA762  ILE779  LEU786  VAL792 
 PHE793  MET794  SER795  GLU796  ALA797  LYS798  CYS799  TRP800  GLU811  SER814 

> <Gold.Protein.RotatedAtoms>
  152.2087  133.4895  159.5097 H   0  0  0  0  0  0  0  0  0  0  0  0  # atno 6907 bound_to 6896
  150.6985  134.1496  159.4144 H   0  0  0  0  0  0  0  0  0  0  0  0  # atno 6908 bound_to 6896
  151.9415  135.0211  160.0587 H   0  0  0  0  0  0  0  0  0  0  0  0  # atno 6909 bound_to 6896
  144.9829  139.4485  143.5377 H   0  0  0  0  0  0  0  0  0  0  0  0  # atno 7974 bound_to 7965
  154.9924  140.3115  155.4900 H   0  0  0  0  0  0  0  0  0  0  0  0  # atno 8008 bound_to 7997
  156.2937  140.2246  156.4970 H   0  0  0  0  0  0  0  0  0  0  0  0  # atno 8009 bound_to 7997
  154.7691  140.0453  157.1025 H   0  0  0  0  0  0  0  0  0  0  0  0  # atno 8010 bound_to 7997
  140.3905  143.2707  151.9270 H   0  0  0  0  0  0  0  0  0  0  0  0  # atno 10167 bound_to 10162
  156.2234  130.6993  151.0781 H   0  0  0  0  0  0  0  0  0  0  0  0  # atno 10718 bound_to 10713
  154.5103  135.2788  155.1348 H   0  0  0  0  0  0  0  0  0  0  0  0  # atno 10763 bound_to 10752
  154.2946  135.6260  153.5403 H   0  0  0  0  0  0  0  0  0  0  0  0  # atno 10764 bound_to 10752
  152.9917  135.5682  154.5567 H   0  0  0  0  0  0  0  0  0  0  0  0  # atno 10765 bound_to 10752
  139.9342  134.7521  156.1276 H   0  0  0  0  0  0  0  0  0  0  0  0  # atno 11005 bound_to 11000
  146.3413  139.9114  142.8780 LP  0  0  0  0  0  0  0  0  0  0  0  0  # atno 17320 bound_to 7965
  145.2394  141.0003  143.3944 LP  0  0  0  0  0  0  0  0  0  0  0  0  # atno 17321 bound_to 7965
  139.4789  144.5732  151.8054 LP  0  0  0  0  0  0  0  0  0  0  0  0  # atno 17342 bound_to 10162
  140.4844  144.1402  150.5938 LP  0  0  0  0  0  0  0  0  0  0  0  0  # atno 17343 bound_to 10162
  157.7099  131.0739  150.6538 LP  0  0  0  0  0  0  0  0  0  0  0  0  # atno 17370 bound_to 10713
  156.6602  130.4510  149.5690 LP  0  0  0  0  0  0  0  0  0  0  0  0  # atno 17371 bound_to 10713
  141.0947  133.6700  156.2617 LP  0  0  0  0  0  0  0  0  0  0  0  0  # atno 17394 bound_to 11000
  140.6121  134.5448  157.5535 LP  0  0  0  0  0  0  0  0  0  0  0  0  # atno 17395 bound_to 11000

$$$$
