AV-unprocessed.smi:1606|AV-procd|sdf|6462|dock8
  -GOLD-   22720 7113D 1   1.00000     0.00000
 Structure written by MMmdl.
 36 37  0  0  0  0  0  0  0  0  2 V2000
  146.8250  140.7314  155.9290 O   0  0  0  0  0  0  0  0  0  0  0  0
  147.2175  141.8931  156.0394 C   0  0  0  0  0  0  0  0  0  0  0  0
  148.4714  142.2129  156.3946 N   0  0  0  0  0  0  0  0  0  0  0  0
  149.5317  141.2571  156.7028 C   0  0  0  0  0  0  0  0  0  0  0  0
  150.9544  141.8470  156.5927 C   0  0  0  0  0  0  0  0  0  0  0  0
  151.3287  142.7798  157.7320 C   0  0  0  0  0  0  0  0  0  0  0  0
  152.1960  142.3823  158.7726 C   0  0  0  0  0  0  0  0  0  0  0  0
  152.4932  143.2936  159.8077 C   0  0  0  0  0  0  0  0  0  0  0  0
  151.9165  144.5806  159.7819 C   0  0  0  0  0  0  0  0  0  0  0  0
  151.0564  144.9250  158.7193 C   0  0  0  0  0  0  0  0  0  0  0  0
  150.7977  144.0247  157.7460 N   0  3  0  0  0  0  0  0  0  0  0  0
  146.2710  143.0641  155.7458 C   0  0  0  0  0  0  0  0  0  0  0  0
  144.9233  142.8967  156.4711 C   0  0  0  0  0  0  0  0  0  0  0  0
  143.9576  144.0280  156.0818 C   0  0  0  0  0  0  0  0  0  0  0  0
  143.7822  144.0532  154.6689 O   0  0  0  0  0  0  0  0  0  0  0  0
  144.9895  144.3165  153.9621 C   0  0  0  0  0  0  0  0  0  0  0  0
  146.0113  143.2007  154.2349 C   0  0  0  0  0  0  0  0  0  0  0  0
  148.7070  143.1925  156.4652 H   0  0  0  0  0  0  0  0  0  0  0  0
  149.3653  140.9134  157.7241 H   0  0  0  0  0  0  0  0  0  0  0  0
  149.4364  140.3773  156.0645 H   0  0  0  0  0  0  0  0  0  0  0  0
  151.6813  141.0353  156.5467 H   0  0  0  0  0  0  0  0  0  0  0  0
  151.0571  142.3889  155.6516 H   0  0  0  0  0  0  0  0  0  0  0  0
  152.6269  141.3915  158.7805 H   0  0  0  0  0  0  0  0  0  0  0  0
  153.1545  143.0082  160.6128 H   0  0  0  0  0  0  0  0  0  0  0  0
  152.1310  145.2924  160.5657 H   0  0  0  0  0  0  0  0  0  0  0  0
  150.5709  145.8848  158.6187 H   0  0  0  0  0  0  0  0  0  0  0  0
  146.7364  143.9867  156.0984 H   0  0  0  0  0  0  0  0  0  0  0  0
  144.4681  141.9384  156.2153 H   0  0  0  0  0  0  0  0  0  0  0  0
  145.0716  142.8929  157.5518 H   0  0  0  0  0  0  0  0  0  0  0  0
  142.9876  143.8703  156.5535 H   0  0  0  0  0  0  0  0  0  0  0  0
  144.3278  144.9935  156.4304 H   0  0  0  0  0  0  0  0  0  0  0  0
  144.7686  144.3694  152.8960 H   0  0  0  0  0  0  0  0  0  0  0  0
  145.3885  145.2897  154.2523 H   0  0  0  0  0  0  0  0  0  0  0  0
  146.9418  143.4170  153.7083 H   0  0  0  0  0  0  0  0  0  0  0  0
  145.6320  142.2622  153.8269 H   0  0  0  0  0  0  0  0  0  0  0  0
  150.1708  144.2939  156.9870 H   0  0  0  0  0  0  0  0  0  0  0  0
  1  2  2  0  0  0  0
  2  3  1  0  0  0  0
  2 12  1  0  0  0  0
  3  4  1  0  0  0  0
  3 18  1  0  0  0  0
  4  5  1  0  0  0  0
  4 19  1  0  0  0  0
  4 20  1  0  0  0  0
  5  6  1  0  0  0  0
  5 21  1  0  0  0  0
  5 22  1  0  0  0  0
  6 11  1  0  0  0  0
  6  7  2  0  0  0  0
  7  8  1  0  0  0  0
  7 23  1  0  0  0  0
  8  9  2  0  0  0  0
  8 24  1  0  0  0  0
  9 10  1  0  0  0  0
  9 25  1  0  0  0  0
 10 11  2  0  0  0  0
 10 26  1  0  0  0  0
 11 36  1  0  0  0  0
 12 17  1  0  0  0  0
 12 13  1  0  0  0  0
 12 27  1  0  0  0  0
 13 14  1  0  0  0  0
 13 28  1  0  0  0  0
 13 29  1  0  0  0  0
 14 15  1  0  0  0  0
 14 30  1  0  0  0  0
 14 31  1  0  0  0  0
 15 16  1  0  0  0  0
 16 17  1  0  0  0  0
 16 32  1  0  0  0  0
 16 33  1  0  0  0  0
 17 34  1  0  0  0  0
 17 35  1  0  0  0  0
M  CHG  1  11   1
M  END
> <s_m_source_file>
AV-unprocessed.smi

> <i_m_source_file_index>
1606

> <i_lp_mmshare_version>
43012

> <i_f3d_flags>
0

> <s_epik_input>
W0NIMl0xW0NIMl1PW0NIMl1bQ0gyXVtDSF0xQyg9TylbTkhdW0NIMl1bQ0gyXWMyW2NIXVtjSF1bY0hdW2NIXW4y

> <s_epik_cmdline>
J2VwaWtfcHl0aG9uJywgJy1waCcsICc3LjAnLCAnLXRuJywgJzgnLCAnLW1hJywgJzIwMCcsICctbWV0YWxfYmluZGluZycsICctaW1hZScsICc8aW5maWxlLm1hZT4nLCAnLW9tYWUnLCAnPG91dGZpbGUubWFlPic=

> <r_epik_Ionization_Penalty>
1.82741

> <r_epik_Ionization_Penalty_Charging>
1.82741

> <r_epik_Ionization_Penalty_Neutral>
1.59153e-08

> <r_epik_State_Penalty>
1.94311

> <r_epik_Charging_Adjusted_Penalty>
3.77052

> <i_epik_Tot_Q>
1

> <i_epik_Tot_abs_Q>
1

> <r_epik_Metal_State_Penalty>
1.96982

> <b_epik_Metal_Only>
0

> <s_lp_Force_Field>
OPLS_2005

> <r_lp_Energy>
14.6238

> <b_lp_Chiralities_Consistent>
1

> <s_lp_Variant>
AV-unprocessed.smi:1606-2

> <Gold.Version>
5.8.1

> <Gold.Id.Protein>
6NUR|6NUR_protein|mol2

> <Gold.PLP.Fitness>
41.4644

> <Gold.PLP.PLP>
-33.7833

> <Gold.PLP.part.hbond>
-2.0000

> <Gold.PLP.part.metal>
0.0000

> <Gold.PLP.part.buried>
-5.1702

> <Gold.PLP.part.nonpolar>
-27.5536

> <Gold.PLP.part.repulsive>
0.2192

> <Gold.PLP.ligand.clash>
0.0000

> <Gold.PLP.ligand.torsion>
0.6622

> <Gold.PLP.Chemscore.Hbond>
3.0000

> <Gold.PLP.Chemscore.CHOScore>
0.0000

> <Gold.PLP.Chemscore.Metal>
0.0000

> <Gold.Chemscore.Hbonds>
donor molecule, donor type, donor heavy atom, donor atom, acceptor molecule, acceptor atom, score
      L1  H     3    18       P1  8028  0.96
      L1  H    11    36       P1  8028  2.00

> <Gold.PLP.Chemscore.Internal.Correction>
0.0055

> <Gold.Rescore>
     Score         DG    S(hbond)    S(metal)    S(lipo)     H(rot)  DE(clash)    DE(int)     intcor
     18.10     -18.61       1.91        0.00      91.69       1.56       0.08       0.44       ----

> <Gold.Chemscore.Fitness>
18.0960

> <Gold.Chemscore.DG>
-18.6136

> <Gold.Chemscore.ZeroCoef>
-5.4800

> <Gold.Chemscore.Hbond>
1.9137

> <Gold.Chemscore.Metal>
0.0000

> <Gold.Chemscore.Lipo>
91.6895

> <Gold.Chemscore.Internal_Hbond>
0.0000

> <Gold.Chemscore.DEClash>
0.0794

> <Gold.Chemscore.DEInternal>
0.4382

> <Gold.Chemscore.Rot>
1.5569

> <Gold.Chemscore.Internal.Correction>
   9.000000E+99

> <Gold.Chemscore.Hbonds>
donor molecule, donor type, donor heavy atom, donor atom, acceptor molecule, acceptor atom, score
      L1  H     3    18       P1  8028  0.84
      L1  H    11    36       P1  8028  0.85

> <Gold.Chemscore.Hbond.Weighted>
-6.3916

> <Gold.Chemscore.Metal.Weighted>
-0.0000

> <Gold.Chemscore.Lipo.Weighted>
-10.7277

> <Gold.Chemscore.Internal_Hbond.Weighted>
0.0000

> <Gold.Chemscore.DEClash.Weighted>
0.0794

> <Gold.Chemscore.DEInternal.Weighted>
0.4382

> <Gold.Chemscore.Rot.Weighted>
3.9857

> <Gold.Chemscore.Internal.Correction.Weighted>
   9.000000E+99

> <Gold.Protein.RotatedTorsions>
[ 6907 6896 6895 6894 ] final  -24.72 input  -60.11 | X-H torsion
[ 7974 7965 7964 7962 ] final   34.93 input  175.53 | X-H torsion
[ 8008 7997 7996 7995 ] final  111.54 input   59.86 | X-H torsion
[ 10167 10162 10161 10158 ] final -123.22 input  -65.29 | X-H torsion
[ 10718 10713 10712 10709 ] final   38.48 input   66.30 | X-H torsion
[ 10763 10752 10751 10750 ] final   27.65 input  -60.55 | X-H torsion
[ 11005 11000 10999 10996 ] final -119.94 input  -57.11 | X-H torsion

> <Gold.Protein.ActiveResidues>
 VAL166  LYS551  ARG553  GLY616  TRP617  ASP618  TYR619  PRO620  LYS621  CYS622 
 ASP623  PHE694  ASN695  SER759  ASP760  ASP761  ALA762  ILE779  LEU786  VAL792 
 PHE793  MET794  SER795  GLU796  ALA797  LYS798  CYS799  TRP800  GLU811  SER814 

> <Gold.Protein.RotatedAtoms>
  151.1854  135.0379  159.8809 H   0  0  0  0  0  0  0  0  0  0  0  0  # atno 6907 bound_to 6896
  152.5442  134.1015  159.8330 H   0  0  0  0  0  0  0  0  0  0  0  0  # atno 6908 bound_to 6896
  151.1137  133.5107  159.2637 H   0  0  0  0  0  0  0  0  0  0  0  0  # atno 6909 bound_to 6896
  146.1318  139.6206  142.9221 H   0  0  0  0  0  0  0  0  0  0  0  0  # atno 7974 bound_to 7965
  156.2130  140.3017  155.9776 H   0  0  0  0  0  0  0  0  0  0  0  0  # atno 8008 bound_to 7997
  155.2675  140.0432  157.3021 H   0  0  0  0  0  0  0  0  0  0  0  0  # atno 8009 bound_to 7997
  154.5727  140.2353  155.8176 H   0  0  0  0  0  0  0  0  0  0  0  0  # atno 8010 bound_to 7997
  140.0058  143.5493  152.2284 H   0  0  0  0  0  0  0  0  0  0  0  0  # atno 10167 bound_to 10162
  157.3594  130.7641  149.7036 H   0  0  0  0  0  0  0  0  0  0  0  0  # atno 10718 bound_to 10713
  153.0542  135.6532  154.0619 H   0  0  0  0  0  0  0  0  0  0  0  0  # atno 10763 bound_to 10752
  154.0301  135.2912  155.3371 H   0  0  0  0  0  0  0  0  0  0  0  0  # atno 10764 bound_to 10752
  154.6847  135.5306  153.8378 H   0  0  0  0  0  0  0  0  0  0  0  0  # atno 10765 bound_to 10752
  141.0179  134.0167  157.3323 H   0  0  0  0  0  0  0  0  0  0  0  0  # atno 11005 bound_to 11000
  145.5243  141.0430  143.2418 LP  0  0  0  0  0  0  0  0  0  0  0  0  # atno 17320 bound_to 7965
  144.7699  139.6759  143.7199 LP  0  0  0  0  0  0  0  0  0  0  0  0  # atno 17321 bound_to 7965
  139.6239  144.7634  151.2680 LP  0  0  0  0  0  0  0  0  0  0  0  0  # atno 17342 bound_to 10162
  140.7401  143.6598  150.8174 LP  0  0  0  0  0  0  0  0  0  0  0  0  # atno 17343 bound_to 10162
  155.9735  130.4118  150.4000 LP  0  0  0  0  0  0  0  0  0  0  0  0  # atno 17370 bound_to 10713
  157.2075  131.0452  151.2617 LP  0  0  0  0  0  0  0  0  0  0  0  0  # atno 17371 bound_to 10713
  139.9128  135.0193  156.7762 LP  0  0  0  0  0  0  0  0  0  0  0  0  # atno 17394 bound_to 11000
  140.6623  133.9634  155.7811 LP  0  0  0  0  0  0  0  0  0  0  0  0  # atno 17395 bound_to 11000

$$$$
