AV-unprocessed.smi:3321|AV-procd|sdf|12769|dock1
  -GOLD-   2272019113D 1   1.00000     0.00000
 Structure written by MMmdl.
 41 42  0  0  0  0  0  0  0  0  2 V2000
  149.1944  142.2107  158.2525 C   0  0  0  0  0  0  0  0  0  0  0  0
  150.5996  142.7552  157.9485 C   0  0  2  0  0  0  0  0  0  0  0  0
  150.8252  142.7459  156.4837 N   0  3  0  0  0  0  0  0  0  0  0  0
  150.2633  141.5772  155.7730 C   0  0  0  0  0  0  0  0  0  0  0  0
  149.0333  141.9749  154.9446 C   0  0  0  0  0  0  0  0  0  0  0  0
  148.4210  140.8266  154.3045 N   0  0  0  0  0  0  0  0  0  0  0  0
  147.3222  140.7918  153.4717 C   0  0  0  0  0  0  0  0  0  0  0  0
  147.1203  139.4878  153.1205 C   0  0  0  0  0  0  0  0  0  0  0  0
  148.1566  138.7895  153.8009 C   0  0  0  0  0  0  0  0  0  0  0  0
  148.9321  139.5937  154.5105 N   0  0  0  0  0  0  0  0  0  0  0  0
  151.6641  141.9233  158.6955 C   0  0  0  0  0  0  0  0  0  0  0  0
  151.6656  140.7024  158.5267 O   0  0  0  0  0  0  0  0  0  0  0  0
  152.5600  142.5366  159.5094 N   0  0  0  0  0  0  0  0  0  0  0  0
  153.6060  141.8783  160.3040 C   0  0  0  0  0  0  0  0  0  0  0  0
  153.1843  141.9088  161.7839 C   0  0  0  0  0  0  0  0  0  0  0  0
  152.9377  143.3576  162.2494 C   0  0  0  0  0  0  0  0  0  0  0  0
  152.0106  144.1222  161.2839 C   0  0  0  0  0  0  0  0  0  0  0  0
  152.4819  143.9692  159.8255 C   0  0  0  0  0  0  0  0  0  0  0  0
  148.9838  142.2132  159.3226 H   0  0  0  0  0  0  0  0  0  0  0  0
  149.0774  141.1860  157.8964 H   0  0  0  0  0  0  0  0  0  0  0  0
  148.4282  142.8177  157.7694 H   0  0  0  0  0  0  0  0  0  0  0  0
  150.6470  143.7994  158.2548 H   0  0  0  0  0  0  0  0  0  0  0  0
  150.4291  143.5904  156.0957 H   0  0  0  0  0  0  0  0  0  0  0  0
  151.0275  141.1514  155.1213 H   0  0  0  0  0  0  0  0  0  0  0  0
  149.9910  140.8062  156.4949 H   0  0  0  0  0  0  0  0  0  0  0  0
  148.2860  142.4585  155.5757 H   0  0  0  0  0  0  0  0  0  0  0  0
  149.3114  142.6940  154.1727 H   0  0  0  0  0  0  0  0  0  0  0  0
  146.7818  141.6867  153.1997 H   0  0  0  0  0  0  0  0  0  0  0  0
  146.3492  139.0920  152.4764 H   0  0  0  0  0  0  0  0  0  0  0  0
  148.3665  137.7299  153.8002 H   0  0  0  0  0  0  0  0  0  0  0  0
  153.8301  140.8612  159.9899 H   0  0  0  0  0  0  0  0  0  0  0  0
  154.5445  142.4206  160.1789 H   0  0  0  0  0  0  0  0  0  0  0  0
  152.2762  141.3195  161.9183 H   0  0  0  0  0  0  0  0  0  0  0  0
  153.9511  141.4439  162.4043 H   0  0  0  0  0  0  0  0  0  0  0  0
  152.5219  143.3647  163.2572 H   0  0  0  0  0  0  0  0  0  0  0  0
  153.8943  143.8783  162.3076 H   0  0  0  0  0  0  0  0  0  0  0  0
  150.9925  143.7420  161.3780 H   0  0  0  0  0  0  0  0  0  0  0  0
  151.9735  145.1768  161.5583 H   0  0  0  0  0  0  0  0  0  0  0  0
  153.4644  144.4259  159.6974 H   0  0  0  0  0  0  0  0  0  0  0  0
  151.8141  144.5181  159.1604 H   0  0  0  0  0  0  0  0  0  0  0  0
  151.8219  142.7518  156.3214 H   0  0  0  0  0  0  0  0  0  0  0  0
  1  2  1  0  0  0  0
  1 19  1  0  0  0  0
  1 20  1  0  0  0  0
  1 21  1  0  0  0  0
  2  3  1  0  0  0  0
  2 11  1  0  0  0  0
  2 22  1  0  0  0  0
  3  4  1  0  0  0  0
  3 23  1  0  0  0  0
  3 41  1  0  0  0  0
  4  5  1  0  0  0  0
  4 24  1  0  0  0  0
  4 25  1  0  0  0  0
  5  6  1  0  0  0  0
  5 26  1  0  0  0  0
  5 27  1  0  0  0  0
  6 10  1  0  0  0  0
  6  7  1  0  0  0  0
  7  8  2  0  0  0  0
  7 28  1  0  0  0  0
  8  9  1  0  0  0  0
  8 29  1  0  0  0  0
  9 10  2  0  0  0  0
  9 30  1  0  0  0  0
 11 12  2  0  0  0  0
 11 13  1  0  0  0  0
 13 18  1  0  0  0  0
 13 14  1  0  0  0  0
 14 15  1  0  0  0  0
 14 31  1  0  0  0  0
 14 32  1  0  0  0  0
 15 16  1  0  0  0  0
 15 33  1  0  0  0  0
 15 34  1  0  0  0  0
 16 17  1  0  0  0  0
 16 35  1  0  0  0  0
 16 36  1  0  0  0  0
 17 18  1  0  0  0  0
 17 37  1  0  0  0  0
 17 38  1  0  0  0  0
 18 39  1  0  0  0  0
 18 40  1  0  0  0  0
M  CHG  1   3   1
M  END
> <s_m_source_file>
AV-unprocessed.smi

> <i_m_source_file_index>
3321

> <i_lp_mmshare_version>
43012

> <i_f3d_flags>
0

> <s_epik_input>
W0NIMl0xW0NIMl1bQ0gyXVtDSDJdW0NIMl1OMUMoPU8pW0NASF0oW0NIM10pW05IXVtDSDJdW0NIMl1uMltjSF1bY0hdW2NIXW4y

> <s_epik_cmdline>
J2VwaWtfcHl0aG9uJywgJy1waCcsICc3LjAnLCAnLXRuJywgJzgnLCAnLW1hJywgJzIwMCcsICctbWV0YWxfYmluZGluZycsICctaW1hZScsICc8aW5maWxlLm1hZT4nLCAnLW9tYWUnLCAnPG91dGZpbGUubWFlPic=

> <r_lp_tautomer_probability>
1

> <r_epik_Ionization_Penalty>
0.202061

> <r_epik_Ionization_Penalty_Charging>
0.202058

> <r_epik_Ionization_Penalty_Neutral>
2.46932e-06

> <r_epik_State_Penalty>
0.191938

> <r_epik_Charging_Adjusted_Penalty>
0.393996

> <i_epik_Tot_Q>
1

> <i_epik_Tot_abs_Q>
1

> <r_epik_Metal_State_Penalty>
0.192188

> <b_epik_Metal_Only>
0

> <s_lp_Force_Field>
OPLS_2005

> <r_lp_Energy>
26.3396

> <b_lp_Chiralities_Consistent>
1

> <s_lp_Variant>
AV-unprocessed.smi:3321-1

> <Gold.Version>
5.8.1

> <Gold.Id.Protein>
6NUR|6NUR_protein|mol2

> <Gold.PLP.Fitness>
50.1629

> <Gold.PLP.PLP>
-42.4345

> <Gold.PLP.part.hbond>
-1.0000

> <Gold.PLP.part.metal>
0.0000

> <Gold.PLP.part.buried>
-3.0132

> <Gold.PLP.part.nonpolar>
-39.4287

> <Gold.PLP.part.repulsive>
0.1943

> <Gold.PLP.ligand.clash>
0.0000

> <Gold.PLP.ligand.torsion>
0.6789

> <Gold.PLP.Chemscore.Hbond>
2.0000

> <Gold.PLP.Chemscore.CHOScore>
0.9775

> <Gold.PLP.Chemscore.Metal>
0.0000

> <Gold.Chemscore.Hbonds>
donor molecule, donor type, donor heavy atom, donor atom, acceptor molecule, acceptor atom, score
      L1  H     3    23       P1  8028  2.00
      L1  C     9    30       P1  7948  0.97

> <Gold.PLP.Chemscore.Internal.Correction>
0.1538

> <Gold.Rescore>
     Score         DG    S(hbond)    S(metal)    S(lipo)     H(rot)  DE(clash)    DE(int)     intcor
     15.51     -16.46       1.00        0.00     104.59       1.79       0.20       0.74       ----

> <Gold.Chemscore.Fitness>
15.5150

> <Gold.Chemscore.DG>
-16.4601

> <Gold.Chemscore.ZeroCoef>
-5.4800

> <Gold.Chemscore.Hbond>
0.9978

> <Gold.Chemscore.Metal>
0.0000

> <Gold.Chemscore.Lipo>
104.5895

> <Gold.Chemscore.Internal_Hbond>
0.0000

> <Gold.Chemscore.DEClash>
0.2045

> <Gold.Chemscore.DEInternal>
0.7407

> <Gold.Chemscore.Rot>
1.7928

> <Gold.Chemscore.Internal.Correction>
   9.000000E+99

> <Gold.Chemscore.Hbonds>
donor molecule, donor type, donor heavy atom, donor atom, acceptor molecule, acceptor atom, score
      L1  H     3    23       P1  8028  0.95

> <Gold.Chemscore.Hbond.Weighted>
-3.3326

> <Gold.Chemscore.Metal.Weighted>
-0.0000

> <Gold.Chemscore.Lipo.Weighted>
-12.2370

> <Gold.Chemscore.Internal_Hbond.Weighted>
0.0000

> <Gold.Chemscore.DEClash.Weighted>
0.2045

> <Gold.Chemscore.DEInternal.Weighted>
0.7407

> <Gold.Chemscore.Rot.Weighted>
4.5895

> <Gold.Chemscore.Internal.Correction.Weighted>
   9.000000E+99

> <Gold.Protein.RotatedTorsions>
[ 6907 6896 6895 6894 ] final    1.20 input  -60.11 | X-H torsion
[ 7974 7965 7964 7962 ] final  104.90 input  175.53 | X-H torsion
[ 8008 7997 7996 7995 ] final    1.00 input   59.86 | X-H torsion
[ 10167 10162 10161 10158 ] final   50.49 input  -65.29 | X-H torsion
[ 10718 10713 10712 10709 ] final  -75.52 input   66.30 | X-H torsion
[ 10763 10752 10751 10750 ] final  -84.59 input  -60.55 | X-H torsion
[ 11005 11000 10999 10996 ] final   76.84 input  -57.11 | X-H torsion

> <Gold.Protein.ActiveResidues>
 VAL166  LYS551  ARG553  GLY616  TRP617  ASP618  TYR619  PRO620  LYS621  CYS622 
 ASP623  PHE694  ASN695  SER759  ASP760  ASP761  ALA762  ILE779  LEU786  VAL792 
 PHE793  MET794  SER795  GLU796  ALA797  LYS798  CYS799  TRP800  GLU811  SER814 

> <Gold.Protein.RotatedAtoms>
  151.5887  135.1054  160.0033 H   0  0  0  0  0  0  0  0  0  0  0  0  # atno 6907 bound_to 6896
  152.4317  133.7285  159.6585 H   0  0  0  0  0  0  0  0  0  0  0  0  # atno 6908 bound_to 6896
  150.8210  133.8182  159.3161 H   0  0  0  0  0  0  0  0  0  0  0  0  # atno 6909 bound_to 6896
  145.3267  139.2498  143.3683 H   0  0  0  0  0  0  0  0  0  0  0  0  # atno 7974 bound_to 7965
  154.6746  140.2619  155.6971 H   0  0  0  0  0  0  0  0  0  0  0  0  # atno 8008 bound_to 7997
  156.2672  140.2822  156.1190 H   0  0  0  0  0  0  0  0  0  0  0  0  # atno 8009 bound_to 7997
  155.1119  140.0376  157.2716 H   0  0  0  0  0  0  0  0  0  0  0  0  # atno 8010 bound_to 7997
  140.2719  144.3256  150.6288 H   0  0  0  0  0  0  0  0  0  0  0  0  # atno 10167 bound_to 10162
  156.0205  130.4443  150.3055 H   0  0  0  0  0  0  0  0  0  0  0  0  # atno 10718 bound_to 10713
  154.6012  135.5515  153.7377 H   0  0  0  0  0  0  0  0  0  0  0  0  # atno 10763 bound_to 10752
  153.0155  135.6367  154.1711 H   0  0  0  0  0  0  0  0  0  0  0  0  # atno 10764 bound_to 10752
  154.1651  135.2895  155.3077 H   0  0  0  0  0  0  0  0  0  0  0  0  # atno 10765 bound_to 10752
  139.9280  134.7634  156.1446 H   0  0  0  0  0  0  0  0  0  0  0  0  # atno 11005 bound_to 11000
  146.3061  140.3835  142.8686 LP  0  0  0  0  0  0  0  0  0  0  0  0  # atno 17320 bound_to 7965
  144.8897  140.7507  143.5935 LP  0  0  0  0  0  0  0  0  0  0  0  0  # atno 17321 bound_to 7965
  140.5883  143.2169  151.7301 LP  0  0  0  0  0  0  0  0  0  0  0  0  # atno 17342 bound_to 10162
  139.4986  144.3978  152.0213 LP  0  0  0  0  0  0  0  0  0  0  0  0  # atno 17343 bound_to 10162
  157.1158  131.0233  151.3030 LP  0  0  0  0  0  0  0  0  0  0  0  0  # atno 17370 bound_to 10713
  157.4668  130.7685  149.7286 LP  0  0  0  0  0  0  0  0  0  0  0  0  # atno 17371 bound_to 10713
  141.0851  133.6737  156.2420 LP  0  0  0  0  0  0  0  0  0  0  0  0  # atno 17394 bound_to 11000
  140.6280  134.5293  157.5556 LP  0  0  0  0  0  0  0  0  0  0  0  0  # atno 17395 bound_to 11000

$$$$
