AV-unprocessed.smi:1103|AV-procd|sdf|4774|dock10
  -GOLD-   22720 3313D 1   1.00000     0.00000
 Structure written by MMmdl.
 44 45  0  0  0  0  0  0  0  0  2 V2000
  145.3202  144.1186  155.5239 C   0  0  0  0  0  0  0  0  0  0  0  0
  146.2995  143.2896  156.3678 C   0  0  0  0  0  0  0  0  0  0  0  0
  147.4085  142.7152  155.5641 N   0  3  2  0  0  0  0  0  0  0  0  0
  146.9075  141.9064  154.4238 C   0  0  0  0  0  0  0  0  0  0  0  0
  148.0640  141.4423  153.5263 C   0  0  0  0  0  0  0  0  0  0  0  0
  149.0987  140.6511  154.3352 C   0  0  0  0  0  0  0  0  0  0  0  0
  149.5976  141.4801  155.5316 C   0  0  2  0  0  0  0  0  0  0  0  0
  150.6373  140.6829  156.3491 C   0  0  0  0  0  0  0  0  0  0  0  0
  151.5274  141.5584  157.1051 N   0  0  0  0  0  0  0  0  0  0  0  0
  151.2174  142.1785  158.2544 C   0  0  0  0  0  0  0  0  0  0  0  0
  150.1513  142.0199  158.8486 O   0  0  0  0  0  0  0  0  0  0  0  0
  152.2501  143.1691  158.7895 C   0  0  0  0  0  0  0  0  0  0  0  0
  152.5934  142.8439  160.1618 N   0  0  0  0  0  0  0  0  0  0  0  0
  152.5310  143.6555  161.2745 C   0  0  0  0  0  0  0  0  0  0  0  0
  152.9783  142.9272  162.3401 C   0  0  0  0  0  0  0  0  0  0  0  0
  153.1181  143.3533  163.7725 C   0  0  0  0  0  0  0  0  0  0  0  0
  153.2912  141.6614  161.7685 C   0  0  0  0  0  0  0  0  0  0  0  0
  153.0667  141.6159  160.4658 N   0  0  0  0  0  0  0  0  0  0  0  0
  148.3952  141.9579  156.3803 C   0  0  0  0  0  0  0  0  0  0  0  0
  144.4654  144.4295  156.1247 H   0  0  0  0  0  0  0  0  0  0  0  0
  144.9382  143.5439  154.6797 H   0  0  0  0  0  0  0  0  0  0  0  0
  145.7824  145.0244  155.1350 H   0  0  0  0  0  0  0  0  0  0  0  0
  146.7015  143.8873  157.1869 H   0  0  0  0  0  0  0  0  0  0  0  0
  145.7343  142.4774  156.8273 H   0  0  0  0  0  0  0  0  0  0  0  0
  146.3536  141.0456  154.8022 H   0  0  0  0  0  0  0  0  0  0  0  0
  146.2096  142.4967  153.8287 H   0  0  0  0  0  0  0  0  0  0  0  0
  147.6797  140.8273  152.7119 H   0  0  0  0  0  0  0  0  0  0  0  0
  148.5407  142.3074  153.0633 H   0  0  0  0  0  0  0  0  0  0  0  0
  148.6530  139.7196  154.6875 H   0  0  0  0  0  0  0  0  0  0  0  0
  149.9347  140.3727  153.6922 H   0  0  0  0  0  0  0  0  0  0  0  0
  150.0983  142.3658  155.1365 H   0  0  0  0  0  0  0  0  0  0  0  0
  150.1380  139.9679  157.0053 H   0  0  0  0  0  0  0  0  0  0  0  0
  151.2578  140.0913  155.6754 H   0  0  0  0  0  0  0  0  0  0  0  0
  152.4303  141.7526  156.6957 H   0  0  0  0  0  0  0  0  0  0  0  0
  153.1542  143.1314  158.1804 H   0  0  0  0  0  0  0  0  0  0  0  0
  151.8684  144.1903  158.7392 H   0  0  0  0  0  0  0  0  0  0  0  0
  152.1834  144.6765  161.2142 H   0  0  0  0  0  0  0  0  0  0  0  0
  153.5843  142.5792  164.3822 H   0  0  0  0  0  0  0  0  0  0  0  0
  152.1503  143.5778  164.2213 H   0  0  0  0  0  0  0  0  0  0  0  0
  153.7328  144.2488  163.8659 H   0  0  0  0  0  0  0  0  0  0  0  0
  153.6796  140.7808  162.2585 H   0  0  0  0  0  0  0  0  0  0  0  0
  148.7550  142.5987  157.1833 H   0  0  0  0  0  0  0  0  0  0  0  0
  147.9038  141.1053  156.8521 H   0  0  0  0  0  0  0  0  0  0  0  0
  147.9023  143.4975  155.1587 H   0  0  0  0  0  0  0  0  0  0  0  0
  1  2  1  0  0  0  0
  1 20  1  0  0  0  0
  1 21  1  0  0  0  0
  1 22  1  0  0  0  0
  2  3  1  0  0  0  0
  2 23  1  0  0  0  0
  2 24  1  0  0  0  0
  3 19  1  0  0  0  0
  3  4  1  0  0  0  0
  3 44  1  0  0  0  0
  4  5  1  0  0  0  0
  4 25  1  0  0  0  0
  4 26  1  0  0  0  0
  5  6  1  0  0  0  0
  5 27  1  0  0  0  0
  5 28  1  0  0  0  0
  6  7  1  0  0  0  0
  6 29  1  0  0  0  0
  6 30  1  0  0  0  0
  7  8  1  0  0  0  0
  7 19  1  0  0  0  0
  7 31  1  0  0  0  0
  8  9  1  0  0  0  0
  8 32  1  0  0  0  0
  8 33  1  0  0  0  0
  9 10  1  0  0  0  0
  9 34  1  0  0  0  0
 10 11  2  0  0  0  0
 10 12  1  0  0  0  0
 12 13  1  0  0  0  0
 12 35  1  0  0  0  0
 12 36  1  0  0  0  0
 13 18  1  0  0  0  0
 13 14  1  0  0  0  0
 14 15  2  0  0  0  0
 14 37  1  0  0  0  0
 15 16  1  0  0  0  0
 15 17  1  0  0  0  0
 16 38  1  0  0  0  0
 16 39  1  0  0  0  0
 16 40  1  0  0  0  0
 17 18  2  0  0  0  0
 17 41  1  0  0  0  0
 19 42  1  0  0  0  0
 19 43  1  0  0  0  0
M  CHG  1   3   1
M  END
> <s_m_source_file>
AV-unprocessed.smi

> <i_m_source_file_index>
1103

> <i_lp_mmshare_version>
43012

> <i_f3d_flags>
0

> <s_epik_input>
W0NIM11bQ0gyXU4xW0NIMl1bQ0gyXVtDSDJdW0NASF0oW0NIMl0xKVtDSDJdW05IXUMoPU8pW0NIMl1uMltjSF1jKFtDSDNdKVtjSF1uMg==

> <s_epik_cmdline>
J2VwaWtfcHl0aG9uJywgJy1waCcsICc3LjAnLCAnLXRuJywgJzgnLCAnLW1hJywgJzIwMCcsICctbWV0YWxfYmluZGluZycsICctaW1hZScsICc8aW5maWxlLm1hZT4nLCAnLW9tYWUnLCAnPG91dGZpbGUubWFlPic=

> <r_lp_tautomer_probability>
1

> <r_epik_Ionization_Penalty>
0.000672456

> <r_epik_Ionization_Penalty_Charging>
0.000647327

> <r_epik_Ionization_Penalty_Neutral>
2.51297e-05

> <r_epik_State_Penalty>
0.000409793

> <r_epik_Charging_Adjusted_Penalty>
0.00105712

> <i_epik_Tot_Q>
1

> <i_epik_Tot_abs_Q>
1

> <r_epik_Metal_State_Penalty>
-0

> <b_epik_Metal_Only>
0

> <s_lp_Force_Field>
OPLS_2005

> <r_lp_Energy>
16.1771

> <b_lp_Chiralities_Consistent>
1

> <s_lp_Variant>
AV-unprocessed.smi:1103-4

> <Gold.Version>
5.8.1

> <Gold.Id.Protein>
6NUR|6NUR_protein|mol2

> <Gold.PLP.Fitness>
47.2699

> <Gold.PLP.PLP>
-42.0427

> <Gold.PLP.part.hbond>
-1.7948

> <Gold.PLP.part.metal>
0.0000

> <Gold.PLP.part.buried>
-4.1910

> <Gold.PLP.part.nonpolar>
-35.3380

> <Gold.PLP.part.repulsive>
0.1518

> <Gold.PLP.ligand.clash>
0.0000

> <Gold.PLP.ligand.torsion>
0.4026

> <Gold.PLP.Chemscore.Hbond>
2.0000

> <Gold.PLP.Chemscore.CHOScore>
0.0000

> <Gold.PLP.Chemscore.Metal>
0.0000

> <Gold.Chemscore.Hbonds>
donor molecule, donor type, donor heavy atom, donor atom, acceptor molecule, acceptor atom, score
      L1  H     3    44       P1  8028  1.57

> <Gold.PLP.Chemscore.Internal.Correction>
0.0324

> <Gold.Rescore>
     Score         DG    S(hbond)    S(metal)    S(lipo)     H(rot)  DE(clash)    DE(int)     intcor
     12.78     -14.85       0.38        0.00     106.09       1.68       1.52       0.55       ----

> <Gold.Chemscore.Fitness>
12.7818

> <Gold.Chemscore.DG>
-14.8463

> <Gold.Chemscore.ZeroCoef>
-5.4800

> <Gold.Chemscore.Hbond>
0.3773

> <Gold.Chemscore.Metal>
0.0000

> <Gold.Chemscore.Lipo>
106.0898

> <Gold.Chemscore.Internal_Hbond>
0.0000

> <Gold.Chemscore.DEClash>
1.5162

> <Gold.Chemscore.DEInternal>
0.5483

> <Gold.Chemscore.Rot>
1.6823

> <Gold.Chemscore.Internal.Correction>
   9.000000E+99

> <Gold.Chemscore.Hbonds>
donor molecule, donor type, donor heavy atom, donor atom, acceptor molecule, acceptor atom, score
      L1  H     3    44       P1  8028  0.38

> <Gold.Chemscore.Hbond.Weighted>
-1.2603

> <Gold.Chemscore.Metal.Weighted>
-0.0000

> <Gold.Chemscore.Lipo.Weighted>
-12.4125

> <Gold.Chemscore.Internal_Hbond.Weighted>
0.0000

> <Gold.Chemscore.DEClash.Weighted>
1.5162

> <Gold.Chemscore.DEInternal.Weighted>
0.5483

> <Gold.Chemscore.Rot.Weighted>
4.3066

> <Gold.Chemscore.Internal.Correction.Weighted>
   9.000000E+99

> <Gold.Protein.RotatedTorsions>
[ 6907 6896 6895 6894 ] final -155.84 input  -60.11 | X-H torsion
[ 7974 7965 7964 7962 ] final   67.88 input  175.53 | X-H torsion
[ 8008 7997 7996 7995 ] final -154.43 input   59.86 | X-H torsion
[ 10167 10162 10161 10158 ] final -172.86 input  -65.29 | X-H torsion
[ 10718 10713 10712 10709 ] final  -25.31 input   66.30 | X-H torsion
[ 10763 10752 10751 10750 ] final   69.01 input  -60.55 | X-H torsion
[ 11005 11000 10999 10996 ] final   19.08 input  -57.11 | X-H torsion

> <Gold.Protein.ActiveResidues>
 VAL166  LYS551  ARG553  GLY616  TRP617  ASP618  TYR619  PRO620  LYS621  CYS622 
 ASP623  PHE694  ASN695  SER759  ASP760  ASP761  ALA762  ILE779  LEU786  VAL792 
 PHE793  MET794  SER795  GLU796  ALA797  LYS798  CYS799  TRP800  GLU811  SER814 

> <Gold.Protein.RotatedAtoms>
  151.2786  133.4220  159.2625 H   0  0  0  0  0  0  0  0  0  0  0  0  # atno 6907 bound_to 6896
  151.0381  134.9588  159.8157 H   0  0  0  0  0  0  0  0  0  0  0  0  # atno 6908 bound_to 6896
  152.5359  134.2745  159.9036 H   0  0  0  0  0  0  0  0  0  0  0  0  # atno 6909 bound_to 6896
  145.8094  139.3024  143.1108 H   0  0  0  0  0  0  0  0  0  0  0  0  # atno 7974 bound_to 7965
  155.6863  140.0750  157.2465 H   0  0  0  0  0  0  0  0  0  0  0  0  # atno 8008 bound_to 7997
  154.4096  140.1672  156.2090 H   0  0  0  0  0  0  0  0  0  0  0  0  # atno 8009 bound_to 7997
  155.9491  140.3378  155.6395 H   0  0  0  0  0  0  0  0  0  0  0  0  # atno 8010 bound_to 7997
  139.5721  144.1618  152.1398 H   0  0  0  0  0  0  0  0  0  0  0  0  # atno 10167 bound_to 10162
  156.4660  130.4514  149.6898 H   0  0  0  0  0  0  0  0  0  0  0  0  # atno 10718 bound_to 10713
  153.0264  135.5226  154.7222 H   0  0  0  0  0  0  0  0  0  0  0  0  # atno 10763 bound_to 10752
  154.6274  135.2896  155.0258 H   0  0  0  0  0  0  0  0  0  0  0  0  # atno 10764 bound_to 10752
  154.1223  135.6606  153.4958 H   0  0  0  0  0  0  0  0  0  0  0  0  # atno 10765 bound_to 10752
  140.4177  134.1552  155.7671 H   0  0  0  0  0  0  0  0  0  0  0  0  # atno 11005 bound_to 11000
  145.9794  140.8695  143.0122 LP  0  0  0  0  0  0  0  0  0  0  0  0  # atno 17320 bound_to 7965
  144.6759  140.2058  143.7382 LP  0  0  0  0  0  0  0  0  0  0  0  0  # atno 17321 bound_to 7965
  140.1153  144.5421  150.6898 LP  0  0  0  0  0  0  0  0  0  0  0  0  # atno 17342 bound_to 10162
  140.7005  143.2431  151.4878 LP  0  0  0  0  0  0  0  0  0  0  0  0  # atno 17343 bound_to 10162
  156.3667  130.7509  151.2488 LP  0  0  0  0  0  0  0  0  0  0  0  0  # atno 17370 bound_to 10713
  157.7494  131.0335  150.4273 LP  0  0  0  0  0  0  0  0  0  0  0  0  # atno 17371 bound_to 10713
  141.1796  133.8441  157.1302 LP  0  0  0  0  0  0  0  0  0  0  0  0  # atno 17394 bound_to 11000
  140.0222  134.9940  157.0615 LP  0  0  0  0  0  0  0  0  0  0  0  0  # atno 17395 bound_to 11000

$$$$
