AV-unprocessed.smi:2356|AV-procd|sdf|9396|dock3
  -GOLD-   2272013 23D 1   1.00000     0.00000
 Structure written by MMmdl.
 53 56  0  0  0  0  0  0  0  0  1 V2000
  151.7544  138.9318  154.7655 C   0  0  0  0  0  0  0  0  0  0  0  0
  150.8856  139.8912  155.5610 C   0  0  0  0  0  0  0  0  0  0  0  0
  151.5563  140.7978  156.3042 N   0  0  0  0  0  0  0  0  0  0  0  0
  150.8595  141.6949  157.0399 C   0  0  0  0  0  0  0  0  0  0  0  0
  151.5987  142.6245  157.7975 N   0  0  0  0  0  0  0  0  0  0  0  0
  151.8657  142.4186  159.2127 C   0  0  0  0  0  0  0  0  0  0  0  0
  152.5549  143.7040  159.6668 C   0  0  0  0  0  0  0  0  0  0  0  0
  151.9131  144.7720  158.7812 C   0  0  0  0  0  0  0  0  0  0  0  0
  151.6208  144.0425  157.4648 C   0  0  0  0  0  0  0  0  0  0  0  0
  149.4459  141.7162  157.0382 C   0  0  0  0  0  0  0  0  0  0  0  0
  148.7457  140.7719  156.2643 C   0  0  0  0  0  0  0  0  0  0  0  0
  149.4734  139.8224  155.5087 C   0  0  0  0  0  0  0  0  0  0  0  0
  148.8754  138.8293  154.6831 N   0  0  0  0  0  0  0  0  0  0  0  0
  147.6296  138.3164  154.7048 C   0  0  0  0  0  0  0  0  0  0  0  0
  146.7476  138.6359  155.4980 O   0  0  0  0  0  0  0  0  0  0  0  0
  147.4085  137.3860  153.7577 N   0  0  0  0  0  0  0  0  0  0  0  0
  146.1790  136.6323  153.4988 C   0  0  1  0  0  0  0  0  0  0  0  0
  145.5485  136.1928  154.8270 C   0  0  0  0  0  0  0  0  0  0  0  0
  144.2045  135.4893  154.5822 C   0  0  0  0  0  0  0  0  0  0  0  0
  143.3229  136.3383  153.8504 O   0  0  0  0  0  0  0  0  0  0  0  0
  143.8033  136.7635  152.5737 C   0  0  2  0  0  0  0  0  0  0  0  0
  143.8316  135.6208  151.5671 C   0  0  0  0  0  0  0  0  0  0  0  0
  144.9036  134.5581  151.6338 C   0  0  0  0  0  0  0  0  0  0  0  0
  144.9042  135.5618  150.5054 C   0  0  0  0  0  0  0  0  0  0  0  0
  145.1585  137.4825  152.7192 C   0  0  0  0  0  0  0  0  0  0  0  0
  151.5531  139.0374  153.6993 H   0  0  0  0  0  0  0  0  0  0  0  0
  151.5477  137.9013  155.0546 H   0  0  0  0  0  0  0  0  0  0  0  0
  152.8162  139.1213  154.9280 H   0  0  0  0  0  0  0  0  0  0  0  0
  150.9234  142.2785  159.7443 H   0  0  0  0  0  0  0  0  0  0  0  0
  152.4927  141.5427  159.3821 H   0  0  0  0  0  0  0  0  0  0  0  0
  152.4302  143.8992  160.7322 H   0  0  0  0  0  0  0  0  0  0  0  0
  153.6238  143.6442  159.4566 H   0  0  0  0  0  0  0  0  0  0  0  0
  150.9755  145.1008  159.2313 H   0  0  0  0  0  0  0  0  0  0  0  0
  152.5453  145.6500  158.6466 H   0  0  0  0  0  0  0  0  0  0  0  0
  152.4147  144.2215  156.7390 H   0  0  0  0  0  0  0  0  0  0  0  0
  150.6779  144.3812  157.0339 H   0  0  0  0  0  0  0  0  0  0  0  0
  148.8906  142.4458  157.6084 H   0  0  0  0  0  0  0  0  0  0  0  0
  147.6684  140.8112  156.2623 H   0  0  0  0  0  0  0  0  0  0  0  0
  149.4925  138.4263  153.9933 H   0  0  0  0  0  0  0  0  0  0  0  0
  148.1770  137.1956  153.1309 H   0  0  0  0  0  0  0  0  0  0  0  0
  146.4218  135.7332  152.9302 H   0  0  0  0  0  0  0  0  0  0  0  0
  146.2238  135.5273  155.3660 H   0  0  0  0  0  0  0  0  0  0  0  0
  145.3876  137.0609  155.4681 H   0  0  0  0  0  0  0  0  0  0  0  0
  144.3493  134.5433  154.0601 H   0  0  0  0  0  0  0  0  0  0  0  0
  143.7352  135.2457  155.5355 H   0  0  0  0  0  0  0  0  0  0  0  0
  143.0808  137.4942  152.2084 H   0  0  0  0  0  0  0  0  0  0  0  0
  142.8503  135.2670  151.2591 H   0  0  0  0  0  0  0  0  0  0  0  0
  145.6709  134.6591  152.3988 H   0  0  0  0  0  0  0  0  0  0  0  0
  144.6142  133.5364  151.3963 H   0  0  0  0  0  0  0  0  0  0  0  0
  144.6126  135.2105  149.5178 H   0  0  0  0  0  0  0  0  0  0  0  0
  145.6734  136.3316  150.5185 H   0  0  0  0  0  0  0  0  0  0  0  0
  144.9995  138.4231  153.2485 H   0  0  0  0  0  0  0  0  0  0  0  0
  145.5430  137.7500  151.7343 H   0  0  0  0  0  0  0  0  0  0  0  0
  1  2  1  0  0  0  0
  1 26  1  0  0  0  0
  1 27  1  0  0  0  0
  1 28  1  0  0  0  0
  2 12  1  0  0  0  0
  2  3  2  0  0  0  0
  3  4  1  0  0  0  0
  4  5  1  0  0  0  0
  4 10  2  0  0  0  0
  5  9  1  0  0  0  0
  5  6  1  0  0  0  0
  6  7  1  0  0  0  0
  6 29  1  0  0  0  0
  6 30  1  0  0  0  0
  7  8  1  0  0  0  0
  7 31  1  0  0  0  0
  7 32  1  0  0  0  0
  8  9  1  0  0  0  0
  8 33  1  0  0  0  0
  8 34  1  0  0  0  0
  9 35  1  0  0  0  0
  9 36  1  0  0  0  0
 10 11  1  0  0  0  0
 10 37  1  0  0  0  0
 11 12  2  0  0  0  0
 11 38  1  0  0  0  0
 12 13  1  0  0  0  0
 13 14  1  0  0  0  0
 13 39  1  0  0  0  0
 14 15  2  0  0  0  0
 14 16  1  0  0  0  0
 16 17  1  0  0  0  0
 16 40  1  0  0  0  0
 17 25  1  0  0  0  0
 17 18  1  0  0  0  0
 17 41  1  0  0  0  0
 18 19  1  0  0  0  0
 18 42  1  0  0  0  0
 18 43  1  0  0  0  0
 19 20  1  0  0  0  0
 19 44  1  0  0  0  0
 19 45  1  0  0  0  0
 20 21  1  0  0  0  0
 21 22  1  0  0  0  0
 21 25  1  0  0  0  0
 21 46  1  0  0  0  0
 22 24  1  0  0  0  0
 22 23  1  0  0  0  0
 22 47  1  0  0  0  0
 23 24  1  0  0  0  0
 23 48  1  0  0  0  0
 23 49  1  0  0  0  0
 24 50  1  0  0  0  0
 24 51  1  0  0  0  0
 25 52  1  0  0  0  0
 25 53  1  0  0  0  0
M  END
> <s_m_source_file>
AV-unprocessed.smi

> <i_m_source_file_index>
2356

> <i_lp_mmshare_version>
43012

> <i_f3d_flags>
0

> <s_epik_input>
W0NIMl0xW0NIMl1bQ0gyXVtDSDJdTjFjKG5jMltDSDNdKVtjSF1bY0hdYzJbTkhdQyg9TylbTkhdW0NAQEhdM1tDSDJdW0NIMl1PW0NASF0oW0NIMl0zKVtDSF00W0NIMl1bQ0gyXTQ=

> <s_epik_cmdline>
J2VwaWtfcHl0aG9uJywgJy1waCcsICc3LjAnLCAnLXRuJywgJzgnLCAnLW1hJywgJzIwMCcsICctbWV0YWxfYmluZGluZycsICctaW1hZScsICc8aW5maWxlLm1hZT4nLCAnLW9tYWUnLCAnPG91dGZpbGUubWFlPic=

> <r_lp_tautomer_probability>
1

> <r_epik_Ionization_Penalty>
0.308781

> <r_epik_Ionization_Penalty_Charging>
0

> <r_epik_Ionization_Penalty_Neutral>
0.308781

> <r_epik_State_Penalty>
0.302092

> <r_epik_Charging_Adjusted_Penalty>
0.302092

> <i_epik_Tot_Q>
0

> <i_epik_Tot_abs_Q>
0

> <r_epik_Metal_State_Penalty>
0.197467

> <b_epik_Metal_Only>
0

> <s_lp_Force_Field>
OPLS_2005

> <r_lp_Energy>
54.1465

> <b_lp_Chiralities_Consistent>
1

> <s_lp_Variant>
AV-unprocessed.smi:2356-4

> <Gold.Version>
5.8.1

> <Gold.Id.Protein>
6NUR|6NUR_protein|mol2

> <Gold.PLP.Fitness>
41.4642

> <Gold.PLP.PLP>
-41.8180

> <Gold.PLP.part.hbond>
-1.0000

> <Gold.PLP.part.metal>
0.0000

> <Gold.PLP.part.buried>
-4.3961

> <Gold.PLP.part.nonpolar>
-36.7493

> <Gold.PLP.part.repulsive>
0.1052

> <Gold.PLP.ligand.clash>
0.0000

> <Gold.PLP.ligand.torsion>
2.3130

> <Gold.PLP.Chemscore.Hbond>
1.0000

> <Gold.PLP.Chemscore.CHOScore>
0.0000

> <Gold.PLP.Chemscore.Metal>
0.0000

> <Gold.Chemscore.Hbonds>
donor molecule, donor type, donor heavy atom, donor atom, acceptor molecule, acceptor atom, score
      L1  H    16    40       P1  7948  1.00

> <Gold.PLP.Chemscore.Internal.Correction>
1.2722

> <Gold.Rescore>
     Score         DG    S(hbond)    S(metal)    S(lipo)     H(rot)  DE(clash)    DE(int)     intcor
     14.00     -18.44       0.98        0.00     107.62       1.14       0.13       4.32       ----

> <Gold.Chemscore.Fitness>
13.9994

> <Gold.Chemscore.DG>
-18.4441

> <Gold.Chemscore.ZeroCoef>
-5.4800

> <Gold.Chemscore.Hbond>
0.9848

> <Gold.Chemscore.Metal>
0.0000

> <Gold.Chemscore.Lipo>
107.6246

> <Gold.Chemscore.Internal_Hbond>
0.0000

> <Gold.Chemscore.DEClash>
0.1251

> <Gold.Chemscore.DEInternal>
4.3197

> <Gold.Chemscore.Rot>
1.1395

> <Gold.Chemscore.Internal.Correction>
   9.000000E+99

> <Gold.Chemscore.Hbonds>
donor molecule, donor type, donor heavy atom, donor atom, acceptor molecule, acceptor atom, score
      L1  H    16    40       P1  7948  0.96

> <Gold.Chemscore.Hbond.Weighted>
-3.2891

> <Gold.Chemscore.Metal.Weighted>
-0.0000

> <Gold.Chemscore.Lipo.Weighted>
-12.5921

> <Gold.Chemscore.Internal_Hbond.Weighted>
0.0000

> <Gold.Chemscore.DEClash.Weighted>
0.1251

> <Gold.Chemscore.DEInternal.Weighted>
4.3197

> <Gold.Chemscore.Rot.Weighted>
2.9171

> <Gold.Chemscore.Internal.Correction.Weighted>
   9.000000E+99

> <Gold.Protein.RotatedTorsions>
[ 6907 6896 6895 6894 ] final  -98.65 input  -60.11 | X-H torsion
[ 7974 7965 7964 7962 ] final -121.56 input  175.53 | X-H torsion
[ 8008 7997 7996 7995 ] final  155.56 input   59.86 | X-H torsion
[ 10167 10162 10161 10158 ] final   32.70 input  -65.29 | X-H torsion
[ 10718 10713 10712 10709 ] final  -89.47 input   66.30 | X-H torsion
[ 10763 10752 10751 10750 ] final   47.76 input  -60.55 | X-H torsion
[ 11005 11000 10999 10996 ] final   86.78 input  -57.11 | X-H torsion

> <Gold.Protein.ActiveResidues>
 VAL166  LYS551  ARG553  GLY616  TRP617  ASP618  TYR619  PRO620  LYS621  CYS622 
 ASP623  PHE694  ASN695  SER759  ASP760  ASP761  ALA762  ILE779  LEU786  VAL792 
 PHE793  MET794  SER795  GLU796  ALA797  LYS798  CYS799  TRP800  GLU811  SER814 

> <Gold.Protein.RotatedAtoms>
  150.7053  134.1162  159.4017 H   0  0  0  0  0  0  0  0  0  0  0  0  # atno 6907 bound_to 6896
  151.9149  135.0321  160.0527 H   0  0  0  0  0  0  0  0  0  0  0  0  # atno 6908 bound_to 6896
  152.2305  133.5019  159.5250 H   0  0  0  0  0  0  0  0  0  0  0  0  # atno 6909 bound_to 6896
  145.0390  140.8129  143.4278 H   0  0  0  0  0  0  0  0  0  0  0  0  # atno 7974 bound_to 7965
  156.2471  140.1936  156.6821 H   0  0  0  0  0  0  0  0  0  0  0  0  # atno 8008 bound_to 7997
  154.6314  140.0595  156.9763 H   0  0  0  0  0  0  0  0  0  0  0  0  # atno 8009 bound_to 7997
  155.1704  140.3267  155.4396 H   0  0  0  0  0  0  0  0  0  0  0  0  # atno 8010 bound_to 7997
  140.4475  144.1098  150.6185 H   0  0  0  0  0  0  0  0  0  0  0  0  # atno 10167 bound_to 10162
  155.9984  130.4874  150.5177 H   0  0  0  0  0  0  0  0  0  0  0  0  # atno 10718 bound_to 10713
  152.9797  135.5966  154.3815 H   0  0  0  0  0  0  0  0  0  0  0  0  # atno 10763 bound_to 10752
  154.3479  135.2767  155.2390 H   0  0  0  0  0  0  0  0  0  0  0  0  # atno 10764 bound_to 10752
  154.4442  135.6005  153.6204 H   0  0  0  0  0  0  0  0  0  0  0  0  # atno 10765 bound_to 10752
  139.8936  134.8378  156.2768 H   0  0  0  0  0  0  0  0  0  0  0  0  # atno 11005 bound_to 11000
  145.1672  139.2424  143.5360 LP  0  0  0  0  0  0  0  0  0  0  0  0  # atno 17320 bound_to 7965
  146.3507  140.1414  142.8594 LP  0  0  0  0  0  0  0  0  0  0  0  0  # atno 17321 bound_to 7965
  140.4247  143.2595  151.9671 LP  0  0  0  0  0  0  0  0  0  0  0  0  # atno 17342 bound_to 10162
  139.4794  144.5799  151.7950 LP  0  0  0  0  0  0  0  0  0  0  0  0  # atno 17343 bound_to 10162
  157.3142  131.0669  151.1979 LP  0  0  0  0  0  0  0  0  0  0  0  0  # atno 17370 bound_to 10713
  157.2914  130.6798  149.6116 LP  0  0  0  0  0  0  0  0  0  0  0  0  # atno 17371 bound_to 10713
  141.0064  133.7121  156.1042 LP  0  0  0  0  0  0  0  0  0  0  0  0  # atno 17394 bound_to 11000
  140.7427  134.4132  157.5552 LP  0  0  0  0  0  0  0  0  0  0  0  0  # atno 17395 bound_to 11000

$$$$
