AV-unprocessed.smi:1965|AV-procd|sdf|7935|dock2
  -GOLD-   2272010103D 1   1.00000     0.00000
 Structure written by MMmdl.
 37 39  0  0  0  0  0  0  0  0  2 V2000
  145.3244  138.1084  153.1860 O   0  0  0  0  0  0  0  0  0  0  0  0
  146.3400  137.5803  152.7371 C   0  0  0  0  0  0  0  0  0  0  0  0
  147.5439  138.1818  152.8397 N   0  0  0  0  0  0  0  0  0  0  0  0
  147.9248  139.4282  153.4165 C   0  0  0  0  0  0  0  0  0  0  0  0
  149.0339  139.6363  154.1384 N   0  0  0  0  0  0  0  0  0  0  0  0
  149.1278  140.9539  154.5936 C   0  0  0  0  0  0  0  0  0  0  0  0
  148.0696  141.7413  154.2147 C   0  0  0  0  0  0  0  0  0  0  0  0
  146.9065  140.8536  153.2670 S   0  0  0  0  0  0  0  0  0  0  0  0
  146.3269  136.3851  152.1234 N   0  0  0  0  0  0  0  0  0  0  0  0
  145.1548  135.5340  151.9326 C   0  0  1  0  0  0  0  0  0  0  0  0
  144.7555  135.3914  150.4509 C   0  0  0  0  0  0  0  0  0  0  0  0
  144.4019  133.9102  150.2840 C   0  0  0  0  0  0  0  0  0  0  0  0
  145.3106  133.2481  151.2266 N   0  3  2  0  0  0  0  0  0  0  0  0
  145.0967  131.8179  151.5276 C   0  0  0  0  0  0  0  0  0  0  0  0
  146.2778  131.3182  152.3875 C   0  0  0  0  0  0  0  0  0  0  0  0
  146.5115  132.2048  153.6319 C   0  0  0  0  0  0  0  0  0  0  0  0
  146.5971  133.7013  153.2620 C   0  0  0  0  0  0  0  0  0  0  0  0
  145.3553  134.0857  152.4372 C   0  0  1  0  0  0  0  0  0  0  0  0
  148.2953  137.6954  152.3723 H   0  0  0  0  0  0  0  0  0  0  0  0
  149.9831  141.2462  155.1848 H   0  0  0  0  0  0  0  0  0  0  0  0
  147.9029  142.7851  154.4370 H   0  0  0  0  0  0  0  0  0  0  0  0
  147.2087  136.0300  151.7811 H   0  0  0  0  0  0  0  0  0  0  0  0
  144.3072  135.9686  152.4664 H   0  0  0  0  0  0  0  0  0  0  0  0
  143.9324  136.0500  150.1719 H   0  0  0  0  0  0  0  0  0  0  0  0
  145.6017  135.6326  149.8054 H   0  0  0  0  0  0  0  0  0  0  0  0
  143.3671  133.7264  150.5777 H   0  0  0  0  0  0  0  0  0  0  0  0
  144.5421  133.5554  149.2625 H   0  0  0  0  0  0  0  0  0  0  0  0
  144.1490  131.6813  152.0505 H   0  0  0  0  0  0  0  0  0  0  0  0
  145.0400  131.2496  150.5987 H   0  0  0  0  0  0  0  0  0  0  0  0
  146.1083  130.2846  152.6907 H   0  0  0  0  0  0  0  0  0  0  0  0
  147.1842  131.3140  151.7802 H   0  0  0  0  0  0  0  0  0  0  0  0
  145.6925  132.0554  154.3367 H   0  0  0  0  0  0  0  0  0  0  0  0
  147.4202  131.8940  154.1484 H   0  0  0  0  0  0  0  0  0  0  0  0
  146.6559  134.3027  154.1696 H   0  0  0  0  0  0  0  0  0  0  0  0
  147.5073  133.8936  152.6920 H   0  0  0  0  0  0  0  0  0  0  0  0
  144.4717  133.8460  153.0332 H   0  0  0  0  0  0  0  0  0  0  0  0
  146.2270  133.3177  150.8077 H   0  0  0  0  0  0  0  0  0  0  0  0
  1  2  2  0  0  0  0
  2  3  1  0  0  0  0
  2  9  1  0  0  0  0
  3  4  1  0  0  0  0
  3 19  1  0  0  0  0
  4  8  1  0  0  0  0
  4  5  2  0  0  0  0
  5  6  1  0  0  0  0
  6  7  2  0  0  0  0
  6 20  1  0  0  0  0
  7  8  1  0  0  0  0
  7 21  1  0  0  0  0
  9 10  1  0  0  0  0
  9 22  1  0  0  0  0
 10 18  1  0  0  0  0
 10 11  1  0  0  0  0
 10 23  1  0  0  0  0
 11 12  1  0  0  0  0
 11 24  1  0  0  0  0
 11 25  1  0  0  0  0
 12 13  1  0  0  0  0
 12 26  1  0  0  0  0
 12 27  1  0  0  0  0
 13 18  1  0  0  0  0
 13 14  1  0  0  0  0
 13 37  1  0  0  0  0
 14 15  1  0  0  0  0
 14 28  1  0  0  0  0
 14 29  1  0  0  0  0
 15 16  1  0  0  0  0
 15 30  1  0  0  0  0
 15 31  1  0  0  0  0
 16 17  1  0  0  0  0
 16 32  1  0  0  0  0
 16 33  1  0  0  0  0
 17 18  1  0  0  0  0
 17 34  1  0  0  0  0
 17 35  1  0  0  0  0
 18 36  1  0  0  0  0
M  CHG  1  13   1
M  END
> <s_m_source_file>
AV-unprocessed.smi

> <i_m_source_file_index>
1965

> <i_lp_mmshare_version>
43012

> <i_f3d_flags>
0

> <s_epik_input>
czFbY0hdW2NIXW5jMVtOSF1DKD1PKVtOSF1bQ0BIXShbQ0gyXVtDSDJdMilbQ0BASF0oTjIzKVtDSDJdW0NIMl1bQ0gyXVtDSDJdMw==

> <s_epik_cmdline>
J2VwaWtfcHl0aG9uJywgJy1waCcsICc3LjAnLCAnLXRuJywgJzgnLCAnLW1hJywgJzIwMCcsICctbWV0YWxfYmluZGluZycsICctaW1hZScsICc8aW5maWxlLm1hZT4nLCAnLW9tYWUnLCAnPG91dGZpbGUubWFlPic=

> <r_lp_tautomer_probability>
1

> <r_epik_Ionization_Penalty>
0.00125962

> <r_epik_Ionization_Penalty_Charging>
0.00107044

> <r_epik_Ionization_Penalty_Neutral>
0.000189176

> <r_epik_State_Penalty>
-0

> <r_epik_Charging_Adjusted_Penalty>
0.00107044

> <i_epik_Tot_Q>
1

> <i_epik_Tot_abs_Q>
1

> <r_epik_Metal_State_Penalty>
0.0179285

> <b_epik_Metal_Only>
0

> <s_lp_Force_Field>
OPLS_2005

> <r_lp_Energy>
42.2865

> <b_lp_Chiralities_Consistent>
1

> <s_lp_Variant>
AV-unprocessed.smi:1965-4

> <Gold.Version>
5.8.1

> <Gold.Id.Protein>
6NUR|6NUR_protein|mol2

> <Gold.PLP.Fitness>
35.3112

> <Gold.PLP.PLP>
-27.2918

> <Gold.PLP.part.hbond>
-2.3077

> <Gold.PLP.part.metal>
0.0000

> <Gold.PLP.part.buried>
-2.8101

> <Gold.PLP.part.nonpolar>
-24.5705

> <Gold.PLP.part.repulsive>
1.5674

> <Gold.PLP.ligand.clash>
0.0000

> <Gold.PLP.ligand.torsion>
0.3466

> <Gold.PLP.Chemscore.Hbond>
1.9040

> <Gold.PLP.Chemscore.CHOScore>
1.0000

> <Gold.PLP.Chemscore.Metal>
0.0000

> <Gold.Chemscore.Hbonds>
donor molecule, donor type, donor heavy atom, donor atom, acceptor molecule, acceptor atom, score
      L1  H     3    19       P1  7948  0.99
      L1  H     9    22       P1  7948  0.91
      L1  C     7    21       P1  8028  1.00

> <Gold.PLP.Chemscore.Internal.Correction>
0.0007

> <Gold.Rescore>
     Score         DG    S(hbond)    S(metal)    S(lipo)     H(rot)  DE(clash)    DE(int)     intcor
     16.33     -16.77       1.90        0.00      64.24       1.00       0.07       0.36       ----

> <Gold.Chemscore.Fitness>
16.3342

> <Gold.Chemscore.DG>
-16.7679

> <Gold.Chemscore.ZeroCoef>
-5.4800

> <Gold.Chemscore.Hbond>
1.8958

> <Gold.Chemscore.Metal>
0.0000

> <Gold.Chemscore.Lipo>
64.2389

> <Gold.Chemscore.Internal_Hbond>
0.0000

> <Gold.Chemscore.DEClash>
0.0741

> <Gold.Chemscore.DEInternal>
0.3595

> <Gold.Chemscore.Rot>
1.0000

> <Gold.Chemscore.Internal.Correction>
   9.000000E+99

> <Gold.Chemscore.Hbonds>
donor molecule, donor type, donor heavy atom, donor atom, acceptor molecule, acceptor atom, score
      L1  H     3    19       P1  7948  0.94
      L1  H     9    22       P1  7948  0.90

> <Gold.Chemscore.Hbond.Weighted>
-6.3319

> <Gold.Chemscore.Metal.Weighted>
-0.0000

> <Gold.Chemscore.Lipo.Weighted>
-7.5160

> <Gold.Chemscore.Internal_Hbond.Weighted>
0.0000

> <Gold.Chemscore.DEClash.Weighted>
0.0741

> <Gold.Chemscore.DEInternal.Weighted>
0.3595

> <Gold.Chemscore.Rot.Weighted>
2.5600

> <Gold.Chemscore.Internal.Correction.Weighted>
   9.000000E+99

> <Gold.Protein.RotatedTorsions>
[ 6907 6896 6895 6894 ] final   91.52 input  -60.11 | X-H torsion
[ 7974 7965 7964 7962 ] final   19.68 input  175.53 | X-H torsion
[ 8008 7997 7996 7995 ] final -132.95 input   59.86 | X-H torsion
[ 10167 10162 10161 10158 ] final  133.52 input  -65.29 | X-H torsion
[ 10718 10713 10712 10709 ] final   42.36 input   66.30 | X-H torsion
[ 10763 10752 10751 10750 ] final -105.95 input  -60.55 | X-H torsion
[ 11005 11000 10999 10996 ] final -171.22 input  -57.11 | X-H torsion

> <Gold.Protein.ActiveResidues>
 VAL166  LYS551  ARG553  GLY616  TRP617  ASP618  TYR619  PRO620  LYS621  CYS622 
 ASP623  PHE694  ASN695  SER759  ASP760  ASP761  ALA762  ILE779  LEU786  VAL792 
 PHE793  MET794  SER795  GLU796  ALA797  LYS798  CYS799  TRP800  GLU811  SER814 

> <Gold.Protein.RotatedAtoms>
  152.5450  134.1644  159.8570 H   0  0  0  0  0  0  0  0  0  0  0  0  # atno 6907 bound_to 6896
  151.1660  133.4807  159.2601 H   0  0  0  0  0  0  0  0  0  0  0  0  # atno 6908 bound_to 6896
  151.1324  135.0148  159.8643 H   0  0  0  0  0  0  0  0  0  0  0  0  # atno 6909 bound_to 6896
  146.2140  139.8278  142.8666 H   0  0  0  0  0  0  0  0  0  0  0  0  # atno 7974 bound_to 7965
  155.3374  140.0470  157.3044 H   0  0  0  0  0  0  0  0  0  0  0  0  # atno 8008 bound_to 7997
  154.5296  140.2252  155.8794 H   0  0  0  0  0  0  0  0  0  0  0  0  # atno 8009 bound_to 7997
  156.1774  140.3082  155.9091 H   0  0  0  0  0  0  0  0  0  0  0  0  # atno 8010 bound_to 7997
  139.5293  144.6611  151.5008 H   0  0  0  0  0  0  0  0  0  0  0  0  # atno 10167 bound_to 10162
  157.4039  130.7876  149.7372 H   0  0  0  0  0  0  0  0  0  0  0  0  # atno 10718 bound_to 10713
  154.7980  135.4730  154.0208 H   0  0  0  0  0  0  0  0  0  0  0  0  # atno 10763 bound_to 10752
  153.1735  135.6829  153.8582 H   0  0  0  0  0  0  0  0  0  0  0  0  # atno 10764 bound_to 10752
  153.8156  135.3211  155.3383 H   0  0  0  0  0  0  0  0  0  0  0  0  # atno 10765 bound_to 10752
  140.5107  134.5804  157.5018 H   0  0  0  0  0  0  0  0  0  0  0  0  # atno 11005 bound_to 11000
  145.3029  141.0199  143.3598 LP  0  0  0  0  0  0  0  0  0  0  0  0  # atno 17320 bound_to 7965
  144.8993  139.4671  143.6640 LP  0  0  0  0  0  0  0  0  0  0  0  0  # atno 17321 bound_to 7965
  140.6460  143.8793  150.6738 LP  0  0  0  0  0  0  0  0  0  0  0  0  # atno 17342 bound_to 10162
  140.2142  143.3859  152.1694 LP  0  0  0  0  0  0  0  0  0  0  0  0  # atno 17343 bound_to 10162
  155.9831  130.4003  150.3381 LP  0  0  0  0  0  0  0  0  0  0  0  0  # atno 17370 bound_to 10713
  157.1512  131.0321  151.2884 LP  0  0  0  0  0  0  0  0  0  0  0  0  # atno 17371 bound_to 10713
  139.9660  134.7371  156.0137 LP  0  0  0  0  0  0  0  0  0  0  0  0  # atno 17394 bound_to 11000
  141.1387  133.6569  156.3667 LP  0  0  0  0  0  0  0  0  0  0  0  0  # atno 17395 bound_to 11000

$$$$
