AV-unprocessed.smi:2856|AV-procd|sdf|10995|dock7
  -GOLD-   2272015453D 1   1.00000     0.00000
 Structure written by MMmdl.
 37 38  0  0  0  0  0  0  0  0  1 V2000
  144.7067  142.6652  161.3642 C   0  0  0  0  0  0  0  0  0  0  0  0
  145.1161  142.9240  159.6174 S   0  0  0  0  0  0  0  0  0  0  0  0
  144.6730  144.6789  159.4098 C   0  0  2  0  0  0  0  0  0  0  0  0
  144.5014  145.0201  157.9166 C   0  0  0  0  0  0  0  0  0  0  0  0
  144.0945  146.4886  157.7166 C   0  0  0  0  0  0  0  0  0  0  0  0
  145.0985  147.4414  158.3825 C   0  0  0  0  0  0  0  0  0  0  0  0
  145.2764  147.1088  159.8739 C   0  0  0  0  0  0  0  0  0  0  0  0
  145.6777  145.6349  160.0999 C   0  0  2  0  0  0  0  0  0  0  0  0
  147.0419  145.3896  159.6301 N   0  0  0  0  0  0  0  0  0  0  0  0
  148.0131  144.7966  160.3383 C   0  0  0  0  0  0  0  0  0  0  0  0
  147.8658  144.3964  161.4933 O   0  0  0  0  0  0  0  0  0  0  0  0
  149.1476  144.7032  159.6243 N   0  0  0  0  0  0  0  0  0  0  0  0
  150.3817  144.1369  160.0330 C   0  0  0  0  0  0  0  0  0  0  0  0
  151.3042  143.6330  159.0778 C   0  0  0  0  0  0  0  0  0  0  0  0
  152.3370  143.1858  159.8533 C   0  0  0  0  0  0  0  0  0  0  0  0
  153.6396  142.5370  159.5324 C   0  0  0  0  0  0  0  0  0  0  0  0
  152.0670  143.3976  161.1702 O   0  0  0  0  0  0  0  0  0  0  0  0
  150.8122  144.0088  161.2788 N   0  0  0  0  0  0  0  0  0  0  0  0
  144.8450  141.6167  161.6272 H   0  0  0  0  0  0  0  0  0  0  0  0
  143.6687  142.9350  161.5580 H   0  0  0  0  0  0  0  0  0  0  0  0
  145.3514  143.2640  162.0069 H   0  0  0  0  0  0  0  0  0  0  0  0
  143.7002  144.8088  159.8862 H   0  0  0  0  0  0  0  0  0  0  0  0
  145.4298  144.8225  157.3792 H   0  0  0  0  0  0  0  0  0  0  0  0
  143.7469  144.3703  157.4720 H   0  0  0  0  0  0  0  0  0  0  0  0
  144.0199  146.7120  156.6520 H   0  0  0  0  0  0  0  0  0  0  0  0
  143.1017  146.6527  158.1372 H   0  0  0  0  0  0  0  0  0  0  0  0
  146.0602  147.3762  157.8720 H   0  0  0  0  0  0  0  0  0  0  0  0
  144.7612  148.4724  158.2710 H   0  0  0  0  0  0  0  0  0  0  0  0
  146.0127  147.7782  160.3201 H   0  0  0  0  0  0  0  0  0  0  0  0
  144.3385  147.3053  160.3947 H   0  0  0  0  0  0  0  0  0  0  0  0
  145.6455  145.4447  161.1732 H   0  0  0  0  0  0  0  0  0  0  0  0
  147.2527  145.6830  158.6876 H   0  0  0  0  0  0  0  0  0  0  0  0
  149.1254  145.0755  158.6865 H   0  0  0  0  0  0  0  0  0  0  0  0
  151.2245  143.6023  158.0012 H   0  0  0  0  0  0  0  0  0  0  0  0
  153.8763  142.6417  158.4735 H   0  0  0  0  0  0  0  0  0  0  0  0
  153.6087  141.4734  159.7688 H   0  0  0  0  0  0  0  0  0  0  0  0
  154.4498  142.9880  160.1056 H   0  0  0  0  0  0  0  0  0  0  0  0
  1  2  1  0  0  0  0
  1 19  1  0  0  0  0
  1 20  1  0  0  0  0
  1 21  1  0  0  0  0
  2  3  1  0  0  0  0
  3  8  1  0  0  0  0
  3  4  1  0  0  0  0
  3 22  1  0  0  0  0
  4  5  1  0  0  0  0
  4 23  1  0  0  0  0
  4 24  1  0  0  0  0
  5  6  1  0  0  0  0
  5 25  1  0  0  0  0
  5 26  1  0  0  0  0
  6  7  1  0  0  0  0
  6 27  1  0  0  0  0
  6 28  1  0  0  0  0
  7  8  1  0  0  0  0
  7 29  1  0  0  0  0
  7 30  1  0  0  0  0
  8  9  1  0  0  0  0
  8 31  1  0  0  0  0
  9 10  1  0  0  0  0
  9 32  1  0  0  0  0
 10 11  2  0  0  0  0
 10 12  1  0  0  0  0
 12 13  1  0  0  0  0
 12 33  1  0  0  0  0
 13 18  2  0  0  0  0
 13 14  1  0  0  0  0
 14 15  2  0  0  0  0
 14 34  1  0  0  0  0
 15 16  1  0  0  0  0
 15 17  1  0  0  0  0
 16 35  1  0  0  0  0
 16 36  1  0  0  0  0
 16 37  1  0  0  0  0
 17 18  1  0  0  0  0
M  END
> <s_m_source_file>
AV-unprocessed.smi

> <i_m_source_file_index>
2856

> <i_lp_mmshare_version>
43012

> <i_f3d_flags>
0

> <s_epik_input>
W0NIM11TW0NAQEhdMVtDSDJdW0NIMl1bQ0gyXVtDSDJdW0NASF0xW05IXUMoPU8pW05IXWMyW2NIXWMoW0NIM10pb24y

> <s_epik_cmdline>
J2VwaWtfcHl0aG9uJywgJy1waCcsICc3LjAnLCAnLXRuJywgJzgnLCAnLW1hJywgJzIwMCcsICctbWV0YWxfYmluZGluZycsICctaW1hZScsICc8aW5maWxlLm1hZT4nLCAnLW9tYWUnLCAnPG91dGZpbGUubWFlPic=

> <r_lp_tautomer_probability>
1

> <r_epik_Ionization_Penalty>
2.20874e-05

> <r_epik_Ionization_Penalty_Charging>
0

> <r_epik_Ionization_Penalty_Neutral>
2.20874e-05

> <r_epik_State_Penalty>
-0

> <r_epik_Charging_Adjusted_Penalty>
0

> <i_epik_Tot_Q>
0

> <i_epik_Tot_abs_Q>
0

> <r_epik_Metal_State_Penalty>
-0

> <b_epik_Metal_Only>
0

> <s_lp_Force_Field>
OPLS_2005

> <r_lp_Energy>
4.88366

> <b_lp_Chiralities_Consistent>
1

> <s_lp_Variant>
AV-unprocessed.smi:2856-3

> <Gold.Version>
5.8.1

> <Gold.Id.Protein>
6NUR|6NUR_protein|mol2

> <Gold.PLP.Fitness>
36.9719

> <Gold.PLP.PLP>
-29.5362

> <Gold.PLP.part.hbond>
-3.9333

> <Gold.PLP.part.metal>
0.0000

> <Gold.PLP.part.buried>
-6.3909

> <Gold.PLP.part.nonpolar>
-21.8096

> <Gold.PLP.part.repulsive>
0.7686

> <Gold.PLP.ligand.clash>
0.0000

> <Gold.PLP.ligand.torsion>
0.3659

> <Gold.PLP.Chemscore.Hbond>
2.7173

> <Gold.PLP.Chemscore.CHOScore>
0.0000

> <Gold.PLP.Chemscore.Metal>
0.0000

> <Gold.Chemscore.Hbonds>
donor molecule, donor type, donor heavy atom, donor atom, acceptor molecule, acceptor atom, score
      L1  H     9    32       P1  8029  1.00
      L1  H    12    33       P1  8029  0.82
      P1  H  6933  6944       L1    11  0.78

> <Gold.PLP.Chemscore.Internal.Correction>
0.0156

> <Gold.Rescore>
     Score         DG    S(hbond)    S(metal)    S(lipo)     H(rot)  DE(clash)    DE(int)     intcor
     17.66     -19.12       2.80        0.00      63.08       1.21       0.08       1.39       ----

> <Gold.Chemscore.Fitness>
17.6561

> <Gold.Chemscore.DG>
-19.1235

> <Gold.Chemscore.ZeroCoef>
-5.4800

> <Gold.Chemscore.Hbond>
2.8034

> <Gold.Chemscore.Metal>
0.0000

> <Gold.Chemscore.Lipo>
63.0781

> <Gold.Chemscore.Internal_Hbond>
0.0000

> <Gold.Chemscore.DEClash>
0.0807

> <Gold.Chemscore.DEInternal>
1.3867

> <Gold.Chemscore.Rot>
1.2109

> <Gold.Chemscore.Internal.Correction>
   9.000000E+99

> <Gold.Chemscore.Hbonds>
donor molecule, donor type, donor heavy atom, donor atom, acceptor molecule, acceptor atom, score
      L1  H     9    32       P1  8029  0.95
      L1  H    12    33       P1  8029  0.72
      P1  H  6933  6944       L1    11  0.37

> <Gold.Chemscore.Hbond.Weighted>
-9.3633

> <Gold.Chemscore.Metal.Weighted>
-0.0000

> <Gold.Chemscore.Lipo.Weighted>
-7.3801

> <Gold.Chemscore.Internal_Hbond.Weighted>
0.0000

> <Gold.Chemscore.DEClash.Weighted>
0.0807

> <Gold.Chemscore.DEInternal.Weighted>
1.3867

> <Gold.Chemscore.Rot.Weighted>
3.1000

> <Gold.Chemscore.Internal.Correction.Weighted>
   9.000000E+99

> <Gold.Protein.RotatedTorsions>
[ 6907 6896 6895 6894 ] final  155.24 input  -60.11 | X-H torsion
[ 7974 7965 7964 7962 ] final  167.02 input  175.53 | X-H torsion
[ 8008 7997 7996 7995 ] final -161.96 input   59.86 | X-H torsion
[ 10167 10162 10161 10158 ] final  156.07 input  -65.29 | X-H torsion
[ 10718 10713 10712 10709 ] final   66.89 input   66.30 | X-H torsion
[ 10763 10752 10751 10750 ] final   35.44 input  -60.55 | X-H torsion
[ 11005 11000 10999 10996 ] final   21.90 input  -57.11 | X-H torsion

> <Gold.Protein.ActiveResidues>
 VAL166  LYS551  ARG553  GLY616  TRP617  ASP618  TYR619  PRO620  LYS621  CYS622 
 ASP623  PHE694  ASN695  SER759  ASP760  ASP761  ALA762  ILE779  LEU786  VAL792 
 PHE793  MET794  SER795  GLU796  ALA797  LYS798  CYS799  TRP800  GLU811  SER814 

> <Gold.Protein.RotatedAtoms>
  152.0470  133.4002  159.4360 H   0  0  0  0  0  0  0  0  0  0  0  0  # atno 6907 bound_to 6896
  150.6872  134.3350  159.4853 H   0  0  0  0  0  0  0  0  0  0  0  0  # atno 6908 bound_to 6896
  152.1156  134.9243  160.0615 H   0  0  0  0  0  0  0  0  0  0  0  0  # atno 6909 bound_to 6896
  144.7440  139.8699  143.6388 H   0  0  0  0  0  0  0  0  0  0  0  0  # atno 7974 bound_to 7965
  155.7998  140.0890  157.1963 H   0  0  0  0  0  0  0  0  0  0  0  0  # atno 8008 bound_to 7997
  154.3982  140.1474  156.3320 H   0  0  0  0  0  0  0  0  0  0  0  0  # atno 8009 bound_to 7997
  155.8474  140.3436  155.5673 H   0  0  0  0  0  0  0  0  0  0  0  0  # atno 8010 bound_to 7997
  139.4821  144.5042  151.8123 H   0  0  0  0  0  0  0  0  0  0  0  0  # atno 10167 bound_to 10162
  157.6197  130.9292  150.0169 H   0  0  0  0  0  0  0  0  0  0  0  0  # atno 10718 bound_to 10713
  153.0119  135.6333  154.1827 H   0  0  0  0  0  0  0  0  0  0  0  0  # atno 10763 bound_to 10752
  154.1568  135.2826  155.3121 H   0  0  0  0  0  0  0  0  0  0  0  0  # atno 10764 bound_to 10752
  154.6012  135.5587  153.7436 H   0  0  0  0  0  0  0  0  0  0  0  0  # atno 10765 bound_to 10752
  140.3865  134.1865  155.7663 H   0  0  0  0  0  0  0  0  0  0  0  0  # atno 11005 bound_to 11000
  146.1287  139.4318  143.0182 LP  0  0  0  0  0  0  0  0  0  0  0  0  # atno 17320 bound_to 7965
  145.7195  141.0079  143.1410 LP  0  0  0  0  0  0  0  0  0  0  0  0  # atno 17321 bound_to 7965
  140.4538  144.1818  150.5899 LP  0  0  0  0  0  0  0  0  0  0  0  0  # atno 17342 bound_to 10162
  140.4557  143.2469  151.9288 LP  0  0  0  0  0  0  0  0  0  0  0  0  # atno 17343 bound_to 10162
  156.1336  130.3643  149.9693 LP  0  0  0  0  0  0  0  0  0  0  0  0  # atno 17370 bound_to 10713
  156.7748  130.9200  151.3645 LP  0  0  0  0  0  0  0  0  0  0  0  0  # atno 17371 bound_to 10713
  141.1906  133.8214  157.0914 LP  0  0  0  0  0  0  0  0  0  0  0  0  # atno 17394 bound_to 11000
  140.0439  134.9840  157.1012 LP  0  0  0  0  0  0  0  0  0  0  0  0  # atno 17395 bound_to 11000

$$$$
