AV-unprocessed.smi:1135|AV-procd|sdf|4860|dock2
  -GOLD-   22720 3433D 1   1.00000     0.00000
 Structure written by MMmdl.
 46 47  0  0  0  0  0  0  0  0  2 V2000
  150.5908  142.1490  157.0866 C   0  0  0  0  0  0  0  0  0  0  0  0
  149.4983  141.3781  156.3322 C   0  0  2  0  0  0  0  0  0  0  0  0
  149.5764  141.6250  154.8168 C   0  0  0  0  0  0  0  0  0  0  0  0
  148.4831  140.8520  154.0579 C   0  0  0  0  0  0  0  0  0  0  0  0
  147.0459  141.1406  154.5615 C   0  0  1  0  0  0  0  0  0  0  0  0
  146.6000  142.5596  154.1350 C   0  0  0  0  0  0  0  0  0  0  0  0
  146.1852  140.1377  153.9199 N   0  0  0  0  0  0  0  0  0  0  0  0
  146.2839  138.7996  153.9796 C   0  0  0  0  0  0  0  0  0  0  0  0
  147.1098  138.1882  154.6579 O   0  0  0  0  0  0  0  0  0  0  0  0
  145.3994  138.2019  153.1678 N   0  0  0  0  0  0  0  0  0  0  0  0
  145.3271  136.7641  152.9143 C   0  0  0  0  0  0  0  0  0  0  0  0
  145.4110  136.4241  151.4112 C   0  0  0  0  0  0  0  0  0  0  0  0
  145.6240  134.9468  151.1259 C   0  0  0  0  0  0  0  0  0  0  0  0
  144.6390  134.1524  150.4984 C   0  0  0  0  0  0  0  0  0  0  0  0
  144.9188  132.7979  150.2217 C   0  0  0  0  0  0  0  0  0  0  0  0
  146.1732  132.2647  150.5833 C   0  0  0  0  0  0  0  0  0  0  0  0
  147.1171  133.1010  151.2137 C   0  0  0  0  0  0  0  0  0  0  0  0
  146.8129  134.3943  151.4593 N   0  3  0  0  0  0  0  0  0  0  0  0
  146.9976  140.9605  156.1051 C   0  0  0  0  0  0  0  0  0  0  0  0
  148.0966  141.7368  156.8505 C   0  0  0  0  0  0  0  0  0  0  0  0
  150.4826  143.2255  156.9507 H   0  0  0  0  0  0  0  0  0  0  0  0
  151.5841  141.8669  156.7361 H   0  0  0  0  0  0  0  0  0  0  0  0
  150.5484  141.9427  158.1563 H   0  0  0  0  0  0  0  0  0  0  0  0
  149.6634  140.3145  156.5110 H   0  0  0  0  0  0  0  0  0  0  0  0
  149.4921  142.6918  154.6080 H   0  0  0  0  0  0  0  0  0  0  0  0
  150.5554  141.3221  154.4440 H   0  0  0  0  0  0  0  0  0  0  0  0
  148.5585  141.0673  152.9909 H   0  0  0  0  0  0  0  0  0  0  0  0
  148.6950  139.7862  154.1608 H   0  0  0  0  0  0  0  0  0  0  0  0
  147.2623  143.3309  154.5262 H   0  0  0  0  0  0  0  0  0  0  0  0
  145.5987  142.7979  154.4934 H   0  0  0  0  0  0  0  0  0  0  0  0
  146.5920  142.6614  153.0493 H   0  0  0  0  0  0  0  0  0  0  0  0
  145.4576  140.5112  153.3279 H   0  0  0  0  0  0  0  0  0  0  0  0
  144.7554  138.7867  152.6550 H   0  0  0  0  0  0  0  0  0  0  0  0
  146.1140  136.2427  153.4621 H   0  0  0  0  0  0  0  0  0  0  0  0
  144.3843  136.3954  153.3188 H   0  0  0  0  0  0  0  0  0  0  0  0
  144.4980  136.7502  150.9112 H   0  0  0  0  0  0  0  0  0  0  0  0
  146.2229  136.9910  150.9541 H   0  0  0  0  0  0  0  0  0  0  0  0
  143.6868  134.5779  150.2172 H   0  0  0  0  0  0  0  0  0  0  0  0
  144.1816  132.1773  149.7336 H   0  0  0  0  0  0  0  0  0  0  0  0
  146.4086  131.2307  150.3779 H   0  0  0  0  0  0  0  0  0  0  0  0
  148.1015  132.7789  151.5207 H   0  0  0  0  0  0  0  0  0  0  0  0
  146.0272  141.2618  156.5001 H   0  0  0  0  0  0  0  0  0  0  0  0
  147.1043  139.9021  156.3484 H   0  0  0  0  0  0  0  0  0  0  0  0
  148.0298  141.5201  157.9172 H   0  0  0  0  0  0  0  0  0  0  0  0
  147.9258  142.8091  156.7487 H   0  0  0  0  0  0  0  0  0  0  0  0
  147.5166  134.9839  151.9042 H   0  0  0  0  0  0  0  0  0  0  0  0
  1  2  1  0  0  0  0
  1 21  1  0  0  0  0
  1 22  1  0  0  0  0
  1 23  1  0  0  0  0
  2 20  1  0  0  0  0
  2  3  1  0  0  0  0
  2 24  1  0  0  0  0
  3  4  1  0  0  0  0
  3 25  1  0  0  0  0
  3 26  1  0  0  0  0
  4  5  1  0  0  0  0
  4 27  1  0  0  0  0
  4 28  1  0  0  0  0
  5  6  1  0  0  0  0
  5  7  1  0  0  0  0
  5 19  1  0  0  0  0
  6 29  1  0  0  0  0
  6 30  1  0  0  0  0
  6 31  1  0  0  0  0
  7  8  1  0  0  0  0
  7 32  1  0  0  0  0
  8  9  2  0  0  0  0
  8 10  1  0  0  0  0
 10 11  1  0  0  0  0
 10 33  1  0  0  0  0
 11 12  1  0  0  0  0
 11 34  1  0  0  0  0
 11 35  1  0  0  0  0
 12 13  1  0  0  0  0
 12 36  1  0  0  0  0
 12 37  1  0  0  0  0
 13 18  1  0  0  0  0
 13 14  2  0  0  0  0
 14 15  1  0  0  0  0
 14 38  1  0  0  0  0
 15 16  2  0  0  0  0
 15 39  1  0  0  0  0
 16 17  1  0  0  0  0
 16 40  1  0  0  0  0
 17 18  2  0  0  0  0
 17 41  1  0  0  0  0
 18 46  1  0  0  0  0
 19 20  1  0  0  0  0
 19 42  1  0  0  0  0
 19 43  1  0  0  0  0
 20 44  1  0  0  0  0
 20 45  1  0  0  0  0
M  CHG  1  18   1
M  END
> <s_m_source_file>
AV-unprocessed.smi

> <i_m_source_file_index>
1135

> <i_lp_mmshare_version>
43012

> <i_f3d_flags>
0

> <s_epik_input>
W0NIMl0xW0NIMl1bQ0BIXShbQ0gzXSlbQ0gyXVtDSDJdW0NAQF0xKFtDSDNdKVtOSF1DKD1PKVtOSF1bQ0gyXVtDSDJdYzJbY0hdW2NIXVtjSF1bY0hdbjI=

> <s_epik_cmdline>
J2VwaWtfcHl0aG9uJywgJy1waCcsICc3LjAnLCAnLXRuJywgJzgnLCAnLW1hJywgJzIwMCcsICctbWV0YWxfYmluZGluZycsICctaW1hZScsICc8aW5maWxlLm1hZT4nLCAnLW9tYWUnLCAnPG91dGZpbGUubWFlPic=

> <r_epik_Ionization_Penalty>
1.55217

> <r_epik_Ionization_Penalty_Charging>
1.55211

> <r_epik_Ionization_Penalty_Neutral>
5.91929e-05

> <r_epik_State_Penalty>
1.64641

> <r_epik_Charging_Adjusted_Penalty>
3.19851

> <i_epik_Tot_Q>
1

> <i_epik_Tot_abs_Q>
1

> <r_epik_Metal_State_Penalty>
1.68848

> <b_epik_Metal_Only>
0

> <s_lp_Force_Field>
OPLS_2005

> <r_lp_Energy>
15.0823

> <b_lp_Chiralities_Consistent>
1

> <s_lp_Variant>
AV-unprocessed.smi:1135-3

> <Gold.Version>
5.8.1

> <Gold.Id.Protein>
6NUR|6NUR_protein|mol2

> <Gold.PLP.Fitness>
47.2158

> <Gold.PLP.PLP>
-35.4196

> <Gold.PLP.part.hbond>
-3.0000

> <Gold.PLP.part.metal>
0.0000

> <Gold.PLP.part.buried>
-3.2828

> <Gold.PLP.part.nonpolar>
-30.5437

> <Gold.PLP.part.repulsive>
0.1497

> <Gold.PLP.ligand.clash>
0.0000

> <Gold.PLP.ligand.torsion>
0.1167

> <Gold.PLP.Chemscore.Hbond>
4.0000

> <Gold.PLP.Chemscore.CHOScore>
0.0000

> <Gold.PLP.Chemscore.Metal>
0.0000

> <Gold.Chemscore.Hbonds>
donor molecule, donor type, donor heavy atom, donor atom, acceptor molecule, acceptor atom, score
      L1  H     7    32       P1 10175  1.00
      L1  H    10    33       P1 10175  1.00
      L1  H    18    46       P1  7948  2.00

> <Gold.PLP.Chemscore.Internal.Correction>
0.0297

> <Gold.Rescore>
     Score         DG    S(hbond)    S(metal)    S(lipo)     H(rot)  DE(clash)    DE(int)     intcor
     20.60     -21.52       2.79        0.00      90.45       1.51       0.15       0.77       ----

> <Gold.Chemscore.Fitness>
20.5996

> <Gold.Chemscore.DG>
-21.5192

> <Gold.Chemscore.ZeroCoef>
-5.4800

> <Gold.Chemscore.Hbond>
2.7898

> <Gold.Chemscore.Metal>
0.0000

> <Gold.Chemscore.Lipo>
90.4537

> <Gold.Chemscore.Internal_Hbond>
0.0000

> <Gold.Chemscore.DEClash>
0.1529

> <Gold.Chemscore.DEInternal>
0.7667

> <Gold.Chemscore.Rot>
1.5085

> <Gold.Chemscore.Internal.Correction>
   9.000000E+99

> <Gold.Chemscore.Hbonds>
donor molecule, donor type, donor heavy atom, donor atom, acceptor molecule, acceptor atom, score
      L1  H     7    32       P1 10175  0.92
      L1  H    10    33       P1 10175  0.93
      L1  H    18    46       P1  7948  0.81

> <Gold.Chemscore.Hbond.Weighted>
-9.3178

> <Gold.Chemscore.Metal.Weighted>
-0.0000

> <Gold.Chemscore.Lipo.Weighted>
-10.5831

> <Gold.Chemscore.Internal_Hbond.Weighted>
0.0000

> <Gold.Chemscore.DEClash.Weighted>
0.1529

> <Gold.Chemscore.DEInternal.Weighted>
0.7667

> <Gold.Chemscore.Rot.Weighted>
3.8617

> <Gold.Chemscore.Internal.Correction.Weighted>
   9.000000E+99

> <Gold.Protein.RotatedTorsions>
[ 6907 6896 6895 6894 ] final -104.49 input  -60.11 | X-H torsion
[ 7974 7965 7964 7962 ] final -159.80 input  175.53 | X-H torsion
[ 8008 7997 7996 7995 ] final -136.65 input   59.86 | X-H torsion
[ 10167 10162 10161 10158 ] final   22.54 input  -65.29 | X-H torsion
[ 10718 10713 10712 10709 ] final  130.23 input   66.30 | X-H torsion
[ 10763 10752 10751 10750 ] final   27.40 input  -60.55 | X-H torsion
[ 11005 11000 10999 10996 ] final -107.30 input  -57.11 | X-H torsion

> <Gold.Protein.ActiveResidues>
 VAL166  LYS551  ARG553  GLY616  TRP617  ASP618  TYR619  PRO620  LYS621  CYS622 
 ASP623  PHE694  ASN695  SER759  ASP760  ASP761  ALA762  ILE779  LEU786  VAL792 
 PHE793  MET794  SER795  GLU796  ALA797  LYS798  CYS799  TRP800  GLU811  SER814 

> <Gold.Protein.RotatedAtoms>
  150.7290  134.0269  159.3719 H   0  0  0  0  0  0  0  0  0  0  0  0  # atno 6907 bound_to 6896
  151.8236  135.0641  160.0437 H   0  0  0  0  0  0  0  0  0  0  0  0  # atno 6908 bound_to 6896
  152.2985  133.5595  159.5639 H   0  0  0  0  0  0  0  0  0  0  0  0  # atno 6909 bound_to 6896
  144.7451  140.3633  143.6091 H   0  0  0  0  0  0  0  0  0  0  0  0  # atno 7974 bound_to 7965
  155.3988  140.0504  157.3037 H   0  0  0  0  0  0  0  0  0  0  0  0  # atno 8008 bound_to 7997
  154.5001  140.2153  155.9326 H   0  0  0  0  0  0  0  0  0  0  0  0  # atno 8009 bound_to 7997
  156.1456  140.3146  155.8570 H   0  0  0  0  0  0  0  0  0  0  0  0  # atno 8010 bound_to 7997
  140.5340  143.9792  150.6481 H   0  0  0  0  0  0  0  0  0  0  0  0  # atno 10167 bound_to 10162
  157.5081  131.1096  150.9332 H   0  0  0  0  0  0  0  0  0  0  0  0  # atno 10718 bound_to 10713
  153.0559  135.6538  154.0580 H   0  0  0  0  0  0  0  0  0  0  0  0  # atno 10763 bound_to 10752
  154.0258  135.2916  155.3376 H   0  0  0  0  0  0  0  0  0  0  0  0  # atno 10764 bound_to 10752
  154.6873  135.5296  153.8411 H   0  0  0  0  0  0  0  0  0  0  0  0  # atno 10765 bound_to 10752
  141.0961  133.8969  157.1960 H   0  0  0  0  0  0  0  0  0  0  0  0  # atno 11005 bound_to 11000
  145.7155  139.1696  143.2514 LP  0  0  0  0  0  0  0  0  0  0  0  0  # atno 17320 bound_to 7965
  146.1316  140.7178  142.9409 LP  0  0  0  0  0  0  0  0  0  0  0  0  # atno 17321 bound_to 7965
  140.3175  143.3158  152.0818 LP  0  0  0  0  0  0  0  0  0  0  0  0  # atno 17342 bound_to 10162
  139.4964  144.6596  151.6495 LP  0  0  0  0  0  0  0  0  0  0  0  0  # atno 17343 bound_to 10162
  156.9981  130.5589  149.5309 LP  0  0  0  0  0  0  0  0  0  0  0  0  # atno 17370 bound_to 10713
  156.0271  130.5364  150.8436 LP  0  0  0  0  0  0  0  0  0  0  0  0  # atno 17371 bound_to 10713
  139.9798  135.0102  156.9721 LP  0  0  0  0  0  0  0  0  0  0  0  0  # atno 17394 bound_to 11000
  140.5137  134.0976  155.7276 LP  0  0  0  0  0  0  0  0  0  0  0  0  # atno 17395 bound_to 11000

$$$$
