AV-unprocessed.smi:3100|AV-procd|sdf|11805|dock4
  -GOLD-   2272017183D 1   1.00000     0.00000
 Structure written by MMmdl.
 28 29  0  0  0  0  0  0  0  0  1 V2000
  153.1614  142.2113  161.0139 C   0  0  0  0  0  0  0  0  0  0  0  0
  152.3200  143.1286  160.1206 C   0  0  1  0  0  0  0  0  0  0  0  0
  153.0613  143.6619  158.9002 C   0  0  0  0  0  0  0  0  0  0  0  0
  151.9129  144.0720  158.0006 C   0  0  0  0  0  0  0  0  0  0  0  0
  150.7991  143.0724  158.3612 C   0  0  1  0  0  0  0  0  0  0  0  0
  150.5523  142.0061  157.2873 C   0  0  0  0  0  0  0  0  0  0  0  0
  149.4565  141.9420  156.7286 O   0  0  0  0  0  0  0  0  0  0  0  0
  151.5952  141.1998  157.0159 N   0  0  0  0  0  0  0  0  0  0  0  0
  151.6536  140.1239  156.0916 C   0  0  0  0  0  0  0  0  0  0  0  0
  150.4079  139.5708  155.7121 C   0  0  0  0  0  0  0  0  0  0  0  0
  150.3006  138.5450  154.8385 N   0  0  0  0  0  0  0  0  0  0  0  0
  151.4545  138.0595  154.3329 C   0  0  0  0  0  0  0  0  0  0  0  0
  152.7043  138.5977  154.6989 C   0  0  0  0  0  0  0  0  0  0  0  0
  152.8039  139.6233  155.5722 N   0  0  0  0  0  0  0  0  0  0  0  0
  151.2349  142.4124  159.5491 O   0  0  0  0  0  0  0  0  0  0  0  0
  154.0159  142.7463  161.4289 H   0  0  0  0  0  0  0  0  0  0  0  0
  153.5400  141.3546  160.4555 H   0  0  0  0  0  0  0  0  0  0  0  0
  152.5699  141.8303  161.8465 H   0  0  0  0  0  0  0  0  0  0  0  0
  151.9198  143.9599  160.7037 H   0  0  0  0  0  0  0  0  0  0  0  0
  153.7362  144.4853  159.1351 H   0  0  0  0  0  0  0  0  0  0  0  0
  153.6400  142.8674  158.4263 H   0  0  0  0  0  0  0  0  0  0  0  0
  151.5905  145.0845  158.2469 H   0  0  0  0  0  0  0  0  0  0  0  0
  152.1933  144.0675  156.9461 H   0  0  0  0  0  0  0  0  0  0  0  0
  149.8757  143.6142  158.5724 H   0  0  0  0  0  0  0  0  0  0  0  0
  152.4428  141.3757  157.5357 H   0  0  0  0  0  0  0  0  0  0  0  0
  149.4815  139.9561  156.1130 H   0  0  0  0  0  0  0  0  0  0  0  0
  151.3812  137.2399  153.6334 H   0  0  0  0  0  0  0  0  0  0  0  0
  153.6244  138.2060  154.2910 H   0  0  0  0  0  0  0  0  0  0  0  0
  1  2  1  0  0  0  0
  1 16  1  0  0  0  0
  1 17  1  0  0  0  0
  1 18  1  0  0  0  0
  2 15  1  0  0  0  0
  2  3  1  0  0  0  0
  2 19  1  0  0  0  0
  3  4  1  0  0  0  0
  3 20  1  0  0  0  0
  3 21  1  0  0  0  0
  4  5  1  0  0  0  0
  4 22  1  0  0  0  0
  4 23  1  0  0  0  0
  5  6  1  0  0  0  0
  5 15  1  0  0  0  0
  5 24  1  0  0  0  0
  6  7  2  0  0  0  0
  6  8  1  0  0  0  0
  8  9  1  0  0  0  0
  8 25  1  0  0  0  0
  9 14  1  0  0  0  0
  9 10  2  0  0  0  0
 10 11  1  0  0  0  0
 10 26  1  0  0  0  0
 11 12  2  0  0  0  0
 12 13  1  0  0  0  0
 12 27  1  0  0  0  0
 13 14  2  0  0  0  0
 13 28  1  0  0  0  0
M  END
> <s_m_source_file>
AV-unprocessed.smi

> <i_m_source_file_index>
3100

> <i_lp_mmshare_version>
43012

> <i_f3d_flags>
0

> <s_epik_input>
W0NIM11bQ0BASF0xW0NIMl1bQ0gyXVtDQEhdKE8xKUMoPU8pW05IXWMyW2NIXW5bY0hdW2NIXW4y

> <s_epik_cmdline>
J2VwaWtfcHl0aG9uJywgJy1waCcsICc3LjAnLCAnLXRuJywgJzgnLCAnLW1hJywgJzIwMCcsICctbWV0YWxfYmluZGluZycsICctaW1hZScsICc8aW5maWxlLm1hZT4nLCAnLW9tYWUnLCAnPG91dGZpbGUubWFlPic=

> <r_lp_tautomer_probability>
1

> <r_epik_Ionization_Penalty>
2.81186e-06

> <r_epik_Ionization_Penalty_Charging>
0

> <r_epik_Ionization_Penalty_Neutral>
2.81186e-06

> <r_epik_State_Penalty>
-0

> <r_epik_Charging_Adjusted_Penalty>
0

> <i_epik_Tot_Q>
0

> <i_epik_Tot_abs_Q>
0

> <r_epik_Metal_State_Penalty>
-0

> <b_epik_Metal_Only>
0

> <s_lp_Force_Field>
OPLS_2005

> <r_lp_Energy>
25.9666

> <b_lp_Chiralities_Consistent>
1

> <s_lp_Variant>
AV-unprocessed.smi:3100-2

> <Gold.Version>
5.8.1

> <Gold.Id.Protein>
6NUR|6NUR_protein|mol2

> <Gold.PLP.Fitness>
40.5583

> <Gold.PLP.PLP>
-34.7967

> <Gold.PLP.part.hbond>
-1.6239

> <Gold.PLP.part.metal>
0.0000

> <Gold.PLP.part.buried>
-4.2849

> <Gold.PLP.part.nonpolar>
-29.5105

> <Gold.PLP.part.repulsive>
1.0043

> <Gold.PLP.ligand.clash>
0.0093

> <Gold.PLP.ligand.torsion>
0.1184

> <Gold.PLP.Chemscore.Hbond>
1.0000

> <Gold.PLP.Chemscore.CHOScore>
1.0000

> <Gold.PLP.Chemscore.Metal>
0.0000

> <Gold.Chemscore.Hbonds>
donor molecule, donor type, donor heavy atom, donor atom, acceptor molecule, acceptor atom, score
      P1  H  7997  8008       L1    14  1.00
      L1  C    12    27       P1  7949  1.00

> <Gold.PLP.Chemscore.Internal.Correction>
0.0076

> <Gold.Rescore>
     Score         DG    S(hbond)    S(metal)    S(lipo)     H(rot)  DE(clash)    DE(int)     intcor
     14.15     -15.77       0.97        0.00      82.21       1.00       0.06       1.56       ----

> <Gold.Chemscore.Fitness>
14.1543

> <Gold.Chemscore.DG>
-15.7673

> <Gold.Chemscore.ZeroCoef>
-5.4800

> <Gold.Chemscore.Hbond>
0.9665

> <Gold.Chemscore.Metal>
0.0000

> <Gold.Chemscore.Lipo>
82.2142

> <Gold.Chemscore.Internal_Hbond>
0.0000

> <Gold.Chemscore.DEClash>
0.0576

> <Gold.Chemscore.DEInternal>
1.5554

> <Gold.Chemscore.Rot>
1.0000

> <Gold.Chemscore.Internal.Correction>
   9.000000E+99

> <Gold.Chemscore.Hbonds>
donor molecule, donor type, donor heavy atom, donor atom, acceptor molecule, acceptor atom, score
      P1  H  7997  8008       L1    14  0.95

> <Gold.Chemscore.Hbond.Weighted>
-3.2283

> <Gold.Chemscore.Metal.Weighted>
-0.0000

> <Gold.Chemscore.Lipo.Weighted>
-9.6191

> <Gold.Chemscore.Internal_Hbond.Weighted>
0.0000

> <Gold.Chemscore.DEClash.Weighted>
0.0576

> <Gold.Chemscore.DEInternal.Weighted>
1.5554

> <Gold.Chemscore.Rot.Weighted>
2.5600

> <Gold.Chemscore.Internal.Correction.Weighted>
   9.000000E+99

> <Gold.Protein.RotatedTorsions>
[ 6907 6896 6895 6894 ] final -103.60 input  -60.11 | X-H torsion
[ 7974 7965 7964 7962 ] final  155.53 input  175.53 | X-H torsion
[ 8008 7997 7996 7995 ] final  -24.43 input   59.86 | X-H torsion
[ 10167 10162 10161 10158 ] final -108.22 input  -65.29 | X-H torsion
[ 10718 10713 10712 10709 ] final -144.92 input   66.30 | X-H torsion
[ 10763 10752 10751 10750 ] final -146.63 input  -60.55 | X-H torsion
[ 11005 11000 10999 10996 ] final  -26.06 input  -57.11 | X-H torsion

> <Gold.Protein.ActiveResidues>
 VAL166  LYS551  ARG553  GLY616  TRP617  ASP618  TYR619  PRO620  LYS621  CYS622 
 ASP623  PHE694  ASN695  SER759  ASP760  ASP761  ALA762  ILE779  LEU786  VAL792 
 PHE793  MET794  SER795  GLU796  ALA797  LYS798  CYS799  TRP800  GLU811  SER814 

> <Gold.Protein.RotatedAtoms>
  150.7248  134.0404  159.3763 H   0  0  0  0  0  0  0  0  0  0  0  0  # atno 6907 bound_to 6896
  151.8377  135.0598  160.0454 H   0  0  0  0  0  0  0  0  0  0  0  0  # atno 6908 bound_to 6896
  152.2886  133.5503  159.5579 H   0  0  0  0  0  0  0  0  0  0  0  0  # atno 6909 bound_to 6896
  144.8019  139.7081  143.6178 H   0  0  0  0  0  0  0  0  0  0  0  0  # atno 7974 bound_to 7965
  154.4529  140.1953  156.0464 H   0  0  0  0  0  0  0  0  0  0  0  0  # atno 8008 bound_to 7997
  156.0687  140.3287  155.7521 H   0  0  0  0  0  0  0  0  0  0  0  0  # atno 8009 bound_to 7997
  155.5298  140.0577  157.2882 H   0  0  0  0  0  0  0  0  0  0  0  0  # atno 8010 bound_to 7997
  140.1685  143.4062  152.1372 H   0  0  0  0  0  0  0  0  0  0  0  0  # atno 10167 bound_to 10162
  156.3761  130.7813  151.1999 H   0  0  0  0  0  0  0  0  0  0  0  0  # atno 10718 bound_to 10713
  154.8326  135.3381  154.6692 H   0  0  0  0  0  0  0  0  0  0  0  0  # atno 10763 bound_to 10752
  153.7310  135.6952  153.4994 H   0  0  0  0  0  0  0  0  0  0  0  0  # atno 10764 bound_to 10752
  153.2312  135.4416  155.0549 H   0  0  0  0  0  0  0  0  0  0  0  0  # atno 10765 bound_to 10752
  140.8995  133.7534  156.0525 H   0  0  0  0  0  0  0  0  0  0  0  0  # atno 11005 bound_to 11000
  146.2302  139.5799  142.9560 LP  0  0  0  0  0  0  0  0  0  0  0  0  # atno 17320 bound_to 7965
  145.5533  141.0411  143.2266 LP  0  0  0  0  0  0  0  0  0  0  0  0  # atno 17321 bound_to 7965
  139.5348  144.7198  151.4929 LP  0  0  0  0  0  0  0  0  0  0  0  0  # atno 17342 bound_to 10162
  140.6597  143.8524  150.6874 LP  0  0  0  0  0  0  0  0  0  0  0  0  # atno 17343 bound_to 10162
  157.7488  131.0358  150.4379 LP  0  0  0  0  0  0  0  0  0  0  0  0  # atno 17370 bound_to 10713
  156.4615  130.4033  149.6573 LP  0  0  0  0  0  0  0  0  0  0  0  0  # atno 17371 bound_to 10713
  140.8248  134.3247  157.5369 LP  0  0  0  0  0  0  0  0  0  0  0  0  # atno 17394 bound_to 11000
  139.8740  134.9330  156.3568 LP  0  0  0  0  0  0  0  0  0  0  0  0  # atno 17395 bound_to 11000

$$$$
