AV-unprocessed.smi:1209|AV-procd|sdf|5071|dock6
  -GOLD-   22720 4113D 1   1.00000     0.00000
 Structure written by MMmdl.
 49 51  0  0  0  0  0  0  0  0  2 V2000
  149.5516  132.0979  154.1215 C   0  0  0  0  0  0  0  0  0  0  0  0
  149.7034  133.0411  155.2652 C   0  0  0  0  0  0  0  0  0  0  0  0
  149.5856  134.3972  155.3756 C   0  0  0  0  0  0  0  0  0  0  0  0
  149.8589  134.6482  156.7488 C   0  0  0  0  0  0  0  0  0  0  0  0
  149.8782  135.9677  157.4749 C   0  0  0  0  0  0  0  0  0  0  0  0
  150.9171  136.8838  156.9985 N   0  0  0  0  0  0  0  0  0  0  0  0
  152.2367  136.2543  157.0583 C   0  0  0  0  0  0  0  0  0  0  0  0
  150.6001  137.3512  155.6460 C   0  0  0  0  0  0  0  0  0  0  0  0
  151.5604  138.4040  155.0559 C   0  0  2  0  0  0  0  0  0  0  0  0
  152.5670  137.7288  154.3278 O   0  0  0  0  0  0  0  0  0  0  0  0
  152.2077  139.2547  156.1666 C   0  0  0  0  0  0  0  0  0  0  0  0
  151.5034  140.5223  156.4098 N   0  0  0  0  0  0  0  0  0  0  0  0
  150.5254  141.1257  155.6816 C   0  0  0  0  0  0  0  0  0  0  0  0
  150.1871  142.2785  156.3227 N   0  3  0  0  0  0  0  0  0  0  0  0
  150.9624  142.4152  157.4760 C   0  0  0  0  0  0  0  0  0  0  0  0
  150.9838  143.4114  158.4449 C   0  0  0  0  0  0  0  0  0  0  0  0
  151.9032  143.2582  159.5070 C   0  0  0  0  0  0  0  0  0  0  0  0
  151.9537  144.3297  160.5830 C   0  0  0  0  0  0  0  0  0  0  0  0
  152.7640  142.1319  159.5706 C   0  0  0  0  0  0  0  0  0  0  0  0
  153.7538  141.9800  160.7130 C   0  0  0  0  0  0  0  0  0  0  0  0
  152.7244  141.1283  158.5764 C   0  0  0  0  0  0  0  0  0  0  0  0
  151.8113  141.2932  157.5375 C   0  0  0  0  0  0  0  0  0  0  0  0
  150.1233  133.5316  157.4077 N   0  0  0  0  0  0  0  0  0  0  0  0
  150.0263  132.4994  156.4679 O   0  0  0  0  0  0  0  0  0  0  0  0
  148.9529  132.5437  153.3273 H   0  0  0  0  0  0  0  0  0  0  0  0
  149.0601  131.1776  154.4381 H   0  0  0  0  0  0  0  0  0  0  0  0
  150.5250  131.8370  153.7055 H   0  0  0  0  0  0  0  0  0  0  0  0
  149.3390  135.1030  154.5964 H   0  0  0  0  0  0  0  0  0  0  0  0
  148.9027  136.4528  157.4091 H   0  0  0  0  0  0  0  0  0  0  0  0
  150.0355  135.7642  158.5347 H   0  0  0  0  0  0  0  0  0  0  0  0
  153.0266  136.9547  156.7915 H   0  0  0  0  0  0  0  0  0  0  0  0
  152.2958  135.3987  156.3842 H   0  0  0  0  0  0  0  0  0  0  0  0
  152.4624  135.9037  158.0655 H   0  0  0  0  0  0  0  0  0  0  0  0
  150.5551  136.4915  154.9754 H   0  0  0  0  0  0  0  0  0  0  0  0
  149.5970  137.7809  155.6386 H   0  0  0  0  0  0  0  0  0  0  0  0
  151.0346  139.0736  154.3764 H   0  0  0  0  0  0  0  0  0  0  0  0
  152.3865  137.8350  153.4057 H   0  0  0  0  0  0  0  0  0  0  0  0
  152.1971  138.7011  157.1064 H   0  0  0  0  0  0  0  0  0  0  0  0
  153.2559  139.4621  155.9493 H   0  0  0  0  0  0  0  0  0  0  0  0
  150.0926  140.7556  154.7634 H   0  0  0  0  0  0  0  0  0  0  0  0
  150.3270  144.2672  158.3882 H   0  0  0  0  0  0  0  0  0  0  0  0
  151.7422  143.8999  161.5627 H   0  0  0  0  0  0  0  0  0  0  0  0
  151.2199  145.1152  160.3998 H   0  0  0  0  0  0  0  0  0  0  0  0
  152.9395  144.7944  160.6137 H   0  0  0  0  0  0  0  0  0  0  0  0
  154.3283  141.0573  160.6228 H   0  0  0  0  0  0  0  0  0  0  0  0
  153.2339  141.9557  161.6708 H   0  0  0  0  0  0  0  0  0  0  0  0
  154.4589  142.8115  160.7210 H   0  0  0  0  0  0  0  0  0  0  0  0
  153.3845  140.2748  158.6219 H   0  0  0  0  0  0  0  0  0  0  0  0
  149.4787  142.9226  155.9951 H   0  0  0  0  0  0  0  0  0  0  0  0
  1  2  1  0  0  0  0
  1 25  1  0  0  0  0
  1 26  1  0  0  0  0
  1 27  1  0  0  0  0
  2 24  1  0  0  0  0
  2  3  2  0  0  0  0
  3  4  1  0  0  0  0
  3 28  1  0  0  0  0
  4  5  1  0  0  0  0
  4 23  2  0  0  0  0
  5  6  1  0  0  0  0
  5 29  1  0  0  0  0
  5 30  1  0  0  0  0
  6  7  1  0  0  0  0
  6  8  1  0  0  0  0
  7 31  1  0  0  0  0
  7 32  1  0  0  0  0
  7 33  1  0  0  0  0
  8  9  1  0  0  0  0
  8 34  1  0  0  0  0
  8 35  1  0  0  0  0
  9 10  1  0  0  0  0
  9 11  1  0  0  0  0
  9 36  1  0  0  0  0
 10 37  1  0  0  0  0
 11 12  1  0  0  0  0
 11 38  1  0  0  0  0
 11 39  1  0  0  0  0
 12 22  1  0  0  0  0
 12 13  1  0  0  0  0
 13 14  2  0  0  0  0
 13 40  1  0  0  0  0
 14 15  1  0  0  0  0
 14 49  1  0  0  0  0
 15 22  2  0  0  0  0
 15 16  1  0  0  0  0
 16 17  2  0  0  0  0
 16 41  1  0  0  0  0
 17 18  1  0  0  0  0
 17 19  1  0  0  0  0
 18 42  1  0  0  0  0
 18 43  1  0  0  0  0
 18 44  1  0  0  0  0
 19 20  1  0  0  0  0
 19 21  2  0  0  0  0
 20 45  1  0  0  0  0
 20 46  1  0  0  0  0
 20 47  1  0  0  0  0
 21 22  1  0  0  0  0
 21 48  1  0  0  0  0
 23 24  1  0  0  0  0
M  CHG  1  14   1
M  END
> <s_m_source_file>
AV-unprocessed.smi

> <i_m_source_file_index>
1209

> <i_lp_mmshare_version>
43012

> <i_f3d_flags>
0

> <s_epik_input>
W0NIM11jMVtjSF1jKG5vMSlbQ0gyXU4oW0NIM10pW0NIMl1bQ0BIXShbT0hdKVtDSDJdbihbY0hdbjIpYyhjMjMpW2NIXWMoW0NIM10pYyhbY0hdMylbQ0gzXQ==

> <s_epik_cmdline>
J2VwaWtfcHl0aG9uJywgJy1waCcsICc3LjAnLCAnLXRuJywgJzgnLCAnLW1hJywgJzIwMCcsICctbWV0YWxfYmluZGluZycsICctaW1hZScsICc8aW5maWxlLm1hZT4nLCAnLW9tYWUnLCAnPG91dGZpbGUubWFlPic=

> <r_epik_Ionization_Penalty>
1.23608

> <r_epik_Ionization_Penalty_Charging>
1.21624

> <r_epik_Ionization_Penalty_Neutral>
0.0198409

> <r_epik_State_Penalty>
1.27749

> <r_epik_Charging_Adjusted_Penalty>
2.49372

> <i_epik_Tot_Q>
1

> <i_epik_Tot_abs_Q>
1

> <r_epik_Metal_State_Penalty>
1.34809

> <b_epik_Metal_Only>
0

> <s_lp_Force_Field>
OPLS_2005

> <r_lp_Energy>
23.9348

> <b_lp_Chiralities_Consistent>
1

> <s_lp_Variant>
AV-unprocessed.smi:1209-3

> <Gold.Version>
5.8.1

> <Gold.Id.Protein>
6NUR|6NUR_protein|mol2

> <Gold.PLP.Fitness>
54.4975

> <Gold.PLP.PLP>
-46.2312

> <Gold.PLP.part.hbond>
-3.0000

> <Gold.PLP.part.metal>
0.0000

> <Gold.PLP.part.buried>
-6.5112

> <Gold.PLP.part.nonpolar>
-36.8543

> <Gold.PLP.part.repulsive>
0.0885

> <Gold.PLP.ligand.clash>
0.0000

> <Gold.PLP.ligand.torsion>
1.0618

> <Gold.PLP.Chemscore.Hbond>
3.4410

> <Gold.PLP.Chemscore.CHOScore>
0.0000

> <Gold.PLP.Chemscore.Metal>
0.0000

> <Gold.Chemscore.Hbonds>
donor molecule, donor type, donor heavy atom, donor atom, acceptor molecule, acceptor atom, score
      L1  H    14    49       P1  8028  2.00
      P1  H  6896  6907       L1    23  1.00
      P1  H 10752 10765       L1    10  0.42

> <Gold.PLP.Chemscore.Internal.Correction>
0.0669

> <Gold.Rescore>
     Score         DG    S(hbond)    S(metal)    S(lipo)     H(rot)  DE(clash)    DE(int)     intcor
     19.33     -20.53       2.16        0.00     122.35       2.53       0.03       1.16       ----

> <Gold.Chemscore.Fitness>
19.3302

> <Gold.Chemscore.DG>
-20.5255

> <Gold.Chemscore.ZeroCoef>
-5.4800

> <Gold.Chemscore.Hbond>
2.1552

> <Gold.Chemscore.Metal>
0.0000

> <Gold.Chemscore.Lipo>
122.3495

> <Gold.Chemscore.Internal_Hbond>
0.0000

> <Gold.Chemscore.DEClash>
0.0318

> <Gold.Chemscore.DEInternal>
1.1635

> <Gold.Chemscore.Rot>
2.5265

> <Gold.Chemscore.Internal.Correction>
   9.000000E+99

> <Gold.Chemscore.Hbonds>
donor molecule, donor type, donor heavy atom, donor atom, acceptor molecule, acceptor atom, score
      L1  H    14    49       P1  8028  0.94
      P1  H  6896  6907       L1    23  0.86
      P1  H 10752 10765       L1    10  0.13

> <Gold.Chemscore.Hbond.Weighted>
-7.1984

> <Gold.Chemscore.Metal.Weighted>
-0.0000

> <Gold.Chemscore.Lipo.Weighted>
-14.3149

> <Gold.Chemscore.Internal_Hbond.Weighted>
0.0000

> <Gold.Chemscore.DEClash.Weighted>
0.0318

> <Gold.Chemscore.DEInternal.Weighted>
1.1635

> <Gold.Chemscore.Rot.Weighted>
6.4677

> <Gold.Chemscore.Internal.Correction.Weighted>
   9.000000E+99

> <Gold.Protein.RotatedTorsions>
[ 6907 6896 6895 6894 ] final -121.41 input  -60.11 | X-H torsion
[ 7974 7965 7964 7962 ] final  121.42 input  175.53 | X-H torsion
[ 8008 7997 7996 7995 ] final   20.79 input   59.86 | X-H torsion
[ 10167 10162 10161 10158 ] final -155.32 input  -65.29 | X-H torsion
[ 10718 10713 10712 10709 ] final  112.73 input   66.30 | X-H torsion
[ 10763 10752 10751 10750 ] final  170.95 input  -60.55 | X-H torsion
[ 11005 11000 10999 10996 ] final   33.15 input  -57.11 | X-H torsion

> <Gold.Protein.ActiveResidues>
 VAL166  LYS551  ARG553  GLY616  TRP617  ASP618  TYR619  PRO620  LYS621  CYS622 
 ASP623  PHE694  ASN695  SER759  ASP760  ASP761  ALA762  ILE779  LEU786  VAL792 
 PHE793  MET794  SER795  GLU796  ALA797  LYS798  CYS799  TRP800  GLU811  SER814 

> <Gold.Protein.RotatedAtoms>
  150.8480  133.7831  159.3035 H   0  0  0  0  0  0  0  0  0  0  0  0  # atno 6907 bound_to 6896
  151.5511  135.1066  159.9959 H   0  0  0  0  0  0  0  0  0  0  0  0  # atno 6908 bound_to 6896
  152.4530  133.7623  159.6809 H   0  0  0  0  0  0  0  0  0  0  0  0  # atno 6909 bound_to 6896
  145.1195  139.3399  143.4722 H   0  0  0  0  0  0  0  0  0  0  0  0  # atno 7974 bound_to 7965
  154.9408  140.3053  155.5121 H   0  0  0  0  0  0  0  0  0  0  0  0  # atno 8008 bound_to 7997
  156.2996  140.2336  156.4414 H   0  0  0  0  0  0  0  0  0  0  0  0  # atno 8009 bound_to 7997
  154.8147  140.0426  157.1356 H   0  0  0  0  0  0  0  0  0  0  0  0  # atno 8010 bound_to 7997
  139.6941  143.9372  152.2399 H   0  0  0  0  0  0  0  0  0  0  0  0  # atno 10167 bound_to 10162
  157.6377  131.0972  150.6937 H   0  0  0  0  0  0  0  0  0  0  0  0  # atno 10718 bound_to 10713
  154.4049  135.2755  155.2073 H   0  0  0  0  0  0  0  0  0  0  0  0  # atno 10763 bound_to 10752
  154.4083  135.6028  153.5941 H   0  0  0  0  0  0  0  0  0  0  0  0  # atno 10764 bound_to 10752
  152.9831  135.5943  154.4322 H   0  0  0  0  0  0  0  0  0  0  0  0  # atno 10765 bound_to 10752
  140.2660  134.3136  155.7842 H   0  0  0  0  0  0  0  0  0  0  0  0  # atno 11005 bound_to 11000
  146.3522  140.1148  142.8602 LP  0  0  0  0  0  0  0  0  0  0  0  0  # atno 17320 bound_to 7965
  145.0757  140.9186  143.4855 LP  0  0  0  0  0  0  0  0  0  0  0  0  # atno 17321 bound_to 7965
  139.9196  144.6807  150.8475 LP  0  0  0  0  0  0  0  0  0  0  0  0  # atno 17342 bound_to 10162
  140.7691  143.3384  151.2259 LP  0  0  0  0  0  0  0  0  0  0  0  0  # atno 17343 bound_to 10162
  156.7266  130.4697  149.5510 LP  0  0  0  0  0  0  0  0  0  0  0  0  # atno 17370 bound_to 10713
  156.1630  130.6386  151.0742 LP  0  0  0  0  0  0  0  0  0  0  0  0  # atno 17371 bound_to 10713
  141.2184  133.7438  156.9261 LP  0  0  0  0  0  0  0  0  0  0  0  0  # atno 17394 bound_to 11000
  140.1418  134.9288  157.2477 LP  0  0  0  0  0  0  0  0  0  0  0  0  # atno 17395 bound_to 11000

$$$$
