AV-unprocessed.smi:2498|AV-procd|sdf|9830|dock8
  -GOLD-   2272013463D 1   1.00000     0.00000
 Structure written by MMmdl.
 36 36  0  0  0  0  0  0  0  0  2 V2000
  151.4471  139.4497  157.9232 C   0  0  0  0  0  0  0  0  0  0  0  0
  151.8134  140.6687  158.7216 C   0  0  0  0  0  0  0  0  0  0  0  0
  152.6672  140.5392  159.7227 N   0  0  0  0  0  0  0  0  0  0  0  0
  152.8289  141.7883  160.2059 N   0  0  0  0  0  0  0  0  0  0  0  0
  153.7012  142.0103  161.3462 C   0  0  0  0  0  0  0  0  0  0  0  0
  153.0115  142.5689  162.3404 F   0  0  0  0  0  0  0  0  0  0  0  0
  154.2419  140.8624  161.7585 F   0  0  0  0  0  0  0  0  0  0  0  0
  152.0413  142.7020  159.5325 C   0  0  0  0  0  0  0  0  0  0  0  0
  152.0232  144.1526  159.8913 C   0  0  0  0  0  0  0  0  0  0  0  0
  151.3700  142.0152  158.5561 C   0  0  0  0  0  0  0  0  0  0  0  0
  150.4006  142.5519  157.5311 C   0  0  0  0  0  0  0  0  0  0  0  0
  149.0661  141.8166  157.6534 C   0  0  0  0  0  0  0  0  0  0  0  0
  148.9649  140.8754  158.4391 O   0  0  0  0  0  0  0  0  0  0  0  0
  148.0789  142.2783  156.8633 N   0  0  0  0  0  0  0  0  0  0  0  0
  146.6512  141.9415  156.7748 C   0  0  0  0  0  0  0  0  0  0  0  0
  146.0750  142.6553  155.5325 C   0  0  0  0  0  0  0  0  0  0  0  0
  146.3463  140.4236  156.6698 C   0  0  0  0  0  0  0  0  0  0  0  0
  146.0120  142.5079  158.0643 C   0  0  0  0  0  0  0  0  0  0  0  0
  145.1172  143.3750  157.9458 O   0  0  0  0  0  0  0  0  0  0  0  0
  146.3911  142.0332  159.1589 O   0  5  0  0  0  0  0  0  0  0  0  0
  150.6576  139.6605  157.2027 H   0  0  0  0  0  0  0  0  0  0  0  0
  151.0964  138.6454  158.5702 H   0  0  0  0  0  0  0  0  0  0  0  0
  152.3073  139.0783  157.3655 H   0  0  0  0  0  0  0  0  0  0  0  0
  154.5175  142.6802  161.0759 H   0  0  0  0  0  0  0  0  0  0  0  0
  151.2535  144.6896  159.3378 H   0  0  0  0  0  0  0  0  0  0  0  0
  152.9820  144.6175  159.6620 H   0  0  0  0  0  0  0  0  0  0  0  0
  151.8251  144.2880  160.9547 H   0  0  0  0  0  0  0  0  0  0  0  0
  150.2299  143.6212  157.6575 H   0  0  0  0  0  0  0  0  0  0  0  0
  150.7850  142.4327  156.5178 H   0  0  0  0  0  0  0  0  0  0  0  0
  148.3408  143.0538  156.2722 H   0  0  0  0  0  0  0  0  0  0  0  0
  144.9925  142.5360  155.4706 H   0  0  0  0  0  0  0  0  0  0  0  0
  146.5003  142.2456  154.6159 H   0  0  0  0  0  0  0  0  0  0  0  0
  146.2915  143.7248  155.5337 H   0  0  0  0  0  0  0  0  0  0  0  0
  145.2721  140.2360  156.6996 H   0  0  0  0  0  0  0  0  0  0  0  0
  146.7969  139.8514  157.4821 H   0  0  0  0  0  0  0  0  0  0  0  0
  146.7108  140.0076  155.7302 H   0  0  0  0  0  0  0  0  0  0  0  0
  1  2  1  0  0  0  0
  1 21  1  0  0  0  0
  1 22  1  0  0  0  0
  1 23  1  0  0  0  0
  2 10  1  0  0  0  0
  2  3  2  0  0  0  0
  3  4  1  0  0  0  0
  4  5  1  0  0  0  0
  4  8  1  0  0  0  0
  5  6  1  0  0  0  0
  5  7  1  0  0  0  0
  5 24  1  0  0  0  0
  8  9  1  0  0  0  0
  8 10  2  0  0  0  0
  9 25  1  0  0  0  0
  9 26  1  0  0  0  0
  9 27  1  0  0  0  0
 10 11  1  0  0  0  0
 11 12  1  0  0  0  0
 11 28  1  0  0  0  0
 11 29  1  0  0  0  0
 12 13  2  0  0  0  0
 12 14  1  0  0  0  0
 14 15  1  0  0  0  0
 14 30  1  0  0  0  0
 15 16  1  0  0  0  0
 15 17  1  0  0  0  0
 15 18  1  0  0  0  0
 16 31  1  0  0  0  0
 16 32  1  0  0  0  0
 16 33  1  0  0  0  0
 17 34  1  0  0  0  0
 17 35  1  0  0  0  0
 17 36  1  0  0  0  0
 18 19  2  0  0  0  0
 18 20  1  0  0  0  0
M  CHG  1  20  -1
M  END
> <s_m_source_file>
AV-unprocessed.smi

> <i_m_source_file_index>
2498

> <i_lp_mmshare_version>
43012

> <i_f3d_flags>
0

> <s_epik_input>
W0NIM11jMW5uKFtDSF0oRilGKWMoW0NIM10pYzFbQ0gyXUMoPU8pW05IXUMoW0NIM10pKFtDSDNdKUMoPU8pW09IXQ==

> <s_epik_cmdline>
J2VwaWtfcHl0aG9uJywgJy1waCcsICc3LjAnLCAnLXRuJywgJzgnLCAnLW1hJywgJzIwMCcsICctbWV0YWxfYmluZGluZycsICctaW1hZScsICc8aW5maWxlLm1hZT4nLCAnLW9tYWUnLCAnPG91dGZpbGUubWFlPic=

> <r_lp_tautomer_probability>
1

> <r_epik_Ionization_Penalty>
0.000275972

> <r_epik_Ionization_Penalty_Charging>
0.000275542

> <r_epik_Ionization_Penalty_Neutral>
4.29922e-07

> <r_epik_State_Penalty>
-0

> <r_epik_Charging_Adjusted_Penalty>
0.000275542

> <i_epik_Tot_Q>
-1

> <i_epik_Tot_abs_Q>
1

> <r_epik_Metal_State_Penalty>
-0

> <b_epik_Metal_Only>
0

> <s_lp_Force_Field>
OPLS_2005

> <r_lp_Energy>
1.362

> <b_lp_Chiralities_Consistent>
1

> <s_lp_Variant>
AV-unprocessed.smi:2498-1

> <Gold.Version>
5.8.1

> <Gold.Id.Protein>
6NUR|6NUR_protein|mol2

> <Gold.PLP.Fitness>
45.0157

> <Gold.PLP.PLP>
-36.3873

> <Gold.PLP.part.hbond>
-3.0781

> <Gold.PLP.part.metal>
0.0000

> <Gold.PLP.part.buried>
-4.2441

> <Gold.PLP.part.nonpolar>
-30.2085

> <Gold.PLP.part.repulsive>
0.1339

> <Gold.PLP.ligand.clash>
0.0000

> <Gold.PLP.ligand.torsion>
0.1956

> <Gold.PLP.Chemscore.Hbond>
2.9840

> <Gold.PLP.Chemscore.CHOScore>
0.0000

> <Gold.PLP.Chemscore.Metal>
0.0000

> <Gold.Chemscore.Hbonds>
donor molecule, donor type, donor heavy atom, donor atom, acceptor molecule, acceptor atom, score
      L1  H    14    30       P1  8028  1.00
      P1  H  6934  6946       L1    20  1.89

> <Gold.PLP.Chemscore.Internal.Correction>
0.0675

> <Gold.Rescore>
     Score         DG    S(hbond)    S(metal)    S(lipo)     H(rot)  DE(clash)    DE(int)     intcor
     11.39     -13.96       1.77        0.00      68.86       2.15       0.02       2.55       ----

> <Gold.Chemscore.Fitness>
11.3923

> <Gold.Chemscore.DG>
-13.9570

> <Gold.Chemscore.ZeroCoef>
-5.4800

> <Gold.Chemscore.Hbond>
1.7739

> <Gold.Chemscore.Metal>
0.0000

> <Gold.Chemscore.Lipo>
68.8599

> <Gold.Chemscore.Internal_Hbond>
0.0000

> <Gold.Chemscore.DEClash>
0.0170

> <Gold.Chemscore.DEInternal>
2.5478

> <Gold.Chemscore.Rot>
2.1501

> <Gold.Chemscore.Internal.Correction>
   9.000000E+99

> <Gold.Chemscore.Hbonds>
donor molecule, donor type, donor heavy atom, donor atom, acceptor molecule, acceptor atom, score
      L1  H    14    30       P1  8028  0.78
      P1  H  6934  6946       L1    20  0.88

> <Gold.Chemscore.Hbond.Weighted>
-5.9247

> <Gold.Chemscore.Metal.Weighted>
-0.0000

> <Gold.Chemscore.Lipo.Weighted>
-8.0566

> <Gold.Chemscore.Internal_Hbond.Weighted>
0.0000

> <Gold.Chemscore.DEClash.Weighted>
0.0170

> <Gold.Chemscore.DEInternal.Weighted>
2.5478

> <Gold.Chemscore.Rot.Weighted>
5.5043

> <Gold.Chemscore.Internal.Correction.Weighted>
   9.000000E+99

> <Gold.Protein.RotatedTorsions>
[ 6907 6896 6895 6894 ] final  131.95 input  -60.11 | X-H torsion
[ 7974 7965 7964 7962 ] final  -75.56 input  175.53 | X-H torsion
[ 8008 7997 7996 7995 ] final  -67.81 input   59.86 | X-H torsion
[ 10167 10162 10161 10158 ] final   38.35 input  -65.29 | X-H torsion
[ 10718 10713 10712 10709 ] final  130.92 input   66.30 | X-H torsion
[ 10763 10752 10751 10750 ] final    6.50 input  -60.55 | X-H torsion
[ 11005 11000 10999 10996 ] final   95.66 input  -57.11 | X-H torsion

> <Gold.Protein.ActiveResidues>
 VAL166  LYS551  ARG553  GLY616  TRP617  ASP618  TYR619  PRO620  LYS621  CYS622 
 ASP623  PHE694  ASN695  SER759  ASP760  ASP761  ALA762  ILE779  LEU786  VAL792 
 PHE793  MET794  SER795  GLU796  ALA797  LYS798  CYS799  TRP800  GLU811  SER814 

> <Gold.Protein.RotatedAtoms>
  152.3374  133.6027  159.5851 H   0  0  0  0  0  0  0  0  0  0  0  0  # atno 6907 bound_to 6896
  150.7458  133.9775  159.3574 H   0  0  0  0  0  0  0  0  0  0  0  0  # atno 6908 bound_to 6896
  151.7644  135.0803  160.0401 H   0  0  0  0  0  0  0  0  0  0  0  0  # atno 6909 bound_to 6896
  145.6243  140.9354  143.1121 H   0  0  0  0  0  0  0  0  0  0  0  0  # atno 7974 bound_to 7965
  154.4825  140.0885  156.7410 H   0  0  0  0  0  0  0  0  0  0  0  0  # atno 8008 bound_to 7997
  155.4435  140.3454  155.4274 H   0  0  0  0  0  0  0  0  0  0  0  0  # atno 8009 bound_to 7997
  156.1212  140.1475  156.9190 H   0  0  0  0  0  0  0  0  0  0  0  0  # atno 8010 bound_to 7997
  140.3945  144.1807  150.6131 H   0  0  0  0  0  0  0  0  0  0  0  0  # atno 10167 bound_to 10162
  157.5016  131.1094  150.9418 H   0  0  0  0  0  0  0  0  0  0  0  0  # atno 10718 bound_to 10713
  153.2470  135.6909  153.7720 H   0  0  0  0  0  0  0  0  0  0  0  0  # atno 10763 bound_to 10752
  153.6829  135.3325  155.3183 H   0  0  0  0  0  0  0  0  0  0  0  0  # atno 10764 bound_to 10752
  154.8379  135.4526  154.1413 H   0  0  0  0  0  0  0  0  0  0  0  0  # atno 10765 bound_to 10752
  139.8787  134.8910  156.4043 H   0  0  0  0  0  0  0  0  0  0  0  0  # atno 11005 bound_to 11000
  144.7218  139.8004  143.7379 LP  0  0  0  0  0  0  0  0  0  0  0  0  # atno 17320 bound_to 7965
  146.1406  139.4462  143.0111 LP  0  0  0  0  0  0  0  0  0  0  0  0  # atno 17321 bound_to 7965
  140.4805  143.2381  151.8962 LP  0  0  0  0  0  0  0  0  0  0  0  0  # atno 17342 bound_to 10162
  139.4787  144.5275  151.8714 LP  0  0  0  0  0  0  0  0  0  0  0  0  # atno 17343 bound_to 10162
  157.0087  130.5628  149.5318 LP  0  0  0  0  0  0  0  0  0  0  0  0  # atno 17370 bound_to 10713
  156.0233  130.5327  150.8336 LP  0  0  0  0  0  0  0  0  0  0  0  0  # atno 17371 bound_to 10713
  140.9245  133.7622  155.9947 LP  0  0  0  0  0  0  0  0  0  0  0  0  # atno 17394 bound_to 11000
  140.8402  134.3076  157.5316 LP  0  0  0  0  0  0  0  0  0  0  0  0  # atno 17395 bound_to 11000

$$$$
