AV-unprocessed.smi:1900|AV-procd|sdf|7709|dock10
  -GOLD-   22720 9443D 1   1.00000     0.00000
 Structure written by MMmdl.
 44 45  0  0  0  0  0  0  0  0  2 V2000
  150.5165  141.2302  157.1703 C   0  0  0  0  0  0  0  0  0  0  0  0
  150.5560  141.3402  155.6357 C   0  0  2  0  0  0  0  0  0  0  0  0
  149.1633  141.2793  154.9778 C   0  0  0  0  0  0  0  0  0  0  0  0
  148.6150  139.9023  155.0042 N   0  3  1  0  0  0  0  0  0  0  0  0
  147.2490  139.8297  154.4281 C   0  0  0  0  0  0  0  0  0  0  0  0
  147.2428  139.2953  152.9858 C   0  0  0  0  0  0  0  0  0  0  0  0
  146.0322  138.3873  152.7107 C   0  0  0  0  0  0  0  0  0  0  0  0
  146.4260  137.1265  152.0918 N   0  0  0  0  0  0  0  0  0  0  0  0
  145.5766  136.1642  151.7040 C   0  0  0  0  0  0  0  0  0  0  0  0
  144.3531  136.2571  151.8062 O   0  0  0  0  0  0  0  0  0  0  0  0
  146.2318  135.1056  151.2001 N   0  0  0  0  0  0  0  0  0  0  0  0
  145.6683  133.9051  150.6982 C   0  0  0  0  0  0  0  0  0  0  0  0
  144.3505  133.7843  150.1797 C   0  0  0  0  0  0  0  0  0  0  0  0
  144.0977  132.5448  149.7843 N   0  0  0  0  0  0  0  0  0  0  0  0
  145.2408  131.8726  150.0477 N   0  0  0  0  0  0  0  0  0  0  0  0
  146.2243  132.6601  150.6045 C   0  0  0  0  0  0  0  0  0  0  0  0
  149.5728  138.9574  154.3805 C   0  0  0  0  0  0  0  0  0  0  0  0
  150.9395  139.0319  155.0850 C   0  0  1  0  0  0  0  0  0  0  0  0
  151.9825  138.1351  154.4088 C   0  0  0  0  0  0  0  0  0  0  0  0
  151.4229  140.3720  155.0456 O   0  0  0  0  0  0  0  0  0  0  0  0
  145.3340  130.8877  149.8433 H   0  0  0  0  0  0  0  0  0  0  0  0
  149.9578  142.0609  157.6022 H   0  0  0  0  0  0  0  0  0  0  0  0
  151.5231  141.2594  157.5881 H   0  0  0  0  0  0  0  0  0  0  0  0
  150.0403  140.3106  157.5086 H   0  0  0  0  0  0  0  0  0  0  0  0
  150.9895  142.3131  155.4021 H   0  0  0  0  0  0  0  0  0  0  0  0
  148.4841  141.9661  155.4845 H   0  0  0  0  0  0  0  0  0  0  0  0
  149.2327  141.6125  153.9410 H   0  0  0  0  0  0  0  0  0  0  0  0
  146.6420  139.1584  155.0375 H   0  0  0  0  0  0  0  0  0  0  0  0
  146.7717  140.8095  154.4803 H   0  0  0  0  0  0  0  0  0  0  0  0
  147.2336  140.1251  152.2798 H   0  0  0  0  0  0  0  0  0  0  0  0
  148.1628  138.7401  152.7985 H   0  0  0  0  0  0  0  0  0  0  0  0
  145.5186  138.1585  153.6448 H   0  0  0  0  0  0  0  0  0  0  0  0
  145.3071  138.8993  152.0758 H   0  0  0  0  0  0  0  0  0  0  0  0
  147.4156  136.9655  151.9711 H   0  0  0  0  0  0  0  0  0  0  0  0
  147.2397  135.1581  151.1828 H   0  0  0  0  0  0  0  0  0  0  0  0
  143.5856  134.5400  150.0778 H   0  0  0  0  0  0  0  0  0  0  0  0
  147.1949  132.2698  150.8719 H   0  0  0  0  0  0  0  0  0  0  0  0
  149.1961  137.9371  154.4413 H   0  0  0  0  0  0  0  0  0  0  0  0
  149.6806  139.1941  153.3206 H   0  0  0  0  0  0  0  0  0  0  0  0
  150.8364  138.7073  156.1207 H   0  0  0  0  0  0  0  0  0  0  0  0
  151.6684  137.0910  154.4188 H   0  0  0  0  0  0  0  0  0  0  0  0
  152.9423  138.1974  154.9223 H   0  0  0  0  0  0  0  0  0  0  0  0
  152.1413  138.4269  153.3703 H   0  0  0  0  0  0  0  0  0  0  0  0
  148.5344  139.6467  155.9780 H   0  0  0  0  0  0  0  0  0  0  0  0
  1  2  1  0  0  0  0
  1 22  1  0  0  0  0
  1 23  1  0  0  0  0
  1 24  1  0  0  0  0
  2 20  1  0  0  0  0
  2  3  1  0  0  0  0
  2 25  1  0  0  0  0
  3  4  1  0  0  0  0
  3 26  1  0  0  0  0
  3 27  1  0  0  0  0
  4  5  1  0  0  0  0
  4 17  1  0  0  0  0
  4 44  1  0  0  0  0
  5  6  1  0  0  0  0
  5 28  1  0  0  0  0
  5 29  1  0  0  0  0
  6  7  1  0  0  0  0
  6 30  1  0  0  0  0
  6 31  1  0  0  0  0
  7  8  1  0  0  0  0
  7 32  1  0  0  0  0
  7 33  1  0  0  0  0
  8  9  1  0  0  0  0
  8 34  1  0  0  0  0
  9 10  2  0  0  0  0
  9 11  1  0  0  0  0
 11 12  1  0  0  0  0
 11 35  1  0  0  0  0
 12 16  2  0  0  0  0
 12 13  1  0  0  0  0
 13 14  2  0  0  0  0
 13 36  1  0  0  0  0
 14 15  1  0  0  0  0
 15 21  1  0  0  0  0
 15 16  1  0  0  0  0
 16 37  1  0  0  0  0
 17 18  1  0  0  0  0
 17 38  1  0  0  0  0
 17 39  1  0  0  0  0
 18 19  1  0  0  0  0
 18 20  1  0  0  0  0
 18 40  1  0  0  0  0
 19 41  1  0  0  0  0
 19 42  1  0  0  0  0
 19 43  1  0  0  0  0
M  CHG  1   4   1
M  END
> <s_m_source_file>
AV-unprocessed.smi

> <i_m_source_file_index>
1900

> <i_lp_mmshare_version>
43012

> <i_f3d_flags>
0

> <s_epik_input>
W0NIM11bQ0BASF0xW0NIMl1OKFtDSDJdW0NASF0oTzEpW0NIM10pW0NIMl1bQ0gyXVtDSDJdW05IXUMoPU8pW05IXWMyW2NIXW5bbkhdW2NIXTI=

> <s_epik_cmdline>
J2VwaWtfcHl0aG9uJywgJy1waCcsICc3LjAnLCAnLXRuJywgJzgnLCAnLW1hJywgJzIwMCcsICctbWV0YWxfYmluZGluZycsICctaW1hZScsICc8aW5maWxlLm1hZT4nLCAnLW9tYWUnLCAnPG91dGZpbGUubWFlPic=

> <r_lp_tautomer_probability>
0.5

> <r_epik_Ionization_Penalty>
0.270543

> <r_epik_Ionization_Penalty_Charging>
0.270496

> <r_epik_Ionization_Penalty_Neutral>
4.67091e-05

> <r_epik_State_Penalty>
0.262618

> <r_epik_Charging_Adjusted_Penalty>
0.533114

> <i_epik_Tot_Q>
1

> <i_epik_Tot_abs_Q>
1

> <r_epik_Metal_State_Penalty>
0.262618

> <b_epik_Metal_Only>
0

> <s_lp_Force_Field>
OPLS_2005

> <r_lp_Energy>
21.2497

> <b_lp_Chiralities_Consistent>
1

> <s_lp_Variant>
AV-unprocessed.smi:1900-1

> <Gold.Version>
5.8.1

> <Gold.Id.Protein>
6NUR|6NUR_protein|mol2

> <Gold.PLP.Fitness>
44.3927

> <Gold.PLP.PLP>
-33.5963

> <Gold.PLP.part.hbond>
-3.0000

> <Gold.PLP.part.metal>
0.0000

> <Gold.PLP.part.buried>
-3.7455

> <Gold.PLP.part.nonpolar>
-27.2507

> <Gold.PLP.part.repulsive>
0.9164

> <Gold.PLP.ligand.clash>
0.4918

> <Gold.PLP.ligand.torsion>
1.2682

> <Gold.PLP.Chemscore.Hbond>
2.8050

> <Gold.PLP.Chemscore.CHOScore>
1.7943

> <Gold.PLP.Chemscore.Metal>
0.0000

> <Gold.Chemscore.Hbonds>
donor molecule, donor type, donor heavy atom, donor atom, acceptor molecule, acceptor atom, score
      L1  H     8    34       P1  7948  1.00
      L1  H    11    35       P1  7948  0.84
      P1  H  7989  7998       L1    20  0.98
      L1  C    13    36       P1 10186  0.76
      L1  C    16    37       P1 10747  1.00

> <Gold.PLP.Chemscore.Internal.Correction>
0.0268

> <Gold.Rescore>
     Score         DG    S(hbond)    S(metal)    S(lipo)     H(rot)  DE(clash)    DE(int)     intcor
     14.76     -17.25       2.19        0.00      80.47       1.93       0.05       2.44       ----

> <Gold.Chemscore.Fitness>
14.7627

> <Gold.Chemscore.DG>
-17.2518

> <Gold.Chemscore.ZeroCoef>
-5.4800

> <Gold.Chemscore.Hbond>
2.1885

> <Gold.Chemscore.Metal>
0.0000

> <Gold.Chemscore.Lipo>
80.4714

> <Gold.Chemscore.Internal_Hbond>
0.0000

> <Gold.Chemscore.DEClash>
0.0462

> <Gold.Chemscore.DEInternal>
2.4430

> <Gold.Chemscore.Rot>
1.9347

> <Gold.Chemscore.Internal.Correction>
   9.000000E+99

> <Gold.Chemscore.Hbonds>
donor molecule, donor type, donor heavy atom, donor atom, acceptor molecule, acceptor atom, score
      L1  H     8    34       P1  7948  1.00
      L1  H    11    35       P1  7948  0.51
      P1  H  7989  7998       L1    20  0.38

> <Gold.Chemscore.Hbond.Weighted>
-7.3095

> <Gold.Chemscore.Metal.Weighted>
-0.0000

> <Gold.Chemscore.Lipo.Weighted>
-9.4152

> <Gold.Chemscore.Internal_Hbond.Weighted>
0.0000

> <Gold.Chemscore.DEClash.Weighted>
0.0462

> <Gold.Chemscore.DEInternal.Weighted>
2.4430

> <Gold.Chemscore.Rot.Weighted>
4.9528

> <Gold.Chemscore.Internal.Correction.Weighted>
   9.000000E+99

> <Gold.Protein.RotatedTorsions>
[ 6907 6896 6895 6894 ] final   42.82 input  -60.11 | X-H torsion
[ 7974 7965 7964 7962 ] final  -62.61 input  175.53 | X-H torsion
[ 8008 7997 7996 7995 ] final   75.82 input   59.86 | X-H torsion
[ 10167 10162 10161 10158 ] final   66.08 input  -65.29 | X-H torsion
[ 10718 10713 10712 10709 ] final -124.75 input   66.30 | X-H torsion
[ 10763 10752 10751 10750 ] final -161.97 input  -60.55 | X-H torsion
[ 11005 11000 10999 10996 ] final  129.92 input  -57.11 | X-H torsion

> <Gold.Protein.ActiveResidues>
 VAL166  LYS551  ARG553  GLY616  TRP617  ASP618  TYR619  PRO620  LYS621  CYS622 
 ASP623  PHE694  ASN695  SER759  ASP760  ASP761  ALA762  ILE779  LEU786  VAL792 
 PHE793  MET794  SER795  GLU796  ALA797  LYS798  CYS799  TRP800  GLU811  SER814 

> <Gold.Protein.RotatedAtoms>
  152.2126  134.8487  160.0495 H   0  0  0  0  0  0  0  0  0  0  0  0  # atno 6907 bound_to 6896
  151.9300  133.3603  159.3935 H   0  0  0  0  0  0  0  0  0  0  0  0  # atno 6908 bound_to 6896
  150.6980  134.4472  159.5363 H   0  0  0  0  0  0  0  0  0  0  0  0  # atno 6909 bound_to 6896
  145.7892  140.8719  143.0289 H   0  0  0  0  0  0  0  0  0  0  0  0  # atno 7974 bound_to 7965
  155.8184  140.3470  155.5499 H   0  0  0  0  0  0  0  0  0  0  0  0  # atno 8008 bound_to 7997
  155.8368  140.0935  157.1779 H   0  0  0  0  0  0  0  0  0  0  0  0  # atno 8009 bound_to 7997
  154.4004  140.1402  156.3668 H   0  0  0  0  0  0  0  0  0  0  0  0  # atno 8010 bound_to 7997
  140.1044  144.4875  150.7017 H   0  0  0  0  0  0  0  0  0  0  0  0  # atno 10167 bound_to 10162
  156.1615  130.6605  151.0056 H   0  0  0  0  0  0  0  0  0  0  0  0  # atno 10718 bound_to 10713
  154.7256  135.3035  154.8976 H   0  0  0  0  0  0  0  0  0  0  0  0  # atno 10763 bound_to 10752
  153.9834  135.6727  153.4755 H   0  0  0  0  0  0  0  0  0  0  0  0  # atno 10764 bound_to 10752
  153.0872  135.4978  154.8539 H   0  0  0  0  0  0  0  0  0  0  0  0  # atno 10765 bound_to 10752
  139.9642  134.9595  156.9218 H   0  0  0  0  0  0  0  0  0  0  0  0  # atno 11005 bound_to 11000
  144.6784  140.0099  143.7484 LP  0  0  0  0  0  0  0  0  0  0  0  0  # atno 17320 bound_to 7965
  145.9994  139.3079  143.0937 LP  0  0  0  0  0  0  0  0  0  0  0  0  # atno 17321 bound_to 7965
  140.6960  143.2404  151.4998 LP  0  0  0  0  0  0  0  0  0  0  0  0  # atno 17342 bound_to 10162
  139.5654  144.2056  152.1756 LP  0  0  0  0  0  0  0  0  0  0  0  0  # atno 17343 bound_to 10162
  157.6736  131.0855  150.7551 LP  0  0  0  0  0  0  0  0  0  0  0  0  # atno 17370 bound_to 10713
  156.7613  130.4799  149.5436 LP  0  0  0  0  0  0  0  0  0  0  0  0  # atno 17371 bound_to 10713
  140.5432  134.0699  155.7347 LP  0  0  0  0  0  0  0  0  0  0  0  0  # atno 17394 bound_to 11000
  141.1321  133.9284  157.2512 LP  0  0  0  0  0  0  0  0  0  0  0  0  # atno 17395 bound_to 11000

$$$$
