AV-unprocessed.smi:1247|AV-procd|sdf|5244|dock1
  -GOLD-   22720 4353D 1   1.00000     0.00000
 Structure written by MMmdl.
 46 47  0  0  0  0  0  0  0  0  1 V2000
  153.8464  141.8528  160.7066 C   0  0  0  0  0  0  0  0  0  0  0  0
  152.8714  142.4481  159.7341 C   0  0  0  0  0  0  0  0  0  0  0  0
  152.1582  141.7884  158.6912 C   0  0  0  0  0  0  0  0  0  0  0  0
  151.4277  142.8039  158.1370 C   0  0  0  0  0  0  0  0  0  0  0  0
  150.5504  142.7588  157.0994 N   0  0  0  0  0  0  0  0  0  0  0  0
  150.3297  141.7580  156.2291 C   0  0  0  0  0  0  0  0  0  0  0  0
  150.9272  140.6815  156.2119 O   0  0  0  0  0  0  0  0  0  0  0  0
  149.3639  142.0800  155.3569 N   0  0  0  0  0  0  0  0  0  0  0  0
  148.8859  141.2180  154.2828 C   0  0  0  0  0  0  0  0  0  0  0  0
  147.5837  141.7629  153.6671 C   0  0  0  0  0  0  0  0  0  0  0  0
  146.5398  142.1016  154.6326 N   0  0  0  0  0  0  0  0  0  0  0  0
  145.5913  143.0854  154.1146 C   0  0  0  0  0  0  0  0  0  0  0  0
  144.4689  143.4186  155.1183 C   0  0  2  0  0  0  0  0  0  0  0  0
  144.9386  144.3036  156.2856 C   0  0  0  0  0  0  0  0  0  0  0  0
  143.8428  142.2206  155.5804 O   0  0  0  0  0  0  0  0  0  0  0  0
  144.7310  141.2323  156.0989 C   0  0  1  0  0  0  0  0  0  0  0  0
  143.9040  139.9973  156.4714 C   0  0  0  0  0  0  0  0  0  0  0  0
  145.8080  140.9113  155.0470 C   0  0  0  0  0  0  0  0  0  0  0  0
  151.6986  143.9699  158.8177 N   0  0  0  0  0  0  0  0  0  0  0  0
  151.1702  145.3036  158.6066 C   0  0  0  0  0  0  0  0  0  0  0  0
  152.5946  143.7456  159.8030 N   0  0  0  0  0  0  0  0  0  0  0  0
  153.9231  140.7731  160.5767 H   0  0  0  0  0  0  0  0  0  0  0  0
  153.5400  142.0410  161.7359 H   0  0  0  0  0  0  0  0  0  0  0  0
  154.8425  142.2748  160.5713 H   0  0  0  0  0  0  0  0  0  0  0  0
  152.1904  140.7452  158.4158 H   0  0  0  0  0  0  0  0  0  0  0  0
  149.9947  143.5914  156.9698 H   0  0  0  0  0  0  0  0  0  0  0  0
  148.9264  142.9857  155.4417 H   0  0  0  0  0  0  0  0  0  0  0  0
  149.6550  141.1075  153.5163 H   0  0  0  0  0  0  0  0  0  0  0  0
  148.7278  140.2285  154.7106 H   0  0  0  0  0  0  0  0  0  0  0  0
  147.8082  142.6319  153.0469 H   0  0  0  0  0  0  0  0  0  0  0  0
  147.1931  141.0041  152.9875 H   0  0  0  0  0  0  0  0  0  0  0  0
  146.1047  144.0077  153.8446 H   0  0  0  0  0  0  0  0  0  0  0  0
  145.1407  142.7040  153.1971 H   0  0  0  0  0  0  0  0  0  0  0  0
  143.6999  143.9789  154.5855 H   0  0  0  0  0  0  0  0  0  0  0  0
  145.3097  145.2612  155.9203 H   0  0  0  0  0  0  0  0  0  0  0  0
  145.7438  143.8393  156.8546 H   0  0  0  0  0  0  0  0  0  0  0  0
  144.1180  144.5080  156.9734 H   0  0  0  0  0  0  0  0  0  0  0  0
  145.2071  141.6114  157.0036 H   0  0  0  0  0  0  0  0  0  0  0  0
  144.5371  139.2120  156.8852 H   0  0  0  0  0  0  0  0  0  0  0  0
  143.3892  139.5899  155.6008 H   0  0  0  0  0  0  0  0  0  0  0  0
  143.1500  140.2444  157.2190 H   0  0  0  0  0  0  0  0  0  0  0  0
  145.3416  140.4444  154.1779 H   0  0  0  0  0  0  0  0  0  0  0  0
  146.5020  140.1773  155.4586 H   0  0  0  0  0  0  0  0  0  0  0  0
  150.0829  145.2829  158.6822 H   0  0  0  0  0  0  0  0  0  0  0  0
  151.4529  145.6560  157.6142 H   0  0  0  0  0  0  0  0  0  0  0  0
  151.5627  145.9956  159.3530 H   0  0  0  0  0  0  0  0  0  0  0  0
  1  2  1  0  0  0  0
  1 22  1  0  0  0  0
  1 23  1  0  0  0  0
  1 24  1  0  0  0  0
  2 21  2  0  0  0  0
  2  3  1  0  0  0  0
  3  4  2  0  0  0  0
  3 25  1  0  0  0  0
  4  5  1  0  0  0  0
  4 19  1  0  0  0  0
  5  6  1  0  0  0  0
  5 26  1  0  0  0  0
  6  7  2  0  0  0  0
  6  8  1  0  0  0  0
  8  9  1  0  0  0  0
  8 27  1  0  0  0  0
  9 10  1  0  0  0  0
  9 28  1  0  0  0  0
  9 29  1  0  0  0  0
 10 11  1  0  0  0  0
 10 30  1  0  0  0  0
 10 31  1  0  0  0  0
 11 18  1  0  0  0  0
 11 12  1  0  0  0  0
 12 13  1  0  0  0  0
 12 32  1  0  0  0  0
 12 33  1  0  0  0  0
 13 14  1  0  0  0  0
 13 15  1  0  0  0  0
 13 34  1  0  0  0  0
 14 35  1  0  0  0  0
 14 36  1  0  0  0  0
 14 37  1  0  0  0  0
 15 16  1  0  0  0  0
 16 17  1  0  0  0  0
 16 18  1  0  0  0  0
 16 38  1  0  0  0  0
 17 39  1  0  0  0  0
 17 40  1  0  0  0  0
 17 41  1  0  0  0  0
 18 42  1  0  0  0  0
 18 43  1  0  0  0  0
 19 20  1  0  0  0  0
 19 21  1  0  0  0  0
 20 44  1  0  0  0  0
 20 45  1  0  0  0  0
 20 46  1  0  0  0  0
M  END
> <s_m_source_file>
AV-unprocessed.smi

> <i_m_source_file_index>
1247

> <i_lp_mmshare_version>
43012

> <i_f3d_flags>
0

> <s_epik_input>
W0NIM11jMVtjSF1jKG4objEpW0NIM10pW05IXUMoPU8pW05IXVtDSDJdW0NIMl1OMltDSDJdW0NAQEhdKFtDSDNdKU9bQ0BASF0oW0NIM10pW0NIMl0y

> <s_epik_cmdline>
J2VwaWtfcHl0aG9uJywgJy1waCcsICc3LjAnLCAnLXRuJywgJzgnLCAnLW1hJywgJzIwMCcsICctbWV0YWxfYmluZGluZycsICctaW1hZScsICc8aW5maWxlLm1hZT4nLCAnLW9tYWUnLCAnPG91dGZpbGUubWFlPic=

> <r_lp_tautomer_probability>
1

> <r_epik_Ionization_Penalty>
0.233972

> <r_epik_Ionization_Penalty_Charging>
0

> <r_epik_Ionization_Penalty_Neutral>
0.233972

> <r_epik_State_Penalty>
0.224627

> <r_epik_Charging_Adjusted_Penalty>
0.224627

> <i_epik_Tot_Q>
0

> <i_epik_Tot_abs_Q>
0

> <r_epik_Metal_State_Penalty>
0.224624

> <b_epik_Metal_Only>
0

> <s_lp_Force_Field>
OPLS_2005

> <r_lp_Energy>
23.1298

> <b_lp_Chiralities_Consistent>
1

> <s_lp_Variant>
AV-unprocessed.smi:1247-2

> <Gold.Version>
5.8.1

> <Gold.Id.Protein>
6NUR|6NUR_protein|mol2

> <Gold.PLP.Fitness>
44.5865

> <Gold.PLP.PLP>
-39.4123

> <Gold.PLP.part.hbond>
-2.0000

> <Gold.PLP.part.metal>
0.0000

> <Gold.PLP.part.buried>
-7.3477

> <Gold.PLP.part.nonpolar>
-29.5794

> <Gold.PLP.part.repulsive>
0.5333

> <Gold.PLP.ligand.clash>
0.0000

> <Gold.PLP.ligand.torsion>
0.3492

> <Gold.PLP.Chemscore.Hbond>
1.9360

> <Gold.PLP.Chemscore.CHOScore>
0.0000

> <Gold.PLP.Chemscore.Metal>
0.0000

> <Gold.Chemscore.Hbonds>
donor molecule, donor type, donor heavy atom, donor atom, acceptor molecule, acceptor atom, score
      L1  H     5    26       P1  8028  0.92
      L1  H     8    27       P1  8028  1.00

> <Gold.PLP.Chemscore.Internal.Correction>
0.0644

> <Gold.Rescore>
     Score         DG    S(hbond)    S(metal)    S(lipo)     H(rot)  DE(clash)    DE(int)     intcor
     15.40     -16.92       1.91        0.00      75.66       1.48       0.10       1.43       ----

> <Gold.Chemscore.Fitness>
15.3954

> <Gold.Chemscore.DG>
-16.9199

> <Gold.Chemscore.ZeroCoef>
-5.4800

> <Gold.Chemscore.Hbond>
1.9121

> <Gold.Chemscore.Metal>
0.0000

> <Gold.Chemscore.Lipo>
75.6583

> <Gold.Chemscore.Internal_Hbond>
0.0000

> <Gold.Chemscore.DEClash>
0.0960

> <Gold.Chemscore.DEInternal>
1.4285

> <Gold.Chemscore.Rot>
1.4838

> <Gold.Chemscore.Internal.Correction>
   9.000000E+99

> <Gold.Chemscore.Hbonds>
donor molecule, donor type, donor heavy atom, donor atom, acceptor molecule, acceptor atom, score
      L1  H     5    26       P1  8028  0.82
      L1  H     8    27       P1  8028  0.99

> <Gold.Chemscore.Hbond.Weighted>
-6.3864

> <Gold.Chemscore.Metal.Weighted>
-0.0000

> <Gold.Chemscore.Lipo.Weighted>
-8.8520

> <Gold.Chemscore.Internal_Hbond.Weighted>
0.0000

> <Gold.Chemscore.DEClash.Weighted>
0.0960

> <Gold.Chemscore.DEInternal.Weighted>
1.4285

> <Gold.Chemscore.Rot.Weighted>
3.7985

> <Gold.Chemscore.Internal.Correction.Weighted>
   9.000000E+99

> <Gold.Protein.RotatedTorsions>
[ 6907 6896 6895 6894 ] final -153.47 input  -60.11 | X-H torsion
[ 7974 7965 7964 7962 ] final  107.59 input  175.53 | X-H torsion
[ 8008 7997 7996 7995 ] final -163.68 input   59.86 | X-H torsion
[ 10167 10162 10161 10158 ] final    4.16 input  -65.29 | X-H torsion
[ 10718 10713 10712 10709 ] final -175.10 input   66.30 | X-H torsion
[ 10763 10752 10751 10750 ] final  146.84 input  -60.55 | X-H torsion
[ 11005 11000 10999 10996 ] final -149.93 input  -57.11 | X-H torsion

> <Gold.Protein.ActiveResidues>
 VAL166  LYS551  ARG553  GLY616  TRP617  ASP618  TYR619  PRO620  LYS621  CYS622 
 ASP623  PHE694  ASN695  SER759  ASP760  ASP761  ALA762  ILE779  LEU786  VAL792 
 PHE793  MET794  SER795  GLU796  ALA797  LYS798  CYS799  TRP800  GLU811  SER814 

> <Gold.Protein.RotatedAtoms>
  151.2431  133.4389  159.2607 H   0  0  0  0  0  0  0  0  0  0  0  0  # atno 6907 bound_to 6896
  151.0687  134.9784  159.8308 H   0  0  0  0  0  0  0  0  0  0  0  0  # atno 6908 bound_to 6896
  152.5409  134.2377  159.8902 H   0  0  0  0  0  0  0  0  0  0  0  0  # atno 6909 bound_to 6896
  145.2916  139.2598  143.3862 H   0  0  0  0  0  0  0  0  0  0  0  0  # atno 7974 bound_to 7965
  155.8247  140.0925  157.1828 H   0  0  0  0  0  0  0  0  0  0  0  0  # atno 8008 bound_to 7997
  154.3979  140.1430  156.3602 H   0  0  0  0  0  0  0  0  0  0  0  0  # atno 8009 bound_to 7997
  155.8229  140.3445  155.5527 H   0  0  0  0  0  0  0  0  0  0  0  0  # atno 8010 bound_to 7997
  140.6549  143.7453  150.7636 H   0  0  0  0  0  0  0  0  0  0  0  0  # atno 10167 bound_to 10162
  156.7949  130.9531  151.3120 H   0  0  0  0  0  0  0  0  0  0  0  0  # atno 10718 bound_to 10713
  154.0286  135.2899  155.3371 H   0  0  0  0  0  0  0  0  0  0  0  0  # atno 10763 bound_to 10752
  154.7002  135.5191  153.8519 H   0  0  0  0  0  0  0  0  0  0  0  0  # atno 10764 bound_to 10752
  153.0650  135.6627  154.0501 H   0  0  0  0  0  0  0  0  0  0  0  0  # atno 10765 bound_to 10752
  140.7456  134.3465  157.5138 H   0  0  0  0  0  0  0  0  0  0  0  0  # atno 11005 bound_to 11000
  146.3183  140.3408  142.8648 LP  0  0  0  0  0  0  0  0  0  0  0  0  # atno 17320 bound_to 7965
  144.9168  140.7821  143.5773 LP  0  0  0  0  0  0  0  0  0  0  0  0  # atno 17321 bound_to 7965
  140.1110  143.4699  152.2370 LP  0  0  0  0  0  0  0  0  0  0  0  0  # atno 17342 bound_to 10162
  139.5770  144.7492  151.3740 LP  0  0  0  0  0  0  0  0  0  0  0  0  # atno 17343 bound_to 10162
  157.6582  130.8943  149.9774 LP  0  0  0  0  0  0  0  0  0  0  0  0  # atno 17370 bound_to 10713
  156.1137  130.3649  150.0006 LP  0  0  0  0  0  0  0  0  0  0  0  0  # atno 17371 bound_to 10713
  139.8797  134.9109  156.3024 LP  0  0  0  0  0  0  0  0  0  0  0  0  # atno 17394 bound_to 11000
  140.9797  133.7275  156.0654 LP  0  0  0  0  0  0  0  0  0  0  0  0  # atno 17395 bound_to 11000

$$$$
