AV-unprocessed.smi:1816|AV-procd|sdf|7366|dock6
  -GOLD-   22720 9 33D 1   1.00000     0.00000
 Structure written by MMmdl.
 35 36  0  0  0  0  0  0  0  0  3 V2000
  146.7767  142.7525  153.8723 C   0  0  0  0  0  0  0  0  0  0  0  0
  147.0767  141.3209  154.3695 C   0  0  2  0  0  0  0  0  0  0  0  0
  148.6053  141.1065  154.4948 C   0  0  0  0  0  0  0  0  0  0  0  0
  149.2028  141.9406  155.5368 N   0  0  0  0  0  0  0  0  0  0  0  0
  150.2317  141.6173  156.3328 C   0  0  0  0  0  0  0  0  0  0  0  0
  150.7378  140.4959  156.2637 O   0  0  0  0  0  0  0  0  0  0  0  0
  150.6211  142.6218  157.1477 N   0  5  0  0  0  0  0  0  0  0  0  0
  151.5182  142.3875  158.1193 C   0  0  0  0  0  0  0  0  0  0  0  0
  151.9363  141.1585  158.4431 N   0  0  0  0  0  0  0  0  0  0  0  0
  152.8744  141.1462  159.4769 C   0  0  0  0  0  0  0  0  0  0  0  0
  153.1814  142.3954  159.9475 C   0  0  0  0  0  0  0  0  0  0  0  0
  152.2984  143.6323  159.0988 S   0  0  0  0  0  0  0  0  0  0  0  0
  146.4517  140.2760  153.5066 N   0  3  0  0  0  0  0  0  0  0  0  0
  147.1052  140.0780  152.1963 C   0  0  0  0  0  0  0  0  0  0  0  0
  146.5171  138.7758  151.6595 C   0  0  0  0  0  0  0  0  0  0  0  0
  146.2049  137.9487  152.9095 C   0  0  0  0  0  0  0  0  0  0  0  0
  146.3382  138.9207  154.0898 C   0  0  0  0  0  0  0  0  0  0  0  0
  147.3139  143.4909  154.4680 H   0  0  0  0  0  0  0  0  0  0  0  0
  145.7181  142.9998  153.9496 H   0  0  0  0  0  0  0  0  0  0  0  0
  147.0754  142.8890  152.8323 H   0  0  0  0  0  0  0  0  0  0  0  0
  146.6416  141.2316  155.3662 H   0  0  0  0  0  0  0  0  0  0  0  0
  148.8024  140.0677  154.7604 H   0  0  0  0  0  0  0  0  0  0  0  0
  149.1086  141.2600  153.5396 H   0  0  0  0  0  0  0  0  0  0  0  0
  148.8191  142.8686  155.6455 H   0  0  0  0  0  0  0  0  0  0  0  0
  153.2721  140.2011  159.8156 H   0  0  0  0  0  0  0  0  0  0  0  0
  153.8698  142.6627  160.7348 H   0  0  0  0  0  0  0  0  0  0  0  0
  146.9461  140.9091  151.5107 H   0  0  0  0  0  0  0  0  0  0  0  0
  148.1812  139.9635  152.3372 H   0  0  0  0  0  0  0  0  0  0  0  0
  145.5928  138.9873  151.1200 H   0  0  0  0  0  0  0  0  0  0  0  0
  147.1930  138.2653  150.9726 H   0  0  0  0  0  0  0  0  0  0  0  0
  145.1988  137.5308  152.8516 H   0  0  0  0  0  0  0  0  0  0  0  0
  146.9013  137.1164  153.0181 H   0  0  0  0  0  0  0  0  0  0  0  0
  147.2463  138.6834  154.6464 H   0  0  0  0  0  0  0  0  0  0  0  0
  145.4922  138.8516  154.7745 H   0  0  0  0  0  0  0  0  0  0  0  0
  145.5068  140.5791  153.3135 H   0  0  0  0  0  0  0  0  0  0  0  0
  1  2  1  0  0  0  0
  1 18  1  0  0  0  0
  1 19  1  0  0  0  0
  1 20  1  0  0  0  0
  2  3  1  0  0  0  0
  2 13  1  0  0  0  0
  2 21  1  0  0  0  0
  3  4  1  0  0  0  0
  3 22  1  0  0  0  0
  3 23  1  0  0  0  0
  4  5  1  0  0  0  0
  4 24  1  0  0  0  0
  5  6  2  0  0  0  0
  5  7  1  0  0  0  0
  7  8  1  0  0  0  0
  8 12  1  0  0  0  0
  8  9  2  0  0  0  0
  9 10  1  0  0  0  0
 10 11  2  0  0  0  0
 10 25  1  0  0  0  0
 11 12  1  0  0  0  0
 11 26  1  0  0  0  0
 13 17  1  0  0  0  0
 13 14  1  0  0  0  0
 13 35  1  0  0  0  0
 14 15  1  0  0  0  0
 14 27  1  0  0  0  0
 14 28  1  0  0  0  0
 15 16  1  0  0  0  0
 15 29  1  0  0  0  0
 15 30  1  0  0  0  0
 16 17  1  0  0  0  0
 16 31  1  0  0  0  0
 16 32  1  0  0  0  0
 17 33  1  0  0  0  0
 17 34  1  0  0  0  0
M  CHG  1   7  -1
M  CHG  1  13   1
M  END
> <s_m_source_file>
AV-unprocessed.smi

> <i_m_source_file_index>
1816

> <i_lp_mmshare_version>
43012

> <i_f3d_flags>
0

> <s_epik_input>
W0NIMl0xW0NIMl1bQ0gyXVtDSDJdTjFbQ0BIXShbQ0gzXSlbQ0gyXVtOSF1DKD1PKVtOSF1jMm5bY0hdW2NIXXMy

> <s_epik_cmdline>
J2VwaWtfcHl0aG9uJywgJy1waCcsICc3LjAnLCAnLXRuJywgJzgnLCAnLW1hJywgJzIwMCcsICctbWV0YWxfYmluZGluZycsICctaW1hZScsICc8aW5maWxlLm1hZT4nLCAnLW9tYWUnLCAnPG91dGZpbGUubWFlPic=

> <r_lp_tautomer_probability>
0.999

> <r_epik_Ionization_Penalty>
6.21769

> <r_epik_Ionization_Penalty_Charging>
5.38662

> <r_epik_Ionization_Penalty_Neutral>
0.831074

> <r_epik_State_Penalty>
5.38626

> <r_epik_Charging_Adjusted_Penalty>
10.7729

> <i_epik_Tot_Q>
0

> <i_epik_Tot_abs_Q>
2

> <r_epik_Metal_State_Penalty>
1.41347

> <b_epik_Metal_Only>
1

> <s_lp_Force_Field>
OPLS_2005

> <r_lp_Energy>
25.8125

> <b_lp_Chiralities_Consistent>
1

> <s_lp_Variant>
AV-unprocessed.smi:1816-3

> <Gold.Version>
5.8.1

> <Gold.Id.Protein>
6NUR|6NUR_protein|mol2

> <Gold.PLP.Fitness>
42.3659

> <Gold.PLP.PLP>
-34.1775

> <Gold.PLP.part.hbond>
-2.0000

> <Gold.PLP.part.metal>
0.0000

> <Gold.PLP.part.buried>
-2.7150

> <Gold.PLP.part.nonpolar>
-30.9915

> <Gold.PLP.part.repulsive>
0.9517

> <Gold.PLP.ligand.clash>
0.0000

> <Gold.PLP.ligand.torsion>
0.4373

> <Gold.PLP.Chemscore.Hbond>
3.0000

> <Gold.PLP.Chemscore.CHOScore>
0.0000

> <Gold.PLP.Chemscore.Metal>
0.0000

> <Gold.Chemscore.Hbonds>
donor molecule, donor type, donor heavy atom, donor atom, acceptor molecule, acceptor atom, score
      L1  H     4    24       P1  8028  1.00
      L1  H    13    35       P1 10175  2.00

> <Gold.PLP.Chemscore.Internal.Correction>
0.0631

> <Gold.Rescore>
     Score         DG    S(hbond)    S(metal)    S(lipo)     H(rot)  DE(clash)    DE(int)     intcor
     14.23     -16.60       1.84        0.00      76.75       1.57       0.17       2.20       ----

> <Gold.Chemscore.Fitness>
14.2350

> <Gold.Chemscore.DG>
-16.5982

> <Gold.Chemscore.ZeroCoef>
-5.4800

> <Gold.Chemscore.Hbond>
1.8445

> <Gold.Chemscore.Metal>
0.0000

> <Gold.Chemscore.Lipo>
76.7479

> <Gold.Chemscore.Internal_Hbond>
0.0000

> <Gold.Chemscore.DEClash>
0.1668

> <Gold.Chemscore.DEInternal>
2.1963

> <Gold.Chemscore.Rot>
1.5710

> <Gold.Chemscore.Internal.Correction>
   9.000000E+99

> <Gold.Chemscore.Hbonds>
donor molecule, donor type, donor heavy atom, donor atom, acceptor molecule, acceptor atom, score
      L1  H     4    24       P1  8028  0.98
      L1  H    13    35       P1 10175  0.87

> <Gold.Chemscore.Hbond.Weighted>
-6.1605

> <Gold.Chemscore.Metal.Weighted>
-0.0000

> <Gold.Chemscore.Lipo.Weighted>
-8.9795

> <Gold.Chemscore.Internal_Hbond.Weighted>
0.0000

> <Gold.Chemscore.DEClash.Weighted>
0.1668

> <Gold.Chemscore.DEInternal.Weighted>
2.1963

> <Gold.Chemscore.Rot.Weighted>
4.0219

> <Gold.Chemscore.Internal.Correction.Weighted>
   9.000000E+99

> <Gold.Protein.RotatedTorsions>
[ 6907 6896 6895 6894 ] final  -21.94 input  -60.11 | X-H torsion
[ 7974 7965 7964 7962 ] final  -25.89 input  175.53 | X-H torsion
[ 8008 7997 7996 7995 ] final   -7.34 input   59.86 | X-H torsion
[ 10167 10162 10161 10158 ] final  162.72 input  -65.29 | X-H torsion
[ 10718 10713 10712 10709 ] final -178.46 input   66.30 | X-H torsion
[ 10763 10752 10751 10750 ] final -137.86 input  -60.55 | X-H torsion
[ 11005 11000 10999 10996 ] final -167.04 input  -57.11 | X-H torsion

> <Gold.Protein.ActiveResidues>
 VAL166  LYS551  ARG553  GLY616  TRP617  ASP618  TYR619  PRO620  LYS621  CYS622 
 ASP623  PHE694  ASN695  SER759  ASP760  ASP761  ALA762  ILE779  LEU786  VAL792 
 PHE793  MET794  SER795  GLU796  ALA797  LYS798  CYS799  TRP800  GLU811  SER814 

> <Gold.Protein.RotatedAtoms>
  151.2260  135.0536  159.8968 H   0  0  0  0  0  0  0  0  0  0  0  0  # atno 6907 bound_to 6896
  152.5410  134.0589  159.8153 H   0  0  0  0  0  0  0  0  0  0  0  0  # atno 6908 bound_to 6896
  151.0762  133.5378  159.2655 H   0  0  0  0  0  0  0  0  0  0  0  0  # atno 6909 bound_to 6896
  146.1462  140.4946  142.8631 H   0  0  0  0  0  0  0  0  0  0  0  0  # atno 7974 bound_to 7965
  154.5847  140.2409  155.8003 H   0  0  0  0  0  0  0  0  0  0  0  0  # atno 8008 bound_to 7997
  156.2205  140.2999  155.9896 H   0  0  0  0  0  0  0  0  0  0  0  0  # atno 8009 bound_to 7997
  155.2478  140.0409  157.2973 H   0  0  0  0  0  0  0  0  0  0  0  0  # atno 8010 bound_to 7997
  139.4864  144.4410  151.8952 H   0  0  0  0  0  0  0  0  0  0  0  0  # atno 10167 bound_to 10162
  156.8446  130.9698  151.3097 H   0  0  0  0  0  0  0  0  0  0  0  0  # atno 10718 bound_to 10713
  154.8651  135.3629  154.5292 H   0  0  0  0  0  0  0  0  0  0  0  0  # atno 10763 bound_to 10752
  153.5918  135.7015  153.5425 H   0  0  0  0  0  0  0  0  0  0  0  0  # atno 10764 bound_to 10752
  153.3367  135.4109  155.1501 H   0  0  0  0  0  0  0  0  0  0  0  0  # atno 10765 bound_to 10752
  140.5577  134.5365  157.5136 H   0  0  0  0  0  0  0  0  0  0  0  0  # atno 11005 bound_to 11000
  144.7849  140.5915  143.6581 LP  0  0  0  0  0  0  0  0  0  0  0  0  # atno 17320 bound_to 7965
  145.4932  139.1487  143.3698 LP  0  0  0  0  0  0  0  0  0  0  0  0  # atno 17321 bound_to 7965
  140.3861  144.2674  150.5904 LP  0  0  0  0  0  0  0  0  0  0  0  0  # atno 17342 bound_to 10162
  140.5189  143.2271  151.8420 LP  0  0  0  0  0  0  0  0  0  0  0  0  # atno 17343 bound_to 10162
  157.6337  130.8749  149.9320 LP  0  0  0  0  0  0  0  0  0  0  0  0  # atno 17370 bound_to 10713
  156.0862  130.3668  150.0484 LP  0  0  0  0  0  0  0  0  0  0  0  0  # atno 17371 bound_to 10713
  139.9423  134.7764  156.0647 LP  0  0  0  0  0  0  0  0  0  0  0  0  # atno 17394 bound_to 11000
  141.1134  133.6636  156.3033 LP  0  0  0  0  0  0  0  0  0  0  0  0  # atno 17395 bound_to 11000

$$$$
