AV-unprocessed.smi:3181|AV-procd|sdf|12140|dock8
  -GOLD-   2272017583D 1   1.00000     0.00000
 Structure written by MMmdl.
 42 43  0  0  0  0  0  0  0  0  2 V2000
  148.0594  141.0035  157.3395 C   0  0  0  0  0  0  0  0  0  0  0  0
  149.5030  141.3202  156.9152 C   0  0  1  0  0  0  0  0  0  0  0  0
  149.7242  141.1729  155.3945 C   0  0  0  0  0  0  0  0  0  0  0  0
  150.4428  139.9615  155.0465 N   0  0  0  0  0  0  0  0  0  0  0  0
  151.6463  139.5288  155.4261 C   0  0  0  0  0  0  0  0  0  0  0  0
  151.9837  138.3591  154.9021 N   0  0  0  0  0  0  0  0  0  0  0  0
  150.8677  138.1132  154.1533 C   0  0  0  0  0  0  0  0  0  0  0  0
  149.9137  139.0433  154.2046 N   0  0  0  0  0  0  0  0  0  0  0  0
  149.8530  142.6924  157.3477 N   0  3  0  0  0  0  0  0  0  0  0  0
  151.2737  143.0889  157.1905 C   0  0  2  0  0  0  0  0  0  0  0  0
  152.2031  141.9660  157.6806 C   0  0  0  0  0  0  0  0  0  0  0  0
  152.1729  141.8191  159.2104 C   0  0  0  0  0  0  0  0  0  0  0  0
  152.5087  143.1405  159.9317 C   0  0  2  0  0  0  0  0  0  0  0  0
  152.4674  142.9284  161.4555 C   0  0  0  0  0  0  0  0  0  0  0  0
  151.5696  144.2794  159.4545 C   0  0  1  0  0  0  0  0  0  0  0  0
  151.8980  145.6378  160.0989 C   0  0  0  0  0  0  0  0  0  0  0  0
  151.6092  144.4084  157.9162 C   0  0  0  0  0  0  0  0  0  0  0  0
  147.7905  139.9723  157.1095 H   0  0  0  0  0  0  0  0  0  0  0  0
  147.3445  141.6540  156.8345 H   0  0  0  0  0  0  0  0  0  0  0  0
  147.9294  141.1362  158.4141 H   0  0  0  0  0  0  0  0  0  0  0  0
  150.1503  140.6076  157.4289 H   0  0  0  0  0  0  0  0  0  0  0  0
  148.7666  141.1772  154.8708 H   0  0  0  0  0  0  0  0  0  0  0  0
  150.2915  142.0172  155.0029 H   0  0  0  0  0  0  0  0  0  0  0  0
  152.2863  140.0780  156.1011 H   0  0  0  0  0  0  0  0  0  0  0  0
  150.7546  137.2224  153.5531 H   0  0  0  0  0  0  0  0  0  0  0  0
  149.2681  143.3530  156.8558 H   0  0  0  0  0  0  0  0  0  0  0  0
  151.4534  143.2208  156.1225 H   0  0  0  0  0  0  0  0  0  0  0  0
  151.9371  141.0197  157.2078 H   0  0  0  0  0  0  0  0  0  0  0  0
  153.2248  142.1837  157.3658 H   0  0  0  0  0  0  0  0  0  0  0  0
  151.1894  141.4674  159.5251 H   0  0  0  0  0  0  0  0  0  0  0  0
  152.8806  141.0445  159.5087 H   0  0  0  0  0  0  0  0  0  0  0  0
  153.5321  143.4111  159.6667 H   0  0  0  0  0  0  0  0  0  0  0  0
  151.4533  142.7254  161.8012 H   0  0  0  0  0  0  0  0  0  0  0  0
  152.8390  143.7986  161.9960 H   0  0  0  0  0  0  0  0  0  0  0  0
  153.0920  142.0846  161.7499 H   0  0  0  0  0  0  0  0  0  0  0  0
  150.5503  144.0221  159.7453 H   0  0  0  0  0  0  0  0  0  0  0  0
  152.9353  145.9224  159.9198 H   0  0  0  0  0  0  0  0  0  0  0  0
  151.7346  145.6251  161.1761 H   0  0  0  0  0  0  0  0  0  0  0  0
  151.2640  146.4268  159.6933 H   0  0  0  0  0  0  0  0  0  0  0  0
  152.6100  144.7232  157.6171 H   0  0  0  0  0  0  0  0  0  0  0  0
  150.9456  145.2069  157.5844 H   0  0  0  0  0  0  0  0  0  0  0  0
  149.6369  142.7558  158.3323 H   0  0  0  0  0  0  0  0  0  0  0  0
  1  2  1  0  0  0  0
  1 18  1  0  0  0  0
  1 19  1  0  0  0  0
  1 20  1  0  0  0  0
  2  3  1  0  0  0  0
  2  9  1  0  0  0  0
  2 21  1  0  0  0  0
  3  4  1  0  0  0  0
  3 22  1  0  0  0  0
  3 23  1  0  0  0  0
  4  8  1  0  0  0  0
  4  5  1  0  0  0  0
  5  6  2  0  0  0  0
  5 24  1  0  0  0  0
  6  7  1  0  0  0  0
  7  8  2  0  0  0  0
  7 25  1  0  0  0  0
  9 10  1  0  0  0  0
  9 26  1  0  0  0  0
  9 42  1  0  0  0  0
 10 17  1  0  0  0  0
 10 11  1  0  0  0  0
 10 27  1  0  0  0  0
 11 12  1  0  0  0  0
 11 28  1  0  0  0  0
 11 29  1  0  0  0  0
 12 13  1  0  0  0  0
 12 30  1  0  0  0  0
 12 31  1  0  0  0  0
 13 14  1  0  0  0  0
 13 15  1  0  0  0  0
 13 32  1  0  0  0  0
 14 33  1  0  0  0  0
 14 34  1  0  0  0  0
 14 35  1  0  0  0  0
 15 16  1  0  0  0  0
 15 17  1  0  0  0  0
 15 36  1  0  0  0  0
 16 37  1  0  0  0  0
 16 38  1  0  0  0  0
 16 39  1  0  0  0  0
 17 40  1  0  0  0  0
 17 41  1  0  0  0  0
M  CHG  1   9   1
M  END
> <s_m_source_file>
AV-unprocessed.smi

> <i_m_source_file_index>
3181

> <i_lp_mmshare_version>
43012

> <i_f3d_flags>
0

> <s_epik_input>
bjFbY0hdbltjSF1uMVtDSDJdW0NAQEhdKFtDSDNdKVtOSF1bQ0BASF0yW0NIMl1bQ0gyXVtDQEBIXShbQ0gzXSlbQ0BASF0oW0NIM10pW0NIMl0y

> <s_epik_cmdline>
J2VwaWtfcHl0aG9uJywgJy1waCcsICc3LjAnLCAnLXRuJywgJzgnLCAnLW1hJywgJzIwMCcsICctbWV0YWxfYmluZGluZycsICctaW1hZScsICc8aW5maWxlLm1hZT4nLCAnLW9tYWUnLCAnPG91dGZpbGUubWFlPic=

> <r_lp_tautomer_probability>
1

> <r_epik_Ionization_Penalty>
0.000617007

> <r_epik_Ionization_Penalty_Charging>
0.000616215

> <r_epik_Ionization_Penalty_Neutral>
7.92544e-07

> <r_epik_State_Penalty>
0.000388807

> <r_epik_Charging_Adjusted_Penalty>
0.00100502

> <i_epik_Tot_Q>
1

> <i_epik_Tot_abs_Q>
1

> <r_epik_Metal_State_Penalty>
-0

> <b_epik_Metal_Only>
0

> <s_lp_Force_Field>
OPLS_2005

> <r_lp_Energy>
23.1218

> <b_lp_Chiralities_Consistent>
1

> <s_lp_Variant>
AV-unprocessed.smi:3181-6

> <Gold.Version>
5.8.1

> <Gold.Id.Protein>
6NUR|6NUR_protein|mol2

> <Gold.PLP.Fitness>
48.0425

> <Gold.PLP.PLP>
-40.1894

> <Gold.PLP.part.hbond>
-1.0000

> <Gold.PLP.part.metal>
0.0000

> <Gold.PLP.part.buried>
-4.9576

> <Gold.PLP.part.nonpolar>
-33.1350

> <Gold.PLP.part.repulsive>
0.2808

> <Gold.PLP.ligand.clash>
0.0000

> <Gold.PLP.ligand.torsion>
0.7637

> <Gold.PLP.Chemscore.Hbond>
2.0000

> <Gold.PLP.Chemscore.CHOScore>
1.1197

> <Gold.PLP.Chemscore.Metal>
0.0000

> <Gold.Chemscore.Hbonds>
donor molecule, donor type, donor heavy atom, donor atom, acceptor molecule, acceptor atom, score
      L1  H     9    26       P1  8028  2.00
      L1  C     7    25       P1  7948  0.33
      L1  C     7    25       P1  7949  0.79

> <Gold.PLP.Chemscore.Internal.Correction>
0.0214

> <Gold.Rescore>
     Score         DG    S(hbond)    S(metal)    S(lipo)     H(rot)  DE(clash)    DE(int)     intcor
     14.25     -15.60       0.98        0.00     104.59       2.11       0.69       0.66       ----

> <Gold.Chemscore.Fitness>
14.2511

> <Gold.Chemscore.DG>
-15.6030

> <Gold.Chemscore.ZeroCoef>
-5.4800

> <Gold.Chemscore.Hbond>
0.9841

> <Gold.Chemscore.Metal>
0.0000

> <Gold.Chemscore.Lipo>
104.5850

> <Gold.Chemscore.Internal_Hbond>
0.0000

> <Gold.Chemscore.DEClash>
0.6916

> <Gold.Chemscore.DEInternal>
0.6603

> <Gold.Chemscore.Rot>
2.1095

> <Gold.Chemscore.Internal.Correction>
   9.000000E+99

> <Gold.Chemscore.Hbonds>
donor molecule, donor type, donor heavy atom, donor atom, acceptor molecule, acceptor atom, score
      L1  H     9    26       P1  8028  0.95

> <Gold.Chemscore.Hbond.Weighted>
-3.2869

> <Gold.Chemscore.Metal.Weighted>
-0.0000

> <Gold.Chemscore.Lipo.Weighted>
-12.2365

> <Gold.Chemscore.Internal_Hbond.Weighted>
0.0000

> <Gold.Chemscore.DEClash.Weighted>
0.6916

> <Gold.Chemscore.DEInternal.Weighted>
0.6603

> <Gold.Chemscore.Rot.Weighted>
5.4003

> <Gold.Chemscore.Internal.Correction.Weighted>
   9.000000E+99

> <Gold.Protein.RotatedTorsions>
[ 6907 6896 6895 6894 ] final  -99.50 input  -60.11 | X-H torsion
[ 7974 7965 7964 7962 ] final -138.23 input  175.53 | X-H torsion
[ 8008 7997 7996 7995 ] final   18.56 input   59.86 | X-H torsion
[ 10167 10162 10161 10158 ] final   21.77 input  -65.29 | X-H torsion
[ 10718 10713 10712 10709 ] final  -86.00 input   66.30 | X-H torsion
[ 10763 10752 10751 10750 ] final -128.34 input  -60.55 | X-H torsion
[ 11005 11000 10999 10996 ] final -164.43 input  -57.11 | X-H torsion

> <Gold.Protein.ActiveResidues>
 VAL166  LYS551  ARG553  GLY616  TRP617  ASP618  TYR619  PRO620  LYS621  CYS622 
 ASP623  PHE694  ASN695  SER759  ASP760  ASP761  ALA762  ILE779  LEU786  VAL792 
 PHE793  MET794  SER795  GLU796  ALA797  LYS798  CYS799  TRP800  GLU811  SER814 

> <Gold.Protein.RotatedAtoms>
  150.7082  134.1030  159.3972 H   0  0  0  0  0  0  0  0  0  0  0  0  # atno 6907 bound_to 6896
  151.9017  135.0373  160.0516 H   0  0  0  0  0  0  0  0  0  0  0  0  # atno 6908 bound_to 6896
  152.2409  133.5099  159.5306 H   0  0  0  0  0  0  0  0  0  0  0  0  # atno 6909 bound_to 6896
  144.8776  140.6459  143.5227 H   0  0  0  0  0  0  0  0  0  0  0  0  # atno 7974 bound_to 7965
  154.9078  140.3010  155.5282 H   0  0  0  0  0  0  0  0  0  0  0  0  # atno 8008 bound_to 7997
  156.3016  140.2395  156.4049 H   0  0  0  0  0  0  0  0  0  0  0  0  # atno 8009 bound_to 7997
  154.8456  140.0412  157.1559 H   0  0  0  0  0  0  0  0  0  0  0  0  # atno 8010 bound_to 7997
  140.5401  143.9693  150.6514 H   0  0  0  0  0  0  0  0  0  0  0  0  # atno 10167 bound_to 10162
  155.9992  130.4750  150.4649 H   0  0  0  0  0  0  0  0  0  0  0  0  # atno 10718 bound_to 10713
  154.8756  135.3932  154.3740 H   0  0  0  0  0  0  0  0  0  0  0  0  # atno 10763 bound_to 10752
  153.4496  135.7028  153.6122 H   0  0  0  0  0  0  0  0  0  0  0  0  # atno 10764 bound_to 10752
  153.4668  135.3799  155.2337 H   0  0  0  0  0  0  0  0  0  0  0  0  # atno 10765 bound_to 10752
  140.5869  134.5084  157.5187 H   0  0  0  0  0  0  0  0  0  0  0  0  # atno 11005 bound_to 11000
  145.4014  139.1597  143.4175 LP  0  0  0  0  0  0  0  0  0  0  0  0  # atno 17320 bound_to 7965
  146.2973  140.4111  142.8717 LP  0  0  0  0  0  0  0  0  0  0  0  0  # atno 17321 bound_to 7965
  140.3091  143.3210  152.0897 LP  0  0  0  0  0  0  0  0  0  0  0  0  # atno 17342 bound_to 10162
  139.4985  144.6648  151.6382 LP  0  0  0  0  0  0  0  0  0  0  0  0  # atno 17343 bound_to 10162
  157.2669  131.0579  151.2284 LP  0  0  0  0  0  0  0  0  0  0  0  0  # atno 17370 bound_to 10713
  157.3379  130.7018  149.6363 LP  0  0  0  0  0  0  0  0  0  0  0  0  # atno 17371 bound_to 10713
  139.9291  134.7998  156.0981 LP  0  0  0  0  0  0  0  0  0  0  0  0  # atno 17394 bound_to 11000
  141.0960  133.6695  156.2646 LP  0  0  0  0  0  0  0  0  0  0  0  0  # atno 17395 bound_to 11000

$$$$
