AV-unprocessed.smi:1645|AV-procd|sdf|6604|dock3
  -GOLD-   22720 7303D 1   1.00000     0.00000
 Structure written by MMmdl.
 55 58  0  0  0  0  0  0  0  0  2 V2000
  145.4814  137.5656  154.4151 O   0  0  0  0  0  0  0  0  0  0  0  0
  146.3316  137.2548  153.5822 C   0  0  0  0  0  0  0  0  0  0  0  0
  147.6303  137.6008  153.6143 N   0  0  0  0  0  0  0  0  0  0  0  0
  148.3430  138.3592  154.5848 C   0  0  0  0  0  0  0  0  0  0  0  0
  147.9612  138.5158  155.9385 C   0  0  0  0  0  0  0  0  0  0  0  0
  148.7673  139.2961  156.7891 C   0  0  0  0  0  0  0  0  0  0  0  0
  149.9353  139.9036  156.2734 C   0  0  0  0  0  0  0  0  0  0  0  0
  150.7529  140.6886  157.1139 N   0  0  0  0  0  0  0  0  0  0  0  0
  151.4356  139.9595  158.1842 C   0  0  0  0  0  0  0  0  0  0  0  0
  152.6021  140.7823  158.7574 C   0  0  0  0  0  0  0  0  0  0  0  0
  152.1310  142.1762  159.1990 C   0  0  0  0  0  0  0  0  0  0  0  0
  151.4250  142.8872  158.0346 C   0  0  0  0  0  0  0  0  0  0  0  0
  150.2793  142.0274  157.4734 C   0  0  0  0  0  0  0  0  0  0  0  0
  150.3017  139.7491  154.9780 N   0  0  0  0  0  0  0  0  0  0  0  0
  149.5256  139.0017  154.1660 C   0  0  0  0  0  0  0  0  0  0  0  0
  146.0555  136.5136  152.4998 N   0  0  0  0  0  0  0  0  0  0  0  0
  144.7402  135.9604  152.1873 C   0  0  2  0  0  0  0  0  0  0  0  0
  144.0515  135.3200  153.3853 C   0  0  0  0  0  0  0  0  0  0  0  0
  142.9800  134.4365  152.7372 C   0  0  0  0  0  0  0  0  0  0  0  0
  143.4706  134.0905  151.3799 N   0  3  2  0  0  0  0  0  0  0  0  0
  143.5209  132.6287  151.1083 C   0  0  0  0  0  0  0  0  0  0  0  0
  144.3958  132.3277  149.8824 C   0  0  0  0  0  0  0  0  0  0  0  0
  145.8537  132.7704  150.1094 C   0  0  0  0  0  0  0  0  0  0  0  0
  145.9727  133.8905  151.1610 C   0  0  0  0  0  0  0  0  0  0  0  0
  144.7422  134.8304  151.1397 C   0  0  2  0  0  0  0  0  0  0  0  0
  148.1914  137.2657  152.8448 H   0  0  0  0  0  0  0  0  0  0  0  0
  147.0775  138.0590  156.3523 H   0  0  0  0  0  0  0  0  0  0  0  0
  148.4905  139.4079  157.8269 H   0  0  0  0  0  0  0  0  0  0  0  0
  150.7124  139.7441  158.9720 H   0  0  0  0  0  0  0  0  0  0  0  0
  151.8149  138.9982  157.8400 H   0  0  0  0  0  0  0  0  0  0  0  0
  153.0521  140.2552  159.5990 H   0  0  0  0  0  0  0  0  0  0  0  0
  153.3819  140.8829  158.0014 H   0  0  0  0  0  0  0  0  0  0  0  0
  151.4467  142.0832  160.0433 H   0  0  0  0  0  0  0  0  0  0  0  0
  152.9786  142.7684  159.5451 H   0  0  0  0  0  0  0  0  0  0  0  0
  151.0404  143.8532  158.3624 H   0  0  0  0  0  0  0  0  0  0  0  0
  152.1464  143.0937  157.2428 H   0  0  0  0  0  0  0  0  0  0  0  0
  149.8560  142.5245  156.5998 H   0  0  0  0  0  0  0  0  0  0  0  0
  149.4821  141.9385  158.2128 H   0  0  0  0  0  0  0  0  0  0  0  0
  149.8637  138.9135  153.1437 H   0  0  0  0  0  0  0  0  0  0  0  0
  146.8070  136.3031  151.8591 H   0  0  0  0  0  0  0  0  0  0  0  0
  144.0974  136.7678  151.8295 H   0  0  0  0  0  0  0  0  0  0  0  0
  144.7563  134.6989  153.9399 H   0  0  0  0  0  0  0  0  0  0  0  0
  143.6326  136.0523  154.0765 H   0  0  0  0  0  0  0  0  0  0  0  0
  142.7587  133.5621  153.3510 H   0  0  0  0  0  0  0  0  0  0  0  0
  142.0511  134.9964  152.6240 H   0  0  0  0  0  0  0  0  0  0  0  0
  143.9242  132.0983  151.9728 H   0  0  0  0  0  0  0  0  0  0  0  0
  142.5059  132.2606  150.9567 H   0  0  0  0  0  0  0  0  0  0  0  0
  144.3623  131.2656  149.6382 H   0  0  0  0  0  0  0  0  0  0  0  0
  143.9856  132.8515  149.0176 H   0  0  0  0  0  0  0  0  0  0  0  0
  146.4589  131.9208  150.4279 H   0  0  0  0  0  0  0  0  0  0  0  0
  146.2747  133.1025  149.1596 H   0  0  0  0  0  0  0  0  0  0  0  0
  146.0701  133.4459  152.1525 H   0  0  0  0  0  0  0  0  0  0  0  0
  146.8958  134.4428  150.9853 H   0  0  0  0  0  0  0  0  0  0  0  0
  144.6886  135.2755  150.1449 H   0  0  0  0  0  0  0  0  0  0  0  0
  142.8023  134.4813  150.7309 H   0  0  0  0  0  0  0  0  0  0  0  0
  1  2  2  0  0  0  0
  2  3  1  0  0  0  0
  2 16  1  0  0  0  0
  3  4  1  0  0  0  0
  3 26  1  0  0  0  0
  4 15  1  0  0  0  0
  4  5  2  0  0  0  0
  5  6  1  0  0  0  0
  5 27  1  0  0  0  0
  6  7  2  0  0  0  0
  6 28  1  0  0  0  0
  7  8  1  0  0  0  0
  7 14  1  0  0  0  0
  8 13  1  0  0  0  0
  8  9  1  0  0  0  0
  9 10  1  0  0  0  0
  9 29  1  0  0  0  0
  9 30  1  0  0  0  0
 10 11  1  0  0  0  0
 10 31  1  0  0  0  0
 10 32  1  0  0  0  0
 11 12  1  0  0  0  0
 11 33  1  0  0  0  0
 11 34  1  0  0  0  0
 12 13  1  0  0  0  0
 12 35  1  0  0  0  0
 12 36  1  0  0  0  0
 13 37  1  0  0  0  0
 13 38  1  0  0  0  0
 14 15  2  0  0  0  0
 15 39  1  0  0  0  0
 16 17  1  0  0  0  0
 16 40  1  0  0  0  0
 17 25  1  0  0  0  0
 17 18  1  0  0  0  0
 17 41  1  0  0  0  0
 18 19  1  0  0  0  0
 18 42  1  0  0  0  0
 18 43  1  0  0  0  0
 19 20  1  0  0  0  0
 19 44  1  0  0  0  0
 19 45  1  0  0  0  0
 20 25  1  0  0  0  0
 20 21  1  0  0  0  0
 20 55  1  0  0  0  0
 21 22  1  0  0  0  0
 21 46  1  0  0  0  0
 21 47  1  0  0  0  0
 22 23  1  0  0  0  0
 22 48  1  0  0  0  0
 22 49  1  0  0  0  0
 23 24  1  0  0  0  0
 23 50  1  0  0  0  0
 23 51  1  0  0  0  0
 24 25  1  0  0  0  0
 24 52  1  0  0  0  0
 24 53  1  0  0  0  0
 25 54  1  0  0  0  0
M  CHG  1  20   1
M  END
> <s_m_source_file>
AV-unprocessed.smi

> <i_m_source_file_index>
1645

> <i_lp_mmshare_version>
43012

> <i_f3d_flags>
0

> <s_epik_input>
W0NIMl0xW0NIMl1bQ0gyXVtDSDJdW0NASF0oTjEyKVtDQEBIXShbQ0gyXVtDSDJdMilbTkhdQyg9TylbTkhdYzNbY0hdW2NIXWMobltjSF0zKU40W0NIMl1bQ0gyXVtDSDJdW0NIMl1bQ0gyXTQ=

> <s_epik_cmdline>
J2VwaWtfcHl0aG9uJywgJy1waCcsICc3LjAnLCAnLXRuJywgJzgnLCAnLW1hJywgJzIwMCcsICctbWV0YWxfYmluZGluZycsICctaW1hZScsICc8aW5maWxlLm1hZT4nLCAnLW9tYWUnLCAnPG91dGZpbGUubWFlPic=

> <r_lp_tautomer_probability>
1

> <r_epik_Ionization_Penalty>
0.0808019

> <r_epik_Ionization_Penalty_Charging>
0.000974069

> <r_epik_Ionization_Penalty_Neutral>
0.0798278

> <r_epik_State_Penalty>
0.0653665

> <r_epik_Charging_Adjusted_Penalty>
0.0663406

> <i_epik_Tot_Q>
1

> <i_epik_Tot_abs_Q>
1

> <r_epik_Metal_State_Penalty>
0.0585673

> <b_epik_Metal_Only>
0

> <s_lp_Force_Field>
OPLS_2005

> <r_lp_Energy>
57.3455

> <b_lp_Chiralities_Consistent>
1

> <s_lp_Variant>
AV-unprocessed.smi:1645-5

> <Gold.Version>
5.8.1

> <Gold.Id.Protein>
6NUR|6NUR_protein|mol2

> <Gold.PLP.Fitness>
54.7214

> <Gold.PLP.PLP>
-39.6639

> <Gold.PLP.part.hbond>
-4.0000

> <Gold.PLP.part.metal>
0.0000

> <Gold.PLP.part.buried>
-5.1649

> <Gold.PLP.part.nonpolar>
-31.3899

> <Gold.PLP.part.repulsive>
0.2723

> <Gold.PLP.ligand.clash>
0.0000

> <Gold.PLP.ligand.torsion>
0.5578

> <Gold.PLP.Chemscore.Hbond>
4.2454

> <Gold.PLP.Chemscore.CHOScore>
1.0000

> <Gold.PLP.Chemscore.Metal>
0.0000

> <Gold.Chemscore.Hbonds>
donor molecule, donor type, donor heavy atom, donor atom, acceptor molecule, acceptor atom, score
      L1  H     3    26       P1  7948  1.00
      L1  H    16    40       P1  7948  0.61
      L1  H    20    55       P1 10186  1.46
      P1  H  7989  7998       L1    14  0.37
      L1  C    15    39       P1  7957  1.00

> <Gold.PLP.Chemscore.Internal.Correction>
0.4369

> <Gold.Rescore>
     Score         DG    S(hbond)    S(metal)    S(lipo)     H(rot)  DE(clash)    DE(int)     intcor
     20.44     -23.84       2.62        0.00     107.86       1.17       0.86       2.54       ----

> <Gold.Chemscore.Fitness>
20.4355

> <Gold.Chemscore.DG>
-23.8352

> <Gold.Chemscore.ZeroCoef>
-5.4800

> <Gold.Chemscore.Hbond>
2.6165

> <Gold.Chemscore.Metal>
0.0000

> <Gold.Chemscore.Lipo>
107.8567

> <Gold.Chemscore.Internal_Hbond>
0.0000

> <Gold.Chemscore.DEClash>
0.8570

> <Gold.Chemscore.DEInternal>
2.5427

> <Gold.Chemscore.Rot>
1.1731

> <Gold.Chemscore.Internal.Correction>
   9.000000E+99

> <Gold.Chemscore.Hbonds>
donor molecule, donor type, donor heavy atom, donor atom, acceptor molecule, acceptor atom, score
      L1  H     3    26       P1  7948  0.99
      L1  H    16    40       P1  7948  0.61
      L1  H    20    55       P1 10186  0.21
      P1  H  7989  7998       L1    14  0.13

> <Gold.Chemscore.Hbond.Weighted>
-8.7392

> <Gold.Chemscore.Metal.Weighted>
-0.0000

> <Gold.Chemscore.Lipo.Weighted>
-12.6192

> <Gold.Chemscore.Internal_Hbond.Weighted>
0.0000

> <Gold.Chemscore.DEClash.Weighted>
0.8570

> <Gold.Chemscore.DEInternal.Weighted>
2.5427

> <Gold.Chemscore.Rot.Weighted>
3.0032

> <Gold.Chemscore.Internal.Correction.Weighted>
   9.000000E+99

> <Gold.Protein.RotatedTorsions>
[ 6907 6896 6895 6894 ] final    6.11 input  -60.11 | X-H torsion
[ 7974 7965 7964 7962 ] final  -35.37 input  175.53 | X-H torsion
[ 8008 7997 7996 7995 ] final   75.68 input   59.86 | X-H torsion
[ 10167 10162 10161 10158 ] final   96.10 input  -65.29 | X-H torsion
[ 10718 10713 10712 10709 ] final   86.28 input   66.30 | X-H torsion
[ 10763 10752 10751 10750 ] final  -27.53 input  -60.55 | X-H torsion
[ 11005 11000 10999 10996 ] final   88.48 input  -57.11 | X-H torsion

> <Gold.Protein.ActiveResidues>
 VAL166  LYS551  ARG553  GLY616  TRP617  ASP618  TYR619  PRO620  LYS621  CYS622 
 ASP623  PHE694  ASN695  SER759  ASP760  ASP761  ALA762  ILE779  LEU786  VAL792 
 PHE793  MET794  SER795  GLU796  ALA797  LYS798  CYS799  TRP800  GLU811  SER814 

> <Gold.Protein.RotatedAtoms>
  151.6683  135.0979  160.0192 H   0  0  0  0  0  0  0  0  0  0  0  0  # atno 6907 bound_to 6896
  152.3906  133.6669  159.6243 H   0  0  0  0  0  0  0  0  0  0  0  0  # atno 6908 bound_to 6896
  150.7823  133.8877  159.3345 H   0  0  0  0  0  0  0  0  0  0  0  0  # atno 6909 bound_to 6896
  146.0752  140.6151  142.8934 H   0  0  0  0  0  0  0  0  0  0  0  0  # atno 7974 bound_to 7965
  155.8164  140.3471  155.5488 H   0  0  0  0  0  0  0  0  0  0  0  0  # atno 8008 bound_to 7997
  155.8387  140.0938  157.1768 H   0  0  0  0  0  0  0  0  0  0  0  0  # atno 8009 bound_to 7997
  154.4005  140.1398  156.3689 H   0  0  0  0  0  0  0  0  0  0  0  0  # atno 8010 bound_to 7997
  139.7926  144.6846  150.9872 H   0  0  0  0  0  0  0  0  0  0  0  0  # atno 10167 bound_to 10162
  157.6926  131.0209  150.2950 H   0  0  0  0  0  0  0  0  0  0  0  0  # atno 10718 bound_to 10713
  153.7337  135.6937  153.4983 H   0  0  0  0  0  0  0  0  0  0  0  0  # atno 10763 bound_to 10752
  153.2118  135.4400  155.0387 H   0  0  0  0  0  0  0  0  0  0  0  0  # atno 10764 bound_to 10752
  154.8244  135.3438  154.6865 H   0  0  0  0  0  0  0  0  0  0  0  0  # atno 10765 bound_to 10752
  139.8895  134.8490  156.3006 H   0  0  0  0  0  0  0  0  0  0  0  0  # atno 11005 bound_to 11000
  144.7257  140.4516  143.6975 LP  0  0  0  0  0  0  0  0  0  0  0  0  # atno 17320 bound_to 7965
  145.6319  139.1537  143.2964 LP  0  0  0  0  0  0  0  0  0  0  0  0  # atno 17321 bound_to 7965
  140.7820  143.4365  151.0615 LP  0  0  0  0  0  0  0  0  0  0  0  0  # atno 17342 bound_to 10162
  139.8041  143.8042  152.3165 LP  0  0  0  0  0  0  0  0  0  0  0  0  # atno 17343 bound_to 10162
  156.3475  130.3825  149.7357 LP  0  0  0  0  0  0  0  0  0  0  0  0  # atno 17370 bound_to 10713
  156.4846  130.8057  151.3069 LP  0  0  0  0  0  0  0  0  0  0  0  0  # atno 17371 bound_to 10713
  140.9916  133.7205  156.0822 LP  0  0  0  0  0  0  0  0  0  0  0  0  # atno 17394 bound_to 11000
  140.7618  134.3931  157.5524 LP  0  0  0  0  0  0  0  0  0  0  0  0  # atno 17395 bound_to 11000

$$$$
