AV-unprocessed.smi:21|AV-procd|sdf|134|dock3
  -GOLD-   2262015323D 1   1.00000     0.00000
 Structure written by MMmdl.
 62 65  0  0  0  0  0  0  0  0  2 V2000
  143.9903  132.9856  149.5427 C   0  0  0  0  0  0  0  0  0  0  0  0
  144.1727  133.3857  150.8916 O   0  0  0  0  0  0  0  0  0  0  0  0
  145.4229  134.0149  151.1349 C   0  0  2  0  0  0  0  0  0  0  0  0
  146.5348  132.9615  151.2165 C   0  0  0  0  0  0  0  0  0  0  0  0
  147.1977  133.1362  152.5932 C   0  0  1  0  0  0  0  0  0  0  0  0
  148.7309  132.9475  152.5724 C   0  0  0  0  0  0  0  0  0  0  0  0
  149.1791  131.8629  153.4501 N   0  0  0  0  0  0  0  0  0  0  0  0
  148.7441  130.5038  153.1501 C   0  0  0  0  0  0  0  0  0  0  0  0
  149.7496  132.1519  154.6574 C   0  0  0  0  0  0  0  0  0  0  0  0
  150.1274  131.1145  155.4536 N   0  0  0  0  0  0  0  0  0  0  0  0
  150.6923  131.3288  156.6440 C   0  0  0  0  0  0  0  0  0  0  0  0
  150.9763  132.4894  157.2326 N   0  0  0  0  0  0  0  0  0  0  0  0
  150.6077  133.5410  156.4486 C   0  0  0  0  0  0  0  0  0  0  0  0
  149.9915  133.4682  155.1640 C   0  0  0  0  0  0  0  0  0  0  0  0
  149.7732  134.7591  154.6900 N   0  0  0  0  0  0  0  0  0  0  0  0
  150.2280  135.5396  155.6306 C   0  0  0  0  0  0  0  0  0  0  0  0
  150.7580  134.8892  156.7195 N   0  0  0  0  0  0  0  0  0  0  0  0
  151.3395  135.4992  157.9027 C   0  0  0  0  0  0  0  0  0  0  0  0
  150.3265  136.3750  158.6860 C   0  0  1  0  0  0  0  0  0  0  0  0
  149.8340  135.6598  159.9656 C   0  0  0  0  0  0  0  0  0  0  0  0
  149.3078  134.3831  159.6696 O   0  0  0  0  0  0  0  0  0  0  0  0
  150.8494  137.8066  158.9874 C   0  0  1  0  0  0  0  0  0  0  0  0
  151.9782  137.9189  160.0047 C   0  0  0  0  0  0  0  0  0  0  0  0
  152.6305  139.2348  159.6064 C   0  0  0  0  0  0  0  0  0  0  0  0
  152.6094  139.1790  158.1896 O   0  0  0  0  0  0  0  0  0  0  0  0
  151.3775  138.5958  157.7758 C   0  0  0  0  0  0  0  0  0  0  0  0
  146.8071  134.4904  153.0382 N   0  3  2  0  0  0  0  0  0  0  0  0
  146.8988  134.7160  154.4980 C   0  0  0  0  0  0  0  0  0  0  0  0
  145.4588  134.7303  152.4907 C   0  0  0  0  0  0  0  0  0  0  0  0
  145.6633  134.7139  150.3315 H   0  0  0  0  0  0  0  0  0  0  0  0
  146.7414  132.4230  153.2822 H   0  0  0  0  0  0  0  0  0  0  0  0
  143.0241  132.4925  149.4373 H   0  0  0  0  0  0  0  0  0  0  0  0
  144.7615  132.2793  149.2333 H   0  0  0  0  0  0  0  0  0  0  0  0
  144.0052  133.8394  148.8645 H   0  0  0  0  0  0  0  0  0  0  0  0
  146.1560  131.9463  151.0922 H   0  0  0  0  0  0  0  0  0  0  0  0
  147.2489  133.1367  150.4111 H   0  0  0  0  0  0  0  0  0  0  0  0
  149.0590  132.7431  151.5526 H   0  0  0  0  0  0  0  0  0  0  0  0
  149.2404  133.8703  152.8491 H   0  0  0  0  0  0  0  0  0  0  0  0
  149.5714  129.8017  153.2558 H   0  0  0  0  0  0  0  0  0  0  0  0
  148.3799  130.4237  152.1258 H   0  0  0  0  0  0  0  0  0  0  0  0
  147.9346  130.2014  153.8149 H   0  0  0  0  0  0  0  0  0  0  0  0
  150.9546  130.4438  157.2050 H   0  0  0  0  0  0  0  0  0  0  0  0
  150.1976  136.6163  155.5501 H   0  0  0  0  0  0  0  0  0  0  0  0
  151.7282  134.7015  158.5354 H   0  0  0  0  0  0  0  0  0  0  0  0
  152.2017  136.0801  157.5781 H   0  0  0  0  0  0  0  0  0  0  0  0
  149.4543  136.5017  158.0426 H   0  0  0  0  0  0  0  0  0  0  0  0
  150.6505  135.5129  160.6722 H   0  0  0  0  0  0  0  0  0  0  0  0
  149.0759  136.2542  160.4761 H   0  0  0  0  0  0  0  0  0  0  0  0
  148.7661  134.4520  158.8982 H   0  0  0  0  0  0  0  0  0  0  0  0
  150.0176  138.3942  159.3787 H   0  0  0  0  0  0  0  0  0  0  0  0
  151.6232  137.9183  161.0358 H   0  0  0  0  0  0  0  0  0  0  0  0
  152.7052  137.1155  159.8963 H   0  0  0  0  0  0  0  0  0  0  0  0
  152.0396  140.0856  159.9500 H   0  0  0  0  0  0  0  0  0  0  0  0
  153.6451  139.3379  159.9918 H   0  0  0  0  0  0  0  0  0  0  0  0
  151.5402  137.9832  156.8899 H   0  0  0  0  0  0  0  0  0  0  0  0
  150.6760  139.3837  157.4985 H   0  0  0  0  0  0  0  0  0  0  0  0
  146.2623  134.0204  155.0466 H   0  0  0  0  0  0  0  0  0  0  0  0
  146.5849  135.7310  154.7438 H   0  0  0  0  0  0  0  0  0  0  0  0
  147.9222  134.5913  154.8509 H   0  0  0  0  0  0  0  0  0  0  0  0
  145.2383  135.7951  152.4084 H   0  0  0  0  0  0  0  0  0  0  0  0
  144.7198  134.2855  153.1599 H   0  0  0  0  0  0  0  0  0  0  0  0
  147.4293  135.1407  152.5798 H   0  0  0  0  0  0  0  0  0  0  0  0
  1  2  1  0  0  0  0
  1 32  1  0  0  0  0
  1 33  1  0  0  0  0
  1 34  1  0  0  0  0
  2  3  1  0  0  0  0
  3 30  1  0  0  0  0
  3 29  1  0  0  0  0
  3  4  1  0  0  0  0
  4  5  1  0  0  0  0
  4 35  1  0  0  0  0
  4 36  1  0  0  0  0
  5 31  1  0  0  0  0
  5  6  1  0  0  0  0
  5 27  1  0  0  0  0
  6  7  1  0  0  0  0
  6 37  1  0  0  0  0
  6 38  1  0  0  0  0
  7  8  1  0  0  0  0
  7  9  1  0  0  0  0
  8 39  1  0  0  0  0
  8 40  1  0  0  0  0
  8 41  1  0  0  0  0
  9 14  1  0  0  0  0
  9 10  2  0  0  0  0
 10 11  1  0  0  0  0
 11 12  2  0  0  0  0
 11 42  1  0  0  0  0
 12 13  1  0  0  0  0
 13 17  1  0  0  0  0
 13 14  2  0  0  0  0
 14 15  1  0  0  0  0
 15 16  2  0  0  0  0
 16 17  1  0  0  0  0
 16 43  1  0  0  0  0
 17 18  1  0  0  0  0
 18 19  1  0  0  0  0
 18 44  1  0  0  0  0
 18 45  1  0  0  0  0
 19 20  1  0  0  0  0
 19 22  1  0  0  0  0
 19 46  1  0  0  0  0
 20 21  1  0  0  0  0
 20 47  1  0  0  0  0
 20 48  1  0  0  0  0
 21 49  1  0  0  0  0
 22 26  1  0  0  0  0
 22 23  1  0  0  0  0
 22 50  1  0  0  0  0
 23 24  1  0  0  0  0
 23 51  1  0  0  0  0
 23 52  1  0  0  0  0
 24 25  1  0  0  0  0
 24 53  1  0  0  0  0
 24 54  1  0  0  0  0
 25 26  1  0  0  0  0
 26 55  1  0  0  0  0
 26 56  1  0  0  0  0
 27 28  1  0  0  0  0
 27 29  1  0  0  0  0
 27 62  1  0  0  0  0
 28 57  1  0  0  0  0
 28 58  1  0  0  0  0
 28 59  1  0  0  0  0
 29 60  1  0  0  0  0
 29 61  1  0  0  0  0
M  CHG  1  27   1
M  END
> <s_m_source_file>
AV-unprocessed.smi

> <i_m_source_file_index>
21

> <i_lp_mmshare_version>
43012

> <i_f3d_flags>
0

> <s_epik_input>
W0NIM11PW0NASF0xW0NIMl1bQ0BIXShOKFtDSDNdKVtDSDJdMSlbQ0gyXU4oW0NIM10pYyhuW2NIXW4yKWMoYzIzKW5bY0hdbjNbQ0gyXVtDQEhdKFtDSDJdW09IXSlbQ0BASF00W0NIMl1bQ0gyXU9bQ0gyXTQ=

> <s_epik_cmdline>
J2VwaWtfcHl0aG9uJywgJy1waCcsICc3LjAnLCAnLXRuJywgJzgnLCAnLW1hJywgJzIwMCcsICctbWV0YWxfYmluZGluZycsICctaW1hZScsICc8aW5maWxlLm1hZT4nLCAnLW9tYWUnLCAnPG91dGZpbGUubWFlPic=

> <r_lp_tautomer_probability>
1

> <r_epik_Ionization_Penalty>
0.0157465

> <r_epik_Ionization_Penalty_Charging>
0.015354

> <r_epik_Ionization_Penalty_Neutral>
0.000392529

> <r_epik_State_Penalty>
0.0120612

> <r_epik_Charging_Adjusted_Penalty>
0.0274152

> <i_epik_Tot_Q>
1

> <i_epik_Tot_abs_Q>
1

> <r_epik_Metal_State_Penalty>
0.0121253

> <b_epik_Metal_Only>
0

> <s_lp_Force_Field>
OPLS_2005

> <r_lp_Energy>
60.5183

> <b_lp_Chiralities_Consistent>
1

> <s_lp_Variant>
AV-unprocessed.smi:21-14

> <Gold.Version>
5.8.1

> <Gold.Id.Protein>
6NUR|6NUR_protein|mol2

> <Gold.PLP.Fitness>
52.5229

> <Gold.PLP.PLP>
-41.9756

> <Gold.PLP.part.hbond>
-4.0000

> <Gold.PLP.part.metal>
0.0000

> <Gold.PLP.part.buried>
-5.1052

> <Gold.PLP.part.nonpolar>
-33.8100

> <Gold.PLP.part.repulsive>
2.2790

> <Gold.PLP.ligand.clash>
0.0000

> <Gold.PLP.ligand.torsion>
1.7477

> <Gold.PLP.Chemscore.Hbond>
4.4800

> <Gold.PLP.Chemscore.CHOScore>
0.0000

> <Gold.PLP.Chemscore.Metal>
0.0000

> <Gold.Chemscore.Hbonds>
donor molecule, donor type, donor heavy atom, donor atom, acceptor molecule, acceptor atom, score
      L1  H    27    62       P1  7948  2.00
      P1  H  6896  6909       L1    12  0.46

> <Gold.PLP.Chemscore.Internal.Correction>
0.6027

> <Gold.Rescore>
     Score         DG    S(hbond)    S(metal)    S(lipo)     H(rot)  DE(clash)    DE(int)     intcor
     13.09     -16.45       2.68        0.00      84.53       3.08       0.46       2.90       ----

> <Gold.Chemscore.Fitness>
13.0922

> <Gold.Chemscore.DG>
-16.4525

> <Gold.Chemscore.ZeroCoef>
-5.4800

> <Gold.Chemscore.Hbond>
2.6817

> <Gold.Chemscore.Metal>
0.0000

> <Gold.Chemscore.Lipo>
84.5277

> <Gold.Chemscore.Internal_Hbond>
0.0000

> <Gold.Chemscore.DEClash>
0.4572

> <Gold.Chemscore.DEInternal>
2.9030

> <Gold.Chemscore.Rot>
3.0758

> <Gold.Chemscore.Internal.Correction>
   9.000000E+99

> <Gold.Chemscore.Hbonds>
donor molecule, donor type, donor heavy atom, donor atom, acceptor molecule, acceptor atom, score
      L1  H    27    62       P1  7948  0.97
      P1  H  6896  6909       L1    12  0.29

> <Gold.Chemscore.Hbond.Weighted>
-8.9569

> <Gold.Chemscore.Metal.Weighted>
-0.0000

> <Gold.Chemscore.Lipo.Weighted>
-9.8897

> <Gold.Chemscore.Internal_Hbond.Weighted>
0.0000

> <Gold.Chemscore.DEClash.Weighted>
0.4572

> <Gold.Chemscore.DEInternal.Weighted>
2.9030

> <Gold.Chemscore.Rot.Weighted>
7.8741

> <Gold.Chemscore.Internal.Correction.Weighted>
   9.000000E+99

> <Gold.Protein.RotatedTorsions>
[ 6907 6896 6895 6894 ] final  -54.45 input  -60.11 | X-H torsion
[ 7974 7965 7964 7962 ] final -168.10 input  175.53 | X-H torsion
[ 8008 7997 7996 7995 ] final  -48.17 input   59.86 | X-H torsion
[ 10167 10162 10161 10158 ] final  102.74 input  -65.29 | X-H torsion
[ 10718 10713 10712 10709 ] final   26.20 input   66.30 | X-H torsion
[ 10763 10752 10751 10750 ] final  -52.47 input  -60.55 | X-H torsion
[ 11005 11000 10999 10996 ] final  -80.75 input  -57.11 | X-H torsion

> <Gold.Protein.ActiveResidues>
 VAL166  LYS551  ARG553  GLY616  TRP617  ASP618  TYR619  PRO620  LYS621  CYS622 
 ASP623  PHE694  ASN695  SER759  ASP760  ASP761  ALA762  ILE779  LEU786  VAL792 
 PHE793  MET794  SER795  GLU796  ALA797  LYS798  CYS799  TRP800  GLU811  SER814 

> <Gold.Protein.RotatedAtoms>
  150.8337  134.7601  159.6874 H   0  0  0  0  0  0  0  0  0  0  0  0  # atno 6907 bound_to 6896
  152.4437  134.5534  159.9883 H   0  0  0  0  0  0  0  0  0  0  0  0  # atno 6908 bound_to 6896
  151.5690  133.3355  159.3021 H   0  0  0  0  0  0  0  0  0  0  0  0  # atno 6909 bound_to 6896
  144.7210  140.2421  143.6290 H   0  0  0  0  0  0  0  0  0  0  0  0  # atno 7974 bound_to 7965
  154.4025  140.1328  156.4295 H   0  0  0  0  0  0  0  0  0  0  0  0  # atno 8008 bound_to 7997
  155.7564  140.3487  155.5156 H   0  0  0  0  0  0  0  0  0  0  0  0  # atno 8009 bound_to 7997
  155.8900  140.1001  157.1415 H   0  0  0  0  0  0  0  0  0  0  0  0  # atno 8010 bound_to 7997
  139.7323  144.7033  151.0702 H   0  0  0  0  0  0  0  0  0  0  0  0  # atno 10167 bound_to 10162
  157.2037  130.6902  149.6199 H   0  0  0  0  0  0  0  0  0  0  0  0  # atno 10718 bound_to 10713
  154.1432  135.6502  153.4947 H   0  0  0  0  0  0  0  0  0  0  0  0  # atno 10763 bound_to 10752
  153.0160  135.5320  154.6884 H   0  0  0  0  0  0  0  0  0  0  0  0  # atno 10764 bound_to 10752
  154.6151  135.2958  155.0360 H   0  0  0  0  0  0  0  0  0  0  0  0  # atno 10765 bound_to 10752
  141.1667  133.7164  156.8319 H   0  0  0  0  0  0  0  0  0  0  0  0  # atno 11005 bound_to 11000
  145.8310  139.2086  143.1883 LP  0  0  0  0  0  0  0  0  0  0  0  0  # atno 17320 bound_to 7965
  146.0431  140.8145  142.9819 LP  0  0  0  0  0  0  0  0  0  0  0  0  # atno 17321 bound_to 7965
  140.7773  143.5027  150.9751 LP  0  0  0  0  0  0  0  0  0  0  0  0  # atno 17342 bound_to 10162
  139.8715  143.7186  152.3166 LP  0  0  0  0  0  0  0  0  0  0  0  0  # atno 17343 bound_to 10162
  155.9698  130.4574  150.5961 LP  0  0  0  0  0  0  0  0  0  0  0  0  # atno 17370 bound_to 10713
  157.3742  131.0770  151.1532 LP  0  0  0  0  0  0  0  0  0  0  0  0  # atno 17371 bound_to 10713
  140.2045  134.8873  157.3206 LP  0  0  0  0  0  0  0  0  0  0  0  0  # atno 17394 bound_to 11000
  140.2152  134.4090  155.7593 LP  0  0  0  0  0  0  0  0  0  0  0  0  # atno 17395 bound_to 11000

$$$$
