AV-unprocessed.smi:3106|AV-procd|sdf|11824|dock4
  -GOLD-   2272017193D 1   1.00000     0.00000
 Structure written by MMmdl.
 29 30  0  0  0  0  0  0  0  0  1 V2000
  152.4204  143.8037  161.5983 C   0  0  0  0  0  0  0  0  0  0  0  0
  152.2151  143.0014  160.3305 C   0  0  0  0  0  0  0  0  0  0  0  0
  151.3387  143.4534  159.3264 C   0  0  0  0  0  0  0  0  0  0  0  0
  151.1753  142.6730  158.1658 C   0  0  0  0  0  0  0  0  0  0  0  0
  151.8905  141.4613  158.0358 C   0  0  0  0  0  0  0  0  0  0  0  0
  151.6522  140.7492  156.8303 N   0  0  0  0  0  0  0  0  0  0  0  0
  152.1842  139.5786  156.4321 C   0  0  0  0  0  0  0  0  0  0  0  0
  152.9917  138.9178  157.0866 O   0  0  0  0  0  0  0  0  0  0  0  0
  151.7076  139.0656  155.0680 C   0  0  1  0  0  0  0  0  0  0  0  0
  151.0571  137.6699  155.1127 C   0  0  0  0  0  0  0  0  0  0  0  0
  149.5899  137.9489  154.8522 C   0  0  0  0  0  0  0  0  0  0  0  0
  149.6606  139.1964  153.9835 C   0  0  0  0  0  0  0  0  0  0  0  0
  150.6966  139.9521  154.5908 O   0  0  0  0  0  0  0  0  0  0  0  0
  152.7340  141.0344  159.0086 N   0  0  0  0  0  0  0  0  0  0  0  0
  152.8894  141.7824  160.1212 C   0  0  0  0  0  0  0  0  0  0  0  0
  152.5931  144.8536  161.3607 H   0  0  0  0  0  0  0  0  0  0  0  0
  153.2786  143.4376  162.1626 H   0  0  0  0  0  0  0  0  0  0  0  0
  151.5373  143.7350  162.2341 H   0  0  0  0  0  0  0  0  0  0  0  0
  150.7990  144.3822  159.4413 H   0  0  0  0  0  0  0  0  0  0  0  0
  150.5054  143.0055  157.3860 H   0  0  0  0  0  0  0  0  0  0  0  0
  150.9972  141.1792  156.1939 H   0  0  0  0  0  0  0  0  0  0  0  0
  152.5364  139.0585  154.3579 H   0  0  0  0  0  0  0  0  0  0  0  0
  151.4652  137.0501  154.3132 H   0  0  0  0  0  0  0  0  0  0  0  0
  151.2124  137.1332  156.0497 H   0  0  0  0  0  0  0  0  0  0  0  0
  149.0741  137.1189  154.3687 H   0  0  0  0  0  0  0  0  0  0  0  0
  149.0782  138.1742  155.7890 H   0  0  0  0  0  0  0  0  0  0  0  0
  149.9434  138.9443  152.9603 H   0  0  0  0  0  0  0  0  0  0  0  0
  148.7211  139.7487  153.9580 H   0  0  0  0  0  0  0  0  0  0  0  0
  153.5709  141.3936  160.8634 H   0  0  0  0  0  0  0  0  0  0  0  0
  1  2  1  0  0  0  0
  1 16  1  0  0  0  0
  1 17  1  0  0  0  0
  1 18  1  0  0  0  0
  2 15  1  0  0  0  0
  2  3  2  0  0  0  0
  3  4  1  0  0  0  0
  3 19  1  0  0  0  0
  4  5  2  0  0  0  0
  4 20  1  0  0  0  0
  5  6  1  0  0  0  0
  5 14  1  0  0  0  0
  6  7  1  0  0  0  0
  6 21  1  0  0  0  0
  7  8  2  0  0  0  0
  7  9  1  0  0  0  0
  9 13  1  0  0  0  0
  9 10  1  0  0  0  0
  9 22  1  0  0  0  0
 10 11  1  0  0  0  0
 10 23  1  0  0  0  0
 10 24  1  0  0  0  0
 11 12  1  0  0  0  0
 11 25  1  0  0  0  0
 11 26  1  0  0  0  0
 12 13  1  0  0  0  0
 12 27  1  0  0  0  0
 12 28  1  0  0  0  0
 14 15  2  0  0  0  0
 15 29  1  0  0  0  0
M  END
> <s_m_source_file>
AV-unprocessed.smi

> <i_m_source_file_index>
3106

> <i_lp_mmshare_version>
43012

> <i_f3d_flags>
0

> <s_epik_input>
W0NIM11jMVtjSF1bY0hdYyhuW2NIXTEpW05IXUMoPU8pW0NAQEhdMltDSDJdW0NIMl1bQ0gyXU8y

> <s_epik_cmdline>
J2VwaWtfcHl0aG9uJywgJy1waCcsICc3LjAnLCAnLXRuJywgJzgnLCAnLW1hJywgJzIwMCcsICctbWV0YWxfYmluZGluZycsICctaW1hZScsICc8aW5maWxlLm1hZT4nLCAnLW9tYWUnLCAnPG91dGZpbGUubWFlPic=

> <r_epik_Ionization_Penalty>
0.00356606

> <r_epik_Ionization_Penalty_Charging>
0

> <r_epik_Ionization_Penalty_Neutral>
0.00356606

> <r_epik_State_Penalty>
0.00372088

> <r_epik_Charging_Adjusted_Penalty>
0.00372088

> <i_epik_Tot_Q>
0

> <i_epik_Tot_abs_Q>
0

> <r_epik_Metal_State_Penalty>
-0

> <b_epik_Metal_Only>
0

> <s_lp_Force_Field>
OPLS_2005

> <r_lp_Energy>
20.6895

> <b_lp_Chiralities_Consistent>
1

> <s_lp_Variant>
AV-unprocessed.smi:3106-2

> <Gold.Version>
5.8.1

> <Gold.Id.Protein>
6NUR|6NUR_protein|mol2

> <Gold.PLP.Fitness>
37.3146

> <Gold.PLP.PLP>
-31.3685

> <Gold.PLP.part.hbond>
-2.0000

> <Gold.PLP.part.metal>
0.0000

> <Gold.PLP.part.buried>
-2.0734

> <Gold.PLP.part.nonpolar>
-26.9481

> <Gold.PLP.part.repulsive>
0.2090

> <Gold.PLP.ligand.clash>
0.0000

> <Gold.PLP.ligand.torsion>
0.0306

> <Gold.PLP.Chemscore.Hbond>
2.0000

> <Gold.PLP.Chemscore.CHOScore>
0.0000

> <Gold.PLP.Chemscore.Metal>
0.0000

> <Gold.Chemscore.Hbonds>
donor molecule, donor type, donor heavy atom, donor atom, acceptor molecule, acceptor atom, score
      P1  H  7989  7998       L1    13  0.95
      P1  H  7997  8008       L1     8  1.00

> <Gold.PLP.Chemscore.Internal.Correction>
0.0074

> <Gold.Rescore>
     Score         DG    S(hbond)    S(metal)    S(lipo)     H(rot)  DE(clash)    DE(int)     intcor
     15.97     -17.71       1.69        0.00      78.13       1.00       0.39       1.35       ----

> <Gold.Chemscore.Fitness>
15.9687

> <Gold.Chemscore.DG>
-17.7111

> <Gold.Chemscore.ZeroCoef>
-5.4800

> <Gold.Chemscore.Hbond>
1.6914

> <Gold.Chemscore.Metal>
0.0000

> <Gold.Chemscore.Lipo>
78.1341

> <Gold.Chemscore.Internal_Hbond>
0.0000

> <Gold.Chemscore.DEClash>
0.3944

> <Gold.Chemscore.DEInternal>
1.3480

> <Gold.Chemscore.Rot>
1.0000

> <Gold.Chemscore.Internal.Correction>
   9.000000E+99

> <Gold.Chemscore.Hbonds>
donor molecule, donor type, donor heavy atom, donor atom, acceptor molecule, acceptor atom, score
      P1  H  7989  7998       L1    13  0.19
      P1  H  7997  8008       L1     8  0.25

> <Gold.Chemscore.Hbond.Weighted>
-5.6494

> <Gold.Chemscore.Metal.Weighted>
-0.0000

> <Gold.Chemscore.Lipo.Weighted>
-9.1417

> <Gold.Chemscore.Internal_Hbond.Weighted>
0.0000

> <Gold.Chemscore.DEClash.Weighted>
0.3944

> <Gold.Chemscore.DEInternal.Weighted>
1.3480

> <Gold.Chemscore.Rot.Weighted>
2.5600

> <Gold.Chemscore.Internal.Correction.Weighted>
   9.000000E+99

> <Gold.Protein.RotatedTorsions>
[ 6907 6896 6895 6894 ] final   11.18 input  -60.11 | X-H torsion
[ 7974 7965 7964 7962 ] final  102.95 input  175.53 | X-H torsion
[ 8008 7997 7996 7995 ] final  -81.04 input   59.86 | X-H torsion
[ 10167 10162 10161 10158 ] final  165.12 input  -65.29 | X-H torsion
[ 10718 10713 10712 10709 ] final -155.50 input   66.30 | X-H torsion
[ 10763 10752 10751 10750 ] final  -32.80 input  -60.55 | X-H torsion
[ 11005 11000 10999 10996 ] final   74.41 input  -57.11 | X-H torsion

> <Gold.Protein.ActiveResidues>
 VAL166  LYS551  ARG553  GLY616  TRP617  ASP618  TYR619  PRO620  LYS621  CYS622 
 ASP623  PHE694  ASN695  SER759  ASP760  ASP761  ALA762  ILE779  LEU786  VAL792 
 PHE793  MET794  SER795  GLU796  ALA797  LYS798  CYS799  TRP800  GLU811  SER814 

> <Gold.Protein.RotatedAtoms>
  151.7502  135.0834  160.0329 H   0  0  0  0  0  0  0  0  0  0  0  0  # atno 6907 bound_to 6896
  152.3421  133.6075  159.5892 H   0  0  0  0  0  0  0  0  0  0  0  0  # atno 6908 bound_to 6896
  150.7486  133.9621  159.3560 H   0  0  0  0  0  0  0  0  0  0  0  0  # atno 6909 bound_to 6896
  145.3524  139.2436  143.3551 H   0  0  0  0  0  0  0  0  0  0  0  0  # atno 7974 bound_to 7965
  154.5944  140.0654  156.9283 H   0  0  0  0  0  0  0  0  0  0  0  0  # atno 8008 bound_to 7997
  155.2240  140.3332  155.4293 H   0  0  0  0  0  0  0  0  0  0  0  0  # atno 8009 bound_to 7997
  156.2277  140.1827  156.7305 H   0  0  0  0  0  0  0  0  0  0  0  0  # atno 8010 bound_to 7997
  139.4900  144.4165  151.9238 H   0  0  0  0  0  0  0  0  0  0  0  0  # atno 10167 bound_to 10162
  156.5137  130.8446  151.2656 H   0  0  0  0  0  0  0  0  0  0  0  0  # atno 10718 bound_to 10713
  153.8198  135.6875  153.4829 H   0  0  0  0  0  0  0  0  0  0  0  0  # atno 10763 bound_to 10752
  153.1576  135.4592  154.9725 H   0  0  0  0  0  0  0  0  0  0  0  0  # atno 10764 bound_to 10752
  154.7932  135.3309  154.7671 H   0  0  0  0  0  0  0  0  0  0  0  0  # atno 10765 bound_to 10752
  139.9392  134.7430  156.1144 H   0  0  0  0  0  0  0  0  0  0  0  0  # atno 11005 bound_to 11000
  146.2962  140.4143  142.8721 LP  0  0  0  0  0  0  0  0  0  0  0  0  # atno 17320 bound_to 7965
  144.8708  140.7269  143.6048 LP  0  0  0  0  0  0  0  0  0  0  0  0  # atno 17321 bound_to 7965
  140.3607  144.2976  150.5934 LP  0  0  0  0  0  0  0  0  0  0  0  0  # atno 17342 bound_to 10162
  140.5405  143.2224  151.8093 LP  0  0  0  0  0  0  0  0  0  0  0  0  # atno 17343 bound_to 10162
  157.7447  130.9941  150.2695 LP  0  0  0  0  0  0  0  0  0  0  0  0  # atno 17370 bound_to 10713
  156.3216  130.3786  149.7570 LP  0  0  0  0  0  0  0  0  0  0  0  0  # atno 17371 bound_to 10713
  141.1020  133.6674  156.2776 LP  0  0  0  0  0  0  0  0  0  0  0  0  # atno 17394 bound_to 11000
  140.5994  134.5570  157.5515 LP  0  0  0  0  0  0  0  0  0  0  0  0  # atno 17395 bound_to 11000

$$$$
