AV-unprocessed.smi:976|AV-procd|sdf|4303|dock1
  -GOLD-   22720 2213D 1   1.00000     0.00000
 Structure written by MMmdl.
 41 42  0  0  0  0  0  0  0  0  1 V2000
  150.2441  137.4213  159.3815 C   0  0  0  0  0  0  0  0  0  0  0  0
  148.8438  136.7907  159.3512 C   0  0  1  0  0  0  0  0  0  0  0  0
  148.3352  136.8098  160.6826 O   0  0  0  0  0  0  0  0  0  0  0  0
  147.3403  135.8333  160.9748 C   0  0  0  0  0  0  0  0  0  0  0  0
  146.7829  136.0823  162.3814 C   0  0  0  0  0  0  0  0  0  0  0  0
  147.7936  136.2940  163.2234 F   0  0  0  0  0  0  0  0  0  0  0  0
  145.9943  137.1566  162.3812 F   0  0  0  0  0  0  0  0  0  0  0  0
  146.0942  135.0204  162.7986 F   0  0  0  0  0  0  0  0  0  0  0  0
  147.9045  137.5594  158.4078 C   0  0  0  0  0  0  0  0  0  0  0  0
  146.8384  138.0034  158.8336 O   0  0  0  0  0  0  0  0  0  0  0  0
  148.3352  137.6975  157.1411 N   0  0  0  0  0  0  0  0  0  0  0  0
  147.6884  138.3535  156.0554 C   0  0  0  0  0  0  0  0  0  0  0  0
  146.2901  138.2723  155.8472 C   0  0  0  0  0  0  0  0  0  0  0  0
  145.7250  138.9040  154.7249 C   0  0  0  0  0  0  0  0  0  0  0  0
  146.5804  139.5857  153.8418 C   0  0  0  0  0  0  0  0  0  0  0  0
  147.9153  139.6600  154.0178 N   0  0  0  0  0  0  0  0  0  0  0  0
  148.4686  139.0576  155.0988 C   0  0  0  0  0  0  0  0  0  0  0  0
  149.8640  139.1721  155.2615 N   0  0  0  0  0  0  0  0  0  0  0  0
  150.7085  138.5666  154.2363 C   0  0  0  0  0  0  0  0  0  0  0  0
  152.1788  138.5910  154.6879 C   0  0  0  0  0  0  0  0  0  0  0  0
  152.5645  139.9290  154.9906 O   0  0  0  0  0  0  0  0  0  0  0  0
  151.7831  140.4884  156.0427 C   0  0  0  0  0  0  0  0  0  0  0  0
  150.3014  140.5138  155.6301 C   0  0  0  0  0  0  0  0  0  0  0  0
  150.6888  137.4484  158.3861 H   0  0  0  0  0  0  0  0  0  0  0  0
  150.9120  136.8475  160.0244 H   0  0  0  0  0  0  0  0  0  0  0  0
  150.2175  138.4421  159.7652 H   0  0  0  0  0  0  0  0  0  0  0  0
  148.9424  135.7560  159.0165 H   0  0  0  0  0  0  0  0  0  0  0  0
  146.5260  135.8752  160.2506 H   0  0  0  0  0  0  0  0  0  0  0  0
  147.7733  134.8334  160.9210 H   0  0  0  0  0  0  0  0  0  0  0  0
  149.2733  137.3737  156.9534 H   0  0  0  0  0  0  0  0  0  0  0  0
  145.6465  137.7216  156.5158 H   0  0  0  0  0  0  0  0  0  0  0  0
  144.6619  138.8593  154.5413 H   0  0  0  0  0  0  0  0  0  0  0  0
  146.1839  140.0798  152.9671 H   0  0  0  0  0  0  0  0  0  0  0  0
  150.3907  137.5398  154.0517 H   0  0  0  0  0  0  0  0  0  0  0  0
  150.6027  139.1146  153.2989 H   0  0  0  0  0  0  0  0  0  0  0  0
  152.3285  137.9525  155.5600 H   0  0  0  0  0  0  0  0  0  0  0  0
  152.8214  138.2061  153.8960 H   0  0  0  0  0  0  0  0  0  0  0  0
  151.9212  139.9123  156.9593 H   0  0  0  0  0  0  0  0  0  0  0  0
  152.1337  141.5002  156.2465 H   0  0  0  0  0  0  0  0  0  0  0  0
  150.1625  141.1799  154.7773 H   0  0  0  0  0  0  0  0  0  0  0  0
  149.6971  140.9114  156.4455 H   0  0  0  0  0  0  0  0  0  0  0  0
  1  2  1  0  0  0  0
  1 24  1  0  0  0  0
  1 25  1  0  0  0  0
  1 26  1  0  0  0  0
  2  3  1  0  0  0  0
  2  9  1  0  0  0  0
  2 27  1  0  0  0  0
  3  4  1  0  0  0  0
  4  5  1  0  0  0  0
  4 28  1  0  0  0  0
  4 29  1  0  0  0  0
  5  6  1  0  0  0  0
  5  7  1  0  0  0  0
  5  8  1  0  0  0  0
  9 10  2  0  0  0  0
  9 11  1  0  0  0  0
 11 12  1  0  0  0  0
 11 30  1  0  0  0  0
 12 17  1  0  0  0  0
 12 13  2  0  0  0  0
 13 14  1  0  0  0  0
 13 31  1  0  0  0  0
 14 15  2  0  0  0  0
 14 32  1  0  0  0  0
 15 16  1  0  0  0  0
 15 33  1  0  0  0  0
 16 17  2  0  0  0  0
 17 18  1  0  0  0  0
 18 23  1  0  0  0  0
 18 19  1  0  0  0  0
 19 20  1  0  0  0  0
 19 34  1  0  0  0  0
 19 35  1  0  0  0  0
 20 21  1  0  0  0  0
 20 36  1  0  0  0  0
 20 37  1  0  0  0  0
 21 22  1  0  0  0  0
 22 23  1  0  0  0  0
 22 38  1  0  0  0  0
 22 39  1  0  0  0  0
 23 40  1  0  0  0  0
 23 41  1  0  0  0  0
M  END
> <s_m_source_file>
AV-unprocessed.smi

> <i_m_source_file_index>
976

> <i_lp_mmshare_version>
43012

> <i_f3d_flags>
0

> <s_epik_input>
RkMoRikoRilbQ0gyXU9bQ0BASF0oW0NIM10pQyg9TylbTkhdYzFbY0hdW2NIXVtjSF1uYzFOMltDSDJdW0NIMl1PW0NIMl1bQ0gyXTI=

> <s_epik_cmdline>
J2VwaWtfcHl0aG9uJywgJy1waCcsICc3LjAnLCAnLXRuJywgJzgnLCAnLW1hJywgJzIwMCcsICctbWV0YWxfYmluZGluZycsICctaW1hZScsICc8aW5maWxlLm1hZT4nLCAnLW9tYWUnLCAnPG91dGZpbGUubWFlPic=

> <r_lp_tautomer_probability>
1

> <r_epik_Ionization_Penalty>
0.000443367

> <r_epik_Ionization_Penalty_Charging>
0

> <r_epik_Ionization_Penalty_Neutral>
0.000443367

> <r_epik_State_Penalty>
0.00027288

> <r_epik_Charging_Adjusted_Penalty>
0.00027288

> <i_epik_Tot_Q>
0

> <i_epik_Tot_abs_Q>
0

> <r_epik_Metal_State_Penalty>
-0

> <b_epik_Metal_Only>
0

> <s_lp_Force_Field>
OPLS_2005

> <r_lp_Energy>
26.1197

> <b_lp_Chiralities_Consistent>
1

> <s_lp_Variant>
AV-unprocessed.smi:976-2

> <Gold.Version>
5.8.1

> <Gold.Id.Protein>
6NUR|6NUR_protein|mol2

> <Gold.PLP.Fitness>
43.9943

> <Gold.PLP.PLP>
-35.8929

> <Gold.PLP.part.hbond>
-3.9091

> <Gold.PLP.part.metal>
0.0000

> <Gold.PLP.part.buried>
-5.9174

> <Gold.PLP.part.nonpolar>
-28.3658

> <Gold.PLP.part.repulsive>
0.2570

> <Gold.PLP.ligand.clash>
0.0000

> <Gold.PLP.ligand.torsion>
0.8433

> <Gold.PLP.Chemscore.Hbond>
2.3303

> <Gold.PLP.Chemscore.CHOScore>
0.8185

> <Gold.PLP.Chemscore.Metal>
0.0000

> <Gold.Chemscore.Hbonds>
donor molecule, donor type, donor heavy atom, donor atom, acceptor molecule, acceptor atom, score
      P1  H  6931  6943       L1     3  0.98
      P1  H  6934  6947       L1    10  0.15
      P1  H  7989  7998       L1    21  0.48
      P1  H  7997  8009       L1    21  0.66
      L1  C    15    33       P1 10175  0.82

> <Gold.PLP.Chemscore.Internal.Correction>
0.3417

> <Gold.Rescore>
     Score         DG    S(hbond)    S(metal)    S(lipo)     H(rot)  DE(clash)    DE(int)     intcor
     10.43     -12.43       1.41        0.00      61.78       1.95       0.30       1.70       ----

> <Gold.Chemscore.Fitness>
10.4260

> <Gold.Chemscore.DG>
-12.4271

> <Gold.Chemscore.ZeroCoef>
-5.4800

> <Gold.Chemscore.Hbond>
1.4097

> <Gold.Chemscore.Metal>
0.0000

> <Gold.Chemscore.Lipo>
61.7825

> <Gold.Chemscore.Internal_Hbond>
0.0000

> <Gold.Chemscore.DEClash>
0.3032

> <Gold.Chemscore.DEInternal>
1.6979

> <Gold.Chemscore.Rot>
1.9491

> <Gold.Chemscore.Internal.Correction>
   9.000000E+99

> <Gold.Chemscore.Hbonds>
donor molecule, donor type, donor heavy atom, donor atom, acceptor molecule, acceptor atom, score
      P1  H  6931  6943       L1     3  0.81
      P1  H  6934  6947       L1    10  0.11
      P1  H  7989  7998       L1    21  0.02
      P1  H  7997  8009       L1    21  0.09

> <Gold.Chemscore.Hbond.Weighted>
-4.7083

> <Gold.Chemscore.Metal.Weighted>
-0.0000

> <Gold.Chemscore.Lipo.Weighted>
-7.2286

> <Gold.Chemscore.Internal_Hbond.Weighted>
0.0000

> <Gold.Chemscore.DEClash.Weighted>
0.3032

> <Gold.Chemscore.DEInternal.Weighted>
1.6979

> <Gold.Chemscore.Rot.Weighted>
4.9897

> <Gold.Chemscore.Internal.Correction.Weighted>
   9.000000E+99

> <Gold.Protein.RotatedTorsions>
[ 6907 6896 6895 6894 ] final    6.79 input  -60.11 | X-H torsion
[ 7974 7965 7964 7962 ] final   27.85 input  175.53 | X-H torsion
[ 8008 7997 7996 7995 ] final -137.61 input   59.86 | X-H torsion
[ 10167 10162 10161 10158 ] final  157.30 input  -65.29 | X-H torsion
[ 10718 10713 10712 10709 ] final  130.21 input   66.30 | X-H torsion
[ 10763 10752 10751 10750 ] final  -67.21 input  -60.55 | X-H torsion
[ 11005 11000 10999 10996 ] final -104.04 input  -57.11 | X-H torsion

> <Gold.Protein.ActiveResidues>
 VAL166  LYS551  ARG553  GLY616  TRP617  ASP618  TYR619  PRO620  LYS621  CYS622 
 ASP623  PHE694  ASN695  SER759  ASP760  ASP761  ALA762  ILE779  LEU786  VAL792 
 PHE793  MET794  SER795  GLU796  ALA797  LYS798  CYS799  TRP800  GLU811  SER814 

> <Gold.Protein.RotatedAtoms>
  151.6794  135.0964  160.0212 H   0  0  0  0  0  0  0  0  0  0  0  0  # atno 6907 bound_to 6896
  152.3845  133.6587  159.6196 H   0  0  0  0  0  0  0  0  0  0  0  0  # atno 6908 bound_to 6896
  150.7774  133.8975  159.3373 H   0  0  0  0  0  0  0  0  0  0  0  0  # atno 6909 bound_to 6896
  146.1761  139.7135  142.8933 H   0  0  0  0  0  0  0  0  0  0  0  0  # atno 7974 bound_to 7965
  155.4147  140.0514  157.3029 H   0  0  0  0  0  0  0  0  0  0  0  0  # atno 8008 bound_to 7997
  154.4930  140.2127  155.9467 H   0  0  0  0  0  0  0  0  0  0  0  0  # atno 8009 bound_to 7997
  156.1368  140.3162  155.8438 H   0  0  0  0  0  0  0  0  0  0  0  0  # atno 8010 bound_to 7997
  139.4823  144.4930  151.8280 H   0  0  0  0  0  0  0  0  0  0  0  0  # atno 10167 bound_to 10162
  157.5083  131.1096  150.9329 H   0  0  0  0  0  0  0  0  0  0  0  0  # atno 10718 bound_to 10713
  154.3712  135.6095  153.5741 H   0  0  0  0  0  0  0  0  0  0  0  0  # atno 10763 bound_to 10752
  152.9790  135.5838  154.4519 H   0  0  0  0  0  0  0  0  0  0  0  0  # atno 10764 bound_to 10752
  154.4273  135.2847  155.1913 H   0  0  0  0  0  0  0  0  0  0  0  0  # atno 10765 bound_to 10752
  141.1118  133.8690  157.1562 H   0  0  0  0  0  0  0  0  0  0  0  0  # atno 11005 bound_to 11000
  145.4207  141.0406  143.2965 LP  0  0  0  0  0  0  0  0  0  0  0  0  # atno 17320 bound_to 7965
  144.8239  139.5744  143.6974 LP  0  0  0  0  0  0  0  0  0  0  0  0  # atno 17321 bound_to 7965
  140.4416  144.1978  150.5891 LP  0  0  0  0  0  0  0  0  0  0  0  0  # atno 17342 bound_to 10162
  140.4677  143.2425  151.9133 LP  0  0  0  0  0  0  0  0  0  0  0  0  # atno 17343 bound_to 10162
  156.9978  130.5588  149.5308 LP  0  0  0  0  0  0  0  0  0  0  0  0  # atno 17370 bound_to 10713
  156.0272  130.5366  150.8440 LP  0  0  0  0  0  0  0  0  0  0  0  0  # atno 17371 bound_to 10713
  140.0017  135.0025  157.0204 LP  0  0  0  0  0  0  0  0  0  0  0  0  # atno 17394 bound_to 11000
  140.4753  134.1344  155.7209 LP  0  0  0  0  0  0  0  0  0  0  0  0  # atno 17395 bound_to 11000

$$$$
