AV-unprocessed.smi:142|AV-procd|sdf|1189|dock10
  -GOLD-   2262018343D 1   1.00000     0.00000
 Structure written by MMmdl.
 52 55  0  0  0  0  0  0  0  0  1 V2000
  151.0627  138.2101  155.4826 C   0  0  0  0  0  0  0  0  0  0  0  0
  150.7355  138.4635  156.9605 C   0  0  2  0  0  0  0  0  0  0  0  0
  149.3559  138.0590  157.2244 N   0  0  0  0  0  0  0  0  0  0  0  0
  148.9858  136.9163  157.8221 C   0  0  0  0  0  0  0  0  0  0  0  0
  149.7899  136.0609  158.1956 O   0  0  0  0  0  0  0  0  0  0  0  0
  147.4746  136.7218  158.0186 C   0  0  0  0  0  0  0  0  0  0  0  0
  147.1467  135.7190  159.0553 N   0  0  0  0  0  0  0  0  0  0  0  0
  147.0469  136.1476  160.4021 C   0  0  0  0  0  0  0  0  0  0  0  0
  147.2110  137.3295  160.7095 O   0  0  0  0  0  0  0  0  0  0  0  0
  146.7505  135.1027  161.3755 C   0  0  0  0  0  0  0  0  0  0  0  0
  146.6318  135.4195  162.6760 F   0  0  0  0  0  0  0  0  0  0  0  0
  146.5952  133.8187  160.9918 C   0  0  0  0  0  0  0  0  0  0  0  0
  146.7017  133.4133  159.6732 N   0  0  0  0  0  0  0  0  0  0  0  0
  146.5439  131.9651  159.2614 C   0  0  2  0  0  0  0  0  0  0  0  0
  146.2483  131.0823  160.4875 C   0  0  0  0  0  0  0  0  0  0  0  0
  147.2568  129.9608  160.3398 C   0  0  0  0  0  0  0  0  0  0  0  0
  148.4052  130.6651  159.6331 C   0  0  0  0  0  0  0  0  0  0  0  0
  147.7360  131.4985  158.6959 O   0  0  0  0  0  0  0  0  0  0  0  0
  146.9855  134.3665  158.6713 C   0  0  0  0  0  0  0  0  0  0  0  0
  147.0936  134.0233  157.4919 O   0  0  0  0  0  0  0  0  0  0  0  0
  151.0246  139.9130  157.3418 C   0  0  0  0  0  0  0  0  0  0  0  0
  150.6908  140.9455  156.4395 C   0  0  0  0  0  0  0  0  0  0  0  0
  150.9376  142.2919  156.7702 C   0  0  0  0  0  0  0  0  0  0  0  0
  151.5194  142.6196  158.0113 C   0  0  0  0  0  0  0  0  0  0  0  0
  151.7680  143.9662  158.3496 C   0  0  0  0  0  0  0  0  0  0  0  0
  152.3503  144.2855  159.5919 C   0  0  0  0  0  0  0  0  0  0  0  0
  152.6857  143.2612  160.4983 C   0  0  0  0  0  0  0  0  0  0  0  0
  152.4378  141.9151  160.1665 C   0  0  0  0  0  0  0  0  0  0  0  0
  151.8547  141.5896  158.9244 C   0  0  0  0  0  0  0  0  0  0  0  0
  151.6030  140.2438  158.5889 C   0  0  0  0  0  0  0  0  0  0  0  0
  152.1088  138.4320  155.2696 H   0  0  0  0  0  0  0  0  0  0  0  0
  150.4514  138.8326  154.8283 H   0  0  0  0  0  0  0  0  0  0  0  0
  150.8870  137.1683  155.2123 H   0  0  0  0  0  0  0  0  0  0  0  0
  151.3892  137.8232  157.5561 H   0  0  0  0  0  0  0  0  0  0  0  0
  148.6310  138.7048  156.9471 H   0  0  0  0  0  0  0  0  0  0  0  0
  147.0217  137.6849  158.2610 H   0  0  0  0  0  0  0  0  0  0  0  0
  147.0354  136.4588  157.0554 H   0  0  0  0  0  0  0  0  0  0  0  0
  146.3820  133.0938  161.7622 H   0  0  0  0  0  0  0  0  0  0  0  0
  145.7593  131.9540  158.5024 H   0  0  0  0  0  0  0  0  0  0  0  0
  146.4328  131.6402  161.4069 H   0  0  0  0  0  0  0  0  0  0  0  0
  145.2141  130.7372  160.4824 H   0  0  0  0  0  0  0  0  0  0  0  0
  147.5481  129.5187  161.2929 H   0  0  0  0  0  0  0  0  0  0  0  0
  146.8523  129.1725  159.7037 H   0  0  0  0  0  0  0  0  0  0  0  0
  148.9783  131.2723  160.3351 H   0  0  0  0  0  0  0  0  0  0  0  0
  149.0871  129.9729  159.1389 H   0  0  0  0  0  0  0  0  0  0  0  0
  150.2428  140.7067  155.4860 H   0  0  0  0  0  0  0  0  0  0  0  0
  150.6775  143.0700  156.0675 H   0  0  0  0  0  0  0  0  0  0  0  0
  151.5139  144.7582  157.6602 H   0  0  0  0  0  0  0  0  0  0  0  0
  152.5406  145.3170  159.8491 H   0  0  0  0  0  0  0  0  0  0  0  0
  153.1333  143.5078  161.4497 H   0  0  0  0  0  0  0  0  0  0  0  0
  152.6980  141.1355  160.8678 H   0  0  0  0  0  0  0  0  0  0  0  0
  151.8552  139.4658  159.2948 H   0  0  0  0  0  0  0  0  0  0  0  0
  1  2  1  0  0  0  0
  1 31  1  0  0  0  0
  1 32  1  0  0  0  0
  1 33  1  0  0  0  0
  2  3  1  0  0  0  0
  2 21  1  0  0  0  0
  2 34  1  0  0  0  0
  3  4  1  0  0  0  0
  3 35  1  0  0  0  0
  4  5  2  0  0  0  0
  4  6  1  0  0  0  0
  6  7  1  0  0  0  0
  6 36  1  0  0  0  0
  6 37  1  0  0  0  0
  7 19  1  0  0  0  0
  7  8  1  0  0  0  0
  8  9  2  0  0  0  0
  8 10  1  0  0  0  0
 10 11  1  0  0  0  0
 10 12  2  0  0  0  0
 12 13  1  0  0  0  0
 12 38  1  0  0  0  0
 13 14  1  0  0  0  0
 13 19  1  0  0  0  0
 14 18  1  0  0  0  0
 14 15  1  0  0  0  0
 14 39  1  0  0  0  0
 15 16  1  0  0  0  0
 15 40  1  0  0  0  0
 15 41  1  0  0  0  0
 16 17  1  0  0  0  0
 16 42  1  0  0  0  0
 16 43  1  0  0  0  0
 17 18  1  0  0  0  0
 17 44  1  0  0  0  0
 17 45  1  0  0  0  0
 19 20  2  0  0  0  0
 21 30  1  0  0  0  0
 21 22  2  0  0  0  0
 22 23  1  0  0  0  0
 22 46  1  0  0  0  0
 23 24  2  0  0  0  0
 23 47  1  0  0  0  0
 24 29  1  0  0  0  0
 24 25  1  0  0  0  0
 25 26  2  0  0  0  0
 25 48  1  0  0  0  0
 26 27  1  0  0  0  0
 26 49  1  0  0  0  0
 27 28  2  0  0  0  0
 27 50  1  0  0  0  0
 28 29  1  0  0  0  0
 28 51  1  0  0  0  0
 29 30  2  0  0  0  0
 30 52  1  0  0  0  0
M  END
> <s_m_source_file>
AV-unprocessed.smi

> <i_m_source_file_index>
142

> <i_lp_mmshare_version>
43012

> <i_f3d_flags>
0

> <s_epik_input>
W2NIXTFbY0hdW2NIXVtjSF1jKGMxMilbY0hdYyhbY0hdW2NIXTIpW0NASF0oW0NIM10pW05IXUMoPU8pW0NIMl1uM2MoPU8pYyhGKVtjSF1uKGMzPU8pW0NAQEhdNFtDSDJdW0NIMl1bQ0gyXU80

> <s_epik_cmdline>
J2VwaWtfcHl0aG9uJywgJy1waCcsICc3LjAnLCAnLXRuJywgJzgnLCAnLW1hJywgJzIwMCcsICctbWV0YWxfYmluZGluZycsICctaW1hZScsICc8aW5maWxlLm1hZT4nLCAnLW9tYWUnLCAnPG91dGZpbGUubWFlPic=

> <r_lp_tautomer_probability>
1

> <r_epik_Ionization_Penalty>
3.35688e-08

> <r_epik_Ionization_Penalty_Charging>
3.59856e-09

> <r_epik_Ionization_Penalty_Neutral>
2.99702e-08

> <r_epik_State_Penalty>
-0

> <r_epik_Charging_Adjusted_Penalty>
3.59856e-09

> <i_epik_Tot_Q>
0

> <i_epik_Tot_abs_Q>
0

> <r_epik_Metal_State_Penalty>
-0

> <b_epik_Metal_Only>
0

> <s_epik_Chemistry_Notes>
This compound contains an acetal/aminal-like group ( X-CH(R)-Y where X, Y are N, S, or O) that may be acid/base labile, releasing an aldehyde.

> <s_lp_Force_Field>
OPLS_2005

> <r_lp_Energy>
31.3548

> <b_lp_Chiralities_Consistent>
1

> <s_lp_Variant>
AV-unprocessed.smi:142-1

> <Gold.Version>
5.8.1

> <Gold.Id.Protein>
6NUR|6NUR_protein|mol2

> <Gold.PLP.Fitness>
60.6575

> <Gold.PLP.PLP>
-55.8261

> <Gold.PLP.part.hbond>
-3.0000

> <Gold.PLP.part.metal>
0.0000

> <Gold.PLP.part.buried>
-5.8390

> <Gold.PLP.part.nonpolar>
-47.0678

> <Gold.PLP.part.repulsive>
0.0335

> <Gold.PLP.ligand.clash>
0.0000

> <Gold.PLP.ligand.torsion>
1.4743

> <Gold.PLP.Chemscore.Hbond>
2.5760

> <Gold.PLP.Chemscore.CHOScore>
0.0000

> <Gold.PLP.Chemscore.Metal>
0.0000

> <Gold.Chemscore.Hbonds>
donor molecule, donor type, donor heavy atom, donor atom, acceptor molecule, acceptor atom, score
      P1  H  6896  6909       L1     5  0.57
      P1  H  6931  6943       L1     9  0.12
      P1  H  6934  6947       L1     9  1.00

> <Gold.PLP.Chemscore.Internal.Correction>
0.0520

> <Gold.Rescore>
     Score         DG    S(hbond)    S(metal)    S(lipo)     H(rot)  DE(clash)    DE(int)     intcor
     22.82     -25.15       2.60        0.00     138.02       2.02       0.20       2.14       ----

> <Gold.Chemscore.Fitness>
22.8152

> <Gold.Chemscore.DG>
-25.1503

> <Gold.Chemscore.ZeroCoef>
-5.4800

> <Gold.Chemscore.Hbond>
2.6009

> <Gold.Chemscore.Metal>
0.0000

> <Gold.Chemscore.Lipo>
138.0183

> <Gold.Chemscore.Internal_Hbond>
0.0000

> <Gold.Chemscore.DEClash>
0.1981

> <Gold.Chemscore.DEInternal>
2.1370

> <Gold.Chemscore.Rot>
2.0175

> <Gold.Chemscore.Internal.Correction>
   9.000000E+99

> <Gold.Chemscore.Hbonds>
donor molecule, donor type, donor heavy atom, donor atom, acceptor molecule, acceptor atom, score
      P1  H  6896  6909       L1     5  0.54
      P1  H  6931  6943       L1     9  0.14
      P1  H  6934  6947       L1     9  1.00

> <Gold.Chemscore.Hbond.Weighted>
-8.6870

> <Gold.Chemscore.Metal.Weighted>
-0.0000

> <Gold.Chemscore.Lipo.Weighted>
-16.1481

> <Gold.Chemscore.Internal_Hbond.Weighted>
0.0000

> <Gold.Chemscore.DEClash.Weighted>
0.1981

> <Gold.Chemscore.DEInternal.Weighted>
2.1370

> <Gold.Chemscore.Rot.Weighted>
5.1648

> <Gold.Chemscore.Internal.Correction.Weighted>
   9.000000E+99

> <Gold.Protein.RotatedTorsions>
[ 6907 6896 6895 6894 ] final   74.26 input  -60.11 | X-H torsion
[ 7974 7965 7964 7962 ] final -132.64 input  175.53 | X-H torsion
[ 8008 7997 7996 7995 ] final -100.70 input   59.86 | X-H torsion
[ 10167 10162 10161 10158 ] final -173.11 input  -65.29 | X-H torsion
[ 10718 10713 10712 10709 ] final  -38.19 input   66.30 | X-H torsion
[ 10763 10752 10751 10750 ] final  -90.73 input  -60.55 | X-H torsion
[ 11005 11000 10999 10996 ] final  159.08 input  -57.11 | X-H torsion

> <Gold.Protein.ActiveResidues>
 VAL166  LYS551  ARG553  GLY616  TRP617  ASP618  TYR619  PRO620  LYS621  CYS622 
 ASP623  PHE694  ASN695  SER759  ASP760  ASP761  ALA762  ILE779  LEU786  VAL792 
 PHE793  MET794  SER795  GLU796  ALA797  LYS798  CYS799  TRP800  GLU811  SER814 

> <Gold.Protein.RotatedAtoms>
  152.4967  134.4298  159.9508 H   0  0  0  0  0  0  0  0  0  0  0  0  # atno 6907 bound_to 6896
  151.4275  133.3674  159.2772 H   0  0  0  0  0  0  0  0  0  0  0  0  # atno 6908 bound_to 6896
  150.9178  134.8619  159.7528 H   0  0  0  0  0  0  0  0  0  0  0  0  # atno 6909 bound_to 6896
  144.9266  140.7079  143.4932 H   0  0  0  0  0  0  0  0  0  0  0  0  # atno 7974 bound_to 7965
  154.8322  140.0439  157.1485 H   0  0  0  0  0  0  0  0  0  0  0  0  # atno 8008 bound_to 7997
  154.9139  140.3017  155.5231 H   0  0  0  0  0  0  0  0  0  0  0  0  # atno 8009 bound_to 7997
  156.2987  140.2353  156.4182 H   0  0  0  0  0  0  0  0  0  0  0  0  # atno 8010 bound_to 7997
  139.5707  144.1649  152.1379 H   0  0  0  0  0  0  0  0  0  0  0  0  # atno 10167 bound_to 10162
  156.3066  130.4247  149.8091 H   0  0  0  0  0  0  0  0  0  0  0  0  # atno 10718 bound_to 10713
  154.6688  135.5294  153.8111 H   0  0  0  0  0  0  0  0  0  0  0  0  # atno 10763 bound_to 10752
  153.0488  135.6524  154.0758 H   0  0  0  0  0  0  0  0  0  0  0  0  # atno 10764 bound_to 10752
  154.0659  135.2958  155.3296 H   0  0  0  0  0  0  0  0  0  0  0  0  # atno 10765 bound_to 10752
  140.1927  134.8395  157.2931 H   0  0  0  0  0  0  0  0  0  0  0  0  # atno 11005 bound_to 11000
  145.3209  139.1789  143.4588 LP  0  0  0  0  0  0  0  0  0  0  0  0  # atno 17320 bound_to 7965
  146.3229  140.3226  142.8634 LP  0  0  0  0  0  0  0  0  0  0  0  0  # atno 17321 bound_to 7965
  140.1181  144.5397  150.6880 LP  0  0  0  0  0  0  0  0  0  0  0  0  # atno 17342 bound_to 10162
  140.6991  143.2423  151.4916 LP  0  0  0  0  0  0  0  0  0  0  0  0  # atno 17343 bound_to 10162
  156.5449  130.8316  151.3281 LP  0  0  0  0  0  0  0  0  0  0  0  0  # atno 17370 bound_to 10713
  157.7381  130.9807  150.2232 LP  0  0  0  0  0  0  0  0  0  0  0  0  # atno 17371 bound_to 10713
  140.2141  134.4103  155.7598 LP  0  0  0  0  0  0  0  0  0  0  0  0  # atno 17394 bound_to 11000
  141.2226  133.7133  156.8385 LP  0  0  0  0  0  0  0  0  0  0  0  0  # atno 17395 bound_to 11000

$$$$
