AV-unprocessed.smi:66|AV-procd|sdf|628|dock5
  -GOLD-   2262016523D 1   1.00000     0.00000
 Structure written by MMmdl.
 27 29  0  0  0  0  0  0  0  0  3 V2000
  152.7981  139.1292  156.3042 O   0  0  0  0  0  0  0  0  0  0  0  0
  151.8572  139.7630  155.7778 C   0  0  0  0  0  0  0  0  0  0  0  0
  151.2080  139.3905  154.7747 O   0  5  0  0  0  0  0  0  0  0  0  0
  151.4888  141.1130  156.4155 C   0  0  1  0  0  0  0  0  0  0  0  0
  150.2089  141.7164  155.8119 C   0  0  0  0  0  0  0  0  0  0  0  0
  149.1121  141.2892  156.7862 C   0  0  2  0  0  0  0  0  0  0  0  0
  147.9938  142.1514  156.7529 O   0  0  0  0  0  0  0  0  0  0  0  0
  149.8238  141.3080  158.1401 C   0  0  0  0  0  0  0  0  0  0  0  0
  151.2112  140.9730  157.8480 N   0  0  0  0  0  0  0  0  0  0  0  0
  152.2400  141.0356  158.8194 C   0  0  0  0  0  0  0  0  0  0  0  0
  153.2486  140.1319  158.7139 N   0  0  0  0  0  0  0  0  0  0  0  0
  154.2309  140.1675  159.6192 C   0  0  0  0  0  0  0  0  0  0  0  0
  154.3470  141.0142  160.6447 N   0  0  0  0  0  0  0  0  0  0  0  0
  153.3570  141.9204  160.7702 C   0  0  0  0  0  0  0  0  0  0  0  0
  153.1526  142.8859  161.6517 N   0  5  0  0  0  0  0  0  0  0  0  0
  151.9915  143.5005  161.3145 C   0  0  0  0  0  0  0  0  0  0  0  0
  151.4036  142.9745  160.2217 N   0  0  0  0  0  0  0  0  0  0  0  0
  152.2773  141.9773  159.8862 C   0  0  0  0  0  0  0  0  0  0  0  0
  152.3114  141.8108  156.2522 H   0  0  0  0  0  0  0  0  0  0  0  0
  150.2994  142.8036  155.8019 H   0  0  0  0  0  0  0  0  0  0  0  0
  150.0100  141.3953  154.7883 H   0  0  0  0  0  0  0  0  0  0  0  0
  148.7894  140.2735  156.5533 H   0  0  0  0  0  0  0  0  0  0  0  0
  148.2974  143.0212  156.5435 H   0  0  0  0  0  0  0  0  0  0  0  0
  149.7842  142.3007  158.5915 H   0  0  0  0  0  0  0  0  0  0  0  0
  149.3672  140.5917  158.8234 H   0  0  0  0  0  0  0  0  0  0  0  0
  155.0163  139.4347  159.5071 H   0  0  0  0  0  0  0  0  0  0  0  0
  151.6273  144.3282  161.9107 H   0  0  0  0  0  0  0  0  0  0  0  0
  1  2  2  0  0  0  0
  2  3  1  0  0  0  0
  2  4  1  0  0  0  0
  4  5  1  0  0  0  0
  4 19  1  0  0  0  0
  4  9  1  0  0  0  0
  5  6  1  0  0  0  0
  5 20  1  0  0  0  0
  5 21  1  0  0  0  0
  6  7  1  0  0  0  0
  6  8  1  0  0  0  0
  6 22  1  0  0  0  0
  7 23  1  0  0  0  0
  8 24  1  0  0  0  0
  8 25  1  0  0  0  0
  8  9  1  0  0  0  0
  9 10  1  0  0  0  0
 10 11  1  0  0  0  0
 10 18  2  0  0  0  0
 11 12  2  0  0  0  0
 12 26  1  0  0  0  0
 12 13  1  0  0  0  0
 13 14  2  0  0  0  0
 14 15  1  0  0  0  0
 14 18  1  0  0  0  0
 15 16  1  0  0  0  0
 16 17  2  0  0  0  0
 16 27  1  0  0  0  0
 17 18  1  0  0  0  0
M  CHG  1   3  -1
M  CHG  1  15  -1
M  END
> <s_m_source_file>
AV-unprocessed.smi

> <i_m_source_file_index>
66

> <i_lp_mmshare_version>
43012

> <i_f3d_flags>
0

> <s_epik_input>
Tz1DKFtPSF0pW0NAQEhdMVtDSDJdW0NAQEhdKFtPSF0pW0NIMl1OMWMobltjSF1uMiljKGMyMylbbkhdW2NIXW4z

> <s_epik_cmdline>
J2VwaWtfcHl0aG9uJywgJy1waCcsICc3LjAnLCAnLXRuJywgJzgnLCAnLW1hJywgJzIwMCcsICctbWV0YWxfYmluZGluZycsICctaW1hZScsICc8aW5maWxlLm1hZT4nLCAnLW9tYWUnLCAnPG91dGZpbGUubWFlPic=

> <r_lp_tautomer_probability>
0.955585

> <r_epik_Ionization_Penalty>
7.65809

> <r_epik_Ionization_Penalty_Charging>
3.4974

> <r_epik_Ionization_Penalty_Neutral>
4.16069

> <r_epik_State_Penalty>
3.51624

> <r_epik_Charging_Adjusted_Penalty>
7.01364

> <i_epik_Tot_Q>
-2

> <i_epik_Tot_abs_Q>
2

> <r_epik_Metal_State_Penalty>
0.522662

> <b_epik_Metal_Only>
1

> <s_lp_Force_Field>
OPLS_2005

> <r_lp_Energy>
43.3227

> <b_lp_Chiralities_Consistent>
1

> <s_lp_Variant>
AV-unprocessed.smi:66-12

> <Gold.Version>
5.8.1

> <Gold.Id.Protein>
6NUR|6NUR_protein|mol2

> <Gold.PLP.Fitness>
43.5070

> <Gold.PLP.PLP>
-33.0780

> <Gold.PLP.part.hbond>
-4.6553

> <Gold.PLP.part.metal>
0.0000

> <Gold.PLP.part.buried>
-5.3345

> <Gold.PLP.part.nonpolar>
-22.4836

> <Gold.PLP.part.repulsive>
0.1730

> <Gold.PLP.ligand.clash>
0.0000

> <Gold.PLP.ligand.torsion>
0.8621

> <Gold.PLP.Chemscore.Hbond>
4.0000

> <Gold.PLP.Chemscore.CHOScore>
0.0000

> <Gold.PLP.Chemscore.Metal>
0.0000

> <Gold.Chemscore.Hbonds>
donor molecule, donor type, donor heavy atom, donor atom, acceptor molecule, acceptor atom, score
      L1  H     7    23       P1  8028  1.00
      P1  H  7989  7998       L1     3  1.00
      P1  H  7997  8010       L1     1  2.00

> <Gold.PLP.Chemscore.Internal.Correction>
0.1532

> <Gold.Rescore>
     Score         DG    S(hbond)    S(metal)    S(lipo)     H(rot)  DE(clash)    DE(int)     intcor
      8.20     -11.26       1.95        0.00      32.51       1.78       0.00       3.06       ----

> <Gold.Chemscore.Fitness>
8.1967

> <Gold.Chemscore.DG>
-11.2565

> <Gold.Chemscore.ZeroCoef>
-5.4800

> <Gold.Chemscore.Hbond>
1.9514

> <Gold.Chemscore.Metal>
0.0000

> <Gold.Chemscore.Lipo>
32.5113

> <Gold.Chemscore.Internal_Hbond>
0.0000

> <Gold.Chemscore.DEClash>
0.0021

> <Gold.Chemscore.DEInternal>
3.0577

> <Gold.Chemscore.Rot>
1.7754

> <Gold.Chemscore.Internal.Correction>
   9.000000E+99

> <Gold.Chemscore.Hbonds>
donor molecule, donor type, donor heavy atom, donor atom, acceptor molecule, acceptor atom, score
      L1  H     7    23       P1  8028  0.58
      P1  H  7989  7998       L1     3  0.29
      P1  H  7997  8010       L1     1  0.78

> <Gold.Chemscore.Hbond.Weighted>
-6.5177

> <Gold.Chemscore.Metal.Weighted>
-0.0000

> <Gold.Chemscore.Lipo.Weighted>
-3.8038

> <Gold.Chemscore.Internal_Hbond.Weighted>
0.0000

> <Gold.Chemscore.DEClash.Weighted>
0.0021

> <Gold.Chemscore.DEInternal.Weighted>
3.0577

> <Gold.Chemscore.Rot.Weighted>
4.5451

> <Gold.Chemscore.Internal.Correction.Weighted>
   9.000000E+99

> <Gold.Protein.RotatedTorsions>
[ 6907 6896 6895 6894 ] final  -64.10 input  -60.11 | X-H torsion
[ 7974 7965 7964 7962 ] final  160.27 input  175.53 | X-H torsion
[ 8008 7997 7996 7995 ] final   80.45 input   59.86 | X-H torsion
[ 10167 10162 10161 10158 ] final  -81.89 input  -65.29 | X-H torsion
[ 10718 10713 10712 10709 ] final -118.75 input   66.30 | X-H torsion
[ 10763 10752 10751 10750 ] final   -2.61 input  -60.55 | X-H torsion
[ 11005 11000 10999 10996 ] final  -77.27 input  -57.11 | X-H torsion

> <Gold.Protein.ActiveResidues>
 VAL166  LYS551  ARG553  GLY616  TRP617  ASP618  TYR619  PRO620  LYS621  CYS622 
 ASP623  PHE694  ASN695  SER759  ASP760  ASP761  ALA762  ILE779  LEU786  VAL792 
 PHE793  MET794  SER795  GLU796  ALA797  LYS798  CYS799  TRP800  GLU811  SER814 

> <Gold.Protein.RotatedAtoms>
  150.7607  134.6345  159.6203 H   0  0  0  0  0  0  0  0  0  0  0  0  # atno 6907 bound_to 6896
  152.3612  134.6866  160.0215 H   0  0  0  0  0  0  0  0  0  0  0  0  # atno 6908 bound_to 6896
  151.7255  133.3279  159.3363 H   0  0  0  0  0  0  0  0  0  0  0  0  # atno 6909 bound_to 6896
  144.7746  139.7734  143.6284 H   0  0  0  0  0  0  0  0  0  0  0  0  # atno 7974 bound_to 7965
  155.8837  140.3442  155.5906 H   0  0  0  0  0  0  0  0  0  0  0  0  # atno 8008 bound_to 7997
  155.7690  140.0843  157.2136 H   0  0  0  0  0  0  0  0  0  0  0  0  # atno 8009 bound_to 7997
  154.4027  140.1522  156.2908 H   0  0  0  0  0  0  0  0  0  0  0  0  # atno 8010 bound_to 7997
  140.4371  143.2528  151.8679 H   0  0  0  0  0  0  0  0  0  0  0  0  # atno 10167 bound_to 10162
  156.1129  130.6263  150.9330 H   0  0  0  0  0  0  0  0  0  0  0  0  # atno 10718 bound_to 10713
  153.3603  135.6990  153.6718 H   0  0  0  0  0  0  0  0  0  0  0  0  # atno 10763 bound_to 10752
  153.5409  135.3573  155.2718 H   0  0  0  0  0  0  0  0  0  0  0  0  # atno 10764 bound_to 10752
  154.8667  135.4203  154.2858 H   0  0  0  0  0  0  0  0  0  0  0  0  # atno 10765 bound_to 10752
  141.1659  133.7016  156.7795 H   0  0  0  0  0  0  0  0  0  0  0  0  # atno 11005 bound_to 11000
  146.1916  139.5160  142.9801 LP  0  0  0  0  0  0  0  0  0  0  0  0  # atno 17320 bound_to 7965
  145.6224  141.0320  143.1907 LP  0  0  0  0  0  0  0  0  0  0  0  0  # atno 17321 bound_to 7965
  139.4787  144.5271  151.8720 LP  0  0  0  0  0  0  0  0  0  0  0  0  # atno 17342 bound_to 10162
  140.4361  144.2049  150.5889 LP  0  0  0  0  0  0  0  0  0  0  0  0  # atno 17343 bound_to 10162
  157.6311  131.0921  150.8439 LP  0  0  0  0  0  0  0  0  0  0  0  0  # atno 17370 bound_to 10713
  156.8547  130.5092  149.5309 LP  0  0  0  0  0  0  0  0  0  0  0  0  # atno 17371 bound_to 10713
  140.2405  134.8617  157.3568 LP  0  0  0  0  0  0  0  0  0  0  0  0  # atno 17394 bound_to 11000
  140.1800  134.4501  155.7777 LP  0  0  0  0  0  0  0  0  0  0  0  0  # atno 17395 bound_to 11000

$$$$
