AV-unprocessed.smi:276|AV-procd|sdf|2075|dock9
  -GOLD-   2262021343D 1   1.00000     0.00000
 Structure written by MMmdl.
 57 61  0  0  0  0  0  0  0  0  1 V2000
  150.5310  142.7692  157.7435 C   0  0  0  0  0  0  0  0  0  0  0  0
  150.5459  141.8205  156.6915 O   0  0  0  0  0  0  0  0  0  0  0  0
  151.2154  140.6170  157.0414 C   0  0  1  0  0  0  0  0  0  0  0  0
  150.5751  139.9075  158.2451 C   0  0  0  0  0  0  0  0  0  0  0  0
  149.6744  139.1232  157.2701 C   0  0  1  0  0  0  0  0  0  0  0  0
  148.3696  139.7781  157.0988 N   0  0  0  0  0  0  0  0  0  0  0  0
  147.5078  139.8051  158.2762 C   0  0  0  0  0  0  0  0  0  0  0  0
  147.6579  139.3853  156.0204 C   0  0  0  0  0  0  0  0  0  0  0  0
  147.5350  140.2745  155.0040 N   0  0  0  0  0  0  0  0  0  0  0  0
  146.8507  139.9418  153.9054 C   0  0  0  0  0  0  0  0  0  0  0  0
  146.2157  138.8002  153.6304 N   0  0  0  0  0  0  0  0  0  0  0  0
  146.3230  137.9126  154.6603 C   0  0  0  0  0  0  0  0  0  0  0  0
  147.0190  138.1204  155.8839 C   0  0  0  0  0  0  0  0  0  0  0  0
  146.9048  136.9951  156.6915 N   0  0  0  0  0  0  0  0  0  0  0  0
  146.1815  136.1694  155.9858 C   0  0  0  0  0  0  0  0  0  0  0  0
  145.7820  136.6431  154.7566 N   0  0  0  0  0  0  0  0  0  0  0  0
  144.9670  135.9454  153.7788 C   0  0  0  0  0  0  0  0  0  0  0  0
  145.7664  135.4543  152.5520 C   0  0  1  0  0  0  0  0  0  0  0  0
  146.9815  134.9188  153.0374 O   0  0  0  0  0  0  0  0  0  0  0  0
  145.0492  134.3858  151.6942 C   0  0  2  0  0  0  0  0  0  0  0  0
  144.3767  133.2764  152.5097 C   0  0  0  0  0  0  0  0  0  0  0  0
  144.3716  132.1214  151.5362 C   0  0  0  0  0  0  0  0  0  0  0  0
  145.7277  132.2915  150.8655 C   0  0  0  0  0  0  0  0  0  0  0  0
  145.9719  133.6939  150.8512 O   0  0  0  0  0  0  0  0  0  0  0  0
  150.7367  139.4345  156.1816 C   0  0  0  0  0  0  0  0  0  0  0  0
  151.7656  138.3552  155.8009 C   0  0  0  0  0  0  0  0  0  0  0  0
  151.8696  139.0113  154.4221 C   0  0  0  0  0  0  0  0  0  0  0  0
  150.4739  139.5853  154.6690 C   0  0  0  0  0  0  0  0  0  0  0  0
  150.0025  143.6653  157.4186 H   0  0  0  0  0  0  0  0  0  0  0  0
  151.5443  143.0594  158.0234 H   0  0  0  0  0  0  0  0  0  0  0  0
  150.0217  142.3806  158.6256 H   0  0  0  0  0  0  0  0  0  0  0  0
  152.3010  140.7166  157.0907 H   0  0  0  0  0  0  0  0  0  0  0  0
  151.2823  139.2580  158.7630 H   0  0  0  0  0  0  0  0  0  0  0  0
  150.0692  140.5653  158.9509 H   0  0  0  0  0  0  0  0  0  0  0  0
  149.6105  138.0657  157.5272 H   0  0  0  0  0  0  0  0  0  0  0  0
  146.4753  140.0517  158.0230 H   0  0  0  0  0  0  0  0  0  0  0  0
  147.8529  140.5569  158.9851 H   0  0  0  0  0  0  0  0  0  0  0  0
  147.5109  138.8367  158.7776 H   0  0  0  0  0  0  0  0  0  0  0  0
  146.8048  140.6993  153.1371 H   0  0  0  0  0  0  0  0  0  0  0  0
  145.9091  135.1898  156.3505 H   0  0  0  0  0  0  0  0  0  0  0  0
  144.4902  135.1017  154.2796 H   0  0  0  0  0  0  0  0  0  0  0  0
  144.1646  136.6133  153.4624 H   0  0  0  0  0  0  0  0  0  0  0  0
  146.0181  136.3062  151.9195 H   0  0  0  0  0  0  0  0  0  0  0  0
  147.6911  135.2696  152.5214 H   0  0  0  0  0  0  0  0  0  0  0  0
  144.3030  134.8565  151.0520 H   0  0  0  0  0  0  0  0  0  0  0  0
  144.9798  133.0207  153.3823 H   0  0  0  0  0  0  0  0  0  0  0  0
  143.3780  133.5473  152.8537 H   0  0  0  0  0  0  0  0  0  0  0  0
  144.2526  131.1510  152.0188 H   0  0  0  0  0  0  0  0  0  0  0  0
  143.5697  132.2456  150.8070 H   0  0  0  0  0  0  0  0  0  0  0  0
  146.5084  131.8106  151.4565 H   0  0  0  0  0  0  0  0  0  0  0  0
  145.7541  131.8711  149.8602 H   0  0  0  0  0  0  0  0  0  0  0  0
  152.6874  138.3668  156.3831 H   0  0  0  0  0  0  0  0  0  0  0  0
  151.3309  137.3549  155.7588 H   0  0  0  0  0  0  0  0  0  0  0  0
  152.6412  139.7816  154.3748 H   0  0  0  0  0  0  0  0  0  0  0  0
  151.9372  138.3146  153.5861 H   0  0  0  0  0  0  0  0  0  0  0  0
  149.7004  138.9195  154.2860 H   0  0  0  0  0  0  0  0  0  0  0  0
  150.3312  140.6081  154.3200 H   0  0  0  0  0  0  0  0  0  0  0  0
  1  2  1  0  0  0  0
  1 29  1  0  0  0  0
  1 30  1  0  0  0  0
  1 31  1  0  0  0  0
  2  3  1  0  0  0  0
  3 25  1  0  0  0  0
  3  4  1  0  0  0  0
  3 32  1  0  0  0  0
  4  5  1  0  0  0  0
  4 33  1  0  0  0  0
  4 34  1  0  0  0  0
  5  6  1  0  0  0  0
  5 25  1  0  0  0  0
  5 35  1  0  0  0  0
  6  7  1  0  0  0  0
  6  8  1  0  0  0  0
  7 36  1  0  0  0  0
  7 37  1  0  0  0  0
  7 38  1  0  0  0  0
  8 13  1  0  0  0  0
  8  9  2  0  0  0  0
  9 10  1  0  0  0  0
 10 11  2  0  0  0  0
 10 39  1  0  0  0  0
 11 12  1  0  0  0  0
 12 16  1  0  0  0  0
 12 13  2  0  0  0  0
 13 14  1  0  0  0  0
 14 15  2  0  0  0  0
 15 16  1  0  0  0  0
 15 40  1  0  0  0  0
 16 17  1  0  0  0  0
 17 18  1  0  0  0  0
 17 41  1  0  0  0  0
 17 42  1  0  0  0  0
 18 19  1  0  0  0  0
 18 20  1  0  0  0  0
 18 43  1  0  0  0  0
 19 44  1  0  0  0  0
 20 24  1  0  0  0  0
 20 21  1  0  0  0  0
 20 45  1  0  0  0  0
 21 22  1  0  0  0  0
 21 46  1  0  0  0  0
 21 47  1  0  0  0  0
 22 23  1  0  0  0  0
 22 48  1  0  0  0  0
 22 49  1  0  0  0  0
 23 24  1  0  0  0  0
 23 50  1  0  0  0  0
 23 51  1  0  0  0  0
 25 28  1  0  0  0  0
 25 26  1  0  0  0  0
 26 27  1  0  0  0  0
 26 52  1  0  0  0  0
 26 53  1  0  0  0  0
 27 28  1  0  0  0  0
 27 54  1  0  0  0  0
 27 55  1  0  0  0  0
 28 56  1  0  0  0  0
 28 57  1  0  0  0  0
M  END
> <s_m_source_file>
AV-unprocessed.smi

> <i_m_source_file_index>
276

> <i_lp_mmshare_version>
43012

> <i_f3d_flags>
0

> <s_epik_input>
W0NIMl0xW0NIMl1bQ0gyXUMxMltDQEhdKE9bQ0gzXSlbQ0gyXVtDQEhdMk4oW0NIM10pYyhuW2NIXW4zKWMoYzM0KW5bY0hdbjRbQ0gyXVtDQEhdKFtPSF0pW0NAQEhdNVtDSDJdW0NIMl1bQ0gyXU81

> <s_epik_cmdline>
J2VwaWtfcHl0aG9uJywgJy1waCcsICc3LjAnLCAnLXRuJywgJzgnLCAnLW1hJywgJzIwMCcsICctbWV0YWxfYmluZGluZycsICctaW1hZScsICc8aW5maWxlLm1hZT4nLCAnLW9tYWUnLCAnPG91dGZpbGUubWFlPic=

> <r_lp_tautomer_probability>
1

> <r_epik_Ionization_Penalty>
0.00204117

> <r_epik_Ionization_Penalty_Charging>
0

> <r_epik_Ionization_Penalty_Neutral>
0.00204117

> <r_epik_State_Penalty>
0.00127401

> <r_epik_Charging_Adjusted_Penalty>
0.00127401

> <i_epik_Tot_Q>
0

> <i_epik_Tot_abs_Q>
0

> <r_epik_Metal_State_Penalty>
-0

> <b_epik_Metal_Only>
0

> <s_lp_Force_Field>
OPLS_2005

> <r_lp_Energy>
56.2402

> <b_lp_Chiralities_Consistent>
1

> <s_lp_Variant>
AV-unprocessed.smi:276-6

> <Gold.Version>
5.8.1

> <Gold.Id.Protein>
6NUR|6NUR_protein|mol2

> <Gold.PLP.Fitness>
37.6518

> <Gold.PLP.PLP>
-33.8223

> <Gold.PLP.part.hbond>
-1.0000

> <Gold.PLP.part.metal>
0.0000

> <Gold.PLP.part.buried>
-5.9873

> <Gold.PLP.part.nonpolar>
-28.5099

> <Gold.PLP.part.repulsive>
1.3665

> <Gold.PLP.ligand.clash>
0.0000

> <Gold.PLP.ligand.torsion>
0.9681

> <Gold.PLP.Chemscore.Hbond>
1.0000

> <Gold.PLP.Chemscore.CHOScore>
0.6715

> <Gold.PLP.Chemscore.Metal>
0.0000

> <Gold.Chemscore.Hbonds>
donor molecule, donor type, donor heavy atom, donor atom, acceptor molecule, acceptor atom, score
      L1  H    19    44       P1  7948  1.00

> <Gold.PLP.Chemscore.Internal.Correction>
0.7513

> <Gold.Rescore>
     Score         DG    S(hbond)    S(metal)    S(lipo)     H(rot)  DE(clash)    DE(int)     intcor
      8.47     -11.19       1.00        0.00      79.69       2.72       1.44       1.28       ----

> <Gold.Chemscore.Fitness>
8.4724

> <Gold.Chemscore.DG>
-11.1879

> <Gold.Chemscore.ZeroCoef>
-5.4800

> <Gold.Chemscore.Hbond>
0.9999

> <Gold.Chemscore.Metal>
0.0000

> <Gold.Chemscore.Lipo>
79.6930

> <Gold.Chemscore.Internal_Hbond>
0.0000

> <Gold.Chemscore.DEClash>
1.4375

> <Gold.Chemscore.DEInternal>
1.2781

> <Gold.Chemscore.Rot>
2.7172

> <Gold.Chemscore.Internal.Correction>
   9.000000E+99

> <Gold.Chemscore.Hbonds>
donor molecule, donor type, donor heavy atom, donor atom, acceptor molecule, acceptor atom, score
      L1  H    19    44       P1  7948  1.00

> <Gold.Chemscore.Hbond.Weighted>
-3.3398

> <Gold.Chemscore.Metal.Weighted>
-0.0000

> <Gold.Chemscore.Lipo.Weighted>
-9.3241

> <Gold.Chemscore.Internal_Hbond.Weighted>
0.0000

> <Gold.Chemscore.DEClash.Weighted>
1.4375

> <Gold.Chemscore.DEInternal.Weighted>
1.2781

> <Gold.Chemscore.Rot.Weighted>
6.9560

> <Gold.Chemscore.Internal.Correction.Weighted>
   9.000000E+99

> <Gold.Protein.RotatedTorsions>
[ 6907 6896 6895 6894 ] final   19.39 input  -60.11 | X-H torsion
[ 7974 7965 7964 7962 ] final    1.66 input  175.53 | X-H torsion
[ 8008 7997 7996 7995 ] final -144.63 input   59.86 | X-H torsion
[ 10167 10162 10161 10158 ] final  160.22 input  -65.29 | X-H torsion
[ 10718 10713 10712 10709 ] final -132.62 input   66.30 | X-H torsion
[ 10763 10752 10751 10750 ] final  143.17 input  -60.55 | X-H torsion
[ 11005 11000 10999 10996 ] final -122.48 input  -57.11 | X-H torsion

> <Gold.Protein.ActiveResidues>
 VAL166  LYS551  ARG553  GLY616  TRP617  ASP618  TYR619  PRO620  LYS621  CYS622 
 ASP623  PHE694  ASN695  SER759  ASP760  ASP761  ALA762  ILE779  LEU786  VAL792 
 PHE793  MET794  SER795  GLU796  ALA797  LYS798  CYS799  TRP800  GLU811  SER814 

> <Gold.Protein.RotatedAtoms>
  151.8801  135.0457  160.0487 H   0  0  0  0  0  0  0  0  0  0  0  0  # atno 6907 bound_to 6896
  152.2519  133.5218  159.5339 H   0  0  0  0  0  0  0  0  0  0  0  0  # atno 6908 bound_to 6896
  150.7087  134.0864  159.3958 H   0  0  0  0  0  0  0  0  0  0  0  0  # atno 6909 bound_to 6896
  146.2441  140.0953  142.8350 H   0  0  0  0  0  0  0  0  0  0  0  0  # atno 7974 bound_to 7965
  155.5300  140.0599  157.2890 H   0  0  0  0  0  0  0  0  0  0  0  0  # atno 8008 bound_to 7997
  154.4487  140.1937  156.0530 H   0  0  0  0  0  0  0  0  0  0  0  0  # atno 8009 bound_to 7997
  156.0659  140.3266  155.7521 H   0  0  0  0  0  0  0  0  0  0  0  0  # atno 8010 bound_to 7997
  139.4838  144.4655  151.8647 H   0  0  0  0  0  0  0  0  0  0  0  0  # atno 10167 bound_to 10162
  156.2365  130.7069  151.0913 H   0  0  0  0  0  0  0  0  0  0  0  0  # atno 10718 bound_to 10713
  153.9680  135.2953  155.3429 H   0  0  0  0  0  0  0  0  0  0  0  0  # atno 10763 bound_to 10752
  154.7338  135.5056  153.9011 H   0  0  0  0  0  0  0  0  0  0  0  0  # atno 10764 bound_to 10752
  153.0914  135.6708  153.9958 H   0  0  0  0  0  0  0  0  0  0  0  0  # atno 10765 bound_to 10752
  140.9992  134.0428  157.3559 H   0  0  0  0  0  0  0  0  0  0  0  0  # atno 11005 bound_to 11000
  145.0615  140.9091  143.4936 LP  0  0  0  0  0  0  0  0  0  0  0  0  # atno 17320 bound_to 7965
  145.1069  139.2783  143.5657 LP  0  0  0  0  0  0  0  0  0  0  0  0  # atno 17321 bound_to 7965
  140.4120  144.2356  150.5888 LP  0  0  0  0  0  0  0  0  0  0  0  0  # atno 17342 bound_to 10162
  140.4957  143.2333  151.8753 LP  0  0  0  0  0  0  0  0  0  0  0  0  # atno 17343 bound_to 10162
  157.7156  131.0711  150.6337 LP  0  0  0  0  0  0  0  0  0  0  0  0  # atno 17370 bound_to 10713
  156.6408  130.4458  149.5753 LP  0  0  0  0  0  0  0  0  0  0  0  0  # atno 17371 bound_to 10713
  139.9030  135.0171  156.7356 LP  0  0  0  0  0  0  0  0  0  0  0  0  # atno 17394 bound_to 11000
  140.6917  133.9384  155.7970 LP  0  0  0  0  0  0  0  0  0  0  0  0  # atno 17395 bound_to 11000

$$$$
