AV-unprocessed.smi:1458|AV-procd|sdf|5922|dock3
  -GOLD-   22720 6 03D 1   1.00000     0.00000
 Structure written by MMmdl.
 46 47  0  0  0  0  0  0  0  0  1 V2000
  143.4965  136.9781  152.5703 C   0  0  0  0  0  0  0  0  0  0  0  0
  144.7962  136.4950  152.8607 O   0  0  0  0  0  0  0  0  0  0  0  0
  145.6675  136.5697  151.7438 C   0  0  0  0  0  0  0  0  0  0  0  0
  146.2108  137.9978  151.6224 C   0  0  0  0  0  0  0  0  0  0  0  0
  147.4894  138.1217  152.3092 N   0  0  0  0  0  0  0  0  0  0  0  0
  147.7317  138.9759  153.3113 C   0  0  0  0  0  0  0  0  0  0  0  0
  146.8837  139.7429  153.7663 O   0  0  0  0  0  0  0  0  0  0  0  0
  149.0077  138.8876  153.7245 N   0  0  0  0  0  0  0  0  0  0  0  0
  149.6693  139.6405  154.7322 C   0  0  0  0  0  0  0  0  0  0  0  0
  148.9376  140.6484  155.3889 C   0  0  0  0  0  0  0  0  0  0  0  0
  149.5652  141.4174  156.3864 C   0  0  0  0  0  0  0  0  0  0  0  0
  150.9202  141.1634  156.7033 C   0  0  0  0  0  0  0  0  0  0  0  0
  151.5663  141.9137  157.7097 N   0  0  0  0  0  0  0  0  0  0  0  0
  150.8858  143.1404  158.1162 C   0  0  0  0  0  0  0  0  0  0  0  0
  151.8144  144.0367  158.9589 C   0  0  2  0  0  0  0  0  0  0  0  0
  152.8812  144.7686  158.1253 C   0  0  0  0  0  0  0  0  0  0  0  0
  152.3870  143.2861  160.0319 O   0  0  0  0  0  0  0  0  0  0  0  0
  153.0980  142.1162  159.6295 C   0  0  1  0  0  0  0  0  0  0  0  0
  153.6360  141.4326  160.8909 C   0  0  0  0  0  0  0  0  0  0  0  0
  152.1624  141.1915  158.8302 C   0  0  0  0  0  0  0  0  0  0  0  0
  151.6313  140.2094  156.0538 N   0  0  0  0  0  0  0  0  0  0  0  0
  151.0257  139.4728  155.0982 C   0  0  0  0  0  0  0  0  0  0  0  0
  142.8703  136.9003  153.4591 H   0  0  0  0  0  0  0  0  0  0  0  0
  143.0274  136.3955  151.7766 H   0  0  0  0  0  0  0  0  0  0  0  0
  143.5235  138.0256  152.2678 H   0  0  0  0  0  0  0  0  0  0  0  0
  146.4969  135.8736  151.8785 H   0  0  0  0  0  0  0  0  0  0  0  0
  145.1450  136.2821  150.8298 H   0  0  0  0  0  0  0  0  0  0  0  0
  146.3188  138.2678  150.5707 H   0  0  0  0  0  0  0  0  0  0  0  0
  145.5038  138.7013  152.0643 H   0  0  0  0  0  0  0  0  0  0  0  0
  148.2414  137.5305  151.9865 H   0  0  0  0  0  0  0  0  0  0  0  0
  149.5952  138.2507  153.2069 H   0  0  0  0  0  0  0  0  0  0  0  0
  147.9033  140.8315  155.1364 H   0  0  0  0  0  0  0  0  0  0  0  0
  149.0068  142.1955  156.8847 H   0  0  0  0  0  0  0  0  0  0  0  0
  150.5149  143.7076  157.2636 H   0  0  0  0  0  0  0  0  0  0  0  0
  150.0123  142.8630  158.7076 H   0  0  0  0  0  0  0  0  0  0  0  0
  151.1976  144.8062  159.4238 H   0  0  0  0  0  0  0  0  0  0  0  0
  152.4131  145.4369  157.4022 H   0  0  0  0  0  0  0  0  0  0  0  0
  153.5136  144.0806  157.5649 H   0  0  0  0  0  0  0  0  0  0  0  0
  153.5258  145.3733  158.7633 H   0  0  0  0  0  0  0  0  0  0  0  0
  153.9493  142.3984  159.0100 H   0  0  0  0  0  0  0  0  0  0  0  0
  154.1970  140.5321  160.6406 H   0  0  0  0  0  0  0  0  0  0  0  0
  152.8246  141.1466  161.5609 H   0  0  0  0  0  0  0  0  0  0  0  0
  154.3024  142.0980  161.4404 H   0  0  0  0  0  0  0  0  0  0  0  0
  151.3676  140.8104  159.4736 H   0  0  0  0  0  0  0  0  0  0  0  0
  152.7291  140.3328  158.4680 H   0  0  0  0  0  0  0  0  0  0  0  0
  151.6659  138.7507  154.6167 H   0  0  0  0  0  0  0  0  0  0  0  0
  1  2  1  0  0  0  0
  1 23  1  0  0  0  0
  1 24  1  0  0  0  0
  1 25  1  0  0  0  0
  2  3  1  0  0  0  0
  3  4  1  0  0  0  0
  3 26  1  0  0  0  0
  3 27  1  0  0  0  0
  4  5  1  0  0  0  0
  4 28  1  0  0  0  0
  4 29  1  0  0  0  0
  5  6  1  0  0  0  0
  5 30  1  0  0  0  0
  6  7  2  0  0  0  0
  6  8  1  0  0  0  0
  8  9  1  0  0  0  0
  8 31  1  0  0  0  0
  9 22  1  0  0  0  0
  9 10  2  0  0  0  0
 10 11  1  0  0  0  0
 10 32  1  0  0  0  0
 11 12  2  0  0  0  0
 11 33  1  0  0  0  0
 12 13  1  0  0  0  0
 12 21  1  0  0  0  0
 13 20  1  0  0  0  0
 13 14  1  0  0  0  0
 14 15  1  0  0  0  0
 14 34  1  0  0  0  0
 14 35  1  0  0  0  0
 15 16  1  0  0  0  0
 15 17  1  0  0  0  0
 15 36  1  0  0  0  0
 16 37  1  0  0  0  0
 16 38  1  0  0  0  0
 16 39  1  0  0  0  0
 17 18  1  0  0  0  0
 18 19  1  0  0  0  0
 18 20  1  0  0  0  0
 18 40  1  0  0  0  0
 19 41  1  0  0  0  0
 19 42  1  0  0  0  0
 19 43  1  0  0  0  0
 20 44  1  0  0  0  0
 20 45  1  0  0  0  0
 21 22  2  0  0  0  0
 22 46  1  0  0  0  0
M  END
> <s_m_source_file>
AV-unprocessed.smi

> <i_m_source_file_index>
1458

> <i_lp_mmshare_version>
43012

> <i_f3d_flags>
0

> <s_epik_input>
W0NIM11PW0NIMl1bQ0gyXVtOSF1DKD1PKVtOSF1jMVtjSF1bY0hdYyhuW2NIXTEpTjJbQ0gyXVtDQEBIXShbQ0gzXSlPW0NAQEhdKFtDSDNdKVtDSDJdMg==

> <s_epik_cmdline>
J2VwaWtfcHl0aG9uJywgJy1waCcsICc3LjAnLCAnLXRuJywgJzgnLCAnLW1hJywgJzIwMCcsICctbWV0YWxfYmluZGluZycsICctaW1hZScsICc8aW5maWxlLm1hZT4nLCAnLW9tYWUnLCAnPG91dGZpbGUubWFlPic=

> <r_lp_tautomer_probability>
1

> <r_epik_Ionization_Penalty>
0.00266072

> <r_epik_Ionization_Penalty_Charging>
0

> <r_epik_Ionization_Penalty_Neutral>
0.00266072

> <r_epik_State_Penalty>
0.00182795

> <r_epik_Charging_Adjusted_Penalty>
0.00182795

> <i_epik_Tot_Q>
0

> <i_epik_Tot_abs_Q>
0

> <r_epik_Metal_State_Penalty>
-0

> <b_epik_Metal_Only>
0

> <s_lp_Force_Field>
OPLS_2005

> <r_lp_Energy>
22.687

> <b_lp_Chiralities_Consistent>
1

> <s_lp_Variant>
AV-unprocessed.smi:1458-2

> <Gold.Version>
5.8.1

> <Gold.Id.Protein>
6NUR|6NUR_protein|mol2

> <Gold.PLP.Fitness>
45.6847

> <Gold.PLP.PLP>
-43.4807

> <Gold.PLP.part.hbond>
-3.1359

> <Gold.PLP.part.metal>
0.0000

> <Gold.PLP.part.buried>
-2.0833

> <Gold.PLP.part.nonpolar>
-39.1645

> <Gold.PLP.part.repulsive>
0.4969

> <Gold.PLP.ligand.clash>
0.0000

> <Gold.PLP.ligand.torsion>
0.5358

> <Gold.PLP.Chemscore.Hbond>
0.9760

> <Gold.PLP.Chemscore.CHOScore>
0.0000

> <Gold.PLP.Chemscore.Metal>
0.0000

> <Gold.Chemscore.Hbonds>
donor molecule, donor type, donor heavy atom, donor atom, acceptor molecule, acceptor atom, score
      L1  H     5    30       P1  7948  0.81

> <Gold.PLP.Chemscore.Internal.Correction>
0.3475

> <Gold.Rescore>
     Score         DG    S(hbond)    S(metal)    S(lipo)     H(rot)  DE(clash)    DE(int)     intcor
     15.29     -17.48       0.99        0.00     109.72       1.62       0.14       2.05       ----

> <Gold.Chemscore.Fitness>
15.2890

> <Gold.Chemscore.DG>
-17.4785

> <Gold.Chemscore.ZeroCoef>
-5.4800

> <Gold.Chemscore.Hbond>
0.9911

> <Gold.Chemscore.Metal>
0.0000

> <Gold.Chemscore.Lipo>
109.7158

> <Gold.Chemscore.Internal_Hbond>
0.0000

> <Gold.Chemscore.DEClash>
0.1437

> <Gold.Chemscore.DEInternal>
2.0458

> <Gold.Chemscore.Rot>
1.6206

> <Gold.Chemscore.Internal.Correction>
   9.000000E+99

> <Gold.Chemscore.Hbonds>
donor molecule, donor type, donor heavy atom, donor atom, acceptor molecule, acceptor atom, score
      L1  H     5    30       P1  7948  0.79
      L1  H     8    31       P1  7948  0.02

> <Gold.Chemscore.Hbond.Weighted>
-3.3104

> <Gold.Chemscore.Metal.Weighted>
-0.0000

> <Gold.Chemscore.Lipo.Weighted>
-12.8367

> <Gold.Chemscore.Internal_Hbond.Weighted>
0.0000

> <Gold.Chemscore.DEClash.Weighted>
0.1437

> <Gold.Chemscore.DEInternal.Weighted>
2.0458

> <Gold.Chemscore.Rot.Weighted>
4.1486

> <Gold.Chemscore.Internal.Correction.Weighted>
   9.000000E+99

> <Gold.Protein.RotatedTorsions>
[ 6907 6896 6895 6894 ] final  -63.14 input  -60.11 | X-H torsion
[ 7974 7965 7964 7962 ] final  -76.45 input  175.53 | X-H torsion
[ 8008 7997 7996 7995 ] final  -58.62 input   59.86 | X-H torsion
[ 10167 10162 10161 10158 ] final  -39.81 input  -65.29 | X-H torsion
[ 10718 10713 10712 10709 ] final -122.30 input   66.30 | X-H torsion
[ 10763 10752 10751 10750 ] final  -28.30 input  -60.55 | X-H torsion
[ 11005 11000 10999 10996 ] final  145.96 input  -57.11 | X-H torsion

> <Gold.Protein.ActiveResidues>
 VAL166  LYS551  ARG553  GLY616  TRP617  ASP618  TYR619  PRO620  LYS621  CYS622 
 ASP623  PHE694  ASN695  SER759  ASP760  ASP761  ALA762  ILE779  LEU786  VAL792 
 PHE793  MET794  SER795  GLU796  ALA797  LYS798  CYS799  TRP800  GLU811  SER814 

> <Gold.Protein.RotatedAtoms>
  150.7669  134.6475  159.6269 H   0  0  0  0  0  0  0  0  0  0  0  0  # atno 6907 bound_to 6896
  152.3704  134.6739  160.0187 H   0  0  0  0  0  0  0  0  0  0  0  0  # atno 6908 bound_to 6896
  151.7101  133.3276  159.3325 H   0  0  0  0  0  0  0  0  0  0  0  0  # atno 6909 bound_to 6896
  145.6127  140.9382  143.1181 H   0  0  0  0  0  0  0  0  0  0  0  0  # atno 7974 bound_to 7965
  154.4316  140.1080  156.5986 H   0  0  0  0  0  0  0  0  0  0  0  0  # atno 8008 bound_to 7997
  155.5936  140.3492  155.4554 H   0  0  0  0  0  0  0  0  0  0  0  0  # atno 8009 bound_to 7997
  156.0228  140.1243  157.0329 H   0  0  0  0  0  0  0  0  0  0  0  0  # atno 8010 bound_to 7997
  140.7053  143.3191  151.2835 H   0  0  0  0  0  0  0  0  0  0  0  0  # atno 10167 bound_to 10162
  156.1408  130.6464  150.9767 H   0  0  0  0  0  0  0  0  0  0  0  0  # atno 10718 bound_to 10713
  153.7462  135.6929  153.4956 H   0  0  0  0  0  0  0  0  0  0  0  0  # atno 10763 bound_to 10752
  153.2035  135.4428  155.0294 H   0  0  0  0  0  0  0  0  0  0  0  0  # atno 10764 bound_to 10752
  154.8203  135.3419  154.6985 H   0  0  0  0  0  0  0  0  0  0  0  0  # atno 10765 bound_to 10752
  140.0754  134.9128  157.1414 H   0  0  0  0  0  0  0  0  0  0  0  0  # atno 11005 bound_to 11000
  144.7263  139.7865  143.7363 LP  0  0  0  0  0  0  0  0  0  0  0  0  # atno 17320 bound_to 7965
  146.1492  139.4570  143.0059 LP  0  0  0  0  0  0  0  0  0  0  0  0  # atno 17321 bound_to 7965
  139.6640  144.0139  152.2711 LP  0  0  0  0  0  0  0  0  0  0  0  0  # atno 17342 bound_to 10162
  139.9715  144.6490  150.7984 LP  0  0  0  0  0  0  0  0  0  0  0  0  # atno 17343 bound_to 10162
  157.6573  131.0887  150.7917 LP  0  0  0  0  0  0  0  0  0  0  0  0  # atno 17370 bound_to 10713
  156.7993  130.4916  149.5372 LP  0  0  0  0  0  0  0  0  0  0  0  0  # atno 17371 bound_to 10713
  140.3565  134.2541  155.7192 LP  0  0  0  0  0  0  0  0  0  0  0  0  # atno 17394 bound_to 11000
  141.2027  133.7929  157.0374 LP  0  0  0  0  0  0  0  0  0  0  0  0  # atno 17395 bound_to 11000

$$$$
