AV-unprocessed.smi:109|AV-procd|sdf|1053|dock1
  -GOLD-   2262018113D 1   1.00000     0.00000
 Structure written by MMmdl.
 58 61  0  0  0  0  0  0  0  0  1 V2000
  142.9828  133.3222  157.0454 O   0  0  0  0  0  0  0  0  0  0  0  0
  143.3268  132.4214  158.0760 C   0  0  0  0  0  0  0  0  0  0  0  0
  144.1944  133.1350  159.1271 C   0  0  0  0  0  0  0  0  0  0  0  0
  145.5611  133.6325  158.5941 C   0  0  2  0  0  0  0  0  0  0  0  0
  146.2901  132.5132  157.9936 N   0  0  0  0  0  0  0  0  0  0  0  0
  146.6784  132.5122  156.6986 C   0  0  0  0  0  0  0  0  0  0  0  0
  147.7032  131.7340  156.2623 N   0  0  0  0  0  0  0  0  0  0  0  0
  148.0685  131.7649  154.9769 C   0  0  0  0  0  0  0  0  0  0  0  0
  147.5523  132.4874  153.9798 N   0  0  0  0  0  0  0  0  0  0  0  0
  146.5210  133.2672  154.4146 C   0  0  0  0  0  0  0  0  0  0  0  0
  146.0272  133.3369  155.7460 C   0  0  0  0  0  0  0  0  0  0  0  0
  144.9747  134.2412  155.8101 N   0  0  0  0  0  0  0  0  0  0  0  0
  144.8581  134.6779  154.5845 C   0  0  0  0  0  0  0  0  0  0  0  0
  145.7544  134.1450  153.6818 N   0  0  0  0  0  0  0  0  0  0  0  0
  145.9097  134.4257  152.2228 C   0  0  1  0  0  0  0  0  0  0  0  0
  145.6800  133.2308  151.5360 O   0  0  0  0  0  0  0  0  0  0  0  0
  144.6131  133.3814  150.6060 C   0  0  1  0  0  0  0  0  0  0  0  0
  143.8755  132.0485  150.3875 C   0  0  0  0  0  0  0  0  0  0  0  0
  142.9581  132.1657  149.3210 O   0  0  0  0  0  0  0  0  0  0  0  0
  143.7856  134.5636  151.1292 C   0  0  1  0  0  0  0  0  0  0  0  0
  142.8267  134.1546  152.0873 O   0  0  0  0  0  0  0  0  0  0  0  0
  144.8438  135.4420  151.7805 C   0  0  2  0  0  0  0  0  0  0  0  0
  145.3754  136.3683  150.8548 O   0  0  0  0  0  0  0  0  0  0  0  0
  146.4525  134.2961  159.6831 C   0  0  0  0  0  0  0  0  0  0  0  0
  146.8341  133.3337  160.8359 C   0  0  0  0  0  0  0  0  0  0  0  0
  147.6771  134.0221  161.9219 C   0  0  0  0  0  0  0  0  0  0  0  0
  146.9657  135.2574  162.4862 C   0  0  0  0  0  0  0  0  0  0  0  0
  146.6105  136.2346  161.3597 C   0  0  0  0  0  0  0  0  0  0  0  0
  145.7600  135.5490  160.2791 C   0  0  0  0  0  0  0  0  0  0  0  0
  146.9396  134.7694  152.1159 H   0  0  0  0  0  0  0  0  0  0  0  0
  145.0785  133.6839  149.6659 H   0  0  0  0  0  0  0  0  0  0  0  0
  143.2548  135.0745  150.3246 H   0  0  0  0  0  0  0  0  0  0  0  0
  144.4574  136.0080  152.6302 H   0  0  0  0  0  0  0  0  0  0  0  0
  143.1219  132.8953  156.2140 H   0  0  0  0  0  0  0  0  0  0  0  0
  142.4080  132.0348  158.5170 H   0  0  0  0  0  0  0  0  0  0  0  0
  143.8640  131.5776  157.6422 H   0  0  0  0  0  0  0  0  0  0  0  0
  143.6111  133.9799  159.4896 H   0  0  0  0  0  0  0  0  0  0  0  0
  144.3504  132.4773  159.9833 H   0  0  0  0  0  0  0  0  0  0  0  0
  145.3613  134.4026  157.8492 H   0  0  0  0  0  0  0  0  0  0  0  0
  146.4788  131.7392  158.6144 H   0  0  0  0  0  0  0  0  0  0  0  0
  148.8929  131.1201  154.7098 H   0  0  0  0  0  0  0  0  0  0  0  0
  144.1121  135.4091  154.3092 H   0  0  0  0  0  0  0  0  0  0  0  0
  144.5920  131.2671  150.1334 H   0  0  0  0  0  0  0  0  0  0  0  0
  143.3579  131.7206  151.2889 H   0  0  0  0  0  0  0  0  0  0  0  0
  142.3979  132.9086  149.4864 H   0  0  0  0  0  0  0  0  0  0  0  0
  141.9891  134.0743  151.6574 H   0  0  0  0  0  0  0  0  0  0  0  0
  144.7568  137.0747  150.7474 H   0  0  0  0  0  0  0  0  0  0  0  0
  147.3796  134.6200  159.2073 H   0  0  0  0  0  0  0  0  0  0  0  0
  145.9305  132.9172  161.2831 H   0  0  0  0  0  0  0  0  0  0  0  0
  147.4143  132.4918  160.4619 H   0  0  0  0  0  0  0  0  0  0  0  0
  147.8917  133.3181  162.7265 H   0  0  0  0  0  0  0  0  0  0  0  0
  148.6411  134.3155  161.5040 H   0  0  0  0  0  0  0  0  0  0  0  0
  146.0586  134.9527  163.0097 H   0  0  0  0  0  0  0  0  0  0  0  0
  147.6001  135.7502  163.2232 H   0  0  0  0  0  0  0  0  0  0  0  0
  146.0727  137.0909  161.7676 H   0  0  0  0  0  0  0  0  0  0  0  0
  147.5241  136.6277  160.9123 H   0  0  0  0  0  0  0  0  0  0  0  0
  145.5440  136.2801  159.4998 H   0  0  0  0  0  0  0  0  0  0  0  0
  144.7960  135.2659  160.7044 H   0  0  0  0  0  0  0  0  0  0  0  0
  1  2  1  0  0  0  0
  1 34  1  0  0  0  0
  2  3  1  0  0  0  0
  2 35  1  0  0  0  0
  2 36  1  0  0  0  0
  3  4  1  0  0  0  0
  3 37  1  0  0  0  0
  3 38  1  0  0  0  0
  4  5  1  0  0  0  0
  4 24  1  0  0  0  0
  4 39  1  0  0  0  0
  5  6  1  0  0  0  0
  5 40  1  0  0  0  0
  6 11  1  0  0  0  0
  6  7  2  0  0  0  0
  7  8  1  0  0  0  0
  8  9  2  0  0  0  0
  8 41  1  0  0  0  0
  9 10  1  0  0  0  0
 10 14  1  0  0  0  0
 10 11  2  0  0  0  0
 11 12  1  0  0  0  0
 12 13  2  0  0  0  0
 13 14  1  0  0  0  0
 13 42  1  0  0  0  0
 14 15  1  0  0  0  0
 15 30  1  0  0  0  0
 15 22  1  0  0  0  0
 15 16  1  0  0  0  0
 16 17  1  0  0  0  0
 17 31  1  0  0  0  0
 17 18  1  0  0  0  0
 17 20  1  0  0  0  0
 18 19  1  0  0  0  0
 18 43  1  0  0  0  0
 18 44  1  0  0  0  0
 19 45  1  0  0  0  0
 20 32  1  0  0  0  0
 20 21  1  0  0  0  0
 20 22  1  0  0  0  0
 21 46  1  0  0  0  0
 22 33  1  0  0  0  0
 22 23  1  0  0  0  0
 23 47  1  0  0  0  0
 24 29  1  0  0  0  0
 24 25  1  0  0  0  0
 24 48  1  0  0  0  0
 25 26  1  0  0  0  0
 25 49  1  0  0  0  0
 25 50  1  0  0  0  0
 26 27  1  0  0  0  0
 26 51  1  0  0  0  0
 26 52  1  0  0  0  0
 27 28  1  0  0  0  0
 27 53  1  0  0  0  0
 27 54  1  0  0  0  0
 28 29  1  0  0  0  0
 28 55  1  0  0  0  0
 28 56  1  0  0  0  0
 29 57  1  0  0  0  0
 29 58  1  0  0  0  0
M  END
> <s_m_source_file>
AV-unprocessed.smi

> <i_m_source_file_index>
109

> <i_lp_mmshare_version>
43012

> <i_f3d_flags>
0

> <s_epik_input>
W0NIMl0xW0NIMl1bQ0gyXVtDSDJdW0NIMl1bQ0hdMVtDQEhdKFtDSDJdW0NIMl1bT0hdKVtOSF1jKG5bY0hdbjIpYyhjMjMpbltjSF1uM1tDQEBIXTRPW0NASF0oW0NIMl1bT0hdKVtDQEBIXShbT0hdKVtDQEhdNFtPSF0=

> <s_epik_cmdline>
J2VwaWtfcHl0aG9uJywgJy1waCcsICc3LjAnLCAnLXRuJywgJzgnLCAnLW1hJywgJzIwMCcsICctbWV0YWxfYmluZGluZycsICctaW1hZScsICc8aW5maWxlLm1hZT4nLCAnLW9tYWUnLCAnPG91dGZpbGUubWFlPic=

> <r_lp_tautomer_probability>
1

> <r_epik_Ionization_Penalty>
0.000793976

> <r_epik_Ionization_Penalty_Charging>
0

> <r_epik_Ionization_Penalty_Neutral>
0.000793976

> <r_epik_State_Penalty>
-0

> <r_epik_Charging_Adjusted_Penalty>
0

> <i_epik_Tot_Q>
0

> <i_epik_Tot_abs_Q>
0

> <r_epik_Metal_State_Penalty>
-0

> <b_epik_Metal_Only>
0

> <s_epik_Chemistry_Notes>
This compound contains an acetal/aminal-like group ( X-CH(R)-Y where X, Y are N, S, or O) that may be acid/base labile, releasing an aldehyde.

> <s_lp_Force_Field>
OPLS_2005

> <r_lp_Energy>
46.6527

> <b_lp_Chiralities_Consistent>
1

> <s_lp_Variant>
AV-unprocessed.smi:109-23

> <Gold.Version>
5.8.1

> <Gold.Id.Protein>
6NUR|6NUR_protein|mol2

> <Gold.PLP.Fitness>
49.2762

> <Gold.PLP.PLP>
-35.8459

> <Gold.PLP.part.hbond>
-6.5252

> <Gold.PLP.part.metal>
0.0000

> <Gold.PLP.part.buried>
-7.8672

> <Gold.PLP.part.nonpolar>
-22.5627

> <Gold.PLP.part.repulsive>
0.2659

> <Gold.PLP.ligand.clash>
0.0000

> <Gold.PLP.ligand.torsion>
0.1798

> <Gold.PLP.Chemscore.Hbond>
4.5266

> <Gold.PLP.Chemscore.CHOScore>
0.0000

> <Gold.PLP.Chemscore.Metal>
0.0000

> <Gold.Chemscore.Hbonds>
donor molecule, donor type, donor heavy atom, donor atom, acceptor molecule, acceptor atom, score
      L1  H     1    34       P1 10957  1.00
      L1  H    19    45       P1 10186  0.96
      L1  H    21    46       P1 10186  0.08
      L1  H    23    47       P1 10171  1.00
      P1  H 10785 10796       L1    19  0.51
      P1  H 11000 11005       L1     1  1.00

> <Gold.PLP.Chemscore.Internal.Correction>
0.2101

> <Gold.Rescore>
     Score         DG    S(hbond)    S(metal)    S(lipo)     H(rot)  DE(clash)    DE(int)     intcor
      8.90     -11.74       3.79        0.00      64.75       5.47       0.00       2.84       ----

> <Gold.Chemscore.Fitness>
8.9007

> <Gold.Chemscore.DG>
-11.7359

> <Gold.Chemscore.ZeroCoef>
-5.4800

> <Gold.Chemscore.Hbond>
3.7945

> <Gold.Chemscore.Metal>
0.0000

> <Gold.Chemscore.Lipo>
64.7502

> <Gold.Chemscore.Internal_Hbond>
0.0000

> <Gold.Chemscore.DEClash>
0.0000

> <Gold.Chemscore.DEInternal>
2.8352

> <Gold.Chemscore.Rot>
5.4662

> <Gold.Chemscore.Internal.Correction>
   9.000000E+99

> <Gold.Chemscore.Hbonds>
donor molecule, donor type, donor heavy atom, donor atom, acceptor molecule, acceptor atom, score
      L1  H     1    34       P1 10957  0.97
      L1  H    19    45       P1 10186  0.90
      L1  H    23    47       P1 10171  0.96
      P1  H 10785 10796       L1    19  0.04
      P1  H 11000 11005       L1     1  0.24

> <Gold.Chemscore.Hbond.Weighted>
-12.6737

> <Gold.Chemscore.Metal.Weighted>
-0.0000

> <Gold.Chemscore.Lipo.Weighted>
-7.5758

> <Gold.Chemscore.Internal_Hbond.Weighted>
0.0000

> <Gold.Chemscore.DEClash.Weighted>
0.0000

> <Gold.Chemscore.DEInternal.Weighted>
2.8352

> <Gold.Chemscore.Rot.Weighted>
13.9935

> <Gold.Chemscore.Internal.Correction.Weighted>
   9.000000E+99

> <Gold.Protein.RotatedTorsions>
[ 6907 6896 6895 6894 ] final    5.19 input  -60.11 | X-H torsion
[ 7974 7965 7964 7962 ] final   75.24 input  175.53 | X-H torsion
[ 8008 7997 7996 7995 ] final  -68.29 input   59.86 | X-H torsion
[ 10167 10162 10161 10158 ] final   93.86 input  -65.29 | X-H torsion
[ 10718 10713 10712 10709 ] final   63.89 input   66.30 | X-H torsion
[ 10763 10752 10751 10750 ] final  154.03 input  -60.55 | X-H torsion
[ 11005 11000 10999 10996 ] final  -84.45 input  -57.11 | X-H torsion

> <Gold.Protein.ActiveResidues>
 VAL166  LYS551  ARG553  GLY616  TRP617  ASP618  TYR619  PRO620  LYS621  CYS622 
 ASP623  PHE694  ASN695  SER759  ASP760  ASP761  ALA762  ILE779  LEU786  VAL792 
 PHE793  MET794  SER795  GLU796  ALA797  LYS798  CYS799  TRP800  GLU811  SER814 

> <Gold.Protein.RotatedAtoms>
  151.6535  135.0998  160.0165 H   0  0  0  0  0  0  0  0  0  0  0  0  # atno 6907 bound_to 6896
  152.3987  133.6781  159.6307 H   0  0  0  0  0  0  0  0  0  0  0  0  # atno 6908 bound_to 6896
  150.7890  133.8745  159.3309 H   0  0  0  0  0  0  0  0  0  0  0  0  # atno 6909 bound_to 6896
  145.7181  139.2638  143.1612 H   0  0  0  0  0  0  0  0  0  0  0  0  # atno 7974 bound_to 7965
  154.4857  140.0876  156.7482 H   0  0  0  0  0  0  0  0  0  0  0  0  # atno 8008 bound_to 7997
  155.4355  140.3451  155.4266 H   0  0  0  0  0  0  0  0  0  0  0  0  # atno 8009 bound_to 7997
  156.1258  140.1487  156.9126 H   0  0  0  0  0  0  0  0  0  0  0  0  # atno 8010 bound_to 7997
  139.8139  144.6761  150.9604 H   0  0  0  0  0  0  0  0  0  0  0  0  # atno 10167 bound_to 10162
  157.6002  130.9130  149.9774 H   0  0  0  0  0  0  0  0  0  0  0  0  # atno 10718 bound_to 10713
  154.1458  135.2818  155.3149 H   0  0  0  0  0  0  0  0  0  0  0  0  # atno 10763 bound_to 10752
  154.6254  135.5453  153.7624 H   0  0  0  0  0  0  0  0  0  0  0  0  # atno 10764 bound_to 10752
  153.0236  135.6449  154.1603 H   0  0  0  0  0  0  0  0  0  0  0  0  # atno 10765 bound_to 10752
  141.1650  133.7346  156.8869 H   0  0  0  0  0  0  0  0  0  0  0  0  # atno 11005 bound_to 11000
  146.0651  140.7930  142.9716 LP  0  0  0  0  0  0  0  0  0  0  0  0  # atno 17320 bound_to 7965
  144.6924  140.3255  143.7225 LP  0  0  0  0  0  0  0  0  0  0  0  0  # atno 17321 bound_to 7965
  140.7816  143.4157  151.0920 LP  0  0  0  0  0  0  0  0  0  0  0  0  # atno 17342 bound_to 10162
  139.7822  143.8338  152.3139 LP  0  0  0  0  0  0  0  0  0  0  0  0  # atno 17343 bound_to 10162
  156.1074  130.3652  150.0110 LP  0  0  0  0  0  0  0  0  0  0  0  0  # atno 17370 bound_to 10713
  156.8214  130.9360  151.3641 LP  0  0  0  0  0  0  0  0  0  0  0  0  # atno 17371 bound_to 10713
  140.1676  134.9122  157.2793 LP  0  0  0  0  0  0  0  0  0  0  0  0  # atno 17394 bound_to 11000
  140.2539  134.3650  155.7431 LP  0  0  0  0  0  0  0  0  0  0  0  0  # atno 17395 bound_to 11000

$$$$
