AV-unprocessed.smi:2544|AV-procd|sdf|9994|dock2
  -GOLD-   2272014 43D 1   1.00000     0.00000
 Structure written by MMmdl.
 40 41  0  0  0  0  0  0  0  0  1 V2000
  151.8700  145.2174  160.2034 C   0  0  0  0  0  0  0  0  0  0  0  0
  152.1425  144.0910  161.2066 C   0  0  0  0  0  0  0  0  0  0  0  0
  152.5390  142.8588  160.5403 N   0  0  0  0  0  0  0  0  0  0  0  0
  153.6471  142.1334  160.9653 C   0  0  0  0  0  0  0  0  0  0  0  0
  154.0937  141.0151  160.3619 C   0  0  0  0  0  0  0  0  0  0  0  0
  153.3878  140.5053  159.1687 C   0  0  0  0  0  0  0  0  0  0  0  0
  153.7643  139.4820  158.5975 O   0  0  0  0  0  0  0  0  0  0  0  0
  152.2120  141.2888  158.7045 C   0  0  0  0  0  0  0  0  0  0  0  0
  151.5459  140.7954  157.5699 N   0  0  0  0  0  0  0  0  0  0  0  0
  150.2776  140.9988  157.1683 C   0  0  0  0  0  0  0  0  0  0  0  0
  149.4466  141.7095  157.7331 O   0  0  0  0  0  0  0  0  0  0  0  0
  150.0182  140.3206  156.0407 N   0  0  0  0  0  0  0  0  0  0  0  0
  148.7353  140.3027  155.3432 C   0  0  0  0  0  0  0  0  0  0  0  0
  148.7786  139.2654  154.2052 C   0  0  0  0  0  0  0  0  0  0  0  0
  147.4613  139.2470  153.4128 C   0  0  0  0  0  0  0  0  0  0  0  0
  147.1175  140.6428  152.8693 C   0  0  0  0  0  0  0  0  0  0  0  0
  147.0747  141.6836  153.9993 C   0  0  0  0  0  0  0  0  0  0  0  0
  148.3910  141.7025  154.7934 C   0  0  0  0  0  0  0  0  0  0  0  0
  151.8670  142.3965  159.4102 C   0  0  0  0  0  0  0  0  0  0  0  0
  151.5833  146.1341  160.7188 H   0  0  0  0  0  0  0  0  0  0  0  0
  151.0612  144.9513  159.5224 H   0  0  0  0  0  0  0  0  0  0  0  0
  152.7553  145.4342  159.6050 H   0  0  0  0  0  0  0  0  0  0  0  0
  152.9248  144.3971  161.9023 H   0  0  0  0  0  0  0  0  0  0  0  0
  151.2522  143.9081  161.8094 H   0  0  0  0  0  0  0  0  0  0  0  0
  154.1341  142.5371  161.8413 H   0  0  0  0  0  0  0  0  0  0  0  0
  154.9576  140.4817  160.7308 H   0  0  0  0  0  0  0  0  0  0  0  0
  152.1158  140.2131  156.9736 H   0  0  0  0  0  0  0  0  0  0  0  0
  150.7595  139.7647  155.6399 H   0  0  0  0  0  0  0  0  0  0  0  0
  147.9548  139.9992  156.0440 H   0  0  0  0  0  0  0  0  0  0  0  0
  149.6043  139.4912  153.5288 H   0  0  0  0  0  0  0  0  0  0  0  0
  148.9745  138.2724  154.6116 H   0  0  0  0  0  0  0  0  0  0  0  0
  147.5319  138.5348  152.5903 H   0  0  0  0  0  0  0  0  0  0  0  0
  146.6535  138.8962  154.0562 H   0  0  0  0  0  0  0  0  0  0  0  0
  147.8592  140.9396  152.1267 H   0  0  0  0  0  0  0  0  0  0  0  0
  146.1571  140.6143  152.3534 H   0  0  0  0  0  0  0  0  0  0  0  0
  146.8748  142.6727  153.5862 H   0  0  0  0  0  0  0  0  0  0  0  0
  146.2467  141.4573  154.6725 H   0  0  0  0  0  0  0  0  0  0  0  0
  148.3123  142.4206  155.6105 H   0  0  0  0  0  0  0  0  0  0  0  0
  149.1974  142.0558  154.1489 H   0  0  0  0  0  0  0  0  0  0  0  0
  151.0192  143.0136  159.1590 H   0  0  0  0  0  0  0  0  0  0  0  0
  1  2  1  0  0  0  0
  1 20  1  0  0  0  0
  1 21  1  0  0  0  0
  1 22  1  0  0  0  0
  2  3  1  0  0  0  0
  2 23  1  0  0  0  0
  2 24  1  0  0  0  0
  3 19  1  0  0  0  0
  3  4  1  0  0  0  0
  4  5  2  0  0  0  0
  4 25  1  0  0  0  0
  5  6  1  0  0  0  0
  5 26  1  0  0  0  0
  6  7  2  0  0  0  0
  6  8  1  0  0  0  0
  8  9  1  0  0  0  0
  8 19  2  0  0  0  0
  9 10  1  0  0  0  0
  9 27  1  0  0  0  0
 10 11  2  0  0  0  0
 10 12  1  0  0  0  0
 12 13  1  0  0  0  0
 12 28  1  0  0  0  0
 13 18  1  0  0  0  0
 13 14  1  0  0  0  0
 13 29  1  0  0  0  0
 14 15  1  0  0  0  0
 14 30  1  0  0  0  0
 14 31  1  0  0  0  0
 15 16  1  0  0  0  0
 15 32  1  0  0  0  0
 15 33  1  0  0  0  0
 16 17  1  0  0  0  0
 16 34  1  0  0  0  0
 16 35  1  0  0  0  0
 17 18  1  0  0  0  0
 17 36  1  0  0  0  0
 17 37  1  0  0  0  0
 18 38  1  0  0  0  0
 18 39  1  0  0  0  0
 19 40  1  0  0  0  0
M  END
> <s_m_source_file>
AV-unprocessed.smi

> <i_m_source_file_index>
2544

> <i_lp_mmshare_version>
43012

> <i_f3d_flags>
0

> <s_epik_input>
W0NIM11bQ0gyXW4xW2NIXVtjSF1jKD1PKWMoW2NIXTEpW05IXUMoPU8pW05IXVtDSF0yW0NIMl1bQ0gyXVtDSDJdW0NIMl1bQ0gyXTI=

> <s_epik_cmdline>
J2VwaWtfcHl0aG9uJywgJy1waCcsICc3LjAnLCAnLXRuJywgJzgnLCAnLW1hJywgJzIwMCcsICctbWV0YWxfYmluZGluZycsICctaW1hZScsICc8aW5maWxlLm1hZT4nLCAnLW9tYWUnLCAnPG91dGZpbGUubWFlPic=

> <r_lp_tautomer_probability>
1

> <r_epik_Ionization_Penalty>
0.00144746

> <r_epik_Ionization_Penalty_Charging>
0.00142605

> <r_epik_Ionization_Penalty_Neutral>
2.14089e-05

> <r_epik_State_Penalty>
0.000952116

> <r_epik_Charging_Adjusted_Penalty>
0.00237816

> <i_epik_Tot_Q>
0

> <i_epik_Tot_abs_Q>
0

> <r_epik_Metal_State_Penalty>
-0

> <b_epik_Metal_Only>
0

> <s_lp_Force_Field>
OPLS_2005

> <r_lp_Energy>
3.66557

> <b_lp_Chiralities_Consistent>
1

> <s_lp_Variant>
AV-unprocessed.smi:2544-1

> <Gold.Version>
5.8.1

> <Gold.Id.Protein>
6NUR|6NUR_protein|mol2

> <Gold.PLP.Fitness>
43.1753

> <Gold.PLP.PLP>
-40.7975

> <Gold.PLP.part.hbond>
-1.0000

> <Gold.PLP.part.metal>
0.0000

> <Gold.PLP.part.buried>
-3.5634

> <Gold.PLP.part.nonpolar>
-35.6462

> <Gold.PLP.part.repulsive>
0.2133

> <Gold.PLP.ligand.clash>
0.0000

> <Gold.PLP.ligand.torsion>
0.3179

> <Gold.PLP.Chemscore.Hbond>
1.0000

> <Gold.PLP.Chemscore.CHOScore>
0.0000

> <Gold.PLP.Chemscore.Metal>
0.0000

> <Gold.Chemscore.Hbonds>
donor molecule, donor type, donor heavy atom, donor atom, acceptor molecule, acceptor atom, score
      P1  H  7997  8008       L1     7  1.00

> <Gold.PLP.Chemscore.Internal.Correction>
0.0137

> <Gold.Rescore>
     Score         DG    S(hbond)    S(metal)    S(lipo)     H(rot)  DE(clash)    DE(int)     intcor
     16.14     -17.60       0.95        0.00     101.85       1.17       0.30       1.16       ----

> <Gold.Chemscore.Fitness>
16.1387

> <Gold.Chemscore.DG>
-17.5981

> <Gold.Chemscore.ZeroCoef>
-5.4800

> <Gold.Chemscore.Hbond>
0.9542

> <Gold.Chemscore.Metal>
0.0000

> <Gold.Chemscore.Lipo>
101.8479

> <Gold.Chemscore.Internal_Hbond>
0.0000

> <Gold.Chemscore.DEClash>
0.2994

> <Gold.Chemscore.DEInternal>
1.1600

> <Gold.Chemscore.Rot>
1.1660

> <Gold.Chemscore.Internal.Correction>
   9.000000E+99

> <Gold.Chemscore.Hbonds>
donor molecule, donor type, donor heavy atom, donor atom, acceptor molecule, acceptor atom, score
      P1  H  7997  8008       L1     7  0.55

> <Gold.Chemscore.Hbond.Weighted>
-3.1869

> <Gold.Chemscore.Metal.Weighted>
-0.0000

> <Gold.Chemscore.Lipo.Weighted>
-11.9162

> <Gold.Chemscore.Internal_Hbond.Weighted>
0.0000

> <Gold.Chemscore.DEClash.Weighted>
0.2994

> <Gold.Chemscore.DEInternal.Weighted>
1.1600

> <Gold.Chemscore.Rot.Weighted>
2.9850

> <Gold.Chemscore.Internal.Correction.Weighted>
   9.000000E+99

> <Gold.Protein.RotatedTorsions>
[ 6907 6896 6895 6894 ] final  128.29 input  -60.11 | X-H torsion
[ 7974 7965 7964 7962 ] final -112.81 input  175.53 | X-H torsion
[ 8008 7997 7996 7995 ] final  -92.58 input   59.86 | X-H torsion
[ 10167 10162 10161 10158 ] final  -72.03 input  -65.29 | X-H torsion
[ 10718 10713 10712 10709 ] final -171.65 input   66.30 | X-H torsion
[ 10763 10752 10751 10750 ] final  -17.50 input  -60.55 | X-H torsion
[ 11005 11000 10999 10996 ] final   -1.01 input  -57.11 | X-H torsion

> <Gold.Protein.ActiveResidues>
 VAL166  LYS551  ARG553  GLY616  TRP617  ASP618  TYR619  PRO620  LYS621  CYS622 
 ASP623  PHE694  ASN695  SER759  ASP760  ASP761  ALA762  ILE779  LEU786  VAL792 
 PHE793  MET794  SER795  GLU796  ALA797  LYS798  CYS799  TRP800  GLU811  SER814 

> <Gold.Protein.RotatedAtoms>
  152.3733  133.6448  159.6103 H   0  0  0  0  0  0  0  0  0  0  0  0  # atno 6907 bound_to 6896
  150.7685  133.9234  159.3414 H   0  0  0  0  0  0  0  0  0  0  0  0  # atno 6908 bound_to 6896
  151.7053  135.0924  160.0309 H   0  0  0  0  0  0  0  0  0  0  0  0  # atno 6909 bound_to 6896
  145.1395  140.8770  143.3710 H   0  0  0  0  0  0  0  0  0  0  0  0  # atno 7974 bound_to 7965
  154.7248  140.0507  157.0673 H   0  0  0  0  0  0  0  0  0  0  0  0  # atno 8008 bound_to 7997
  155.0379  140.3165  155.4716 H   0  0  0  0  0  0  0  0  0  0  0  0  # atno 8009 bound_to 7997
  156.2826  140.2138  156.5502 H   0  0  0  0  0  0  0  0  0  0  0  0  # atno 8010 bound_to 7997
  140.5225  143.2330  151.7405 H   0  0  0  0  0  0  0  0  0  0  0  0  # atno 10167 bound_to 10162
  156.7439  130.9353  151.3111 H   0  0  0  0  0  0  0  0  0  0  0  0  # atno 10718 bound_to 10713
  153.5748  135.7006  153.5489 H   0  0  0  0  0  0  0  0  0  0  0  0  # atno 10763 bound_to 10752
  153.3313  135.4046  155.1497 H   0  0  0  0  0  0  0  0  0  0  0  0  # atno 10764 bound_to 10752
  154.8627  135.3719  154.5273 H   0  0  0  0  0  0  0  0  0  0  0  0  # atno 10765 bound_to 10752
  140.6426  133.9476  155.8334 H   0  0  0  0  0  0  0  0  0  0  0  0  # atno 11005 bound_to 11000
  145.0548  139.3153  143.5910 LP  0  0  0  0  0  0  0  0  0  0  0  0  # atno 17320 bound_to 7965
  146.3506  139.9969  142.8680 LP  0  0  0  0  0  0  0  0  0  0  0  0  # atno 17321 bound_to 7965
  139.4928  144.4234  151.9952 LP  0  0  0  0  0  0  0  0  0  0  0  0  # atno 17342 bound_to 10162
  140.3331  144.3292  150.5983 LP  0  0  0  0  0  0  0  0  0  0  0  0  # atno 17343 bound_to 10162
  157.6806  130.9136  150.0258 LP  0  0  0  0  0  0  0  0  0  0  0  0  # atno 17370 bound_to 10713
  156.1446  130.3642  149.9530 LP  0  0  0  0  0  0  0  0  0  0  0  0  # atno 17371 bound_to 10713
  141.0596  134.0366  157.3676 LP  0  0  0  0  0  0  0  0  0  0  0  0  # atno 17394 bound_to 11000
  139.9075  135.0183  156.7548 LP  0  0  0  0  0  0  0  0  0  0  0  0  # atno 17395 bound_to 11000

$$$$
