AV-unprocessed.smi:1605|AV-procd|sdf|6459|dock6
  -GOLD-   22720 7113D 1   1.00000     0.00000
 Structure written by MMmdl.
 50 52  0  0  0  0  0  0  0  0  1 V2000
  149.9844  133.3334  156.8666 C   0  0  0  0  0  0  0  0  0  0  0  0
  150.1880  134.5112  157.6319 O   0  0  0  0  0  0  0  0  0  0  0  0
  149.3823  135.6138  157.2352 C   0  0  0  0  0  0  0  0  0  0  0  0
  149.6342  136.0041  155.7656 C   0  0  0  0  0  0  0  0  0  0  0  0
  148.9114  137.3182  155.4212 C   0  0  0  0  0  0  0  0  0  0  0  0
  149.3071  138.4270  156.2920 N   0  0  0  0  0  0  0  0  0  0  0  0
  148.6616  139.6773  155.8753 C   0  0  0  0  0  0  0  0  0  0  0  0
  149.4298  140.5349  154.8444 C   0  0  2  0  0  0  0  0  0  0  0  0
  150.1862  139.6788  154.0112 O   0  0  0  0  0  0  0  0  0  0  0  0
  150.3180  141.6590  155.4116 C   0  0  0  0  0  0  0  0  0  0  0  0
  151.2161  141.1791  156.4465 N   0  0  0  0  0  0  0  0  0  0  0  0
  151.8576  139.9951  156.4819 C   0  0  0  0  0  0  0  0  0  0  0  0
  152.6381  139.7566  157.5321 N   0  0  0  0  0  0  0  0  0  0  0  0
  152.4861  140.9228  158.2625 C   0  0  0  0  0  0  0  0  0  0  0  0
  153.0540  141.3130  159.4950 C   0  0  0  0  0  0  0  0  0  0  0  0
  152.7546  142.5709  160.0651 C   0  0  0  0  0  0  0  0  0  0  0  0
  153.3877  142.9493  161.3924 C   0  0  0  0  0  0  0  0  0  0  0  0
  151.8741  143.4613  159.3994 C   0  0  0  0  0  0  0  0  0  0  0  0
  151.5398  144.8189  159.9919 C   0  0  0  0  0  0  0  0  0  0  0  0
  151.2969  143.0868  158.1679 C   0  0  0  0  0  0  0  0  0  0  0  0
  151.6029  141.8324  157.6111 C   0  0  0  0  0  0  0  0  0  0  0  0
  148.9920  138.0717  157.6804 C   0  0  0  0  0  0  0  0  0  0  0  0
  149.7297  136.8046  158.1430 C   0  0  0  0  0  0  0  0  0  0  0  0
  150.6010  132.5300  157.2692 H   0  0  0  0  0  0  0  0  0  0  0  0
  150.2662  133.4733  155.8231 H   0  0  0  0  0  0  0  0  0  0  0  0
  148.9443  133.0081  156.9095 H   0  0  0  0  0  0  0  0  0  0  0  0
  148.3272  135.3717  157.3766 H   0  0  0  0  0  0  0  0  0  0  0  0
  150.7049  136.1220  155.5933 H   0  0  0  0  0  0  0  0  0  0  0  0
  149.2942  135.2178  155.0921 H   0  0  0  0  0  0  0  0  0  0  0  0
  149.1341  137.5700  154.3835 H   0  0  0  0  0  0  0  0  0  0  0  0
  147.8320  137.1684  155.4773 H   0  0  0  0  0  0  0  0  0  0  0  0
  147.6945  139.4505  155.4235 H   0  0  0  0  0  0  0  0  0  0  0  0
  148.4249  140.2798  156.7535 H   0  0  0  0  0  0  0  0  0  0  0  0
  148.6797  140.9985  154.2023 H   0  0  0  0  0  0  0  0  0  0  0  0
  149.7267  139.5814  153.1909 H   0  0  0  0  0  0  0  0  0  0  0  0
  150.9214  142.1026  154.6187 H   0  0  0  0  0  0  0  0  0  0  0  0
  149.7072  142.4548  155.8385 H   0  0  0  0  0  0  0  0  0  0  0  0
  151.7468  139.2681  155.6907 H   0  0  0  0  0  0  0  0  0  0  0  0
  153.7256  140.6348  160.0008 H   0  0  0  0  0  0  0  0  0  0  0  0
  152.6191  143.1458  162.1403 H   0  0  0  0  0  0  0  0  0  0  0  0
  154.0015  143.8438  161.2816 H   0  0  0  0  0  0  0  0  0  0  0  0
  154.0260  142.1505  161.7714 H   0  0  0  0  0  0  0  0  0  0  0  0
  150.8490  145.3721  159.3550 H   0  0  0  0  0  0  0  0  0  0  0  0
  152.4429  145.4188  160.1061 H   0  0  0  0  0  0  0  0  0  0  0  0
  151.0728  144.7045  160.9705 H   0  0  0  0  0  0  0  0  0  0  0  0
  150.6248  143.7547  157.6499 H   0  0  0  0  0  0  0  0  0  0  0  0
  149.2475  138.8813  158.3584 H   0  0  0  0  0  0  0  0  0  0  0  0
  147.9166  137.9210  157.7878 H   0  0  0  0  0  0  0  0  0  0  0  0
  149.4682  136.5759  159.1765 H   0  0  0  0  0  0  0  0  0  0  0  0
  150.8057  136.9845  158.1262 H   0  0  0  0  0  0  0  0  0  0  0  0
  1  2  1  0  0  0  0
  1 24  1  0  0  0  0
  1 25  1  0  0  0  0
  1 26  1  0  0  0  0
  2  3  1  0  0  0  0
  3 23  1  0  0  0  0
  3  4  1  0  0  0  0
  3 27  1  0  0  0  0
  4  5  1  0  0  0  0
  4 28  1  0  0  0  0
  4 29  1  0  0  0  0
  5  6  1  0  0  0  0
  5 30  1  0  0  0  0
  5 31  1  0  0  0  0
  6  7  1  0  0  0  0
  6 22  1  0  0  0  0
  7  8  1  0  0  0  0
  7 32  1  0  0  0  0
  7 33  1  0  0  0  0
  8  9  1  0  0  0  0
  8 10  1  0  0  0  0
  8 34  1  0  0  0  0
  9 35  1  0  0  0  0
 10 11  1  0  0  0  0
 10 36  1  0  0  0  0
 10 37  1  0  0  0  0
 11 21  1  0  0  0  0
 11 12  1  0  0  0  0
 12 13  2  0  0  0  0
 12 38  1  0  0  0  0
 13 14  1  0  0  0  0
 14 21  2  0  0  0  0
 14 15  1  0  0  0  0
 15 16  2  0  0  0  0
 15 39  1  0  0  0  0
 16 17  1  0  0  0  0
 16 18  1  0  0  0  0
 17 40  1  0  0  0  0
 17 41  1  0  0  0  0
 17 42  1  0  0  0  0
 18 19  1  0  0  0  0
 18 20  2  0  0  0  0
 19 43  1  0  0  0  0
 19 44  1  0  0  0  0
 19 45  1  0  0  0  0
 20 21  1  0  0  0  0
 20 46  1  0  0  0  0
 22 23  1  0  0  0  0
 22 47  1  0  0  0  0
 22 48  1  0  0  0  0
 23 49  1  0  0  0  0
 23 50  1  0  0  0  0
M  END
> <s_m_source_file>
AV-unprocessed.smi

> <i_m_source_file_index>
1605

> <i_lp_mmshare_version>
43012

> <i_f3d_flags>
0

> <s_epik_input>
W0NIM11PW0NIXTFbQ0gyXVtDSDJdTihbQ0gyXVtDSDJdMSlbQ0gyXVtDQEhdKFtPSF0pW0NIMl1uKFtjSF1uMiljKGMyMylbY0hdYyhbQ0gzXSljKFtjSF0zKVtDSDNd

> <s_epik_cmdline>
J2VwaWtfcHl0aG9uJywgJy1waCcsICc3LjAnLCAnLXRuJywgJzgnLCAnLW1hJywgJzIwMCcsICctbWV0YWxfYmluZGluZycsICctaW1hZScsICc8aW5maWxlLm1hZT4nLCAnLW9tYWUnLCAnPG91dGZpbGUubWFlPic=

> <r_epik_Ionization_Penalty>
2.02119

> <r_epik_Ionization_Penalty_Charging>
0

> <r_epik_Ionization_Penalty_Neutral>
2.02119

> <r_epik_State_Penalty>
2.11303

> <r_epik_Charging_Adjusted_Penalty>
2.11303

> <i_epik_Tot_Q>
0

> <i_epik_Tot_abs_Q>
0

> <r_epik_Metal_State_Penalty>
2.04251

> <b_epik_Metal_Only>
0

> <s_lp_Force_Field>
OPLS_2005

> <r_lp_Energy>
37.9414

> <b_lp_Chiralities_Consistent>
1

> <s_lp_Variant>
AV-unprocessed.smi:1605-9

> <Gold.Version>
5.8.1

> <Gold.Id.Protein>
6NUR|6NUR_protein|mol2

> <Gold.PLP.Fitness>
49.5957

> <Gold.PLP.PLP>
-40.8645

> <Gold.PLP.part.hbond>
-4.0000

> <Gold.PLP.part.metal>
0.0000

> <Gold.PLP.part.buried>
-5.6804

> <Gold.PLP.part.nonpolar>
-30.8959

> <Gold.PLP.part.repulsive>
0.0066

> <Gold.PLP.ligand.clash>
0.0110

> <Gold.PLP.ligand.torsion>
1.1881

> <Gold.PLP.Chemscore.Hbond>
3.6880

> <Gold.PLP.Chemscore.CHOScore>
0.0000

> <Gold.PLP.Chemscore.Metal>
0.0000

> <Gold.Chemscore.Hbonds>
donor molecule, donor type, donor heavy atom, donor atom, acceptor molecule, acceptor atom, score
      L1  H     9    35       P1  7957  0.84
      P1  H  6896  6909       L1     2  0.78
      P1  H  7989  7998       L1     9  1.00
      P1  H  7997  8009       L1    13  0.95

> <Gold.PLP.Chemscore.Internal.Correction>
0.0543

> <Gold.Rescore>
     Score         DG    S(hbond)    S(metal)    S(lipo)     H(rot)  DE(clash)    DE(int)     intcor
     18.17     -20.81       2.37        0.00     110.14       2.14       0.14       2.50       ----

> <Gold.Chemscore.Fitness>
18.1686

> <Gold.Chemscore.DG>
-20.8074

> <Gold.Chemscore.ZeroCoef>
-5.4800

> <Gold.Chemscore.Hbond>
2.3739

> <Gold.Chemscore.Metal>
0.0000

> <Gold.Chemscore.Lipo>
110.1420

> <Gold.Chemscore.Internal_Hbond>
0.0000

> <Gold.Chemscore.DEClash>
0.1429

> <Gold.Chemscore.DEInternal>
2.4959

> <Gold.Chemscore.Rot>
2.1438

> <Gold.Chemscore.Internal.Correction>
   9.000000E+99

> <Gold.Chemscore.Hbonds>
donor molecule, donor type, donor heavy atom, donor atom, acceptor molecule, acceptor atom, score
      L1  H     9    35       P1  7957  0.79
      P1  H  6896  6909       L1     2  0.61
      P1  H  7989  7998       L1     9  0.07
      P1  H  7997  8009       L1    13  0.05

> <Gold.Chemscore.Hbond.Weighted>
-7.9290

> <Gold.Chemscore.Metal.Weighted>
-0.0000

> <Gold.Chemscore.Lipo.Weighted>
-12.8866

> <Gold.Chemscore.Internal_Hbond.Weighted>
0.0000

> <Gold.Chemscore.DEClash.Weighted>
0.1429

> <Gold.Chemscore.DEInternal.Weighted>
2.4959

> <Gold.Chemscore.Rot.Weighted>
5.4881

> <Gold.Chemscore.Internal.Correction.Weighted>
   9.000000E+99

> <Gold.Protein.RotatedTorsions>
[ 6907 6896 6895 6894 ] final   18.70 input  -60.11 | X-H torsion
[ 7974 7965 7964 7962 ] final   96.75 input  175.53 | X-H torsion
[ 8008 7997 7996 7995 ] final  176.36 input   59.86 | X-H torsion
[ 10167 10162 10161 10158 ] final  170.45 input  -65.29 | X-H torsion
[ 10718 10713 10712 10709 ] final -123.15 input   66.30 | X-H torsion
[ 10763 10752 10751 10750 ] final   -9.56 input  -60.55 | X-H torsion
[ 11005 11000 10999 10996 ] final  113.59 input  -57.11 | X-H torsion

> <Gold.Protein.ActiveResidues>
 VAL166  LYS551  ARG553  GLY616  TRP617  ASP618  TYR619  PRO620  LYS621  CYS622 
 ASP623  PHE694  ASN695  SER759  ASP760  ASP761  ALA762  ILE779  LEU786  VAL792 
 PHE793  MET794  SER795  GLU796  ALA797  LYS798  CYS799  TRP800  GLU811  SER814 

> <Gold.Protein.RotatedAtoms>
  151.8694  135.0495  160.0477 H   0  0  0  0  0  0  0  0  0  0  0  0  # atno 6907 bound_to 6896
  152.2600  133.5284  159.5384 H   0  0  0  0  0  0  0  0  0  0  0  0  # atno 6908 bound_to 6896
  150.7113  134.0759  159.3923 H   0  0  0  0  0  0  0  0  0  0  0  0  # atno 6909 bound_to 6896
  145.4347  139.2307  143.3125 H   0  0  0  0  0  0  0  0  0  0  0  0  # atno 7974 bound_to 7965
  156.0773  140.1385  156.9756 H   0  0  0  0  0  0  0  0  0  0  0  0  # atno 8008 bound_to 7997
  154.4565  140.0959  156.6822 H   0  0  0  0  0  0  0  0  0  0  0  0  # atno 8009 bound_to 7997
  155.5132  140.3454  155.4394 H   0  0  0  0  0  0  0  0  0  0  0  0  # atno 8010 bound_to 7997
  139.5019  144.3594  151.9840 H   0  0  0  0  0  0  0  0  0  0  0  0  # atno 10167 bound_to 10162
  156.1478  130.6513  150.9868 H   0  0  0  0  0  0  0  0  0  0  0  0  # atno 10718 bound_to 10713
  153.4566  135.7015  153.6076 H   0  0  0  0  0  0  0  0  0  0  0  0  # atno 10763 bound_to 10752
  153.4388  135.3785  155.2215 H   0  0  0  0  0  0  0  0  0  0  0  0  # atno 10764 bound_to 10752
  154.8728  135.3969  154.3986 H   0  0  0  0  0  0  0  0  0  0  0  0  # atno 10765 bound_to 10752
  139.8957  134.9552  156.6762 H   0  0  0  0  0  0  0  0  0  0  0  0  # atno 11005 bound_to 11000
  146.2588  140.5088  142.8862 LP  0  0  0  0  0  0  0  0  0  0  0  0  # atno 17320 bound_to 7965
  144.8160  140.6468  143.6384 LP  0  0  0  0  0  0  0  0  0  0  0  0  # atno 17321 bound_to 7965
  140.3031  144.3624  150.6054 LP  0  0  0  0  0  0  0  0  0  0  0  0  # atno 17342 bound_to 10162
  140.5858  143.2170  151.7345 LP  0  0  0  0  0  0  0  0  0  0  0  0  # atno 17343 bound_to 10162
  157.6631  131.0877  150.7791 LP  0  0  0  0  0  0  0  0  0  0  0  0  # atno 17370 bound_to 10713
  156.7861  130.4875  149.5392 LP  0  0  0  0  0  0  0  0  0  0  0  0  # atno 17371 bound_to 10713
  140.7334  133.9039  155.8227 LP  0  0  0  0  0  0  0  0  0  0  0  0  # atno 17394 bound_to 11000
  141.0135  134.0988  157.4197 LP  0  0  0  0  0  0  0  0  0  0  0  0  # atno 17395 bound_to 11000

$$$$
