AV-unprocessed.smi:1005|AV-procd|sdf|4378|dock9
  -GOLD-   22720 2293D 1   1.00000     0.00000
 Structure written by MMmdl.
 58 60  0  0  0  0  0  0  0  0  4 V2000
  152.0964  144.4903  160.6465 C   0  0  0  0  0  0  0  0  0  0  0  0
  151.8496  143.3608  159.6608 C   0  0  0  0  0  0  0  0  0  0  0  0
  151.1412  143.6466  158.4717 C   0  0  0  0  0  0  0  0  0  0  0  0
  150.9330  142.5938  157.5887 C   0  0  0  0  0  0  0  0  0  0  0  0
  150.2808  142.5489  156.3546 N   0  3  0  0  0  0  0  0  0  0  0  0
  150.3359  141.2825  155.8567 C   0  0  0  0  0  0  0  0  0  0  0  0
  151.0202  140.5193  156.7527 N   0  0  0  0  0  0  0  0  0  0  0  0
  151.3671  139.0923  156.7115 C   0  0  0  0  0  0  0  0  0  0  0  0
  151.9498  138.6555  155.3526 C   0  0  2  0  0  0  0  0  0  0  0  0
  152.8621  139.6383  154.9015 O   0  0  0  0  0  0  0  0  0  0  0  0
  150.8482  138.4767  154.2894 C   0  0  0  0  0  0  0  0  0  0  0  0
  150.1720  137.1569  154.3814 N   0  3  1  0  0  0  0  0  0  0  0  0
  151.0717  136.0532  154.7982 C   0  0  0  0  0  0  0  0  0  0  0  0
  150.3052  134.7215  154.8281 C   0  0  0  0  0  0  0  0  0  0  0  0
  149.1819  134.8387  155.6928 O   0  0  0  0  0  0  0  0  0  0  0  0
  148.2549  135.8252  155.2528 C   0  0  1  0  0  0  0  0  0  0  0  0
  147.0524  135.7843  156.2172 C   0  0  0  0  0  0  0  0  0  0  0  0
  146.3848  134.4575  156.2760 N   0  3  0  0  0  0  0  0  0  0  0  0
  145.9646  133.9889  154.9366 C   0  0  0  0  0  0  0  0  0  0  0  0
  145.2638  134.4045  157.2434 C   0  0  0  0  0  0  0  0  0  0  0  0
  148.9667  137.1952  155.2441 C   0  0  0  0  0  0  0  0  0  0  0  0
  151.4042  141.2932  157.8530 C   0  0  0  0  0  0  0  0  0  0  0  0
  152.1002  140.9930  159.0214 C   0  0  0  0  0  0  0  0  0  0  0  0
  152.3206  142.0501  159.9332 C   0  0  0  0  0  0  0  0  0  0  0  0
  153.0764  141.7532  161.2174 C   0  0  0  0  0  0  0  0  0  0  0  0
  151.6998  145.4364  160.2770 H   0  0  0  0  0  0  0  0  0  0  0  0
  153.1647  144.6230  160.8186 H   0  0  0  0  0  0  0  0  0  0  0  0
  151.6147  144.2768  161.6010 H   0  0  0  0  0  0  0  0  0  0  0  0
  150.7775  144.6415  158.2592 H   0  0  0  0  0  0  0  0  0  0  0  0
  149.9161  140.9469  154.9191 H   0  0  0  0  0  0  0  0  0  0  0  0
  152.0673  138.8860  157.5221 H   0  0  0  0  0  0  0  0  0  0  0  0
  150.4603  138.5286  156.9357 H   0  0  0  0  0  0  0  0  0  0  0  0
  152.4971  137.7239  155.4905 H   0  0  0  0  0  0  0  0  0  0  0  0
  153.7336  139.3807  155.1622 H   0  0  0  0  0  0  0  0  0  0  0  0
  150.1033  139.2698  154.3727 H   0  0  0  0  0  0  0  0  0  0  0  0
  151.3005  138.5882  153.3026 H   0  0  0  0  0  0  0  0  0  0  0  0
  151.9150  135.9649  154.1143 H   0  0  0  0  0  0  0  0  0  0  0  0
  151.4828  136.2669  155.7861 H   0  0  0  0  0  0  0  0  0  0  0  0
  149.9829  134.4336  153.8262 H   0  0  0  0  0  0  0  0  0  0  0  0
  150.9518  133.9241  155.1951 H   0  0  0  0  0  0  0  0  0  0  0  0
  147.9328  135.5649  154.2438 H   0  0  0  0  0  0  0  0  0  0  0  0
  147.3649  136.0712  157.2225 H   0  0  0  0  0  0  0  0  0  0  0  0
  146.3327  136.5400  155.8978 H   0  0  0  0  0  0  0  0  0  0  0  0
  145.2186  134.6576  154.5049 H   0  0  0  0  0  0  0  0  0  0  0  0
  145.5344  132.9882  154.9935 H   0  0  0  0  0  0  0  0  0  0  0  0
  146.8161  133.9405  154.2569 H   0  0  0  0  0  0  0  0  0  0  0  0
  144.4858  135.1228  156.9810 H   0  0  0  0  0  0  0  0  0  0  0  0
  145.5979  134.6170  158.2582 H   0  0  0  0  0  0  0  0  0  0  0  0
  144.8151  133.4104  157.2551 H   0  0  0  0  0  0  0  0  0  0  0  0
  149.2552  137.4793  156.2577 H   0  0  0  0  0  0  0  0  0  0  0  0
  148.2836  137.9629  154.8783 H   0  0  0  0  0  0  0  0  0  0  0  0
  152.4582  139.9955  159.2290 H   0  0  0  0  0  0  0  0  0  0  0  0
  153.3443  140.6985  161.2885 H   0  0  0  0  0  0  0  0  0  0  0  0
  152.4675  142.0003  162.0875 H   0  0  0  0  0  0  0  0  0  0  0  0
  153.9975  142.3347  161.2623 H   0  0  0  0  0  0  0  0  0  0  0  0
  147.0778  133.7949  156.5938 H   0  0  0  0  0  0  0  0  0  0  0  0
  149.8478  136.9411  153.4491 H   0  0  0  0  0  0  0  0  0  0  0  0
  149.8282  143.3233  155.8857 H   0  0  0  0  0  0  0  0  0  0  0  0
  1  2  1  0  0  0  0
  1 26  1  0  0  0  0
  1 27  1  0  0  0  0
  1 28  1  0  0  0  0
  2 24  1  0  0  0  0
  2  3  2  0  0  0  0
  3  4  1  0  0  0  0
  3 29  1  0  0  0  0
  4 22  2  0  0  0  0
  4  5  1  0  0  0  0
  5  6  2  0  0  0  0
  5 58  1  0  0  0  0
  6  7  1  0  0  0  0
  6 30  1  0  0  0  0
  7  8  1  0  0  0  0
  7 22  1  0  0  0  0
  8  9  1  0  0  0  0
  8 31  1  0  0  0  0
  8 32  1  0  0  0  0
  9 10  1  0  0  0  0
  9 11  1  0  0  0  0
  9 33  1  0  0  0  0
 10 34  1  0  0  0  0
 11 12  1  0  0  0  0
 11 35  1  0  0  0  0
 11 36  1  0  0  0  0
 12 21  1  0  0  0  0
 12 13  1  0  0  0  0
 12 57  1  0  0  0  0
 13 14  1  0  0  0  0
 13 37  1  0  0  0  0
 13 38  1  0  0  0  0
 14 15  1  0  0  0  0
 14 39  1  0  0  0  0
 14 40  1  0  0  0  0
 15 16  1  0  0  0  0
 16 17  1  0  0  0  0
 16 21  1  0  0  0  0
 16 41  1  0  0  0  0
 17 18  1  0  0  0  0
 17 42  1  0  0  0  0
 17 43  1  0  0  0  0
 18 19  1  0  0  0  0
 18 20  1  0  0  0  0
 18 56  1  0  0  0  0
 19 44  1  0  0  0  0
 19 45  1  0  0  0  0
 19 46  1  0  0  0  0
 20 47  1  0  0  0  0
 20 48  1  0  0  0  0
 20 49  1  0  0  0  0
 21 50  1  0  0  0  0
 21 51  1  0  0  0  0
 22 23  1  0  0  0  0
 23 24  2  0  0  0  0
 23 52  1  0  0  0  0
 24 25  1  0  0  0  0
 25 53  1  0  0  0  0
 25 54  1  0  0  0  0
 25 55  1  0  0  0  0
M  CHG  1   5   1
M  CHG  1  12   1
M  CHG  1  18   1
M  END
> <s_m_source_file>
AV-unprocessed.smi

> <i_m_source_file_index>
1005

> <i_lp_mmshare_version>
43012

> <i_f3d_flags>
0

> <s_epik_input>
W0NIM11jKFtjSF0xKWMoW0NIM10pW2NIXWMoYzEyKW4oW2NIXW4yKVtDSDJdW0NASF0oW09IXSlbQ0gyXU4zW0NIMl1bQ0gyXU9bQ0BIXShbQ0gyXTMpW0NIMl1OKFtDSDNdKVtDSDNd

> <s_epik_cmdline>
J2VwaWtfcHl0aG9uJywgJy1waCcsICc3LjAnLCAnLXRuJywgJzgnLCAnLW1hJywgJzIwMCcsICctbWV0YWxfYmluZGluZycsICctaW1hZScsICc8aW5maWxlLm1hZT4nLCAnLW9tYWUnLCAnPG91dGZpbGUubWFlPic=

> <r_epik_Ionization_Penalty>
2.30802

> <r_epik_Ionization_Penalty_Charging>
2.30798

> <r_epik_Ionization_Penalty_Neutral>
3.4851e-05

> <r_epik_State_Penalty>
2.52618

> <r_epik_Charging_Adjusted_Penalty>
4.83416

> <i_epik_Tot_Q>
3

> <i_epik_Tot_abs_Q>
3

> <r_epik_Metal_State_Penalty>
6.53149

> <b_epik_Metal_Only>
0

> <s_lp_Force_Field>
OPLS_2005

> <r_lp_Energy>
43.2014

> <b_lp_Chiralities_Consistent>
1

> <s_lp_Variant>
AV-unprocessed.smi:1005-17

> <Gold.Version>
5.8.1

> <Gold.Id.Protein>
6NUR|6NUR_protein|mol2

> <Gold.PLP.Fitness>
56.9243

> <Gold.PLP.PLP>
-45.0690

> <Gold.PLP.part.hbond>
-3.6186

> <Gold.PLP.part.metal>
0.0000

> <Gold.PLP.part.buried>
-6.4131

> <Gold.PLP.part.nonpolar>
-37.0007

> <Gold.PLP.part.repulsive>
0.2026

> <Gold.PLP.ligand.clash>
0.0000

> <Gold.PLP.ligand.torsion>
0.8906

> <Gold.PLP.Chemscore.Hbond>
4.4917

> <Gold.PLP.Chemscore.CHOScore>
0.0000

> <Gold.PLP.Chemscore.Metal>
0.0000

> <Gold.Chemscore.Hbonds>
donor molecule, donor type, donor heavy atom, donor atom, acceptor molecule, acceptor atom, score
      L1  H     5    58       P1  8028  2.00
      L1  H    12    57       P1  7948  2.00
      P1  H  7989  7998       L1    10  0.27

> <Gold.PLP.Chemscore.Internal.Correction>
0.1616

> <Gold.Rescore>
     Score         DG    S(hbond)    S(metal)    S(lipo)     H(rot)  DE(clash)    DE(int)     intcor
     19.83     -20.68       2.48        0.00     115.00       2.56       0.11       0.73       ----

> <Gold.Chemscore.Fitness>
19.8345

> <Gold.Chemscore.DG>
-20.6819

> <Gold.Chemscore.ZeroCoef>
-5.4800

> <Gold.Chemscore.Hbond>
2.4826

> <Gold.Chemscore.Metal>
0.0000

> <Gold.Chemscore.Lipo>
115.0003

> <Gold.Chemscore.Internal_Hbond>
0.0000

> <Gold.Chemscore.DEClash>
0.1135

> <Gold.Chemscore.DEInternal>
0.7338

> <Gold.Chemscore.Rot>
2.5566

> <Gold.Chemscore.Internal.Correction>
   9.000000E+99

> <Gold.Chemscore.Hbonds>
donor molecule, donor type, donor heavy atom, donor atom, acceptor molecule, acceptor atom, score
      L1  H     5    58       P1  8028  1.00
      L1  H    12    57       P1  7948  0.40
      P1  H  7989  7998       L1    10  0.14

> <Gold.Chemscore.Hbond.Weighted>
-8.2918

> <Gold.Chemscore.Metal.Weighted>
-0.0000

> <Gold.Chemscore.Lipo.Weighted>
-13.4550

> <Gold.Chemscore.Internal_Hbond.Weighted>
0.0000

> <Gold.Chemscore.DEClash.Weighted>
0.1135

> <Gold.Chemscore.DEInternal.Weighted>
0.7338

> <Gold.Chemscore.Rot.Weighted>
6.5450

> <Gold.Chemscore.Internal.Correction.Weighted>
   9.000000E+99

> <Gold.Protein.RotatedTorsions>
[ 6907 6896 6895 6894 ] final  113.91 input  -60.11 | X-H torsion
[ 7974 7965 7964 7962 ] final  102.37 input  175.53 | X-H torsion
[ 8008 7997 7996 7995 ] final -123.82 input   59.86 | X-H torsion
[ 10167 10162 10161 10158 ] final  -11.07 input  -65.29 | X-H torsion
[ 10718 10713 10712 10709 ] final -166.13 input   66.30 | X-H torsion
[ 10763 10752 10751 10750 ] final    2.69 input  -60.55 | X-H torsion
[ 11005 11000 10999 10996 ] final -110.59 input  -57.11 | X-H torsion

> <Gold.Protein.ActiveResidues>
 VAL166  LYS551  ARG553  GLY616  TRP617  ASP618  TYR619  PRO620  LYS621  CYS622 
 ASP623  PHE694  ASN695  SER759  ASP760  ASP761  ALA762  ILE779  LEU786  VAL792 
 PHE793  MET794  SER795  GLU796  ALA797  LYS798  CYS799  TRP800  GLU811  SER814 

> <Gold.Protein.RotatedAtoms>
  152.4833  133.8309  159.7102 H   0  0  0  0  0  0  0  0  0  0  0  0  # atno 6907 bound_to 6896
  150.8900  133.7247  159.2914 H   0  0  0  0  0  0  0  0  0  0  0  0  # atno 6908 bound_to 6896
  151.4723  135.1050  159.9807 H   0  0  0  0  0  0  0  0  0  0  0  0  # atno 6909 bound_to 6896
  145.3600  139.2420  143.3512 H   0  0  0  0  0  0  0  0  0  0  0  0  # atno 7974 bound_to 7965
  155.1868  140.0412  157.2893 H   0  0  0  0  0  0  0  0  0  0  0  0  # atno 8008 bound_to 7997
  154.6166  140.2490  155.7574 H   0  0  0  0  0  0  0  0  0  0  0  0  # atno 8009 bound_to 7997
  156.2410  140.2903  156.0453 H   0  0  0  0  0  0  0  0  0  0  0  0  # atno 8010 bound_to 7997
  140.7129  143.5679  150.9124 H   0  0  0  0  0  0  0  0  0  0  0  0  # atno 10167 bound_to 10162
  156.6634  130.9055  151.3032 H   0  0  0  0  0  0  0  0  0  0  0  0  # atno 10718 bound_to 10713
  153.2924  135.6949  153.7280 H   0  0  0  0  0  0  0  0  0  0  0  0  # atno 10763 bound_to 10752
  153.6226  135.3424  155.3016 H   0  0  0  0  0  0  0  0  0  0  0  0  # atno 10764 bound_to 10752
  154.8528  135.4390  154.2011 H   0  0  0  0  0  0  0  0  0  0  0  0  # atno 10765 bound_to 10752
  141.0783  133.9264  157.2343 H   0  0  0  0  0  0  0  0  0  0  0  0  # atno 11005 bound_to 11000
  146.2931  140.4232  142.8732 LP  0  0  0  0  0  0  0  0  0  0  0  0  # atno 17320 bound_to 7965
  144.8653  140.7197  143.6081 LP  0  0  0  0  0  0  0  0  0  0  0  0  # atno 17321 bound_to 7965
  139.9405  143.6388  152.3055 LP  0  0  0  0  0  0  0  0  0  0  0  0  # atno 17342 bound_to 10162
  139.6870  144.7650  151.1505 LP  0  0  0  0  0  0  0  0  0  0  0  0  # atno 17343 bound_to 10162
  157.7102  130.9431  150.1064 LP  0  0  0  0  0  0  0  0  0  0  0  0  # atno 17370 bound_to 10713
  156.1994  130.3659  149.8808 LP  0  0  0  0  0  0  0  0  0  0  0  0  # atno 17371 bound_to 10713
  139.9596  135.0157  156.9223 LP  0  0  0  0  0  0  0  0  0  0  0  0  # atno 17394 bound_to 11000
  140.5525  134.0613  155.7373 LP  0  0  0  0  0  0  0  0  0  0  0  0  # atno 17395 bound_to 11000

$$$$
