AV-unprocessed.smi:196|AV-procd|sdf|1540|dock9
  -GOLD-   2262019393D 1   1.00000     0.00000
 Structure written by MMmdl.
 47 50  0  0  0  0  0  0  0  0  1 V2000
  152.4912  138.6873  154.8038 C   0  0  0  0  0  0  0  0  0  0  0  0
  151.0496  138.4190  154.3444 C   0  0  2  0  0  0  0  0  0  0  0  0
  150.4411  139.6827  154.0890 O   0  0  0  0  0  0  0  0  0  0  0  0
  149.0574  139.5958  154.3799 C   0  0  0  0  0  0  0  0  0  0  0  0
  149.0400  138.7402  155.6371 C   0  0  0  0  0  0  0  0  0  0  0  0
  150.1157  137.6949  155.3557 C   0  0  1  0  0  0  0  0  0  0  0  0
  149.5018  136.6137  154.6731 O   0  0  0  0  0  0  0  0  0  0  0  0
  150.7871  137.1322  156.6367 C   0  0  0  0  0  0  0  0  0  0  0  0
  149.8344  136.7486  157.6681 N   0  0  0  0  0  0  0  0  0  0  0  0
  149.2390  137.5803  158.5910 C   0  0  0  0  0  0  0  0  0  0  0  0
  148.4180  136.9970  159.4217 N   0  0  0  0  0  0  0  0  0  0  0  0
  148.4465  135.6632  159.0371 C   0  0  0  0  0  0  0  0  0  0  0  0
  147.8072  134.4887  159.5105 C   0  0  0  0  0  0  0  0  0  0  0  0
  146.9430  134.5208  160.5505 N   0  0  0  0  0  0  0  0  0  0  0  0
  147.5514  134.2797  161.8554 C   0  0  0  0  0  0  0  0  0  0  0  0
  147.0035  135.3598  162.7896 C   0  0  1  0  0  0  0  0  0  0  0  0
  147.8351  136.4030  162.7974 F   0  0  0  0  0  0  0  0  0  0  0  0
  145.6898  135.7589  162.1269 C   0  0  0  0  0  0  0  0  0  0  0  0
  146.0048  135.6474  160.6285 C   0  0  2  0  0  0  0  0  0  0  0  0
  144.7259  135.4676  159.7891 C   0  0  0  0  0  0  0  0  0  0  0  0
  143.5392  135.4946  160.4054 N   0  0  0  0  0  0  0  0  0  0  0  0
  144.8147  135.2967  158.5753 O   0  0  0  0  0  0  0  0  0  0  0  0
  148.0695  133.3187  158.8721 N   0  0  0  0  0  0  0  0  0  0  0  0
  148.9157  133.2995  157.8378 C   0  0  0  0  0  0  0  0  0  0  0  0
  149.5902  134.3141  157.2913 N   0  0  0  0  0  0  0  0  0  0  0  0
  149.3244  135.4891  157.9315 C   0  0  0  0  0  0  0  0  0  0  0  0
  146.8878  135.0227  163.8198 H   0  0  0  0  0  0  0  0  0  0  0  0
  146.4898  136.5712  160.3087 H   0  0  0  0  0  0  0  0  0  0  0  0
  153.0262  137.7589  155.0039 H   0  0  0  0  0  0  0  0  0  0  0  0
  152.5164  139.2994  155.7056 H   0  0  0  0  0  0  0  0  0  0  0  0
  153.0454  139.2220  154.0322 H   0  0  0  0  0  0  0  0  0  0  0  0
  151.0861  137.8720  153.4003 H   0  0  0  0  0  0  0  0  0  0  0  0
  148.6151  140.5804  154.5317 H   0  0  0  0  0  0  0  0  0  0  0  0
  148.5359  139.1022  153.5585 H   0  0  0  0  0  0  0  0  0  0  0  0
  149.3338  139.3618  156.4836 H   0  0  0  0  0  0  0  0  0  0  0  0
  148.0588  138.3181  155.8588 H   0  0  0  0  0  0  0  0  0  0  0  0
  149.4953  136.8079  153.7484 H   0  0  0  0  0  0  0  0  0  0  0  0
  151.3953  136.2593  156.3961 H   0  0  0  0  0  0  0  0  0  0  0  0
  151.4635  137.8693  157.0700 H   0  0  0  0  0  0  0  0  0  0  0  0
  149.4399  138.6408  158.6327 H   0  0  0  0  0  0  0  0  0  0  0  0
  147.2301  133.2939  162.1929 H   0  0  0  0  0  0  0  0  0  0  0  0
  148.6432  134.2775  161.8376 H   0  0  0  0  0  0  0  0  0  0  0  0
  144.9089  135.0516  162.4126 H   0  0  0  0  0  0  0  0  0  0  0  0
  145.3587  136.7569  162.4169 H   0  0  0  0  0  0  0  0  0  0  0  0
  142.6913  135.3787  159.8688 H   0  0  0  0  0  0  0  0  0  0  0  0
  143.4954  135.6312  161.4048 H   0  0  0  0  0  0  0  0  0  0  0  0
  149.0750  132.3333  157.3825 H   0  0  0  0  0  0  0  0  0  0  0  0
  1  2  1  0  0  0  0
  1 29  1  0  0  0  0
  1 30  1  0  0  0  0
  1 31  1  0  0  0  0
  2  6  1  0  0  0  0
  2  3  1  0  0  0  0
  2 32  1  0  0  0  0
  3  4  1  0  0  0  0
  4  5  1  0  0  0  0
  4 33  1  0  0  0  0
  4 34  1  0  0  0  0
  5  6  1  0  0  0  0
  5 35  1  0  0  0  0
  5 36  1  0  0  0  0
  6  7  1  0  0  0  0
  6  8  1  0  0  0  0
  7 37  1  0  0  0  0
  8  9  1  0  0  0  0
  8 38  1  0  0  0  0
  8 39  1  0  0  0  0
  9 26  1  0  0  0  0
  9 10  1  0  0  0  0
 10 11  2  0  0  0  0
 10 40  1  0  0  0  0
 11 12  1  0  0  0  0
 12 26  2  0  0  0  0
 12 13  1  0  0  0  0
 13 14  1  0  0  0  0
 13 23  2  0  0  0  0
 14 19  1  0  0  0  0
 14 15  1  0  0  0  0
 15 16  1  0  0  0  0
 15 41  1  0  0  0  0
 15 42  1  0  0  0  0
 16 27  1  0  0  0  0
 16 17  1  0  0  0  0
 16 18  1  0  0  0  0
 18 19  1  0  0  0  0
 18 43  1  0  0  0  0
 18 44  1  0  0  0  0
 19 28  1  0  0  0  0
 19 20  1  0  0  0  0
 20 21  1  0  0  0  0
 20 22  2  0  0  0  0
 21 45  1  0  0  0  0
 21 46  1  0  0  0  0
 23 24  1  0  0  0  0
 24 25  2  0  0  0  0
 24 47  1  0  0  0  0
 25 26  1  0  0  0  0
M  END
> <s_m_source_file>
AV-unprocessed.smi

> <i_m_source_file_index>
196

> <i_lp_mmshare_version>
43012

> <i_f3d_flags>
0

> <s_epik_input>
W0NIMl0xW0NIMl1PW0NAQEhdKFtDSDNdKVtDQEBdMShbT0hdKVtDSDJdbihbY0hdbjIpYyhjMjMpbltjSF1uYzNONFtDSDJdW0NASF0oRilbQ0gyXVtDQEhdNEMoPU8pW05IMl0=

> <s_epik_cmdline>
J2VwaWtfcHl0aG9uJywgJy1waCcsICc3LjAnLCAnLXRuJywgJzgnLCAnLW1hJywgJzIwMCcsICctbWV0YWxfYmluZGluZycsICctaW1hZScsICc8aW5maWxlLm1hZT4nLCAnLW9tYWUnLCAnPG91dGZpbGUubWFlPic=

> <r_lp_tautomer_probability>
1

> <r_epik_Ionization_Penalty>
0.000857933

> <r_epik_Ionization_Penalty_Charging>
0

> <r_epik_Ionization_Penalty_Neutral>
0.000857933

> <r_epik_State_Penalty>
0.000462053

> <r_epik_Charging_Adjusted_Penalty>
0.000462053

> <i_epik_Tot_Q>
0

> <i_epik_Tot_abs_Q>
0

> <r_epik_Metal_State_Penalty>
-0

> <b_epik_Metal_Only>
0

> <s_lp_Force_Field>
OPLS_2005

> <r_lp_Energy>
46.05

> <b_lp_Chiralities_Consistent>
1

> <s_lp_Variant>
AV-unprocessed.smi:196-13

> <Gold.Version>
5.8.1

> <Gold.Id.Protein>
6NUR|6NUR_protein|mol2

> <Gold.PLP.Fitness>
37.1839

> <Gold.PLP.PLP>
-33.3476

> <Gold.PLP.part.hbond>
-2.0900

> <Gold.PLP.part.metal>
0.0000

> <Gold.PLP.part.buried>
-5.5992

> <Gold.PLP.part.nonpolar>
-25.4548

> <Gold.PLP.part.repulsive>
0.6178

> <Gold.PLP.ligand.clash>
0.0000

> <Gold.PLP.ligand.torsion>
1.1040

> <Gold.PLP.Chemscore.Hbond>
1.9600

> <Gold.PLP.Chemscore.CHOScore>
0.0000

> <Gold.PLP.Chemscore.Metal>
0.0000

> <Gold.Chemscore.Hbonds>
donor molecule, donor type, donor heavy atom, donor atom, acceptor molecule, acceptor atom, score
      L1  H     7    37       P1  7948  0.98
      P1  H  7989  7998       L1     3  1.00

> <Gold.PLP.Chemscore.Internal.Correction>
0.1643

> <Gold.Rescore>
     Score         DG    S(hbond)    S(metal)    S(lipo)     H(rot)  DE(clash)    DE(int)     intcor
     10.30     -11.18       1.79        0.00      64.24       3.04       0.00       0.87       ----

> <Gold.Chemscore.Fitness>
10.3007

> <Gold.Chemscore.DG>
-11.1772

> <Gold.Chemscore.ZeroCoef>
-5.4800

> <Gold.Chemscore.Hbond>
1.7863

> <Gold.Chemscore.Metal>
0.0000

> <Gold.Chemscore.Lipo>
64.2442

> <Gold.Chemscore.Internal_Hbond>
0.0000

> <Gold.Chemscore.DEClash>
0.0043

> <Gold.Chemscore.DEInternal>
0.8722

> <Gold.Chemscore.Rot>
3.0413

> <Gold.Chemscore.Internal.Correction>
   9.000000E+99

> <Gold.Chemscore.Hbonds>
donor molecule, donor type, donor heavy atom, donor atom, acceptor molecule, acceptor atom, score
      L1  H     7    37       P1  7948  0.77
      P1  H  7989  7998       L1     3  0.78

> <Gold.Chemscore.Hbond.Weighted>
-5.9662

> <Gold.Chemscore.Metal.Weighted>
-0.0000

> <Gold.Chemscore.Lipo.Weighted>
-7.5166

> <Gold.Chemscore.Internal_Hbond.Weighted>
0.0000

> <Gold.Chemscore.DEClash.Weighted>
0.0043

> <Gold.Chemscore.DEInternal.Weighted>
0.8722

> <Gold.Chemscore.Rot.Weighted>
7.7856

> <Gold.Chemscore.Internal.Correction.Weighted>
   9.000000E+99

> <Gold.Protein.RotatedTorsions>
[ 6907 6896 6895 6894 ] final -126.77 input  -60.11 | X-H torsion
[ 7974 7965 7964 7962 ] final   98.76 input  175.53 | X-H torsion
[ 8008 7997 7996 7995 ] final -125.02 input   59.86 | X-H torsion
[ 10167 10162 10161 10158 ] final  120.10 input  -65.29 | X-H torsion
[ 10718 10713 10712 10709 ] final -145.36 input   66.30 | X-H torsion
[ 10763 10752 10751 10750 ] final  -35.79 input  -60.55 | X-H torsion
[ 11005 11000 10999 10996 ] final   52.93 input  -57.11 | X-H torsion

> <Gold.Protein.ActiveResidues>
 VAL166  LYS551  ARG553  GLY616  TRP617  ASP618  TYR619  PRO620  LYS621  CYS622 
 ASP623  PHE694  ASN695  SER759  ASP760  ASP761  ALA762  ILE779  LEU786  VAL792 
 PHE793  MET794  SER795  GLU796  ALA797  LYS798  CYS799  TRP800  GLU811  SER814 

> <Gold.Protein.RotatedAtoms>
  150.9003  133.7127  159.2880 H   0  0  0  0  0  0  0  0  0  0  0  0  # atno 6907 bound_to 6896
  151.4648  135.1040  159.9744 H   0  0  0  0  0  0  0  0  0  0  0  0  # atno 6908 bound_to 6896
  152.4873  133.8357  159.7182 H   0  0  0  0  0  0  0  0  0  0  0  0  # atno 6909 bound_to 6896
  145.4079  139.2338  143.3264 H   0  0  0  0  0  0  0  0  0  0  0  0  # atno 7974 bound_to 7965
  155.2063  140.0417  157.2926 H   0  0  0  0  0  0  0  0  0  0  0  0  # atno 8008 bound_to 7997
  154.6041  140.2459  155.7725 H   0  0  0  0  0  0  0  0  0  0  0  0  # atno 8009 bound_to 7997
  156.2339  140.2928  156.0270 H   0  0  0  0  0  0  0  0  0  0  0  0  # atno 8010 bound_to 7997
  139.6003  144.7055  151.3078 H   0  0  0  0  0  0  0  0  0  0  0  0  # atno 10167 bound_to 10162
  156.3815  130.7839  151.2032 H   0  0  0  0  0  0  0  0  0  0  0  0  # atno 10718 bound_to 10713
  153.8690  135.6833  153.4776 H   0  0  0  0  0  0  0  0  0  0  0  0  # atno 10763 bound_to 10752
  153.1298  135.4703  154.9328 H   0  0  0  0  0  0  0  0  0  0  0  0  # atno 10764 bound_to 10752
  154.7723  135.3242  154.8114 H   0  0  0  0  0  0  0  0  0  0  0  0  # atno 10765 bound_to 10752
  140.0809  134.5340  155.8948 H   0  0  0  0  0  0  0  0  0  0  0  0  # atno 11005 bound_to 11000
  146.2719  140.4786  142.8811 LP  0  0  0  0  0  0  0  0  0  0  0  0  # atno 17320 bound_to 7965
  144.8329  140.6736  143.6279 LP  0  0  0  0  0  0  0  0  0  0  0  0  # atno 17321 bound_to 7965
  140.7244  143.7044  150.7819 LP  0  0  0  0  0  0  0  0  0  0  0  0  # atno 17342 bound_to 10162
  140.0619  143.5146  152.2623 LP  0  0  0  0  0  0  0  0  0  0  0  0  # atno 17343 bound_to 10162
  157.7492  131.0343  150.4309 LP  0  0  0  0  0  0  0  0  0  0  0  0  # atno 17370 bound_to 10713
  156.4554  130.4020  149.6609 LP  0  0  0  0  0  0  0  0  0  0  0  0  # atno 17371 bound_to 10713
  141.2046  133.6640  156.6131 LP  0  0  0  0  0  0  0  0  0  0  0  0  # atno 17394 bound_to 11000
  140.3490  134.7785  157.4453 LP  0  0  0  0  0  0  0  0  0  0  0  0  # atno 17395 bound_to 11000

$$$$
