AV-unprocessed.smi:2001|AV-procd|sdf|8105|dock7
  -GOLD-   2272010333D 1   1.00000     0.00000
 Structure written by MMmdl.
 51 52  0  0  0  0  0  0  0  0  2 V2000
  152.2939  144.7906  158.7442 C   0  0  0  0  0  0  0  0  0  0  0  0
  151.3775  143.7203  158.8931 O   0  0  0  0  0  0  0  0  0  0  0  0
  151.7013  142.6099  158.0738 C   0  0  0  0  0  0  0  0  0  0  0  0
  150.5345  141.6113  158.1081 C   0  0  0  0  0  0  0  0  0  0  0  0
  150.4833  140.7989  156.8885 N   0  0  0  0  0  0  0  0  0  0  0  0
  149.2918  140.9033  156.1899 N   0  0  0  0  0  0  0  0  0  0  0  0
  149.1182  140.2326  155.0969 C   0  0  0  0  0  0  0  0  0  0  0  0
  147.8491  140.3112  154.3208 C   0  0  0  0  0  0  0  0  0  0  0  0
  147.0971  141.2842  154.3967 O   0  0  0  0  0  0  0  0  0  0  0  0
  147.5875  139.2529  153.5340 N   0  0  0  0  0  0  0  0  0  0  0  0
  146.4179  139.1302  152.6749 C   0  0  0  0  0  0  0  0  0  0  0  0
  146.5180  137.8637  151.8089 C   0  0  0  0  0  0  0  0  0  0  0  0
  145.2806  137.0439  151.8439 N   0  3  1  0  0  0  0  0  0  0  0  0
  145.4795  135.7065  151.2365 C   0  0  0  0  0  0  0  0  0  0  0  0
  144.1624  134.9078  151.2339 C   0  0  1  0  0  0  0  0  0  0  0  0
  144.3502  133.4873  150.6900 C   0  0  0  0  0  0  0  0  0  0  0  0
  143.6760  134.8104  152.5677 O   0  0  0  0  0  0  0  0  0  0  0  0
  143.3904  136.0815  153.1405 C   0  0  1  0  0  0  0  0  0  0  0  0
  142.7858  135.8538  154.5305 C   0  0  0  0  0  0  0  0  0  0  0  0
  144.6879  136.9105  153.1980 C   0  0  0  0  0  0  0  0  0  0  0  0
  150.1646  139.3663  154.5812 C   0  0  0  0  0  0  0  0  0  0  0  0
  151.3236  139.2800  155.2701 C   0  0  0  0  0  0  0  0  0  0  0  0
  151.5465  140.0278  156.5084 C   0  0  0  0  0  0  0  0  0  0  0  0
  152.5954  139.9715  157.1493 O   0  0  0  0  0  0  0  0  0  0  0  0
  151.9996  145.6171  159.3909 H   0  0  0  0  0  0  0  0  0  0  0  0
  152.3105  145.1565  157.7169 H   0  0  0  0  0  0  0  0  0  0  0  0
  153.3035  144.4874  159.0242 H   0  0  0  0  0  0  0  0  0  0  0  0
  151.8795  142.9438  157.0501 H   0  0  0  0  0  0  0  0  0  0  0  0
  152.6177  142.1379  158.4320 H   0  0  0  0  0  0  0  0  0  0  0  0
  150.6150  140.9719  158.9891 H   0  0  0  0  0  0  0  0  0  0  0  0
  149.5964  142.1557  158.2312 H   0  0  0  0  0  0  0  0  0  0  0  0
  148.2520  138.4919  153.5256 H   0  0  0  0  0  0  0  0  0  0  0  0
  145.5240  139.1032  153.2986 H   0  0  0  0  0  0  0  0  0  0  0  0
  146.3467  140.0165  152.0428 H   0  0  0  0  0  0  0  0  0  0  0  0
  146.7080  138.1709  150.7793 H   0  0  0  0  0  0  0  0  0  0  0  0
  147.3715  137.2551  152.1124 H   0  0  0  0  0  0  0  0  0  0  0  0
  145.8424  135.8171  150.2137 H   0  0  0  0  0  0  0  0  0  0  0  0
  146.2476  135.1660  151.7924 H   0  0  0  0  0  0  0  0  0  0  0  0
  143.4215  135.4201  150.6175 H   0  0  0  0  0  0  0  0  0  0  0  0
  144.7212  133.5051  149.6651 H   0  0  0  0  0  0  0  0  0  0  0  0
  143.4063  132.9414  150.6923 H   0  0  0  0  0  0  0  0  0  0  0  0
  145.0617  132.9236  151.2942 H   0  0  0  0  0  0  0  0  0  0  0  0
  142.6524  136.5964  152.5226 H   0  0  0  0  0  0  0  0  0  0  0  0
  142.5402  136.8004  155.0126 H   0  0  0  0  0  0  0  0  0  0  0  0
  143.4779  135.3169  155.1799 H   0  0  0  0  0  0  0  0  0  0  0  0
  141.8690  135.2676  154.4652 H   0  0  0  0  0  0  0  0  0  0  0  0
  145.4088  136.4362  153.8662 H   0  0  0  0  0  0  0  0  0  0  0  0
  144.4644  137.8923  153.6137 H   0  0  0  0  0  0  0  0  0  0  0  0
  150.0281  138.8030  153.6695 H   0  0  0  0  0  0  0  0  0  0  0  0
  152.1105  138.6405  154.8976 H   0  0  0  0  0  0  0  0  0  0  0  0
  144.6000  137.5190  151.2681 H   0  0  0  0  0  0  0  0  0  0  0  0
  1  2  1  0  0  0  0
  1 25  1  0  0  0  0
  1 26  1  0  0  0  0
  1 27  1  0  0  0  0
  2  3  1  0  0  0  0
  3  4  1  0  0  0  0
  3 28  1  0  0  0  0
  3 29  1  0  0  0  0
  4  5  1  0  0  0  0
  4 30  1  0  0  0  0
  4 31  1  0  0  0  0
  5 23  1  0  0  0  0
  5  6  1  0  0  0  0
  6  7  2  0  0  0  0
  7  8  1  0  0  0  0
  7 21  1  0  0  0  0
  8  9  2  0  0  0  0
  8 10  1  0  0  0  0
 10 11  1  0  0  0  0
 10 32  1  0  0  0  0
 11 12  1  0  0  0  0
 11 33  1  0  0  0  0
 11 34  1  0  0  0  0
 12 13  1  0  0  0  0
 12 35  1  0  0  0  0
 12 36  1  0  0  0  0
 13 20  1  0  0  0  0
 13 14  1  0  0  0  0
 13 51  1  0  0  0  0
 14 15  1  0  0  0  0
 14 37  1  0  0  0  0
 14 38  1  0  0  0  0
 15 16  1  0  0  0  0
 15 17  1  0  0  0  0
 15 39  1  0  0  0  0
 16 40  1  0  0  0  0
 16 41  1  0  0  0  0
 16 42  1  0  0  0  0
 17 18  1  0  0  0  0
 18 19  1  0  0  0  0
 18 20  1  0  0  0  0
 18 43  1  0  0  0  0
 19 44  1  0  0  0  0
 19 45  1  0  0  0  0
 19 46  1  0  0  0  0
 20 47  1  0  0  0  0
 20 48  1  0  0  0  0
 21 22  2  0  0  0  0
 21 49  1  0  0  0  0
 22 23  1  0  0  0  0
 22 50  1  0  0  0  0
 23 24  2  0  0  0  0
M  CHG  1  13   1
M  END
> <s_m_source_file>
AV-unprocessed.smi

> <i_m_source_file_index>
2001

> <i_lp_mmshare_version>
43012

> <i_f3d_flags>
0

> <s_epik_input>
W0NIM11PW0NIMl1bQ0gyXW4xbmMoW2NIXVtjSF1jMT1PKUMoPU8pW05IXVtDSDJdW0NIMl1OMltDSDJdW0NAQEhdKFtDSDNdKU9bQ0BASF0oW0NIM10pW0NIMl0y

> <s_epik_cmdline>
J2VwaWtfcHl0aG9uJywgJy1waCcsICc3LjAnLCAnLXRuJywgJzgnLCAnLW1hJywgJzIwMCcsICctbWV0YWxfYmluZGluZycsICctaW1hZScsICc8aW5maWxlLm1hZT4nLCAnLW9tYWUnLCAnPG91dGZpbGUubWFlPic=

> <r_lp_tautomer_probability>
1

> <r_epik_Ionization_Penalty>
0.724354

> <r_epik_Ionization_Penalty_Charging>
0.724348

> <r_epik_Ionization_Penalty_Neutral>
6.1656e-06

> <r_epik_State_Penalty>
0.749058

> <r_epik_Charging_Adjusted_Penalty>
1.47341

> <i_epik_Tot_Q>
1

> <i_epik_Tot_abs_Q>
1

> <r_epik_Metal_State_Penalty>
0.750779

> <b_epik_Metal_Only>
0

> <s_lp_Force_Field>
OPLS_2005

> <r_lp_Energy>
35.6345

> <b_lp_Chiralities_Consistent>
1

> <s_lp_Variant>
AV-unprocessed.smi:2001-4

> <Gold.Version>
5.8.1

> <Gold.Id.Protein>
6NUR|6NUR_protein|mol2

> <Gold.PLP.Fitness>
49.6858

> <Gold.PLP.PLP>
-45.1571

> <Gold.PLP.part.hbond>
-3.0000

> <Gold.PLP.part.metal>
0.0000

> <Gold.PLP.part.buried>
-2.2155

> <Gold.PLP.part.nonpolar>
-40.9362

> <Gold.PLP.part.repulsive>
0.6037

> <Gold.PLP.ligand.clash>
0.0000

> <Gold.PLP.ligand.torsion>
0.8965

> <Gold.PLP.Chemscore.Hbond>
2.0000

> <Gold.PLP.Chemscore.CHOScore>
0.0000

> <Gold.PLP.Chemscore.Metal>
0.0000

> <Gold.Chemscore.Hbonds>
donor molecule, donor type, donor heavy atom, donor atom, acceptor molecule, acceptor atom, score
      L1  H    13    51       P1 10171  1.00
      P1  H  7997  8008       L1    24  1.00

> <Gold.PLP.Chemscore.Internal.Correction>
0.3217

> <Gold.Rescore>
     Score         DG    S(hbond)    S(metal)    S(lipo)     H(rot)  DE(clash)    DE(int)     intcor
     15.06     -18.53       2.00        0.00      99.92       2.07       1.07       2.40       ----

> <Gold.Chemscore.Fitness>
15.0603

> <Gold.Chemscore.DG>
-18.5333

> <Gold.Chemscore.ZeroCoef>
-5.4800

> <Gold.Chemscore.Hbond>
1.9962

> <Gold.Chemscore.Metal>
0.0000

> <Gold.Chemscore.Lipo>
99.9205

> <Gold.Chemscore.Internal_Hbond>
0.0000

> <Gold.Chemscore.DEClash>
1.0729

> <Gold.Chemscore.DEInternal>
2.4001

> <Gold.Chemscore.Rot>
2.0721

> <Gold.Chemscore.Internal.Correction>
   9.000000E+99

> <Gold.Chemscore.Hbonds>
donor molecule, donor type, donor heavy atom, donor atom, acceptor molecule, acceptor atom, score
      L1  H    13    51       P1 10171  0.98
      P1  H  7997  8008       L1    24  0.99

> <Gold.Chemscore.Hbond.Weighted>
-6.6673

> <Gold.Chemscore.Metal.Weighted>
-0.0000

> <Gold.Chemscore.Lipo.Weighted>
-11.6907

> <Gold.Chemscore.Internal_Hbond.Weighted>
0.0000

> <Gold.Chemscore.DEClash.Weighted>
1.0729

> <Gold.Chemscore.DEInternal.Weighted>
2.4001

> <Gold.Chemscore.Rot.Weighted>
5.3047

> <Gold.Chemscore.Internal.Correction.Weighted>
   9.000000E+99

> <Gold.Protein.RotatedTorsions>
[ 6907 6896 6895 6894 ] final   31.51 input  -60.11 | X-H torsion
[ 7974 7965 7964 7962 ] final   13.92 input  175.53 | X-H torsion
[ 8008 7997 7996 7995 ] final  -62.48 input   59.86 | X-H torsion
[ 10167 10162 10161 10158 ] final  -99.58 input  -65.29 | X-H torsion
[ 10718 10713 10712 10709 ] final -124.88 input   66.30 | X-H torsion
[ 10763 10752 10751 10750 ] final  137.92 input  -60.55 | X-H torsion
[ 11005 11000 10999 10996 ] final  -84.30 input  -57.11 | X-H torsion

> <Gold.Protein.ActiveResidues>
 VAL166  LYS551  ARG553  GLY616  TRP617  ASP618  TYR619  PRO620  LYS621  CYS622 
 ASP623  PHE694  ASN695  SER759  ASP760  ASP761  ALA762  ILE779  LEU786  VAL792 
 PHE793  MET794  SER795  GLU796  ALA797  LYS798  CYS799  TRP800  GLU811  SER814 

> <Gold.Protein.RotatedAtoms>
  152.0613  134.9592  160.0574 H   0  0  0  0  0  0  0  0  0  0  0  0  # atno 6907 bound_to 6896
  152.0955  133.4217  159.4571 H   0  0  0  0  0  0  0  0  0  0  0  0  # atno 6908 bound_to 6896
  150.6838  134.2741  159.4643 H   0  0  0  0  0  0  0  0  0  0  0  0  # atno 6909 bound_to 6896
  146.2318  139.9117  142.8523 H   0  0  0  0  0  0  0  0  0  0  0  0  # atno 7974 bound_to 7965
  154.4502  140.0995  156.6594 H   0  0  0  0  0  0  0  0  0  0  0  0  # atno 8008 bound_to 7997
  155.5310  140.3481  155.4408 H   0  0  0  0  0  0  0  0  0  0  0  0  # atno 8009 bound_to 7997
  156.0664  140.1339  156.9869 H   0  0  0  0  0  0  0  0  0  0  0  0  # atno 8010 bound_to 7997
  140.2609  143.3408  152.0626 H   0  0  0  0  0  0  0  0  0  0  0  0  # atno 10167 bound_to 10162
  156.1626  130.6612  151.0071 H   0  0  0  0  0  0  0  0  0  0  0  0  # atno 10718 bound_to 10713
  153.8810  135.3044  155.3445 H   0  0  0  0  0  0  0  0  0  0  0  0  # atno 10763 bound_to 10752
  154.7761  135.4860  153.9751 H   0  0  0  0  0  0  0  0  0  0  0  0  # atno 10764 bound_to 10752
  153.1351  135.6812  153.9212 H   0  0  0  0  0  0  0  0  0  0  0  0  # atno 10765 bound_to 10752
  141.1651  133.7339  156.8847 H   0  0  0  0  0  0  0  0  0  0  0  0  # atno 11005 bound_to 11000
  145.2223  140.9940  143.4038 LP  0  0  0  0  0  0  0  0  0  0  0  0  # atno 17320 bound_to 7965
  144.9600  139.3990  143.6360 LP  0  0  0  0  0  0  0  0  0  0  0  0  # atno 17321 bound_to 7965
  139.5017  144.6719  151.6222 LP  0  0  0  0  0  0  0  0  0  0  0  0  # atno 17342 bound_to 10162
  140.5966  143.9684  150.6359 LP  0  0  0  0  0  0  0  0  0  0  0  0  # atno 17343 bound_to 10162
  157.6744  131.0854  150.7531 LP  0  0  0  0  0  0  0  0  0  0  0  0  # atno 17370 bound_to 10713
  156.7594  130.4793  149.5440 LP  0  0  0  0  0  0  0  0  0  0  0  0  # atno 17371 bound_to 10713
  140.1690  134.9113  157.2810 LP  0  0  0  0  0  0  0  0  0  0  0  0  # atno 17394 bound_to 11000
  140.2524  134.3668  155.7437 LP  0  0  0  0  0  0  0  0  0  0  0  0  # atno 17395 bound_to 11000

$$$$
