AV-unprocessed.smi:2027|AV-procd|sdf|8217|dock3
  -GOLD-   2272010483D 1   1.00000     0.00000
 Structure written by MMmdl.
 51 53  0  0  0  0  0  0  0  0  3 V2000
  153.0090  142.9101  160.6326 C   0  0  0  0  0  0  0  0  0  0  0  0
  152.1340  142.3899  159.5050 C   0  0  0  0  0  0  0  0  0  0  0  0
  151.8414  141.0079  159.4610 C   0  0  0  0  0  0  0  0  0  0  0  0
  151.0367  140.5628  158.4190 C   0  0  0  0  0  0  0  0  0  0  0  0
  150.5693  139.2849  158.1040 N   0  3  0  0  0  0  0  0  0  0  0  0
  149.8018  139.3453  156.9805 C   0  0  0  0  0  0  0  0  0  0  0  0
  149.7822  140.6421  156.5669 N   0  0  0  0  0  0  0  0  0  0  0  0
  149.1020  141.2601  155.4220 C   0  0  0  0  0  0  0  0  0  0  0  0
  148.4633  140.2342  154.4634 C   0  0  2  0  0  0  0  0  0  0  0  0
  149.4759  139.7796  153.5890 O   0  0  0  0  0  0  0  0  0  0  0  0
  147.3027  140.8064  153.6237 C   0  0  0  0  0  0  0  0  0  0  0  0
  146.4590  139.7258  153.0465 N   0  3  1  0  0  0  0  0  0  0  0  0
  146.8963  139.3263  151.6886 C   0  0  0  0  0  0  0  0  0  0  0  0
  146.2912  138.5553  153.9436 C   0  0  0  0  0  0  0  0  0  0  0  0
  145.5353  137.4476  153.2591 C   0  0  0  0  0  0  0  0  0  0  0  0
  144.1779  137.4496  152.8273 C   0  0  0  0  0  0  0  0  0  0  0  0
  143.8240  136.3201  152.2381 N   0  0  0  0  0  0  0  0  0  0  0  0
  144.9333  135.5550  152.2834 N   0  0  0  0  0  0  0  0  0  0  0  0
  144.9052  134.2241  151.7158 C   0  0  0  0  0  0  0  0  0  0  0  0
  145.9801  136.2068  152.8981 C   0  0  0  0  0  0  0  0  0  0  0  0
  150.5297  141.4393  157.4403 C   0  0  0  0  0  0  0  0  0  0  0  0
  150.8047  142.8042  157.4706 C   0  0  0  0  0  0  0  0  0  0  0  0
  151.6212  143.2765  158.5228 C   0  0  0  0  0  0  0  0  0  0  0  0
  151.9381  144.7612  158.5830 C   0  0  0  0  0  0  0  0  0  0  0  0
  153.3385  142.1029  161.2873 H   0  0  0  0  0  0  0  0  0  0  0  0
  152.4604  143.6294  161.2408 H   0  0  0  0  0  0  0  0  0  0  0  0
  153.8982  143.3989  160.2344 H   0  0  0  0  0  0  0  0  0  0  0  0
  152.2247  140.3281  160.2082 H   0  0  0  0  0  0  0  0  0  0  0  0
  149.3007  138.5145  156.5048 H   0  0  0  0  0  0  0  0  0  0  0  0
  148.3391  141.9301  155.8215 H   0  0  0  0  0  0  0  0  0  0  0  0
  149.8233  141.8892  154.8979 H   0  0  0  0  0  0  0  0  0  0  0  0
  148.1167  139.3774  155.0400 H   0  0  0  0  0  0  0  0  0  0  0  0
  149.3480  138.8568  153.4273 H   0  0  0  0  0  0  0  0  0  0  0  0
  146.6709  141.4647  154.2210 H   0  0  0  0  0  0  0  0  0  0  0  0
  147.7249  141.4369  152.8413 H   0  0  0  0  0  0  0  0  0  0  0  0
  147.8761  138.8481  151.7190 H   0  0  0  0  0  0  0  0  0  0  0  0
  146.9581  140.1868  151.0226 H   0  0  0  0  0  0  0  0  0  0  0  0
  146.1887  138.6238  151.2470 H   0  0  0  0  0  0  0  0  0  0  0  0
  147.2745  138.1915  154.2447 H   0  0  0  0  0  0  0  0  0  0  0  0
  145.7951  138.8736  154.8616 H   0  0  0  0  0  0  0  0  0  0  0  0
  143.4461  138.2391  152.9159 H   0  0  0  0  0  0  0  0  0  0  0  0
  145.8516  133.7163  151.9040 H   0  0  0  0  0  0  0  0  0  0  0  0
  144.7441  134.2862  150.6392 H   0  0  0  0  0  0  0  0  0  0  0  0
  144.0979  133.6459  152.1665 H   0  0  0  0  0  0  0  0  0  0  0  0
  146.9476  135.7421  153.0186 H   0  0  0  0  0  0  0  0  0  0  0  0
  150.4104  143.4801  156.7259 H   0  0  0  0  0  0  0  0  0  0  0  0
  151.4788  145.3017  157.7550 H   0  0  0  0  0  0  0  0  0  0  0  0
  153.0143  144.9273  158.5314 H   0  0  0  0  0  0  0  0  0  0  0  0
  151.5646  145.1945  159.5110 H   0  0  0  0  0  0  0  0  0  0  0  0
  145.5341  140.1198  152.9427 H   0  0  0  0  0  0  0  0  0  0  0  0
  150.7523  138.4341  158.6211 H   0  0  0  0  0  0  0  0  0  0  0  0
  1  2  1  0  0  0  0
  1 25  1  0  0  0  0
  1 26  1  0  0  0  0
  1 27  1  0  0  0  0
  2 23  1  0  0  0  0
  2  3  2  0  0  0  0
  3  4  1  0  0  0  0
  3 28  1  0  0  0  0
  4 21  2  0  0  0  0
  4  5  1  0  0  0  0
  5  6  2  0  0  0  0
  5 51  1  0  0  0  0
  6  7  1  0  0  0  0
  6 29  1  0  0  0  0
  7  8  1  0  0  0  0
  7 21  1  0  0  0  0
  8  9  1  0  0  0  0
  8 30  1  0  0  0  0
  8 31  1  0  0  0  0
  9 10  1  0  0  0  0
  9 11  1  0  0  0  0
  9 32  1  0  0  0  0
 10 33  1  0  0  0  0
 11 12  1  0  0  0  0
 11 34  1  0  0  0  0
 11 35  1  0  0  0  0
 12 13  1  0  0  0  0
 12 14  1  0  0  0  0
 12 50  1  0  0  0  0
 13 36  1  0  0  0  0
 13 37  1  0  0  0  0
 13 38  1  0  0  0  0
 14 15  1  0  0  0  0
 14 39  1  0  0  0  0
 14 40  1  0  0  0  0
 15 20  2  0  0  0  0
 15 16  1  0  0  0  0
 16 17  2  0  0  0  0
 16 41  1  0  0  0  0
 17 18  1  0  0  0  0
 18 19  1  0  0  0  0
 18 20  1  0  0  0  0
 19 42  1  0  0  0  0
 19 43  1  0  0  0  0
 19 44  1  0  0  0  0
 20 45  1  0  0  0  0
 21 22  1  0  0  0  0
 22 23  2  0  0  0  0
 22 46  1  0  0  0  0
 23 24  1  0  0  0  0
 24 47  1  0  0  0  0
 24 48  1  0  0  0  0
 24 49  1  0  0  0  0
M  CHG  1   5   1
M  CHG  1  12   1
M  END
> <s_m_source_file>
AV-unprocessed.smi

> <i_m_source_file_index>
2027

> <i_lp_mmshare_version>
43012

> <i_f3d_flags>
0

> <s_epik_input>
W0NIM11jKFtjSF0xKWMoW0NIM10pW2NIXWMoYzEyKW4oW2NIXW4yKVtDSDJdW0NASF0oW09IXSlbQ0gyXU4oW0NIM10pW0NIMl1jM1tjSF1ubihbQ0gzXSlbY0hdMw==

> <s_epik_cmdline>
J2VwaWtfcHl0aG9uJywgJy1waCcsICc3LjAnLCAnLXRuJywgJzgnLCAnLW1hJywgJzIwMCcsICctbWV0YWxfYmluZGluZycsICctaW1hZScsICc8aW5maWxlLm1hZT4nLCAnLW9tYWUnLCAnPG91dGZpbGUubWFlPic=

> <r_lp_tautomer_probability>
1

> <r_epik_Ionization_Penalty>
1.77469

> <r_epik_Ionization_Penalty_Charging>
1.77463

> <r_epik_Ionization_Penalty_Neutral>
6.41153e-05

> <r_epik_State_Penalty>
1.85225

> <r_epik_Charging_Adjusted_Penalty>
3.62688

> <i_epik_Tot_Q>
2

> <i_epik_Tot_abs_Q>
2

> <r_epik_Metal_State_Penalty>
1.92669

> <b_epik_Metal_Only>
0

> <s_lp_Force_Field>
OPLS_2005

> <r_lp_Energy>
21.1473

> <b_lp_Chiralities_Consistent>
1

> <s_lp_Variant>
AV-unprocessed.smi:2027-9

> <Gold.Version>
5.8.1

> <Gold.Id.Protein>
6NUR|6NUR_protein|mol2

> <Gold.PLP.Fitness>
54.6815

> <Gold.PLP.PLP>
-43.8218

> <Gold.PLP.part.hbond>
-2.0057

> <Gold.PLP.part.metal>
0.0000

> <Gold.PLP.part.buried>
-2.3222

> <Gold.PLP.part.nonpolar>
-40.3328

> <Gold.PLP.part.repulsive>
0.2508

> <Gold.PLP.ligand.clash>
0.0000

> <Gold.PLP.ligand.torsion>
0.8833

> <Gold.PLP.Chemscore.Hbond>
2.1352

> <Gold.PLP.Chemscore.CHOScore>
1.9894

> <Gold.PLP.Chemscore.Metal>
0.0000

> <Gold.Chemscore.Hbonds>
donor molecule, donor type, donor heavy atom, donor atom, acceptor molecule, acceptor atom, score
      L1  H    12    50       P1 10175  2.00
      P1  H  7989  7998       L1    10  0.07
      L1  C    16    41       P1 10175  1.00
      L1  C    20    45       P1  7948  0.96

> <Gold.PLP.Chemscore.Internal.Correction>
0.2525

> <Gold.Rescore>
     Score         DG    S(hbond)    S(metal)    S(lipo)     H(rot)  DE(clash)    DE(int)     intcor
     15.96     -17.19       1.08        0.00     125.86       2.58       0.17       1.05       ----

> <Gold.Chemscore.Fitness>
15.9626

> <Gold.Chemscore.DG>
-17.1899

> <Gold.Chemscore.ZeroCoef>
-5.4800

> <Gold.Chemscore.Hbond>
1.0774

> <Gold.Chemscore.Metal>
0.0000

> <Gold.Chemscore.Lipo>
125.8574

> <Gold.Chemscore.Internal_Hbond>
0.0000

> <Gold.Chemscore.DEClash>
0.1747

> <Gold.Chemscore.DEInternal>
1.0525

> <Gold.Chemscore.Rot>
2.5836

> <Gold.Chemscore.Internal.Correction>
   9.000000E+99

> <Gold.Chemscore.Hbonds>
donor molecule, donor type, donor heavy atom, donor atom, acceptor molecule, acceptor atom, score
      L1  H    12    50       P1 10175  0.98
      P1  H  7989  7998       L1    10  0.09

> <Gold.Chemscore.Hbond.Weighted>
-3.5985

> <Gold.Chemscore.Metal.Weighted>
-0.0000

> <Gold.Chemscore.Lipo.Weighted>
-14.7253

> <Gold.Chemscore.Internal_Hbond.Weighted>
0.0000

> <Gold.Chemscore.DEClash.Weighted>
0.1747

> <Gold.Chemscore.DEInternal.Weighted>
1.0525

> <Gold.Chemscore.Rot.Weighted>
6.6139

> <Gold.Chemscore.Internal.Correction.Weighted>
   9.000000E+99

> <Gold.Protein.RotatedTorsions>
[ 6907 6896 6895 6894 ] final  -34.60 input  -60.11 | X-H torsion
[ 7974 7965 7964 7962 ] final   44.76 input  175.53 | X-H torsion
[ 8008 7997 7996 7995 ] final -175.58 input   59.86 | X-H torsion
[ 10167 10162 10161 10158 ] final  102.81 input  -65.29 | X-H torsion
[ 10718 10713 10712 10709 ] final  136.30 input   66.30 | X-H torsion
[ 10763 10752 10751 10750 ] final -158.72 input  -60.55 | X-H torsion
[ 11005 11000 10999 10996 ] final  -39.64 input  -57.11 | X-H torsion

> <Gold.Protein.ActiveResidues>
 VAL166  LYS551  ARG553  GLY616  TRP617  ASP618  TYR619  PRO620  LYS621  CYS622 
 ASP623  PHE694  ASN695  SER759  ASP760  ASP761  ALA762  ILE779  LEU786  VAL792 
 PHE793  MET794  SER795  GLU796  ALA797  LYS798  CYS799  TRP800  GLU811  SER814 

> <Gold.Protein.RotatedAtoms>
  151.0505  134.9669  159.8208 H   0  0  0  0  0  0  0  0  0  0  0  0  # atno 6907 bound_to 6896
  152.5380  134.2543  159.8921 H   0  0  0  0  0  0  0  0  0  0  0  0  # atno 6908 bound_to 6896
  151.2559  133.4283  159.2647 H   0  0  0  0  0  0  0  0  0  0  0  0  # atno 6909 bound_to 6896
  146.0540  139.5039  142.9700 H   0  0  0  0  0  0  0  0  0  0  0  0  # atno 7974 bound_to 7965
  155.9843  140.1188  157.0698 H   0  0  0  0  0  0  0  0  0  0  0  0  # atno 8008 bound_to 7997
  154.4192  140.1138  156.5546 H   0  0  0  0  0  0  0  0  0  0  0  0  # atno 8009 bound_to 7997
  155.6429  140.3473  155.4723 H   0  0  0  0  0  0  0  0  0  0  0  0  # atno 8010 bound_to 7997
  139.7317  144.7034  151.0711 H   0  0  0  0  0  0  0  0  0  0  0  0  # atno 10167 bound_to 10162
  157.4481  131.1063  151.0066 H   0  0  0  0  0  0  0  0  0  0  0  0  # atno 10718 bound_to 10713
  154.7534  135.3098  154.8516 H   0  0  0  0  0  0  0  0  0  0  0  0  # atno 10763 bound_to 10752
  153.9297  135.6786  153.4750 H   0  0  0  0  0  0  0  0  0  0  0  0  # atno 10764 bound_to 10752
  153.1130  135.4857  154.8996 H   0  0  0  0  0  0  0  0  0  0  0  0  # atno 10765 bound_to 10752
  141.0117  133.6905  156.2214 H   0  0  0  0  0  0  0  0  0  0  0  0  # atno 11005 bound_to 11000
  145.6675  141.0225  143.1675 LP  0  0  0  0  0  0  0  0  0  0  0  0  # atno 17320 bound_to 7965
  144.7138  139.8272  143.7405 LP  0  0  0  0  0  0  0  0  0  0  0  0  # atno 17321 bound_to 7965
  140.7772  143.5034  150.9742 LP  0  0  0  0  0  0  0  0  0  0  0  0  # atno 17342 bound_to 10162
  139.8723  143.7177  152.3165 LP  0  0  0  0  0  0  0  0  0  0  0  0  # atno 17343 bound_to 10162
  157.0905  130.5940  149.5439 LP  0  0  0  0  0  0  0  0  0  0  0  0  # atno 17370 bound_to 10713
  155.9975  130.5047  150.7538 LP  0  0  0  0  0  0  0  0  0  0  0  0  # atno 17371 bound_to 10713
  140.6723  134.4855  157.5587 LP  0  0  0  0  0  0  0  0  0  0  0  0  # atno 17394 bound_to 11000
  139.9093  134.8379  156.1586 LP  0  0  0  0  0  0  0  0  0  0  0  0  # atno 17395 bound_to 11000

$$$$
