AV-unprocessed.smi:2489|AV-procd|sdf|9805|dock6
  -GOLD-   2272013433D 1   1.00000     0.00000
 Structure written by MMmdl.
 34 35  0  0  0  0  0  0  0  0  2 V2000
  153.8034  141.0793  160.1175 C   0  0  0  0  0  0  0  0  0  0  0  0
  153.4647  142.4499  160.2715 O   0  0  0  0  0  0  0  0  0  0  0  0
  152.5486  142.9938  159.3973 C   0  0  0  0  0  0  0  0  0  0  0  0
  152.2245  144.3560  159.5654 C   0  0  0  0  0  0  0  0  0  0  0  0
  151.3062  144.9676  158.6916 C   0  0  0  0  0  0  0  0  0  0  0  0
  150.7364  144.2458  157.7040 N   0  3  0  0  0  0  0  0  0  0  0  0
  150.9891  142.9334  157.5000 C   0  0  0  0  0  0  0  0  0  0  0  0
  150.3301  142.3048  156.4108 N   0  0  0  0  0  0  0  0  0  0  0  0
  150.5353  141.0703  155.9137 C   0  0  0  0  0  0  0  0  0  0  0  0
  151.3187  140.2537  156.3990 O   0  0  0  0  0  0  0  0  0  0  0  0
  149.6812  140.6723  154.6995 C   0  0  2  0  0  0  0  0  0  0  0  0
  148.5857  141.6928  154.3338 C   0  0  0  0  0  0  0  0  0  0  0  0
  147.2949  140.9620  154.6454 C   0  0  0  0  0  0  0  0  0  0  0  0
  147.6899  139.5085  154.4155 C   0  0  2  0  0  0  0  0  0  0  0  0
  146.7662  138.4931  155.0960 C   0  0  0  0  0  0  0  0  0  0  0  0
  148.9932  139.4494  154.9732 O   0  0  0  0  0  0  0  0  0  0  0  0
  151.9210  142.2783  158.3441 C   0  0  0  0  0  0  0  0  0  0  0  0
  154.5348  140.8020  160.8766 H   0  0  0  0  0  0  0  0  0  0  0  0
  154.2521  140.8862  159.1422 H   0  0  0  0  0  0  0  0  0  0  0  0
  152.9323  140.4359  160.2485 H   0  0  0  0  0  0  0  0  0  0  0  0
  152.6841  144.9304  160.3569 H   0  0  0  0  0  0  0  0  0  0  0  0
  151.0129  146.0056  158.7522 H   0  0  0  0  0  0  0  0  0  0  0  0
  149.5774  142.8294  155.9888 H   0  0  0  0  0  0  0  0  0  0  0  0
  150.3420  140.5200  153.8452 H   0  0  0  0  0  0  0  0  0  0  0  0
  148.6486  142.6397  154.8715 H   0  0  0  0  0  0  0  0  0  0  0  0
  148.6376  141.9203  153.2683 H   0  0  0  0  0  0  0  0  0  0  0  0
  147.0212  141.1224  155.6890 H   0  0  0  0  0  0  0  0  0  0  0  0
  146.4612  141.2821  154.0200 H   0  0  0  0  0  0  0  0  0  0  0  0
  147.7551  139.3037  153.3455 H   0  0  0  0  0  0  0  0  0  0  0  0
  145.7523  138.5612  154.7014 H   0  0  0  0  0  0  0  0  0  0  0  0
  146.7192  138.6604  156.1723 H   0  0  0  0  0  0  0  0  0  0  0  0
  147.1196  137.4750  154.9322 H   0  0  0  0  0  0  0  0  0  0  0  0
  152.1595  141.2408  158.1718 H   0  0  0  0  0  0  0  0  0  0  0  0
  150.0754  144.7166  157.0854 H   0  0  0  0  0  0  0  0  0  0  0  0
  1  2  1  0  0  0  0
  1 18  1  0  0  0  0
  1 19  1  0  0  0  0
  1 20  1  0  0  0  0
  2  3  1  0  0  0  0
  3 17  1  0  0  0  0
  3  4  2  0  0  0  0
  4  5  1  0  0  0  0
  4 21  1  0  0  0  0
  5  6  2  0  0  0  0
  5 22  1  0  0  0  0
  6  7  1  0  0  0  0
  6 34  1  0  0  0  0
  7  8  1  0  0  0  0
  7 17  2  0  0  0  0
  8  9  1  0  0  0  0
  8 23  1  0  0  0  0
  9 10  2  0  0  0  0
  9 11  1  0  0  0  0
 11 16  1  0  0  0  0
 11 12  1  0  0  0  0
 11 24  1  0  0  0  0
 12 13  1  0  0  0  0
 12 25  1  0  0  0  0
 12 26  1  0  0  0  0
 13 14  1  0  0  0  0
 13 27  1  0  0  0  0
 13 28  1  0  0  0  0
 14 15  1  0  0  0  0
 14 16  1  0  0  0  0
 14 29  1  0  0  0  0
 15 30  1  0  0  0  0
 15 31  1  0  0  0  0
 15 32  1  0  0  0  0
 17 33  1  0  0  0  0
M  CHG  1   6   1
M  END
> <s_m_source_file>
AV-unprocessed.smi

> <i_m_source_file_index>
2489

> <i_lp_mmshare_version>
43012

> <i_f3d_flags>
0

> <s_epik_input>
W0NIM11PYzFbY0hdW2NIXW5jKFtjSF0xKVtOSF1DKD1PKVtDQEBIXTJbQ0gyXVtDSDJdW0NASF0oTzIpW0NIM10=

> <s_epik_cmdline>
J2VwaWtfcHl0aG9uJywgJy1waCcsICc3LjAnLCAnLXRuJywgJzgnLCAnLW1hJywgJzIwMCcsICctbWV0YWxfYmluZGluZycsICctaW1hZScsICc8aW5maWxlLm1hZT4nLCAnLW9tYWUnLCAnPG91dGZpbGUubWFlPic=

> <r_epik_Ionization_Penalty>
1.58956

> <r_epik_Ionization_Penalty_Charging>
1.1784

> <r_epik_Ionization_Penalty_Neutral>
0.411158

> <r_epik_State_Penalty>
1.31089

> <r_epik_Charging_Adjusted_Penalty>
2.48928

> <i_epik_Tot_Q>
1

> <i_epik_Tot_abs_Q>
1

> <r_epik_Metal_State_Penalty>
5.00213

> <b_epik_Metal_Only>
0

> <s_lp_Force_Field>
OPLS_2005

> <r_lp_Energy>
31.9404

> <b_lp_Chiralities_Consistent>
1

> <s_lp_Variant>
AV-unprocessed.smi:2489-11

> <Gold.Version>
5.8.1

> <Gold.Id.Protein>
6NUR|6NUR_protein|mol2

> <Gold.PLP.Fitness>
43.7849

> <Gold.PLP.PLP>
-35.3616

> <Gold.PLP.part.hbond>
-2.0000

> <Gold.PLP.part.metal>
0.0000

> <Gold.PLP.part.buried>
-4.2433

> <Gold.PLP.part.nonpolar>
-29.2318

> <Gold.PLP.part.repulsive>
0.2019

> <Gold.PLP.ligand.clash>
0.0000

> <Gold.PLP.ligand.torsion>
0.1262

> <Gold.PLP.Chemscore.Hbond>
2.8882

> <Gold.PLP.Chemscore.CHOScore>
0.0000

> <Gold.PLP.Chemscore.Metal>
0.0000

> <Gold.Chemscore.Hbonds>
donor molecule, donor type, donor heavy atom, donor atom, acceptor molecule, acceptor atom, score
      L1  H     6    34       P1  8028  2.00
      L1  H     8    23       P1  8028  0.84

> <Gold.PLP.Chemscore.Internal.Correction>
0.0113

> <Gold.Rescore>
     Score         DG    S(hbond)    S(metal)    S(lipo)     H(rot)  DE(clash)    DE(int)     intcor
     16.12     -17.52       1.68        0.00      82.18       1.24       0.01       1.39       ----

> <Gold.Chemscore.Fitness>
16.1216

> <Gold.Chemscore.DG>
-17.5221

> <Gold.Chemscore.ZeroCoef>
-5.4800

> <Gold.Chemscore.Hbond>
1.6779

> <Gold.Chemscore.Metal>
0.0000

> <Gold.Chemscore.Lipo>
82.1778

> <Gold.Chemscore.Internal_Hbond>
0.0000

> <Gold.Chemscore.DEClash>
0.0136

> <Gold.Chemscore.DEInternal>
1.3869

> <Gold.Chemscore.Rot>
1.2409

> <Gold.Chemscore.Internal.Correction>
   9.000000E+99

> <Gold.Chemscore.Hbonds>
donor molecule, donor type, donor heavy atom, donor atom, acceptor molecule, acceptor atom, score
      L1  H     6    34       P1  8028  0.34
      L1  H     8    23       P1  8028  0.77

> <Gold.Chemscore.Hbond.Weighted>
-5.6040

> <Gold.Chemscore.Metal.Weighted>
-0.0000

> <Gold.Chemscore.Lipo.Weighted>
-9.6148

> <Gold.Chemscore.Internal_Hbond.Weighted>
0.0000

> <Gold.Chemscore.DEClash.Weighted>
0.0136

> <Gold.Chemscore.DEInternal.Weighted>
1.3869

> <Gold.Chemscore.Rot.Weighted>
3.1767

> <Gold.Chemscore.Internal.Correction.Weighted>
   9.000000E+99

> <Gold.Protein.RotatedTorsions>
[ 6907 6896 6895 6894 ] final  151.87 input  -60.11 | X-H torsion
[ 7974 7965 7964 7962 ] final  160.81 input  175.53 | X-H torsion
[ 8008 7997 7996 7995 ] final  -97.78 input   59.86 | X-H torsion
[ 10167 10162 10161 10158 ] final   88.25 input  -65.29 | X-H torsion
[ 10718 10713 10712 10709 ] final -163.32 input   66.30 | X-H torsion
[ 10763 10752 10751 10750 ] final  -85.11 input  -60.55 | X-H torsion
[ 11005 11000 10999 10996 ] final  -42.12 input  -57.11 | X-H torsion

> <Gold.Protein.ActiveResidues>
 VAL166  LYS551  ARG553  GLY616  TRP617  ASP618  TYR619  PRO620  LYS621  CYS622 
 ASP623  PHE694  ASN695  SER759  ASP760  ASP761  ALA762  ILE779  LEU786  VAL792 
 PHE793  MET794  SER795  GLU796  ALA797  LYS798  CYS799  TRP800  GLU811  SER814 

> <Gold.Protein.RotatedAtoms>
  152.0946  133.4218  159.4559 H   0  0  0  0  0  0  0  0  0  0  0  0  # atno 6907 bound_to 6896
  150.6863  134.2831  159.4645 H   0  0  0  0  0  0  0  0  0  0  0  0  # atno 6908 bound_to 6896
  152.0686  134.9548  160.0625 H   0  0  0  0  0  0  0  0  0  0  0  0  # atno 6909 bound_to 6896
  144.7717  139.7810  143.6294 H   0  0  0  0  0  0  0  0  0  0  0  0  # atno 7974 bound_to 7965
  154.7923  140.0460  157.1210 H   0  0  0  0  0  0  0  0  0  0  0  0  # atno 8008 bound_to 7997
  154.9576  140.3073  155.5026 H   0  0  0  0  0  0  0  0  0  0  0  0  # atno 8009 bound_to 7997
  156.2951  140.2276  156.4659 H   0  0  0  0  0  0  0  0  0  0  0  0  # atno 8010 bound_to 7997
  139.8692  144.6502  150.8969 H   0  0  0  0  0  0  0  0  0  0  0  0  # atno 10167 bound_to 10162
  156.6230  130.8898  151.2961 H   0  0  0  0  0  0  0  0  0  0  0  0  # atno 10718 bound_to 10713
  154.6073  135.5497  153.7436 H   0  0  0  0  0  0  0  0  0  0  0  0  # atno 10763 bound_to 10752
  153.0180  135.6381  154.1629 H   0  0  0  0  0  0  0  0  0  0  0  0  # atno 10764 bound_to 10752
  154.1568  135.2899  155.3100 H   0  0  0  0  0  0  0  0  0  0  0  0  # atno 10765 bound_to 10752
  141.0293  133.6827  156.2550 H   0  0  0  0  0  0  0  0  0  0  0  0  # atno 11005 bound_to 11000
  146.1869  139.5089  142.9830 LP  0  0  0  0  0  0  0  0  0  0  0  0  # atno 17320 bound_to 7965
  145.6303  141.0305  143.1867 LP  0  0  0  0  0  0  0  0  0  0  0  0  # atno 17321 bound_to 7965
  140.7763  143.3678  151.1706 LP  0  0  0  0  0  0  0  0  0  0  0  0  # atno 17342 bound_to 10162
  139.7300  143.9088  152.3016 LP  0  0  0  0  0  0  0  0  0  0  0  0  # atno 17343 bound_to 10162
  157.7222  130.9574  150.1485 LP  0  0  0  0  0  0  0  0  0  0  0  0  # atno 17370 bound_to 10713
  156.2296  130.3681  149.8460 LP  0  0  0  0  0  0  0  0  0  0  0  0  # atno 17371 bound_to 10713
  140.6435  134.5141  157.5571 LP  0  0  0  0  0  0  0  0  0  0  0  0  # atno 17394 bound_to 11000
  139.9197  134.8174  156.1251 LP  0  0  0  0  0  0  0  0  0  0  0  0  # atno 17395 bound_to 11000

$$$$
