AV-unprocessed.smi:244|AV-procd|sdf|1867|dock1
  -GOLD-   2262020503D 1   1.00000     0.00000
 Structure written by MMmdl.
 57 61  0  0  0  0  0  0  0  0  2 V2000
  150.4036  135.4759  154.9745 C   0  0  0  0  0  0  0  0  0  0  0  0
  150.0598  136.9054  154.8200 N   0  3  2  0  0  0  0  0  0  0  0  0
  151.2611  137.7706  154.7217 C   0  0  0  0  0  0  0  0  0  0  0  0
  150.8631  139.2188  154.3989 C   0  0  0  0  0  0  0  0  0  0  0  0
  149.8556  139.7627  155.4354 C   0  0  1  0  0  0  0  0  0  0  0  0
  149.4338  141.0973  155.1462 O   0  0  0  0  0  0  0  0  0  0  0  0
  148.5923  141.2231  154.0013 C   0  0  0  0  0  0  0  0  0  0  0  0
  147.3624  140.3159  154.1482 C   0  0  0  0  0  0  0  0  0  0  0  0
  147.7758  138.9414  154.4052 N   0  0  0  0  0  0  0  0  0  0  0  0
  146.7439  138.0725  154.3435 C   0  0  0  0  0  0  0  0  0  0  0  0
  146.1618  137.7285  155.5180 N   0  0  0  0  0  0  0  0  0  0  0  0
  145.1239  136.8865  155.5248 C   0  0  0  0  0  0  0  0  0  0  0  0
  144.5238  136.2929  154.4909 N   0  0  0  0  0  0  0  0  0  0  0  0
  145.1052  136.6445  153.3080 C   0  0  0  0  0  0  0  0  0  0  0  0
  146.2128  137.5218  153.1435 C   0  0  0  0  0  0  0  0  0  0  0  0
  146.5263  137.6447  151.7956 N   0  0  0  0  0  0  0  0  0  0  0  0
  145.6593  136.8740  151.1971 C   0  0  0  0  0  0  0  0  0  0  0  0
  144.7601  136.2451  152.0289 N   0  0  0  0  0  0  0  0  0  0  0  0
  143.6880  135.3443  151.6338 C   0  0  0  0  0  0  0  0  0  0  0  0
  144.1568  134.1446  150.7728 C   0  0  0  0  0  0  0  0  0  0  0  0
  144.0295  134.5104  149.4095 O   0  0  0  0  0  0  0  0  0  0  0  0
  145.6297  133.7626  151.0381 C   0  0  0  0  0  0  0  0  0  0  0  0
  146.0206  132.4444  150.3461 C   0  0  0  0  0  0  0  0  0  0  0  0
  145.1325  131.4040  150.7351 O   0  0  0  0  0  0  0  0  0  0  0  0
  143.7896  131.6511  150.3372 C   0  0  0  0  0  0  0  0  0  0  0  0
  143.2602  132.9174  151.0336 C   0  0  0  0  0  0  0  0  0  0  0  0
  148.6359  138.8236  155.5866 C   0  0  1  0  0  0  0  0  0  0  0  0
  149.1250  137.3804  155.8706 C   0  0  0  0  0  0  0  0  0  0  0  0
  150.9359  135.2999  155.9102 H   0  0  0  0  0  0  0  0  0  0  0  0
  151.0360  135.1410  154.1517 H   0  0  0  0  0  0  0  0  0  0  0  0
  149.5028  134.8613  154.9705 H   0  0  0  0  0  0  0  0  0  0  0  0
  151.8211  137.7308  155.6574 H   0  0  0  0  0  0  0  0  0  0  0  0
  151.9222  137.3934  153.9403 H   0  0  0  0  0  0  0  0  0  0  0  0
  151.7497  139.8527  154.3735 H   0  0  0  0  0  0  0  0  0  0  0  0
  150.4412  139.2386  153.3946 H   0  0  0  0  0  0  0  0  0  0  0  0
  150.3681  139.8082  156.3971 H   0  0  0  0  0  0  0  0  0  0  0  0
  148.2773  142.2629  153.9134 H   0  0  0  0  0  0  0  0  0  0  0  0
  149.1405  140.9921  153.0884 H   0  0  0  0  0  0  0  0  0  0  0  0
  146.7419  140.6767  154.9694 H   0  0  0  0  0  0  0  0  0  0  0  0
  146.7556  140.3626  153.2428 H   0  0  0  0  0  0  0  0  0  0  0  0
  144.7126  136.6568  156.4969 H   0  0  0  0  0  0  0  0  0  0  0  0
  145.6449  136.7499  150.1238 H   0  0  0  0  0  0  0  0  0  0  0  0
  143.2022  134.9844  152.5418 H   0  0  0  0  0  0  0  0  0  0  0  0
  142.9342  135.9233  151.0980 H   0  0  0  0  0  0  0  0  0  0  0  0
  143.1117  134.5167  149.1842 H   0  0  0  0  0  0  0  0  0  0  0  0
  146.3030  134.5568  150.7141 H   0  0  0  0  0  0  0  0  0  0  0  0
  145.7831  133.6496  152.1122 H   0  0  0  0  0  0  0  0  0  0  0  0
  146.0172  132.5541  149.2607 H   0  0  0  0  0  0  0  0  0  0  0  0
  147.0347  132.1629  150.6298 H   0  0  0  0  0  0  0  0  0  0  0  0
  143.7294  131.7427  149.2517 H   0  0  0  0  0  0  0  0  0  0  0  0
  143.1791  130.7917  150.6146 H   0  0  0  0  0  0  0  0  0  0  0  0
  143.2170  132.7252  152.1064 H   0  0  0  0  0  0  0  0  0  0  0  0
  142.2352  133.1176  150.7186 H   0  0  0  0  0  0  0  0  0  0  0  0
  148.0545  139.1593  156.4466 H   0  0  0  0  0  0  0  0  0  0  0  0
  148.2837  136.6925  155.9632 H   0  0  0  0  0  0  0  0  0  0  0  0
  149.6365  137.3532  156.8342 H   0  0  0  0  0  0  0  0  0  0  0  0
  149.5690  136.9865  153.9404 H   0  0  0  0  0  0  0  0  0  0  0  0
  1  2  1  0  0  0  0
  1 29  1  0  0  0  0
  1 30  1  0  0  0  0
  1 31  1  0  0  0  0
  2 28  1  0  0  0  0
  2  3  1  0  0  0  0
  2 57  1  0  0  0  0
  3  4  1  0  0  0  0
  3 32  1  0  0  0  0
  3 33  1  0  0  0  0
  4  5  1  0  0  0  0
  4 34  1  0  0  0  0
  4 35  1  0  0  0  0
  5 27  1  0  0  0  0
  5  6  1  0  0  0  0
  5 36  1  0  0  0  0
  6  7  1  0  0  0  0
  7  8  1  0  0  0  0
  7 37  1  0  0  0  0
  7 38  1  0  0  0  0
  8  9  1  0  0  0  0
  8 39  1  0  0  0  0
  8 40  1  0  0  0  0
  9 10  1  0  0  0  0
  9 27  1  0  0  0  0
 10 15  1  0  0  0  0
 10 11  2  0  0  0  0
 11 12  1  0  0  0  0
 12 13  2  0  0  0  0
 12 41  1  0  0  0  0
 13 14  1  0  0  0  0
 14 18  1  0  0  0  0
 14 15  2  0  0  0  0
 15 16  1  0  0  0  0
 16 17  2  0  0  0  0
 17 18  1  0  0  0  0
 17 42  1  0  0  0  0
 18 19  1  0  0  0  0
 19 20  1  0  0  0  0
 19 43  1  0  0  0  0
 19 44  1  0  0  0  0
 20 26  1  0  0  0  0
 20 21  1  0  0  0  0
 20 22  1  0  0  0  0
 21 45  1  0  0  0  0
 22 23  1  0  0  0  0
 22 46  1  0  0  0  0
 22 47  1  0  0  0  0
 23 24  1  0  0  0  0
 23 48  1  0  0  0  0
 23 49  1  0  0  0  0
 24 25  1  0  0  0  0
 25 26  1  0  0  0  0
 25 50  1  0  0  0  0
 25 51  1  0  0  0  0
 26 52  1  0  0  0  0
 26 53  1  0  0  0  0
 27 28  1  0  0  0  0
 27 54  1  0  0  0  0
 28 55  1  0  0  0  0
 28 56  1  0  0  0  0
M  CHG  1   2   1
M  END
> <s_m_source_file>
AV-unprocessed.smi

> <i_m_source_file_index>
244

> <i_lp_mmshare_version>
43012

> <i_f3d_flags>
0

> <s_epik_input>
W0NIMl0xW0NIMl1OKFtDSDNdKVtDSDJdW0NAQEhdKFtDQEhdMTIpTihbQ0gyXVtDSDJdTzIpYyhuW2NIXW4zKWMoYzM0KW5bY0hdbjRbQ0gyXUM1KFtPSF0pW0NIMl1bQ0gyXU9bQ0gyXVtDSDJdNQ==

> <s_epik_cmdline>
J2VwaWtfcHl0aG9uJywgJy1waCcsICc3LjAnLCAnLXRuJywgJzgnLCAnLW1hJywgJzIwMCcsICctbWV0YWxfYmluZGluZycsICctaW1hZScsICc8aW5maWxlLm1hZT4nLCAnLW9tYWUnLCAnPG91dGZpbGUubWFlPic=

> <r_lp_tautomer_probability>
1

> <r_epik_Ionization_Penalty>
0.0136215

> <r_epik_Ionization_Penalty_Charging>
0.0131385

> <r_epik_Ionization_Penalty_Neutral>
0.000483022

> <r_epik_State_Penalty>
0.0104001

> <r_epik_Charging_Adjusted_Penalty>
0.0235387

> <i_epik_Tot_Q>
1

> <i_epik_Tot_abs_Q>
1

> <r_epik_Metal_State_Penalty>
0.0104469

> <b_epik_Metal_Only>
0

> <s_lp_Force_Field>
OPLS_2005

> <r_lp_Energy>
48.7962

> <b_lp_Chiralities_Consistent>
1

> <s_lp_Variant>
AV-unprocessed.smi:244-4

> <Gold.Version>
5.8.1

> <Gold.Id.Protein>
6NUR|6NUR_protein|mol2

> <Gold.PLP.Fitness>
38.8852

> <Gold.PLP.PLP>
-33.0187

> <Gold.PLP.part.hbond>
-2.9029

> <Gold.PLP.part.metal>
0.0000

> <Gold.PLP.part.buried>
-1.0704

> <Gold.PLP.part.nonpolar>
-32.9938

> <Gold.PLP.part.repulsive>
2.3407

> <Gold.PLP.ligand.clash>
0.0000

> <Gold.PLP.ligand.torsion>
1.3415

> <Gold.PLP.Chemscore.Hbond>
2.4186

> <Gold.PLP.Chemscore.CHOScore>
0.3858

> <Gold.PLP.Chemscore.Metal>
0.0000

> <Gold.Chemscore.Hbonds>
donor molecule, donor type, donor heavy atom, donor atom, acceptor molecule, acceptor atom, score
      L1  H     2    57       P1  7948  0.81
      L1  H    21    45       P1 10186  0.76
      L1  C    17    42       P1 10171  0.25

> <Gold.PLP.Chemscore.Internal.Correction>
0.1366

> <Gold.Rescore>
     Score         DG    S(hbond)    S(metal)    S(lipo)     H(rot)  DE(clash)    DE(int)     intcor
      9.57     -12.83       0.94        0.00      81.69       2.09       0.77       2.49       ----

> <Gold.Chemscore.Fitness>
9.5698

> <Gold.Chemscore.DG>
-12.8298

> <Gold.Chemscore.ZeroCoef>
-5.4800

> <Gold.Chemscore.Hbond>
0.9416

> <Gold.Chemscore.Metal>
0.0000

> <Gold.Chemscore.Lipo>
81.6924

> <Gold.Chemscore.Internal_Hbond>
0.0000

> <Gold.Chemscore.DEClash>
0.7743

> <Gold.Chemscore.DEInternal>
2.4856

> <Gold.Chemscore.Rot>
2.0911

> <Gold.Chemscore.Internal.Correction>
   9.000000E+99

> <Gold.Chemscore.Hbonds>
donor molecule, donor type, donor heavy atom, donor atom, acceptor molecule, acceptor atom, score
      L1  H     2    57       P1  7948  0.35
      L1  H    21    45       P1 10186  0.74

> <Gold.Chemscore.Hbond.Weighted>
-3.1449

> <Gold.Chemscore.Metal.Weighted>
-0.0000

> <Gold.Chemscore.Lipo.Weighted>
-9.5580

> <Gold.Chemscore.Internal_Hbond.Weighted>
0.0000

> <Gold.Chemscore.DEClash.Weighted>
0.7743

> <Gold.Chemscore.DEInternal.Weighted>
2.4856

> <Gold.Chemscore.Rot.Weighted>
5.3531

> <Gold.Chemscore.Internal.Correction.Weighted>
   9.000000E+99

> <Gold.Protein.RotatedTorsions>
[ 6907 6896 6895 6894 ] final -150.44 input  -60.11 | X-H torsion
[ 7974 7965 7964 7962 ] final  -86.53 input  175.53 | X-H torsion
[ 8008 7997 7996 7995 ] final  -80.85 input   59.86 | X-H torsion
[ 10167 10162 10161 10158 ] final   88.86 input  -65.29 | X-H torsion
[ 10718 10713 10712 10709 ] final   16.10 input   66.30 | X-H torsion
[ 10763 10752 10751 10750 ] final   42.44 input  -60.55 | X-H torsion
[ 11005 11000 10999 10996 ] final  103.30 input  -57.11 | X-H torsion

> <Gold.Protein.ActiveResidues>
 VAL166  LYS551  ARG553  GLY616  TRP617  ASP618  TYR619  PRO620  LYS621  CYS622 
 ASP623  PHE694  ASN695  SER759  ASP760  ASP761  ALA762  ILE779  LEU786  VAL792 
 PHE793  MET794  SER795  GLU796  ALA797  LYS798  CYS799  TRP800  GLU811  SER814 

> <Gold.Protein.RotatedAtoms>
  151.1987  133.4624  159.2595 H   0  0  0  0  0  0  0  0  0  0  0  0  # atno 6907 bound_to 6896
  151.1091  135.0016  159.8495 H   0  0  0  0  0  0  0  0  0  0  0  0  # atno 6908 bound_to 6896
  152.5449  134.1907  159.8726 H   0  0  0  0  0  0  0  0  0  0  0  0  # atno 6909 bound_to 6896
  145.4786  140.9557  143.1877 H   0  0  0  0  0  0  0  0  0  0  0  0  # atno 7974 bound_to 7965
  154.5925  140.0656  156.9257 H   0  0  0  0  0  0  0  0  0  0  0  0  # atno 8008 bound_to 7997
  155.2271  140.3334  155.4290 H   0  0  0  0  0  0  0  0  0  0  0  0  # atno 8009 bound_to 7997
  156.2265  140.1821  156.7334 H   0  0  0  0  0  0  0  0  0  0  0  0  # atno 8010 bound_to 7997
  139.8631  144.6533  150.9035 H   0  0  0  0  0  0  0  0  0  0  0  0  # atno 10167 bound_to 10162
  157.0630  130.6316  149.5790 H   0  0  0  0  0  0  0  0  0  0  0  0  # atno 10718 bound_to 10713
  152.9883  135.6132  154.2949 H   0  0  0  0  0  0  0  0  0  0  0  0  # atno 10763 bound_to 10752
  154.2672  135.2780  155.2755 H   0  0  0  0  0  0  0  0  0  0  0  0  # atno 10764 bound_to 10752
  154.5154  135.5829  153.6695 H   0  0  0  0  0  0  0  0  0  0  0  0  # atno 10765 bound_to 10752
  139.8783  134.9257  156.5188 H   0  0  0  0  0  0  0  0  0  0  0  0  # atno 11005 bound_to 11000
  144.7902  139.6343  143.7116 LP  0  0  0  0  0  0  0  0  0  0  0  0  # atno 17320 bound_to 7965
  146.2354  139.5896  142.9527 LP  0  0  0  0  0  0  0  0  0  0  0  0  # atno 17321 bound_to 7965
  140.7772  143.3727  151.1619 LP  0  0  0  0  0  0  0  0  0  0  0  0  # atno 17342 bound_to 10162
  139.7355  143.9006  152.3033 LP  0  0  0  0  0  0  0  0  0  0  0  0  # atno 17343 bound_to 10162
  155.9973  130.5044  150.7528 LP  0  0  0  0  0  0  0  0  0  0  0  0  # atno 17370 bound_to 10713
  157.4940  131.0913  151.0394 LP  0  0  0  0  0  0  0  0  0  0  0  0  # atno 17371 bound_to 10713
  140.8466  133.8164  155.9127 LP  0  0  0  0  0  0  0  0  0  0  0  0  # atno 17394 bound_to 11000
  140.9186  134.2171  157.4941 LP  0  0  0  0  0  0  0  0  0  0  0  0  # atno 17395 bound_to 11000

$$$$
