AV-unprocessed.smi:2893|AV-procd|sdf|11124|dock4
  -GOLD-   2272015593D 1   1.00000     0.00000
 Structure written by MMmdl.
 37 39  0  0  0  0  0  0  0  0  1 V2000
  145.9271  137.4959  152.0164 C   0  0  0  0  0  0  0  0  0  0  0  0
  146.6124  138.8024  151.5938 C   0  0  0  0  0  0  0  0  0  0  0  0
  147.5569  139.2659  152.6032 N   0  0  0  0  0  0  0  0  0  0  0  0
  147.4764  140.4338  153.2643 C   0  0  0  0  0  0  0  0  0  0  0  0
  146.5669  141.2460  153.0901 O   0  0  0  0  0  0  0  0  0  0  0  0
  148.5539  140.6872  154.2849 C   0  0  0  0  0  0  0  0  0  0  0  0
  149.6953  139.8573  154.3313 C   0  0  0  0  0  0  0  0  0  0  0  0
  150.6646  140.1279  155.3123 C   0  0  0  0  0  0  0  0  0  0  0  0
  150.4295  141.2068  156.1856 C   0  0  0  0  0  0  0  0  0  0  0  0
  151.3821  141.4998  157.1716 N   0  0  0  0  0  0  0  0  0  0  0  0
  151.0504  142.3337  158.3231 C   0  0  2  0  0  0  0  0  0  0  0  0
  151.6398  143.7433  158.2315 C   0  0  0  0  0  0  0  0  0  0  0  0
  152.3862  143.8612  159.5680 C   0  0  2  0  0  0  0  0  0  0  0  0
  153.6859  143.0464  159.5610 C   0  0  0  0  0  0  0  0  0  0  0  0
  153.1552  141.6161  159.6333 C   0  0  0  0  0  0  0  0  0  0  0  0
  151.6338  141.8412  159.6628 C   0  0  1  0  0  0  0  0  0  0  0  0
  151.5780  143.0489  160.4032 O   0  0  0  0  0  0  0  0  0  0  0  0
  149.3125  141.9689  156.0931 N   0  0  0  0  0  0  0  0  0  0  0  0
  148.3888  141.7102  155.1615 N   0  0  0  0  0  0  0  0  0  0  0  0
  145.2528  137.1427  151.2360 H   0  0  0  0  0  0  0  0  0  0  0  0
  145.3386  137.6302  152.9246 H   0  0  0  0  0  0  0  0  0  0  0  0
  146.6588  136.7096  152.2037 H   0  0  0  0  0  0  0  0  0  0  0  0
  147.1595  138.6455  150.6640 H   0  0  0  0  0  0  0  0  0  0  0  0
  145.8681  139.5740  151.3902 H   0  0  0  0  0  0  0  0  0  0  0  0
  148.3346  138.6580  152.8179 H   0  0  0  0  0  0  0  0  0  0  0  0
  149.8316  139.0391  153.6391 H   0  0  0  0  0  0  0  0  0  0  0  0
  151.5573  139.5248  155.3898 H   0  0  0  0  0  0  0  0  0  0  0  0
  152.2568  140.9955  157.1792 H   0  0  0  0  0  0  0  0  0  0  0  0
  149.9659  142.4173  158.4073 H   0  0  0  0  0  0  0  0  0  0  0  0
  152.3058  143.8882  157.3795 H   0  0  0  0  0  0  0  0  0  0  0  0
  150.8409  144.4825  158.1650 H   0  0  0  0  0  0  0  0  0  0  0  0
  152.5089  144.8865  159.9179 H   0  0  0  0  0  0  0  0  0  0  0  0
  154.2887  143.2313  158.6713 H   0  0  0  0  0  0  0  0  0  0  0  0
  154.2918  143.2737  160.4390 H   0  0  0  0  0  0  0  0  0  0  0  0
  153.4811  140.9979  158.7968 H   0  0  0  0  0  0  0  0  0  0  0  0
  153.4878  141.1364  160.5544 H   0  0  0  0  0  0  0  0  0  0  0  0
  151.0766  141.0202  160.1144 H   0  0  0  0  0  0  0  0  0  0  0  0
  1  2  1  0  0  0  0
  1 20  1  0  0  0  0
  1 21  1  0  0  0  0
  1 22  1  0  0  0  0
  2  3  1  0  0  0  0
  2 23  1  0  0  0  0
  2 24  1  0  0  0  0
  3  4  1  0  0  0  0
  3 25  1  0  0  0  0
  4  5  2  0  0  0  0
  4  6  1  0  0  0  0
  6 19  1  0  0  0  0
  6  7  2  0  0  0  0
  7  8  1  0  0  0  0
  7 26  1  0  0  0  0
  8  9  2  0  0  0  0
  8 27  1  0  0  0  0
  9 10  1  0  0  0  0
  9 18  1  0  0  0  0
 10 11  1  0  0  0  0
 10 28  1  0  0  0  0
 11 16  1  0  0  0  0
 11 12  1  0  0  0  0
 11 29  1  0  0  0  0
 12 13  1  0  0  0  0
 12 30  1  0  0  0  0
 12 31  1  0  0  0  0
 13 17  1  0  0  0  0
 13 14  1  0  0  0  0
 13 32  1  0  0  0  0
 14 15  1  0  0  0  0
 14 33  1  0  0  0  0
 14 34  1  0  0  0  0
 15 16  1  0  0  0  0
 15 35  1  0  0  0  0
 15 36  1  0  0  0  0
 16 17  1  0  0  0  0
 16 37  1  0  0  0  0
 18 19  2  0  0  0  0
M  END
> <s_m_source_file>
AV-unprocessed.smi

> <i_m_source_file_index>
2893

> <i_lp_mmshare_version>
43012

> <i_f3d_flags>
0

> <s_epik_input>
W0NIM11bQ0gyXVtOSF1DKD1PKWMxW2NIXVtjSF1jKG5uMSlbTkhdW0NASF0oW0NIMl1bQ0BASF0yMylbQ0BASF0oTzMpW0NIMl1bQ0gyXTI=

> <s_epik_cmdline>
J2VwaWtfcHl0aG9uJywgJy1waCcsICc3LjAnLCAnLXRuJywgJzgnLCAnLW1hJywgJzIwMCcsICctbWV0YWxfYmluZGluZycsICctaW1hZScsICc8aW5maWxlLm1hZT4nLCAnLW9tYWUnLCAnPG91dGZpbGUubWFlPic=

> <r_lp_tautomer_probability>
1

> <r_epik_Ionization_Penalty>
0.00432031

> <r_epik_Ionization_Penalty_Charging>
0

> <r_epik_Ionization_Penalty_Neutral>
0.00432031

> <r_epik_State_Penalty>
-0

> <r_epik_Charging_Adjusted_Penalty>
0

> <i_epik_Tot_Q>
0

> <i_epik_Tot_abs_Q>
0

> <r_epik_Metal_State_Penalty>
-0

> <b_epik_Metal_Only>
0

> <s_lp_Force_Field>
OPLS_2005

> <r_lp_Energy>
51.9869

> <b_lp_Chiralities_Consistent>
1

> <s_lp_Variant>
AV-unprocessed.smi:2893-3

> <Gold.Version>
5.8.1

> <Gold.Id.Protein>
6NUR|6NUR_protein|mol2

> <Gold.PLP.Fitness>
34.6170

> <Gold.PLP.PLP>
-35.2774

> <Gold.PLP.part.hbond>
-1.4303

> <Gold.PLP.part.metal>
0.0000

> <Gold.PLP.part.buried>
-2.3817

> <Gold.PLP.part.nonpolar>
-34.8095

> <Gold.PLP.part.repulsive>
3.3166

> <Gold.PLP.ligand.clash>
0.0000

> <Gold.PLP.ligand.torsion>
0.3453

> <Gold.PLP.Chemscore.Hbond>
0.0000

> <Gold.PLP.Chemscore.CHOScore>
0.0000

> <Gold.PLP.Chemscore.Metal>
0.0000

> <Gold.PLP.Chemscore.Internal.Correction>
0.0301

> <Gold.Rescore>
     Score         DG    S(hbond)    S(metal)    S(lipo)     H(rot)  DE(clash)    DE(int)     intcor
     12.92     -14.36       0.00        0.00     102.24       1.21       1.12       0.33       ----

> <Gold.Chemscore.Fitness>
12.9174

> <Gold.Chemscore.DG>
-14.3631

> <Gold.Chemscore.ZeroCoef>
-5.4800

> <Gold.Chemscore.Hbond>
0.0024

> <Gold.Chemscore.Metal>
0.0000

> <Gold.Chemscore.Lipo>
102.2441

> <Gold.Chemscore.Internal_Hbond>
0.0000

> <Gold.Chemscore.DEClash>
1.1153

> <Gold.Chemscore.DEInternal>
0.3303

> <Gold.Chemscore.Rot>
1.2061

> <Gold.Chemscore.Internal.Correction>
   9.000000E+99

> <Gold.Chemscore.Hbond.Weighted>
-0.0081

> <Gold.Chemscore.Metal.Weighted>
-0.0000

> <Gold.Chemscore.Lipo.Weighted>
-11.9626

> <Gold.Chemscore.Internal_Hbond.Weighted>
0.0000

> <Gold.Chemscore.DEClash.Weighted>
1.1153

> <Gold.Chemscore.DEInternal.Weighted>
0.3303

> <Gold.Chemscore.Rot.Weighted>
3.0876

> <Gold.Chemscore.Internal.Correction.Weighted>
   9.000000E+99

> <Gold.Protein.RotatedTorsions>
[ 6907 6896 6895 6894 ] final -123.55 input  -60.11 | X-H torsion
[ 7974 7965 7964 7962 ] final  -46.54 input  175.53 | X-H torsion
[ 8008 7997 7996 7995 ] final  -18.21 input   59.86 | X-H torsion
[ 10167 10162 10161 10158 ] final -153.27 input  -65.29 | X-H torsion
[ 10718 10713 10712 10709 ] final   97.13 input   66.30 | X-H torsion
[ 10763 10752 10751 10750 ] final -148.73 input  -60.55 | X-H torsion
[ 11005 11000 10999 10996 ] final  -44.20 input  -57.11 | X-H torsion

> <Gold.Protein.ActiveResidues>
 VAL166  LYS551  ARG553  GLY616  TRP617  ASP618  TYR619  PRO620  LYS621  CYS622 
 ASP623  PHE694  ASN695  SER759  ASP760  ASP761  ALA762  ILE779  LEU786  VAL792 
 PHE793  MET794  SER795  GLU796  ALA797  LYS798  CYS799  TRP800  GLU811  SER814 

> <Gold.Protein.RotatedAtoms>
  150.8682  133.7544  159.2969 H   0  0  0  0  0  0  0  0  0  0  0  0  # atno 6907 bound_to 6896
  151.5165  135.1065  159.9877 H   0  0  0  0  0  0  0  0  0  0  0  0  # atno 6908 bound_to 6896
  152.4676  133.7913  159.6959 H   0  0  0  0  0  0  0  0  0  0  0  0  # atno 6909 bound_to 6896
  145.9708  140.7385  142.9411 H   0  0  0  0  0  0  0  0  0  0  0  0  # atno 7974 bound_to 7965
  154.4922  140.2122  155.9523 H   0  0  0  0  0  0  0  0  0  0  0  0  # atno 8008 bound_to 7997
  156.1321  140.3195  155.8333 H   0  0  0  0  0  0  0  0  0  0  0  0  # atno 8009 bound_to 7997
  155.4277  140.0501  157.3011 H   0  0  0  0  0  0  0  0  0  0  0  0  # atno 8010 bound_to 7997
  139.7111  143.9108  152.2468 H   0  0  0  0  0  0  0  0  0  0  0  0  # atno 10167 bound_to 10162
  157.6917  131.0600  150.4597 H   0  0  0  0  0  0  0  0  0  0  0  0  # atno 10718 bound_to 10713
  154.8217  135.3327  154.7019 H   0  0  0  0  0  0  0  0  0  0  0  0  # atno 10763 bound_to 10752
  153.7651  135.6930  153.4922 H   0  0  0  0  0  0  0  0  0  0  0  0  # atno 10764 bound_to 10752
  153.2083  135.4491  155.0299 H   0  0  0  0  0  0  0  0  0  0  0  0  # atno 10765 bound_to 10752
  141.0435  133.6770  156.2839 H   0  0  0  0  0  0  0  0  0  0  0  0  # atno 11005 bound_to 11000
  144.6836  140.2746  143.7301 LP  0  0  0  0  0  0  0  0  0  0  0  0  # atno 17320 bound_to 7965
  145.7909  139.1926  143.2103 LP  0  0  0  0  0  0  0  0  0  0  0  0  # atno 17321 bound_to 7965
  139.8977  144.6929  150.8700 LP  0  0  0  0  0  0  0  0  0  0  0  0  # atno 17342 bound_to 10162
  140.7733  143.3537  151.1963 LP  0  0  0  0  0  0  0  0  0  0  0  0  # atno 17343 bound_to 10162
  156.4942  130.4102  149.6389 LP  0  0  0  0  0  0  0  0  0  0  0  0  # atno 17370 bound_to 10713
  156.3388  130.7371  151.2313 LP  0  0  0  0  0  0  0  0  0  0  0  0  # atno 17371 bound_to 10713
  140.6191  134.5380  157.5545 LP  0  0  0  0  0  0  0  0  0  0  0  0  # atno 17394 bound_to 11000
  139.9293  134.7994  156.0976 LP  0  0  0  0  0  0  0  0  0  0  0  0  # atno 17395 bound_to 11000

$$$$
