AV-unprocessed.smi:50|AV-procd|sdf|497|dock3
  -GOLD-   2262016363D 1   1.00000     0.00000
 Structure written by MMmdl.
 42 43  0  0  0  0  0  0  0  0  2 V2000
  143.7033  132.6979  148.9573 C   0  0  0  0  0  0  0  0  0  0  0  0
  144.8842  133.0541  149.8772 C   0  0  0  0  0  0  0  0  0  0  0  0
  145.0860  131.9545  150.9384 C   0  0  0  0  0  0  0  0  0  0  0  0
  144.7597  134.4940  150.4493 C   0  0  2  0  0  0  0  0  0  0  0  0
  144.3413  135.4335  149.4078 N   0  0  0  0  0  0  0  0  0  0  0  0
  146.0015  134.9768  151.2240 C   0  0  0  0  0  0  0  0  0  0  0  0
  147.0355  134.3160  151.3259 O   0  0  0  0  0  0  0  0  0  0  0  0
  145.8114  136.2017  151.7508 O   0  0  0  0  0  0  0  0  0  0  0  0
  146.7088  136.6924  152.7325 C   0  0  0  0  0  0  0  0  0  0  0  0
  146.4365  138.1797  152.9697 C   0  0  0  0  0  0  0  0  0  0  0  0
  147.6170  138.9091  152.6802 O   0  0  0  0  0  0  0  0  0  0  0  0
  148.4235  139.0939  153.7949 C   0  0  0  0  0  0  0  0  0  0  0  0
  149.7277  139.5223  153.3306 N   0  0  0  0  0  0  0  0  0  0  0  0
  150.0555  140.7258  152.8218 C   0  0  0  0  0  0  0  0  0  0  0  0
  151.3322  140.8671  152.4671 N   0  0  0  0  0  0  0  0  0  0  0  0
  151.8615  139.6210  152.7848 C   0  0  0  0  0  0  0  0  0  0  0  0
  153.2311  139.0676  152.6538 C   0  0  0  0  0  0  0  0  0  0  0  0
  154.1207  139.7758  152.1857 O   0  0  0  0  0  0  0  0  0  0  0  0
  153.3871  137.7770  153.0796 N   0  5  0  0  0  0  0  0  0  0  0  0
  152.2958  137.0617  153.5929 C   0  0  0  0  0  0  0  0  0  0  0  0
  152.6282  135.7786  153.9692 N   0  0  0  0  0  0  0  0  0  0  0  0
  151.0634  137.4845  153.7360 N   0  0  0  0  0  0  0  0  0  0  0  0
  150.9084  138.7903  153.3092 C   0  0  0  0  0  0  0  0  0  0  0  0
  143.9389  134.4660  151.1667 H   0  0  0  0  0  0  0  0  0  0  0  0
  142.7656  132.6347  149.5101 H   0  0  0  0  0  0  0  0  0  0  0  0
  143.8635  131.7353  148.4712 H   0  0  0  0  0  0  0  0  0  0  0  0
  143.5771  133.4435  148.1720 H   0  0  0  0  0  0  0  0  0  0  0  0
  145.7733  133.0449  149.2446 H   0  0  0  0  0  0  0  0  0  0  0  0
  144.1959  131.8118  151.5511 H   0  0  0  0  0  0  0  0  0  0  0  0
  145.9178  132.1883  151.6033 H   0  0  0  0  0  0  0  0  0  0  0  0
  145.3089  130.9978  150.4655 H   0  0  0  0  0  0  0  0  0  0  0  0
  144.3106  136.3818  149.7535 H   0  0  0  0  0  0  0  0  0  0  0  0
  144.9855  135.4341  148.6298 H   0  0  0  0  0  0  0  0  0  0  0  0
  146.5834  136.1369  153.6629 H   0  0  0  0  0  0  0  0  0  0  0  0
  147.7365  136.5476  152.3967 H   0  0  0  0  0  0  0  0  0  0  0  0
  145.6206  138.5180  152.3289 H   0  0  0  0  0  0  0  0  0  0  0  0
  146.1357  138.3427  154.0059 H   0  0  0  0  0  0  0  0  0  0  0  0
  148.0115  139.8644  154.4487 H   0  0  0  0  0  0  0  0  0  0  0  0
  148.5348  138.1628  154.3529 H   0  0  0  0  0  0  0  0  0  0  0  0
  149.3355  141.5226  152.7080 H   0  0  0  0  0  0  0  0  0  0  0  0
  153.5580  135.3959  153.8839 H   0  0  0  0  0  0  0  0  0  0  0  0
  151.9613  135.1292  154.3597 H   0  0  0  0  0  0  0  0  0  0  0  0
  1  2  1  0  0  0  0
  1 25  1  0  0  0  0
  1 26  1  0  0  0  0
  1 27  1  0  0  0  0
  2  3  1  0  0  0  0
  2  4  1  0  0  0  0
  2 28  1  0  0  0  0
  3 29  1  0  0  0  0
  3 30  1  0  0  0  0
  3 31  1  0  0  0  0
  4 24  1  0  0  0  0
  4  5  1  0  0  0  0
  4  6  1  0  0  0  0
  5 32  1  0  0  0  0
  5 33  1  0  0  0  0
  6  7  2  0  0  0  0
  6  8  1  0  0  0  0
  8  9  1  0  0  0  0
  9 10  1  0  0  0  0
  9 34  1  0  0  0  0
  9 35  1  0  0  0  0
 10 11  1  0  0  0  0
 10 36  1  0  0  0  0
 10 37  1  0  0  0  0
 11 12  1  0  0  0  0
 12 13  1  0  0  0  0
 12 38  1  0  0  0  0
 12 39  1  0  0  0  0
 13 23  1  0  0  0  0
 13 14  1  0  0  0  0
 14 15  2  0  0  0  0
 14 40  1  0  0  0  0
 15 16  1  0  0  0  0
 16 23  2  0  0  0  0
 16 17  1  0  0  0  0
 17 18  2  0  0  0  0
 17 19  1  0  0  0  0
 19 20  1  0  0  0  0
 20 21  1  0  0  0  0
 20 22  2  0  0  0  0
 21 41  1  0  0  0  0
 21 42  1  0  0  0  0
 22 23  1  0  0  0  0
M  CHG  1  19  -1
M  END
> <s_m_source_file>
AV-unprocessed.smi

> <i_m_source_file_index>
50

> <i_lp_mmshare_version>
43012

> <i_f3d_flags>
0

> <s_epik_input>
W0NIM11bQ0hdKFtDSDNdKVtDQEhdKFtOSDJdKUMoPU8pT1tDSDJdW0NIMl1PW0NIMl1uKFtjSF1uMSljKGMxMiluYyhbTkgyXSlbbkhdYzI9Tw==

> <s_epik_cmdline>
J2VwaWtfcHl0aG9uJywgJy1waCcsICc3LjAnLCAnLXRuJywgJzgnLCAnLW1hJywgJzIwMCcsICctbWV0YWxfYmluZGluZycsICctaW1hZScsICc8aW5maWxlLm1hZT4nLCAnLW9tYWUnLCAnPG91dGZpbGUubWFlPic=

> <r_lp_tautomer_probability>
0.99994

> <r_epik_Ionization_Penalty>
4.26118

> <r_epik_Ionization_Penalty_Charging>
1.23364e-10

> <r_epik_Ionization_Penalty_Neutral>
4.26118

> <r_epik_State_Penalty>
4.27372

> <r_epik_Charging_Adjusted_Penalty>
4.27372

> <i_epik_Tot_Q>
-1

> <i_epik_Tot_abs_Q>
1

> <r_epik_Metal_State_Penalty>
1.24306

> <b_epik_Metal_Only>
1

> <s_epik_Chemistry_Notes>
This compound has an ester and may undergo hydrolysis at high or low pH. This compound contains an acetal/aminal-like group ( X-CH(R)-Y where X, Y are N, S, or O) that may be acid/base labile, releasing an aldehyde.

> <s_lp_Force_Field>
OPLS_2005

> <r_lp_Energy>
24.4723

> <b_lp_Chiralities_Consistent>
1

> <s_lp_Variant>
AV-unprocessed.smi:50-7

> <Gold.Version>
5.8.1

> <Gold.Id.Protein>
6NUR|6NUR_protein|mol2

> <Gold.PLP.Fitness>
49.9791

> <Gold.PLP.PLP>
-34.1502

> <Gold.PLP.part.hbond>
-4.7756

> <Gold.PLP.part.metal>
0.0000

> <Gold.PLP.part.buried>
-4.3176

> <Gold.PLP.part.nonpolar>
-26.3753

> <Gold.PLP.part.repulsive>
0.9338

> <Gold.PLP.ligand.clash>
0.0000

> <Gold.PLP.ligand.torsion>
1.1101

> <Gold.PLP.Chemscore.Hbond>
5.9178

> <Gold.PLP.Chemscore.CHOScore>
0.0000

> <Gold.PLP.Chemscore.Metal>
0.0000

> <Gold.Chemscore.Hbonds>
donor molecule, donor type, donor heavy atom, donor atom, acceptor molecule, acceptor atom, score
      L1  H     5    32       P1 10171  0.52
      L1  H     5    33       P1  7921  1.00

> <Gold.PLP.Chemscore.Internal.Correction>
0.2959

> <Gold.Rescore>
     Score         DG    S(hbond)    S(metal)    S(lipo)     H(rot)  DE(clash)    DE(int)     intcor
     10.46     -13.65       4.24        0.00      52.12       4.72       0.45       2.73       ----

> <Gold.Chemscore.Fitness>
10.4604

> <Gold.Chemscore.DG>
-13.6455

> <Gold.Chemscore.ZeroCoef>
-5.4800

> <Gold.Chemscore.Hbond>
4.2398

> <Gold.Chemscore.Metal>
0.0000

> <Gold.Chemscore.Lipo>
52.1172

> <Gold.Chemscore.Internal_Hbond>
0.0000

> <Gold.Chemscore.DEClash>
0.4525

> <Gold.Chemscore.DEInternal>
2.7327

> <Gold.Chemscore.Rot>
4.7239

> <Gold.Chemscore.Internal.Correction>
   9.000000E+99

> <Gold.Chemscore.Hbonds>
donor molecule, donor type, donor heavy atom, donor atom, acceptor molecule, acceptor atom, score
      L1  H     5    32       P1 10171  0.52
      L1  H     5    33       P1  7921  0.98

> <Gold.Chemscore.Hbond.Weighted>
-14.1611

> <Gold.Chemscore.Metal.Weighted>
-0.0000

> <Gold.Chemscore.Lipo.Weighted>
-6.0977

> <Gold.Chemscore.Internal_Hbond.Weighted>
0.0000

> <Gold.Chemscore.DEClash.Weighted>
0.4525

> <Gold.Chemscore.DEInternal.Weighted>
2.7327

> <Gold.Chemscore.Rot.Weighted>
12.0933

> <Gold.Chemscore.Internal.Correction.Weighted>
   9.000000E+99

> <Gold.Protein.RotatedTorsions>
[ 6907 6896 6895 6894 ] final -107.31 input  -60.11 | X-H torsion
[ 7974 7965 7964 7962 ] final  140.24 input  175.53 | X-H torsion
[ 8008 7997 7996 7995 ] final  -26.62 input   59.86 | X-H torsion
[ 10167 10162 10161 10158 ] final -169.95 input  -65.29 | X-H torsion
[ 10718 10713 10712 10709 ] final  -85.99 input   66.30 | X-H torsion
[ 10763 10752 10751 10750 ] final -166.52 input  -60.55 | X-H torsion
[ 11005 11000 10999 10996 ] final -125.58 input  -57.11 | X-H torsion

> <Gold.Protein.ActiveResidues>
 VAL166  LYS551  ARG553  GLY616  TRP617  ASP618  TYR619  PRO620  LYS621  CYS622 
 ASP623  PHE694  ASN695  SER759  ASP760  ASP761  ALA762  ILE779  LEU786  VAL792 
 PHE793  MET794  SER795  GLU796  ALA797  LYS798  CYS799  TRP800  GLU811  SER814 

> <Gold.Protein.RotatedAtoms>
  150.7437  133.9846  159.3587 H   0  0  0  0  0  0  0  0  0  0  0  0  # atno 6907 bound_to 6896
  151.7790  135.0764  160.0380 H   0  0  0  0  0  0  0  0  0  0  0  0  # atno 6908 bound_to 6896
  152.3287  133.5897  159.5831 H   0  0  0  0  0  0  0  0  0  0  0  0  # atno 6909 bound_to 6896
  144.9204  139.5175  143.5666 H   0  0  0  0  0  0  0  0  0  0  0  0  # atno 7974 bound_to 7965
  154.4416  140.1894  156.0804 H   0  0  0  0  0  0  0  0  0  0  0  0  # atno 8008 bound_to 7997
  156.0443  140.3316  155.7252 H   0  0  0  0  0  0  0  0  0  0  0  0  # atno 8009 bound_to 7997
  155.5653  140.0607  157.2810 H   0  0  0  0  0  0  0  0  0  0  0  0  # atno 8010 bound_to 7997
  139.5891  144.1253  152.1612 H   0  0  0  0  0  0  0  0  0  0  0  0  # atno 10167 bound_to 10162
  155.9992  130.4750  150.4647 H   0  0  0  0  0  0  0  0  0  0  0  0  # atno 10718 bound_to 10713
  154.6825  135.2957  154.9593 H   0  0  0  0  0  0  0  0  0  0  0  0  # atno 10763 bound_to 10752
  154.0584  135.6635  153.4812 H   0  0  0  0  0  0  0  0  0  0  0  0  # atno 10764 bound_to 10752
  153.0557  135.5146  154.7875 H   0  0  0  0  0  0  0  0  0  0  0  0  # atno 10765 bound_to 10752
  140.9751  134.0752  157.3827 H   0  0  0  0  0  0  0  0  0  0  0  0  # atno 11005 bound_to 11000
  146.3202  139.8080  142.8952 LP  0  0  0  0  0  0  0  0  0  0  0  0  # atno 17320 bound_to 7965
  145.3305  141.0265  143.3449 LP  0  0  0  0  0  0  0  0  0  0  0  0  # atno 17321 bound_to 7965
  140.0823  144.5690  150.7113 LP  0  0  0  0  0  0  0  0  0  0  0  0  # atno 17342 bound_to 10162
  140.7157  143.2543  151.4440 LP  0  0  0  0  0  0  0  0  0  0  0  0  # atno 17343 bound_to 10162
  157.2668  131.0578  151.2285 LP  0  0  0  0  0  0  0  0  0  0  0  0  # atno 17370 bound_to 10713
  157.3380  130.7019  149.6364 LP  0  0  0  0  0  0  0  0  0  0  0  0  # atno 17371 bound_to 10713
  139.8927  135.0126  156.6861 LP  0  0  0  0  0  0  0  0  0  0  0  0  # atno 17394 bound_to 11000
  140.7271  133.9090  155.8186 LP  0  0  0  0  0  0  0  0  0  0  0  0  # atno 17395 bound_to 11000

$$$$
