AV-unprocessed.smi:1815|AV-procd|sdf|7356|dock8
  -GOLD-   22720 9 13D 1   1.00000     0.00000
 Structure written by MMmdl.
 40 41  0  0  0  0  0  0  0  0  2 V2000
  146.7572  134.3279  153.7683 C   0  0  0  0  0  0  0  0  0  0  0  0
  145.3537  134.7371  153.2872 C   0  0  1  0  0  0  0  0  0  0  0  0
  145.2761  136.1909  152.7814 C   0  0  0  0  0  0  0  0  0  0  0  0
  145.9230  136.3347  151.4554 N   0  3  2  0  0  0  0  0  0  0  0  0
  145.9211  137.7400  150.9788 C   0  0  0  0  0  0  0  0  0  0  0  0
  146.4051  138.7307  152.0552 C   0  0  0  0  0  0  0  0  0  0  0  0
  147.6795  138.3144  152.6287 N   0  0  0  0  0  0  0  0  0  0  0  0
  148.3279  138.9707  153.6019 C   0  0  0  0  0  0  0  0  0  0  0  0
  147.9063  140.0095  154.1118 O   0  0  0  0  0  0  0  0  0  0  0  0
  149.4758  138.3522  153.9300 N   0  0  0  0  0  0  0  0  0  0  0  0
  150.4302  138.7375  154.9081 C   0  0  0  0  0  0  0  0  0  0  0  0
  150.6456  140.0001  155.2957 N   0  0  0  0  0  0  0  0  0  0  0  0
  151.6406  140.0862  156.2728 C   0  0  0  0  0  0  0  0  0  0  0  0
  152.1770  138.8708  156.6186 C   0  0  0  0  0  0  0  0  0  0  0  0
  151.4479  137.5617  155.7271 S   0  0  0  0  0  0  0  0  0  0  0  0
  145.3354  135.3738  150.4911 C   0  0  0  0  0  0  0  0  0  0  0  0
  145.4632  133.9353  151.0239 C   0  0  2  0  0  0  0  0  0  0  0  0
  144.7926  132.9166  150.0955 C   0  0  0  0  0  0  0  0  0  0  0  0
  144.8372  133.8437  152.3009 O   0  0  0  0  0  0  0  0  0  0  0  0
  147.0683  134.9404  154.6151 H   0  0  0  0  0  0  0  0  0  0  0  0
  147.5126  134.4435  152.9915 H   0  0  0  0  0  0  0  0  0  0  0  0
  146.7681  133.2877  154.0943 H   0  0  0  0  0  0  0  0  0  0  0  0
  144.6899  134.6507  154.1481 H   0  0  0  0  0  0  0  0  0  0  0  0
  144.2315  136.4959  152.7006 H   0  0  0  0  0  0  0  0  0  0  0  0
  145.7439  136.8598  153.5053 H   0  0  0  0  0  0  0  0  0  0  0  0
  146.5252  137.8261  150.0743 H   0  0  0  0  0  0  0  0  0  0  0  0
  144.9021  138.0079  150.6953 H   0  0  0  0  0  0  0  0  0  0  0  0
  146.4932  139.7362  151.6397 H   0  0  0  0  0  0  0  0  0  0  0  0
  145.6896  138.7942  152.8741 H   0  0  0  0  0  0  0  0  0  0  0  0
  148.0923  137.4680  152.2643 H   0  0  0  0  0  0  0  0  0  0  0  0
  149.6932  137.5072  153.4229 H   0  0  0  0  0  0  0  0  0  0  0  0
  151.9053  141.0557  156.6683 H   0  0  0  0  0  0  0  0  0  0  0  0
  152.9532  138.6675  157.3413 H   0  0  0  0  0  0  0  0  0  0  0  0
  144.2869  135.6234  150.3194 H   0  0  0  0  0  0  0  0  0  0  0  0
  145.8415  135.4425  149.5290 H   0  0  0  0  0  0  0  0  0  0  0  0
  146.5171  133.6695  151.1098 H   0  0  0  0  0  0  0  0  0  0  0  0
  145.2374  132.9393  149.1003 H   0  0  0  0  0  0  0  0  0  0  0  0
  143.7262  133.1189  149.9905 H   0  0  0  0  0  0  0  0  0  0  0  0
  144.9023  131.9041  150.4847 H   0  0  0  0  0  0  0  0  0  0  0  0
  146.8911  136.0756  151.5822 H   0  0  0  0  0  0  0  0  0  0  0  0
  1  2  1  0  0  0  0
  1 20  1  0  0  0  0
  1 21  1  0  0  0  0
  1 22  1  0  0  0  0
  2 19  1  0  0  0  0
  2  3  1  0  0  0  0
  2 23  1  0  0  0  0
  3  4  1  0  0  0  0
  3 24  1  0  0  0  0
  3 25  1  0  0  0  0
  4  5  1  0  0  0  0
  4 16  1  0  0  0  0
  4 40  1  0  0  0  0
  5  6  1  0  0  0  0
  5 26  1  0  0  0  0
  5 27  1  0  0  0  0
  6  7  1  0  0  0  0
  6 28  1  0  0  0  0
  6 29  1  0  0  0  0
  7  8  1  0  0  0  0
  7 30  1  0  0  0  0
  8  9  2  0  0  0  0
  8 10  1  0  0  0  0
 10 11  1  0  0  0  0
 10 31  1  0  0  0  0
 11 15  1  0  0  0  0
 11 12  2  0  0  0  0
 12 13  1  0  0  0  0
 13 14  2  0  0  0  0
 13 32  1  0  0  0  0
 14 15  1  0  0  0  0
 14 33  1  0  0  0  0
 16 17  1  0  0  0  0
 16 34  1  0  0  0  0
 16 35  1  0  0  0  0
 17 18  1  0  0  0  0
 17 19  1  0  0  0  0
 17 36  1  0  0  0  0
 18 37  1  0  0  0  0
 18 38  1  0  0  0  0
 18 39  1  0  0  0  0
M  CHG  1   4   1
M  END
> <s_m_source_file>
AV-unprocessed.smi

> <i_m_source_file_index>
1815

> <i_lp_mmshare_version>
43012

> <i_f3d_flags>
0

> <s_epik_input>
W0NIM11bQ0BASF0xW0NIMl1OKFtDSDJdW0NASF0oTzEpW0NIM10pW0NIMl1bQ0gyXVtOSF1DKD1PKVtOSF1jMm5bY0hdW2NIXXMy

> <s_epik_cmdline>
J2VwaWtfcHl0aG9uJywgJy1waCcsICc3LjAnLCAnLXRuJywgJzgnLCAnLW1hJywgJzIwMCcsICctbWV0YWxfYmluZGluZycsICctaW1hZScsICc8aW5maWxlLm1hZT4nLCAnLW9tYWUnLCAnPG91dGZpbGUubWFlPic=

> <r_lp_tautomer_probability>
0.999

> <r_epik_Ionization_Penalty>
0.695838

> <r_epik_Ionization_Penalty_Charging>
0.695697

> <r_epik_Ionization_Penalty_Neutral>
0.000141198

> <r_epik_State_Penalty>
0.717972

> <r_epik_Charging_Adjusted_Penalty>
1.41367

> <i_epik_Tot_Q>
1

> <i_epik_Tot_abs_Q>
1

> <r_epik_Metal_State_Penalty>
0.756405

> <b_epik_Metal_Only>
0

> <s_lp_Force_Field>
OPLS_2005

> <r_lp_Energy>
15.0285

> <b_lp_Chiralities_Consistent>
1

> <s_lp_Variant>
AV-unprocessed.smi:1815-7

> <Gold.Version>
5.8.1

> <Gold.Id.Protein>
6NUR|6NUR_protein|mol2

> <Gold.PLP.Fitness>
43.3534

> <Gold.PLP.PLP>
-29.1830

> <Gold.PLP.part.hbond>
-5.9892

> <Gold.PLP.part.metal>
0.0000

> <Gold.PLP.part.buried>
4.4795

> <Gold.PLP.part.nonpolar>
-29.3487

> <Gold.PLP.part.repulsive>
0.4649

> <Gold.PLP.ligand.clash>
0.0000

> <Gold.PLP.ligand.torsion>
0.2305

> <Gold.PLP.Chemscore.Hbond>
4.8723

> <Gold.PLP.Chemscore.CHOScore>
0.0000

> <Gold.PLP.Chemscore.Metal>
0.0000

> <Gold.Chemscore.Hbonds>
donor molecule, donor type, donor heavy atom, donor atom, acceptor molecule, acceptor atom, score
      L1  H     4    40       P1  7948  1.89
      L1  H     7    30       P1  7948  1.00
      L1  H    10    31       P1  7948  0.69
      P1  H  7989  7998       L1    12  0.50

> <Gold.PLP.Chemscore.Internal.Correction>
0.0145

> <Gold.Rescore>
     Score         DG    S(hbond)    S(metal)    S(lipo)     H(rot)  DE(clash)    DE(int)     intcor
     17.54     -19.80       3.22        0.00      66.25       1.64       1.80       0.46       ----

> <Gold.Chemscore.Fitness>
17.5435

> <Gold.Chemscore.DG>
-19.7997

> <Gold.Chemscore.ZeroCoef>
-5.4800

> <Gold.Chemscore.Hbond>
3.2223

> <Gold.Chemscore.Metal>
0.0000

> <Gold.Chemscore.Lipo>
66.2528

> <Gold.Chemscore.Internal_Hbond>
0.0000

> <Gold.Chemscore.DEClash>
1.8008

> <Gold.Chemscore.DEInternal>
0.4554

> <Gold.Chemscore.Rot>
1.6385

> <Gold.Chemscore.Internal.Correction>
   9.000000E+99

> <Gold.Chemscore.Hbonds>
donor molecule, donor type, donor heavy atom, donor atom, acceptor molecule, acceptor atom, score
      L1  H     4    40       P1  7948  0.90
      L1  H     7    30       P1  7948  0.94
      L1  H    10    31       P1  7948  0.52
      P1  H  7989  7998       L1    12  0.07

> <Gold.Chemscore.Hbond.Weighted>
-10.7626

> <Gold.Chemscore.Metal.Weighted>
-0.0000

> <Gold.Chemscore.Lipo.Weighted>
-7.7516

> <Gold.Chemscore.Internal_Hbond.Weighted>
0.0000

> <Gold.Chemscore.DEClash.Weighted>
1.8008

> <Gold.Chemscore.DEInternal.Weighted>
0.4554

> <Gold.Chemscore.Rot.Weighted>
4.1945

> <Gold.Chemscore.Internal.Correction.Weighted>
   9.000000E+99

> <Gold.Protein.RotatedTorsions>
[ 6907 6896 6895 6894 ] final -142.15 input  -60.11 | X-H torsion
[ 7974 7965 7964 7962 ] final -121.90 input  175.53 | X-H torsion
[ 8008 7997 7996 7995 ] final  -16.63 input   59.86 | X-H torsion
[ 10167 10162 10161 10158 ] final   85.98 input  -65.29 | X-H torsion
[ 10718 10713 10712 10709 ] final  -28.26 input   66.30 | X-H torsion
[ 10763 10752 10751 10750 ] final -135.04 input  -60.55 | X-H torsion
[ 11005 11000 10999 10996 ] final  100.11 input  -57.11 | X-H torsion

> <Gold.Protein.ActiveResidues>
 VAL166  LYS551  ARG553  GLY616  TRP617  ASP618  TYR619  PRO620  LYS621  CYS622 
 ASP623  PHE694  ASN695  SER759  ASP760  ASP761  ALA762  ILE779  LEU786  VAL792 
 PHE793  MET794  SER795  GLU796  ALA797  LYS798  CYS799  TRP800  GLU811  SER814 

> <Gold.Protein.RotatedAtoms>
  151.0832  133.5374  159.2619 H   0  0  0  0  0  0  0  0  0  0  0  0  # atno 6907 bound_to 6896
  151.2269  135.0539  159.8982 H   0  0  0  0  0  0  0  0  0  0  0  0  # atno 6908 bound_to 6896
  152.5426  134.0626  159.8212 H   0  0  0  0  0  0  0  0  0  0  0  0  # atno 6909 bound_to 6896
  145.0353  140.8101  143.4299 H   0  0  0  0  0  0  0  0  0  0  0  0  # atno 7974 bound_to 7965
  154.5038  140.2164  155.9292 H   0  0  0  0  0  0  0  0  0  0  0  0  # atno 8008 bound_to 7997
  156.1468  140.3169  155.8550 H   0  0  0  0  0  0  0  0  0  0  0  0  # atno 8009 bound_to 7997
  155.4016  140.0484  157.3027 H   0  0  0  0  0  0  0  0  0  0  0  0  # atno 8010 bound_to 7997
  139.8922  144.6379  150.8727 H   0  0  0  0  0  0  0  0  0  0  0  0  # atno 10167 bound_to 10162
  156.4276  130.4438  149.7140 H   0  0  0  0  0  0  0  0  0  0  0  0  # atno 10718 bound_to 10713
  154.8709  135.3716  154.4833 H   0  0  0  0  0  0  0  0  0  0  0  0  # atno 10763 bound_to 10752
  153.5485  135.7025  153.5607 H   0  0  0  0  0  0  0  0  0  0  0  0  # atno 10764 bound_to 10752
  153.3737  135.4015  155.1771 H   0  0  0  0  0  0  0  0  0  0  0  0  # atno 10765 bound_to 10752
  139.8771  134.9125  156.4706 H   0  0  0  0  0  0  0  0  0  0  0  0  # atno 11005 bound_to 11000
  145.1718  139.2400  143.5338 LP  0  0  0  0  0  0  0  0  0  0  0  0  # atno 17320 bound_to 7965
  146.3503  140.1470  142.8593 LP  0  0  0  0  0  0  0  0  0  0  0  0  # atno 17321 bound_to 7965
  140.7724  143.3501  151.2031 LP  0  0  0  0  0  0  0  0  0  0  0  0  # atno 17342 bound_to 10162
  139.7100  143.9393  152.2943 LP  0  0  0  0  0  0  0  0  0  0  0  0  # atno 17343 bound_to 10162
  156.4056  130.7696  151.2707 LP  0  0  0  0  0  0  0  0  0  0  0  0  # atno 17370 bound_to 10713
  157.7508  131.0227  150.3802 LP  0  0  0  0  0  0  0  0  0  0  0  0  # atno 17371 bound_to 10713
  140.8798  133.7926  155.9454 LP  0  0  0  0  0  0  0  0  0  0  0  0  # atno 17394 bound_to 11000
  140.8866  134.2547  157.5117 LP  0  0  0  0  0  0  0  0  0  0  0  0  # atno 17395 bound_to 11000

$$$$
