AV-unprocessed.smi:3150|AV-procd|sdf|12007|dock6
  -GOLD-   2272017413D 1   1.00000     0.00000
 Structure written by MMmdl.
 33 34  0  0  0  0  0  0  0  0  1 V2000
  152.5187  138.5972  154.7670 C   0  0  0  0  0  0  0  0  0  0  0  0
  151.3451  139.2566  155.5069 C   0  0  2  0  0  0  0  0  0  0  0  0
  150.7208  140.1630  154.6014 O   0  0  0  0  0  0  0  0  0  0  0  0
  149.3414  139.9224  154.3512 C   0  0  0  0  0  0  0  0  0  0  0  0
  148.7333  141.1669  153.7423 C   0  0  0  0  0  0  0  0  0  0  0  0
  147.5032  141.7994  154.3525 C   0  0  0  0  0  0  0  0  0  0  0  0
  147.4054  141.0959  153.0228 C   0  0  0  0  0  0  0  0  0  0  0  0
  151.8204  140.0003  156.7659 C   0  0  0  0  0  0  0  0  0  0  0  0
  152.6598  139.4804  157.5021 O   0  0  0  0  0  0  0  0  0  0  0  0
  151.2741  141.2142  156.9654 N   0  0  0  0  0  0  0  0  0  0  0  0
  151.5198  142.1361  158.0201 C   0  0  0  0  0  0  0  0  0  0  0  0
  151.7440  141.7524  159.3021 N   0  0  0  0  0  0  0  0  0  0  0  0
  151.9696  142.6908  160.2449 C   0  0  0  0  0  0  0  0  0  0  0  0
  151.9850  144.0697  159.9693 C   0  0  0  0  0  0  0  0  0  0  0  0
  151.7543  144.4828  158.6457 C   0  0  0  0  0  0  0  0  0  0  0  0
  151.5184  143.5072  157.6564 C   0  0  0  0  0  0  0  0  0  0  0  0
  151.2941  143.9024  156.3664 O   0  0  0  0  0  0  0  0  0  0  0  0
  153.0528  137.8991  155.4128 H   0  0  0  0  0  0  0  0  0  0  0  0
  153.2348  139.3375  154.4077 H   0  0  0  0  0  0  0  0  0  0  0  0
  152.1630  138.0379  153.9015 H   0  0  0  0  0  0  0  0  0  0  0  0
  150.6345  138.4751  155.7834 H   0  0  0  0  0  0  0  0  0  0  0  0
  149.2224  139.0938  153.6521 H   0  0  0  0  0  0  0  0  0  0  0  0
  148.8054  139.6681  155.2664 H   0  0  0  0  0  0  0  0  0  0  0  0
  149.4653  141.8518  153.3184 H   0  0  0  0  0  0  0  0  0  0  0  0
  147.0565  141.3089  155.2153 H   0  0  0  0  0  0  0  0  0  0  0  0
  147.4464  142.8860  154.3531 H   0  0  0  0  0  0  0  0  0  0  0  0
  147.2814  141.7130  152.1353 H   0  0  0  0  0  0  0  0  0  0  0  0
  146.8897  140.1377  152.9998 H   0  0  0  0  0  0  0  0  0  0  0  0
  150.6034  141.5211  156.2758 H   0  0  0  0  0  0  0  0  0  0  0  0
  152.1428  142.3310  161.2484 H   0  0  0  0  0  0  0  0  0  0  0  0
  152.1693  144.7899  160.7525 H   0  0  0  0  0  0  0  0  0  0  0  0
  151.7584  145.5333  158.3945 H   0  0  0  0  0  0  0  0  0  0  0  0
  150.4524  144.3150  156.2464 H   0  0  0  0  0  0  0  0  0  0  0  0
  1  2  1  0  0  0  0
  1 18  1  0  0  0  0
  1 19  1  0  0  0  0
  1 20  1  0  0  0  0
  2  3  1  0  0  0  0
  2  8  1  0  0  0  0
  2 21  1  0  0  0  0
  3  4  1  0  0  0  0
  4  5  1  0  0  0  0
  4 22  1  0  0  0  0
  4 23  1  0  0  0  0
  5  7  1  0  0  0  0
  5  6  1  0  0  0  0
  5 24  1  0  0  0  0
  6  7  1  0  0  0  0
  6 25  1  0  0  0  0
  6 26  1  0  0  0  0
  7 27  1  0  0  0  0
  7 28  1  0  0  0  0
  8  9  2  0  0  0  0
  8 10  1  0  0  0  0
 10 11  1  0  0  0  0
 10 29  1  0  0  0  0
 11 16  1  0  0  0  0
 11 12  2  0  0  0  0
 12 13  1  0  0  0  0
 13 14  2  0  0  0  0
 13 30  1  0  0  0  0
 14 15  1  0  0  0  0
 14 31  1  0  0  0  0
 15 16  2  0  0  0  0
 15 32  1  0  0  0  0
 16 17  1  0  0  0  0
 17 33  1  0  0  0  0
M  END
> <s_m_source_file>
AV-unprocessed.smi

> <i_m_source_file_index>
3150

> <i_lp_mmshare_version>
43012

> <i_f3d_flags>
0

> <s_epik_input>
W0NIMl0xW0NIMl1bQ0hdMVtDSDJdT1tDQEBIXShbQ0gzXSlDKD1PKVtOSF1jMm5bY0hdW2NIXVtjSF1jMltPSF0=

> <s_epik_cmdline>
J2VwaWtfcHl0aG9uJywgJy1waCcsICc3LjAnLCAnLXRuJywgJzgnLCAnLW1hJywgJzIwMCcsICctbWV0YWxfYmluZGluZycsICctaW1hZScsICc8aW5maWxlLm1hZT4nLCAnLW9tYWUnLCAnPG91dGZpbGUubWFlPic=

> <r_lp_tautomer_probability>
0.43658

> <r_epik_Ionization_Penalty>
0.0204299

> <r_epik_Ionization_Penalty_Charging>
0

> <r_epik_Ionization_Penalty_Neutral>
0.0204299

> <r_epik_State_Penalty>
0.419322

> <r_epik_Charging_Adjusted_Penalty>
0.419322

> <i_epik_Tot_Q>
0

> <i_epik_Tot_abs_Q>
0

> <r_epik_Metal_State_Penalty>
0.377394

> <b_epik_Metal_Only>
0

> <s_lp_Force_Field>
OPLS_2005

> <r_lp_Energy>
16.2266

> <b_lp_Chiralities_Consistent>
1

> <s_lp_Variant>
AV-unprocessed.smi:3150-1

> <Gold.Version>
5.8.1

> <Gold.Id.Protein>
6NUR|6NUR_protein|mol2

> <Gold.PLP.Fitness>
47.9563

> <Gold.PLP.PLP>
-42.3718

> <Gold.PLP.part.hbond>
-3.0000

> <Gold.PLP.part.metal>
0.0000

> <Gold.PLP.part.buried>
-4.3158

> <Gold.PLP.part.nonpolar>
-34.1005

> <Gold.PLP.part.repulsive>
0.1743

> <Gold.PLP.ligand.clash>
0.0000

> <Gold.PLP.ligand.torsion>
1.9864

> <Gold.PLP.Chemscore.Hbond>
3.0000

> <Gold.PLP.Chemscore.CHOScore>
0.0000

> <Gold.PLP.Chemscore.Metal>
0.0000

> <Gold.Chemscore.Hbonds>
donor molecule, donor type, donor heavy atom, donor atom, acceptor molecule, acceptor atom, score
      L1  H    17    33       P1  8028  1.00
      P1  H  7989  7998       L1     3  1.00
      P1  H  7997  8009       L1     9  1.00

> <Gold.PLP.Chemscore.Internal.Correction>
0.5573

> <Gold.Rescore>
     Score         DG    S(hbond)    S(metal)    S(lipo)     H(rot)  DE(clash)    DE(int)     intcor
     17.46     -19.71       2.75        0.00      91.70       2.22       0.03       2.23       ----

> <Gold.Chemscore.Fitness>
17.4573

> <Gold.Chemscore.DG>
-19.7087

> <Gold.Chemscore.ZeroCoef>
-5.4800

> <Gold.Chemscore.Hbond>
2.7486

> <Gold.Chemscore.Metal>
0.0000

> <Gold.Chemscore.Lipo>
91.7050

> <Gold.Chemscore.Internal_Hbond>
0.0000

> <Gold.Chemscore.DEClash>
0.0263

> <Gold.Chemscore.DEInternal>
2.2252

> <Gold.Chemscore.Rot>
2.2192

> <Gold.Chemscore.Internal.Correction>
   9.000000E+99

> <Gold.Chemscore.Hbonds>
donor molecule, donor type, donor heavy atom, donor atom, acceptor molecule, acceptor atom, score
      L1  H    17    33       P1  8028  1.00
      P1  H  7989  7998       L1     3  0.92
      P1  H  7997  8009       L1     9  0.62

> <Gold.Chemscore.Hbond.Weighted>
-9.1805

> <Gold.Chemscore.Metal.Weighted>
-0.0000

> <Gold.Chemscore.Lipo.Weighted>
-10.7295

> <Gold.Chemscore.Internal_Hbond.Weighted>
0.0000

> <Gold.Chemscore.DEClash.Weighted>
0.0263

> <Gold.Chemscore.DEInternal.Weighted>
2.2252

> <Gold.Chemscore.Rot.Weighted>
5.6812

> <Gold.Chemscore.Internal.Correction.Weighted>
   9.000000E+99

> <Gold.Protein.RotatedTorsions>
[ 6907 6896 6895 6894 ] final    9.33 input  -60.11 | X-H torsion
[ 7974 7965 7964 7962 ] final   31.08 input  175.53 | X-H torsion
[ 8008 7997 7996 7995 ] final  164.01 input   59.86 | X-H torsion
[ 10167 10162 10161 10158 ] final    7.25 input  -65.29 | X-H torsion
[ 10718 10713 10712 10709 ] final  176.59 input   66.30 | X-H torsion
[ 10763 10752 10751 10750 ] final   79.81 input  -60.55 | X-H torsion
[ 11005 11000 10999 10996 ] final -171.84 input  -57.11 | X-H torsion

> <Gold.Protein.ActiveResidues>
 VAL166  LYS551  ARG553  GLY616  TRP617  ASP618  TYR619  PRO620  LYS621  CYS622 
 ASP623  PHE694  ASN695  SER759  ASP760  ASP761  ALA762  ILE779  LEU786  VAL792 
 PHE793  MET794  SER795  GLU796  ALA797  LYS798  CYS799  TRP800  GLU811  SER814 

> <Gold.Protein.RotatedAtoms>
  151.7204  135.0895  160.0282 H   0  0  0  0  0  0  0  0  0  0  0  0  # atno 6907 bound_to 6896
  152.3606  133.6287  159.6020 H   0  0  0  0  0  0  0  0  0  0  0  0  # atno 6908 bound_to 6896
  150.7601  133.9346  159.3479 H   0  0  0  0  0  0  0  0  0  0  0  0  # atno 6909 bound_to 6896
  146.1572  139.6703  142.9058 H   0  0  0  0  0  0  0  0  0  0  0  0  # atno 7974 bound_to 7965
  156.1913  140.1708  156.8086 H   0  0  0  0  0  0  0  0  0  0  0  0  # atno 8008 bound_to 7997
  154.5475  140.0724  156.8645 H   0  0  0  0  0  0  0  0  0  0  0  0  # atno 8009 bound_to 7997
  155.3093  140.3366  155.4247 H   0  0  0  0  0  0  0  0  0  0  0  0  # atno 8010 bound_to 7997
  140.6382  143.7836  150.7390 H   0  0  0  0  0  0  0  0  0  0  0  0  # atno 10167 bound_to 10162
  156.9178  130.9931  151.3010 H   0  0  0  0  0  0  0  0  0  0  0  0  # atno 10718 bound_to 10713
  153.0983  135.4826  154.8819 H   0  0  0  0  0  0  0  0  0  0  0  0  # atno 10763 bound_to 10752
  154.7349  135.3069  154.8830 H   0  0  0  0  0  0  0  0  0  0  0  0  # atno 10764 bound_to 10752
  153.9455  135.6829  153.4797 H   0  0  0  0  0  0  0  0  0  0  0  0  # atno 10765 bound_to 10752
  140.5037  134.5869  157.4996 H   0  0  0  0  0  0  0  0  0  0  0  0  # atno 11005 bound_to 11000
  145.4679  141.0435  143.2715 LP  0  0  0  0  0  0  0  0  0  0  0  0  # atno 17320 bound_to 7965
  144.7979  139.6198  143.7084 LP  0  0  0  0  0  0  0  0  0  0  0  0  # atno 17321 bound_to 7965
  140.1462  143.4397  152.2161 LP  0  0  0  0  0  0  0  0  0  0  0  0  # atno 17342 bound_to 10162
  139.5592  144.7394  151.4205 LP  0  0  0  0  0  0  0  0  0  0  0  0  # atno 17343 bound_to 10162
  157.5927  130.8455  149.8682 LP  0  0  0  0  0  0  0  0  0  0  0  0  # atno 17370 bound_to 10713
  156.0505  130.3718  150.1213 LP  0  0  0  0  0  0  0  0  0  0  0  0  # atno 17371 bound_to 10713
  139.9699  134.7311  156.0063 LP  0  0  0  0  0  0  0  0  0  0  0  0  # atno 17394 bound_to 11000
  141.1422  133.6562  156.3763 LP  0  0  0  0  0  0  0  0  0  0  0  0  # atno 17395 bound_to 11000

$$$$
