AV-unprocessed.smi:565|AV-procd|sdf|2953|dock9
  -GOLD-   2262023453D 1   1.00000     0.00000
 Structure written by MMmdl.
 50 51  0  0  0  0  0  0  0  0  2 V2000
  148.7008  136.8743  158.6587 C   0  0  0  0  0  0  0  0  0  0  0  0
  148.2277  136.2565  159.9434 C   0  0  0  0  0  0  0  0  0  0  0  0
  147.9589  137.0345  160.9785 N   0  0  0  0  0  0  0  0  0  0  0  0
  147.5598  136.1890  161.9500 N   0  0  0  0  0  0  0  0  0  0  0  0
  147.1803  136.7199  163.2447 C   0  0  0  0  0  0  0  0  0  0  0  0
  147.5779  134.8741  161.5278 C   0  0  0  0  0  0  0  0  0  0  0  0
  147.1704  133.7466  162.4208 C   0  0  0  0  0  0  0  0  0  0  0  0
  148.0095  134.8764  160.2280 C   0  0  0  0  0  0  0  0  0  0  0  0
  148.2068  133.7077  159.2966 C   0  0  0  0  0  0  0  0  0  0  0  0
  147.1554  133.7530  158.1866 C   0  0  0  0  0  0  0  0  0  0  0  0
  145.9573  133.7472  158.4701 O   0  0  0  0  0  0  0  0  0  0  0  0
  147.6136  133.8080  156.9265 N   0  0  0  0  0  0  0  0  0  0  0  0
  146.7787  133.9165  155.7361 C   0  0  0  0  0  0  0  0  0  0  0  0
  147.3837  134.8766  154.6919 C   0  0  0  0  0  0  0  0  0  0  0  0
  146.8447  134.6471  153.3277 N   0  3  1  0  0  0  0  0  0  0  0  0
  147.1079  133.2659  152.8476 C   0  0  0  0  0  0  0  0  0  0  0  0
  146.6894  133.1002  151.3782 C   0  0  0  0  0  0  0  0  0  0  0  0
  145.2154  133.4802  151.1784 C   0  0  0  0  0  0  0  0  0  0  0  0
  144.9204  134.8858  151.7336 C   0  0  2  0  0  0  0  0  0  0  0  0
  145.4796  136.0085  150.8418 C   0  0  0  0  0  0  0  0  0  0  0  0
  145.4054  135.0043  153.1935 C   0  0  0  0  0  0  0  0  0  0  0  0
  148.0758  136.5604  157.8228 H   0  0  0  0  0  0  0  0  0  0  0  0
  149.7254  136.5751  158.4380 H   0  0  0  0  0  0  0  0  0  0  0  0
  148.6748  137.9639  158.6986 H   0  0  0  0  0  0  0  0  0  0  0  0
  147.8666  136.3497  164.0065 H   0  0  0  0  0  0  0  0  0  0  0  0
  146.1679  136.3989  163.4907 H   0  0  0  0  0  0  0  0  0  0  0  0
  147.2116  137.8101  163.2395 H   0  0  0  0  0  0  0  0  0  0  0  0
  147.2302  132.7891  161.9038 H   0  0  0  0  0  0  0  0  0  0  0  0
  146.1430  133.8745  162.7615 H   0  0  0  0  0  0  0  0  0  0  0  0
  147.8157  133.6941  163.2978 H   0  0  0  0  0  0  0  0  0  0  0  0
  149.2076  133.7148  158.8625 H   0  0  0  0  0  0  0  0  0  0  0  0
  148.1168  132.7568  159.8220 H   0  0  0  0  0  0  0  0  0  0  0  0
  148.6139  133.8098  156.7868 H   0  0  0  0  0  0  0  0  0  0  0  0
  146.6288  132.9177  155.3262 H   0  0  0  0  0  0  0  0  0  0  0  0
  145.7968  134.2759  156.0452 H   0  0  0  0  0  0  0  0  0  0  0  0
  147.1538  135.8972  155.0019 H   0  0  0  0  0  0  0  0  0  0  0  0
  148.4717  134.8018  154.6664 H   0  0  0  0  0  0  0  0  0  0  0  0
  148.1696  133.0355  152.9419 H   0  0  0  0  0  0  0  0  0  0  0  0
  146.5716  132.5524  153.4757 H   0  0  0  0  0  0  0  0  0  0  0  0
  147.3240  133.7188  150.7428 H   0  0  0  0  0  0  0  0  0  0  0  0
  146.8519  132.0701  151.0596 H   0  0  0  0  0  0  0  0  0  0  0  0
  144.9476  133.4201  150.1229 H   0  0  0  0  0  0  0  0  0  0  0  0
  144.5880  132.7519  151.6942 H   0  0  0  0  0  0  0  0  0  0  0  0
  143.8369  135.0112  151.7389 H   0  0  0  0  0  0  0  0  0  0  0  0
  146.5679  135.9831  150.7874 H   0  0  0  0  0  0  0  0  0  0  0  0
  145.1928  136.9896  151.2218 H   0  0  0  0  0  0  0  0  0  0  0  0
  145.0952  135.9276  149.8248 H   0  0  0  0  0  0  0  0  0  0  0  0
  144.8153  134.3449  153.8323 H   0  0  0  0  0  0  0  0  0  0  0  0
  145.2216  136.0180  153.5469 H   0  0  0  0  0  0  0  0  0  0  0  0
  147.3578  135.2611  152.7116 H   0  0  0  0  0  0  0  0  0  0  0  0
  1  2  1  0  0  0  0
  1 22  1  0  0  0  0
  1 23  1  0  0  0  0
  1 24  1  0  0  0  0
  2  8  1  0  0  0  0
  2  3  2  0  0  0  0
  3  4  1  0  0  0  0
  4  5  1  0  0  0  0
  4  6  1  0  0  0  0
  5 25  1  0  0  0  0
  5 26  1  0  0  0  0
  5 27  1  0  0  0  0
  6  7  1  0  0  0  0
  6  8  2  0  0  0  0
  7 28  1  0  0  0  0
  7 29  1  0  0  0  0
  7 30  1  0  0  0  0
  8  9  1  0  0  0  0
  9 10  1  0  0  0  0
  9 31  1  0  0  0  0
  9 32  1  0  0  0  0
 10 11  2  0  0  0  0
 10 12  1  0  0  0  0
 12 13  1  0  0  0  0
 12 33  1  0  0  0  0
 13 14  1  0  0  0  0
 13 34  1  0  0  0  0
 13 35  1  0  0  0  0
 14 15  1  0  0  0  0
 14 36  1  0  0  0  0
 14 37  1  0  0  0  0
 15 21  1  0  0  0  0
 15 16  1  0  0  0  0
 15 50  1  0  0  0  0
 16 17  1  0  0  0  0
 16 38  1  0  0  0  0
 16 39  1  0  0  0  0
 17 18  1  0  0  0  0
 17 40  1  0  0  0  0
 17 41  1  0  0  0  0
 18 19  1  0  0  0  0
 18 42  1  0  0  0  0
 18 43  1  0  0  0  0
 19 20  1  0  0  0  0
 19 21  1  0  0  0  0
 19 44  1  0  0  0  0
 20 45  1  0  0  0  0
 20 46  1  0  0  0  0
 20 47  1  0  0  0  0
 21 48  1  0  0  0  0
 21 49  1  0  0  0  0
M  CHG  1  15   1
M  END
> <s_m_source_file>
AV-unprocessed.smi

> <i_m_source_file_index>
565

> <i_lp_mmshare_version>
43012

> <i_f3d_flags>
0

> <s_epik_input>
W0NIM11jMW5uKFtDSDNdKWMoW0NIM10pYzFbQ0gyXUMoPU8pW05IXVtDSDJdW0NIMl1OMltDSDJdW0NIMl1bQ0gyXVtDQEBIXShbQ0gzXSlbQ0gyXTI=

> <s_epik_cmdline>
J2VwaWtfcHl0aG9uJywgJy1waCcsICc3LjAnLCAnLXRuJywgJzgnLCAnLW1hJywgJzIwMCcsICctbWV0YWxfYmluZGluZycsICctaW1hZScsICc8aW5maWxlLm1hZT4nLCAnLW9tYWUnLCAnPG91dGZpbGUubWFlPic=

> <r_lp_tautomer_probability>
1

> <r_epik_Ionization_Penalty>
0.00411138

> <r_epik_Ionization_Penalty_Charging>
0.0019503

> <r_epik_Ionization_Penalty_Neutral>
0.00216107

> <r_epik_State_Penalty>
-0

> <r_epik_Charging_Adjusted_Penalty>
0.0019503

> <i_epik_Tot_Q>
1

> <i_epik_Tot_abs_Q>
1

> <r_epik_Metal_State_Penalty>
-0

> <b_epik_Metal_Only>
0

> <s_lp_Force_Field>
OPLS_2005

> <r_lp_Energy>
13.161

> <b_lp_Chiralities_Consistent>
1

> <s_lp_Variant>
AV-unprocessed.smi:565-3

> <Gold.Version>
5.8.1

> <Gold.Id.Protein>
6NUR|6NUR_protein|mol2

> <Gold.PLP.Fitness>
44.8811

> <Gold.PLP.PLP>
-34.4398

> <Gold.PLP.part.hbond>
-3.0000

> <Gold.PLP.part.metal>
0.0000

> <Gold.PLP.part.buried>
-4.0163

> <Gold.PLP.part.nonpolar>
-28.2820

> <Gold.PLP.part.repulsive>
0.0040

> <Gold.PLP.ligand.clash>
0.0000

> <Gold.PLP.ligand.torsion>
0.3298

> <Gold.PLP.Chemscore.Hbond>
3.6928

> <Gold.PLP.Chemscore.CHOScore>
0.0000

> <Gold.PLP.Chemscore.Metal>
0.0000

> <Gold.Chemscore.Hbonds>
donor molecule, donor type, donor heavy atom, donor atom, acceptor molecule, acceptor atom, score
      L1  H    15    50       P1  7948  2.00
      P1  H  6931  6943       L1     3  0.99
      P1  H  6934  6947       L1     3  0.59

> <Gold.PLP.Chemscore.Internal.Correction>
0.0224

> <Gold.Rescore>
     Score         DG    S(hbond)    S(metal)    S(lipo)     H(rot)  DE(clash)    DE(int)     intcor
     17.54     -18.13       2.23        0.00      79.64       1.61       0.19       0.39       ----

> <Gold.Chemscore.Fitness>
17.5450

> <Gold.Chemscore.DG>
-18.1291

> <Gold.Chemscore.ZeroCoef>
-5.4800

> <Gold.Chemscore.Hbond>
2.2345

> <Gold.Chemscore.Metal>
0.0000

> <Gold.Chemscore.Lipo>
79.6446

> <Gold.Chemscore.Internal_Hbond>
0.0000

> <Gold.Chemscore.DEClash>
0.1906

> <Gold.Chemscore.DEInternal>
0.3936

> <Gold.Chemscore.Rot>
1.6142

> <Gold.Chemscore.Internal.Correction>
   9.000000E+99

> <Gold.Chemscore.Hbonds>
donor molecule, donor type, donor heavy atom, donor atom, acceptor molecule, acceptor atom, score
      L1  H    15    50       P1  7948  0.93
      P1  H  6931  6943       L1     3  0.37
      P1  H  6934  6947       L1     3  0.57

> <Gold.Chemscore.Hbond.Weighted>
-7.4631

> <Gold.Chemscore.Metal.Weighted>
-0.0000

> <Gold.Chemscore.Lipo.Weighted>
-9.3184

> <Gold.Chemscore.Internal_Hbond.Weighted>
0.0000

> <Gold.Chemscore.DEClash.Weighted>
0.1906

> <Gold.Chemscore.DEInternal.Weighted>
0.3936

> <Gold.Chemscore.Rot.Weighted>
4.1324

> <Gold.Chemscore.Internal.Correction.Weighted>
   9.000000E+99

> <Gold.Protein.RotatedTorsions>
[ 6907 6896 6895 6894 ] final -179.57 input  -60.11 | X-H torsion
[ 7974 7965 7964 7962 ] final -107.28 input  175.53 | X-H torsion
[ 8008 7997 7996 7995 ] final  -89.14 input   59.86 | X-H torsion
[ 10167 10162 10161 10158 ] final   79.91 input  -65.29 | X-H torsion
[ 10718 10713 10712 10709 ] final -159.83 input   66.30 | X-H torsion
[ 10763 10752 10751 10750 ] final   70.37 input  -60.55 | X-H torsion
[ 11005 11000 10999 10996 ] final   66.94 input  -57.11 | X-H torsion

> <Gold.Protein.ActiveResidues>
 VAL166  LYS551  ARG553  GLY616  TRP617  ASP618  TYR619  PRO620  LYS621  CYS622 
 ASP623  PHE694  ASN695  SER759  ASP760  ASP761  ALA762  ILE779  LEU786  VAL792 
 PHE793  MET794  SER795  GLU796  ALA797  LYS798  CYS799  TRP800  GLU811  SER814 

> <Gold.Protein.RotatedAtoms>
  151.6556  133.3319  159.3161 H   0  0  0  0  0  0  0  0  0  0  0  0  # atno 6907 bound_to 6896
  150.7939  134.6987  159.6547 H   0  0  0  0  0  0  0  0  0  0  0  0  # atno 6908 bound_to 6896
  152.4023  134.6270  160.0117 H   0  0  0  0  0  0  0  0  0  0  0  0  # atno 6909 bound_to 6896
  145.2073  140.9081  143.3335 H   0  0  0  0  0  0  0  0  0  0  0  0  # atno 7974 bound_to 7965
  154.6831  140.0545  157.0286 H   0  0  0  0  0  0  0  0  0  0  0  0  # atno 8008 bound_to 7997
  155.0924  140.3220  155.4551 H   0  0  0  0  0  0  0  0  0  0  0  0  # atno 8009 bound_to 7997
  156.2701  140.2045  156.6051 H   0  0  0  0  0  0  0  0  0  0  0  0  # atno 8010 bound_to 7997
  139.9553  144.5998  150.8122 H   0  0  0  0  0  0  0  0  0  0  0  0  # atno 10167 bound_to 10162
  156.5736  130.8699  151.2845 H   0  0  0  0  0  0  0  0  0  0  0  0  # atno 10718 bound_to 10713
  153.0338  135.5176  154.7430 H   0  0  0  0  0  0  0  0  0  0  0  0  # atno 10763 bound_to 10752
  154.6424  135.2914  155.0090 H   0  0  0  0  0  0  0  0  0  0  0  0  # atno 10764 bound_to 10752
  154.1003  135.6637  153.4919 H   0  0  0  0  0  0  0  0  0  0  0  0  # atno 10765 bound_to 10752
  139.9801  134.6758  156.0279 H   0  0  0  0  0  0  0  0  0  0  0  0  # atno 11005 bound_to 11000
  144.9890  139.3708  143.6224 LP  0  0  0  0  0  0  0  0  0  0  0  0  # atno 17320 bound_to 7965
  146.3405  139.9064  142.8786 LP  0  0  0  0  0  0  0  0  0  0  0  0  # atno 17321 bound_to 7965
  140.7570  143.3078  151.2920 LP  0  0  0  0  0  0  0  0  0  0  0  0  # atno 17342 bound_to 10162
  139.6596  144.0213  152.2683 LP  0  0  0  0  0  0  0  0  0  0  0  0  # atno 17343 bound_to 10162
  157.7342  130.9743  150.2019 LP  0  0  0  0  0  0  0  0  0  0  0  0  # atno 17370 bound_to 10713
  156.2693  130.3720  149.8048 LP  0  0  0  0  0  0  0  0  0  0  0  0  # atno 17371 bound_to 10713
  141.1474  133.6554  156.3909 LP  0  0  0  0  0  0  0  0  0  0  0  0  # atno 17394 bound_to 11000
  140.5114  134.6392  157.5285 LP  0  0  0  0  0  0  0  0  0  0  0  0  # atno 17395 bound_to 11000

$$$$
