AV-unprocessed.smi:1230|AV-procd|sdf|5157|dock1
  -GOLD-   22720 4233D 1   1.00000     0.00000
 Structure written by MMmdl.
 39 40  0  0  0  0  0  0  0  0  1 V2000
  151.6323  144.5433  158.2763 C   0  0  0  0  0  0  0  0  0  0  0  0
  152.4208  144.0307  159.4918 C   0  0  1  0  0  0  0  0  0  0  0  0
  151.5907  144.1067  160.7894 C   0  0  0  0  0  0  0  0  0  0  0  0
  152.4002  143.6286  162.0056 C   0  0  0  0  0  0  0  0  0  0  0  0
  152.9569  142.2136  161.7857 C   0  0  0  0  0  0  0  0  0  0  0  0
  153.7857  142.1368  160.4931 C   0  0  0  0  0  0  0  0  0  0  0  0
  152.9737  142.6055  159.2663 C   0  0  1  0  0  0  0  0  0  0  0  0
  151.8762  141.7304  159.0256 O   0  0  0  0  0  0  0  0  0  0  0  0
  152.1084  140.7464  158.0299 C   0  0  0  0  0  0  0  0  0  0  0  0
  150.7614  140.3876  157.3851 C   0  0  0  0  0  0  0  0  0  0  0  0
  150.7708  139.0956  156.7457 N   0  0  0  0  0  0  0  0  0  0  0  0
  150.2843  137.9550  157.3662 C   0  0  0  0  0  0  0  0  0  0  0  0
  150.3029  136.7359  156.7768 C   0  0  0  0  0  0  0  0  0  0  0  0
  149.7988  135.5713  157.4267 C   0  0  0  0  0  0  0  0  0  0  0  0
  149.4009  134.6331  157.9757 N   0  0  0  0  0  0  0  0  0  0  0  0
  150.8512  136.5640  155.4325 C   0  0  0  0  0  0  0  0  0  0  0  0
  150.9112  135.5037  154.8124 O   0  0  0  0  0  0  0  0  0  0  0  0
  151.3367  137.7410  154.8533 N   0  0  0  0  0  0  0  0  0  0  0  0
  151.3270  139.0044  155.4477 C   0  0  0  0  0  0  0  0  0  0  0  0
  151.7913  139.9706  154.8423 O   0  0  0  0  0  0  0  0  0  0  0  0
  151.7303  137.6711  153.9260 H   0  0  0  0  0  0  0  0  0  0  0  0
  150.7397  143.9436  158.0964 H   0  0  0  0  0  0  0  0  0  0  0  0
  152.2412  144.5127  157.3725 H   0  0  0  0  0  0  0  0  0  0  0  0
  151.3130  145.5751  158.4236 H   0  0  0  0  0  0  0  0  0  0  0  0
  153.2770  144.6957  159.6146 H   0  0  0  0  0  0  0  0  0  0  0  0
  151.2538  145.1302  160.9567 H   0  0  0  0  0  0  0  0  0  0  0  0
  150.6898  143.4998  160.6899 H   0  0  0  0  0  0  0  0  0  0  0  0
  153.2237  144.3198  162.1898 H   0  0  0  0  0  0  0  0  0  0  0  0
  151.7756  143.6477  162.8990 H   0  0  0  0  0  0  0  0  0  0  0  0
  153.5704  141.9196  162.6377 H   0  0  0  0  0  0  0  0  0  0  0  0
  152.1340  141.4993  161.7374 H   0  0  0  0  0  0  0  0  0  0  0  0
  154.6688  142.7684  160.5983 H   0  0  0  0  0  0  0  0  0  0  0  0
  154.1610  141.1241  160.3511 H   0  0  0  0  0  0  0  0  0  0  0  0
  153.6242  142.6272  158.3899 H   0  0  0  0  0  0  0  0  0  0  0  0
  152.8004  141.1336  157.2811 H   0  0  0  0  0  0  0  0  0  0  0  0
  152.5588  139.8543  158.4650 H   0  0  0  0  0  0  0  0  0  0  0  0
  149.9730  140.3500  158.1385 H   0  0  0  0  0  0  0  0  0  0  0  0
  150.4417  141.1233  156.6438 H   0  0  0  0  0  0  0  0  0  0  0  0
  149.8733  138.0356  158.3630 H   0  0  0  0  0  0  0  0  0  0  0  0
  1  2  1  0  0  0  0
  1 22  1  0  0  0  0
  1 23  1  0  0  0  0
  1 24  1  0  0  0  0
  2  7  1  0  0  0  0
  2  3  1  0  0  0  0
  2 25  1  0  0  0  0
  3  4  1  0  0  0  0
  3 26  1  0  0  0  0
  3 27  1  0  0  0  0
  4  5  1  0  0  0  0
  4 28  1  0  0  0  0
  4 29  1  0  0  0  0
  5  6  1  0  0  0  0
  5 30  1  0  0  0  0
  5 31  1  0  0  0  0
  6  7  1  0  0  0  0
  6 32  1  0  0  0  0
  6 33  1  0  0  0  0
  7  8  1  0  0  0  0
  7 34  1  0  0  0  0
  8  9  1  0  0  0  0
  9 10  1  0  0  0  0
  9 35  1  0  0  0  0
  9 36  1  0  0  0  0
 10 11  1  0  0  0  0
 10 37  1  0  0  0  0
 10 38  1  0  0  0  0
 11 19  1  0  0  0  0
 11 12  1  0  0  0  0
 12 13  2  0  0  0  0
 12 39  1  0  0  0  0
 13 14  1  0  0  0  0
 13 16  1  0  0  0  0
 14 15  3  0  0  0  0
 16 17  2  0  0  0  0
 16 18  1  0  0  0  0
 18 21  1  0  0  0  0
 18 19  1  0  0  0  0
 19 20  2  0  0  0  0
M  END
> <s_m_source_file>
AV-unprocessed.smi

> <i_m_source_file_index>
1230

> <i_lp_mmshare_version>
43012

> <i_f3d_flags>
0

> <s_epik_input>
W0NIM11bQ0BASF0xW0NIMl1bQ0gyXVtDSDJdW0NIMl1bQ0BIXTFPW0NIMl1bQ0gyXW4yW2NIXWMoQyNOKWMoPU8pW25IXWMyPU8=

> <s_epik_cmdline>
J2VwaWtfcHl0aG9uJywgJy1waCcsICc3LjAnLCAnLXRuJywgJzgnLCAnLW1hJywgJzIwMCcsICctbWV0YWxfYmluZGluZycsICctaW1hZScsICc8aW5maWxlLm1hZT4nLCAnLW9tYWUnLCAnPG91dGZpbGUubWFlPic=

> <r_epik_Ionization_Penalty>
0.421541

> <r_epik_Ionization_Penalty_Charging>
0.421541

> <r_epik_Ionization_Penalty_Neutral>
2.29267e-11

> <r_epik_State_Penalty>
0.422277

> <r_epik_Charging_Adjusted_Penalty>
0.843818

> <i_epik_Tot_Q>
0

> <i_epik_Tot_abs_Q>
0

> <r_epik_Metal_State_Penalty>
4.11629

> <b_epik_Metal_Only>
0

> <s_lp_Force_Field>
OPLS_2005

> <r_lp_Energy>
14.8101

> <b_lp_Chiralities_Consistent>
1

> <s_lp_Variant>
AV-unprocessed.smi:1230-6

> <Gold.Version>
5.8.1

> <Gold.Id.Protein>
6NUR|6NUR_protein|mol2

> <Gold.PLP.Fitness>
47.1615

> <Gold.PLP.PLP>
-40.7282

> <Gold.PLP.part.hbond>
-2.6352

> <Gold.PLP.part.metal>
0.0000

> <Gold.PLP.part.buried>
-5.5975

> <Gold.PLP.part.nonpolar>
-31.7533

> <Gold.PLP.part.repulsive>
0.3430

> <Gold.PLP.ligand.clash>
0.0000

> <Gold.PLP.ligand.torsion>
1.1214

> <Gold.PLP.Chemscore.Hbond>
2.8800

> <Gold.PLP.Chemscore.CHOScore>
0.0000

> <Gold.PLP.Chemscore.Metal>
0.0000

> <Gold.Chemscore.Hbonds>
donor molecule, donor type, donor heavy atom, donor atom, acceptor molecule, acceptor atom, score
      P1  H  6896  6909       L1    15  1.00
      P1  H  7989  7998       L1    20  0.98
      P1  H 10752 10765       L1    17  0.74

> <Gold.PLP.Chemscore.Internal.Correction>
0.0359

> <Gold.Rescore>
     Score         DG    S(hbond)    S(metal)    S(lipo)     H(rot)  DE(clash)    DE(int)     intcor
     18.48     -19.71       2.16        0.00     102.30       1.94       0.00       1.22       ----

> <Gold.Chemscore.Fitness>
18.4844

> <Gold.Chemscore.DG>
-19.7076

> <Gold.Chemscore.ZeroCoef>
-5.4800

> <Gold.Chemscore.Hbond>
2.1619

> <Gold.Chemscore.Metal>
0.0000

> <Gold.Chemscore.Lipo>
102.3012

> <Gold.Chemscore.Internal_Hbond>
0.0000

> <Gold.Chemscore.DEClash>
0.0047

> <Gold.Chemscore.DEInternal>
1.2185

> <Gold.Chemscore.Rot>
1.9385

> <Gold.Chemscore.Internal.Correction>
   9.000000E+99

> <Gold.Chemscore.Hbonds>
donor molecule, donor type, donor heavy atom, donor atom, acceptor molecule, acceptor atom, score
      P1  H  6896  6909       L1    15  0.65
      P1  H  7989  7998       L1    20  0.92
      P1  H 10752 10765       L1    17  0.08

> <Gold.Chemscore.Hbond.Weighted>
-7.2209

> <Gold.Chemscore.Metal.Weighted>
-0.0000

> <Gold.Chemscore.Lipo.Weighted>
-11.9692

> <Gold.Chemscore.Internal_Hbond.Weighted>
0.0000

> <Gold.Chemscore.DEClash.Weighted>
0.0047

> <Gold.Chemscore.DEInternal.Weighted>
1.2185

> <Gold.Chemscore.Rot.Weighted>
4.9625

> <Gold.Chemscore.Internal.Correction.Weighted>
   9.000000E+99

> <Gold.Protein.RotatedTorsions>
[ 6907 6896 6895 6894 ] final   26.33 input  -60.11 | X-H torsion
[ 7974 7965 7964 7962 ] final -170.49 input  175.53 | X-H torsion
[ 8008 7997 7996 7995 ] final  -64.17 input   59.86 | X-H torsion
[ 10167 10162 10161 10158 ] final  113.84 input  -65.29 | X-H torsion
[ 10718 10713 10712 10709 ] final  -95.27 input   66.30 | X-H torsion
[ 10763 10752 10751 10750 ] final  174.25 input  -60.55 | X-H torsion
[ 11005 11000 10999 10996 ] final  132.74 input  -57.11 | X-H torsion

> <Gold.Protein.ActiveResidues>
 VAL166  LYS551  ARG553  GLY616  TRP617  ASP618  TYR619  PRO620  LYS621  CYS622 
 ASP623  PHE694  ASN695  SER759  ASP760  ASP761  ALA762  ILE779  LEU786  VAL792 
 PHE793  MET794  SER795  GLU796  ALA797  LYS798  CYS799  TRP800  GLU811  SER814 

> <Gold.Protein.RotatedAtoms>
  151.9859  135.0004  160.0559 H   0  0  0  0  0  0  0  0  0  0  0  0  # atno 6907 bound_to 6896
  152.1653  133.4604  159.4890 H   0  0  0  0  0  0  0  0  0  0  0  0  # atno 6908 bound_to 6896
  150.6893  134.1938  159.4338 H   0  0  0  0  0  0  0  0  0  0  0  0  # atno 6909 bound_to 6896
  144.7169  140.2064  143.6332 H   0  0  0  0  0  0  0  0  0  0  0  0  # atno 7974 bound_to 7965
  154.4596  140.0959  156.6856 H   0  0  0  0  0  0  0  0  0  0  0  0  # atno 8008 bound_to 7997
  155.5033  140.3474  155.4357 H   0  0  0  0  0  0  0  0  0  0  0  0  # atno 8009 bound_to 7997
  156.0845  140.1381  156.9659 H   0  0  0  0  0  0  0  0  0  0  0  0  # atno 8010 bound_to 7997
  139.6432  144.7125  151.2195 H   0  0  0  0  0  0  0  0  0  0  0  0  # atno 10167 bound_to 10162
  156.0040  130.5102  150.6052 H   0  0  0  0  0  0  0  0  0  0  0  0  # atno 10718 bound_to 10713
  154.4513  135.2765  155.1779 H   0  0  0  0  0  0  0  0  0  0  0  0  # atno 10763 bound_to 10752
  154.3605  135.6130  153.5692 H   0  0  0  0  0  0  0  0  0  0  0  0  # atno 10764 bound_to 10752
  152.9847  135.5833  154.4858 H   0  0  0  0  0  0  0  0  0  0  0  0  # atno 10765 bound_to 10752
  139.9809  134.9548  156.9625 H   0  0  0  0  0  0  0  0  0  0  0  0  # atno 11005 bound_to 11000
  145.8632  139.2233  143.1704 LP  0  0  0  0  0  0  0  0  0  0  0  0  # atno 17320 bound_to 7965
  146.0154  140.8397  142.9950 LP  0  0  0  0  0  0  0  0  0  0  0  0  # atno 17321 bound_to 7965
  140.7501  143.6276  150.8453 LP  0  0  0  0  0  0  0  0  0  0  0  0  # atno 17342 bound_to 10162
  139.9916  143.5841  152.2908 LP  0  0  0  0  0  0  0  0  0  0  0  0  # atno 17343 bound_to 10162
  157.3894  131.0793  151.1407 LP  0  0  0  0  0  0  0  0  0  0  0  0  # atno 17370 bound_to 10713
  157.2104  130.6435  149.5772 LP  0  0  0  0  0  0  0  0  0  0  0  0  # atno 17371 bound_to 10713
  140.5099  134.1012  155.7268 LP  0  0  0  0  0  0  0  0  0  0  0  0  # atno 17394 bound_to 11000
  141.1481  133.9019  157.2166 LP  0  0  0  0  0  0  0  0  0  0  0  0  # atno 17395 bound_to 11000

$$$$
