AV-unprocessed.smi:1929|AV-procd|sdf|7808|dock2
  -GOLD-   22720 9553D 1   1.00000     0.00000
 Structure written by MMmdl.
 43 44  0  0  0  0  0  0  0  0  4 V2000
  148.6446  134.4759  157.3412 C   0  0  0  0  0  0  0  0  0  0  0  0
  150.1003  134.4781  157.4218 N   0  5  0  0  0  0  0  0  0  0  0  0
  150.9056  134.9806  156.4476 C   0  0  0  0  0  0  0  0  0  0  0  0
  152.0839  135.3504  156.4857 O   0  0  0  0  0  0  0  0  0  0  0  0
  150.1516  135.1009  155.1181 C   0  0  0  0  0  0  0  0  0  0  0  0
  150.0567  136.5224  154.6998 N   0  3  2  0  0  0  0  0  0  0  0  0
  151.3836  137.1707  154.5135 C   0  0  0  0  0  0  0  0  0  0  0  0
  151.2330  138.6024  153.9705 C   0  0  0  0  0  0  0  0  0  0  0  0
  150.3352  139.4689  154.8750 C   0  0  2  0  0  0  0  0  0  0  0  0
  150.9806  139.7675  156.1538 N   0  0  0  0  0  0  0  0  0  0  0  0
  150.9885  140.9662  156.7554 C   0  0  0  0  0  0  0  0  0  0  0  0
  150.4267  141.9590  156.2938 O   0  0  0  0  0  0  0  0  0  0  0  0
  151.7013  140.9361  157.8949 N   0  0  0  0  0  0  0  0  0  0  0  0
  151.9899  142.0066  158.7848 C   0  0  0  0  0  0  0  0  0  0  0  0
  151.5097  143.2898  158.4407 C   0  0  0  0  0  0  0  0  0  0  0  0
  151.7797  144.3843  159.2875 C   0  0  0  0  0  0  0  0  0  0  0  0
  152.5031  144.2012  160.4127 N   0  3  0  0  0  0  0  0  0  0  0  0
  152.9960  142.9977  160.7757 C   0  0  0  0  0  0  0  0  0  0  0  0
  152.7574  141.8662  159.9692 C   0  0  0  0  0  0  0  0  0  0  0  0
  148.9932  138.7517  155.1008 C   0  0  0  0  0  0  0  0  0  0  0  0
  149.1842  137.3103  155.6079 C   0  0  0  0  0  0  0  0  0  0  0  0
  148.1942  133.9291  158.1694 H   0  0  0  0  0  0  0  0  0  0  0  0
  148.2771  134.0083  156.4270 H   0  0  0  0  0  0  0  0  0  0  0  0
  148.2268  135.4823  157.3717 H   0  0  0  0  0  0  0  0  0  0  0  0
  150.7229  134.5358  154.3804 H   0  0  0  0  0  0  0  0  0  0  0  0
  149.1590  134.6459  155.1516 H   0  0  0  0  0  0  0  0  0  0  0  0
  151.9228  137.1795  155.4619 H   0  0  0  0  0  0  0  0  0  0  0  0
  151.9924  136.5968  153.8147 H   0  0  0  0  0  0  0  0  0  0  0  0
  152.2149  139.0604  153.8479 H   0  0  0  0  0  0  0  0  0  0  0  0
  150.7978  138.5587  152.9712 H   0  0  0  0  0  0  0  0  0  0  0  0
  150.1329  140.4154  154.3703 H   0  0  0  0  0  0  0  0  0  0  0  0
  151.4666  139.0065  156.6053 H   0  0  0  0  0  0  0  0  0  0  0  0
  152.1610  140.0624  158.1061 H   0  0  0  0  0  0  0  0  0  0  0  0
  150.9315  143.4374  157.5398 H   0  0  0  0  0  0  0  0  0  0  0  0
  151.4420  145.3930  159.0993 H   0  0  0  0  0  0  0  0  0  0  0  0
  153.5673  142.9759  161.6923 H   0  0  0  0  0  0  0  0  0  0  0  0
  153.1771  140.9184  160.2701 H   0  0  0  0  0  0  0  0  0  0  0  0
  148.3744  139.3161  155.7995 H   0  0  0  0  0  0  0  0  0  0  0  0
  148.4401  138.7257  154.1607 H   0  0  0  0  0  0  0  0  0  0  0  0
  148.2083  136.8294  155.6859 H   0  0  0  0  0  0  0  0  0  0  0  0
  149.6136  137.3143  156.6109 H   0  0  0  0  0  0  0  0  0  0  0  0
  149.6031  136.5158  153.7972 H   0  0  0  0  0  0  0  0  0  0  0  0
  152.6890  145.0066  161.0114 H   0  0  0  0  0  0  0  0  0  0  0  0
  1  2  1  0  0  0  0
  1 22  1  0  0  0  0
  1 23  1  0  0  0  0
  1 24  1  0  0  0  0
  2  3  1  0  0  0  0
  3  4  2  0  0  0  0
  3  5  1  0  0  0  0
  5  6  1  0  0  0  0
  5 25  1  0  0  0  0
  5 26  1  0  0  0  0
  6 21  1  0  0  0  0
  6  7  1  0  0  0  0
  6 42  1  0  0  0  0
  7  8  1  0  0  0  0
  7 27  1  0  0  0  0
  7 28  1  0  0  0  0
  8  9  1  0  0  0  0
  8 29  1  0  0  0  0
  8 30  1  0  0  0  0
  9 10  1  0  0  0  0
  9 20  1  0  0  0  0
  9 31  1  0  0  0  0
 10 11  1  0  0  0  0
 10 32  1  0  0  0  0
 11 12  2  0  0  0  0
 11 13  1  0  0  0  0
 13 14  1  0  0  0  0
 13 33  1  0  0  0  0
 14 19  1  0  0  0  0
 14 15  2  0  0  0  0
 15 16  1  0  0  0  0
 15 34  1  0  0  0  0
 16 17  2  0  0  0  0
 16 35  1  0  0  0  0
 17 18  1  0  0  0  0
 17 43  1  0  0  0  0
 18 19  2  0  0  0  0
 18 36  1  0  0  0  0
 19 37  1  0  0  0  0
 20 21  1  0  0  0  0
 20 38  1  0  0  0  0
 20 39  1  0  0  0  0
 21 40  1  0  0  0  0
 21 41  1  0  0  0  0
M  CHG  1   2  -1
M  CHG  1   6   1
M  CHG  1  17   1
M  END
> <s_m_source_file>
AV-unprocessed.smi

> <i_m_source_file_index>
1929

> <i_lp_mmshare_version>
43012

> <i_f3d_flags>
0

> <s_epik_input>
W0NIM11bTkhdQyg9TylbQ0gyXU4xW0NIMl1bQ0gyXVtDSF0oW0NIMl1bQ0gyXTEpW05IXUMoPU8pW05IXWMyW2NIXVtjSF1uW2NIXVtjSF0y

> <s_epik_cmdline>
J2VwaWtfcHl0aG9uJywgJy1waCcsICc3LjAnLCAnLXRuJywgJzgnLCAnLW1hJywgJzIwMCcsICctbWV0YWxfYmluZGluZycsICctaW1hZScsICc8aW5maWxlLm1hZT4nLCAnLW9tYWUnLCAnPG91dGZpbGUubWFlPic=

> <r_epik_Ionization_Penalty>
7.25133

> <r_epik_Ionization_Penalty_Charging>
7.25131

> <r_epik_Ionization_Penalty_Neutral>
1.84563e-05

> <r_epik_State_Penalty>
8.093

> <r_epik_Charging_Adjusted_Penalty>
15.3443

> <i_epik_Tot_Q>
1

> <i_epik_Tot_abs_Q>
3

> <r_epik_Metal_State_Penalty>
4.12368

> <b_epik_Metal_Only>
1

> <s_lp_Force_Field>
OPLS_2005

> <r_lp_Energy>
20.7097

> <b_lp_Chiralities_Consistent>
1

> <s_lp_Variant>
AV-unprocessed.smi:1929-10

> <Gold.Version>
5.8.1

> <Gold.Id.Protein>
6NUR|6NUR_protein|mol2

> <Gold.PLP.Fitness>
46.8212

> <Gold.PLP.PLP>
-33.3237

> <Gold.PLP.part.hbond>
-3.0000

> <Gold.PLP.part.metal>
0.0000

> <Gold.PLP.part.buried>
-4.6605

> <Gold.PLP.part.nonpolar>
-26.2394

> <Gold.PLP.part.repulsive>
0.3395

> <Gold.PLP.ligand.clash>
0.0628

> <Gold.PLP.ligand.torsion>
0.3378

> <Gold.PLP.Chemscore.Hbond>
4.7297

> <Gold.PLP.Chemscore.CHOScore>
0.0000

> <Gold.PLP.Chemscore.Metal>
0.0000

> <Gold.Chemscore.Hbonds>
donor molecule, donor type, donor heavy atom, donor atom, acceptor molecule, acceptor atom, score
      L1  H     6    42       P1  7948  1.98
      P1  H  6896  6907       L1     2  1.63
      P1  H 10752 10764       L1     4  1.00

> <Gold.PLP.Chemscore.Internal.Correction>
0.0469

> <Gold.Rescore>
     Score         DG    S(hbond)    S(metal)    S(lipo)     H(rot)  DE(clash)    DE(int)     intcor
     16.92     -20.38       2.66        0.00      87.83       1.66       0.22       3.25       ----

> <Gold.Chemscore.Fitness>
16.9162

> <Gold.Chemscore.DG>
-20.3828

> <Gold.Chemscore.ZeroCoef>
-5.4800

> <Gold.Chemscore.Hbond>
2.6557

> <Gold.Chemscore.Metal>
0.0000

> <Gold.Chemscore.Lipo>
87.8265

> <Gold.Chemscore.Internal_Hbond>
0.0000

> <Gold.Chemscore.DEClash>
0.2213

> <Gold.Chemscore.DEInternal>
3.2453

> <Gold.Chemscore.Rot>
1.6574

> <Gold.Chemscore.Internal.Correction>
   9.000000E+99

> <Gold.Chemscore.Hbonds>
donor molecule, donor type, donor heavy atom, donor atom, acceptor molecule, acceptor atom, score
      L1  H     6    42       P1  7948  0.65
      P1  H  6896  6907       L1     2  0.56
      P1  H 10752 10764       L1     4  1.00

> <Gold.Chemscore.Hbond.Weighted>
-8.8701

> <Gold.Chemscore.Metal.Weighted>
-0.0000

> <Gold.Chemscore.Lipo.Weighted>
-10.2757

> <Gold.Chemscore.Internal_Hbond.Weighted>
0.0000

> <Gold.Chemscore.DEClash.Weighted>
0.2213

> <Gold.Chemscore.DEInternal.Weighted>
3.2453

> <Gold.Chemscore.Rot.Weighted>
4.2430

> <Gold.Chemscore.Internal.Correction.Weighted>
   9.000000E+99

> <Gold.Protein.RotatedTorsions>
[ 6907 6896 6895 6894 ] final -102.52 input  -60.11 | X-H torsion
[ 7974 7965 7964 7962 ] final  120.50 input  175.53 | X-H torsion
[ 8008 7997 7996 7995 ] final  172.19 input   59.86 | X-H torsion
[ 10167 10162 10161 10158 ] final    9.01 input  -65.29 | X-H torsion
[ 10718 10713 10712 10709 ] final  118.58 input   66.30 | X-H torsion
[ 10763 10752 10751 10750 ] final  -16.81 input  -60.55 | X-H torsion
[ 11005 11000 10999 10996 ] final  -15.32 input  -57.11 | X-H torsion

> <Gold.Protein.ActiveResidues>
 VAL166  LYS551  ARG553  GLY616  TRP617  ASP618  TYR619  PRO620  LYS621  CYS622 
 ASP623  PHE694  ASN695  SER759  ASP760  ASP761  ALA762  ILE779  LEU786  VAL792 
 PHE793  MET794  SER795  GLU796  ALA797  LYS798  CYS799  TRP800  GLU811  SER814 

> <Gold.Protein.RotatedAtoms>
  150.7200  134.0569  159.3817 H   0  0  0  0  0  0  0  0  0  0  0  0  # atno 6907 bound_to 6896
  151.8547  135.0543  160.0472 H   0  0  0  0  0  0  0  0  0  0  0  0  # atno 6908 bound_to 6896
  152.2763  133.5393  159.5506 H   0  0  0  0  0  0  0  0  0  0  0  0  # atno 6909 bound_to 6896
  145.1304  139.3331  143.4668 H   0  0  0  0  0  0  0  0  0  0  0  0  # atno 7974 bound_to 7965
  156.1199  140.1492  156.9220 H   0  0  0  0  0  0  0  0  0  0  0  0  # atno 8008 bound_to 7997
  154.4828  140.0874  156.7458 H   0  0  0  0  0  0  0  0  0  0  0  0  # atno 8009 bound_to 7997
  155.4448  140.3432  155.4296 H   0  0  0  0  0  0  0  0  0  0  0  0  # atno 8010 bound_to 7997
  140.6280  143.8057  150.7258 H   0  0  0  0  0  0  0  0  0  0  0  0  # atno 10167 bound_to 10162
  157.6020  131.1049  150.7777 H   0  0  0  0  0  0  0  0  0  0  0  0  # atno 10718 bound_to 10713
  153.5642  135.7009  153.5533 H   0  0  0  0  0  0  0  0  0  0  0  0  # atno 10763 bound_to 10752
  153.3402  135.4023  155.1565 H   0  0  0  0  0  0  0  0  0  0  0  0  # atno 10764 bound_to 10752
  154.8643  135.3740  154.5161 H   0  0  0  0  0  0  0  0  0  0  0  0  # atno 10765 bound_to 10752
  140.7955  133.8255  155.9419 H   0  0  0  0  0  0  0  0  0  0  0  0  # atno 11005 bound_to 11000
  146.3514  140.1301  142.8597 LP  0  0  0  0  0  0  0  0  0  0  0  0  # atno 17320 bound_to 7965
  145.0641  140.9109  143.4921 LP  0  0  0  0  0  0  0  0  0  0  0  0  # atno 17321 bound_to 7965
  140.1662  143.4233  152.2032 LP  0  0  0  0  0  0  0  0  0  0  0  0  # atno 17342 bound_to 10162
  139.5498  144.7328  151.4471 LP  0  0  0  0  0  0  0  0  0  0  0  0  # atno 17343 bound_to 10162
  156.8173  130.4972  149.5347 LP  0  0  0  0  0  0  0  0  0  0  0  0  # atno 17370 bound_to 10713
  156.1096  130.6030  151.0026 LP  0  0  0  0  0  0  0  0  0  0  0  0  # atno 17371 bound_to 10713
  140.9347  134.1977  157.4839 LP  0  0  0  0  0  0  0  0  0  0  0  0  # atno 17394 bound_to 11000
  139.8727  134.9847  156.5252 LP  0  0  0  0  0  0  0  0  0  0  0  0  # atno 17395 bound_to 11000

$$$$
