AV-unprocessed.smi:3259|AV-procd|sdf|12473|dock3
  -GOLD-   2272018373D 1   1.00000     0.00000
 Structure written by MMmdl.
 39 40  0  0  0  0  0  0  0  0  1 V2000
  147.4212  137.6287  155.0145 C   0  0  0  0  0  0  0  0  0  0  0  0
  147.0627  138.9690  155.3277 O   0  0  0  0  0  0  0  0  0  0  0  0
  147.5477  140.0009  154.4576 C   0  0  2  0  0  0  0  0  0  0  0  0
  147.0293  139.7890  153.0296 C   0  0  0  0  0  0  0  0  0  0  0  0
  149.0544  140.2276  154.6878 C   0  0  0  0  0  0  0  0  0  0  0  0
  148.6647  141.1210  155.8639 C   0  0  1  0  0  0  0  0  0  0  0  0
  149.5219  142.2932  155.9882 N   0  0  0  0  0  0  0  0  0  0  0  0
  150.7457  142.2844  156.5376 C   0  0  0  0  0  0  0  0  0  0  0  0
  151.3119  141.2589  156.9148 O   0  0  0  0  0  0  0  0  0  0  0  0
  151.4291  143.6431  156.7029 C   0  0  0  0  0  0  0  0  0  0  0  0
  151.8018  143.8783  158.0878 N   0  0  0  0  0  0  0  0  0  0  0  0
  152.5916  143.0984  158.9072 C   0  0  0  0  0  0  0  0  0  0  0  0
  152.6807  143.7342  160.1122 C   0  0  0  0  0  0  0  0  0  0  0  0
  151.9001  144.9103  159.9323 C   0  0  0  0  0  0  0  0  0  0  0  0
  151.3749  144.9934  158.7205 N   0  0  0  0  0  0  0  0  0  0  0  0
  147.3125  141.3829  155.1509 C   0  0  0  0  0  0  0  0  0  0  0  0
  147.2481  142.6057  154.2140 C   0  0  0  0  0  0  0  0  0  0  0  0
  146.0863  141.4945  156.0635 C   0  0  0  0  0  0  0  0  0  0  0  0
  147.1242  136.9803  155.8387 H   0  0  0  0  0  0  0  0  0  0  0  0
  148.4942  137.5071  154.8694 H   0  0  0  0  0  0  0  0  0  0  0  0
  146.9041  137.2719  154.1239 H   0  0  0  0  0  0  0  0  0  0  0  0
  147.3031  140.6136  152.3723 H   0  0  0  0  0  0  0  0  0  0  0  0
  145.9425  139.7034  153.0111 H   0  0  0  0  0  0  0  0  0  0  0  0
  147.4446  138.8906  152.5738 H   0  0  0  0  0  0  0  0  0  0  0  0
  149.6361  139.3499  154.9667 H   0  0  0  0  0  0  0  0  0  0  0  0
  149.5311  140.7674  153.8676 H   0  0  0  0  0  0  0  0  0  0  0  0
  148.5575  140.5486  156.7884 H   0  0  0  0  0  0  0  0  0  0  0  0
  149.1338  143.1790  155.6985 H   0  0  0  0  0  0  0  0  0  0  0  0
  152.3210  143.6970  156.0765 H   0  0  0  0  0  0  0  0  0  0  0  0
  150.7558  144.4361  156.3752 H   0  0  0  0  0  0  0  0  0  0  0  0
  153.0242  142.1692  158.5664 H   0  0  0  0  0  0  0  0  0  0  0  0
  153.2216  143.4093  160.9886 H   0  0  0  0  0  0  0  0  0  0  0  0
  151.7010  145.7005  160.6410 H   0  0  0  0  0  0  0  0  0  0  0  0
  147.2629  143.5431  154.7714 H   0  0  0  0  0  0  0  0  0  0  0  0
  146.3356  142.6033  153.6171 H   0  0  0  0  0  0  0  0  0  0  0  0
  148.0870  142.6379  153.5186 H   0  0  0  0  0  0  0  0  0  0  0  0
  146.0391  142.4668  156.5550 H   0  0  0  0  0  0  0  0  0  0  0  0
  146.0977  140.7458  156.8557 H   0  0  0  0  0  0  0  0  0  0  0  0
  145.1599  141.3614  155.5040 H   0  0  0  0  0  0  0  0  0  0  0  0
  1  2  1  0  0  0  0
  1 19  1  0  0  0  0
  1 20  1  0  0  0  0
  1 21  1  0  0  0  0
  2  3  1  0  0  0  0
  3 16  1  0  0  0  0
  3  4  1  0  0  0  0
  3  5  1  0  0  0  0
  4 22  1  0  0  0  0
  4 23  1  0  0  0  0
  4 24  1  0  0  0  0
  5  6  1  0  0  0  0
  5 25  1  0  0  0  0
  5 26  1  0  0  0  0
  6  7  1  0  0  0  0
  6 16  1  0  0  0  0
  6 27  1  0  0  0  0
  7  8  1  0  0  0  0
  7 28  1  0  0  0  0
  8  9  2  0  0  0  0
  8 10  1  0  0  0  0
 10 11  1  0  0  0  0
 10 29  1  0  0  0  0
 10 30  1  0  0  0  0
 11 15  1  0  0  0  0
 11 12  1  0  0  0  0
 12 13  2  0  0  0  0
 12 31  1  0  0  0  0
 13 14  1  0  0  0  0
 13 32  1  0  0  0  0
 14 15  2  0  0  0  0
 14 33  1  0  0  0  0
 16 17  1  0  0  0  0
 16 18  1  0  0  0  0
 17 34  1  0  0  0  0
 17 35  1  0  0  0  0
 17 36  1  0  0  0  0
 18 37  1  0  0  0  0
 18 38  1  0  0  0  0
 18 39  1  0  0  0  0
M  END
> <s_m_source_file>
AV-unprocessed.smi

> <i_m_source_file_index>
3259

> <i_lp_mmshare_version>
43012

> <i_f3d_flags>
0

> <s_epik_input>
W0NIM11PW0NAQF0xKFtDSDNdKVtDSDJdW0NASF0oQzEoW0NIM10pW0NIM10pW05IXUMoPU8pW0NIMl1uMltjSF1bY0hdW2NIXW4y

> <s_epik_cmdline>
J2VwaWtfcHl0aG9uJywgJy1waCcsICc3LjAnLCAnLXRuJywgJzgnLCAnLW1hJywgJzIwMCcsICctbWV0YWxfYmluZGluZycsICctaW1hZScsICc8aW5maWxlLm1hZT4nLCAnLW9tYWUnLCAnPG91dGZpbGUubWFlPic=

> <r_lp_tautomer_probability>
1

> <r_epik_Ionization_Penalty>
1.78399e-05

> <r_epik_Ionization_Penalty_Charging>
0

> <r_epik_Ionization_Penalty_Neutral>
1.78399e-05

> <r_epik_State_Penalty>
-0

> <r_epik_Charging_Adjusted_Penalty>
0

> <i_epik_Tot_Q>
0

> <i_epik_Tot_abs_Q>
0

> <r_epik_Metal_State_Penalty>
-0

> <b_epik_Metal_Only>
0

> <s_lp_Force_Field>
OPLS_2005

> <r_lp_Energy>
22.327

> <b_lp_Chiralities_Consistent>
1

> <s_lp_Variant>
AV-unprocessed.smi:3259-2

> <Gold.Version>
5.8.1

> <Gold.Id.Protein>
6NUR|6NUR_protein|mol2

> <Gold.PLP.Fitness>
34.8388

> <Gold.PLP.PLP>
-31.9700

> <Gold.PLP.part.hbond>
-0.9255

> <Gold.PLP.part.metal>
0.0000

> <Gold.PLP.part.buried>
-0.6596

> <Gold.PLP.part.nonpolar>
-30.8109

> <Gold.PLP.part.repulsive>
0.3056

> <Gold.PLP.ligand.clash>
0.0000

> <Gold.PLP.ligand.torsion>
0.2581

> <Gold.PLP.Chemscore.Hbond>
1.0000

> <Gold.PLP.Chemscore.CHOScore>
0.0000

> <Gold.PLP.Chemscore.Metal>
0.0000

> <Gold.Chemscore.Hbonds>
donor molecule, donor type, donor heavy atom, donor atom, acceptor molecule, acceptor atom, score
      L1  H     7    28       P1  8028  1.00

> <Gold.PLP.Chemscore.Internal.Correction>
0.3850

> <Gold.Rescore>
     Score         DG    S(hbond)    S(metal)    S(lipo)     H(rot)  DE(clash)    DE(int)     intcor
     12.91     -14.28       1.00        0.00      81.68       1.60       0.87       0.49       ----

> <Gold.Chemscore.Fitness>
12.9081

> <Gold.Chemscore.DG>
-14.2751

> <Gold.Chemscore.ZeroCoef>
-5.4800

> <Gold.Chemscore.Hbond>
0.9953

> <Gold.Chemscore.Metal>
0.0000

> <Gold.Chemscore.Lipo>
81.6845

> <Gold.Chemscore.Internal_Hbond>
0.0000

> <Gold.Chemscore.DEClash>
0.8729

> <Gold.Chemscore.DEInternal>
0.4941

> <Gold.Chemscore.Rot>
1.5962

> <Gold.Chemscore.Internal.Correction>
   9.000000E+99

> <Gold.Chemscore.Hbonds>
donor molecule, donor type, donor heavy atom, donor atom, acceptor molecule, acceptor atom, score
      L1  H     7    28       P1  8028  0.96

> <Gold.Chemscore.Hbond.Weighted>
-3.3242

> <Gold.Chemscore.Metal.Weighted>
-0.0000

> <Gold.Chemscore.Lipo.Weighted>
-9.5571

> <Gold.Chemscore.Internal_Hbond.Weighted>
0.0000

> <Gold.Chemscore.DEClash.Weighted>
0.8729

> <Gold.Chemscore.DEInternal.Weighted>
0.4941

> <Gold.Chemscore.Rot.Weighted>
4.0862

> <Gold.Chemscore.Internal.Correction.Weighted>
   9.000000E+99

> <Gold.Protein.RotatedTorsions>
[ 6907 6896 6895 6894 ] final  -38.64 input  -60.11 | X-H torsion
[ 7974 7965 7964 7962 ] final -111.46 input  175.53 | X-H torsion
[ 8008 7997 7996 7995 ] final  -24.70 input   59.86 | X-H torsion
[ 10167 10162 10161 10158 ] final  -45.71 input  -65.29 | X-H torsion
[ 10718 10713 10712 10709 ] final  119.49 input   66.30 | X-H torsion
[ 10763 10752 10751 10750 ] final  -28.25 input  -60.55 | X-H torsion
[ 11005 11000 10999 10996 ] final -136.09 input  -57.11 | X-H torsion

> <Gold.Protein.ActiveResidues>
 VAL166  LYS551  ARG553  GLY616  TRP617  ASP618  TYR619  PRO620  LYS621  CYS622 
 ASP623  PHE694  ASN695  SER759  ASP760  ASP761  ALA762  ILE779  LEU786  VAL792 
 PHE793  MET794  SER795  GLU796  ALA797  LYS798  CYS799  TRP800  GLU811  SER814 

> <Gold.Protein.RotatedAtoms>
  151.0000  134.9314  159.7948 H   0  0  0  0  0  0  0  0  0  0  0  0  # atno 6907 bound_to 6896
  152.5275  134.3166  159.9143 H   0  0  0  0  0  0  0  0  0  0  0  0  # atno 6908 bound_to 6896
  151.3172  133.4014  159.2686 H   0  0  0  0  0  0  0  0  0  0  0  0  # atno 6909 bound_to 6896
  145.1558  140.8853  143.3619 H   0  0  0  0  0  0  0  0  0  0  0  0  # atno 7974 bound_to 7965
  154.4515  140.1946  156.0506 H   0  0  0  0  0  0  0  0  0  0  0  0  # atno 8008 bound_to 7997
  156.0657  140.3291  155.7487 H   0  0  0  0  0  0  0  0  0  0  0  0  # atno 8009 bound_to 7997
  155.5342  140.0580  157.2874 H   0  0  0  0  0  0  0  0  0  0  0  0  # atno 8010 bound_to 7997
  140.6847  143.2866  151.3679 H   0  0  0  0  0  0  0  0  0  0  0  0  # atno 10167 bound_to 10162
  157.5958  131.1058  150.7903 H   0  0  0  0  0  0  0  0  0  0  0  0  # atno 10718 bound_to 10713
  153.7453  135.6929  153.4957 H   0  0  0  0  0  0  0  0  0  0  0  0  # atno 10763 bound_to 10752
  153.2040  135.4426  155.0300 H   0  0  0  0  0  0  0  0  0  0  0  0  # atno 10764 bound_to 10752
  154.8206  135.3420  154.6977 H   0  0  0  0  0  0  0  0  0  0  0  0  # atno 10765 bound_to 10752
  140.8838  134.1898  157.4574 H   0  0  0  0  0  0  0  0  0  0  0  0  # atno 11005 bound_to 11000
  145.0383  139.3282  143.5990 LP  0  0  0  0  0  0  0  0  0  0  0  0  # atno 17320 bound_to 7965
  146.3489  139.9746  142.8702 LP  0  0  0  0  0  0  0  0  0  0  0  0  # atno 17321 bound_to 7965
  139.6196  144.0934  152.2378 LP  0  0  0  0  0  0  0  0  0  0  0  0  # atno 17342 bound_to 10162
  140.0374  144.6034  150.7438 LP  0  0  0  0  0  0  0  0  0  0  0  0  # atno 17343 bound_to 10162
  156.8314  130.5017  149.5331 LP  0  0  0  0  0  0  0  0  0  0  0  0  # atno 17370 bound_to 10713
  156.1020  130.5976  150.9910 LP  0  0  0  0  0  0  0  0  0  0  0  0  # atno 17371 bound_to 10713
  139.8722  134.9829  156.5174 LP  0  0  0  0  0  0  0  0  0  0  0  0  # atno 17394 bound_to 11000
  140.8430  133.8191  155.9093 LP  0  0  0  0  0  0  0  0  0  0  0  0  # atno 17395 bound_to 11000

$$$$
