AV-unprocessed.smi:2101|AV-procd|sdf|8580|dock7
  -GOLD-   2272011313D 1   1.00000     0.00000
 Structure written by MMmdl.
 42 43  0  0  0  0  0  0  0  0  2 V2000
  152.1740  133.6819  156.3833 C   0  0  0  0  0  0  0  0  0  0  0  0
  150.3448  133.6117  156.5641 S   0  0  0  0  0  0  0  0  0  0  0  0
  149.7980  132.8578  155.4255 O   0  0  0  0  0  0  0  0  0  0  0  0
  150.0324  133.1875  157.9375 O   0  0  0  0  0  0  0  0  0  0  0  0
  149.8503  135.2701  156.3921 N   0  0  0  0  0  0  0  0  0  0  0  0
  150.1753  136.2381  157.4650 C   0  0  0  0  0  0  0  0  0  0  0  0
  151.3320  137.1715  157.0573 C   0  0  0  0  0  0  0  0  0  0  0  0
  150.9948  137.8109  155.7789 N   0  0  0  0  0  0  0  0  0  0  0  0
  150.5588  139.0827  155.6029 C   0  0  0  0  0  0  0  0  0  0  0  0
  150.4634  139.6164  154.4966 O   0  0  0  0  0  0  0  0  0  0  0  0
  150.2759  139.7430  156.7392 N   0  0  0  0  0  0  0  0  0  0  0  0
  149.8054  141.1216  156.8099 C   0  0  0  0  0  0  0  0  0  0  0  0
  150.9319  142.1182  156.4886 C   0  0  0  0  0  0  0  0  0  0  0  0
  151.3247  142.9473  157.6954 C   0  0  0  0  0  0  0  0  0  0  0  0
  152.1481  142.4394  158.7238 C   0  0  0  0  0  0  0  0  0  0  0  0
  152.4792  143.2707  159.8146 C   0  0  0  0  0  0  0  0  0  0  0  0
  151.9800  144.5894  159.8543 C   0  0  0  0  0  0  0  0  0  0  0  0
  151.1628  145.0449  158.7996 C   0  0  0  0  0  0  0  0  0  0  0  0
  150.8694  144.2190  157.7712 N   0  3  0  0  0  0  0  0  0  0  0  0
  150.9072  136.8003  154.7231 C   0  0  0  0  0  0  0  0  0  0  0  0
  149.7333  135.8521  155.0352 C   0  0  0  0  0  0  0  0  0  0  0  0
  152.5809  132.6755  156.4790 H   0  0  0  0  0  0  0  0  0  0  0  0
  152.5987  134.3131  157.1623 H   0  0  0  0  0  0  0  0  0  0  0  0
  152.4332  134.0774  155.4023 H   0  0  0  0  0  0  0  0  0  0  0  0
  149.2838  136.8309  157.6735 H   0  0  0  0  0  0  0  0  0  0  0  0
  150.4198  135.7158  158.3894 H   0  0  0  0  0  0  0  0  0  0  0  0
  151.5314  137.8787  157.8624 H   0  0  0  0  0  0  0  0  0  0  0  0
  152.2560  136.6047  156.9420 H   0  0  0  0  0  0  0  0  0  0  0  0
  150.3946  139.2534  157.6144 H   0  0  0  0  0  0  0  0  0  0  0  0
  148.9883  141.2411  156.0977 H   0  0  0  0  0  0  0  0  0  0  0  0
  149.3861  141.3190  157.7980 H   0  0  0  0  0  0  0  0  0  0  0  0
  151.8161  141.5899  156.1286 H   0  0  0  0  0  0  0  0  0  0  0  0
  150.6225  142.7830  155.6811 H   0  0  0  0  0  0  0  0  0  0  0  0
  152.5243  141.4276  158.6782 H   0  0  0  0  0  0  0  0  0  0  0  0
  153.1088  142.9017  160.6112 H   0  0  0  0  0  0  0  0  0  0  0  0
  152.2211  145.2416  160.6811 H   0  0  0  0  0  0  0  0  0  0  0  0
  150.7381  146.0370  158.7472 H   0  0  0  0  0  0  0  0  0  0  0  0
  150.7763  137.2416  153.7342 H   0  0  0  0  0  0  0  0  0  0  0  0
  151.8450  136.2469  154.6714 H   0  0  0  0  0  0  0  0  0  0  0  0
  149.6751  135.0636  154.2856 H   0  0  0  0  0  0  0  0  0  0  0  0
  148.7932  136.4019  154.9767 H   0  0  0  0  0  0  0  0  0  0  0  0
  150.2769  144.5697  157.0179 H   0  0  0  0  0  0  0  0  0  0  0  0
  1  2  1  0  0  0  0
  1 22  1  0  0  0  0
  1 23  1  0  0  0  0
  1 24  1  0  0  0  0
  2  3  2  0  0  0  0
  2  4  2  0  0  0  0
  2  5  1  0  0  0  0
  5 21  1  0  0  0  0
  5  6  1  0  0  0  0
  6  7  1  0  0  0  0
  6 25  1  0  0  0  0
  6 26  1  0  0  0  0
  7  8  1  0  0  0  0
  7 27  1  0  0  0  0
  7 28  1  0  0  0  0
  8  9  1  0  0  0  0
  8 20  1  0  0  0  0
  9 10  2  0  0  0  0
  9 11  1  0  0  0  0
 11 12  1  0  0  0  0
 11 29  1  0  0  0  0
 12 13  1  0  0  0  0
 12 30  1  0  0  0  0
 12 31  1  0  0  0  0
 13 14  1  0  0  0  0
 13 32  1  0  0  0  0
 13 33  1  0  0  0  0
 14 19  1  0  0  0  0
 14 15  2  0  0  0  0
 15 16  1  0  0  0  0
 15 34  1  0  0  0  0
 16 17  2  0  0  0  0
 16 35  1  0  0  0  0
 17 18  1  0  0  0  0
 17 36  1  0  0  0  0
 18 19  2  0  0  0  0
 18 37  1  0  0  0  0
 19 42  1  0  0  0  0
 20 21  1  0  0  0  0
 20 38  1  0  0  0  0
 20 39  1  0  0  0  0
 21 40  1  0  0  0  0
 21 41  1  0  0  0  0
M  CHG  1  19   1
M  END
> <s_m_source_file>
AV-unprocessed.smi

> <i_m_source_file_index>
2101

> <i_lp_mmshare_version>
43012

> <i_f3d_flags>
0

> <s_epik_input>
W0NIM11TKD1PKSg9TylOMVtDSDJdW0NIMl1OKFtDSDJdW0NIMl0xKUMoPU8pW05IXVtDSDJdW0NIMl1jMltjSF1bY0hdW2NIXVtjSF1uMg==

> <s_epik_cmdline>
J2VwaWtfcHl0aG9uJywgJy1waCcsICc3LjAnLCAnLXRuJywgJzgnLCAnLW1hJywgJzIwMCcsICctbWV0YWxfYmluZGluZycsICctaW1hZScsICc8aW5maWxlLm1hZT4nLCAnLW9tYWUnLCAnPG91dGZpbGUubWFlPic=

> <r_epik_Ionization_Penalty>
1.56137

> <r_epik_Ionization_Penalty_Charging>
1.56133

> <r_epik_Ionization_Penalty_Neutral>
3.86464e-05

> <r_epik_State_Penalty>
1.65637

> <r_epik_Charging_Adjusted_Penalty>
3.2177

> <i_epik_Tot_Q>
1

> <i_epik_Tot_abs_Q>
1

> <r_epik_Metal_State_Penalty>
1.69784

> <b_epik_Metal_Only>
0

> <s_lp_Force_Field>
OPLS_2005

> <r_lp_Energy>
29.4976

> <b_lp_Chiralities_Consistent>
1

> <s_lp_Variant>
AV-unprocessed.smi:2101-2

> <Gold.Version>
5.8.1

> <Gold.Id.Protein>
6NUR|6NUR_protein|mol2

> <Gold.PLP.Fitness>
43.9113

> <Gold.PLP.PLP>
-33.4630

> <Gold.PLP.part.hbond>
-3.0000

> <Gold.PLP.part.metal>
0.0000

> <Gold.PLP.part.buried>
-5.8052

> <Gold.PLP.part.nonpolar>
-24.2087

> <Gold.PLP.part.repulsive>
0.1817

> <Gold.PLP.ligand.clash>
0.0000

> <Gold.PLP.ligand.torsion>
1.8406

> <Gold.PLP.Chemscore.Hbond>
4.0000

> <Gold.PLP.Chemscore.CHOScore>
0.0000

> <Gold.PLP.Chemscore.Metal>
0.0000

> <Gold.Chemscore.Hbonds>
donor molecule, donor type, donor heavy atom, donor atom, acceptor molecule, acceptor atom, score
      L1  H    19    42       P1  8028  2.00
      P1  H  6896  6908       L1     4  1.00
      P1  H  7989  7998       L1    10  1.00

> <Gold.PLP.Chemscore.Internal.Correction>
2.1295

> <Gold.Rescore>
     Score         DG    S(hbond)    S(metal)    S(lipo)     H(rot)  DE(clash)    DE(int)     intcor
     20.20     -22.25       2.83        0.00      94.72       1.47       0.13       1.92       ----

> <Gold.Chemscore.Fitness>
20.1995

> <Gold.Chemscore.DG>
-22.2458

> <Gold.Chemscore.ZeroCoef>
-5.4800

> <Gold.Chemscore.Hbond>
2.8294

> <Gold.Chemscore.Metal>
0.0000

> <Gold.Chemscore.Lipo>
94.7205

> <Gold.Chemscore.Internal_Hbond>
0.0000

> <Gold.Chemscore.DEClash>
0.1273

> <Gold.Chemscore.DEInternal>
1.9190

> <Gold.Chemscore.Rot>
1.4714

> <Gold.Chemscore.Internal.Correction>
   9.000000E+99

> <Gold.Chemscore.Hbonds>
donor molecule, donor type, donor heavy atom, donor atom, acceptor molecule, acceptor atom, score
      L1  H    19    42       P1  8028  0.70
      P1  H  6896  6908       L1     4  0.98
      P1  H  7989  7998       L1    10  0.98

> <Gold.Chemscore.Hbond.Weighted>
-9.4501

> <Gold.Chemscore.Metal.Weighted>
-0.0000

> <Gold.Chemscore.Lipo.Weighted>
-11.0823

> <Gold.Chemscore.Internal_Hbond.Weighted>
0.0000

> <Gold.Chemscore.DEClash.Weighted>
0.1273

> <Gold.Chemscore.DEInternal.Weighted>
1.9190

> <Gold.Chemscore.Rot.Weighted>
3.7667

> <Gold.Chemscore.Internal.Correction.Weighted>
   9.000000E+99

> <Gold.Protein.RotatedTorsions>
[ 6907 6896 6895 6894 ] final  110.64 input  -60.11 | X-H torsion
[ 7974 7965 7964 7962 ] final -141.87 input  175.53 | X-H torsion
[ 8008 7997 7996 7995 ] final  122.34 input   59.86 | X-H torsion
[ 10167 10162 10161 10158 ] final   90.86 input  -65.29 | X-H torsion
[ 10718 10713 10712 10709 ] final  128.41 input   66.30 | X-H torsion
[ 10763 10752 10751 10750 ] final  178.60 input  -60.55 | X-H torsion
[ 11005 11000 10999 10996 ] final -135.75 input  -57.11 | X-H torsion

> <Gold.Protein.ActiveResidues>
 VAL166  LYS551  ARG553  GLY616  TRP617  ASP618  TYR619  PRO620  LYS621  CYS622 
 ASP623  PHE694  ASN695  SER759  ASP760  ASP761  ALA762  ILE779  LEU786  VAL792 
 PHE793  MET794  SER795  GLU796  ALA797  LYS798  CYS799  TRP800  GLU811  SER814 

> <Gold.Protein.RotatedAtoms>
  152.5009  133.8771  159.7327 H   0  0  0  0  0  0  0  0  0  0  0  0  # atno 6907 bound_to 6896
  150.9243  133.6834  159.2832 H   0  0  0  0  0  0  0  0  0  0  0  0  # atno 6908 bound_to 6896
  151.4200  135.1001  159.9663 H   0  0  0  0  0  0  0  0  0  0  0  0  # atno 6909 bound_to 6896
  144.8486  140.6027  143.5405 H   0  0  0  0  0  0  0  0  0  0  0  0  # atno 7974 bound_to 7965
  156.2723  140.2788  156.1451 H   0  0  0  0  0  0  0  0  0  0  0  0  # atno 8008 bound_to 7997
  155.0912  140.0388  157.2687 H   0  0  0  0  0  0  0  0  0  0  0  0  # atno 8009 bound_to 7997
  154.6888  140.2624  155.6839 H   0  0  0  0  0  0  0  0  0  0  0  0  # atno 8010 bound_to 7997
  139.8431  144.6631  150.9259 H   0  0  0  0  0  0  0  0  0  0  0  0  # atno 10167 bound_to 10162
  157.5247  131.1098  150.9100 H   0  0  0  0  0  0  0  0  0  0  0  0  # atno 10718 bound_to 10713
  154.5097  135.2788  155.1353 H   0  0  0  0  0  0  0  0  0  0  0  0  # atno 10763 bound_to 10752
  154.2953  135.6259  153.5405 H   0  0  0  0  0  0  0  0  0  0  0  0  # atno 10764 bound_to 10752
  152.9916  135.5684  154.5560 H   0  0  0  0  0  0  0  0  0  0  0  0  # atno 10765 bound_to 10752
  140.8869  134.1861  157.4554 H   0  0  0  0  0  0  0  0  0  0  0  0  # atno 11005 bound_to 11000
  145.4546  139.1519  143.3900 LP  0  0  0  0  0  0  0  0  0  0  0  0  # atno 17320 bound_to 7965
  146.2766  140.4673  142.8793 LP  0  0  0  0  0  0  0  0  0  0  0  0  # atno 17321 bound_to 7965
  140.7796  143.3895  151.1336 LP  0  0  0  0  0  0  0  0  0  0  0  0  # atno 17342 bound_to 10162
  139.7539  143.8737  152.3084 LP  0  0  0  0  0  0  0  0  0  0  0  0  # atno 17343 bound_to 10162
  156.9700  130.5487  149.5290 LP  0  0  0  0  0  0  0  0  0  0  0  0  # atno 17370 bound_to 10713
  156.0378  130.5464  150.8698 LP  0  0  0  0  0  0  0  0  0  0  0  0  # atno 17371 bound_to 10713
  139.8725  134.9841  156.5227 LP  0  0  0  0  0  0  0  0  0  0  0  0  # atno 17394 bound_to 11000
  140.8394  133.8217  155.9060 LP  0  0  0  0  0  0  0  0  0  0  0  0  # atno 17395 bound_to 11000

$$$$
