AV-unprocessed.smi:1209|AV-procd|sdf|5069|dock3
  -GOLD-   22720 4113D 1   1.00000     0.00000
 Structure written by MMmdl.
 48 50  0  0  0  0  0  0  0  0  1 V2000
  147.3209  136.5081  162.9589 C   0  0  0  0  0  0  0  0  0  0  0  0
  147.5093  136.4571  161.4816 C   0  0  0  0  0  0  0  0  0  0  0  0
  148.2272  135.6331  160.6628 C   0  0  0  0  0  0  0  0  0  0  0  0
  147.9667  136.1427  159.3604 C   0  0  0  0  0  0  0  0  0  0  0  0
  148.4855  135.6427  158.0376 C   0  0  0  0  0  0  0  0  0  0  0  0
  149.9337  135.7939  157.8827 N   0  0  0  0  0  0  0  0  0  0  0  0
  150.3669  135.3557  156.5555 C   0  0  0  0  0  0  0  0  0  0  0  0
  150.3338  137.1778  158.1545 C   0  0  0  0  0  0  0  0  0  0  0  0
  151.8016  137.3816  158.5841 C   0  0  2  0  0  0  0  0  0  0  0  0
  151.8267  138.2615  159.6916 O   0  0  0  0  0  0  0  0  0  0  0  0
  152.6432  137.9823  157.4417 C   0  0  0  0  0  0  0  0  0  0  0  0
  152.0514  139.1869  156.8860 N   0  0  0  0  0  0  0  0  0  0  0  0
  151.4038  139.3037  155.7108 C   0  0  0  0  0  0  0  0  0  0  0  0
  150.9360  140.5066  155.3901 N   0  0  0  0  0  0  0  0  0  0  0  0
  151.3250  141.2586  156.4855 C   0  0  0  0  0  0  0  0  0  0  0  0
  151.1360  142.6286  156.7716 C   0  0  0  0  0  0  0  0  0  0  0  0
  151.6298  143.1936  157.9693 C   0  0  0  0  0  0  0  0  0  0  0  0
  151.4056  144.6716  158.2362 C   0  0  0  0  0  0  0  0  0  0  0  0
  152.3250  142.3840  158.9031 C   0  0  0  0  0  0  0  0  0  0  0  0
  152.8663  142.9690  160.1954 C   0  0  0  0  0  0  0  0  0  0  0  0
  152.5205  141.0132  158.6340 C   0  0  0  0  0  0  0  0  0  0  0  0
  152.0247  140.4628  157.4391 C   0  0  0  0  0  0  0  0  0  0  0  0
  147.1593  137.1903  159.3967 N   0  0  0  0  0  0  0  0  0  0  0  0
  146.8614  137.3984  160.7479 O   0  0  0  0  0  0  0  0  0  0  0  0
  147.5458  135.5429  163.4127 H   0  0  0  0  0  0  0  0  0  0  0  0
  146.2928  136.7681  163.2117 H   0  0  0  0  0  0  0  0  0  0  0  0
  147.9790  137.2537  163.4054 H   0  0  0  0  0  0  0  0  0  0  0  0
  148.8430  134.7931  160.9480 H   0  0  0  0  0  0  0  0  0  0  0  0
  148.2070  134.5980  157.8892 H   0  0  0  0  0  0  0  0  0  0  0  0
  147.9791  136.1988  157.2477 H   0  0  0  0  0  0  0  0  0  0  0  0
  151.4507  135.3842  156.4575 H   0  0  0  0  0  0  0  0  0  0  0  0
  149.9371  135.9833  155.7738 H   0  0  0  0  0  0  0  0  0  0  0  0
  150.0669  134.3257  156.3620 H   0  0  0  0  0  0  0  0  0  0  0  0
  150.1321  137.7829  157.2691 H   0  0  0  0  0  0  0  0  0  0  0  0
  149.7000  137.5914  158.9407 H   0  0  0  0  0  0  0  0  0  0  0  0
  152.2574  136.4387  158.8824 H   0  0  0  0  0  0  0  0  0  0  0  0
  151.7918  139.1495  159.3697 H   0  0  0  0  0  0  0  0  0  0  0  0
  153.6423  138.2303  157.8025 H   0  0  0  0  0  0  0  0  0  0  0  0
  152.7758  137.2556  156.6388 H   0  0  0  0  0  0  0  0  0  0  0  0
  151.2692  138.4573  155.0531 H   0  0  0  0  0  0  0  0  0  0  0  0
  150.6074  143.2451  156.0595 H   0  0  0  0  0  0  0  0  0  0  0  0
  150.8384  144.8117  159.1566 H   0  0  0  0  0  0  0  0  0  0  0  0
  150.8493  145.1428  157.4257 H   0  0  0  0  0  0  0  0  0  0  0  0
  152.3591  145.1911  158.3335 H   0  0  0  0  0  0  0  0  0  0  0  0
  153.3907  142.2157  160.7838 H   0  0  0  0  0  0  0  0  0  0  0  0
  152.0541  143.3647  160.8055 H   0  0  0  0  0  0  0  0  0  0  0  0
  153.5681  143.7764  159.9858 H   0  0  0  0  0  0  0  0  0  0  0  0
  153.0500  140.3857  159.3357 H   0  0  0  0  0  0  0  0  0  0  0  0
  1  2  1  0  0  0  0
  1 25  1  0  0  0  0
  1 26  1  0  0  0  0
  1 27  1  0  0  0  0
  2 24  1  0  0  0  0
  2  3  2  0  0  0  0
  3  4  1  0  0  0  0
  3 28  1  0  0  0  0
  4  5  1  0  0  0  0
  4 23  2  0  0  0  0
  5  6  1  0  0  0  0
  5 29  1  0  0  0  0
  5 30  1  0  0  0  0
  6  7  1  0  0  0  0
  6  8  1  0  0  0  0
  7 31  1  0  0  0  0
  7 32  1  0  0  0  0
  7 33  1  0  0  0  0
  8  9  1  0  0  0  0
  8 34  1  0  0  0  0
  8 35  1  0  0  0  0
  9 10  1  0  0  0  0
  9 11  1  0  0  0  0
  9 36  1  0  0  0  0
 10 37  1  0  0  0  0
 11 12  1  0  0  0  0
 11 38  1  0  0  0  0
 11 39  1  0  0  0  0
 12 22  1  0  0  0  0
 12 13  1  0  0  0  0
 13 14  2  0  0  0  0
 13 40  1  0  0  0  0
 14 15  1  0  0  0  0
 15 22  2  0  0  0  0
 15 16  1  0  0  0  0
 16 17  2  0  0  0  0
 16 41  1  0  0  0  0
 17 18  1  0  0  0  0
 17 19  1  0  0  0  0
 18 42  1  0  0  0  0
 18 43  1  0  0  0  0
 18 44  1  0  0  0  0
 19 20  1  0  0  0  0
 19 21  2  0  0  0  0
 20 45  1  0  0  0  0
 20 46  1  0  0  0  0
 20 47  1  0  0  0  0
 21 22  1  0  0  0  0
 21 48  1  0  0  0  0
 23 24  1  0  0  0  0
M  END
> <s_m_source_file>
AV-unprocessed.smi

> <i_m_source_file_index>
1209

> <i_lp_mmshare_version>
43012

> <i_f3d_flags>
0

> <s_epik_input>
W0NIM11jMVtjSF1jKG5vMSlbQ0gyXU4oW0NIM10pW0NIMl1bQ0BIXShbT0hdKVtDSDJdbihbY0hdbjIpYyhjMjMpW2NIXWMoW0NIM10pYyhbY0hdMylbQ0gzXQ==

> <s_epik_cmdline>
J2VwaWtfcHl0aG9uJywgJy1waCcsICc3LjAnLCAnLXRuJywgJzgnLCAnLW1hJywgJzIwMCcsICctbWV0YWxfYmluZGluZycsICctaW1hZScsICc8aW5maWxlLm1hZT4nLCAnLW9tYWUnLCAnPG91dGZpbGUubWFlPic=

> <r_epik_Ionization_Penalty>
0.103258

> <r_epik_Ionization_Penalty_Charging>
0

> <r_epik_Ionization_Penalty_Neutral>
0.103258

> <r_epik_State_Penalty>
0.0919675

> <r_epik_Charging_Adjusted_Penalty>
0.0919675

> <i_epik_Tot_Q>
0

> <i_epik_Tot_abs_Q>
0

> <r_epik_Metal_State_Penalty>
0.0812522

> <b_epik_Metal_Only>
0

> <s_lp_Force_Field>
OPLS_2005

> <r_lp_Energy>
18.8485

> <b_lp_Chiralities_Consistent>
1

> <s_lp_Variant>
AV-unprocessed.smi:1209-1

> <Gold.Version>
5.8.1

> <Gold.Id.Protein>
6NUR|6NUR_protein|mol2

> <Gold.PLP.Fitness>
48.7133

> <Gold.PLP.PLP>
-42.4395

> <Gold.PLP.part.hbond>
-3.8892

> <Gold.PLP.part.metal>
0.0000

> <Gold.PLP.part.buried>
-4.4165

> <Gold.PLP.part.nonpolar>
-34.0936

> <Gold.PLP.part.repulsive>
0.0408

> <Gold.PLP.ligand.clash>
0.0000

> <Gold.PLP.ligand.torsion>
1.1301

> <Gold.PLP.Chemscore.Hbond>
2.7775

> <Gold.PLP.Chemscore.CHOScore>
0.0000

> <Gold.PLP.Chemscore.Metal>
0.0000

> <Gold.Chemscore.Hbonds>
donor molecule, donor type, donor heavy atom, donor atom, acceptor molecule, acceptor atom, score
      P1  H  6896  6907       L1     6  0.53
      P1  H  6934  6947       L1    24  1.00
      P1  H  7989  7998       L1    14  0.94

> <Gold.PLP.Chemscore.Internal.Correction>
0.2017

> <Gold.Rescore>
     Score         DG    S(hbond)    S(metal)    S(lipo)     H(rot)  DE(clash)    DE(int)     intcor
     16.34     -18.82       1.48        0.00     125.43       2.45       0.63       1.85       ----

> <Gold.Chemscore.Fitness>
16.3434

> <Gold.Chemscore.DG>
-18.8244

> <Gold.Chemscore.ZeroCoef>
-5.4800

> <Gold.Chemscore.Hbond>
1.4765

> <Gold.Chemscore.Metal>
0.0000

> <Gold.Chemscore.Lipo>
125.4271

> <Gold.Chemscore.Internal_Hbond>
0.0000

> <Gold.Chemscore.DEClash>
0.6328

> <Gold.Chemscore.DEInternal>
1.8481

> <Gold.Chemscore.Rot>
2.4462

> <Gold.Chemscore.Internal.Correction>
   9.000000E+99

> <Gold.Chemscore.Hbonds>
donor molecule, donor type, donor heavy atom, donor atom, acceptor molecule, acceptor atom, score
      P1  H  6896  6907       L1     6  0.07
      P1  H  6934  6947       L1    24  0.34
      P1  H  7989  7998       L1    14  0.46

> <Gold.Chemscore.Hbond.Weighted>
-4.9317

> <Gold.Chemscore.Metal.Weighted>
-0.0000

> <Gold.Chemscore.Lipo.Weighted>
-14.6750

> <Gold.Chemscore.Internal_Hbond.Weighted>
0.0000

> <Gold.Chemscore.DEClash.Weighted>
0.6328

> <Gold.Chemscore.DEInternal.Weighted>
1.8481

> <Gold.Chemscore.Rot.Weighted>
6.2623

> <Gold.Chemscore.Internal.Correction.Weighted>
   9.000000E+99

> <Gold.Protein.RotatedTorsions>
[ 6907 6896 6895 6894 ] final  -57.73 input  -60.11 | X-H torsion
[ 7974 7965 7964 7962 ] final   56.16 input  175.53 | X-H torsion
[ 8008 7997 7996 7995 ] final -161.91 input   59.86 | X-H torsion
[ 10167 10162 10161 10158 ] final -143.62 input  -65.29 | X-H torsion
[ 10718 10713 10712 10709 ] final -107.12 input   66.30 | X-H torsion
[ 10763 10752 10751 10750 ] final   -5.30 input  -60.55 | X-H torsion
[ 11005 11000 10999 10996 ] final   20.26 input  -57.11 | X-H torsion

> <Gold.Protein.ActiveResidues>
 VAL166  LYS551  ARG553  GLY616  TRP617  ASP618  TYR619  PRO620  LYS621  CYS622 
 ASP623  PHE694  ASN695  SER759  ASP760  ASP761  ALA762  ILE779  LEU786  VAL792 
 PHE793  MET794  SER795  GLU796  ALA797  LYS798  CYS799  TRP800  GLU811  SER814 

> <Gold.Protein.RotatedAtoms>
  150.8063  134.7189  159.6646 H   0  0  0  0  0  0  0  0  0  0  0  0  # atno 6907 bound_to 6896
  152.4182  134.6000  160.0007 H   0  0  0  0  0  0  0  0  0  0  0  0  # atno 6908 bound_to 6896
  151.6223  133.3301  159.3126 H   0  0  0  0  0  0  0  0  0  0  0  0  # atno 6909 bound_to 6896
  145.9428  139.3903  143.0353 H   0  0  0  0  0  0  0  0  0  0  0  0  # atno 7974 bound_to 7965
  155.7991  140.0889  157.1967 H   0  0  0  0  0  0  0  0  0  0  0  0  # atno 8008 bound_to 7997
  154.3982  140.1475  156.3312 H   0  0  0  0  0  0  0  0  0  0  0  0  # atno 8009 bound_to 7997
  155.8481  140.3436  155.5678 H   0  0  0  0  0  0  0  0  0  0  0  0  # atno 8010 bound_to 7997
  139.7976  143.7878  152.2655 H   0  0  0  0  0  0  0  0  0  0  0  0  # atno 10167 bound_to 10162
  156.0422  130.5647  150.7777 H   0  0  0  0  0  0  0  0  0  0  0  0  # atno 10718 bound_to 10713
  153.3966  135.7003  153.6456 H   0  0  0  0  0  0  0  0  0  0  0  0  # atno 10763 bound_to 10752
  153.5007  135.3653  155.2539 H   0  0  0  0  0  0  0  0  0  0  0  0  # atno 10764 bound_to 10752
  154.8707  135.4111  154.3293 H   0  0  0  0  0  0  0  0  0  0  0  0  # atno 10765 bound_to 10752
  140.4045  134.1683  155.7665 H   0  0  0  0  0  0  0  0  0  0  0  0  # atno 11005 bound_to 11000
  145.8277  140.9647  143.0865 LP  0  0  0  0  0  0  0  0  0  0  0  0  # atno 17320 bound_to 7965
  144.6782  140.0123  143.7484 LP  0  0  0  0  0  0  0  0  0  0  0  0  # atno 17321 bound_to 7965
  139.7988  144.7382  150.9853 LP  0  0  0  0  0  0  0  0  0  0  0  0  # atno 17342 bound_to 10162
  140.7820  143.4366  151.0614 LP  0  0  0  0  0  0  0  0  0  0  0  0  # atno 17343 bound_to 10162
  157.5253  131.0934  151.0025 LP  0  0  0  0  0  0  0  0  0  0  0  0  # atno 17370 bound_to 10713
  157.0345  130.5725  149.5347 LP  0  0  0  0  0  0  0  0  0  0  0  0  # atno 17371 bound_to 10713
  141.1844  133.8344  157.1140 LP  0  0  0  0  0  0  0  0  0  0  0  0  # atno 17394 bound_to 11000
  140.0312  134.9900  157.0783 LP  0  0  0  0  0  0  0  0  0  0  0  0  # atno 17395 bound_to 11000

$$$$
