AV-unprocessed.smi:2709|AV-procd|sdf|10461|dock3
  -GOLD-   2272014503D 1   1.00000     0.00000
 Structure written by MMmdl.
 40 42  0  0  0  0  0  0  0  0  1 V2000
  146.0515  133.5516  151.5850 C   0  0  0  0  0  0  0  0  0  0  0  0
  146.9580  133.9787  152.5905 O   0  0  0  0  0  0  0  0  0  0  0  0
  146.9239  133.1789  153.7695 C   0  0  1  0  0  0  0  0  0  0  0  0
  147.2081  131.7358  153.3390 C   0  0  0  0  0  0  0  0  0  0  0  0
  148.7240  131.5973  153.4217 C   0  0  0  0  0  0  0  0  0  0  0  0
  149.0959  132.3984  154.6677 C   0  0  0  0  0  0  0  0  0  0  0  0
  148.0619  133.5364  154.7621 C   0  0  1  0  0  0  0  0  0  0  0  0
  148.6964  134.8186  154.4565 N   0  0  0  0  0  0  0  0  0  0  0  0
  148.9822  135.7852  155.3392 C   0  0  0  0  0  0  0  0  0  0  0  0
  148.7515  135.6981  156.5443 O   0  0  0  0  0  0  0  0  0  0  0  0
  149.5505  136.8379  154.7272 N   0  0  0  0  0  0  0  0  0  0  0  0
  149.9931  138.0677  155.2857 C   0  0  0  0  0  0  0  0  0  0  0  0
  150.1630  138.3344  156.6673 C   0  0  0  0  0  0  0  0  0  0  0  0
  150.5804  139.5399  157.1112 N   0  0  0  0  0  0  0  0  0  0  0  0
  150.8136  140.4786  156.1900 C   0  0  0  0  0  0  0  0  0  0  0  0
  151.3108  141.8010  156.6857 C   0  0  0  0  0  0  0  0  0  0  0  0
  151.6968  141.9938  158.1384 C   0  0  0  0  0  0  0  0  0  0  0  0
  150.4558  142.6516  157.6026 C   0  0  0  0  0  0  0  0  0  0  0  0
  150.6961  140.3411  154.8668 N   0  0  0  0  0  0  0  0  0  0  0  0
  150.2805  139.1391  154.4142 C   0  0  0  0  0  0  0  0  0  0  0  0
  146.0967  134.2358  150.7379 H   0  0  0  0  0  0  0  0  0  0  0  0
  145.0240  133.5334  151.9489 H   0  0  0  0  0  0  0  0  0  0  0  0
  146.3096  132.5550  151.2248 H   0  0  0  0  0  0  0  0  0  0  0  0
  145.9429  133.2313  154.2462 H   0  0  0  0  0  0  0  0  0  0  0  0
  146.7459  131.0472  154.0477 H   0  0  0  0  0  0  0  0  0  0  0  0
  146.8144  131.5005  152.3496 H   0  0  0  0  0  0  0  0  0  0  0  0
  149.0509  130.5586  153.4763 H   0  0  0  0  0  0  0  0  0  0  0  0
  149.1836  132.0481  152.5411 H   0  0  0  0  0  0  0  0  0  0  0  0
  149.0060  131.7571  155.5457 H   0  0  0  0  0  0  0  0  0  0  0  0
  150.1283  132.7493  154.6345 H   0  0  0  0  0  0  0  0  0  0  0  0
  147.6548  133.5398  155.7747 H   0  0  0  0  0  0  0  0  0  0  0  0
  148.9175  134.9860  153.4858 H   0  0  0  0  0  0  0  0  0  0  0  0
  149.7048  136.7377  153.7345 H   0  0  0  0  0  0  0  0  0  0  0  0
  149.9642  137.6070  157.4377 H   0  0  0  0  0  0  0  0  0  0  0  0
  151.9064  142.3089  155.9295 H   0  0  0  0  0  0  0  0  0  0  0  0
  151.5650  141.1522  158.8157 H   0  0  0  0  0  0  0  0  0  0  0  0
  152.5540  142.6305  158.3475 H   0  0  0  0  0  0  0  0  0  0  0  0
  150.4813  143.7294  157.4562 H   0  0  0  0  0  0  0  0  0  0  0  0
  149.4980  142.2474  157.9245 H   0  0  0  0  0  0  0  0  0  0  0  0
  150.1797  139.0327  153.3440 H   0  0  0  0  0  0  0  0  0  0  0  0
  1  2  1  0  0  0  0
  1 21  1  0  0  0  0
  1 22  1  0  0  0  0
  1 23  1  0  0  0  0
  2  3  1  0  0  0  0
  3  7  1  0  0  0  0
  3  4  1  0  0  0  0
  3 24  1  0  0  0  0
  4  5  1  0  0  0  0
  4 25  1  0  0  0  0
  4 26  1  0  0  0  0
  5  6  1  0  0  0  0
  5 27  1  0  0  0  0
  5 28  1  0  0  0  0
  6  7  1  0  0  0  0
  6 29  1  0  0  0  0
  6 30  1  0  0  0  0
  7  8  1  0  0  0  0
  7 31  1  0  0  0  0
  8  9  1  0  0  0  0
  8 32  1  0  0  0  0
  9 10  2  0  0  0  0
  9 11  1  0  0  0  0
 11 12  1  0  0  0  0
 11 33  1  0  0  0  0
 12 20  1  0  0  0  0
 12 13  2  0  0  0  0
 13 14  1  0  0  0  0
 13 34  1  0  0  0  0
 14 15  2  0  0  0  0
 15 16  1  0  0  0  0
 15 19  1  0  0  0  0
 16 18  1  0  0  0  0
 16 17  1  0  0  0  0
 16 35  1  0  0  0  0
 17 18  1  0  0  0  0
 17 36  1  0  0  0  0
 17 37  1  0  0  0  0
 18 38  1  0  0  0  0
 18 39  1  0  0  0  0
 19 20  2  0  0  0  0
 20 40  1  0  0  0  0
M  END
> <s_m_source_file>
AV-unprocessed.smi

> <i_m_source_file_index>
2709

> <i_lp_mmshare_version>
43012

> <i_f3d_flags>
0

> <s_epik_input>
W0NIM11PW0NAQEhdMVtDSDJdW0NIMl1bQ0gyXVtDQEhdMVtOSF1DKD1PKVtOSF1jMltjSF1uYyhuW2NIXTIpW0NIXTNbQ0gyXVtDSDJdMw==

> <s_epik_cmdline>
J2VwaWtfcHl0aG9uJywgJy1waCcsICc3LjAnLCAnLXRuJywgJzgnLCAnLW1hJywgJzIwMCcsICctbWV0YWxfYmluZGluZycsICctaW1hZScsICc8aW5maWxlLm1hZT4nLCAnLW9tYWUnLCAnPG91dGZpbGUubWFlPic=

> <r_lp_tautomer_probability>
1

> <r_epik_Ionization_Penalty>
2.49969e-05

> <r_epik_Ionization_Penalty_Charging>
0

> <r_epik_Ionization_Penalty_Neutral>
2.49969e-05

> <r_epik_State_Penalty>
-0

> <r_epik_Charging_Adjusted_Penalty>
0

> <i_epik_Tot_Q>
0

> <i_epik_Tot_abs_Q>
0

> <r_epik_Metal_State_Penalty>
-0

> <b_epik_Metal_Only>
0

> <s_lp_Force_Field>
OPLS_2005

> <r_lp_Energy>
20.4457

> <b_lp_Chiralities_Consistent>
1

> <s_lp_Variant>
AV-unprocessed.smi:2709-2

> <Gold.Version>
5.8.1

> <Gold.Id.Protein>
6NUR|6NUR_protein|mol2

> <Gold.PLP.Fitness>
37.9021

> <Gold.PLP.PLP>
-26.3901

> <Gold.PLP.part.hbond>
-3.0000

> <Gold.PLP.part.metal>
0.0000

> <Gold.PLP.part.buried>
-4.2673

> <Gold.PLP.part.nonpolar>
-19.7308

> <Gold.PLP.part.repulsive>
0.8424

> <Gold.PLP.ligand.clash>
0.0000

> <Gold.PLP.ligand.torsion>
0.2943

> <Gold.PLP.Chemscore.Hbond>
2.9920

> <Gold.PLP.Chemscore.CHOScore>
1.0000

> <Gold.PLP.Chemscore.Metal>
0.0000

> <Gold.Chemscore.Hbonds>
donor molecule, donor type, donor heavy atom, donor atom, acceptor molecule, acceptor atom, score
      L1  H     8    32       P1  7948  1.00
      L1  H    11    33       P1  7948  0.96
      P1  H  7989  7998       L1    19  1.00
      L1  C    20    40       P1  7957  1.00

> <Gold.PLP.Chemscore.Internal.Correction>
0.1246

> <Gold.Rescore>
     Score         DG    S(hbond)    S(metal)    S(lipo)     H(rot)  DE(clash)    DE(int)     intcor
     16.52     -17.97       2.65        0.00      62.07       1.41       0.16       1.30       ----

> <Gold.Chemscore.Fitness>
16.5174

> <Gold.Chemscore.DG>
-17.9748

> <Gold.Chemscore.ZeroCoef>
-5.4800

> <Gold.Chemscore.Hbond>
2.6485

> <Gold.Chemscore.Metal>
0.0000

> <Gold.Chemscore.Lipo>
62.0693

> <Gold.Chemscore.Internal_Hbond>
0.0000

> <Gold.Chemscore.DEClash>
0.1567

> <Gold.Chemscore.DEInternal>
1.3007

> <Gold.Chemscore.Rot>
1.4114

> <Gold.Chemscore.Internal.Correction>
   9.000000E+99

> <Gold.Chemscore.Hbonds>
donor molecule, donor type, donor heavy atom, donor atom, acceptor molecule, acceptor atom, score
      L1  H     8    32       P1  7948  0.36
      L1  H    11    33       P1  7948  0.56
      P1  H  7989  7998       L1    19  0.25

> <Gold.Chemscore.Hbond.Weighted>
-8.8460

> <Gold.Chemscore.Metal.Weighted>
-0.0000

> <Gold.Chemscore.Lipo.Weighted>
-7.2621

> <Gold.Chemscore.Internal_Hbond.Weighted>
0.0000

> <Gold.Chemscore.DEClash.Weighted>
0.1567

> <Gold.Chemscore.DEInternal.Weighted>
1.3007

> <Gold.Chemscore.Rot.Weighted>
3.6133

> <Gold.Chemscore.Internal.Correction.Weighted>
   9.000000E+99

> <Gold.Protein.RotatedTorsions>
[ 6907 6896 6895 6894 ] final -170.43 input  -60.11 | X-H torsion
[ 7974 7965 7964 7962 ] final  -81.79 input  175.53 | X-H torsion
[ 8008 7997 7996 7995 ] final  -80.19 input   59.86 | X-H torsion
[ 10167 10162 10161 10158 ] final -143.85 input  -65.29 | X-H torsion
[ 10718 10713 10712 10709 ] final  168.45 input   66.30 | X-H torsion
[ 10763 10752 10751 10750 ] final -174.29 input  -60.55 | X-H torsion
[ 11005 11000 10999 10996 ] final -100.18 input  -57.11 | X-H torsion

> <Gold.Protein.ActiveResidues>
 VAL166  LYS551  ARG553  GLY616  TRP617  ASP618  TYR619  PRO620  LYS621  CYS622 
 ASP623  PHE694  ASN695  SER759  ASP760  ASP761  ALA762  ILE779  LEU786  VAL792 
 PHE793  MET794  SER795  GLU796  ALA797  LYS798  CYS799  TRP800  GLU811  SER814 

> <Gold.Protein.RotatedAtoms>
  151.5076  133.3491  159.2879 H   0  0  0  0  0  0  0  0  0  0  0  0  # atno 6907 bound_to 6896
  150.8733  134.8113  159.7182 H   0  0  0  0  0  0  0  0  0  0  0  0  # atno 6908 bound_to 6896
  152.4713  134.4963  159.9763 H   0  0  0  0  0  0  0  0  0  0  0  0  # atno 6909 bound_to 6896
  145.5419  140.9508  143.1546 H   0  0  0  0  0  0  0  0  0  0  0  0  # atno 7974 bound_to 7965
  154.5859  140.0666  156.9170 H   0  0  0  0  0  0  0  0  0  0  0  0  # atno 8008 bound_to 7997
  155.2381  140.3342  155.4277 H   0  0  0  0  0  0  0  0  0  0  0  0  # atno 8009 bound_to 7997
  156.2222  140.1803  156.7434 H   0  0  0  0  0  0  0  0  0  0  0  0  # atno 8010 bound_to 7997
  139.7954  143.7908  152.2654 H   0  0  0  0  0  0  0  0  0  0  0  0  # atno 10167 bound_to 10162
  157.0370  131.0275  151.2726 H   0  0  0  0  0  0  0  0  0  0  0  0  # atno 10718 bound_to 10713
  154.5979  135.2851  155.0566 H   0  0  0  0  0  0  0  0  0  0  0  0  # atno 10763 bound_to 10752
  154.1842  135.6451  153.5046 H   0  0  0  0  0  0  0  0  0  0  0  0  # atno 10764 bound_to 10752
  153.0145  135.5431  154.6688 H   0  0  0  0  0  0  0  0  0  0  0  0  # atno 10765 bound_to 10752
  141.1280  133.8379  157.1069 H   0  0  0  0  0  0  0  0  0  0  0  0  # atno 11005 bound_to 11000
  144.7573  139.7044  143.7249 LP  0  0  0  0  0  0  0  0  0  0  0  0  # atno 17320 bound_to 7965
  146.1975  139.5250  142.9765 LP  0  0  0  0  0  0  0  0  0  0  0  0  # atno 17321 bound_to 7965
  139.8012  144.7373  150.9823 LP  0  0  0  0  0  0  0  0  0  0  0  0  # atno 17342 bound_to 10162
  140.7820  143.4344  151.0646 LP  0  0  0  0  0  0  0  0  0  0  0  0  # atno 17343 bound_to 10162
  157.5134  130.7953  149.7730 LP  0  0  0  0  0  0  0  0  0  0  0  0  # atno 17370 bound_to 10713
  156.0050  130.3860  150.2462 LP  0  0  0  0  0  0  0  0  0  0  0  0  # atno 17371 bound_to 10713
  140.0299  134.9906  157.0760 LP  0  0  0  0  0  0  0  0  0  0  0  0  # atno 17394 bound_to 11000
  140.4302  134.1788  155.7168 LP  0  0  0  0  0  0  0  0  0  0  0  0  # atno 17395 bound_to 11000

$$$$
