AV-unprocessed.smi:2826|AV-procd|sdf|10895|dock3
  -GOLD-   2272015343D 1   1.00000     0.00000
 Structure written by MMmdl.
 50 51  0  0  0  0  0  0  0  0  1 V2000
  146.2393  128.7675  152.8820 C   0  0  0  0  0  0  0  0  0  0  0  0
  147.3709  129.0386  153.7016 O   0  0  0  0  0  0  0  0  0  0  0  0
  147.7829  130.3485  153.8365 C   0  0  0  0  0  0  0  0  0  0  0  0
  148.8455  130.6342  154.7148 C   0  0  0  0  0  0  0  0  0  0  0  0
  149.2671  131.9689  154.8602 C   0  0  0  0  0  0  0  0  0  0  0  0
  148.6061  132.9845  154.1282 C   0  0  0  0  0  0  0  0  0  0  0  0
  148.9737  134.3574  154.1959 N   0  0  0  0  0  0  0  0  0  0  0  0
  149.4335  135.0444  155.2554 C   0  0  0  0  0  0  0  0  0  0  0  0
  149.6168  134.5794  156.3803 O   0  0  0  0  0  0  0  0  0  0  0  0
  149.6505  136.3295  154.9417 N   0  0  0  0  0  0  0  0  0  0  0  0
  150.1248  137.3580  155.8669 C   0  0  1  0  0  0  0  0  0  0  0  0
  151.6460  137.5338  155.7408 C   0  0  0  0  0  0  0  0  0  0  0  0
  152.0208  138.2657  154.4407 C   0  0  0  0  0  0  0  0  0  0  0  0
  151.3325  139.5093  154.3664 O   0  0  0  0  0  0  0  0  0  0  0  0
  149.9149  139.3689  154.3124 C   0  0  2  0  0  0  0  0  0  0  0  0
  149.2899  140.7618  154.1095 C   0  0  0  0  0  0  0  0  0  0  0  0
  147.7486  140.7730  154.0106 C   0  0  0  0  0  0  0  0  0  0  0  0
  147.2677  139.7538  152.9663 C   0  0  0  0  0  0  0  0  0  0  0  0
  147.1848  142.1686  153.6935 C   0  0  0  0  0  0  0  0  0  0  0  0
  149.4290  138.7098  155.6196 C   0  0  0  0  0  0  0  0  0  0  0  0
  147.5605  132.5925  153.2575 C   0  0  0  0  0  0  0  0  0  0  0  0
  146.8085  133.6083  152.4155 C   0  0  0  0  0  0  0  0  0  0  0  0
  147.1549  131.3112  153.1179 N   0  0  0  0  0  0  0  0  0  0  0  0
  146.0395  127.6961  152.8863 H   0  0  0  0  0  0  0  0  0  0  0  0
  146.4156  129.0667  151.8479 H   0  0  0  0  0  0  0  0  0  0  0  0
  145.3465  129.2718  153.2542 H   0  0  0  0  0  0  0  0  0  0  0  0
  149.3322  129.8425  155.2650 H   0  0  0  0  0  0  0  0  0  0  0  0
  150.0956  132.1848  155.5169 H   0  0  0  0  0  0  0  0  0  0  0  0
  148.7902  134.8966  153.3624 H   0  0  0  0  0  0  0  0  0  0  0  0
  149.4677  136.6232  153.9934 H   0  0  0  0  0  0  0  0  0  0  0  0
  149.9044  137.0258  156.8831 H   0  0  0  0  0  0  0  0  0  0  0  0
  152.0088  138.1167  156.5884 H   0  0  0  0  0  0  0  0  0  0  0  0
  152.1516  136.5688  155.7945 H   0  0  0  0  0  0  0  0  0  0  0  0
  153.0936  138.4574  154.4172 H   0  0  0  0  0  0  0  0  0  0  0  0
  151.7896  137.6567  153.5654 H   0  0  0  0  0  0  0  0  0  0  0  0
  149.6459  138.7281  153.4723 H   0  0  0  0  0  0  0  0  0  0  0  0
  149.6003  141.4186  154.9233 H   0  0  0  0  0  0  0  0  0  0  0  0
  149.7074  141.1961  153.2000 H   0  0  0  0  0  0  0  0  0  0  0  0
  147.3416  140.4597  154.9727 H   0  0  0  0  0  0  0  0  0  0  0  0
  147.6351  140.0032  151.9704 H   0  0  0  0  0  0  0  0  0  0  0  0
  146.1787  139.7204  152.9205 H   0  0  0  0  0  0  0  0  0  0  0  0
  147.6147  138.7485  153.2072 H   0  0  0  0  0  0  0  0  0  0  0  0
  147.6003  142.5629  152.7656 H   0  0  0  0  0  0  0  0  0  0  0  0
  147.4015  142.8821  154.4879 H   0  0  0  0  0  0  0  0  0  0  0  0
  146.1005  142.1360  153.5835 H   0  0  0  0  0  0  0  0  0  0  0  0
  148.3453  138.5874  155.6038 H   0  0  0  0  0  0  0  0  0  0  0  0
  149.6452  139.3752  156.4564 H   0  0  0  0  0  0  0  0  0  0  0  0
  146.3317  134.3525  153.0540 H   0  0  0  0  0  0  0  0  0  0  0  0
  146.0324  133.1350  151.8127 H   0  0  0  0  0  0  0  0  0  0  0  0
  147.4929  134.1207  151.7392 H   0  0  0  0  0  0  0  0  0  0  0  0
  1  2  1  0  0  0  0
  1 24  1  0  0  0  0
  1 25  1  0  0  0  0
  1 26  1  0  0  0  0
  2  3  1  0  0  0  0
  3 23  1  0  0  0  0
  3  4  2  0  0  0  0
  4  5  1  0  0  0  0
  4 27  1  0  0  0  0
  5  6  2  0  0  0  0
  5 28  1  0  0  0  0
  6  7  1  0  0  0  0
  6 21  1  0  0  0  0
  7  8  1  0  0  0  0
  7 29  1  0  0  0  0
  8  9  2  0  0  0  0
  8 10  1  0  0  0  0
 10 11  1  0  0  0  0
 10 30  1  0  0  0  0
 11 20  1  0  0  0  0
 11 12  1  0  0  0  0
 11 31  1  0  0  0  0
 12 13  1  0  0  0  0
 12 32  1  0  0  0  0
 12 33  1  0  0  0  0
 13 14  1  0  0  0  0
 13 34  1  0  0  0  0
 13 35  1  0  0  0  0
 14 15  1  0  0  0  0
 15 16  1  0  0  0  0
 15 20  1  0  0  0  0
 15 36  1  0  0  0  0
 16 17  1  0  0  0  0
 16 37  1  0  0  0  0
 16 38  1  0  0  0  0
 17 18  1  0  0  0  0
 17 19  1  0  0  0  0
 17 39  1  0  0  0  0
 18 40  1  0  0  0  0
 18 41  1  0  0  0  0
 18 42  1  0  0  0  0
 19 43  1  0  0  0  0
 19 44  1  0  0  0  0
 19 45  1  0  0  0  0
 20 46  1  0  0  0  0
 20 47  1  0  0  0  0
 21 22  1  0  0  0  0
 21 23  2  0  0  0  0
 22 48  1  0  0  0  0
 22 49  1  0  0  0  0
 22 50  1  0  0  0  0
M  END
> <s_m_source_file>
AV-unprocessed.smi

> <i_m_source_file_index>
2826

> <i_lp_mmshare_version>
43012

> <i_f3d_flags>
0

> <s_epik_input>
W0NIM11PYzFbY0hdW2NIXWMoYyhuMSlbQ0gzXSlbTkhdQyg9TylbTkhdW0NAQEhdMltDSDJdW0NIMl1PW0NASF0oW0NIMl0yKVtDSDJdW0NIXShbQ0gzXSlbQ0gzXQ==

> <s_epik_cmdline>
J2VwaWtfcHl0aG9uJywgJy1waCcsICc3LjAnLCAnLXRuJywgJzgnLCAnLW1hJywgJzIwMCcsICctbWV0YWxfYmluZGluZycsICctaW1hZScsICc8aW5maWxlLm1hZT4nLCAnLW9tYWUnLCAnPG91dGZpbGUubWFlPic=

> <r_lp_tautomer_probability>
1

> <r_epik_Ionization_Penalty>
0.000249977

> <r_epik_Ionization_Penalty_Charging>
0

> <r_epik_Ionization_Penalty_Neutral>
0.000249977

> <r_epik_State_Penalty>
-0

> <r_epik_Charging_Adjusted_Penalty>
0

> <i_epik_Tot_Q>
0

> <i_epik_Tot_abs_Q>
0

> <r_epik_Metal_State_Penalty>
-0

> <b_epik_Metal_Only>
0

> <s_lp_Force_Field>
OPLS_2005

> <r_lp_Energy>
13.0858

> <b_lp_Chiralities_Consistent>
1

> <s_lp_Variant>
AV-unprocessed.smi:2826-4

> <Gold.Version>
5.8.1

> <Gold.Id.Protein>
6NUR|6NUR_protein|mol2

> <Gold.PLP.Fitness>
47.1942

> <Gold.PLP.PLP>
-40.2103

> <Gold.PLP.part.hbond>
-2.8773

> <Gold.PLP.part.metal>
0.0000

> <Gold.PLP.part.buried>
-5.1923

> <Gold.PLP.part.nonpolar>
-33.5163

> <Gold.PLP.part.repulsive>
1.1075

> <Gold.PLP.ligand.clash>
0.0000

> <Gold.PLP.ligand.torsion>
0.5907

> <Gold.PLP.Chemscore.Hbond>
2.6988

> <Gold.PLP.Chemscore.CHOScore>
0.0000

> <Gold.PLP.Chemscore.Metal>
0.0000

> <Gold.Chemscore.Hbonds>
donor molecule, donor type, donor heavy atom, donor atom, acceptor molecule, acceptor atom, score
      L1  H     7    29       P1  7948  1.00
      L1  H    10    30       P1  7948  0.57
      P1  H  7989  7998       L1    14  1.00

> <Gold.PLP.Chemscore.Internal.Correction>
0.0692

> <Gold.Rescore>
     Score         DG    S(hbond)    S(metal)    S(lipo)     H(rot)  DE(clash)    DE(int)     intcor
     17.61     -19.29       2.32        0.00      84.70       1.51       0.20       1.49       ----

> <Gold.Chemscore.Fitness>
17.6099

> <Gold.Chemscore.DG>
-19.2923

> <Gold.Chemscore.ZeroCoef>
-5.4800

> <Gold.Chemscore.Hbond>
2.3227

> <Gold.Chemscore.Metal>
0.0000

> <Gold.Chemscore.Lipo>
84.6951

> <Gold.Chemscore.Internal_Hbond>
0.0000

> <Gold.Chemscore.DEClash>
0.1964

> <Gold.Chemscore.DEInternal>
1.4860

> <Gold.Chemscore.Rot>
1.5057

> <Gold.Chemscore.Internal.Correction>
   9.000000E+99

> <Gold.Chemscore.Hbonds>
donor molecule, donor type, donor heavy atom, donor atom, acceptor molecule, acceptor atom, score
      L1  H     7    29       P1  7948  0.44
      L1  H    10    30       P1  7948  0.48
      P1  H  7989  7998       L1    14  0.50

> <Gold.Chemscore.Hbond.Weighted>
-7.7577

> <Gold.Chemscore.Metal.Weighted>
-0.0000

> <Gold.Chemscore.Lipo.Weighted>
-9.9093

> <Gold.Chemscore.Internal_Hbond.Weighted>
0.0000

> <Gold.Chemscore.DEClash.Weighted>
0.1964

> <Gold.Chemscore.DEInternal.Weighted>
1.4860

> <Gold.Chemscore.Rot.Weighted>
3.8547

> <Gold.Chemscore.Internal.Correction.Weighted>
   9.000000E+99

> <Gold.Protein.RotatedTorsions>
[ 6907 6896 6895 6894 ] final  165.20 input  -60.11 | X-H torsion
[ 7974 7965 7964 7962 ] final  -98.64 input  175.53 | X-H torsion
[ 8008 7997 7996 7995 ] final  -36.83 input   59.86 | X-H torsion
[ 10167 10162 10161 10158 ] final   14.25 input  -65.29 | X-H torsion
[ 10718 10713 10712 10709 ] final    3.70 input   66.30 | X-H torsion
[ 10763 10752 10751 10750 ] final   20.92 input  -60.55 | X-H torsion
[ 11005 11000 10999 10996 ] final -165.43 input  -57.11 | X-H torsion

> <Gold.Protein.ActiveResidues>
 VAL166  LYS551  ARG553  GLY616  TRP617  ASP618  TYR619  PRO620  LYS621  CYS622 
 ASP623  PHE694  ASN695  SER759  ASP760  ASP761  ALA762  ILE779  LEU786  VAL792 
 PHE793  MET794  SER795  GLU796  ALA797  LYS798  CYS799  TRP800  GLU811  SER814 

> <Gold.Protein.RotatedAtoms>
  151.8981  133.3531  159.3821 H   0  0  0  0  0  0  0  0  0  0  0  0  # atno 6907 bound_to 6896
  150.7086  134.4856  159.5500 H   0  0  0  0  0  0  0  0  0  0  0  0  # atno 6908 bound_to 6896
  152.2439  134.8201  160.0507 H   0  0  0  0  0  0  0  0  0  0  0  0  # atno 6909 bound_to 6896
  145.3179  140.9415  143.2732 H   0  0  0  0  0  0  0  0  0  0  0  0  # atno 7974 bound_to 7965
  154.4065  140.1620  156.2438 H   0  0  0  0  0  0  0  0  0  0  0  0  # atno 8008 bound_to 7997
  155.9178  140.3423  155.6126 H   0  0  0  0  0  0  0  0  0  0  0  0  # atno 8009 bound_to 7997
  155.7258  140.0774  157.2301 H   0  0  0  0  0  0  0  0  0  0  0  0  # atno 8010 bound_to 7997
  140.5948  143.8724  150.6907 H   0  0  0  0  0  0  0  0  0  0  0  0  # atno 10167 bound_to 10162
  156.8817  130.5656  149.5653 H   0  0  0  0  0  0  0  0  0  0  0  0  # atno 10718 bound_to 10713
  153.1037  135.6679  153.9625 H   0  0  0  0  0  0  0  0  0  0  0  0  # atno 10763 bound_to 10752
  153.9188  135.3017  155.3449 H   0  0  0  0  0  0  0  0  0  0  0  0  # atno 10764 bound_to 10752
  154.7458  135.5058  153.9278 H   0  0  0  0  0  0  0  0  0  0  0  0  # atno 10765 bound_to 10752
  140.5758  134.5191  157.5170 H   0  0  0  0  0  0  0  0  0  0  0  0  # atno 11005 bound_to 11000
  144.8962  139.4708  143.6654 LP  0  0  0  0  0  0  0  0  0  0  0  0  # atno 17320 bound_to 7965
  146.3093  139.7690  142.9032 LP  0  0  0  0  0  0  0  0  0  0  0  0  # atno 17321 bound_to 7965
  140.2255  143.3776  152.1608 LP  0  0  0  0  0  0  0  0  0  0  0  0  # atno 17342 bound_to 10162
  139.5251  144.7091  151.5261 LP  0  0  0  0  0  0  0  0  0  0  0  0  # atno 17343 bound_to 10162
  156.0674  130.5714  150.9315 LP  0  0  0  0  0  0  0  0  0  0  0  0  # atno 17370 bound_to 10713
  157.6136  131.0935  150.8750 LP  0  0  0  0  0  0  0  0  0  0  0  0  # atno 17371 bound_to 10713
  139.9340  134.7910  156.0853 LP  0  0  0  0  0  0  0  0  0  0  0  0  # atno 17394 bound_to 11000
  141.1027  133.6671  156.2792 LP  0  0  0  0  0  0  0  0  0  0  0  0  # atno 17395 bound_to 11000

$$$$
