AV-unprocessed.smi:3025|AV-procd|sdf|11510|dock10
  -GOLD-   2272016443D 1   1.00000     0.00000
 Structure written by MMmdl.
 42 43  0  0  0  0  0  0  0  0  2 V2000
  144.7227  133.2774  150.0944 C   0  0  0  0  0  0  0  0  0  0  0  0
  144.8338  134.7911  150.3063 C   0  0  0  0  0  0  0  0  0  0  0  0
  145.3703  135.1509  151.7022 C   0  0  0  0  0  0  0  0  0  0  0  0
  145.4987  136.6667  151.9597 C   0  0  2  0  0  0  0  0  0  0  0  0
  146.4546  137.3597  150.9650 C   0  0  0  0  0  0  0  0  0  0  0  0
  146.5850  138.8656  151.2520 C   0  0  0  0  0  0  0  0  0  0  0  0
  147.0296  139.1524  152.7020 C   0  0  2  0  0  0  0  0  0  0  0  0
  148.4377  138.7633  152.9503 N   0  3  0  0  0  0  0  0  0  0  0  0
  148.9306  139.0024  154.3230 C   0  0  0  0  0  0  0  0  0  0  0  0
  149.0480  140.5048  154.6117 C   0  0  0  0  0  0  0  0  0  0  0  0
  149.9349  140.7912  155.7789 C   0  0  0  0  0  0  0  0  0  0  0  0
  150.7337  139.8909  156.3638 N   0  0  0  0  0  0  0  0  0  0  0  0
  151.3840  140.5743  157.3791 N   0  0  0  0  0  0  0  0  0  0  0  0
  150.9156  141.8211  157.3067 C   0  0  0  0  0  0  0  0  0  0  0  0
  150.0179  142.0108  156.3324 N   0  0  0  0  0  0  0  0  0  0  0  0
  146.0933  138.4420  153.6970 C   0  0  0  0  0  0  0  0  0  0  0  0
  145.9616  136.9367  153.4053 C   0  0  0  0  0  0  0  0  0  0  0  0
  149.5288  142.8581  156.0823 H   0  0  0  0  0  0  0  0  0  0  0  0
  144.3449  133.0517  149.0969 H   0  0  0  0  0  0  0  0  0  0  0  0
  144.0421  132.8263  150.8171 H   0  0  0  0  0  0  0  0  0  0  0  0
  145.6935  132.7925  150.1999 H   0  0  0  0  0  0  0  0  0  0  0  0
  145.4827  135.2039  149.5344 H   0  0  0  0  0  0  0  0  0  0  0  0
  143.8526  135.2448  150.1621 H   0  0  0  0  0  0  0  0  0  0  0  0
  144.6939  134.7253  152.4449 H   0  0  0  0  0  0  0  0  0  0  0  0
  146.3342  134.6663  151.8621 H   0  0  0  0  0  0  0  0  0  0  0  0
  144.5082  137.1100  151.8443 H   0  0  0  0  0  0  0  0  0  0  0  0
  147.4382  136.8903  151.0071 H   0  0  0  0  0  0  0  0  0  0  0  0
  146.0983  137.2311  149.9434 H   0  0  0  0  0  0  0  0  0  0  0  0
  147.2614  139.3264  150.5327 H   0  0  0  0  0  0  0  0  0  0  0  0
  145.6154  139.3366  151.0833 H   0  0  0  0  0  0  0  0  0  0  0  0
  146.9523  140.2249  152.8865 H   0  0  0  0  0  0  0  0  0  0  0  0
  148.5134  137.7719  152.7730 H   0  0  0  0  0  0  0  0  0  0  0  0
  148.2527  138.5437  155.0429 H   0  0  0  0  0  0  0  0  0  0  0  0
  149.9046  138.5275  154.4470 H   0  0  0  0  0  0  0  0  0  0  0  0
  149.4348  141.0277  153.7359 H   0  0  0  0  0  0  0  0  0  0  0  0
  148.0627  140.9262  154.8163 H   0  0  0  0  0  0  0  0  0  0  0  0
  151.2353  142.6078  157.9743 H   0  0  0  0  0  0  0  0  0  0  0  0
  146.4406  138.5957  154.7195 H   0  0  0  0  0  0  0  0  0  0  0  0
  145.1040  138.8984  153.6434 H   0  0  0  0  0  0  0  0  0  0  0  0
  145.2546  136.4967  154.1097 H   0  0  0  0  0  0  0  0  0  0  0  0
  146.9168  136.4418  153.5856 H   0  0  0  0  0  0  0  0  0  0  0  0
  149.0306  139.2511  152.2938 H   0  0  0  0  0  0  0  0  0  0  0  0
  1  2  1  0  0  0  0
  1 19  1  0  0  0  0
  1 20  1  0  0  0  0
  1 21  1  0  0  0  0
  2  3  1  0  0  0  0
  2 22  1  0  0  0  0
  2 23  1  0  0  0  0
  3  4  1  0  0  0  0
  3 24  1  0  0  0  0
  3 25  1  0  0  0  0
  4 17  1  0  0  0  0
  4  5  1  0  0  0  0
  4 26  1  0  0  0  0
  5  6  1  0  0  0  0
  5 27  1  0  0  0  0
  5 28  1  0  0  0  0
  6  7  1  0  0  0  0
  6 29  1  0  0  0  0
  6 30  1  0  0  0  0
  7  8  1  0  0  0  0
  7 16  1  0  0  0  0
  7 31  1  0  0  0  0
  8  9  1  0  0  0  0
  8 32  1  0  0  0  0
  8 42  1  0  0  0  0
  9 10  1  0  0  0  0
  9 33  1  0  0  0  0
  9 34  1  0  0  0  0
 10 11  1  0  0  0  0
 10 35  1  0  0  0  0
 10 36  1  0  0  0  0
 11 15  1  0  0  0  0
 11 12  2  0  0  0  0
 12 13  1  0  0  0  0
 13 14  2  0  0  0  0
 14 15  1  0  0  0  0
 14 37  1  0  0  0  0
 15 18  1  0  0  0  0
 16 17  1  0  0  0  0
 16 38  1  0  0  0  0
 16 39  1  0  0  0  0
 17 40  1  0  0  0  0
 17 41  1  0  0  0  0
M  CHG  1   8   1
M  END
> <s_m_source_file>
AV-unprocessed.smi

> <i_m_source_file_index>
3025

> <i_lp_mmshare_version>
43012

> <i_f3d_flags>
0

> <s_epik_input>
W0NIM11bQ0gyXVtDSDJdW0NAQEhdMVtDSDJdW0NIMl1bQ0BIXShbQ0gyXVtDSDJdMSlbTkhdW0NIMl1bQ0gyXWMybm5bY0hdW25IXTI=

> <s_epik_cmdline>
J2VwaWtfcHl0aG9uJywgJy1waCcsICc3LjAnLCAnLXRuJywgJzgnLCAnLW1hJywgJzIwMCcsICctbWV0YWxfYmluZGluZycsICctaW1hZScsICc8aW5maWxlLm1hZT4nLCAnLW9tYWUnLCAnPG91dGZpbGUubWFlPic=

> <r_lp_tautomer_probability>
0.0517155

> <r_epik_Ionization_Penalty>
0.0349397

> <r_epik_Ionization_Penalty_Charging>
0.000546397

> <r_epik_Ionization_Penalty_Neutral>
0.0343933

> <r_epik_State_Penalty>
2.24019

> <r_epik_Charging_Adjusted_Penalty>
2.24074

> <i_epik_Tot_Q>
1

> <i_epik_Tot_abs_Q>
1

> <r_epik_Metal_State_Penalty>
2.47389

> <b_epik_Metal_Only>
0

> <s_lp_Force_Field>
OPLS_2005

> <r_lp_Energy>
17.8014

> <b_lp_Chiralities_Consistent>
1

> <s_lp_Variant>
AV-unprocessed.smi:3025-6

> <Gold.Version>
5.8.1

> <Gold.Id.Protein>
6NUR|6NUR_protein|mol2

> <Gold.PLP.Fitness>
41.2556

> <Gold.PLP.PLP>
-29.9849

> <Gold.PLP.part.hbond>
-2.8798

> <Gold.PLP.part.metal>
0.0000

> <Gold.PLP.part.buried>
0.4715

> <Gold.PLP.part.nonpolar>
-29.0562

> <Gold.PLP.part.repulsive>
0.2170

> <Gold.PLP.ligand.clash>
0.0000

> <Gold.PLP.ligand.torsion>
0.2175

> <Gold.PLP.Chemscore.Hbond>
3.8940

> <Gold.PLP.Chemscore.CHOScore>
0.0000

> <Gold.PLP.Chemscore.Metal>
0.0000

> <Gold.Chemscore.Hbonds>
donor molecule, donor type, donor heavy atom, donor atom, acceptor molecule, acceptor atom, score
      L1  H     8    32       P1  7948  2.00
      L1  H     8    42       P1  7957  0.89
      L1  H    15    18       P1  8028  1.00

> <Gold.PLP.Chemscore.Internal.Correction>
0.0237

> <Gold.Rescore>
     Score         DG    S(hbond)    S(metal)    S(lipo)     H(rot)  DE(clash)    DE(int)     intcor
     14.13     -16.14       2.97        0.00      62.42       2.56       1.60       0.41       ----

> <Gold.Chemscore.Fitness>
14.1321

> <Gold.Chemscore.DG>
-16.1422

> <Gold.Chemscore.ZeroCoef>
-5.4800

> <Gold.Chemscore.Hbond>
2.9680

> <Gold.Chemscore.Metal>
0.0000

> <Gold.Chemscore.Lipo>
62.4223

> <Gold.Chemscore.Internal_Hbond>
0.0000

> <Gold.Chemscore.DEClash>
1.6004

> <Gold.Chemscore.DEInternal>
0.4097

> <Gold.Chemscore.Rot>
2.5602

> <Gold.Chemscore.Internal.Correction>
   9.000000E+99

> <Gold.Chemscore.Hbonds>
donor molecule, donor type, donor heavy atom, donor atom, acceptor molecule, acceptor atom, score
      L1  H     8    32       P1  7948  0.99
      L1  H     8    42       P1  7957  0.85
      L1  H    15    18       P1  8028  0.94

> <Gold.Chemscore.Hbond.Weighted>
-9.9130

> <Gold.Chemscore.Metal.Weighted>
-0.0000

> <Gold.Chemscore.Lipo.Weighted>
-7.3034

> <Gold.Chemscore.Internal_Hbond.Weighted>
0.0000

> <Gold.Chemscore.DEClash.Weighted>
1.6004

> <Gold.Chemscore.DEInternal.Weighted>
0.4097

> <Gold.Chemscore.Rot.Weighted>
6.5542

> <Gold.Chemscore.Internal.Correction.Weighted>
   9.000000E+99

> <Gold.Protein.RotatedTorsions>
[ 6907 6896 6895 6894 ] final   68.61 input  -60.11 | X-H torsion
[ 7974 7965 7964 7962 ] final    2.96 input  175.53 | X-H torsion
[ 8008 7997 7996 7995 ] final -115.72 input   59.86 | X-H torsion
[ 10167 10162 10161 10158 ] final -116.39 input  -65.29 | X-H torsion
[ 10718 10713 10712 10709 ] final  144.64 input   66.30 | X-H torsion
[ 10763 10752 10751 10750 ] final   88.26 input  -60.55 | X-H torsion
[ 11005 11000 10999 10996 ] final   33.10 input  -57.11 | X-H torsion

> <Gold.Protein.ActiveResidues>
 VAL166  LYS551  ARG553  GLY616  TRP617  ASP618  TYR619  PRO620  LYS621  CYS622 
 ASP623  PHE694  ASN695  SER759  ASP760  ASP761  ALA762  ILE779  LEU786  VAL792 
 PHE793  MET794  SER795  GLU796  ALA797  LYS798  CYS799  TRP800  GLU811  SER814 

> <Gold.Protein.RotatedAtoms>
  152.4632  134.5137  159.9761 H   0  0  0  0  0  0  0  0  0  0  0  0  # atno 6907 bound_to 6896
  151.5181  133.3466  159.2904 H   0  0  0  0  0  0  0  0  0  0  0  0  # atno 6908 bound_to 6896
  150.8604  134.7983  159.7140 H   0  0  0  0  0  0  0  0  0  0  0  0  # atno 6909 bound_to 6896
  146.2444  140.0758  142.8360 H   0  0  0  0  0  0  0  0  0  0  0  0  # atno 7974 bound_to 7965
  155.0564  140.0393  157.2561 H   0  0  0  0  0  0  0  0  0  0  0  0  # atno 8008 bound_to 7997
  154.7095  140.2690  155.6618 H   0  0  0  0  0  0  0  0  0  0  0  0  # atno 8009 bound_to 7997
  156.2785  140.2724  156.1732 H   0  0  0  0  0  0  0  0  0  0  0  0  # atno 8010 bound_to 7997
  140.0797  143.4799  152.1933 H   0  0  0  0  0  0  0  0  0  0  0  0  # atno 10167 bound_to 10162
  157.3547  131.0956  151.0968 H   0  0  0  0  0  0  0  0  0  0  0  0  # atno 10718 bound_to 10713
  153.1751  135.4513  154.9954 H   0  0  0  0  0  0  0  0  0  0  0  0  # atno 10763 bound_to 10752
  154.7992  135.3249  154.7594 H   0  0  0  0  0  0  0  0  0  0  0  0  # atno 10764 bound_to 10752
  153.8065  135.6958  153.4902 H   0  0  0  0  0  0  0  0  0  0  0  0  # atno 10765 bound_to 10752
  140.2666  134.3130  155.7841 H   0  0  0  0  0  0  0  0  0  0  0  0  # atno 11005 bound_to 11000
  145.0776  140.9199  143.4844 LP  0  0  0  0  0  0  0  0  0  0  0  0  # atno 17320 bound_to 7965
  145.0904  139.2894  143.5737 LP  0  0  0  0  0  0  0  0  0  0  0  0  # atno 17321 bound_to 7965
  139.5787  144.7500  151.3698 LP  0  0  0  0  0  0  0  0  0  0  0  0  # atno 17342 bound_to 10162
  140.7084  143.7455  150.7522 LP  0  0  0  0  0  0  0  0  0  0  0  0  # atno 17343 bound_to 10162
  157.2131  130.6447  149.5781 LP  0  0  0  0  0  0  0  0  0  0  0  0  # atno 17370 bound_to 10713
  155.9727  130.4653  150.6250 LP  0  0  0  0  0  0  0  0  0  0  0  0  # atno 17371 bound_to 10713
  141.2183  133.7441  156.9270 LP  0  0  0  0  0  0  0  0  0  0  0  0  # atno 17394 bound_to 11000
  140.1413  134.9291  157.2470 LP  0  0  0  0  0  0  0  0  0  0  0  0  # atno 17395 bound_to 11000

$$$$
