AV-unprocessed.smi:1531|AV-procd|sdf|6157|dock8
  -GOLD-   22720 6303D 1   1.00000     0.00000
 Structure written by MMmdl.
 44 45  0  0  0  0  0  0  0  0  1 V2000
  149.2230  139.2696  154.8488 C   0  0  0  0  0  0  0  0  0  0  0  0
  148.4573  140.3562  154.0810 C   0  0  0  0  0  0  0  0  0  0  0  0
  147.3692  141.0718  154.9139 C   0  0  1  0  0  0  0  0  0  0  0  0
  146.8076  142.2916  154.1508 C   0  0  0  0  0  0  0  0  0  0  0  0
  145.7611  143.0543  154.9784 C   0  0  0  0  0  0  0  0  0  0  0  0
  144.6190  142.1296  155.4222 C   0  0  0  0  0  0  0  0  0  0  0  0
  145.1595  140.9133  156.1914 C   0  0  0  0  0  0  0  0  0  0  0  0
  146.2228  140.1383  155.3866 C   0  0  1  0  0  0  0  0  0  0  0  0
  145.6023  139.4472  154.2553 N   0  0  0  0  0  0  0  0  0  0  0  0
  145.5897  138.1224  154.0524 C   0  0  0  0  0  0  0  0  0  0  0  0
  146.1043  137.3063  154.8172 O   0  0  0  0  0  0  0  0  0  0  0  0
  144.9451  137.8140  152.9154 N   0  0  0  0  0  0  0  0  0  0  0  0
  144.7608  136.5264  152.3523 C   0  0  0  0  0  0  0  0  0  0  0  0
  143.5141  135.8556  152.2568 C   0  0  0  0  0  0  0  0  0  0  0  0
  143.6498  134.6725  151.6776 N   0  0  0  0  0  0  0  0  0  0  0  0
  144.9724  134.5685  151.3935 N   0  0  0  0  0  0  0  0  0  0  0  0
  145.4755  133.3763  150.7347 C   0  0  0  0  0  0  0  0  0  0  0  0
  144.4015  132.7374  149.8519 C   0  0  0  0  0  0  0  0  0  0  0  0
  144.1056  133.3562  148.7053 N   0  0  0  0  0  0  0  0  0  0  0  0
  143.8463  131.6973  150.1992 O   0  0  0  0  0  0  0  0  0  0  0  0
  145.6809  135.6845  151.7949 C   0  0  0  0  0  0  0  0  0  0  0  0
  150.0371  138.8716  154.2427 H   0  0  0  0  0  0  0  0  0  0  0  0
  148.5765  138.4326  155.1129 H   0  0  0  0  0  0  0  0  0  0  0  0
  149.6563  139.6654  155.7675 H   0  0  0  0  0  0  0  0  0  0  0  0
  149.1789  141.0977  153.7364 H   0  0  0  0  0  0  0  0  0  0  0  0
  148.0237  139.9250  153.1781 H   0  0  0  0  0  0  0  0  0  0  0  0
  147.8580  141.4582  155.8097 H   0  0  0  0  0  0  0  0  0  0  0  0
  147.6190  142.9703  153.8856 H   0  0  0  0  0  0  0  0  0  0  0  0
  146.3617  141.9685  153.2092 H   0  0  0  0  0  0  0  0  0  0  0  0
  146.2381  143.4933  155.8557 H   0  0  0  0  0  0  0  0  0  0  0  0
  145.3607  143.8852  154.3966 H   0  0  0  0  0  0  0  0  0  0  0  0
  143.9170  142.6813  156.0479 H   0  0  0  0  0  0  0  0  0  0  0  0
  144.0563  141.7953  154.5497 H   0  0  0  0  0  0  0  0  0  0  0  0
  145.6014  141.2546  157.1285 H   0  0  0  0  0  0  0  0  0  0  0  0
  144.3378  140.2518  156.4693 H   0  0  0  0  0  0  0  0  0  0  0  0
  146.6547  139.3984  156.0621 H   0  0  0  0  0  0  0  0  0  0  0  0
  145.1497  140.0325  153.5685 H   0  0  0  0  0  0  0  0  0  0  0  0
  144.5555  138.5831  152.3903 H   0  0  0  0  0  0  0  0  0  0  0  0
  142.5360  136.1803  152.5801 H   0  0  0  0  0  0  0  0  0  0  0  0
  146.3462  133.6455  150.1352 H   0  0  0  0  0  0  0  0  0  0  0  0
  145.8138  132.6609  151.4862 H   0  0  0  0  0  0  0  0  0  0  0  0
  143.4058  132.9708  148.0879 H   0  0  0  0  0  0  0  0  0  0  0  0
  144.5877  134.2087  148.4588 H   0  0  0  0  0  0  0  0  0  0  0  0
  146.7467  135.7716  151.6441 H   0  0  0  0  0  0  0  0  0  0  0  0
  1  2  1  0  0  0  0
  1 22  1  0  0  0  0
  1 23  1  0  0  0  0
  1 24  1  0  0  0  0
  2  3  1  0  0  0  0
  2 25  1  0  0  0  0
  2 26  1  0  0  0  0
  3  8  1  0  0  0  0
  3  4  1  0  0  0  0
  3 27  1  0  0  0  0
  4  5  1  0  0  0  0
  4 28  1  0  0  0  0
  4 29  1  0  0  0  0
  5  6  1  0  0  0  0
  5 30  1  0  0  0  0
  5 31  1  0  0  0  0
  6  7  1  0  0  0  0
  6 32  1  0  0  0  0
  6 33  1  0  0  0  0
  7  8  1  0  0  0  0
  7 34  1  0  0  0  0
  7 35  1  0  0  0  0
  8  9  1  0  0  0  0
  8 36  1  0  0  0  0
  9 10  1  0  0  0  0
  9 37  1  0  0  0  0
 10 11  2  0  0  0  0
 10 12  1  0  0  0  0
 12 13  1  0  0  0  0
 12 38  1  0  0  0  0
 13 21  2  0  0  0  0
 13 14  1  0  0  0  0
 14 15  2  0  0  0  0
 14 39  1  0  0  0  0
 15 16  1  0  0  0  0
 16 17  1  0  0  0  0
 16 21  1  0  0  0  0
 17 18  1  0  0  0  0
 17 40  1  0  0  0  0
 17 41  1  0  0  0  0
 18 19  1  0  0  0  0
 18 20  2  0  0  0  0
 19 42  1  0  0  0  0
 19 43  1  0  0  0  0
 21 44  1  0  0  0  0
M  END
> <s_m_source_file>
AV-unprocessed.smi

> <i_m_source_file_index>
1531

> <i_lp_mmshare_version>
43012

> <i_f3d_flags>
0

> <s_epik_input>
W0NIM11bQ0gyXVtDQEBIXTFbQ0gyXVtDSDJdW0NIMl1bQ0gyXVtDQEhdMVtOSF1DKD1PKVtOSF1jMltjSF1ubihbY0hdMilbQ0gyXUMoPU8pW05IMl0=

> <s_epik_cmdline>
J2VwaWtfcHl0aG9uJywgJy1waCcsICc3LjAnLCAnLXRuJywgJzgnLCAnLW1hJywgJzIwMCcsICctbWV0YWxfYmluZGluZycsICctaW1hZScsICc8aW5maWxlLm1hZT4nLCAnLW9tYWUnLCAnPG91dGZpbGUubWFlPic=

> <r_lp_tautomer_probability>
1

> <r_epik_Ionization_Penalty>
4.83437e-05

> <r_epik_Ionization_Penalty_Charging>
0

> <r_epik_Ionization_Penalty_Neutral>
4.83437e-05

> <r_epik_State_Penalty>
-0

> <r_epik_Charging_Adjusted_Penalty>
0

> <i_epik_Tot_Q>
0

> <i_epik_Tot_abs_Q>
0

> <r_epik_Metal_State_Penalty>
-0

> <b_epik_Metal_Only>
0

> <s_lp_Force_Field>
OPLS_2005

> <r_lp_Energy>
14.4879

> <b_lp_Chiralities_Consistent>
1

> <s_lp_Variant>
AV-unprocessed.smi:1531-2

> <Gold.Version>
5.8.1

> <Gold.Id.Protein>
6NUR|6NUR_protein|mol2

> <Gold.PLP.Fitness>
45.0787

> <Gold.PLP.PLP>
-34.1604

> <Gold.PLP.part.hbond>
-4.9852

> <Gold.PLP.part.metal>
0.0000

> <Gold.PLP.part.buried>
-4.6564

> <Gold.PLP.part.nonpolar>
-26.0817

> <Gold.PLP.part.repulsive>
0.6556

> <Gold.PLP.ligand.clash>
0.0000

> <Gold.PLP.ligand.torsion>
1.2120

> <Gold.PLP.Chemscore.Hbond>
3.4323

> <Gold.PLP.Chemscore.CHOScore>
1.0000

> <Gold.PLP.Chemscore.Metal>
0.0000

> <Gold.Chemscore.Hbonds>
donor molecule, donor type, donor heavy atom, donor atom, acceptor molecule, acceptor atom, score
      L1  H     9    37       P1 10175  1.00
      L1  H    12    38       P1 10175  0.87
      L1  H    19    43       P1  7921  0.82
      P1  H 10785 10796       L1    20  0.42
      L1  C    21    44       P1  7948  1.00

> <Gold.PLP.Chemscore.Internal.Correction>
0.0454

> <Gold.Rescore>
     Score         DG    S(hbond)    S(metal)    S(lipo)     H(rot)  DE(clash)    DE(int)     intcor
     16.52     -18.80       3.57        0.00      58.58       2.13       1.36       0.92       ----

> <Gold.Chemscore.Fitness>
16.5203

> <Gold.Chemscore.DG>
-18.7954

> <Gold.Chemscore.ZeroCoef>
-5.4800

> <Gold.Chemscore.Hbond>
3.5698

> <Gold.Chemscore.Metal>
0.0000

> <Gold.Chemscore.Lipo>
58.5817

> <Gold.Chemscore.Internal_Hbond>
0.0000

> <Gold.Chemscore.DEClash>
1.3565

> <Gold.Chemscore.DEInternal>
0.9186

> <Gold.Chemscore.Rot>
2.1335

> <Gold.Chemscore.Internal.Correction>
   9.000000E+99

> <Gold.Chemscore.Hbonds>
donor molecule, donor type, donor heavy atom, donor atom, acceptor molecule, acceptor atom, score
      L1  H     9    37       P1 10175  0.96
      L1  H    12    38       P1 10175  0.81
      L1  H    19    43       P1  7921  0.81
      P1  H 10785 10796       L1    20  0.42

> <Gold.Chemscore.Hbond.Weighted>
-11.9232

> <Gold.Chemscore.Metal.Weighted>
-0.0000

> <Gold.Chemscore.Lipo.Weighted>
-6.8541

> <Gold.Chemscore.Internal_Hbond.Weighted>
0.0000

> <Gold.Chemscore.DEClash.Weighted>
1.3565

> <Gold.Chemscore.DEInternal.Weighted>
0.9186

> <Gold.Chemscore.Rot.Weighted>
5.4618

> <Gold.Chemscore.Internal.Correction.Weighted>
   9.000000E+99

> <Gold.Protein.RotatedTorsions>
[ 6907 6896 6895 6894 ] final   60.40 input  -60.11 | X-H torsion
[ 7974 7965 7964 7962 ] final -126.35 input  175.53 | X-H torsion
[ 8008 7997 7996 7995 ] final  166.29 input   59.86 | X-H torsion
[ 10167 10162 10161 10158 ] final   98.59 input  -65.29 | X-H torsion
[ 10718 10713 10712 10709 ] final   -1.82 input   66.30 | X-H torsion
[ 10763 10752 10751 10750 ] final  -35.75 input  -60.55 | X-H torsion
[ 11005 11000 10999 10996 ] final  -76.69 input  -57.11 | X-H torsion

> <Gold.Protein.ActiveResidues>
 VAL166  LYS551  ARG553  GLY616  TRP617  ASP618  TYR619  PRO620  LYS621  CYS622 
 ASP623  PHE694  ASN695  SER759  ASP760  ASP761  ALA762  ILE779  LEU786  VAL792 
 PHE793  MET794  SER795  GLU796  ALA797  LYS798  CYS799  TRP800  GLU811  SER814 

> <Gold.Protein.RotatedAtoms>
  152.3999  134.6303  160.0073 H   0  0  0  0  0  0  0  0  0  0  0  0  # atno 6907 bound_to 6896
  151.6512  133.3315  159.3160 H   0  0  0  0  0  0  0  0  0  0  0  0  # atno 6908 bound_to 6896
  150.7901  134.6961  159.6568 H   0  0  0  0  0  0  0  0  0  0  0  0  # atno 6909 bound_to 6896
  144.9882  140.7706  143.4570 H   0  0  0  0  0  0  0  0  0  0  0  0  # atno 7974 bound_to 7965
  156.1731  140.1647  156.8412 H   0  0  0  0  0  0  0  0  0  0  0  0  # atno 8008 bound_to 7997
  154.5277  140.0763  156.8323 H   0  0  0  0  0  0  0  0  0  0  0  0  # atno 8009 bound_to 7997
  155.3471  140.3388  155.4241 H   0  0  0  0  0  0  0  0  0  0  0  0  # atno 8010 bound_to 7997
  139.7695  144.6927  151.0176 H   0  0  0  0  0  0  0  0  0  0  0  0  # atno 10167 bound_to 10162
  156.7999  130.5389  149.5723 H   0  0  0  0  0  0  0  0  0  0  0  0  # atno 10718 bound_to 10713
  153.8684  135.6833  153.4776 H   0  0  0  0  0  0  0  0  0  0  0  0  # atno 10763 bound_to 10752
  153.1302  135.4701  154.9334 H   0  0  0  0  0  0  0  0  0  0  0  0  # atno 10764 bound_to 10752
  154.7726  135.3243  154.8109 H   0  0  0  0  0  0  0  0  0  0  0  0  # atno 10765 bound_to 10752
  141.1655  133.6993  156.7706 H   0  0  0  0  0  0  0  0  0  0  0  0  # atno 11005 bound_to 11000
  145.2323  139.2109  143.5036 LP  0  0  0  0  0  0  0  0  0  0  0  0  # atno 17320 bound_to 7965
  146.3425  140.2203  142.8591 LP  0  0  0  0  0  0  0  0  0  0  0  0  # atno 17321 bound_to 7965
  140.7813  143.4604  151.0285 LP  0  0  0  0  0  0  0  0  0  0  0  0  # atno 17342 bound_to 10162
  139.8289  143.7719  152.3179 LP  0  0  0  0  0  0  0  0  0  0  0  0  # atno 17343 bound_to 10162
  156.1107  130.6038  151.0043 LP  0  0  0  0  0  0  0  0  0  0  0  0  # atno 17370 bound_to 10713
  157.6559  131.0889  150.7949 LP  0  0  0  0  0  0  0  0  0  0  0  0  # atno 17371 bound_to 10713
  140.2467  134.8572  157.3627 LP  0  0  0  0  0  0  0  0  0  0  0  0  # atno 17394 bound_to 11000
  140.1743  134.4569  155.7812 LP  0  0  0  0  0  0  0  0  0  0  0  0  # atno 17395 bound_to 11000

$$$$
