AV-unprocessed.smi:1655|AV-procd|sdf|6645|dock9
  -GOLD-   22720 7353D 1   1.00000     0.00000
 Structure written by MMmdl.
 34 35  0  0  0  0  0  0  0  0  1 V2000
  146.8224  142.2229  153.9278 C   0  0  0  0  0  0  0  0  0  0  0  0
  146.6991  140.7432  154.0579 C   0  0  0  0  0  0  0  0  0  0  0  0
  147.2898  139.7001  153.4018 C   0  0  0  0  0  0  0  0  0  0  0  0
  146.7166  138.5619  154.0287 C   0  0  0  0  0  0  0  0  0  0  0  0
  147.0764  137.2508  153.6251 N   0  0  0  0  0  0  0  0  0  0  0  0
  146.5421  136.0898  154.0406 C   0  0  0  0  0  0  0  0  0  0  0  0
  145.6327  135.9811  154.8638 O   0  0  0  0  0  0  0  0  0  0  0  0
  147.1256  135.0426  153.4397 N   0  0  0  0  0  0  0  0  0  0  0  0
  146.7732  133.6452  153.6631 C   0  0  0  0  0  0  0  0  0  0  0  0
  146.8772  132.8211  152.3689 C   0  0  0  0  0  0  0  0  0  0  0  0
  145.7094  133.0806  151.4060 C   0  0  1  0  0  0  0  0  0  0  0  0
  145.8075  132.3106  150.0891 C   0  0  0  0  0  0  0  0  0  0  0  0
  144.3574  132.1307  149.6622 C   0  0  0  0  0  0  0  0  0  0  0  0
  143.5473  132.5651  150.8862 C   0  0  0  0  0  0  0  0  0  0  0  0
  144.4876  132.6061  151.9491 O   0  0  0  0  0  0  0  0  0  0  0  0
  145.8532  138.8810  154.9807 N   0  0  0  0  0  0  0  0  0  0  0  0
  145.8374  140.2807  155.0041 O   0  0  0  0  0  0  0  0  0  0  0  0
  147.8011  142.4977  153.5341 H   0  0  0  0  0  0  0  0  0  0  0  0
  146.6994  142.7110  154.8948 H   0  0  0  0  0  0  0  0  0  0  0  0
  146.0630  142.6154  153.2515 H   0  0  0  0  0  0  0  0  0  0  0  0
  148.0147  139.7475  152.6028 H   0  0  0  0  0  0  0  0  0  0  0  0
  147.8187  137.1904  152.9441 H   0  0  0  0  0  0  0  0  0  0  0  0
  147.8656  135.2236  152.7773 H   0  0  0  0  0  0  0  0  0  0  0  0
  147.4530  133.2443  154.4152 H   0  0  0  0  0  0  0  0  0  0  0  0
  145.7685  133.5742  154.0836 H   0  0  0  0  0  0  0  0  0  0  0  0
  147.8120  133.0625  151.8611 H   0  0  0  0  0  0  0  0  0  0  0  0
  146.9237  131.7586  152.6109 H   0  0  0  0  0  0  0  0  0  0  0  0
  145.6157  134.1488  151.2007 H   0  0  0  0  0  0  0  0  0  0  0  0
  146.4060  132.8364  149.3447 H   0  0  0  0  0  0  0  0  0  0  0  0
  146.2615  131.3323  150.2526 H   0  0  0  0  0  0  0  0  0  0  0  0
  144.1101  132.7422  148.7939 H   0  0  0  0  0  0  0  0  0  0  0  0
  144.1611  131.0887  149.4067 H   0  0  0  0  0  0  0  0  0  0  0  0
  143.1323  133.5632  150.7374 H   0  0  0  0  0  0  0  0  0  0  0  0
  142.7258  131.8843  151.1095 H   0  0  0  0  0  0  0  0  0  0  0  0
  1  2  1  0  0  0  0
  1 18  1  0  0  0  0
  1 19  1  0  0  0  0
  1 20  1  0  0  0  0
  2 17  1  0  0  0  0
  2  3  2  0  0  0  0
  3  4  1  0  0  0  0
  3 21  1  0  0  0  0
  4  5  1  0  0  0  0
  4 16  2  0  0  0  0
  5  6  1  0  0  0  0
  5 22  1  0  0  0  0
  6  7  2  0  0  0  0
  6  8  1  0  0  0  0
  8  9  1  0  0  0  0
  8 23  1  0  0  0  0
  9 10  1  0  0  0  0
  9 24  1  0  0  0  0
  9 25  1  0  0  0  0
 10 11  1  0  0  0  0
 10 26  1  0  0  0  0
 10 27  1  0  0  0  0
 11 15  1  0  0  0  0
 11 12  1  0  0  0  0
 11 28  1  0  0  0  0
 12 13  1  0  0  0  0
 12 29  1  0  0  0  0
 12 30  1  0  0  0  0
 13 14  1  0  0  0  0
 13 31  1  0  0  0  0
 13 32  1  0  0  0  0
 14 15  1  0  0  0  0
 14 33  1  0  0  0  0
 14 34  1  0  0  0  0
 16 17  1  0  0  0  0
M  END
> <s_m_source_file>
AV-unprocessed.smi

> <i_m_source_file_index>
1655

> <i_lp_mmshare_version>
43012

> <i_f3d_flags>
0

> <s_epik_input>
W0NIM11jMVtjSF1jKG5vMSlbTkhdQyg9TylbTkhdW0NIMl1bQ0gyXVtDQEBIXTJbQ0gyXVtDSDJdW0NIMl1PMg==

> <s_epik_cmdline>
J2VwaWtfcHl0aG9uJywgJy1waCcsICc3LjAnLCAnLXRuJywgJzgnLCAnLW1hJywgJzIwMCcsICctbWV0YWxfYmluZGluZycsICctaW1hZScsICc8aW5maWxlLm1hZT4nLCAnLW9tYWUnLCAnPG91dGZpbGUubWFlPic=

> <r_lp_tautomer_probability>
1

> <r_epik_Ionization_Penalty>
2.23964e-05

> <r_epik_Ionization_Penalty_Charging>
0

> <r_epik_Ionization_Penalty_Neutral>
2.23964e-05

> <r_epik_State_Penalty>
-0

> <r_epik_Charging_Adjusted_Penalty>
0

> <i_epik_Tot_Q>
0

> <i_epik_Tot_abs_Q>
0

> <r_epik_Metal_State_Penalty>
-0

> <b_epik_Metal_Only>
0

> <s_lp_Force_Field>
OPLS_2005

> <r_lp_Energy>
15.0992

> <b_lp_Chiralities_Consistent>
1

> <s_lp_Variant>
AV-unprocessed.smi:1655-2

> <Gold.Version>
5.8.1

> <Gold.Id.Protein>
6NUR|6NUR_protein|mol2

> <Gold.PLP.Fitness>
31.3379

> <Gold.PLP.PLP>
-25.8233

> <Gold.PLP.part.hbond>
-2.0000

> <Gold.PLP.part.metal>
0.0000

> <Gold.PLP.part.buried>
-3.9696

> <Gold.PLP.part.nonpolar>
-20.7758

> <Gold.PLP.part.repulsive>
0.3008

> <Gold.PLP.ligand.clash>
0.0000

> <Gold.PLP.ligand.torsion>
0.2468

> <Gold.PLP.Chemscore.Hbond>
2.0000

> <Gold.PLP.Chemscore.CHOScore>
0.0000

> <Gold.PLP.Chemscore.Metal>
0.0000

> <Gold.Chemscore.Hbonds>
donor molecule, donor type, donor heavy atom, donor atom, acceptor molecule, acceptor atom, score
      L1  H     5    22       P1  7948  1.00
      L1  H     8    23       P1  7948  1.00

> <Gold.PLP.Chemscore.Internal.Correction>
0.0083

> <Gold.Rescore>
     Score         DG    S(hbond)    S(metal)    S(lipo)     H(rot)  DE(clash)    DE(int)     intcor
     14.60     -16.13       1.91        0.00      70.27       1.55       0.03       1.50       ----

> <Gold.Chemscore.Fitness>
14.6028

> <Gold.Chemscore.DG>
-16.1288

> <Gold.Chemscore.ZeroCoef>
-5.4800

> <Gold.Chemscore.Hbond>
1.9148

> <Gold.Chemscore.Metal>
0.0000

> <Gold.Chemscore.Lipo>
70.2744

> <Gold.Chemscore.Internal_Hbond>
0.0000

> <Gold.Chemscore.DEClash>
0.0280

> <Gold.Chemscore.DEInternal>
1.4981

> <Gold.Chemscore.Rot>
1.5503

> <Gold.Chemscore.Internal.Correction>
   9.000000E+99

> <Gold.Chemscore.Hbonds>
donor molecule, donor type, donor heavy atom, donor atom, acceptor molecule, acceptor atom, score
      L1  H     5    22       P1  7948  0.97
      L1  H     8    23       P1  7948  0.99

> <Gold.Chemscore.Hbond.Weighted>
-6.3954

> <Gold.Chemscore.Metal.Weighted>
-0.0000

> <Gold.Chemscore.Lipo.Weighted>
-8.2221

> <Gold.Chemscore.Internal_Hbond.Weighted>
0.0000

> <Gold.Chemscore.DEClash.Weighted>
0.0280

> <Gold.Chemscore.DEInternal.Weighted>
1.4981

> <Gold.Chemscore.Rot.Weighted>
3.9687

> <Gold.Chemscore.Internal.Correction.Weighted>
   9.000000E+99

> <Gold.Protein.RotatedTorsions>
[ 6907 6896 6895 6894 ] final    2.64 input  -60.11 | X-H torsion
[ 7974 7965 7964 7962 ] final  -66.78 input  175.53 | X-H torsion
[ 8008 7997 7996 7995 ] final  171.40 input   59.86 | X-H torsion
[ 10167 10162 10161 10158 ] final   26.14 input  -65.29 | X-H torsion
[ 10718 10713 10712 10709 ] final  124.41 input   66.30 | X-H torsion
[ 10763 10752 10751 10750 ] final  127.77 input  -60.55 | X-H torsion
[ 11005 11000 10999 10996 ] final  -67.06 input  -57.11 | X-H torsion

> <Gold.Protein.ActiveResidues>
 VAL166  LYS551  ARG553  GLY616  TRP617  ASP618  TYR619  PRO620  LYS621  CYS622 
 ASP623  PHE694  ASN695  SER759  ASP760  ASP761  ALA762  ILE779  LEU786  VAL792 
 PHE793  MET794  SER795  GLU796  ALA797  LYS798  CYS799  TRP800  GLU811  SER814 

> <Gold.Protein.RotatedAtoms>
  151.6122  135.1039  160.0083 H   0  0  0  0  0  0  0  0  0  0  0  0  # atno 6907 bound_to 6896
  152.4202  133.7100  159.6484 H   0  0  0  0  0  0  0  0  0  0  0  0  # atno 6908 bound_to 6896
  150.8090  133.8383  159.3213 H   0  0  0  0  0  0  0  0  0  0  0  0  # atno 6909 bound_to 6896
  145.7375  140.8969  143.0547 H   0  0  0  0  0  0  0  0  0  0  0  0  # atno 7974 bound_to 7965
  156.1274  140.1513  156.9116 H   0  0  0  0  0  0  0  0  0  0  0  0  # atno 8008 bound_to 7997
  154.4882  140.0859  156.7576 H   0  0  0  0  0  0  0  0  0  0  0  0  # atno 8009 bound_to 7997
  155.4318  140.3427  155.4283 H   0  0  0  0  0  0  0  0  0  0  0  0  # atno 8010 bound_to 7997
  140.5047  144.0257  150.6347 H   0  0  0  0  0  0  0  0  0  0  0  0  # atno 10167 bound_to 10162
  157.5587  131.1090  150.8577 H   0  0  0  0  0  0  0  0  0  0  0  0  # atno 10718 bound_to 10713
  153.7148  135.3262  155.3254 H   0  0  0  0  0  0  0  0  0  0  0  0  # atno 10763 bound_to 10752
  154.8374  135.4485  154.1277 H   0  0  0  0  0  0  0  0  0  0  0  0  # atno 10764 bound_to 10752
  153.2381  135.6968  153.7893 H   0  0  0  0  0  0  0  0  0  0  0  0  # atno 10765 bound_to 10752
  141.1498  133.6711  156.6235 H   0  0  0  0  0  0  0  0  0  0  0  0  # atno 11005 bound_to 11000
  144.6878  139.9415  143.7475 LP  0  0  0  0  0  0  0  0  0  0  0  0  # atno 17320 bound_to 7965
  146.0480  139.3483  143.0657 LP  0  0  0  0  0  0  0  0  0  0  0  0  # atno 17321 bound_to 7965
  140.3563  143.2934  152.0432 LP  0  0  0  0  0  0  0  0  0  0  0  0  # atno 17342 bound_to 10162
  139.4881  144.6336  151.7020 LP  0  0  0  0  0  0  0  0  0  0  0  0  # atno 17343 bound_to 10162
  156.9081  130.5271  149.5281 LP  0  0  0  0  0  0  0  0  0  0  0  0  # atno 17370 bound_to 10713
  156.0642  130.5689  150.9255 LP  0  0  0  0  0  0  0  0  0  0  0  0  # atno 17371 bound_to 10713
  140.3522  134.7759  157.4475 LP  0  0  0  0  0  0  0  0  0  0  0  0  # atno 17394 bound_to 11000
  140.0852  134.5677  155.8500 LP  0  0  0  0  0  0  0  0  0  0  0  0  # atno 17395 bound_to 11000

$$$$
