AV-unprocessed.smi:3031|AV-procd|sdf|11544|dock5
  -GOLD-   2272016493D 1   1.00000     0.00000
 Structure written by MMmdl.
 47 48  0  0  0  0  0  0  0  0  2 V2000
  151.1705  140.6547  158.1959 C   0  0  0  0  0  0  0  0  0  0  0  0
  150.6286  140.5890  156.7972 C   0  0  0  0  0  0  0  0  0  0  0  0
  150.9896  139.6774  155.7645 C   0  0  0  0  0  0  0  0  0  0  0  0
  150.3303  139.8906  154.6373 N   0  0  0  0  0  0  0  0  0  0  0  0
  149.5260  140.9392  154.9103 N   0  0  0  0  0  0  0  0  0  0  0  0
  148.6508  141.4634  153.8782 C   0  0  0  0  0  0  0  0  0  0  0  0
  147.2007  140.9415  153.9874 C   0  0  1  0  0  0  0  0  0  0  0  0
  146.2927  142.0052  154.6191 C   0  0  0  0  0  0  0  0  0  0  0  0
  146.6635  140.5674  152.6590 N   0  3  0  0  0  0  0  0  0  0  0  0
  147.2112  139.3205  152.0811 C   0  0  0  0  0  0  0  0  0  0  0  0
  146.1207  138.2441  151.9537 C   0  0  1  0  0  0  0  0  0  0  0  0
  146.4288  137.4614  150.8153 O   0  0  0  0  0  0  0  0  0  0  0  0
  146.0728  137.3191  153.1892 C   0  0  0  0  0  0  0  0  0  0  0  0
  144.9185  136.4231  153.2526 N   0  0  0  0  0  0  0  0  0  0  0  0
  145.1145  135.2567  152.3974 C   0  0  0  0  0  0  0  0  0  0  0  0
  143.9144  134.2957  152.4486 C   0  0  0  0  0  0  0  0  0  0  0  0
  142.7298  134.9950  152.0818 O   0  0  0  0  0  0  0  0  0  0  0  0
  142.4729  136.1160  152.9209 C   0  0  0  0  0  0  0  0  0  0  0  0
  143.6696  137.0822  152.8759 C   0  0  0  0  0  0  0  0  0  0  0  0
  149.6789  141.3757  156.2093 C   0  0  0  0  0  0  0  0  0  0  0  0
  150.9797  139.7318  158.7437 H   0  0  0  0  0  0  0  0  0  0  0  0
  150.7220  141.4666  158.7688 H   0  0  0  0  0  0  0  0  0  0  0  0
  152.2488  140.8150  158.2017 H   0  0  0  0  0  0  0  0  0  0  0  0
  151.7106  138.8739  155.7999 H   0  0  0  0  0  0  0  0  0  0  0  0
  148.6640  142.5520  153.9508 H   0  0  0  0  0  0  0  0  0  0  0  0
  149.0734  141.2147  152.9036 H   0  0  0  0  0  0  0  0  0  0  0  0
  147.1763  140.0683  154.6416 H   0  0  0  0  0  0  0  0  0  0  0  0
  146.6438  142.2797  155.6144 H   0  0  0  0  0  0  0  0  0  0  0  0
  145.2705  141.6398  154.7224 H   0  0  0  0  0  0  0  0  0  0  0  0
  146.2628  142.9133  154.0158 H   0  0  0  0  0  0  0  0  0  0  0  0
  145.6650  140.4427  152.7465 H   0  0  0  0  0  0  0  0  0  0  0  0
  147.6659  139.5050  151.1087 H   0  0  0  0  0  0  0  0  0  0  0  0
  148.0088  138.9710  152.7378 H   0  0  0  0  0  0  0  0  0  0  0  0
  145.1540  138.7301  151.8118 H   0  0  0  0  0  0  0  0  0  0  0  0
  147.2414  137.0047  150.9730 H   0  0  0  0  0  0  0  0  0  0  0  0
  147.0019  136.7537  153.2816 H   0  0  0  0  0  0  0  0  0  0  0  0
  146.0372  137.9565  154.0737 H   0  0  0  0  0  0  0  0  0  0  0  0
  145.2738  135.5765  151.3664 H   0  0  0  0  0  0  0  0  0  0  0  0
  146.0154  134.7218  152.7000 H   0  0  0  0  0  0  0  0  0  0  0  0
  144.0648  133.4636  151.7608 H   0  0  0  0  0  0  0  0  0  0  0  0
  143.8012  133.8707  153.4472 H   0  0  0  0  0  0  0  0  0  0  0  0
  141.5674  136.6176  152.5795 H   0  0  0  0  0  0  0  0  0  0  0  0
  142.2871  135.7793  153.9418 H   0  0  0  0  0  0  0  0  0  0  0  0
  143.4669  137.9174  153.5457 H   0  0  0  0  0  0  0  0  0  0  0  0
  143.7595  137.4999  151.8720 H   0  0  0  0  0  0  0  0  0  0  0  0
  149.1127  142.2079  156.6016 H   0  0  0  0  0  0  0  0  0  0  0  0
  146.8330  141.3292  152.0175 H   0  0  0  0  0  0  0  0  0  0  0  0
  1  2  1  0  0  0  0
  1 21  1  0  0  0  0
  1 22  1  0  0  0  0
  1 23  1  0  0  0  0
  2 20  2  0  0  0  0
  2  3  1  0  0  0  0
  3  4  2  0  0  0  0
  3 24  1  0  0  0  0
  4  5  1  0  0  0  0
  5  6  1  0  0  0  0
  5 20  1  0  0  0  0
  6  7  1  0  0  0  0
  6 25  1  0  0  0  0
  6 26  1  0  0  0  0
  7  8  1  0  0  0  0
  7  9  1  0  0  0  0
  7 27  1  0  0  0  0
  8 28  1  0  0  0  0
  8 29  1  0  0  0  0
  8 30  1  0  0  0  0
  9 10  1  0  0  0  0
  9 31  1  0  0  0  0
  9 47  1  0  0  0  0
 10 11  1  0  0  0  0
 10 32  1  0  0  0  0
 10 33  1  0  0  0  0
 11 12  1  0  0  0  0
 11 13  1  0  0  0  0
 11 34  1  0  0  0  0
 12 35  1  0  0  0  0
 13 14  1  0  0  0  0
 13 36  1  0  0  0  0
 13 37  1  0  0  0  0
 14 19  1  0  0  0  0
 14 15  1  0  0  0  0
 15 16  1  0  0  0  0
 15 38  1  0  0  0  0
 15 39  1  0  0  0  0
 16 17  1  0  0  0  0
 16 40  1  0  0  0  0
 16 41  1  0  0  0  0
 17 18  1  0  0  0  0
 18 19  1  0  0  0  0
 18 42  1  0  0  0  0
 18 43  1  0  0  0  0
 19 44  1  0  0  0  0
 19 45  1  0  0  0  0
 20 46  1  0  0  0  0
M  CHG  1   9   1
M  END
> <s_m_source_file>
AV-unprocessed.smi

> <i_m_source_file_index>
3031

> <i_lp_mmshare_version>
43012

> <i_f3d_flags>
0

> <s_epik_input>
W0NIM11jMVtjSF1ubihbY0hdMSlbQ0gyXVtDQEhdKFtDSDNdKVtOSF1bQ0gyXVtDQEhdKFtPSF0pW0NIMl1OMltDSDJdW0NIMl1PW0NIMl1bQ0gyXTI=

> <s_epik_cmdline>
J2VwaWtfcHl0aG9uJywgJy1waCcsICc3LjAnLCAnLXRuJywgJzgnLCAnLW1hJywgJzIwMCcsICctbWV0YWxfYmluZGluZycsICctaW1hZScsICc8aW5maWxlLm1hZT4nLCAnLW9tYWUnLCAnPG91dGZpbGUubWFlPic=

> <r_lp_tautomer_probability>
1

> <r_epik_Ionization_Penalty>
0.108564

> <r_epik_Ionization_Penalty_Charging>
0.01811

> <r_epik_Ionization_Penalty_Neutral>
0.0904541

> <r_epik_State_Penalty>
0.141043

> <r_epik_Charging_Adjusted_Penalty>
0.159153

> <i_epik_Tot_Q>
1

> <i_epik_Tot_abs_Q>
1

> <r_epik_Metal_State_Penalty>
0.141052

> <b_epik_Metal_Only>
0

> <s_lp_Force_Field>
OPLS_2005

> <r_lp_Energy>
31.0841

> <b_lp_Chiralities_Consistent>
1

> <s_lp_Variant>
AV-unprocessed.smi:3031-4

> <Gold.Version>
5.8.1

> <Gold.Id.Protein>
6NUR|6NUR_protein|mol2

> <Gold.PLP.Fitness>
46.2784

> <Gold.PLP.PLP>
-35.1522

> <Gold.PLP.part.hbond>
-5.0000

> <Gold.PLP.part.metal>
0.0000

> <Gold.PLP.part.buried>
2.6797

> <Gold.PLP.part.nonpolar>
-33.1704

> <Gold.PLP.part.repulsive>
0.4455

> <Gold.PLP.ligand.clash>
0.0000

> <Gold.PLP.ligand.torsion>
2.0405

> <Gold.PLP.Chemscore.Hbond>
4.0000

> <Gold.PLP.Chemscore.CHOScore>
0.9814

> <Gold.PLP.Chemscore.Metal>
0.0000

> <Gold.Chemscore.Hbonds>
donor molecule, donor type, donor heavy atom, donor atom, acceptor molecule, acceptor atom, score
      L1  H     9    31       P1 10175  2.00
      L1  H    12    35       P1  7948  1.00
      P1  H  7989  7998       L1     4  0.85
      L1  C    20    46       P1  8028  0.60

> <Gold.PLP.Chemscore.Internal.Correction>
0.2630

> <Gold.Rescore>
     Score         DG    S(hbond)    S(metal)    S(lipo)     H(rot)  DE(clash)    DE(int)     intcor
     12.93     -16.21       2.66        0.00      73.39       2.63       1.42       1.87       ----

> <Gold.Chemscore.Fitness>
12.9260

> <Gold.Chemscore.DG>
-16.2124

> <Gold.Chemscore.ZeroCoef>
-5.4800

> <Gold.Chemscore.Hbond>
2.6560

> <Gold.Chemscore.Metal>
0.0000

> <Gold.Chemscore.Lipo>
73.3876

> <Gold.Chemscore.Internal_Hbond>
0.0000

> <Gold.Chemscore.DEClash>
1.4165

> <Gold.Chemscore.DEInternal>
1.8698

> <Gold.Chemscore.Rot>
2.6270

> <Gold.Chemscore.Internal.Correction>
   9.000000E+99

> <Gold.Chemscore.Hbonds>
donor molecule, donor type, donor heavy atom, donor atom, acceptor molecule, acceptor atom, score
      L1  H     9    31       P1 10175  0.72
      L1  H    12    35       P1  7948  0.93
      P1  H  7989  7998       L1     4  0.06

> <Gold.Chemscore.Hbond.Weighted>
-8.8712

> <Gold.Chemscore.Metal.Weighted>
-0.0000

> <Gold.Chemscore.Lipo.Weighted>
-8.5863

> <Gold.Chemscore.Internal_Hbond.Weighted>
0.0000

> <Gold.Chemscore.DEClash.Weighted>
1.4165

> <Gold.Chemscore.DEInternal.Weighted>
1.8698

> <Gold.Chemscore.Rot.Weighted>
6.7251

> <Gold.Chemscore.Internal.Correction.Weighted>
   9.000000E+99

> <Gold.Protein.RotatedTorsions>
[ 6907 6896 6895 6894 ] final  -52.73 input  -60.11 | X-H torsion
[ 7974 7965 7964 7962 ] final  -37.77 input  175.53 | X-H torsion
[ 8008 7997 7996 7995 ] final -165.06 input   59.86 | X-H torsion
[ 10167 10162 10161 10158 ] final -171.22 input  -65.29 | X-H torsion
[ 10718 10713 10712 10709 ] final  -20.28 input   66.30 | X-H torsion
[ 10763 10752 10751 10750 ] final   24.46 input  -60.55 | X-H torsion
[ 11005 11000 10999 10996 ] final   34.45 input  -57.11 | X-H torsion

> <Gold.Protein.ActiveResidues>
 VAL166  LYS551  ARG553  GLY616  TRP617  ASP618  TYR619  PRO620  LYS621  CYS622 
 ASP623  PHE694  ASN695  SER759  ASP760  ASP761  ALA762  ILE779  LEU786  VAL792 
 PHE793  MET794  SER795  GLU796  ALA797  LYS798  CYS799  TRP800  GLU811  SER814 

> <Gold.Protein.RotatedAtoms>
  150.8491  134.7810  159.6994 H   0  0  0  0  0  0  0  0  0  0  0  0  # atno 6907 bound_to 6896
  152.4560  134.5286  159.9814 H   0  0  0  0  0  0  0  0  0  0  0  0  # atno 6908 bound_to 6896
  151.5411  133.3395  159.2971 H   0  0  0  0  0  0  0  0  0  0  0  0  # atno 6909 bound_to 6896
  146.0545  140.6435  142.9026 H   0  0  0  0  0  0  0  0  0  0  0  0  # atno 7974 bound_to 7965
  155.8444  140.0953  157.1714 H   0  0  0  0  0  0  0  0  0  0  0  0  # atno 8008 bound_to 7997
  154.3983  140.1395  156.3829 H   0  0  0  0  0  0  0  0  0  0  0  0  # atno 8009 bound_to 7997
  155.8029  140.3452  155.5416 H   0  0  0  0  0  0  0  0  0  0  0  0  # atno 8010 bound_to 7997
  139.5815  144.1413  152.1521 H   0  0  0  0  0  0  0  0  0  0  0  0  # atno 10167 bound_to 10162
  156.5340  130.4662  149.6532 H   0  0  0  0  0  0  0  0  0  0  0  0  # atno 10718 bound_to 10713
  153.0762  135.6604  154.0141 H   0  0  0  0  0  0  0  0  0  0  0  0  # atno 10763 bound_to 10752
  153.9774  135.2958  155.3424 H   0  0  0  0  0  0  0  0  0  0  0  0  # atno 10764 bound_to 10752
  154.7151  135.5189  153.8795 H   0  0  0  0  0  0  0  0  0  0  0  0  # atno 10765 bound_to 10752
  140.2527  134.3284  155.7884 H   0  0  0  0  0  0  0  0  0  0  0  0  # atno 11005 bound_to 11000
  144.7140  140.4145  143.7058 LP  0  0  0  0  0  0  0  0  0  0  0  0  # atno 17320 bound_to 7965
  145.6667  139.1591  143.2778 LP  0  0  0  0  0  0  0  0  0  0  0  0  # atno 17321 bound_to 7965
  140.0967  144.5574  150.7017 LP  0  0  0  0  0  0  0  0  0  0  0  0  # atno 17342 bound_to 10162
  140.7093  143.2492  151.4632 LP  0  0  0  0  0  0  0  0  0  0  0  0  # atno 17343 bound_to 10162
  156.3033  130.7189  151.2065 LP  0  0  0  0  0  0  0  0  0  0  0  0  # atno 17370 bound_to 10713
  157.7417  131.0500  150.5079 LP  0  0  0  0  0  0  0  0  0  0  0  0  # atno 17371 bound_to 10713
  141.2199  133.7363  156.9063 LP  0  0  0  0  0  0  0  0  0  0  0  0  # atno 17394 bound_to 11000
  140.1542  134.9210  157.2632 LP  0  0  0  0  0  0  0  0  0  0  0  0  # atno 17395 bound_to 11000

$$$$
