AV-unprocessed.smi:249|AV-procd|sdf|1912|dock7
  -GOLD-   2262021 03D 1   1.00000     0.00000
 Structure written by MMmdl.
 64 67  0  0  0  0  0  0  0  0  2 V2000
  146.9726  128.2251  151.8420 C   0  0  0  0  0  0  0  0  0  0  0  0
  147.3732  128.9032  153.1626 C   0  0  0  0  0  0  0  0  0  0  0  0
  147.8750  130.2969  152.9857 N   0  3  2  0  0  0  0  0  0  0  0  0
  148.8965  130.6495  154.0130 C   0  0  0  0  0  0  0  0  0  0  0  0
  149.4892  132.0482  153.7843 C   0  0  0  0  0  0  0  0  0  0  0  0
  148.3949  133.1356  153.7867 C   0  0  2  0  0  0  0  0  0  0  0  0
  147.7470  133.3265  155.0951 N   0  0  0  0  0  0  0  0  0  0  0  0
  146.2896  133.4019  155.1228 C   0  0  0  0  0  0  0  0  0  0  0  0
  148.2829  134.2647  155.9085 C   0  0  0  0  0  0  0  0  0  0  0  0
  147.7667  134.3648  157.1579 N   0  0  0  0  0  0  0  0  0  0  0  0
  148.2591  135.2667  158.0125 C   0  0  0  0  0  0  0  0  0  0  0  0
  149.2431  136.1479  157.8209 N   0  0  0  0  0  0  0  0  0  0  0  0
  149.7529  136.0592  156.5588 C   0  0  0  0  0  0  0  0  0  0  0  0
  149.3351  135.1520  155.5452 C   0  0  0  0  0  0  0  0  0  0  0  0
  150.0857  135.3488  154.3927 N   0  0  0  0  0  0  0  0  0  0  0  0
  150.9082  136.3113  154.7098 C   0  0  0  0  0  0  0  0  0  0  0  0
  150.7642  136.8107  155.9850 N   0  0  0  0  0  0  0  0  0  0  0  0
  151.5527  137.8683  156.5936 C   0  0  0  0  0  0  0  0  0  0  0  0
  151.3566  139.2737  155.9656 C   0  0  1  0  0  0  0  0  0  0  0  0
  150.0901  139.2609  155.0784 C   0  0  0  0  0  0  0  0  0  0  0  0
  150.1836  140.1973  154.0238 O   0  0  0  0  0  0  0  0  0  0  0  0
  151.3490  140.4479  156.9880 C   0  0  1  0  0  0  0  0  0  0  0  0
  150.9680  141.8136  156.4371 C   0  0  0  0  0  0  0  0  0  0  0  0
  150.5781  142.5871  157.6920 C   0  0  0  0  0  0  0  0  0  0  0  0
  150.0659  141.6218  158.6011 O   0  0  0  0  0  0  0  0  0  0  0  0
  150.2935  140.3129  158.0928 C   0  0  0  0  0  0  0  0  0  0  0  0
  147.3878  132.7401  152.6906 C   0  0  0  0  0  0  0  0  0  0  0  0
  146.7896  131.3293  152.9041 C   0  0  1  0  0  0  0  0  0  0  0  0
  145.7731  131.0521  151.7769 C   0  0  0  0  0  0  0  0  0  0  0  0
  146.4684  127.2786  152.0391 H   0  0  0  0  0  0  0  0  0  0  0  0
  147.8325  127.9967  151.2134 H   0  0  0  0  0  0  0  0  0  0  0  0
  146.2856  128.8487  151.2692 H   0  0  0  0  0  0  0  0  0  0  0  0
  146.4781  128.8968  153.7797 H   0  0  0  0  0  0  0  0  0  0  0  0
  148.1172  128.3035  153.6889 H   0  0  0  0  0  0  0  0  0  0  0  0
  148.4526  130.5835  155.0074 H   0  0  0  0  0  0  0  0  0  0  0  0
  149.7204  129.9385  153.9924 H   0  0  0  0  0  0  0  0  0  0  0  0
  150.2629  132.2525  154.5244 H   0  0  0  0  0  0  0  0  0  0  0  0
  150.0040  132.0610  152.8227 H   0  0  0  0  0  0  0  0  0  0  0  0
  148.8461  134.0860  153.5006 H   0  0  0  0  0  0  0  0  0  0  0  0
  145.9150  133.8016  156.0670 H   0  0  0  0  0  0  0  0  0  0  0  0
  145.8575  132.4089  154.9993 H   0  0  0  0  0  0  0  0  0  0  0  0
  145.9220  134.0388  154.3174 H   0  0  0  0  0  0  0  0  0  0  0  0
  147.8000  135.2850  158.9899 H   0  0  0  0  0  0  0  0  0  0  0  0
  151.6395  136.6943  154.0128 H   0  0  0  0  0  0  0  0  0  0  0  0
  151.2871  137.8936  157.6511 H   0  0  0  0  0  0  0  0  0  0  0  0
  152.6048  137.5836  156.5509 H   0  0  0  0  0  0  0  0  0  0  0  0
  152.1881  139.4485  155.2827 H   0  0  0  0  0  0  0  0  0  0  0  0
  149.9142  138.2717  154.6560 H   0  0  0  0  0  0  0  0  0  0  0  0
  149.2074  139.4955  155.6740 H   0  0  0  0  0  0  0  0  0  0  0  0
  149.8877  139.7839  153.2271 H   0  0  0  0  0  0  0  0  0  0  0  0
  152.3309  140.5269  157.4579 H   0  0  0  0  0  0  0  0  0  0  0  0
  151.7749  142.3114  155.9028 H   0  0  0  0  0  0  0  0  0  0  0  0
  150.1114  141.7305  155.7664 H   0  0  0  0  0  0  0  0  0  0  0  0
  151.4572  143.0507  158.1410 H   0  0  0  0  0  0  0  0  0  0  0  0
  149.8486  143.3711  157.4876 H   0  0  0  0  0  0  0  0  0  0  0  0
  149.3530  139.9409  157.6841 H   0  0  0  0  0  0  0  0  0  0  0  0
  150.6051  139.6376  158.8898 H   0  0  0  0  0  0  0  0  0  0  0  0
  146.5937  133.4836  152.6181 H   0  0  0  0  0  0  0  0  0  0  0  0
  147.8923  132.7678  151.7233 H   0  0  0  0  0  0  0  0  0  0  0  0
  146.2479  131.3237  153.8516 H   0  0  0  0  0  0  0  0  0  0  0  0
  145.1012  131.9004  151.6416 H   0  0  0  0  0  0  0  0  0  0  0  0
  145.1333  130.1974  151.9934 H   0  0  0  0  0  0  0  0  0  0  0  0
  146.2722  130.8756  150.8234 H   0  0  0  0  0  0  0  0  0  0  0  0
  148.3462  130.3179  152.0926 H   0  0  0  0  0  0  0  0  0  0  0  0
  1  2  1  0  0  0  0
  1 30  1  0  0  0  0
  1 31  1  0  0  0  0
  1 32  1  0  0  0  0
  2  3  1  0  0  0  0
  2 33  1  0  0  0  0
  2 34  1  0  0  0  0
  3 28  1  0  0  0  0
  3  4  1  0  0  0  0
  3 64  1  0  0  0  0
  4  5  1  0  0  0  0
  4 35  1  0  0  0  0
  4 36  1  0  0  0  0
  5  6  1  0  0  0  0
  5 37  1  0  0  0  0
  5 38  1  0  0  0  0
  6  7  1  0  0  0  0
  6 27  1  0  0  0  0
  6 39  1  0  0  0  0
  7  8  1  0  0  0  0
  7  9  1  0  0  0  0
  8 40  1  0  0  0  0
  8 41  1  0  0  0  0
  8 42  1  0  0  0  0
  9 14  1  0  0  0  0
  9 10  2  0  0  0  0
 10 11  1  0  0  0  0
 11 12  2  0  0  0  0
 11 43  1  0  0  0  0
 12 13  1  0  0  0  0
 13 17  1  0  0  0  0
 13 14  2  0  0  0  0
 14 15  1  0  0  0  0
 15 16  2  0  0  0  0
 16 17  1  0  0  0  0
 16 44  1  0  0  0  0
 17 18  1  0  0  0  0
 18 19  1  0  0  0  0
 18 45  1  0  0  0  0
 18 46  1  0  0  0  0
 19 20  1  0  0  0  0
 19 22  1  0  0  0  0
 19 47  1  0  0  0  0
 20 21  1  0  0  0  0
 20 48  1  0  0  0  0
 20 49  1  0  0  0  0
 21 50  1  0  0  0  0
 22 26  1  0  0  0  0
 22 23  1  0  0  0  0
 22 51  1  0  0  0  0
 23 24  1  0  0  0  0
 23 52  1  0  0  0  0
 23 53  1  0  0  0  0
 24 25  1  0  0  0  0
 24 54  1  0  0  0  0
 24 55  1  0  0  0  0
 25 26  1  0  0  0  0
 26 56  1  0  0  0  0
 26 57  1  0  0  0  0
 27 28  1  0  0  0  0
 27 58  1  0  0  0  0
 27 59  1  0  0  0  0
 28 29  1  0  0  0  0
 28 60  1  0  0  0  0
 29 61  1  0  0  0  0
 29 62  1  0  0  0  0
 29 63  1  0  0  0  0
M  CHG  1   3   1
M  END
> <s_m_source_file>
AV-unprocessed.smi

> <i_m_source_file_index>
249

> <i_lp_mmshare_version>
43012

> <i_f3d_flags>
0

> <s_epik_input>
W0NIM11bQ0gyXU4xW0NIMl1bQ0gyXVtDQEhdKFtDSDJdW0NASF0xW0NIM10pTihbQ0gzXSljKG5bY0hdbjIpYyhjMjMpbltjSF1uM1tDSDJdW0NASF0oW0NIMl1bT0hdKVtDQEBIXTRbQ0gyXVtDSDJdT1tDSDJdNA==

> <s_epik_cmdline>
J2VwaWtfcHl0aG9uJywgJy1waCcsICc3LjAnLCAnLXRuJywgJzgnLCAnLW1hJywgJzIwMCcsICctbWV0YWxfYmluZGluZycsICctaW1hZScsICc8aW5maWxlLm1hZT4nLCAnLW9tYWUnLCAnPG91dGZpbGUubWFlPic=

> <r_lp_tautomer_probability>
1

> <r_epik_Ionization_Penalty>
0.00294688

> <r_epik_Ionization_Penalty_Charging>
0.00169971

> <r_epik_Ionization_Penalty_Neutral>
0.00124717

> <r_epik_State_Penalty>
-0

> <r_epik_Charging_Adjusted_Penalty>
0.00169971

> <i_epik_Tot_Q>
1

> <i_epik_Tot_abs_Q>
1

> <r_epik_Metal_State_Penalty>
-0

> <b_epik_Metal_Only>
0

> <s_lp_Force_Field>
OPLS_2005

> <r_lp_Energy>
57.4157

> <b_lp_Chiralities_Consistent>
1

> <s_lp_Variant>
AV-unprocessed.smi:249-15

> <Gold.Version>
5.8.1

> <Gold.Id.Protein>
6NUR|6NUR_protein|mol2

> <Gold.PLP.Fitness>
42.5327

> <Gold.PLP.PLP>
-37.3685

> <Gold.PLP.part.hbond>
-3.0534

> <Gold.PLP.part.metal>
0.0000

> <Gold.PLP.part.buried>
-5.2574

> <Gold.PLP.part.nonpolar>
-30.4526

> <Gold.PLP.part.repulsive>
1.9218

> <Gold.PLP.ligand.clash>
0.0199

> <Gold.PLP.ligand.torsion>
2.5528

> <Gold.PLP.Chemscore.Hbond>
2.7434

> <Gold.PLP.Chemscore.CHOScore>
0.4673

> <Gold.PLP.Chemscore.Metal>
0.0000

> <Gold.Chemscore.Hbonds>
donor molecule, donor type, donor heavy atom, donor atom, acceptor molecule, acceptor atom, score
      L1  H     3    64       P1 10747  1.00
      L1  H    21    50       P1  7957  0.74
      P1  H  7989  7998       L1    21  0.87
      L1  C    16    44       P1  7949  0.46

> <Gold.PLP.Chemscore.Internal.Correction>
0.6578

> <Gold.Rescore>
     Score         DG    S(hbond)    S(metal)    S(lipo)     H(rot)  DE(clash)    DE(int)     intcor
     11.36     -18.09       2.47        0.00     100.58       2.90       1.39       5.34       ----

> <Gold.Chemscore.Fitness>
11.3583

> <Gold.Chemscore.DG>
-18.0881

> <Gold.Chemscore.ZeroCoef>
-5.4800

> <Gold.Chemscore.Hbond>
2.4748

> <Gold.Chemscore.Metal>
0.0000

> <Gold.Chemscore.Lipo>
100.5819

> <Gold.Chemscore.Internal_Hbond>
0.0000

> <Gold.Chemscore.DEClash>
1.3913

> <Gold.Chemscore.DEInternal>
5.3386

> <Gold.Chemscore.Rot>
2.9006

> <Gold.Chemscore.Internal.Correction>
   9.000000E+99

> <Gold.Chemscore.Hbonds>
donor molecule, donor type, donor heavy atom, donor atom, acceptor molecule, acceptor atom, score
      L1  H     3    64       P1 10747  0.84
      L1  H    21    50       P1  7957  0.72
      P1  H  7989  7998       L1    21  0.19

> <Gold.Chemscore.Hbond.Weighted>
-8.2657

> <Gold.Chemscore.Metal.Weighted>
-0.0000

> <Gold.Chemscore.Lipo.Weighted>
-11.7681

> <Gold.Chemscore.Internal_Hbond.Weighted>
0.0000

> <Gold.Chemscore.DEClash.Weighted>
1.3913

> <Gold.Chemscore.DEInternal.Weighted>
5.3386

> <Gold.Chemscore.Rot.Weighted>
7.4256

> <Gold.Chemscore.Internal.Correction.Weighted>
   9.000000E+99

> <Gold.Protein.RotatedTorsions>
[ 6907 6896 6895 6894 ] final   33.87 input  -60.11 | X-H torsion
[ 7974 7965 7964 7962 ] final   41.56 input  175.53 | X-H torsion
[ 8008 7997 7996 7995 ] final  -98.31 input   59.86 | X-H torsion
[ 10167 10162 10161 10158 ] final  113.89 input  -65.29 | X-H torsion
[ 10718 10713 10712 10709 ] final   17.34 input   66.30 | X-H torsion
[ 10763 10752 10751 10750 ] final -168.36 input  -60.55 | X-H torsion
[ 11005 11000 10999 10996 ] final  -15.92 input  -57.11 | X-H torsion

> <Gold.Protein.ActiveResidues>
 VAL166  LYS551  ARG553  GLY616  TRP617  ASP618  TYR619  PRO620  LYS621  CYS622 
 ASP623  PHE694  ASN695  SER759  ASP760  ASP761  ALA762  ILE779  LEU786  VAL792 
 PHE793  MET794  SER795  GLU796  ALA797  LYS798  CYS799  TRP800  GLU811  SER814 

> <Gold.Protein.RotatedAtoms>
  152.0945  134.9384  160.0570 H   0  0  0  0  0  0  0  0  0  0  0  0  # atno 6907 bound_to 6896
  152.0623  133.4063  159.4431 H   0  0  0  0  0  0  0  0  0  0  0  0  # atno 6908 bound_to 6896
  150.6837  134.3106  159.4788 H   0  0  0  0  0  0  0  0  0  0  0  0  # atno 6909 bound_to 6896
  146.0813  139.5402  142.9535 H   0  0  0  0  0  0  0  0  0  0  0  0  # atno 7974 bound_to 7965
  154.7994  140.0456  157.1261 H   0  0  0  0  0  0  0  0  0  0  0  0  # atno 8008 bound_to 7997
  154.9496  140.3063  155.5061 H   0  0  0  0  0  0  0  0  0  0  0  0  # atno 8009 bound_to 7997
  156.2960  140.2290  156.4573 H   0  0  0  0  0  0  0  0  0  0  0  0  # atno 8010 bound_to 7997
  139.6428  144.7125  151.2203 H   0  0  0  0  0  0  0  0  0  0  0  0  # atno 10167 bound_to 10162
  157.0807  130.6387  149.5826 H   0  0  0  0  0  0  0  0  0  0  0  0  # atno 10718 bound_to 10713
  154.6636  135.2928  154.9834 H   0  0  0  0  0  0  0  0  0  0  0  0  # atno 10763 bound_to 10752
  154.0885  135.6594  153.4852 H   0  0  0  0  0  0  0  0  0  0  0  0  # atno 10764 bound_to 10752
  153.0444  135.5214  154.7599 H   0  0  0  0  0  0  0  0  0  0  0  0  # atno 10765 bound_to 10752
  140.8015  133.8210  155.9475 H   0  0  0  0  0  0  0  0  0  0  0  0  # atno 11005 bound_to 11000
  145.6212  141.0322  143.1914 LP  0  0  0  0  0  0  0  0  0  0  0  0  # atno 17320 bound_to 7965
  144.7295  139.7769  143.7352 LP  0  0  0  0  0  0  0  0  0  0  0  0  # atno 17321 bound_to 7965
  140.7499  143.6282  150.8448 LP  0  0  0  0  0  0  0  0  0  0  0  0  # atno 17342 bound_to 10162
  139.9922  143.5835  152.2906 LP  0  0  0  0  0  0  0  0  0  0  0  0  # atno 17343 bound_to 10162
  155.9924  130.4982  150.7340 LP  0  0  0  0  0  0  0  0  0  0  0  0  # atno 17370 bound_to 10713
  157.4802  131.0901  151.0545 LP  0  0  0  0  0  0  0  0  0  0  0  0  # atno 17371 bound_to 10713
  140.9289  134.2046  157.4877 LP  0  0  0  0  0  0  0  0  0  0  0  0  # atno 17394 bound_to 11000
  139.8721  134.9824  156.5157 LP  0  0  0  0  0  0  0  0  0  0  0  0  # atno 17395 bound_to 11000

$$$$
