AV-unprocessed.smi:1439|AV-procd|sdf|5871|dock3
  -GOLD-   22720 5543D 1   1.00000     0.00000
 Structure written by MMmdl.
 35 36  0  0  0  0  0  0  0  0  2 V2000
  146.1299  139.6540  152.5562 N   0  0  0  0  0  0  0  0  0  0  0  0
  146.4405  139.9721  153.8172 C   0  0  0  0  0  0  0  0  0  0  0  0
  146.2733  141.1057  154.2619 O   0  0  0  0  0  0  0  0  0  0  0  0
  146.9895  138.8618  154.7214 C   0  0  0  0  0  0  0  0  0  0  0  0
  148.4078  139.1337  155.1385 C   0  0  0  0  0  0  0  0  0  0  0  0
  149.4500  139.4921  154.3222 C   0  0  0  0  0  0  0  0  0  0  0  0
  150.9245  139.7137  155.2193 S   0  0  0  0  0  0  0  0  0  0  0  0
  150.0675  139.3053  156.7069 C   0  0  0  0  0  0  0  0  0  0  0  0
  150.6235  139.2637  157.9277 N   0  5  0  0  0  0  0  0  0  0  0  0
  151.8836  139.7279  158.1032 C   0  0  0  0  0  0  0  0  0  0  0  0
  152.9508  139.1862  157.8068 O   0  0  0  0  0  0  0  0  0  0  0  0
  151.8749  141.1135  158.7641 C   0  0  0  0  0  0  0  0  0  0  0  0
  150.8150  142.0705  158.1858 C   0  0  0  0  0  0  0  0  0  0  0  0
  150.9511  143.5000  158.7297 C   0  0  2  0  0  0  0  0  0  0  0  0
  152.1434  144.2675  158.1659 C   0  0  0  0  0  0  0  0  0  0  0  0
  152.3909  145.3366  159.2167 C   0  0  0  0  0  0  0  0  0  0  0  0
  151.7079  144.7878  160.4739 C   0  0  0  0  0  0  0  0  0  0  0  0
  151.2336  143.4948  160.1200 O   0  0  0  0  0  0  0  0  0  0  0  0
  148.7804  139.0198  156.4812 N   0  0  0  0  0  0  0  0  0  0  0  0
  145.7923  140.3683  151.9277 H   0  0  0  0  0  0  0  0  0  0  0  0
  146.2600  138.7076  152.2295 H   0  0  0  0  0  0  0  0  0  0  0  0
  146.3496  138.7648  155.5995 H   0  0  0  0  0  0  0  0  0  0  0  0
  146.9210  137.9141  154.1864 H   0  0  0  0  0  0  0  0  0  0  0  0
  149.4403  139.6415  153.2532 H   0  0  0  0  0  0  0  0  0  0  0  0
  151.7041  140.9890  159.8346 H   0  0  0  0  0  0  0  0  0  0  0  0
  152.8649  141.5593  158.6544 H   0  0  0  0  0  0  0  0  0  0  0  0
  150.8827  142.0877  157.0970 H   0  0  0  0  0  0  0  0  0  0  0  0
  149.8196  141.6959  158.4297 H   0  0  0  0  0  0  0  0  0  0  0  0
  150.0330  144.0639  158.5538 H   0  0  0  0  0  0  0  0  0  0  0  0
  153.0140  143.6134  158.0974 H   0  0  0  0  0  0  0  0  0  0  0  0
  151.9517  144.6798  157.1749 H   0  0  0  0  0  0  0  0  0  0  0  0
  153.4571  145.5080  159.3679 H   0  0  0  0  0  0  0  0  0  0  0  0
  151.9361  146.2834  158.9235 H   0  0  0  0  0  0  0  0  0  0  0  0
  152.3873  144.7276  161.3246 H   0  0  0  0  0  0  0  0  0  0  0  0
  150.8633  145.4173  160.7574 H   0  0  0  0  0  0  0  0  0  0  0  0
  1  2  1  0  0  0  0
  1 20  1  0  0  0  0
  1 21  1  0  0  0  0
  2  3  2  0  0  0  0
  2  4  1  0  0  0  0
  4  5  1  0  0  0  0
  4 22  1  0  0  0  0
  4 23  1  0  0  0  0
  5 19  1  0  0  0  0
  5  6  2  0  0  0  0
  6  7  1  0  0  0  0
  6 24  1  0  0  0  0
  7  8  1  0  0  0  0
  8  9  1  0  0  0  0
  8 19  2  0  0  0  0
  9 10  1  0  0  0  0
 10 11  2  0  0  0  0
 10 12  1  0  0  0  0
 12 13  1  0  0  0  0
 12 25  1  0  0  0  0
 12 26  1  0  0  0  0
 13 14  1  0  0  0  0
 13 27  1  0  0  0  0
 13 28  1  0  0  0  0
 14 18  1  0  0  0  0
 14 15  1  0  0  0  0
 14 29  1  0  0  0  0
 15 16  1  0  0  0  0
 15 30  1  0  0  0  0
 15 31  1  0  0  0  0
 16 17  1  0  0  0  0
 16 32  1  0  0  0  0
 16 33  1  0  0  0  0
 17 18  1  0  0  0  0
 17 34  1  0  0  0  0
 17 35  1  0  0  0  0
M  CHG  1   9  -1
M  END
> <s_m_source_file>
AV-unprocessed.smi

> <i_m_source_file_index>
1439

> <i_lp_mmshare_version>
43012

> <i_f3d_flags>
0

> <s_epik_input>
W05IMl1DKD1PKVtDSDJdYzFbY0hdc2MobjEpW05IXUMoPU8pW0NIMl1bQ0gyXVtDQEBIXTJbQ0gyXVtDSDJdW0NIMl1PMg==

> <s_epik_cmdline>
J2VwaWtfcHl0aG9uJywgJy1waCcsICc3LjAnLCAnLXRuJywgJzgnLCAnLW1hJywgJzIwMCcsICctbWV0YWxfYmluZGluZycsICctaW1hZScsICc8aW5maWxlLm1hZT4nLCAnLW9tYWUnLCAnPG91dGZpbGUubWFlPic=

> <r_lp_tautomer_probability>
1

> <r_epik_Ionization_Penalty>
4.85214

> <r_epik_Ionization_Penalty_Charging>
4.5239

> <r_epik_Ionization_Penalty_Neutral>
0.32824

> <r_epik_State_Penalty>
4.52362

> <r_epik_Charging_Adjusted_Penalty>
9.04752

> <i_epik_Tot_Q>
-1

> <i_epik_Tot_abs_Q>
1

> <r_epik_Metal_State_Penalty>
0.831335

> <b_epik_Metal_Only>
1

> <s_lp_Force_Field>
OPLS_2005

> <r_lp_Energy>
14.205

> <b_lp_Chiralities_Consistent>
1

> <s_lp_Variant>
AV-unprocessed.smi:1439-3

> <Gold.Version>
5.8.1

> <Gold.Id.Protein>
6NUR|6NUR_protein|mol2

> <Gold.PLP.Fitness>
42.7924

> <Gold.PLP.PLP>
-36.1026

> <Gold.PLP.part.hbond>
-3.2620

> <Gold.PLP.part.metal>
0.0000

> <Gold.PLP.part.buried>
-5.1094

> <Gold.PLP.part.nonpolar>
-27.6813

> <Gold.PLP.part.repulsive>
0.2817

> <Gold.PLP.ligand.clash>
0.0000

> <Gold.PLP.ligand.torsion>
1.2371

> <Gold.PLP.Chemscore.Hbond>
2.0000

> <Gold.PLP.Chemscore.CHOScore>
0.9983

> <Gold.PLP.Chemscore.Metal>
0.0000

> <Gold.Chemscore.Hbonds>
donor molecule, donor type, donor heavy atom, donor atom, acceptor molecule, acceptor atom, score
      L1  H     1    20       P1 10175  0.04
      P1  H  7997  8008       L1    11  0.98
      L1  C     6    24       P1  7957  1.00

> <Gold.PLP.Chemscore.Internal.Correction>
0.1689

> <Gold.Rescore>
     Score         DG    S(hbond)    S(metal)    S(lipo)     H(rot)  DE(clash)    DE(int)     intcor
     14.76     -16.11       1.98        0.00      89.39       2.51       0.06       1.29       ----

> <Gold.Chemscore.Fitness>
14.7564

> <Gold.Chemscore.DG>
-16.1110

> <Gold.Chemscore.ZeroCoef>
-5.4800

> <Gold.Chemscore.Hbond>
1.9757

> <Gold.Chemscore.Metal>
0.0000

> <Gold.Chemscore.Lipo>
89.3885

> <Gold.Chemscore.Internal_Hbond>
0.0000

> <Gold.Chemscore.DEClash>
0.0621

> <Gold.Chemscore.DEInternal>
1.2925

> <Gold.Chemscore.Rot>
2.5103

> <Gold.Chemscore.Internal.Correction>
   9.000000E+99

> <Gold.Chemscore.Hbonds>
donor molecule, donor type, donor heavy atom, donor atom, acceptor molecule, acceptor atom, score
      L1  H     1    20       P1 10175  0.01
      P1  H  7997  8008       L1    11  0.90

> <Gold.Chemscore.Hbond.Weighted>
-6.5990

> <Gold.Chemscore.Metal.Weighted>
-0.0000

> <Gold.Chemscore.Lipo.Weighted>
-10.4585

> <Gold.Chemscore.Internal_Hbond.Weighted>
0.0000

> <Gold.Chemscore.DEClash.Weighted>
0.0621

> <Gold.Chemscore.DEInternal.Weighted>
1.2925

> <Gold.Chemscore.Rot.Weighted>
6.4264

> <Gold.Chemscore.Internal.Correction.Weighted>
   9.000000E+99

> <Gold.Protein.RotatedTorsions>
[ 6907 6896 6895 6894 ] final -149.68 input  -60.11 | X-H torsion
[ 7974 7965 7964 7962 ] final  -22.68 input  175.53 | X-H torsion
[ 8008 7997 7996 7995 ] final  -93.08 input   59.86 | X-H torsion
[ 10167 10162 10161 10158 ] final   88.47 input  -65.29 | X-H torsion
[ 10718 10713 10712 10709 ] final  167.60 input   66.30 | X-H torsion
[ 10763 10752 10751 10750 ] final -165.29 input  -60.55 | X-H torsion
[ 11005 11000 10999 10996 ] final  -41.04 input  -57.11 | X-H torsion

> <Gold.Protein.ActiveResidues>
 VAL166  LYS551  ARG553  GLY616  TRP617  ASP618  TYR619  PRO620  LYS621  CYS622 
 ASP623  PHE694  ASN695  SER759  ASP760  ASP761  ALA762  ILE779  LEU786  VAL792 
 PHE793  MET794  SER795  GLU796  ALA797  LYS798  CYS799  TRP800  GLU811  SER814 

> <Gold.Protein.RotatedAtoms>
  151.1876  133.4687  159.2594 H   0  0  0  0  0  0  0  0  0  0  0  0  # atno 6907 bound_to 6896
  151.1196  135.0072  159.8542 H   0  0  0  0  0  0  0  0  0  0  0  0  # atno 6908 bound_to 6896
  152.5455  134.1788  159.8680 H   0  0  0  0  0  0  0  0  0  0  0  0  # atno 6909 bound_to 6896
  146.1661  140.4512  142.8551 H   0  0  0  0  0  0  0  0  0  0  0  0  # atno 7974 bound_to 7965
  154.7312  140.0502  157.0728 H   0  0  0  0  0  0  0  0  0  0  0  0  # atno 8008 bound_to 7997
  155.0300  140.3157  155.4743 H   0  0  0  0  0  0  0  0  0  0  0  0  # atno 8009 bound_to 7997
  156.2842  140.2151  156.5421 H   0  0  0  0  0  0  0  0  0  0  0  0  # atno 8010 bound_to 7997
  139.8669  144.6514  150.8994 H   0  0  0  0  0  0  0  0  0  0  0  0  # atno 10167 bound_to 10162
  157.0492  131.0308  151.2686 H   0  0  0  0  0  0  0  0  0  0  0  0  # atno 10718 bound_to 10713
  154.6946  135.2977  154.9430 H   0  0  0  0  0  0  0  0  0  0  0  0  # atno 10763 bound_to 10752
  154.0382  135.6661  153.4791 H   0  0  0  0  0  0  0  0  0  0  0  0  # atno 10764 bound_to 10752
  153.0636  135.5101  154.8056 H   0  0  0  0  0  0  0  0  0  0  0  0  # atno 10765 bound_to 10752
  141.0217  133.6859  156.2403 H   0  0  0  0  0  0  0  0  0  0  0  0  # atno 11005 bound_to 11000
  144.8095  140.6360  143.6425 LP  0  0  0  0  0  0  0  0  0  0  0  0  # atno 17320 bound_to 7965
  145.4463  139.1529  143.3943 LP  0  0  0  0  0  0  0  0  0  0  0  0  # atno 17321 bound_to 7965
  140.7767  143.3696  151.1673 LP  0  0  0  0  0  0  0  0  0  0  0  0  # atno 17342 bound_to 10162
  139.7320  143.9057  152.3023 LP  0  0  0  0  0  0  0  0  0  0  0  0  # atno 17343 bound_to 10162
  157.5043  130.7899  149.7638 LP  0  0  0  0  0  0  0  0  0  0  0  0  # atno 17370 bound_to 10713
  156.0013  130.3879  150.2596 LP  0  0  0  0  0  0  0  0  0  0  0  0  # atno 17371 bound_to 10713
  140.6561  134.5016  157.5580 LP  0  0  0  0  0  0  0  0  0  0  0  0  # atno 17394 bound_to 11000
  139.9150  134.8264  156.1396 LP  0  0  0  0  0  0  0  0  0  0  0  0  # atno 17395 bound_to 11000

$$$$
