AV-unprocessed.smi:1206|AV-procd|sdf|5047|dock3
  -GOLD-   22720 4 73D 1   1.00000     0.00000
 Structure written by MMmdl.
 41 42  0  0  0  0  0  0  0  0  2 V2000
  145.7105  137.1986  152.3330 C   0  0  0  0  0  0  0  0  0  0  0  0
  146.3004  135.8655  152.6185 N   0  3  0  0  0  0  0  0  0  0  0  0
  146.7273  135.7917  154.0408 C   0  0  0  0  0  0  0  0  0  0  0  0
  145.5398  134.6629  152.1068 C   0  0  0  0  0  0  0  0  0  0  0  0
  144.3001  134.4373  153.0329 C   0  0  0  0  0  0  0  0  0  0  0  0
  143.2632  135.4591  152.8836 N   0  0  0  0  0  0  0  0  0  0  0  0
  142.1593  135.5778  153.6349 C   0  0  0  0  0  0  0  0  0  0  0  0
  141.8754  134.8035  154.5477 O   0  0  0  0  0  0  0  0  0  0  0  0
  141.4191  136.6289  153.2486 N   0  0  0  0  0  0  0  0  0  0  0  0
  140.1835  137.0688  153.7863 C   0  0  0  0  0  0  0  0  0  0  0  0
  139.7355  136.4736  154.8977 N   0  0  0  0  0  0  0  0  0  0  0  0
  138.5189  136.9990  155.3151 N   0  0  0  0  0  0  0  0  0  0  0  0
  138.0960  137.9705  154.5004 C   0  0  0  0  0  0  0  0  0  0  0  0
  139.1435  138.3428  153.1425 S   0  0  0  0  0  0  0  0  0  0  0  0
  145.0700  134.8905  150.6373 C   0  0  0  0  0  0  0  0  0  0  0  0
  144.4188  133.6545  149.9851 C   0  0  0  0  0  0  0  0  0  0  0  0
  145.3270  132.4202  150.0613 C   0  0  0  0  0  0  0  0  0  0  0  0
  145.7622  132.1384  151.5051 C   0  0  0  0  0  0  0  0  0  0  0  0
  146.4337  133.3776  152.1231 C   0  0  0  0  0  0  0  0  0  0  0  0
  144.6942  137.2761  152.7203 H   0  0  0  0  0  0  0  0  0  0  0  0
  145.7016  137.4147  151.2649 H   0  0  0  0  0  0  0  0  0  0  0  0
  146.3029  137.9897  152.7943 H   0  0  0  0  0  0  0  0  0  0  0  0
  145.8861  135.9449  154.7178 H   0  0  0  0  0  0  0  0  0  0  0  0
  147.4618  136.5698  154.2507 H   0  0  0  0  0  0  0  0  0  0  0  0
  147.1979  134.8430  154.2916 H   0  0  0  0  0  0  0  0  0  0  0  0
  143.8715  133.4453  152.8910 H   0  0  0  0  0  0  0  0  0  0  0  0
  144.5860  134.4497  154.0824 H   0  0  0  0  0  0  0  0  0  0  0  0
  143.4126  136.1453  152.1579 H   0  0  0  0  0  0  0  0  0  0  0  0
  141.7754  137.1780  152.4799 H   0  0  0  0  0  0  0  0  0  0  0  0
  137.1605  138.4717  154.7010 H   0  0  0  0  0  0  0  0  0  0  0  0
  144.3552  135.7119  150.5822 H   0  0  0  0  0  0  0  0  0  0  0  0
  145.9210  135.1898  150.0244 H   0  0  0  0  0  0  0  0  0  0  0  0
  143.4619  133.4364  150.4589 H   0  0  0  0  0  0  0  0  0  0  0  0
  144.1892  133.8725  148.9417 H   0  0  0  0  0  0  0  0  0  0  0  0
  144.8124  131.5515  149.6494 H   0  0  0  0  0  0  0  0  0  0  0  0
  146.2088  132.5798  149.4392 H   0  0  0  0  0  0  0  0  0  0  0  0
  144.9094  131.8172  152.1025 H   0  0  0  0  0  0  0  0  0  0  0  0
  146.4626  131.3027  151.5152 H   0  0  0  0  0  0  0  0  0  0  0  0
  147.3397  133.5330  151.5378 H   0  0  0  0  0  0  0  0  0  0  0  0
  146.7678  133.1477  153.1353 H   0  0  0  0  0  0  0  0  0  0  0  0
  147.1621  135.8556  152.0914 H   0  0  0  0  0  0  0  0  0  0  0  0
  1  2  1  0  0  0  0
  1 20  1  0  0  0  0
  1 21  1  0  0  0  0
  1 22  1  0  0  0  0
  2  3  1  0  0  0  0
  2  4  1  0  0  0  0
  2 41  1  0  0  0  0
  3 23  1  0  0  0  0
  3 24  1  0  0  0  0
  3 25  1  0  0  0  0
  4 19  1  0  0  0  0
  4  5  1  0  0  0  0
  4 15  1  0  0  0  0
  5  6  1  0  0  0  0
  5 26  1  0  0  0  0
  5 27  1  0  0  0  0
  6  7  1  0  0  0  0
  6 28  1  0  0  0  0
  7  8  2  0  0  0  0
  7  9  1  0  0  0  0
  9 10  1  0  0  0  0
  9 29  1  0  0  0  0
 10 14  1  0  0  0  0
 10 11  2  0  0  0  0
 11 12  1  0  0  0  0
 12 13  2  0  0  0  0
 13 14  1  0  0  0  0
 13 30  1  0  0  0  0
 15 16  1  0  0  0  0
 15 31  1  0  0  0  0
 15 32  1  0  0  0  0
 16 17  1  0  0  0  0
 16 33  1  0  0  0  0
 16 34  1  0  0  0  0
 17 18  1  0  0  0  0
 17 35  1  0  0  0  0
 17 36  1  0  0  0  0
 18 19  1  0  0  0  0
 18 37  1  0  0  0  0
 18 38  1  0  0  0  0
 19 39  1  0  0  0  0
 19 40  1  0  0  0  0
M  CHG  1   2   1
M  END
> <s_m_source_file>
AV-unprocessed.smi

> <i_m_source_file_index>
1206

> <i_lp_mmshare_version>
43012

> <i_f3d_flags>
0

> <s_epik_input>
W0NIMl0xW0NIMl1bQ0gyXVtDSDJdW0NIMl1DMShOKFtDSDNdKVtDSDNdKVtDSDJdW05IXUMoPU8pW05IXWMybm5bY0hdczI=

> <s_epik_cmdline>
J2VwaWtfcHl0aG9uJywgJy1waCcsICc3LjAnLCAnLXRuJywgJzgnLCAnLW1hJywgJzIwMCcsICctbWV0YWxfYmluZGluZycsICctaW1hZScsICc8aW5maWxlLm1hZT4nLCAnLW9tYWUnLCAnPG91dGZpbGUubWFlPic=

> <r_lp_tautomer_probability>
1

> <r_epik_Ionization_Penalty>
0.00322257

> <r_epik_Ionization_Penalty_Charging>
0.00246239

> <r_epik_Ionization_Penalty_Neutral>
0.000760187

> <r_epik_State_Penalty>
-0

> <r_epik_Charging_Adjusted_Penalty>
0.00246239

> <i_epik_Tot_Q>
1

> <i_epik_Tot_abs_Q>
1

> <r_epik_Metal_State_Penalty>
0.262153

> <b_epik_Metal_Only>
0

> <s_lp_Force_Field>
OPLS_2005

> <r_lp_Energy>
30.8997

> <b_lp_Chiralities_Consistent>
1

> <s_lp_Variant>
AV-unprocessed.smi:1206-1

> <Gold.Version>
5.8.1

> <Gold.Id.Protein>
6NUR|6NUR_protein|mol2

> <Gold.PLP.Fitness>
39.3437

> <Gold.PLP.PLP>
-30.8355

> <Gold.PLP.part.hbond>
-3.0000

> <Gold.PLP.part.metal>
0.0000

> <Gold.PLP.part.buried>
-3.8033

> <Gold.PLP.part.nonpolar>
-23.7675

> <Gold.PLP.part.repulsive>
0.3904

> <Gold.PLP.ligand.clash>
0.0000

> <Gold.PLP.ligand.torsion>
0.2994

> <Gold.PLP.Chemscore.Hbond>
3.0000

> <Gold.PLP.Chemscore.CHOScore>
0.0000

> <Gold.PLP.Chemscore.Metal>
0.0000

> <Gold.Chemscore.Hbonds>
donor molecule, donor type, donor heavy atom, donor atom, acceptor molecule, acceptor atom, score
      L1  H     2    41       P1  7948  2.00
      P1  H 11000 11005       L1    11  0.93

> <Gold.PLP.Chemscore.Internal.Correction>
0.1071

> <Gold.Rescore>
     Score         DG    S(hbond)    S(metal)    S(lipo)     H(rot)  DE(clash)    DE(int)     intcor
     12.48     -14.52       1.58        0.00      68.48       1.66       0.13       1.91       ----

> <Gold.Chemscore.Fitness>
12.4795

> <Gold.Chemscore.DG>
-14.5211

> <Gold.Chemscore.ZeroCoef>
-5.4800

> <Gold.Chemscore.Hbond>
1.5820

> <Gold.Chemscore.Metal>
0.0000

> <Gold.Chemscore.Lipo>
68.4798

> <Gold.Chemscore.Internal_Hbond>
0.0000

> <Gold.Chemscore.DEClash>
0.1272

> <Gold.Chemscore.DEInternal>
1.9145

> <Gold.Chemscore.Rot>
1.6621

> <Gold.Chemscore.Internal.Correction>
   9.000000E+99

> <Gold.Chemscore.Hbonds>
donor molecule, donor type, donor heavy atom, donor atom, acceptor molecule, acceptor atom, score
      L1  H     2    41       P1  7948  0.98
      P1  H 11000 11005       L1    11  0.39

> <Gold.Chemscore.Hbond.Weighted>
-5.2839

> <Gold.Chemscore.Metal.Weighted>
-0.0000

> <Gold.Chemscore.Lipo.Weighted>
-8.0121

> <Gold.Chemscore.Internal_Hbond.Weighted>
0.0000

> <Gold.Chemscore.DEClash.Weighted>
0.1272

> <Gold.Chemscore.DEInternal.Weighted>
1.9145

> <Gold.Chemscore.Rot.Weighted>
4.2549

> <Gold.Chemscore.Internal.Correction.Weighted>
   9.000000E+99

> <Gold.Protein.RotatedTorsions>
[ 6907 6896 6895 6894 ] final  126.87 input  -60.11 | X-H torsion
[ 7974 7965 7964 7962 ] final  125.51 input  175.53 | X-H torsion
[ 8008 7997 7996 7995 ] final  107.88 input   59.86 | X-H torsion
[ 10167 10162 10161 10158 ] final   33.99 input  -65.29 | X-H torsion
[ 10718 10713 10712 10709 ] final -101.21 input   66.30 | X-H torsion
[ 10763 10752 10751 10750 ] final -174.39 input  -60.55 | X-H torsion
[ 11005 11000 10999 10996 ] final   71.06 input  -57.11 | X-H torsion

> <Gold.Protein.ActiveResidues>
 VAL166  LYS551  ARG553  GLY616  TRP617  ASP618  TYR619  PRO620  LYS621  CYS622 
 ASP623  PHE694  ASN695  SER759  ASP760  ASP761  ALA762  ILE779  LEU786  VAL792 
 PHE793  MET794  SER795  GLU796  ALA797  LYS798  CYS799  TRP800  GLU811  SER814 

> <Gold.Protein.RotatedAtoms>
  152.3864  133.6617  159.6201 H   0  0  0  0  0  0  0  0  0  0  0  0  # atno 6907 bound_to 6896
  150.7782  133.9028  159.3355 H   0  0  0  0  0  0  0  0  0  0  0  0  # atno 6908 bound_to 6896
  151.6823  135.0961  160.0269 H   0  0  0  0  0  0  0  0  0  0  0  0  # atno 6909 bound_to 6896
  145.0722  139.3721  143.4952 H   0  0  0  0  0  0  0  0  0  0  0  0  # atno 7974 bound_to 7965
  156.1859  140.3086  155.9238 H   0  0  0  0  0  0  0  0  0  0  0  0  # atno 8008 bound_to 7997
  155.3281  140.0459  157.3058 H   0  0  0  0  0  0  0  0  0  0  0  0  # atno 8009 bound_to 7997
  154.5396  140.2257  155.8674 H   0  0  0  0  0  0  0  0  0  0  0  0  # atno 8010 bound_to 7997
  140.4356  144.1261  150.6166 H   0  0  0  0  0  0  0  0  0  0  0  0  # atno 10167 bound_to 10162
  156.0187  130.5363  150.6930 H   0  0  0  0  0  0  0  0  0  0  0  0  # atno 10718 bound_to 10713
  154.5968  135.2850  155.0578 H   0  0  0  0  0  0  0  0  0  0  0  0  # atno 10763 bound_to 10752
  154.1858  135.6449  153.5050 H   0  0  0  0  0  0  0  0  0  0  0  0  # atno 10764 bound_to 10752
  153.0141  135.5434  154.6672 H   0  0  0  0  0  0  0  0  0  0  0  0  # atno 10765 bound_to 10752
  139.9564  134.7137  156.0744 H   0  0  0  0  0  0  0  0  0  0  0  0  # atno 11005 bound_to 11000
  146.3529  140.0472  142.8638 LP  0  0  0  0  0  0  0  0  0  0  0  0  # atno 17320 bound_to 7965
  145.1279  140.9501  143.4562 LP  0  0  0  0  0  0  0  0  0  0  0  0  # atno 17321 bound_to 7965
  140.4377  143.2540  151.9513 LP  0  0  0  0  0  0  0  0  0  0  0  0  # atno 17342 bound_to 10162
  139.4787  144.5684  151.8128 LP  0  0  0  0  0  0  0  0  0  0  0  0  # atno 17343 bound_to 10162
  157.4607  131.0883  151.0748 LP  0  0  0  0  0  0  0  0  0  0  0  0  # atno 17370 bound_to 10713
  157.1237  130.6072  149.5511 LP  0  0  0  0  0  0  0  0  0  0  0  0  # atno 17371 bound_to 10713
  141.1235  133.6606  156.3277 LP  0  0  0  0  0  0  0  0  0  0  0  0  # atno 17394 bound_to 11000
  140.5600  134.5943  157.5431 LP  0  0  0  0  0  0  0  0  0  0  0  0  # atno 17395 bound_to 11000

$$$$
