AV-unprocessed.smi:234|AV-procd|sdf|1792|dock6
  -GOLD-   2262020353D 1   1.00000     0.00000
 Structure written by MMmdl.
 59 62  0  0  0  0  0  0  0  0  1 V2000
  151.9003  143.4266  159.9124 C   0  0  0  0  0  0  0  0  0  0  0  0
  152.3824  142.2661  160.7925 C   0  0  0  0  0  0  0  0  0  0  0  0
  153.5152  141.6261  160.2219 O   0  0  0  0  0  0  0  0  0  0  0  0
  153.4844  140.2040  160.2989 C   0  0  1  0  0  0  0  0  0  0  0  0
  152.3237  139.6154  159.4891 C   0  0  0  0  0  0  0  0  0  0  0  0
  153.2882  139.6143  158.2964 C   0  0  2  0  0  0  0  0  0  0  0  0
  153.1542  138.4589  157.4076 N   0  0  0  0  0  0  0  0  0  0  0  0
  154.3830  137.9690  156.7977 C   0  0  0  0  0  0  0  0  0  0  0  0
  152.1716  138.5778  156.4882 C   0  0  0  0  0  0  0  0  0  0  0  0
  152.1964  137.7203  155.4386 N   0  0  0  0  0  0  0  0  0  0  0  0
  151.2404  137.7805  154.5065 C   0  0  0  0  0  0  0  0  0  0  0  0
  150.1932  138.6055  154.4352 N   0  0  0  0  0  0  0  0  0  0  0  0
  150.1713  139.4738  155.4873 C   0  0  0  0  0  0  0  0  0  0  0  0
  151.1186  139.5339  156.5472 C   0  0  0  0  0  0  0  0  0  0  0  0
  150.7821  140.5544  157.4279 N   0  0  0  0  0  0  0  0  0  0  0  0
  149.6936  141.0645  156.9212 C   0  0  0  0  0  0  0  0  0  0  0  0
  149.2457  140.4650  155.7651 N   0  0  0  0  0  0  0  0  0  0  0  0
  148.0560  140.8183  155.0055 C   0  0  0  0  0  0  0  0  0  0  0  0
  146.7745  140.0932  155.4877 C   0  0  2  0  0  0  0  0  0  0  0  0
  146.8813  138.7225  155.1428 O   0  0  0  0  0  0  0  0  0  0  0  0
  145.5129  140.6544  154.8237 C   0  0  0  0  0  0  0  0  0  0  0  0
  144.7950  141.3831  155.9532 C   0  0  0  0  0  0  0  0  0  0  0  0
  145.1105  140.5926  157.0850 O   0  0  0  0  0  0  0  0  0  0  0  0
  146.4938  140.2807  157.0027 C   0  0  1  0  0  0  0  0  0  0  0  0
  146.8366  139.1026  157.9301 C   0  0  0  0  0  0  0  0  0  0  0  0
  154.4656  139.5311  159.3039 C   0  0  0  0  0  0  0  0  0  0  0  0
  155.7231  140.3298  158.9521 C   0  0  0  0  0  0  0  0  0  0  0  0
  154.9361  138.1336  159.7409 C   0  0  0  0  0  0  0  0  0  0  0  0
  150.9938  143.8711  160.3232 H   0  0  0  0  0  0  0  0  0  0  0  0
  151.6731  143.0811  158.9038 H   0  0  0  0  0  0  0  0  0  0  0  0
  152.6467  144.2164  159.8358 H   0  0  0  0  0  0  0  0  0  0  0  0
  152.5865  142.6034  161.8095 H   0  0  0  0  0  0  0  0  0  0  0  0
  151.5867  141.5249  160.8653 H   0  0  0  0  0  0  0  0  0  0  0  0
  153.5662  139.8144  161.3142 H   0  0  0  0  0  0  0  0  0  0  0  0
  152.0324  138.6194  159.8266 H   0  0  0  0  0  0  0  0  0  0  0  0
  151.4582  140.2669  159.3673 H   0  0  0  0  0  0  0  0  0  0  0  0
  153.2780  140.5725  157.7735 H   0  0  0  0  0  0  0  0  0  0  0  0
  154.1901  137.0940  156.1756 H   0  0  0  0  0  0  0  0  0  0  0  0
  155.1043  137.6793  157.5604 H   0  0  0  0  0  0  0  0  0  0  0  0
  154.8405  138.7391  156.1754 H   0  0  0  0  0  0  0  0  0  0  0  0
  151.3245  137.0625  153.7042 H   0  0  0  0  0  0  0  0  0  0  0  0
  149.1795  141.8926  157.3870 H   0  0  0  0  0  0  0  0  0  0  0  0
  147.9215  141.8987  155.0732 H   0  0  0  0  0  0  0  0  0  0  0  0
  148.2428  140.6008  153.9528 H   0  0  0  0  0  0  0  0  0  0  0  0
  146.2149  138.5225  154.5034 H   0  0  0  0  0  0  0  0  0  0  0  0
  145.7207  141.3098  153.9770 H   0  0  0  0  0  0  0  0  0  0  0  0
  144.8697  139.8510  154.4603 H   0  0  0  0  0  0  0  0  0  0  0  0
  145.1910  142.3915  156.0840 H   0  0  0  0  0  0  0  0  0  0  0  0
  143.7186  141.4517  155.7952 H   0  0  0  0  0  0  0  0  0  0  0  0
  147.0203  141.1669  157.3595 H   0  0  0  0  0  0  0  0  0  0  0  0
  147.8905  138.8331  157.8542 H   0  0  0  0  0  0  0  0  0  0  0  0
  146.2442  138.2187  157.6929 H   0  0  0  0  0  0  0  0  0  0  0  0
  146.6364  139.3610  158.9701 H   0  0  0  0  0  0  0  0  0  0  0  0
  156.3347  139.8152  158.2108 H   0  0  0  0  0  0  0  0  0  0  0  0
  156.3448  140.4995  159.8316 H   0  0  0  0  0  0  0  0  0  0  0  0
  155.4770  141.3070  158.5363 H   0  0  0  0  0  0  0  0  0  0  0  0
  155.5182  137.6383  158.9638 H   0  0  0  0  0  0  0  0  0  0  0  0
  154.1016  137.4755  159.9829 H   0  0  0  0  0  0  0  0  0  0  0  0
  155.5654  138.1893  160.6295 H   0  0  0  0  0  0  0  0  0  0  0  0
  1  2  1  0  0  0  0
  1 29  1  0  0  0  0
  1 30  1  0  0  0  0
  1 31  1  0  0  0  0
  2  3  1  0  0  0  0
  2 32  1  0  0  0  0
  2 33  1  0  0  0  0
  3  4  1  0  0  0  0
  4 26  1  0  0  0  0
  4  5  1  0  0  0  0
  4 34  1  0  0  0  0
  5  6  1  0  0  0  0
  5 35  1  0  0  0  0
  5 36  1  0  0  0  0
  6  7  1  0  0  0  0
  6 26  1  0  0  0  0
  6 37  1  0  0  0  0
  7  8  1  0  0  0  0
  7  9  1  0  0  0  0
  8 38  1  0  0  0  0
  8 39  1  0  0  0  0
  8 40  1  0  0  0  0
  9 14  1  0  0  0  0
  9 10  2  0  0  0  0
 10 11  1  0  0  0  0
 11 12  2  0  0  0  0
 11 41  1  0  0  0  0
 12 13  1  0  0  0  0
 13 17  1  0  0  0  0
 13 14  2  0  0  0  0
 14 15  1  0  0  0  0
 15 16  2  0  0  0  0
 16 17  1  0  0  0  0
 16 42  1  0  0  0  0
 17 18  1  0  0  0  0
 18 19  1  0  0  0  0
 18 43  1  0  0  0  0
 18 44  1  0  0  0  0
 19 24  1  0  0  0  0
 19 20  1  0  0  0  0
 19 21  1  0  0  0  0
 20 45  1  0  0  0  0
 21 22  1  0  0  0  0
 21 46  1  0  0  0  0
 21 47  1  0  0  0  0
 22 23  1  0  0  0  0
 22 48  1  0  0  0  0
 22 49  1  0  0  0  0
 23 24  1  0  0  0  0
 24 25  1  0  0  0  0
 24 50  1  0  0  0  0
 25 51  1  0  0  0  0
 25 52  1  0  0  0  0
 25 53  1  0  0  0  0
 26 27  1  0  0  0  0
 26 28  1  0  0  0  0
 27 54  1  0  0  0  0
 27 55  1  0  0  0  0
 27 56  1  0  0  0  0
 28 57  1  0  0  0  0
 28 58  1  0  0  0  0
 28 59  1  0  0  0  0
M  END
> <s_m_source_file>
AV-unprocessed.smi

> <i_m_source_file_index>
234

> <i_lp_mmshare_version>
43012

> <i_f3d_flags>
0

> <s_epik_input>
W0NIM11bQ0gyXU9bQ0BASF0oQzEoW0NIM10pW0NIM10pW0NIMl1bQ0BIXTFOKFtDSDNdKWMobltjSF1uMiljKGMyMyluW2NIXW4zW0NIMl1bQ0BAXTQoW09IXSlbQ0gyXVtDSDJdT1tDQEhdNFtDSDNd

> <s_epik_cmdline>
J2VwaWtfcHl0aG9uJywgJy1waCcsICc3LjAnLCAnLXRuJywgJzgnLCAnLW1hJywgJzIwMCcsICctbWV0YWxfYmluZGluZycsICctaW1hZScsICc8aW5maWxlLm1hZT4nLCAnLW9tYWUnLCAnPG91dGZpbGUubWFlPic=

> <r_lp_tautomer_probability>
1

> <r_epik_Ionization_Penalty>
0.00349132

> <r_epik_Ionization_Penalty_Charging>
0

> <r_epik_Ionization_Penalty_Neutral>
0.00349132

> <r_epik_State_Penalty>
0.00242418

> <r_epik_Charging_Adjusted_Penalty>
0.00242418

> <i_epik_Tot_Q>
0

> <i_epik_Tot_abs_Q>
0

> <r_epik_Metal_State_Penalty>
-0

> <b_epik_Metal_Only>
0

> <s_lp_Force_Field>
OPLS_2005

> <r_lp_Energy>
49.6192

> <b_lp_Chiralities_Consistent>
1

> <s_lp_Variant>
AV-unprocessed.smi:234-8

> <Gold.Version>
5.8.1

> <Gold.Id.Protein>
6NUR|6NUR_protein|mol2

> <Gold.PLP.Fitness>
45.3913

> <Gold.PLP.PLP>
-42.5373

> <Gold.PLP.part.hbond>
-0.0886

> <Gold.PLP.part.metal>
0.0000

> <Gold.PLP.part.buried>
-1.3734

> <Gold.PLP.part.nonpolar>
-41.2670

> <Gold.PLP.part.repulsive>
0.3827

> <Gold.PLP.ligand.clash>
0.3922

> <Gold.PLP.ligand.torsion>
1.7959

> <Gold.PLP.Chemscore.Hbond>
0.0000

> <Gold.PLP.Chemscore.CHOScore>
1.9988

> <Gold.PLP.Chemscore.Metal>
0.0000

> <Gold.Chemscore.Hbonds>
donor molecule, donor type, donor heavy atom, donor atom, acceptor molecule, acceptor atom, score
      P1  H 10752 10763       L1    10  0.05
      L1  C    11    41       P1  7949  1.00

> <Gold.PLP.Chemscore.Internal.Correction>
0.8415

> <Gold.Rescore>
     Score         DG    S(hbond)    S(metal)    S(lipo)     H(rot)  DE(clash)    DE(int)     intcor
      7.79     -13.15       0.00        0.00     122.91       2.62       0.26       5.11       ----

> <Gold.Chemscore.Fitness>
7.7878

> <Gold.Chemscore.DG>
-13.1488

> <Gold.Chemscore.ZeroCoef>
-5.4800

> <Gold.Chemscore.Hbond>
0.0000

> <Gold.Chemscore.Metal>
0.0000

> <Gold.Chemscore.Lipo>
122.9141

> <Gold.Chemscore.Internal_Hbond>
0.0000

> <Gold.Chemscore.DEClash>
0.2553

> <Gold.Chemscore.DEInternal>
5.1058

> <Gold.Chemscore.Rot>
2.6219

> <Gold.Chemscore.Internal.Correction>
   9.000000E+99

> <Gold.Chemscore.Hbonds>
donor molecule, donor type, donor heavy atom, donor atom, acceptor molecule, acceptor atom, score
      P1  H 10752 10763       L1    10  0.01

> <Gold.Chemscore.Hbond.Weighted>
-0.0000

> <Gold.Chemscore.Metal.Weighted>
-0.0000

> <Gold.Chemscore.Lipo.Weighted>
-14.3810

> <Gold.Chemscore.Internal_Hbond.Weighted>
0.0000

> <Gold.Chemscore.DEClash.Weighted>
0.2553

> <Gold.Chemscore.DEInternal.Weighted>
5.1058

> <Gold.Chemscore.Rot.Weighted>
6.7121

> <Gold.Chemscore.Internal.Correction.Weighted>
   9.000000E+99

> <Gold.Protein.RotatedTorsions>
[ 6907 6896 6895 6894 ] final   51.78 input  -60.11 | X-H torsion
[ 7974 7965 7964 7962 ] final   32.05 input  175.53 | X-H torsion
[ 8008 7997 7996 7995 ] final   13.81 input   59.86 | X-H torsion
[ 10167 10162 10161 10158 ] final  -62.63 input  -65.29 | X-H torsion
[ 10718 10713 10712 10709 ] final -153.41 input   66.30 | X-H torsion
[ 10763 10752 10751 10750 ] final   64.12 input  -60.55 | X-H torsion
[ 11005 11000 10999 10996 ] final  -64.92 input  -57.11 | X-H torsion

> <Gold.Protein.ActiveResidues>
 VAL166  LYS551  ARG553  GLY616  TRP617  ASP618  TYR619  PRO620  LYS621  CYS622 
 ASP623  PHE694  ASN695  SER759  ASP760  ASP761  ALA762  ILE779  LEU786  VAL792 
 PHE793  MET794  SER795  GLU796  ALA797  LYS798  CYS799  TRP800  GLU811  SER814 

> <Gold.Protein.RotatedAtoms>
  152.3164  134.7435  160.0324 H   0  0  0  0  0  0  0  0  0  0  0  0  # atno 6907 bound_to 6896
  151.7898  133.3353  159.3504 H   0  0  0  0  0  0  0  0  0  0  0  0  # atno 6908 bound_to 6896
  150.7346  134.5783  159.5970 H   0  0  0  0  0  0  0  0  0  0  0  0  # atno 6909 bound_to 6896
  146.1511  139.6576  142.9098 H   0  0  0  0  0  0  0  0  0  0  0  0  # atno 7974 bound_to 7965
  154.8397  140.2912  155.5667 H   0  0  0  0  0  0  0  0  0  0  0  0  # atno 8008 bound_to 7997
  156.3011  140.2516  156.3269 H   0  0  0  0  0  0  0  0  0  0  0  0  # atno 8009 bound_to 7997
  154.9139  140.0388  157.1950 H   0  0  0  0  0  0  0  0  0  0  0  0  # atno 8010 bound_to 7997
  140.5926  143.2344  151.6107 H   0  0  0  0  0  0  0  0  0  0  0  0  # atno 10167 bound_to 10162
  156.4855  130.8323  151.2548 H   0  0  0  0  0  0  0  0  0  0  0  0  # atno 10718 bound_to 10713
  153.0043  135.5404  154.6459 H   0  0  0  0  0  0  0  0  0  0  0  0  # atno 10763 bound_to 10752
  154.5703  135.2841  155.0836 H   0  0  0  0  0  0  0  0  0  0  0  0  # atno 10764 bound_to 10752
  154.2004  135.6485  153.5138 H   0  0  0  0  0  0  0  0  0  0  0  0  # atno 10765 bound_to 10752
  141.1439  133.6673  156.5906 H   0  0  0  0  0  0  0  0  0  0  0  0  # atno 11005 bound_to 11000
  145.4821  141.0438  143.2640 LP  0  0  0  0  0  0  0  0  0  0  0  0  # atno 17320 bound_to 7965
  144.7905  139.6338  143.7115 LP  0  0  0  0  0  0  0  0  0  0  0  0  # atno 17321 bound_to 7965
  139.5237  144.3125  152.0980 LP  0  0  0  0  0  0  0  0  0  0  0  0  # atno 17342 bound_to 10162
  140.2292  144.4386  150.6307 LP  0  0  0  0  0  0  0  0  0  0  0  0  # atno 17343 bound_to 10162
  157.7479  131.0031  150.3024 LP  0  0  0  0  0  0  0  0  0  0  0  0  # atno 17370 bound_to 10713
  156.3479  130.3826  149.7354 LP  0  0  0  0  0  0  0  0  0  0  0  0  # atno 17371 bound_to 10713
  140.3766  134.7560  157.4633 LP  0  0  0  0  0  0  0  0  0  0  0  0  # atno 17394 bound_to 11000
  140.0670  134.5916  155.8684 LP  0  0  0  0  0  0  0  0  0  0  0  0  # atno 17395 bound_to 11000

$$$$
