AV-unprocessed.smi:645|AV-procd|sdf|3160|dock3
  -GOLD-   22720 0 83D 1   1.00000     0.00000
 Structure written by MMmdl.
 23 24  0  0  0  0  0  0  0  0  1 V2000
  150.4405  139.0488  158.7280 C   0  0  0  0  0  0  0  0  0  0  0  0
  151.0514  140.0583  157.7351 C   0  0  2  0  0  0  0  0  0  0  0  0
  151.5495  141.3354  158.4301 C   0  0  0  0  0  0  0  0  0  0  0  0
  151.0903  142.6228  158.0593 C   0  0  0  0  0  0  0  0  0  0  0  0
  151.5865  143.7485  158.7467 C   0  0  0  0  0  0  0  0  0  0  0  0
  152.4835  143.6706  159.7512 N   0  0  0  0  0  0  0  0  0  0  0  0
  152.9212  142.4452  160.1070 C   0  0  0  0  0  0  0  0  0  0  0  0
  152.4881  141.2578  159.4854 C   0  0  0  0  0  0  0  0  0  0  0  0
  150.1135  140.3109  156.6483 N   0  0  0  0  0  0  0  0  0  0  0  0
  150.5977  139.9709  155.4465 C   0  0  0  0  0  0  0  0  0  0  0  0
  150.0207  140.1057  154.3703 O   0  0  0  0  0  0  0  0  0  0  0  0
  151.8145  139.4507  155.6276 N   0  0  0  0  0  0  0  0  0  0  0  0
  152.1719  139.4285  156.9105 C   0  0  0  0  0  0  0  0  0  0  0  0
  153.2185  138.9733  157.3699 O   0  0  0  0  0  0  0  0  0  0  0  0
  151.1577  138.7381  159.4881 H   0  0  0  0  0  0  0  0  0  0  0  0
  150.0972  138.1458  158.2208 H   0  0  0  0  0  0  0  0  0  0  0  0
  149.5820  139.4805  159.2434 H   0  0  0  0  0  0  0  0  0  0  0  0
  150.3726  142.7668  157.2659 H   0  0  0  0  0  0  0  0  0  0  0  0
  151.2515  144.7404  158.4814 H   0  0  0  0  0  0  0  0  0  0  0  0
  153.6394  142.4083  160.9125 H   0  0  0  0  0  0  0  0  0  0  0  0
  152.8794  140.3066  159.8145 H   0  0  0  0  0  0  0  0  0  0  0  0
  149.2072  140.7298  156.7979 H   0  0  0  0  0  0  0  0  0  0  0  0
  152.3917  139.0988  154.8779 H   0  0  0  0  0  0  0  0  0  0  0  0
  1  2  1  0  0  0  0
  1 15  1  0  0  0  0
  1 16  1  0  0  0  0
  1 17  1  0  0  0  0
  2 13  1  0  0  0  0
  2  3  1  0  0  0  0
  2  9  1  0  0  0  0
  3  8  1  0  0  0  0
  3  4  2  0  0  0  0
  4  5  1  0  0  0  0
  4 18  1  0  0  0  0
  5  6  2  0  0  0  0
  5 19  1  0  0  0  0
  6  7  1  0  0  0  0
  7  8  2  0  0  0  0
  7 20  1  0  0  0  0
  8 21  1  0  0  0  0
  9 10  1  0  0  0  0
  9 22  1  0  0  0  0
 10 11  2  0  0  0  0
 10 12  1  0  0  0  0
 12 13  1  0  0  0  0
 12 23  1  0  0  0  0
 13 14  2  0  0  0  0
M  END
> <s_m_source_file>
AV-unprocessed.smi

> <i_m_source_file_index>
645

> <i_lp_mmshare_version>
43012

> <i_f3d_flags>
0

> <s_epik_input>
Tz1DMVtOSF1DKD1PKVtOSF1bQ0BAXTEoW0NIM10pYzJbY0hdW2NIXW5bY0hdW2NIXTI=

> <s_epik_cmdline>
J2VwaWtfcHl0aG9uJywgJy1waCcsICc3LjAnLCAnLXRuJywgJzgnLCAnLW1hJywgJzIwMCcsICctbWV0YWxfYmluZGluZycsICctaW1hZScsICc8aW5maWxlLm1hZT4nLCAnLW9tYWUnLCAnPG91dGZpbGUubWFlPic=

> <r_lp_tautomer_probability>
1

> <r_epik_Ionization_Penalty>
0.0327402

> <r_epik_Ionization_Penalty_Charging>
0

> <r_epik_Ionization_Penalty_Neutral>
0.0327402

> <r_epik_State_Penalty>
0.022996

> <r_epik_Charging_Adjusted_Penalty>
0.022996

> <i_epik_Tot_Q>
0

> <i_epik_Tot_abs_Q>
0

> <r_epik_Metal_State_Penalty>
0.426243

> <b_epik_Metal_Only>
0

> <s_lp_Force_Field>
OPLS_2005

> <r_lp_Energy>
18.0362

> <b_lp_Chiralities_Consistent>
1

> <s_lp_Variant>
AV-unprocessed.smi:645-2

> <Gold.Version>
5.8.1

> <Gold.Id.Protein>
6NUR|6NUR_protein|mol2

> <Gold.PLP.Fitness>
30.3691

> <Gold.PLP.PLP>
-24.4468

> <Gold.PLP.part.hbond>
-2.0000

> <Gold.PLP.part.metal>
0.0000

> <Gold.PLP.part.buried>
-3.8897

> <Gold.PLP.part.nonpolar>
-19.1524

> <Gold.PLP.part.repulsive>
0.3552

> <Gold.PLP.ligand.clash>
0.0000

> <Gold.PLP.ligand.torsion>
0.0982

> <Gold.PLP.Chemscore.Hbond>
2.0000

> <Gold.PLP.Chemscore.CHOScore>
0.0000

> <Gold.PLP.Chemscore.Metal>
0.0000

> <Gold.Chemscore.Hbonds>
donor molecule, donor type, donor heavy atom, donor atom, acceptor molecule, acceptor atom, score
      P1  H  7989  7998       L1    11  0.65
      P1  H  7997  8008       L1    14  1.00

> <Gold.PLP.Chemscore.Internal.Correction>
0.1187

> <Gold.Rescore>
     Score         DG    S(hbond)    S(metal)    S(lipo)     H(rot)  DE(clash)    DE(int)     intcor
     13.08     -13.15       0.97        0.00      59.66       1.00       0.00       0.07       ----

> <Gold.Chemscore.Fitness>
13.0767

> <Gold.Chemscore.DG>
-13.1494

> <Gold.Chemscore.ZeroCoef>
-5.4800

> <Gold.Chemscore.Hbond>
0.9729

> <Gold.Chemscore.Metal>
0.0000

> <Gold.Chemscore.Lipo>
59.6586

> <Gold.Chemscore.Internal_Hbond>
0.0000

> <Gold.Chemscore.DEClash>
0.0021

> <Gold.Chemscore.DEInternal>
0.0706

> <Gold.Chemscore.Rot>
1.0000

> <Gold.Chemscore.Internal.Correction>
   9.000000E+99

> <Gold.Chemscore.Hbonds>
donor molecule, donor type, donor heavy atom, donor atom, acceptor molecule, acceptor atom, score
      P1  H  7989  7998       L1    11  0.05
      P1  H  7997  8008       L1    14  0.60

> <Gold.Chemscore.Hbond.Weighted>
-3.2493

> <Gold.Chemscore.Metal.Weighted>
-0.0000

> <Gold.Chemscore.Lipo.Weighted>
-6.9801

> <Gold.Chemscore.Internal_Hbond.Weighted>
0.0000

> <Gold.Chemscore.DEClash.Weighted>
0.0021

> <Gold.Chemscore.DEInternal.Weighted>
0.0706

> <Gold.Chemscore.Rot.Weighted>
2.5600

> <Gold.Chemscore.Internal.Correction.Weighted>
   9.000000E+99

> <Gold.Protein.RotatedTorsions>
[ 6907 6896 6895 6894 ] final   36.39 input  -60.11 | X-H torsion
[ 7974 7965 7964 7962 ] final  -74.02 input  175.53 | X-H torsion
[ 8008 7997 7996 7995 ] final  -74.96 input   59.86 | X-H torsion
[ 10167 10162 10161 10158 ] final -103.92 input  -65.29 | X-H torsion
[ 10718 10713 10712 10709 ] final -143.83 input   66.30 | X-H torsion
[ 10763 10752 10751 10750 ] final -175.98 input  -60.55 | X-H torsion
[ 11005 11000 10999 10996 ] final -146.59 input  -57.11 | X-H torsion

> <Gold.Protein.ActiveResidues>
 VAL166  LYS551  ARG553  GLY616  TRP617  ASP618  TYR619  PRO620  LYS621  CYS622 
 ASP623  PHE694  ASN695  SER759  ASP760  ASP761  ALA762  ILE779  LEU786  VAL792 
 PHE793  MET794  SER795  GLU796  ALA797  LYS798  CYS799  TRP800  GLU811  SER814 

> <Gold.Protein.RotatedAtoms>
  152.1290  134.9149  160.0559 H   0  0  0  0  0  0  0  0  0  0  0  0  # atno 6907 bound_to 6896
  152.0260  133.3913  159.4286 H   0  0  0  0  0  0  0  0  0  0  0  0  # atno 6908 bound_to 6896
  150.6855  134.3494  159.4946 H   0  0  0  0  0  0  0  0  0  0  0  0  # atno 6909 bound_to 6896
  145.6445  140.9301  143.1018 H   0  0  0  0  0  0  0  0  0  0  0  0  # atno 7974 bound_to 7965
  154.5376  140.0752  156.8454 H   0  0  0  0  0  0  0  0  0  0  0  0  # atno 8008 bound_to 7997
  155.3247  140.3398  155.4222 H   0  0  0  0  0  0  0  0  0  0  0  0  # atno 8009 bound_to 7997
  156.1843  140.1663  156.8202 H   0  0  0  0  0  0  0  0  0  0  0  0  # atno 8010 bound_to 7997
  140.2148  143.3719  152.1020 H   0  0  0  0  0  0  0  0  0  0  0  0  # atno 10167 bound_to 10162
  156.3627  130.7747  151.1916 H   0  0  0  0  0  0  0  0  0  0  0  0  # atno 10718 bound_to 10713
  154.5779  135.2833  155.0762 H   0  0  0  0  0  0  0  0  0  0  0  0  # atno 10763 bound_to 10752
  154.2110  135.6408  153.5119 H   0  0  0  0  0  0  0  0  0  0  0  0  # atno 10764 bound_to 10752
  153.0078  135.5491  154.6423 H   0  0  0  0  0  0  0  0  0  0  0  0  # atno 10765 bound_to 10752
  140.7804  134.3085  157.5047 H   0  0  0  0  0  0  0  0  0  0  0  0  # atno 11005 bound_to 11000
  144.7145  139.8247  143.7403 LP  0  0  0  0  0  0  0  0  0  0  0  0  # atno 17320 bound_to 7965
  146.1254  139.4279  143.0202 LP  0  0  0  0  0  0  0  0  0  0  0  0  # atno 17321 bound_to 7965
  139.5166  144.6980  151.5576 LP  0  0  0  0  0  0  0  0  0  0  0  0  # atno 17342 bound_to 10162
  140.6297  143.9099  150.6595 LP  0  0  0  0  0  0  0  0  0  0  0  0  # atno 17343 bound_to 10162
  157.7475  131.0395  150.4554 LP  0  0  0  0  0  0  0  0  0  0  0  0  # atno 17370 bound_to 10713
  156.4768  130.4065  149.6485 LP  0  0  0  0  0  0  0  0  0  0  0  0  # atno 17371 bound_to 10713
  139.8743  134.9315  156.3530 LP  0  0  0  0  0  0  0  0  0  0  0  0  # atno 17394 bound_to 11000
  140.9487  133.7465  156.0243 LP  0  0  0  0  0  0  0  0  0  0  0  0  # atno 17395 bound_to 11000

$$$$
