AV-unprocessed.smi:2502|AV-procd|sdf|9845|dock10
  -GOLD-   2272013473D 1   1.00000     0.00000
 Structure written by MMmdl.
 39 41  0  0  0  0  0  0  0  0  1 V2000
  149.2577  134.9333  158.8798 O   0  0  0  0  0  0  0  0  0  0  0  0
  149.2380  136.2701  159.3415 C   0  0  2  0  0  0  0  0  0  0  0  0
  147.7988  136.6540  159.7217 C   0  0  0  0  0  0  0  0  0  0  0  0
  147.7420  137.0452  161.0869 O   0  0  0  0  0  0  0  0  0  0  0  0
  147.0314  136.1487  161.9314 C   0  0  0  0  0  0  0  0  0  0  0  0
  147.4117  134.6837  161.6534 C   0  0  0  0  0  0  0  0  0  0  0  0
  146.4886  133.7312  162.4309 C   0  0  0  0  0  0  0  0  0  0  0  0
  145.1282  133.9850  162.0956 O   0  0  0  0  0  0  0  0  0  0  0  0
  144.7067  135.3007  162.4396 C   0  0  0  0  0  0  0  0  0  0  0  0
  145.5332  136.3362  161.6597 C   0  0  0  0  0  0  0  0  0  0  0  0
  149.8879  137.2285  158.3234 C   0  0  0  0  0  0  0  0  0  0  0  0
  151.1234  137.8070  158.8211 N   0  0  0  0  0  0  0  0  0  0  0  0
  152.1002  136.9856  159.2998 N   0  0  0  0  0  0  0  0  0  0  0  0
  153.1087  137.7136  159.6760 N   0  0  0  0  0  0  0  0  0  0  0  0
  152.7896  139.0409  159.4431 C   0  0  0  0  0  0  0  0  0  0  0  0
  153.5115  140.2356  159.6604 C   0  0  0  0  0  0  0  0  0  0  0  0
  152.9427  141.4844  159.3273 C   0  0  0  0  0  0  0  0  0  0  0  0
  153.8579  142.9230  159.6074 Cl  0  0  0  0  0  0  0  0  0  0  0  0
  151.6422  141.5518  158.7714 C   0  0  0  0  0  0  0  0  0  0  0  0
  150.9311  143.0716  158.3600 Cl  0  0  0  0  0  0  0  0  0  0  0  0
  150.9115  140.3679  158.5467 C   0  0  0  0  0  0  0  0  0  0  0  0
  151.4958  139.1356  158.8859 C   0  0  0  0  0  0  0  0  0  0  0  0
  148.9823  134.9233  157.9759 H   0  0  0  0  0  0  0  0  0  0  0  0
  149.8310  136.2807  160.2568 H   0  0  0  0  0  0  0  0  0  0  0  0
  147.4323  137.4412  159.0626 H   0  0  0  0  0  0  0  0  0  0  0  0
  147.1510  135.7880  159.5767 H   0  0  0  0  0  0  0  0  0  0  0  0
  147.2250  136.3907  162.9782 H   0  0  0  0  0  0  0  0  0  0  0  0
  147.3285  134.4775  160.5856 H   0  0  0  0  0  0  0  0  0  0  0  0
  148.4475  134.4897  161.9301 H   0  0  0  0  0  0  0  0  0  0  0  0
  146.7244  132.6963  162.1826 H   0  0  0  0  0  0  0  0  0  0  0  0
  146.6347  133.8407  163.5066 H   0  0  0  0  0  0  0  0  0  0  0  0
  143.6491  135.4056  162.1967 H   0  0  0  0  0  0  0  0  0  0  0  0
  144.8029  135.4550  163.5155 H   0  0  0  0  0  0  0  0  0  0  0  0
  145.2249  137.3462  161.9315 H   0  0  0  0  0  0  0  0  0  0  0  0
  145.3353  136.2253  160.5928 H   0  0  0  0  0  0  0  0  0  0  0  0
  150.1029  136.7099  157.3882 H   0  0  0  0  0  0  0  0  0  0  0  0
  149.2008  138.0394  158.0775 H   0  0  0  0  0  0  0  0  0  0  0  0
  154.5043  140.1911  160.0833 H   0  0  0  0  0  0  0  0  0  0  0  0
  149.9195  140.4055  158.1211 H   0  0  0  0  0  0  0  0  0  0  0  0
  1  2  1  0  0  0  0
  1 23  1  0  0  0  0
  2  3  1  0  0  0  0
  2 11  1  0  0  0  0
  2 24  1  0  0  0  0
  3  4  1  0  0  0  0
  3 25  1  0  0  0  0
  3 26  1  0  0  0  0
  4  5  1  0  0  0  0
  5 10  1  0  0  0  0
  5  6  1  0  0  0  0
  5 27  1  0  0  0  0
  6  7  1  0  0  0  0
  6 28  1  0  0  0  0
  6 29  1  0  0  0  0
  7  8  1  0  0  0  0
  7 30  1  0  0  0  0
  7 31  1  0  0  0  0
  8  9  1  0  0  0  0
  9 10  1  0  0  0  0
  9 32  1  0  0  0  0
  9 33  1  0  0  0  0
 10 34  1  0  0  0  0
 10 35  1  0  0  0  0
 11 12  1  0  0  0  0
 11 36  1  0  0  0  0
 11 37  1  0  0  0  0
 12 22  1  0  0  0  0
 12 13  1  0  0  0  0
 13 14  2  0  0  0  0
 14 15  1  0  0  0  0
 15 22  2  0  0  0  0
 15 16  1  0  0  0  0
 16 17  2  0  0  0  0
 16 38  1  0  0  0  0
 17 18  1  0  0  0  0
 17 19  1  0  0  0  0
 19 20  1  0  0  0  0
 19 21  2  0  0  0  0
 21 22  1  0  0  0  0
 21 39  1  0  0  0  0
M  END
> <s_m_source_file>
AV-unprocessed.smi

> <i_m_source_file_index>
2502

> <i_lp_mmshare_version>
43012

> <i_f3d_flags>
0

> <s_epik_input>
W2NIXTFjKENsKWMoQ2wpW2NIXWMoYzEyKW4obm4yKVtDSDJdW0NASF0oW09IXSlbQ0gyXU9bQ0hdM1tDSDJdW0NIMl1PW0NIMl1bQ0gyXTM=

> <s_epik_cmdline>
J2VwaWtfcHl0aG9uJywgJy1waCcsICc3LjAnLCAnLXRuJywgJzgnLCAnLW1hJywgJzIwMCcsICctbWV0YWxfYmluZGluZycsICctaW1hZScsICc8aW5maWxlLm1hZT4nLCAnLW9tYWUnLCAnPG91dGZpbGUubWFlPic=

> <r_lp_tautomer_probability>
1

> <r_epik_Ionization_Penalty>
2.65748e-06

> <r_epik_Ionization_Penalty_Charging>
0

> <r_epik_Ionization_Penalty_Neutral>
2.65748e-06

> <r_epik_State_Penalty>
-0

> <r_epik_Charging_Adjusted_Penalty>
0

> <i_epik_Tot_Q>
0

> <i_epik_Tot_abs_Q>
0

> <r_epik_Metal_State_Penalty>
-0

> <b_epik_Metal_Only>
0

> <s_lp_Force_Field>
OPLS_2005

> <r_lp_Energy>
14.9544

> <b_lp_Chiralities_Consistent>
1

> <s_lp_Variant>
AV-unprocessed.smi:2502-1

> <Gold.Version>
5.8.1

> <Gold.Id.Protein>
6NUR|6NUR_protein|mol2

> <Gold.PLP.Fitness>
46.4876

> <Gold.PLP.PLP>
-39.5144

> <Gold.PLP.part.hbond>
-4.0000

> <Gold.PLP.part.metal>
0.0000

> <Gold.PLP.part.buried>
-6.3841

> <Gold.PLP.part.nonpolar>
-29.7045

> <Gold.PLP.part.repulsive>
0.0424

> <Gold.PLP.ligand.clash>
0.0000

> <Gold.PLP.ligand.torsion>
2.0017

> <Gold.PLP.Chemscore.Hbond>
3.6409

> <Gold.PLP.Chemscore.CHOScore>
0.0000

> <Gold.PLP.Chemscore.Metal>
0.0000

> <Gold.Chemscore.Hbonds>
donor molecule, donor type, donor heavy atom, donor atom, acceptor molecule, acceptor atom, score
      P1  H  6896  6908       L1     1  1.00
      P1  H  6896  6909       L1    13  0.97
      P1  H  6931  6943       L1     4  0.99
      P1  H  6934  6947       L1     4  0.82

> <Gold.PLP.Chemscore.Internal.Correction>
0.0540

> <Gold.Rescore>
     Score         DG    S(hbond)    S(metal)    S(lipo)     H(rot)  DE(clash)    DE(int)     intcor
     20.76     -22.74       3.07        0.00     108.08       2.21       0.05       1.94       ----

> <Gold.Chemscore.Fitness>
20.7604

> <Gold.Chemscore.DG>
-22.7448

> <Gold.Chemscore.ZeroCoef>
-5.4800

> <Gold.Chemscore.Hbond>
3.0742

> <Gold.Chemscore.Metal>
0.0000

> <Gold.Chemscore.Lipo>
108.0808

> <Gold.Chemscore.Internal_Hbond>
0.0000

> <Gold.Chemscore.DEClash>
0.0466

> <Gold.Chemscore.DEInternal>
1.9378

> <Gold.Chemscore.Rot>
2.2065

> <Gold.Chemscore.Internal.Correction>
   9.000000E+99

> <Gold.Chemscore.Hbonds>
donor molecule, donor type, donor heavy atom, donor atom, acceptor molecule, acceptor atom, score
      P1  H  6896  6908       L1     1  0.74
      P1  H  6896  6909       L1    13  0.84
      P1  H  6931  6943       L1     4  0.89
      P1  H  6934  6947       L1     4  0.26

> <Gold.Chemscore.Hbond.Weighted>
-10.2679

> <Gold.Chemscore.Metal.Weighted>
-0.0000

> <Gold.Chemscore.Lipo.Weighted>
-12.6455

> <Gold.Chemscore.Internal_Hbond.Weighted>
0.0000

> <Gold.Chemscore.DEClash.Weighted>
0.0466

> <Gold.Chemscore.DEInternal.Weighted>
1.9378

> <Gold.Chemscore.Rot.Weighted>
5.6485

> <Gold.Chemscore.Internal.Correction.Weighted>
   9.000000E+99

> <Gold.Protein.RotatedTorsions>
[ 6907 6896 6895 6894 ] final  141.82 input  -60.11 | X-H torsion
[ 7974 7965 7964 7962 ] final   39.37 input  175.53 | X-H torsion
[ 8008 7997 7996 7995 ] final   86.18 input   59.86 | X-H torsion
[ 10167 10162 10161 10158 ] final -143.74 input  -65.29 | X-H torsion
[ 10718 10713 10712 10709 ] final   36.67 input   66.30 | X-H torsion
[ 10763 10752 10751 10750 ] final  161.47 input  -60.55 | X-H torsion
[ 11005 11000 10999 10996 ] final -141.13 input  -57.11 | X-H torsion

> <Gold.Protein.ActiveResidues>
 VAL166  LYS551  ARG553  GLY616  TRP617  ASP618  TYR619  PRO620  LYS621  CYS622 
 ASP623  PHE694  ASN695  SER759  ASP760  ASP761  ALA762  ILE779  LEU786  VAL792 
 PHE793  MET794  SER795  GLU796  ALA797  LYS798  CYS799  TRP800  GLU811  SER814 

> <Gold.Protein.RotatedAtoms>
  152.2263  133.5022  159.5190 H   0  0  0  0  0  0  0  0  0  0  0  0  # atno 6907 bound_to 6896
  150.7025  134.1276  159.4067 H   0  0  0  0  0  0  0  0  0  0  0  0  # atno 6908 bound_to 6896
  151.9197  135.0303  160.0572 H   0  0  0  0  0  0  0  0  0  0  0  0  # atno 6909 bound_to 6896
  146.0990  139.5660  142.9427 H   0  0  0  0  0  0  0  0  0  0  0  0  # atno 7974 bound_to 7965
  155.9595  140.3394  155.6478 H   0  0  0  0  0  0  0  0  0  0  0  0  # atno 8008 bound_to 7997
  155.6816  140.0738  157.2501 H   0  0  0  0  0  0  0  0  0  0  0  0  # atno 8009 bound_to 7997
  154.4140  140.1673  156.1976 H   0  0  0  0  0  0  0  0  0  0  0  0  # atno 8010 bound_to 7997
  139.7965  143.7893  152.2654 H   0  0  0  0  0  0  0  0  0  0  0  0  # atno 10167 bound_to 10162
  157.3377  130.7531  149.6890 H   0  0  0  0  0  0  0  0  0  0  0  0  # atno 10718 bound_to 10713
  154.2634  135.2768  155.2768 H   0  0  0  0  0  0  0  0  0  0  0  0  # atno 10763 bound_to 10752
  154.5364  135.5715  153.6805 H   0  0  0  0  0  0  0  0  0  0  0  0  # atno 10764 bound_to 10752
  152.9958  135.6240  154.2786 H   0  0  0  0  0  0  0  0  0  0  0  0  # atno 10765 bound_to 10752
  140.8355  134.2466  157.4836 H   0  0  0  0  0  0  0  0  0  0  0  0  # atno 11005 bound_to 11000
  145.5892  141.0372  143.2079 LP  0  0  0  0  0  0  0  0  0  0  0  0  # atno 17320 bound_to 7965
  144.7417  139.7429  143.7308 LP  0  0  0  0  0  0  0  0  0  0  0  0  # atno 17321 bound_to 7965
  139.8000  144.7377  150.9837 LP  0  0  0  0  0  0  0  0  0  0  0  0  # atno 17342 bound_to 10162
  140.7820  143.4354  151.0631 LP  0  0  0  0  0  0  0  0  0  0  0  0  # atno 17343 bound_to 10162
  155.9703  130.4177  150.4290 LP  0  0  0  0  0  0  0  0  0  0  0  0  # atno 17370 bound_to 10713
  157.2333  131.0509  151.2480 LP  0  0  0  0  0  0  0  0  0  0  0  0  # atno 17371 bound_to 10713
  139.8704  134.9608  156.4376 LP  0  0  0  0  0  0  0  0  0  0  0  0  # atno 17394 bound_to 11000
  140.8952  133.7819  155.9617 LP  0  0  0  0  0  0  0  0  0  0  0  0  # atno 17395 bound_to 11000

$$$$
