AV-unprocessed.smi:2133|AV-procd|sdf|8692|dock1
  -GOLD-   2272011443D 1   1.00000     0.00000
 Structure written by MMmdl.
 45 47  0  0  0  0  0  0  0  0  1 V2000
  146.3492  142.1386  158.0580 C   0  0  0  0  0  0  0  0  0  0  0  0
  147.3766  141.5921  157.1513 N   0  0  0  0  0  0  0  0  0  0  0  0
  148.6098  141.2976  157.6713 C   0  0  0  0  0  0  0  0  0  0  0  0
  148.9292  141.4458  158.8512 O   0  0  0  0  0  0  0  0  0  0  0  0
  149.5592  140.7705  156.6855 C   0  0  0  0  0  0  0  0  0  0  0  0
  149.2376  140.5810  155.3827 C   0  0  0  0  0  0  0  0  0  0  0  0
  150.3109  140.0674  154.6641 N   0  0  0  0  0  0  0  0  0  0  0  0
  151.2534  139.9744  155.6024 C   0  0  0  0  0  0  0  0  0  0  0  0
  150.8877  140.3735  156.8376 N   0  0  0  0  0  0  0  0  0  0  0  0
  151.7360  140.3674  158.0199 C   0  0  0  0  0  0  0  0  0  0  0  0
  153.0631  139.6173  157.7914 C   0  0  2  0  0  0  0  0  0  0  0  0
  152.8124  138.2557  157.5048 O   0  0  0  0  0  0  0  0  0  0  0  0
  153.9959  139.6974  159.0082 C   0  0  0  0  0  0  0  0  0  0  0  0
  153.7186  140.8917  159.7205 O   0  0  0  0  0  0  0  0  0  0  0  0
  154.2190  142.0516  159.0757 C   0  0  0  0  0  0  0  0  0  0  0  0
  153.3076  143.2497  159.2680 C   0  0  0  0  0  0  0  0  0  0  0  0
  152.9164  144.0369  158.1634 C   0  0  0  0  0  0  0  0  0  0  0  0
  152.0831  145.1571  158.3510 C   0  0  0  0  0  0  0  0  0  0  0  0
  151.6431  145.4997  159.6440 C   0  0  0  0  0  0  0  0  0  0  0  0
  152.0384  144.7231  160.7500 C   0  0  0  0  0  0  0  0  0  0  0  0
  152.8712  143.6024  160.5628 C   0  0  0  0  0  0  0  0  0  0  0  0
  147.9300  140.9107  154.9491 N   0  0  0  0  0  0  0  0  0  0  0  0
  147.6196  140.6900  153.5335 C   0  0  0  0  0  0  0  0  0  0  0  0
  147.0042  141.4178  155.8288 C   0  0  0  0  0  0  0  0  0  0  0  0
  145.8677  141.7105  155.4473 O   0  0  0  0  0  0  0  0  0  0  0  0
  146.6686  142.2634  159.0931 H   0  0  0  0  0  0  0  0  0  0  0  0
  145.4759  141.4849  158.0811 H   0  0  0  0  0  0  0  0  0  0  0  0
  146.0230  143.1218  157.7147 H   0  0  0  0  0  0  0  0  0  0  0  0
  152.2436  139.6011  155.3854 H   0  0  0  0  0  0  0  0  0  0  0  0
  151.9413  141.4056  158.2840 H   0  0  0  0  0  0  0  0  0  0  0  0
  151.1905  139.9512  158.8653 H   0  0  0  0  0  0  0  0  0  0  0  0
  153.5754  140.0423  156.9272 H   0  0  0  0  0  0  0  0  0  0  0  0
  152.1199  137.9523  158.0718 H   0  0  0  0  0  0  0  0  0  0  0  0
  153.8603  138.8274  159.6531 H   0  0  0  0  0  0  0  0  0  0  0  0
  155.0370  139.7055  158.6806 H   0  0  0  0  0  0  0  0  0  0  0  0
  155.2108  142.2877  159.4650 H   0  0  0  0  0  0  0  0  0  0  0  0
  154.3234  141.8661  158.0058 H   0  0  0  0  0  0  0  0  0  0  0  0
  153.2528  143.7857  157.1681 H   0  0  0  0  0  0  0  0  0  0  0  0
  151.7833  145.7545  157.5025 H   0  0  0  0  0  0  0  0  0  0  0  0
  151.0053  146.3596  159.7875 H   0  0  0  0  0  0  0  0  0  0  0  0
  151.7043  144.9876  161.7424 H   0  0  0  0  0  0  0  0  0  0  0  0
  153.1727  143.0138  161.4169 H   0  0  0  0  0  0  0  0  0  0  0  0
  146.6030  140.9603  153.2464 H   0  0  0  0  0  0  0  0  0  0  0  0
  147.7572  139.6374  153.2838 H   0  0  0  0  0  0  0  0  0  0  0  0
  148.2979  141.2726  152.9091 H   0  0  0  0  0  0  0  0  0  0  0  0
  1  2  1  0  0  0  0
  1 26  1  0  0  0  0
  1 27  1  0  0  0  0
  1 28  1  0  0  0  0
  2 24  1  0  0  0  0
  2  3  1  0  0  0  0
  3  4  2  0  0  0  0
  3  5  1  0  0  0  0
  5  9  1  0  0  0  0
  5  6  2  0  0  0  0
  6  7  1  0  0  0  0
  6 22  1  0  0  0  0
  7  8  2  0  0  0  0
  8  9  1  0  0  0  0
  8 29  1  0  0  0  0
  9 10  1  0  0  0  0
 10 11  1  0  0  0  0
 10 30  1  0  0  0  0
 10 31  1  0  0  0  0
 11 12  1  0  0  0  0
 11 13  1  0  0  0  0
 11 32  1  0  0  0  0
 12 33  1  0  0  0  0
 13 14  1  0  0  0  0
 13 34  1  0  0  0  0
 13 35  1  0  0  0  0
 14 15  1  0  0  0  0
 15 16  1  0  0  0  0
 15 36  1  0  0  0  0
 15 37  1  0  0  0  0
 16 21  1  0  0  0  0
 16 17  2  0  0  0  0
 17 18  1  0  0  0  0
 17 38  1  0  0  0  0
 18 19  2  0  0  0  0
 18 39  1  0  0  0  0
 19 20  1  0  0  0  0
 19 40  1  0  0  0  0
 20 21  2  0  0  0  0
 20 41  1  0  0  0  0
 21 42  1  0  0  0  0
 22 23  1  0  0  0  0
 22 24  1  0  0  0  0
 23 43  1  0  0  0  0
 23 44  1  0  0  0  0
 23 45  1  0  0  0  0
 24 25  2  0  0  0  0
M  END
> <s_m_source_file>
AV-unprocessed.smi

> <i_m_source_file_index>
2133

> <i_lp_mmshare_version>
43012

> <i_f3d_flags>
0

> <s_epik_input>
Tz1jMW4oW0NIM10pYyg9TyluKFtDSDNdKWMoYzEyKW5bY0hdbjJbQ0gyXVtDQEhdKFtPSF0pW0NIMl1PW0NIMl1jM1tjSF1bY0hdW2NIXVtjSF1bY0hdMw==

> <s_epik_cmdline>
J2VwaWtfcHl0aG9uJywgJy1waCcsICc3LjAnLCAnLXRuJywgJzgnLCAnLW1hJywgJzIwMCcsICctbWV0YWxfYmluZGluZycsICctaW1hZScsICc8aW5maWxlLm1hZT4nLCAnLW9tYWUnLCAnPG91dGZpbGUubWFlPic=

> <r_lp_tautomer_probability>
1

> <r_epik_Ionization_Penalty>
1.52174e-06

> <r_epik_Ionization_Penalty_Charging>
3.83535e-09

> <r_epik_Ionization_Penalty_Neutral>
1.5179e-06

> <r_epik_State_Penalty>
-0

> <r_epik_Charging_Adjusted_Penalty>
3.83535e-09

> <i_epik_Tot_Q>
0

> <i_epik_Tot_abs_Q>
0

> <r_epik_Metal_State_Penalty>
-0

> <b_epik_Metal_Only>
0

> <s_lp_Force_Field>
OPLS_2005

> <r_lp_Energy>
38.2919

> <b_lp_Chiralities_Consistent>
1

> <s_lp_Variant>
AV-unprocessed.smi:2133-1

> <Gold.Version>
5.8.1

> <Gold.Id.Protein>
6NUR|6NUR_protein|mol2

> <Gold.PLP.Fitness>
51.5313

> <Gold.PLP.PLP>
-50.1396

> <Gold.PLP.part.hbond>
-3.0000

> <Gold.PLP.part.metal>
0.0000

> <Gold.PLP.part.buried>
-2.2917

> <Gold.PLP.part.nonpolar>
-44.8844

> <Gold.PLP.part.repulsive>
0.3122

> <Gold.PLP.ligand.clash>
0.0000

> <Gold.PLP.ligand.torsion>
0.8875

> <Gold.PLP.Chemscore.Hbond>
1.0000

> <Gold.PLP.Chemscore.CHOScore>
0.0000

> <Gold.PLP.Chemscore.Metal>
0.0000

> <Gold.Chemscore.Hbonds>
donor molecule, donor type, donor heavy atom, donor atom, acceptor molecule, acceptor atom, score
      P1  H  7989  7998       L1     7  0.45

> <Gold.PLP.Chemscore.Internal.Correction>
0.1667

> <Gold.Rescore>
     Score         DG    S(hbond)    S(metal)    S(lipo)     H(rot)  DE(clash)    DE(int)     intcor
     11.92     -15.47       0.95        0.00     122.10       2.91       2.00       1.56       ----

> <Gold.Chemscore.Fitness>
11.9214

> <Gold.Chemscore.DG>
-15.4731

> <Gold.Chemscore.ZeroCoef>
-5.4800

> <Gold.Chemscore.Hbond>
0.9477

> <Gold.Chemscore.Metal>
0.0000

> <Gold.Chemscore.Lipo>
122.0981

> <Gold.Chemscore.Internal_Hbond>
0.0000

> <Gold.Chemscore.DEClash>
1.9964

> <Gold.Chemscore.DEInternal>
1.5553

> <Gold.Chemscore.Rot>
2.9132

> <Gold.Chemscore.Internal.Correction>
   9.000000E+99

> <Gold.Chemscore.Hbonds>
donor molecule, donor type, donor heavy atom, donor atom, acceptor molecule, acceptor atom, score
      P1  H  7989  7998       L1     7  0.02

> <Gold.Chemscore.Hbond.Weighted>
-3.1654

> <Gold.Chemscore.Metal.Weighted>
-0.0000

> <Gold.Chemscore.Lipo.Weighted>
-14.2855

> <Gold.Chemscore.Internal_Hbond.Weighted>
0.0000

> <Gold.Chemscore.DEClash.Weighted>
1.9964

> <Gold.Chemscore.DEInternal.Weighted>
1.5553

> <Gold.Chemscore.Rot.Weighted>
7.4578

> <Gold.Chemscore.Internal.Correction.Weighted>
   9.000000E+99

> <Gold.Protein.RotatedTorsions>
[ 6907 6896 6895 6894 ] final -138.25 input  -60.11 | X-H torsion
[ 7974 7965 7964 7962 ] final   89.87 input  175.53 | X-H torsion
[ 8008 7997 7996 7995 ] final -112.25 input   59.86 | X-H torsion
[ 10167 10162 10161 10158 ] final  -83.89 input  -65.29 | X-H torsion
[ 10718 10713 10712 10709 ] final   56.54 input   66.30 | X-H torsion
[ 10763 10752 10751 10750 ] final   29.77 input  -60.55 | X-H torsion
[ 11005 11000 10999 10996 ] final   37.35 input  -57.11 | X-H torsion

> <Gold.Protein.ActiveResidues>
 VAL166  LYS551  ARG553  GLY616  TRP617  ASP618  TYR619  PRO620  LYS621  CYS622 
 ASP623  PHE694  ASN695  SER759  ASP760  ASP761  ALA762  ILE779  LEU786  VAL792 
 PHE793  MET794  SER795  GLU796  ALA797  LYS798  CYS799  TRP800  GLU811  SER814 

> <Gold.Protein.RotatedAtoms>
  151.0327  133.5776  159.2658 H   0  0  0  0  0  0  0  0  0  0  0  0  # atno 6907 bound_to 6896
  151.2851  135.0724  159.9193 H   0  0  0  0  0  0  0  0  0  0  0  0  # atno 6908 bound_to 6896
  152.5348  134.0035  159.7959 H   0  0  0  0  0  0  0  0  0  0  0  0  # atno 6909 bound_to 6896
  145.5266  139.2281  143.2642 H   0  0  0  0  0  0  0  0  0  0  0  0  # atno 7974 bound_to 7965
  155.0023  140.0394  157.2365 H   0  0  0  0  0  0  0  0  0  0  0  0  # atno 8008 bound_to 7997
  154.7532  140.2771  155.6252 H   0  0  0  0  0  0  0  0  0  0  0  0  # atno 8009 bound_to 7997
  156.2889  140.2643  156.2292 H   0  0  0  0  0  0  0  0  0  0  0  0  # atno 8010 bound_to 7997
  140.4184  143.2594  151.8924 H   0  0  0  0  0  0  0  0  0  0  0  0  # atno 10167 bound_to 10162
  157.5439  130.8717  149.8862 H   0  0  0  0  0  0  0  0  0  0  0  0  # atno 10718 bound_to 10713
  153.0411  135.6481  154.0941 H   0  0  0  0  0  0  0  0  0  0  0  0  # atno 10763 bound_to 10752
  154.0648  135.2885  155.3320 H   0  0  0  0  0  0  0  0  0  0  0  0  # atno 10764 bound_to 10752
  154.6634  135.5383  153.8111 H   0  0  0  0  0  0  0  0  0  0  0  0  # atno 10765 bound_to 10752
  140.2234  134.3613  155.7995 H   0  0  0  0  0  0  0  0  0  0  0  0  # atno 11005 bound_to 11000
  146.2072  140.6080  142.9076 LP  0  0  0  0  0  0  0  0  0  0  0  0  # atno 17320 bound_to 7965
  144.7648  140.5505  143.6710 LP  0  0  0  0  0  0  0  0  0  0  0  0  # atno 17321 bound_to 7965
  139.4782  144.5463  151.8452 LP  0  0  0  0  0  0  0  0  0  0  0  0  # atno 17342 bound_to 10162
  140.4561  144.1787  150.5901 LP  0  0  0  0  0  0  0  0  0  0  0  0  # atno 17343 bound_to 10162
  156.0519  130.3716  150.1181 LP  0  0  0  0  0  0  0  0  0  0  0  0  # atno 17370 bound_to 10713
  156.9358  130.9728  151.3525 LP  0  0  0  0  0  0  0  0  0  0  0  0  # atno 17371 bound_to 10713
  141.2222  133.7206  156.8613 LP  0  0  0  0  0  0  0  0  0  0  0  0  # atno 17394 bound_to 11000
  140.1825  134.9023  157.2966 LP  0  0  0  0  0  0  0  0  0  0  0  0  # atno 17395 bound_to 11000

$$$$
