AV-unprocessed.smi:2502|AV-procd|sdf|9845|dock1
  -GOLD-   2272013473D 1   1.00000     0.00000
 Structure written by MMmdl.
 39 41  0  0  0  0  0  0  0  0  1 V2000
  150.7811  139.5269  154.3303 O   0  0  0  0  0  0  0  0  0  0  0  0
  149.9579  140.2656  155.2118 C   0  0  2  0  0  0  0  0  0  0  0  0
  148.6999  140.7309  154.4607 C   0  0  0  0  0  0  0  0  0  0  0  0
  147.6896  141.1081  155.3865 O   0  0  0  0  0  0  0  0  0  0  0  0
  146.5382  141.7004  154.7989 C   0  0  0  0  0  0  0  0  0  0  0  0
  146.9073  142.9030  153.9125 C   0  0  0  0  0  0  0  0  0  0  0  0
  145.6398  143.6441  153.4560 C   0  0  0  0  0  0  0  0  0  0  0  0
  144.8758  144.0503  154.5869 O   0  0  0  0  0  0  0  0  0  0  0  0
  144.4220  142.9544  155.3743 C   0  0  0  0  0  0  0  0  0  0  0  0
  145.6252  142.1789  155.9352 C   0  0  0  0  0  0  0  0  0  0  0  0
  150.7384  141.4121  155.8854 C   0  0  0  0  0  0  0  0  0  0  0  0
  151.5990  140.9397  156.9554 N   0  0  0  0  0  0  0  0  0  0  0  0
  152.2751  139.7663  156.8000 N   0  0  0  0  0  0  0  0  0  0  0  0
  152.9844  139.5502  157.8672 N   0  0  0  0  0  0  0  0  0  0  0  0
  152.7696  140.6002  158.7442 C   0  0  0  0  0  0  0  0  0  0  0  0
  153.2828  140.8718  160.0321 C   0  0  0  0  0  0  0  0  0  0  0  0
  152.8930  142.0392  160.7245 C   0  0  0  0  0  0  0  0  0  0  0  0
  153.5434  142.3365  162.2974 Cl  0  0  0  0  0  0  0  0  0  0  0  0
  151.9835  142.9500  160.1344 C   0  0  0  0  0  0  0  0  0  0  0  0
  151.4951  144.3818  160.9687 Cl  0  0  0  0  0  0  0  0  0  0  0  0
  151.4656  142.6930  158.8491 C   0  0  0  0  0  0  0  0  0  0  0  0
  151.8660  141.5252  158.1777 C   0  0  0  0  0  0  0  0  0  0  0  0
  150.6840  138.6078  154.5273 H   0  0  0  0  0  0  0  0  0  0  0  0
  149.6368  139.5637  155.9824 H   0  0  0  0  0  0  0  0  0  0  0  0
  148.9470  141.5466  153.7811 H   0  0  0  0  0  0  0  0  0  0  0  0
  148.3272  139.9073  153.8496 H   0  0  0  0  0  0  0  0  0  0  0  0
  145.9963  140.9574  154.2107 H   0  0  0  0  0  0  0  0  0  0  0  0
  147.5472  143.5887  154.4691 H   0  0  0  0  0  0  0  0  0  0  0  0
  147.4746  142.5846  153.0386 H   0  0  0  0  0  0  0  0  0  0  0  0
  145.9110  144.5284  152.8793 H   0  0  0  0  0  0  0  0  0  0  0  0
  145.0345  143.0130  152.8036 H   0  0  0  0  0  0  0  0  0  0  0  0
  143.8099  143.3380  156.1908 H   0  0  0  0  0  0  0  0  0  0  0  0
  143.7827  142.3032  154.7760 H   0  0  0  0  0  0  0  0  0  0  0  0
  145.2830  141.3288  156.5263 H   0  0  0  0  0  0  0  0  0  0  0  0
  146.1862  142.8247  156.6119 H   0  0  0  0  0  0  0  0  0  0  0  0
  151.3542  141.9401  155.1562 H   0  0  0  0  0  0  0  0  0  0  0  0
  150.0463  142.1479  156.2975 H   0  0  0  0  0  0  0  0  0  0  0  0
  153.9776  140.1817  160.4875 H   0  0  0  0  0  0  0  0  0  0  0  0
  150.7729  143.3809  158.3869 H   0  0  0  0  0  0  0  0  0  0  0  0
  1  2  1  0  0  0  0
  1 23  1  0  0  0  0
  2  3  1  0  0  0  0
  2 11  1  0  0  0  0
  2 24  1  0  0  0  0
  3  4  1  0  0  0  0
  3 25  1  0  0  0  0
  3 26  1  0  0  0  0
  4  5  1  0  0  0  0
  5 10  1  0  0  0  0
  5  6  1  0  0  0  0
  5 27  1  0  0  0  0
  6  7  1  0  0  0  0
  6 28  1  0  0  0  0
  6 29  1  0  0  0  0
  7  8  1  0  0  0  0
  7 30  1  0  0  0  0
  7 31  1  0  0  0  0
  8  9  1  0  0  0  0
  9 10  1  0  0  0  0
  9 32  1  0  0  0  0
  9 33  1  0  0  0  0
 10 34  1  0  0  0  0
 10 35  1  0  0  0  0
 11 12  1  0  0  0  0
 11 36  1  0  0  0  0
 11 37  1  0  0  0  0
 12 22  1  0  0  0  0
 12 13  1  0  0  0  0
 13 14  2  0  0  0  0
 14 15  1  0  0  0  0
 15 22  2  0  0  0  0
 15 16  1  0  0  0  0
 16 17  2  0  0  0  0
 16 38  1  0  0  0  0
 17 18  1  0  0  0  0
 17 19  1  0  0  0  0
 19 20  1  0  0  0  0
 19 21  2  0  0  0  0
 21 22  1  0  0  0  0
 21 39  1  0  0  0  0
M  END
> <s_m_source_file>
AV-unprocessed.smi

> <i_m_source_file_index>
2502

> <i_lp_mmshare_version>
43012

> <i_f3d_flags>
0

> <s_epik_input>
W2NIXTFjKENsKWMoQ2wpW2NIXWMoYzEyKW4obm4yKVtDSDJdW0NASF0oW09IXSlbQ0gyXU9bQ0hdM1tDSDJdW0NIMl1PW0NIMl1bQ0gyXTM=

> <s_epik_cmdline>
J2VwaWtfcHl0aG9uJywgJy1waCcsICc3LjAnLCAnLXRuJywgJzgnLCAnLW1hJywgJzIwMCcsICctbWV0YWxfYmluZGluZycsICctaW1hZScsICc8aW5maWxlLm1hZT4nLCAnLW9tYWUnLCAnPG91dGZpbGUubWFlPic=

> <r_lp_tautomer_probability>
1

> <r_epik_Ionization_Penalty>
2.65748e-06

> <r_epik_Ionization_Penalty_Charging>
0

> <r_epik_Ionization_Penalty_Neutral>
2.65748e-06

> <r_epik_State_Penalty>
-0

> <r_epik_Charging_Adjusted_Penalty>
0

> <i_epik_Tot_Q>
0

> <i_epik_Tot_abs_Q>
0

> <r_epik_Metal_State_Penalty>
-0

> <b_epik_Metal_Only>
0

> <s_lp_Force_Field>
OPLS_2005

> <r_lp_Energy>
14.9544

> <b_lp_Chiralities_Consistent>
1

> <s_lp_Variant>
AV-unprocessed.smi:2502-1

> <Gold.Version>
5.8.1

> <Gold.Id.Protein>
6NUR|6NUR_protein|mol2

> <Gold.PLP.Fitness>
50.9796

> <Gold.PLP.PLP>
-46.2030

> <Gold.PLP.part.hbond>
-2.8250

> <Gold.PLP.part.metal>
0.0000

> <Gold.PLP.part.buried>
-5.2541

> <Gold.PLP.part.nonpolar>
-37.7078

> <Gold.PLP.part.repulsive>
0.2502

> <Gold.PLP.ligand.clash>
0.0000

> <Gold.PLP.ligand.torsion>
0.6127

> <Gold.PLP.Chemscore.Hbond>
1.9760

> <Gold.PLP.Chemscore.CHOScore>
0.0000

> <Gold.PLP.Chemscore.Metal>
0.0000

> <Gold.Chemscore.Hbonds>
donor molecule, donor type, donor heavy atom, donor atom, acceptor molecule, acceptor atom, score
      P1  H  7989  7998       L1     1  1.00
      P1  H  7997  8010       L1    14  0.88

> <Gold.PLP.Chemscore.Internal.Correction>
0.0739

> <Gold.Rescore>
     Score         DG    S(hbond)    S(metal)    S(lipo)     H(rot)  DE(clash)    DE(int)     intcor
     15.77     -17.79       0.97        0.00     125.63       2.21       0.29       1.72       ----

> <Gold.Chemscore.Fitness>
15.7726

> <Gold.Chemscore.DG>
-17.7864

> <Gold.Chemscore.ZeroCoef>
-5.4800

> <Gold.Chemscore.Hbond>
0.9748

> <Gold.Chemscore.Metal>
0.0000

> <Gold.Chemscore.Lipo>
125.6342

> <Gold.Chemscore.Internal_Hbond>
0.0000

> <Gold.Chemscore.DEClash>
0.2919

> <Gold.Chemscore.DEInternal>
1.7220

> <Gold.Chemscore.Rot>
2.2065

> <Gold.Chemscore.Internal.Correction>
   9.000000E+99

> <Gold.Chemscore.Hbonds>
donor molecule, donor type, donor heavy atom, donor atom, acceptor molecule, acceptor atom, score
      P1  H  7989  7998       L1     1  0.30
      P1  H  7997  8010       L1    14  0.05

> <Gold.Chemscore.Hbond.Weighted>
-3.2558

> <Gold.Chemscore.Metal.Weighted>
-0.0000

> <Gold.Chemscore.Lipo.Weighted>
-14.6992

> <Gold.Chemscore.Internal_Hbond.Weighted>
0.0000

> <Gold.Chemscore.DEClash.Weighted>
0.2919

> <Gold.Chemscore.DEInternal.Weighted>
1.7220

> <Gold.Chemscore.Rot.Weighted>
5.6485

> <Gold.Chemscore.Internal.Correction.Weighted>
   9.000000E+99

> <Gold.Protein.RotatedTorsions>
[ 6907 6896 6895 6894 ] final    5.51 input  -60.11 | X-H torsion
[ 7974 7965 7964 7962 ] final  -12.61 input  175.53 | X-H torsion
[ 8008 7997 7996 7995 ] final   22.70 input   59.86 | X-H torsion
[ 10167 10162 10161 10158 ] final  175.19 input  -65.29 | X-H torsion
[ 10718 10713 10712 10709 ] final  -13.46 input   66.30 | X-H torsion
[ 10763 10752 10751 10750 ] final   11.99 input  -60.55 | X-H torsion
[ 11005 11000 10999 10996 ] final   82.47 input  -57.11 | X-H torsion

> <Gold.Protein.ActiveResidues>
 VAL166  LYS551  ARG553  GLY616  TRP617  ASP618  TYR619  PRO620  LYS621  CYS622 
 ASP623  PHE694  ASN695  SER759  ASP760  ASP761  ALA762  ILE779  LEU786  VAL792 
 PHE793  MET794  SER795  GLU796  ALA797  LYS798  CYS799  TRP800  GLU811  SER814 

> <Gold.Protein.RotatedAtoms>
  151.6587  135.0992  160.0175 H   0  0  0  0  0  0  0  0  0  0  0  0  # atno 6907 bound_to 6896
  152.3959  133.6742  159.6284 H   0  0  0  0  0  0  0  0  0  0  0  0  # atno 6908 bound_to 6896
  150.7866  133.8792  159.3322 H   0  0  0  0  0  0  0  0  0  0  0  0  # atno 6909 bound_to 6896
  146.2145  140.3083  142.8380 H   0  0  0  0  0  0  0  0  0  0  0  0  # atno 7974 bound_to 7965
  154.9697  140.3088  155.4994 H   0  0  0  0  0  0  0  0  0  0  0  0  # atno 8008 bound_to 7997
  156.2967  140.2286  156.4727 H   0  0  0  0  0  0  0  0  0  0  0  0  # atno 8009 bound_to 7997
  154.7888  140.0441  157.1173 H   0  0  0  0  0  0  0  0  0  0  0  0  # atno 8010 bound_to 7997
  139.5168  144.3059  152.0336 H   0  0  0  0  0  0  0  0  0  0  0  0  # atno 10167 bound_to 10162
  156.6299  130.4898  149.6133 H   0  0  0  0  0  0  0  0  0  0  0  0  # atno 10718 bound_to 10713
  153.1869  135.6836  153.8403 H   0  0  0  0  0  0  0  0  0  0  0  0  # atno 10763 bound_to 10752
  153.7716  135.3195  155.3354 H   0  0  0  0  0  0  0  0  0  0  0  0  # atno 10764 bound_to 10752
  154.8094  135.4727  154.0573 H   0  0  0  0  0  0  0  0  0  0  0  0  # atno 10765 bound_to 10752
  139.9063  134.8073  156.2179 H   0  0  0  0  0  0  0  0  0  0  0  0  # atno 11005 bound_to 11000
  144.9007  140.7638  143.5869 LP  0  0  0  0  0  0  0  0  0  0  0  0  # atno 17320 bound_to 7965
  145.3009  139.1851  143.4690 LP  0  0  0  0  0  0  0  0  0  0  0  0  # atno 17321 bound_to 7965
  140.2505  144.4173  150.6223 LP  0  0  0  0  0  0  0  0  0  0  0  0  # atno 17342 bound_to 10162
  140.6227  143.2178  151.6660 LP  0  0  0  0  0  0  0  0  0  0  0  0  # atno 17343 bound_to 10162
  156.2243  130.6756  151.1400 LP  0  0  0  0  0  0  0  0  0  0  0  0  # atno 17370 bound_to 10713
  157.7203  131.0685  150.6162 LP  0  0  0  0  0  0  0  0  0  0  0  0  # atno 17371 bound_to 10713
  141.0424  133.6930  156.1622 LP  0  0  0  0  0  0  0  0  0  0  0  0  # atno 17394 bound_to 11000
  140.6935  134.4641  157.5588 LP  0  0  0  0  0  0  0  0  0  0  0  0  # atno 17395 bound_to 11000

$$$$
