AV-unprocessed.smi:2375|AV-procd|sdf|9442|dock2
  -GOLD-   2272013 73D 1   1.00000     0.00000
 Structure written by MMmdl.
 37 38  0  0  0  0  0  0  0  0  1 V2000
  145.4870  136.6469  152.1455 C   0  0  0  0  0  0  0  0  0  0  0  0
  146.1282  137.9500  152.4819 C   0  0  0  0  0  0  0  0  0  0  0  0
  146.5502  138.9281  151.6158 C   0  0  0  0  0  0  0  0  0  0  0  0
  147.1215  140.0339  152.2486 N   0  0  0  0  0  0  0  0  0  0  0  0
  147.1449  139.9061  153.5784 C   0  0  0  0  0  0  0  0  0  0  0  0
  147.7405  140.9236  154.5035 C   0  0  2  0  0  0  0  0  0  0  0  0
  147.1658  142.3270  154.2630 C   0  0  0  0  0  0  0  0  0  0  0  0
  149.2836  140.9010  154.5229 C   0  0  0  0  0  0  0  0  0  0  0  0
  149.8376  142.0259  155.2738 N   0  0  0  0  0  0  0  0  0  0  0  0
  150.8093  141.9505  156.2001 C   0  0  0  0  0  0  0  0  0  0  0  0
  151.4024  140.9114  156.4833 O   0  0  0  0  0  0  0  0  0  0  0  0
  151.0921  143.1147  156.8109 N   0  0  0  0  0  0  0  0  0  0  0  0
  152.0875  143.3650  157.8541 C   0  0  0  0  0  0  0  0  0  0  0  0
  151.8701  142.4525  159.0853 C   0  0  0  0  0  0  0  0  0  0  0  0
  152.0396  143.3853  160.2540 C   0  0  0  0  0  0  0  0  0  0  0  0
  152.1380  144.6586  159.8771 C   0  0  0  0  0  0  0  0  0  0  0  0
  152.0517  144.8216  158.3844 C   0  0  0  0  0  0  0  0  0  0  0  0
  146.4340  138.3970  154.1392 S   0  0  0  0  0  0  0  0  0  0  0  0
  145.3141  136.5592  151.0725 H   0  0  0  0  0  0  0  0  0  0  0  0
  144.5262  136.5465  152.6506 H   0  0  0  0  0  0  0  0  0  0  0  0
  146.1201  135.8147  152.4538 H   0  0  0  0  0  0  0  0  0  0  0  0
  146.4862  138.9193  150.5378 H   0  0  0  0  0  0  0  0  0  0  0  0
  147.4206  140.6366  155.5062 H   0  0  0  0  0  0  0  0  0  0  0  0
  146.0789  142.3262  154.3519 H   0  0  0  0  0  0  0  0  0  0  0  0
  147.4189  142.6930  153.2675 H   0  0  0  0  0  0  0  0  0  0  0  0
  147.5564  143.0407  154.9887 H   0  0  0  0  0  0  0  0  0  0  0  0
  149.6335  139.9522  154.9327 H   0  0  0  0  0  0  0  0  0  0  0  0
  149.6680  140.9496  153.5038 H   0  0  0  0  0  0  0  0  0  0  0  0
  149.4186  142.9293  155.1086 H   0  0  0  0  0  0  0  0  0  0  0  0
  150.5849  143.9254  156.4867 H   0  0  0  0  0  0  0  0  0  0  0  0
  153.0861  143.1572  157.4648 H   0  0  0  0  0  0  0  0  0  0  0  0
  150.8677  142.0230  159.1156 H   0  0  0  0  0  0  0  0  0  0  0  0
  152.5970  141.6405  159.1228 H   0  0  0  0  0  0  0  0  0  0  0  0
  152.0520  143.0343  161.2753 H   0  0  0  0  0  0  0  0  0  0  0  0
  152.2422  145.5012  160.5448 H   0  0  0  0  0  0  0  0  0  0  0  0
  152.8841  145.4141  158.0032 H   0  0  0  0  0  0  0  0  0  0  0  0
  151.1194  145.3313  158.1375 H   0  0  0  0  0  0  0  0  0  0  0  0
  1  2  1  0  0  0  0
  1 19  1  0  0  0  0
  1 20  1  0  0  0  0
  1 21  1  0  0  0  0
  2 18  1  0  0  0  0
  2  3  2  0  0  0  0
  3  4  1  0  0  0  0
  3 22  1  0  0  0  0
  4  5  2  0  0  0  0
  5  6  1  0  0  0  0
  5 18  1  0  0  0  0
  6  7  1  0  0  0  0
  6  8  1  0  0  0  0
  6 23  1  0  0  0  0
  7 24  1  0  0  0  0
  7 25  1  0  0  0  0
  7 26  1  0  0  0  0
  8  9  1  0  0  0  0
  8 27  1  0  0  0  0
  8 28  1  0  0  0  0
  9 10  1  0  0  0  0
  9 29  1  0  0  0  0
 10 11  2  0  0  0  0
 10 12  1  0  0  0  0
 12 13  1  0  0  0  0
 12 30  1  0  0  0  0
 13 17  1  0  0  0  0
 13 14  1  0  0  0  0
 13 31  1  0  0  0  0
 14 15  1  0  0  0  0
 14 32  1  0  0  0  0
 14 33  1  0  0  0  0
 15 16  2  0  0  0  0
 15 34  1  0  0  0  0
 16 17  1  0  0  0  0
 16 35  1  0  0  0  0
 17 36  1  0  0  0  0
 17 37  1  0  0  0  0
M  END
> <s_m_source_file>
AV-unprocessed.smi

> <i_m_source_file_index>
2375

> <i_lp_mmshare_version>
43012

> <i_f3d_flags>
0

> <s_epik_input>
W0NIM11jMVtjSF1uYyhzMSlbQ0BIXShbQ0gzXSlbQ0gyXVtOSF1DKD1PKVtOSF1bQ0hdMltDSDJdW0NIXT1bQ0hdW0NIMl0y

> <s_epik_cmdline>
J2VwaWtfcHl0aG9uJywgJy1waCcsICc3LjAnLCAnLXRuJywgJzgnLCAnLW1hJywgJzIwMCcsICctbWV0YWxfYmluZGluZycsICctaW1hZScsICc8aW5maWxlLm1hZT4nLCAnLW9tYWUnLCAnPG91dGZpbGUubWFlPic=

> <r_epik_Ionization_Penalty>
0.000644205

> <r_epik_Ionization_Penalty_Charging>
0

> <r_epik_Ionization_Penalty_Neutral>
0.000644205

> <r_epik_State_Penalty>
0.000370883

> <r_epik_Charging_Adjusted_Penalty>
0.000370883

> <i_epik_Tot_Q>
0

> <i_epik_Tot_abs_Q>
0

> <r_epik_Metal_State_Penalty>
-0

> <b_epik_Metal_Only>
0

> <s_lp_Force_Field>
OPLS_2005

> <r_lp_Energy>
17.1523

> <b_lp_Chiralities_Consistent>
1

> <s_lp_Variant>
AV-unprocessed.smi:2375-1

> <Gold.Version>
5.8.1

> <Gold.Id.Protein>
6NUR|6NUR_protein|mol2

> <Gold.PLP.Fitness>
47.1258

> <Gold.PLP.PLP>
-40.5355

> <Gold.PLP.part.hbond>
-2.0000

> <Gold.PLP.part.metal>
0.0000

> <Gold.PLP.part.buried>
-4.8903

> <Gold.PLP.part.nonpolar>
-36.9868

> <Gold.PLP.part.repulsive>
2.6383

> <Gold.PLP.ligand.clash>
0.0000

> <Gold.PLP.ligand.torsion>
0.4414

> <Gold.PLP.Chemscore.Hbond>
2.0000

> <Gold.PLP.Chemscore.CHOScore>
0.4513

> <Gold.PLP.Chemscore.Metal>
0.0000

> <Gold.Chemscore.Hbonds>
donor molecule, donor type, donor heavy atom, donor atom, acceptor molecule, acceptor atom, score
      L1  H     9    29       P1  8028  1.00
      L1  H    12    30       P1  8028  0.99
      L1  C     3    22       P1 10171  0.33

> <Gold.PLP.Chemscore.Internal.Correction>
0.1192

> <Gold.Rescore>
     Score         DG    S(hbond)    S(metal)    S(lipo)     H(rot)  DE(clash)    DE(int)     intcor
     19.35     -20.69       1.92        0.00     108.21       1.50       1.06       0.29       ----

> <Gold.Chemscore.Fitness>
19.3495

> <Gold.Chemscore.DG>
-20.6950

> <Gold.Chemscore.ZeroCoef>
-5.4800

> <Gold.Chemscore.Hbond>
1.9153

> <Gold.Chemscore.Metal>
0.0000

> <Gold.Chemscore.Lipo>
108.2111

> <Gold.Chemscore.Internal_Hbond>
0.0000

> <Gold.Chemscore.DEClash>
1.0552

> <Gold.Chemscore.DEInternal>
0.2903

> <Gold.Chemscore.Rot>
1.5012

> <Gold.Chemscore.Internal.Correction>
   9.000000E+99

> <Gold.Chemscore.Hbonds>
donor molecule, donor type, donor heavy atom, donor atom, acceptor molecule, acceptor atom, score
      L1  H     9    29       P1  8028  0.97
      L1  H    12    30       P1  8028  0.87

> <Gold.Chemscore.Hbond.Weighted>
-6.3972

> <Gold.Chemscore.Metal.Weighted>
-0.0000

> <Gold.Chemscore.Lipo.Weighted>
-12.6607

> <Gold.Chemscore.Internal_Hbond.Weighted>
0.0000

> <Gold.Chemscore.DEClash.Weighted>
1.0552

> <Gold.Chemscore.DEInternal.Weighted>
0.2903

> <Gold.Chemscore.Rot.Weighted>
3.8429

> <Gold.Chemscore.Internal.Correction.Weighted>
   9.000000E+99

> <Gold.Protein.RotatedTorsions>
[ 6907 6896 6895 6894 ] final  -52.86 input  -60.11 | X-H torsion
[ 7974 7965 7964 7962 ] final  112.75 input  175.53 | X-H torsion
[ 8008 7997 7996 7995 ] final  122.20 input   59.86 | X-H torsion
[ 10167 10162 10161 10158 ] final -176.71 input  -65.29 | X-H torsion
[ 10718 10713 10712 10709 ] final -123.49 input   66.30 | X-H torsion
[ 10763 10752 10751 10750 ] final   21.67 input  -60.55 | X-H torsion
[ 11005 11000 10999 10996 ] final  -21.87 input  -57.11 | X-H torsion

> <Gold.Protein.ActiveResidues>
 VAL166  LYS551  ARG553  GLY616  TRP617  ASP618  TYR619  PRO620  LYS621  CYS622 
 ASP623  PHE694  ASN695  SER759  ASP760  ASP761  ALA762  ILE779  LEU786  VAL792 
 PHE793  MET794  SER795  GLU796  ALA797  LYS798  CYS799  TRP800  GLU811  SER814 

> <Gold.Protein.RotatedAtoms>
  150.8479  134.7794  159.6984 H   0  0  0  0  0  0  0  0  0  0  0  0  # atno 6907 bound_to 6896
  152.4551  134.5305  159.9819 H   0  0  0  0  0  0  0  0  0  0  0  0  # atno 6908 bound_to 6896
  151.5432  133.3391  159.2975 H   0  0  0  0  0  0  0  0  0  0  0  0  # atno 6909 bound_to 6896
  145.2255  139.2842  143.4195 H   0  0  0  0  0  0  0  0  0  0  0  0  # atno 7974 bound_to 7965
  156.2718  140.2791  156.1429 H   0  0  0  0  0  0  0  0  0  0  0  0  # atno 8008 bound_to 7997
  155.0934  140.0389  157.2693 H   0  0  0  0  0  0  0  0  0  0  0  0  # atno 8009 bound_to 7997
  154.6871  140.2621  155.6855 H   0  0  0  0  0  0  0  0  0  0  0  0  # atno 8010 bound_to 7997
  139.5516  144.2095  152.1086 H   0  0  0  0  0  0  0  0  0  0  0  0  # atno 10167 bound_to 10162
  156.1507  130.6532  150.9909 H   0  0  0  0  0  0  0  0  0  0  0  0  # atno 10718 bound_to 10713
  153.0977  135.6664  153.9732 H   0  0  0  0  0  0  0  0  0  0  0  0  # atno 10763 bound_to 10752
  153.9312  135.3004  155.3447 H   0  0  0  0  0  0  0  0  0  0  0  0  # atno 10764 bound_to 10752
  154.7396  135.5085  153.9175 H   0  0  0  0  0  0  0  0  0  0  0  0  # atno 10765 bound_to 10752
  140.8603  133.7793  156.0067 H   0  0  0  0  0  0  0  0  0  0  0  0  # atno 11005 bound_to 11000
  146.3365  140.2575  142.8600 LP  0  0  0  0  0  0  0  0  0  0  0  0  # atno 17320 bound_to 7965
  144.9725  140.8382  143.5447 LP  0  0  0  0  0  0  0  0  0  0  0  0  # atno 17321 bound_to 7965
  140.1592  144.5042  150.6642 LP  0  0  0  0  0  0  0  0  0  0  0  0  # atno 17342 bound_to 10162
  140.6780  143.2313  151.5459 LP  0  0  0  0  0  0  0  0  0  0  0  0  # atno 17343 bound_to 10162
  157.6654  131.0872  150.7740 LP  0  0  0  0  0  0  0  0  0  0  0  0  # atno 17370 bound_to 10713
  156.7808  130.4859  149.5401 LP  0  0  0  0  0  0  0  0  0  0  0  0  # atno 17371 bound_to 10713
  140.8690  134.2749  157.5199 LP  0  0  0  0  0  0  0  0  0  0  0  0  # atno 17394 bound_to 11000
  139.8707  134.9558  156.4216 LP  0  0  0  0  0  0  0  0  0  0  0  0  # atno 17395 bound_to 11000

$$$$
