AV-unprocessed.smi:654|AV-procd|sdf|3212|dock2
  -GOLD-   22720 0153D 1   1.00000     0.00000
 Structure written by MMmdl.
 47 49  0  0  0  0  0  0  0  0  1 V2000
  150.9759  136.9111  159.1102 O   0  0  0  0  0  0  0  0  0  0  0  0
  149.9943  137.4316  158.5785 C   0  0  0  0  0  0  0  0  0  0  0  0
  150.0086  138.7045  158.1493 N   0  0  0  0  0  0  0  0  0  0  0  0
  151.1679  139.5904  158.1719 C   0  0  0  0  0  0  0  0  0  0  0  0
  150.9464  140.8665  157.3367 C   0  0  0  0  0  0  0  0  0  0  0  0
  151.4845  142.1208  158.0045 C   0  0  0  0  0  0  0  0  0  0  0  0
  152.2638  142.0375  159.1763 C   0  0  0  0  0  0  0  0  0  0  0  0
  152.7249  143.2282  159.7702 C   0  0  0  0  0  0  0  0  0  0  0  0
  152.3870  144.4548  159.1637 C   0  0  0  0  0  0  0  0  0  0  0  0
  151.6422  144.5468  158.0410 N   0  0  0  0  0  0  0  0  0  0  0  0
  151.2053  143.4003  157.4774 C   0  0  0  0  0  0  0  0  0  0  0  0
  148.8162  136.7829  158.3924 N   0  0  0  0  0  0  0  0  0  0  0  0
  147.6328  137.3149  157.6992 C   0  0  0  0  0  0  0  0  0  0  0  0
  146.5778  137.7013  158.7434 C   0  0  0  0  0  0  0  0  0  0  0  0
  146.0298  136.2407  159.6797 S   0  0  0  0  0  0  0  0  0  0  0  0
  147.6309  135.5021  160.1849 C   0  0  0  0  0  0  0  0  0  0  0  0
  148.2728  136.3233  161.3363 C   0  0  0  0  0  0  0  0  0  0  0  0
  147.4877  136.2416  162.6575 C   0  0  0  0  0  0  0  0  0  0  0  0
  147.2872  134.7865  163.1000 C   0  0  0  0  0  0  0  0  0  0  0  0
  146.6038  133.9697  161.9960 C   0  0  0  0  0  0  0  0  0  0  0  0
  147.3904  134.0518  160.6749 C   0  0  0  0  0  0  0  0  0  0  0  0
  148.5643  135.4440  158.9449 C   0  0  0  0  0  0  0  0  0  0  0  0
  149.1642  139.0713  157.7352 H   0  0  0  0  0  0  0  0  0  0  0  0
  151.3463  139.8636  159.2122 H   0  0  0  0  0  0  0  0  0  0  0  0
  152.0611  139.0620  157.8353 H   0  0  0  0  0  0  0  0  0  0  0  0
  151.4171  140.7538  156.3596 H   0  0  0  0  0  0  0  0  0  0  0  0
  149.8809  140.9984  157.1435 H   0  0  0  0  0  0  0  0  0  0  0  0
  152.4999  141.0795  159.6160 H   0  0  0  0  0  0  0  0  0  0  0  0
  153.3221  143.2027  160.6696 H   0  0  0  0  0  0  0  0  0  0  0  0
  152.7235  145.3872  159.5926 H   0  0  0  0  0  0  0  0  0  0  0  0
  150.6057  143.5087  156.5854 H   0  0  0  0  0  0  0  0  0  0  0  0
  147.8530  138.1695  157.0592 H   0  0  0  0  0  0  0  0  0  0  0  0
  147.2280  136.5599  157.0238 H   0  0  0  0  0  0  0  0  0  0  0  0
  146.9743  138.4475  159.4324 H   0  0  0  0  0  0  0  0  0  0  0  0
  145.7097  138.1474  158.2580 H   0  0  0  0  0  0  0  0  0  0  0  0
  149.2859  135.9594  161.5132 H   0  0  0  0  0  0  0  0  0  0  0  0
  148.3787  137.3706  161.0552 H   0  0  0  0  0  0  0  0  0  0  0  0
  148.0185  136.7926  163.4341 H   0  0  0  0  0  0  0  0  0  0  0  0
  146.5185  136.7290  162.5469 H   0  0  0  0  0  0  0  0  0  0  0  0
  148.2529  134.3405  163.3415 H   0  0  0  0  0  0  0  0  0  0  0  0
  146.6922  134.7522  164.0131 H   0  0  0  0  0  0  0  0  0  0  0  0
  146.5173  132.9287  162.3084 H   0  0  0  0  0  0  0  0  0  0  0  0
  145.5844  134.3283  161.8503 H   0  0  0  0  0  0  0  0  0  0  0  0
  146.8697  133.4790  159.9067 H   0  0  0  0  0  0  0  0  0  0  0  0
  148.3512  133.5547  160.8182 H   0  0  0  0  0  0  0  0  0  0  0  0
  148.1168  134.8166  158.1723 H   0  0  0  0  0  0  0  0  0  0  0  0
  149.4951  134.9375  159.2051 H   0  0  0  0  0  0  0  0  0  0  0  0
  1  2  2  0  0  0  0
  2  3  1  0  0  0  0
  2 12  1  0  0  0  0
  3  4  1  0  0  0  0
  3 23  1  0  0  0  0
  4  5  1  0  0  0  0
  4 24  1  0  0  0  0
  4 25  1  0  0  0  0
  5  6  1  0  0  0  0
  5 26  1  0  0  0  0
  5 27  1  0  0  0  0
  6 11  1  0  0  0  0
  6  7  2  0  0  0  0
  7  8  1  0  0  0  0
  7 28  1  0  0  0  0
  8  9  2  0  0  0  0
  8 29  1  0  0  0  0
  9 10  1  0  0  0  0
  9 30  1  0  0  0  0
 10 11  2  0  0  0  0
 11 31  1  0  0  0  0
 12 22  1  0  0  0  0
 12 13  1  0  0  0  0
 13 14  1  0  0  0  0
 13 32  1  0  0  0  0
 13 33  1  0  0  0  0
 14 15  1  0  0  0  0
 14 34  1  0  0  0  0
 14 35  1  0  0  0  0
 15 16  1  0  0  0  0
 16 21  1  0  0  0  0
 16 17  1  0  0  0  0
 16 22  1  0  0  0  0
 17 18  1  0  0  0  0
 17 36  1  0  0  0  0
 17 37  1  0  0  0  0
 18 19  1  0  0  0  0
 18 38  1  0  0  0  0
 18 39  1  0  0  0  0
 19 20  1  0  0  0  0
 19 40  1  0  0  0  0
 19 41  1  0  0  0  0
 20 21  1  0  0  0  0
 20 42  1  0  0  0  0
 20 43  1  0  0  0  0
 21 44  1  0  0  0  0
 21 45  1  0  0  0  0
 22 46  1  0  0  0  0
 22 47  1  0  0  0  0
M  END
> <s_m_source_file>
AV-unprocessed.smi

> <i_m_source_file_index>
654

> <i_lp_mmshare_version>
43012

> <i_f3d_flags>
0

> <s_epik_input>
W2NIXTFuW2NIXVtjSF1bY0hdYzFbQ0gyXVtDSDJdW05IXUMoPU8pTihbQ0gyXTIpW0NIMl1bQ0gyXVNDMjNbQ0gyXVtDSDJdW0NIMl1bQ0gyXVtDSDJdMw==

> <s_epik_cmdline>
J2VwaWtfcHl0aG9uJywgJy1waCcsICc3LjAnLCAnLXRuJywgJzgnLCAnLW1hJywgJzIwMCcsICctbWV0YWxfYmluZGluZycsICctaW1hZScsICc8aW5maWxlLm1hZT4nLCAnLW9tYWUnLCAnPG91dGZpbGUubWFlPic=

> <r_epik_Ionization_Penalty>
0.0144586

> <r_epik_Ionization_Penalty_Charging>
0

> <r_epik_Ionization_Penalty_Neutral>
0.0144586

> <r_epik_State_Penalty>
0.0112665

> <r_epik_Charging_Adjusted_Penalty>
0.0112665

> <i_epik_Tot_Q>
0

> <i_epik_Tot_abs_Q>
0

> <r_epik_Metal_State_Penalty>
0.0109983

> <b_epik_Metal_Only>
0

> <s_lp_Force_Field>
OPLS_2005

> <r_lp_Energy>
31.4252

> <b_lp_Chiralities_Consistent>
1

> <s_lp_Variant>
AV-unprocessed.smi:654-1

> <Gold.Version>
5.8.1

> <Gold.Id.Protein>
6NUR|6NUR_protein|mol2

> <Gold.PLP.Fitness>
47.6503

> <Gold.PLP.PLP>
-42.5224

> <Gold.PLP.part.hbond>
-1.0000

> <Gold.PLP.part.metal>
0.0000

> <Gold.PLP.part.buried>
-5.1689

> <Gold.PLP.part.nonpolar>
-37.2838

> <Gold.PLP.part.repulsive>
0.2347

> <Gold.PLP.ligand.clash>
0.0000

> <Gold.PLP.ligand.torsion>
0.4491

> <Gold.PLP.Chemscore.Hbond>
1.0000

> <Gold.PLP.Chemscore.CHOScore>
1.0000

> <Gold.PLP.Chemscore.Metal>
0.0000

> <Gold.Chemscore.Hbonds>
donor molecule, donor type, donor heavy atom, donor atom, acceptor molecule, acceptor atom, score
      P1  H  6896  6907       L1     1  1.00
      L1  C    11    31       P1  8028  1.00

> <Gold.PLP.Chemscore.Internal.Correction>
0.0262

> <Gold.Rescore>
     Score         DG    S(hbond)    S(metal)    S(lipo)     H(rot)  DE(clash)    DE(int)     intcor
     19.29     -20.04       1.00        0.00     122.77       1.23       0.19       0.56       ----

> <Gold.Chemscore.Fitness>
19.2899

> <Gold.Chemscore.DG>
-20.0353

> <Gold.Chemscore.ZeroCoef>
-5.4800

> <Gold.Chemscore.Hbond>
0.9981

> <Gold.Chemscore.Metal>
0.0000

> <Gold.Chemscore.Lipo>
122.7736

> <Gold.Chemscore.Internal_Hbond>
0.0000

> <Gold.Chemscore.DEClash>
0.1889

> <Gold.Chemscore.DEInternal>
0.5565

> <Gold.Chemscore.Rot>
1.2276

> <Gold.Chemscore.Internal.Correction>
   9.000000E+99

> <Gold.Chemscore.Hbonds>
donor molecule, donor type, donor heavy atom, donor atom, acceptor molecule, acceptor atom, score
      P1  H  6896  6907       L1     1  0.98

> <Gold.Chemscore.Hbond.Weighted>
-3.3336

> <Gold.Chemscore.Metal.Weighted>
-0.0000

> <Gold.Chemscore.Lipo.Weighted>
-14.3645

> <Gold.Chemscore.Internal_Hbond.Weighted>
0.0000

> <Gold.Chemscore.DEClash.Weighted>
0.1889

> <Gold.Chemscore.DEInternal.Weighted>
0.5565

> <Gold.Chemscore.Rot.Weighted>
3.1427

> <Gold.Chemscore.Internal.Correction.Weighted>
   9.000000E+99

> <Gold.Protein.RotatedTorsions>
[ 6907 6896 6895 6894 ] final  -19.85 input  -60.11 | X-H torsion
[ 7974 7965 7964 7962 ] final   53.15 input  175.53 | X-H torsion
[ 8008 7997 7996 7995 ] final  -15.71 input   59.86 | X-H torsion
[ 10167 10162 10161 10158 ] final  179.95 input  -65.29 | X-H torsion
[ 10718 10713 10712 10709 ] final   69.31 input   66.30 | X-H torsion
[ 10763 10752 10751 10750 ] final -149.71 input  -60.55 | X-H torsion
[ 11005 11000 10999 10996 ] final  166.36 input  -57.11 | X-H torsion

> <Gold.Protein.ActiveResidues>
 VAL166  LYS551  ARG553  GLY616  TRP617  ASP618  TYR619  PRO620  LYS621  CYS622 
 ASP623  PHE694  ASN695  SER759  ASP760  ASP761  ALA762  ILE779  LEU786  VAL792 
 PHE793  MET794  SER795  GLU796  ALA797  LYS798  CYS799  TRP800  GLU811  SER814 

> <Gold.Protein.RotatedAtoms>
  151.2569  135.0641  159.9083 H   0  0  0  0  0  0  0  0  0  0  0  0  # atno 6907 bound_to 6896
  152.5372  134.0272  159.8019 H   0  0  0  0  0  0  0  0  0  0  0  0  # atno 6908 bound_to 6896
  151.0489  133.5592  159.2675 H   0  0  0  0  0  0  0  0  0  0  0  0  # atno 6909 bound_to 6896
  145.9741  139.4178  143.0172 H   0  0  0  0  0  0  0  0  0  0  0  0  # atno 7974 bound_to 7965
  154.5109  140.2189  155.9158 H   0  0  0  0  0  0  0  0  0  0  0  0  # atno 8008 bound_to 7997
  156.1551  140.3153  155.8679 H   0  0  0  0  0  0  0  0  0  0  0  0  # atno 8009 bound_to 7997
  155.3862  140.0475  157.3033 H   0  0  0  0  0  0  0  0  0  0  0  0  # atno 8010 bound_to 7997
  139.5359  144.2500  152.0792 H   0  0  0  0  0  0  0  0  0  0  0  0  # atno 10167 bound_to 10162
  157.6338  130.9419  150.0496 H   0  0  0  0  0  0  0  0  0  0  0  0  # atno 10718 bound_to 10713
  154.8162  135.3302  154.7170 H   0  0  0  0  0  0  0  0  0  0  0  0  # atno 10763 bound_to 10752
  153.7810  135.6918  153.4893 H   0  0  0  0  0  0  0  0  0  0  0  0  # atno 10764 bound_to 10752
  153.1980  135.4526  155.0179 H   0  0  0  0  0  0  0  0  0  0  0  0  # atno 10765 bound_to 10752
  140.2656  134.7868  157.3629 H   0  0  0  0  0  0  0  0  0  0  0  0  # atno 11005 bound_to 11000
  145.7863  140.9834  143.1072 LP  0  0  0  0  0  0  0  0  0  0  0  0  # atno 17320 bound_to 7965
  144.6844  139.9627  143.7480 LP  0  0  0  0  0  0  0  0  0  0  0  0  # atno 17321 bound_to 7965
  140.1970  144.4695  150.6450 LP  0  0  0  0  0  0  0  0  0  0  0  0  # atno 17342 bound_to 10162
  140.6565  143.2239  151.5957 LP  0  0  0  0  0  0  0  0  0  0  0  0  # atno 17343 bound_to 10162
  156.1562  130.3643  149.9365 LP  0  0  0  0  0  0  0  0  0  0  0  0  # atno 17370 bound_to 10713
  156.7374  130.9066  151.3630 LP  0  0  0  0  0  0  0  0  0  0  0  0  # atno 17371 bound_to 10713
  140.1423  134.4956  155.8022 LP  0  0  0  0  0  0  0  0  0  0  0  0  # atno 17394 bound_to 11000
  141.2184  133.6830  156.7231 LP  0  0  0  0  0  0  0  0  0  0  0  0  # atno 17395 bound_to 11000

$$$$
