AV-unprocessed.smi:1055|AV-procd|sdf|4628|dock3
  -GOLD-   22720 3133D 1   1.00000     0.00000
 Structure written by MMmdl.
 51 52  0  0  0  0  0  0  0  0  2 V2000
  152.7958  143.3477  162.3994 C   0  0  0  0  0  0  0  0  0  0  0  0
  152.7123  143.0312  161.0967 C   0  0  0  0  0  0  0  0  0  0  0  0
  151.8346  143.8099  160.1348 C   0  0  0  0  0  0  0  0  0  0  0  0
  153.5117  141.8842  160.4952 C   0  0  0  0  0  0  0  0  0  0  0  0
  152.6812  140.8723  159.8415 N   0  0  0  0  0  0  0  0  0  0  0  0
  153.3684  139.5778  159.7675 C   0  0  0  0  0  0  0  0  0  0  0  0
  152.4513  138.5178  159.1335 C   0  0  0  0  0  0  0  0  0  0  0  0
  151.9953  138.9476  157.7289 C   0  0  0  0  0  0  0  0  0  0  0  0
  151.0203  138.0064  157.1856 N   0  0  0  0  0  0  0  0  0  0  0  0
  151.3040  136.7732  156.7429 C   0  0  0  0  0  0  0  0  0  0  0  0
  152.4396  136.2986  156.7377 O   0  0  0  0  0  0  0  0  0  0  0  0
  150.1993  136.1477  156.3005 N   0  0  0  0  0  0  0  0  0  0  0  0
  150.0751  134.8261  155.7923 C   0  0  0  0  0  0  0  0  0  0  0  0
  151.0965  133.9028  156.0985 C   0  0  0  0  0  0  0  0  0  0  0  0
  151.0234  132.5845  155.6032 C   0  0  0  0  0  0  0  0  0  0  0  0
  149.9286  132.1958  154.7924 C   0  0  0  0  0  0  0  0  0  0  0  0
  149.7841  130.8971  154.2582 N   0  0  0  0  0  0  0  0  0  0  0  0
  148.6115  130.5678  153.4584 C   0  0  0  0  0  0  0  0  0  0  0  0
  150.8011  129.8860  154.5257 C   0  0  0  0  0  0  0  0  0  0  0  0
  148.9786  133.1221  154.5154 N   0  3  0  0  0  0  0  0  0  0  0  0
  149.0081  134.3934  154.9694 C   0  0  0  0  0  0  0  0  0  0  0  0
  151.3805  140.3521  157.8105 C   0  0  0  0  0  0  0  0  0  0  0  0
  152.3451  141.3366  158.4941 C   0  0  0  0  0  0  0  0  0  0  0  0
  152.2303  144.1690  162.8145 H   0  0  0  0  0  0  0  0  0  0  0  0
  153.4309  142.7893  163.0714 H   0  0  0  0  0  0  0  0  0  0  0  0
  152.4375  144.2283  159.3287 H   0  0  0  0  0  0  0  0  0  0  0  0
  151.3238  144.6315  160.6383 H   0  0  0  0  0  0  0  0  0  0  0  0
  151.0764  143.1613  159.6954 H   0  0  0  0  0  0  0  0  0  0  0  0
  154.2029  142.3087  159.7658 H   0  0  0  0  0  0  0  0  0  0  0  0
  154.1198  141.4153  161.2709 H   0  0  0  0  0  0  0  0  0  0  0  0
  154.2894  139.6758  159.1908 H   0  0  0  0  0  0  0  0  0  0  0  0
  153.6516  139.2393  160.7642 H   0  0  0  0  0  0  0  0  0  0  0  0
  152.9773  137.5639  159.0840 H   0  0  0  0  0  0  0  0  0  0  0  0
  151.5840  138.3595  159.7766 H   0  0  0  0  0  0  0  0  0  0  0  0
  152.8637  138.9912  157.0685 H   0  0  0  0  0  0  0  0  0  0  0  0
  150.0606  138.3178  157.1518 H   0  0  0  0  0  0  0  0  0  0  0  0
  149.3519  136.6965  156.2954 H   0  0  0  0  0  0  0  0  0  0  0  0
  151.9334  134.1979  156.7145 H   0  0  0  0  0  0  0  0  0  0  0  0
  151.8133  131.8923  155.8538 H   0  0  0  0  0  0  0  0  0  0  0  0
  147.7022  130.6826  154.0490 H   0  0  0  0  0  0  0  0  0  0  0  0
  148.6501  129.5380  153.1029 H   0  0  0  0  0  0  0  0  0  0  0  0
  148.5470  131.2181  152.5855 H   0  0  0  0  0  0  0  0  0  0  0  0
  150.9038  129.7195  155.5985 H   0  0  0  0  0  0  0  0  0  0  0  0
  151.7670  130.2002  154.1290 H   0  0  0  0  0  0  0  0  0  0  0  0
  150.5450  128.9323  154.0639 H   0  0  0  0  0  0  0  0  0  0  0  0
  148.1834  135.0085  154.6426 H   0  0  0  0  0  0  0  0  0  0  0  0
  151.1356  140.7120  156.8105 H   0  0  0  0  0  0  0  0  0  0  0  0
  150.4424  140.3201  158.3670 H   0  0  0  0  0  0  0  0  0  0  0  0
  151.8728  142.3179  158.5529 H   0  0  0  0  0  0  0  0  0  0  0  0
  153.2524  141.4533  157.8989 H   0  0  0  0  0  0  0  0  0  0  0  0
  148.1940  132.8445  153.9255 H   0  0  0  0  0  0  0  0  0  0  0  0
  1  2  2  0  0  0  0
  1 24  1  0  0  0  0
  1 25  1  0  0  0  0
  2  3  1  0  0  0  0
  2  4  1  0  0  0  0
  3 26  1  0  0  0  0
  3 27  1  0  0  0  0
  3 28  1  0  0  0  0
  4  5  1  0  0  0  0
  4 29  1  0  0  0  0
  4 30  1  0  0  0  0
  5 23  1  0  0  0  0
  5  6  1  0  0  0  0
  6  7  1  0  0  0  0
  6 31  1  0  0  0  0
  6 32  1  0  0  0  0
  7  8  1  0  0  0  0
  7 33  1  0  0  0  0
  7 34  1  0  0  0  0
  8  9  1  0  0  0  0
  8 22  1  0  0  0  0
  8 35  1  0  0  0  0
  9 10  1  0  0  0  0
  9 36  1  0  0  0  0
 10 11  2  0  0  0  0
 10 12  1  0  0  0  0
 12 13  1  0  0  0  0
 12 37  1  0  0  0  0
 13 21  1  0  0  0  0
 13 14  2  0  0  0  0
 14 15  1  0  0  0  0
 14 38  1  0  0  0  0
 15 16  2  0  0  0  0
 15 39  1  0  0  0  0
 16 17  1  0  0  0  0
 16 20  1  0  0  0  0
 17 18  1  0  0  0  0
 17 19  1  0  0  0  0
 18 40  1  0  0  0  0
 18 41  1  0  0  0  0
 18 42  1  0  0  0  0
 19 43  1  0  0  0  0
 19 44  1  0  0  0  0
 19 45  1  0  0  0  0
 20 21  2  0  0  0  0
 20 51  1  0  0  0  0
 21 46  1  0  0  0  0
 22 23  1  0  0  0  0
 22 47  1  0  0  0  0
 22 48  1  0  0  0  0
 23 49  1  0  0  0  0
 23 50  1  0  0  0  0
M  CHG  1  20   1
M  END
> <s_m_source_file>
AV-unprocessed.smi

> <i_m_source_file_index>
1055

> <i_lp_mmshare_version>
43012

> <i_f3d_flags>
0

> <s_epik_input>
W0NIMl09QyhbQ0gzXSlbQ0gyXU4xW0NIMl1bQ0gyXVtDSF0oW0NIMl1bQ0gyXTEpW05IXUMoPU8pW05IXWMyW2NIXVtjSF1jKE4oW0NIM10pW0NIM10pbltjSF0y

> <s_epik_cmdline>
J2VwaWtfcHl0aG9uJywgJy1waCcsICc3LjAnLCAnLXRuJywgJzgnLCAnLW1hJywgJzIwMCcsICctbWV0YWxfYmluZGluZycsICctaW1hZScsICc8aW5maWxlLm1hZT4nLCAnLW9tYWUnLCAnPG91dGZpbGUubWFlPic=

> <r_epik_Ionization_Penalty>
2.2313

> <r_epik_Ionization_Penalty_Charging>
0.252156

> <r_epik_Ionization_Penalty_Neutral>
1.97915

> <r_epik_State_Penalty>
2.37644

> <r_epik_Charging_Adjusted_Penalty>
2.62859

> <i_epik_Tot_Q>
1

> <i_epik_Tot_abs_Q>
1

> <r_epik_Metal_State_Penalty>
2.63815

> <b_epik_Metal_Only>
0

> <s_lp_Force_Field>
OPLS_2005

> <r_lp_Energy>
24.1414

> <b_lp_Chiralities_Consistent>
1

> <s_lp_Variant>
AV-unprocessed.smi:1055-5

> <Gold.Version>
5.8.1

> <Gold.Id.Protein>
6NUR|6NUR_protein|mol2

> <Gold.PLP.Fitness>
43.8302

> <Gold.PLP.PLP>
-41.7645

> <Gold.PLP.part.hbond>
-1.0000

> <Gold.PLP.part.metal>
0.0000

> <Gold.PLP.part.buried>
-5.8039

> <Gold.PLP.part.nonpolar>
-33.2043

> <Gold.PLP.part.repulsive>
0.0911

> <Gold.PLP.ligand.clash>
0.0000

> <Gold.PLP.ligand.torsion>
0.4834

> <Gold.PLP.Chemscore.Hbond>
1.0000

> <Gold.PLP.Chemscore.CHOScore>
0.0000

> <Gold.PLP.Chemscore.Metal>
0.0000

> <Gold.Chemscore.Hbonds>
donor molecule, donor type, donor heavy atom, donor atom, acceptor molecule, acceptor atom, score
      P1  H 10752 10764       L1    11  1.00

> <Gold.PLP.Chemscore.Internal.Correction>
0.0324

> <Gold.Rescore>
     Score         DG    S(hbond)    S(metal)    S(lipo)     H(rot)  DE(clash)    DE(int)     intcor
     15.78     -17.76       0.99        0.00     105.72       1.32       0.03       1.95       ----

> <Gold.Chemscore.Fitness>
15.7811

> <Gold.Chemscore.DG>
-17.7644

> <Gold.Chemscore.ZeroCoef>
-5.4800

> <Gold.Chemscore.Hbond>
0.9888

> <Gold.Chemscore.Metal>
0.0000

> <Gold.Chemscore.Lipo>
105.7157

> <Gold.Chemscore.Internal_Hbond>
0.0000

> <Gold.Chemscore.DEClash>
0.0300

> <Gold.Chemscore.DEInternal>
1.9532

> <Gold.Chemscore.Rot>
1.3231

> <Gold.Chemscore.Internal.Correction>
   9.000000E+99

> <Gold.Chemscore.Hbonds>
donor molecule, donor type, donor heavy atom, donor atom, acceptor molecule, acceptor atom, score
      P1  H 10752 10764       L1    11  0.98

> <Gold.Chemscore.Hbond.Weighted>
-3.3027

> <Gold.Chemscore.Metal.Weighted>
-0.0000

> <Gold.Chemscore.Lipo.Weighted>
-12.3687

> <Gold.Chemscore.Internal_Hbond.Weighted>
0.0000

> <Gold.Chemscore.DEClash.Weighted>
0.0300

> <Gold.Chemscore.DEInternal.Weighted>
1.9532

> <Gold.Chemscore.Rot.Weighted>
3.3871

> <Gold.Chemscore.Internal.Correction.Weighted>
   9.000000E+99

> <Gold.Protein.RotatedTorsions>
[ 6907 6896 6895 6894 ] final -130.26 input  -60.11 | X-H torsion
[ 7974 7965 7964 7962 ] final   15.72 input  175.53 | X-H torsion
[ 8008 7997 7996 7995 ] final  -91.28 input   59.86 | X-H torsion
[ 10167 10162 10161 10158 ] final   62.42 input  -65.29 | X-H torsion
[ 10718 10713 10712 10709 ] final -152.33 input   66.30 | X-H torsion
[ 10763 10752 10751 10750 ] final  -16.85 input  -60.55 | X-H torsion
[ 11005 11000 10999 10996 ] final -104.14 input  -57.11 | X-H torsion

> <Gold.Protein.ActiveResidues>
 VAL166  LYS551  ARG553  GLY616  TRP617  ASP618  TYR619  PRO620  LYS621  CYS622 
 ASP623  PHE694  ASN695  SER759  ASP760  ASP761  ALA762  ILE779  LEU786  VAL792 
 PHE793  MET794  SER795  GLU796  ALA797  LYS798  CYS799  TRP800  GLU811  SER814 

> <Gold.Protein.RotatedAtoms>
  150.9378  133.6691  159.2796 H   0  0  0  0  0  0  0  0  0  0  0  0  # atno 6907 bound_to 6896
  151.4091  135.0981  159.9589 H   0  0  0  0  0  0  0  0  0  0  0  0  # atno 6908 bound_to 6896
  152.5055  133.8855  159.7422 H   0  0  0  0  0  0  0  0  0  0  0  0  # atno 6909 bound_to 6896
  146.2270  139.8853  142.8564 H   0  0  0  0  0  0  0  0  0  0  0  0  # atno 7974 bound_to 7965
  154.7088  140.0521  157.0530 H   0  0  0  0  0  0  0  0  0  0  0  0  # atno 8008 bound_to 7997
  155.0583  140.3186  155.4650 H   0  0  0  0  0  0  0  0  0  0  0  0  # atno 8009 bound_to 7997
  156.2783  140.2103  156.5709 H   0  0  0  0  0  0  0  0  0  0  0  0  # atno 8010 bound_to 7997
  140.1441  144.4526  150.6795 H   0  0  0  0  0  0  0  0  0  0  0  0  # atno 10167 bound_to 10162
  156.4711  130.8259  151.2488 H   0  0  0  0  0  0  0  0  0  0  0  0  # atno 10718 bound_to 10713
  153.5648  135.7009  153.5531 H   0  0  0  0  0  0  0  0  0  0  0  0  # atno 10763 bound_to 10752
  153.3397  135.4024  155.1561 H   0  0  0  0  0  0  0  0  0  0  0  0  # atno 10764 bound_to 10752
  154.8642  135.3739  154.5167 H   0  0  0  0  0  0  0  0  0  0  0  0  # atno 10765 bound_to 10752
  141.1114  133.8698  157.1574 H   0  0  0  0  0  0  0  0  0  0  0  0  # atno 11005 bound_to 11000
  145.2472  141.0031  143.3902 LP  0  0  0  0  0  0  0  0  0  0  0  0  # atno 17320 bound_to 7965
  144.9404  139.4195  143.6451 LP  0  0  0  0  0  0  0  0  0  0  0  0  # atno 17321 bound_to 7965
  140.6743  143.2298  151.5548 LP  0  0  0  0  0  0  0  0  0  0  0  0  # atno 17342 bound_to 10162
  139.5458  144.2526  152.1438 LP  0  0  0  0  0  0  0  0  0  0  0  0  # atno 17343 bound_to 10162
  157.7491  131.0076  150.3196 LP  0  0  0  0  0  0  0  0  0  0  0  0  # atno 17370 bound_to 10713
  156.3617  130.3848  149.7245 LP  0  0  0  0  0  0  0  0  0  0  0  0  # atno 17371 bound_to 10713
  140.0010  135.0028  157.0190 LP  0  0  0  0  0  0  0  0  0  0  0  0  # atno 17394 bound_to 11000
  140.4765  134.1333  155.7210 LP  0  0  0  0  0  0  0  0  0  0  0  0  # atno 17395 bound_to 11000

$$$$
