AV-unprocessed.smi:1767|AV-procd|sdf|7141|dock9
  -GOLD-   22720 8383D 1   1.00000     0.00000
 Structure written by MMmdl.
 33 35  0  0  0  0  0  0  0  0  2 V2000
  151.0599  143.8420  161.8618 O   0  0  0  0  0  0  0  0  0  0  0  0
  152.4622  143.9006  161.7010 C   0  0  2  0  0  0  0  0  0  0  0  0
  152.8577  142.9267  160.5723 C   0  0  0  0  0  0  0  0  0  0  0  0
  152.0098  143.0730  159.3803 N   0  0  0  0  0  0  0  0  0  0  0  0
  151.6526  144.1992  158.7054 C   0  0  0  0  0  0  0  0  0  0  0  0
  150.8719  143.8207  157.6559 N   0  3  0  0  0  0  0  0  0  0  0  0
  150.7258  142.4321  157.6603 C   0  0  0  0  0  0  0  0  0  0  0  0
  150.0335  141.5876  156.7978 C   0  0  0  0  0  0  0  0  0  0  0  0
  150.0892  140.2075  157.0829 C   0  0  0  0  0  0  0  0  0  0  0  0
  150.8103  139.7149  158.1897 C   0  0  0  0  0  0  0  0  0  0  0  0
  151.5059  140.5806  159.0587 C   0  0  0  0  0  0  0  0  0  0  0  0
  151.4496  141.9441  158.7690 C   0  0  0  0  0  0  0  0  0  0  0  0
  153.2062  143.6211  163.0002 C   0  0  0  0  0  0  0  0  0  0  0  0
  153.8815  144.6694  163.6618 C   0  0  0  0  0  0  0  0  0  0  0  0
  154.6003  144.4163  164.8460 C   0  0  0  0  0  0  0  0  0  0  0  0
  154.6463  143.1134  165.3775 C   0  0  0  0  0  0  0  0  0  0  0  0
  155.3416  142.8695  166.5133 F   0  0  0  0  0  0  0  0  0  0  0  0
  153.9713  142.0640  164.7252 C   0  0  0  0  0  0  0  0  0  0  0  0
  153.2536  142.3162  163.5399 C   0  0  0  0  0  0  0  0  0  0  0  0
  150.7114  144.7169  161.7804 H   0  0  0  0  0  0  0  0  0  0  0  0
  152.6908  144.9191  161.3836 H   0  0  0  0  0  0  0  0  0  0  0  0
  153.9066  143.0350  160.2954 H   0  0  0  0  0  0  0  0  0  0  0  0
  152.7382  141.8973  160.9137 H   0  0  0  0  0  0  0  0  0  0  0  0
  151.9421  145.2103  158.9537 H   0  0  0  0  0  0  0  0  0  0  0  0
  149.4808  141.9623  155.9487 H   0  0  0  0  0  0  0  0  0  0  0  0
  149.5686  139.5129  156.4395 H   0  0  0  0  0  0  0  0  0  0  0  0
  150.8316  138.6507  158.3759 H   0  0  0  0  0  0  0  0  0  0  0  0
  152.0573  140.1889  159.9002 H   0  0  0  0  0  0  0  0  0  0  0  0
  153.8598  145.6705  163.2566 H   0  0  0  0  0  0  0  0  0  0  0  0
  155.1188  145.2216  165.3453 H   0  0  0  0  0  0  0  0  0  0  0  0
  154.0068  141.0640  165.1321 H   0  0  0  0  0  0  0  0  0  0  0  0
  152.7485  141.5020  163.0412 H   0  0  0  0  0  0  0  0  0  0  0  0
  150.4709  144.4651  156.9863 H   0  0  0  0  0  0  0  0  0  0  0  0
  1  2  1  0  0  0  0
  1 20  1  0  0  0  0
  2  3  1  0  0  0  0
  2 13  1  0  0  0  0
  2 21  1  0  0  0  0
  3  4  1  0  0  0  0
  3 22  1  0  0  0  0
  3 23  1  0  0  0  0
  4 12  1  0  0  0  0
  4  5  1  0  0  0  0
  5  6  2  0  0  0  0
  5 24  1  0  0  0  0
  6  7  1  0  0  0  0
  6 33  1  0  0  0  0
  7 12  2  0  0  0  0
  7  8  1  0  0  0  0
  8  9  2  0  0  0  0
  8 25  1  0  0  0  0
  9 10  1  0  0  0  0
  9 26  1  0  0  0  0
 10 11  2  0  0  0  0
 10 27  1  0  0  0  0
 11 12  1  0  0  0  0
 11 28  1  0  0  0  0
 13 19  1  0  0  0  0
 13 14  2  0  0  0  0
 14 15  1  0  0  0  0
 14 29  1  0  0  0  0
 15 16  2  0  0  0  0
 15 30  1  0  0  0  0
 16 17  1  0  0  0  0
 16 18  1  0  0  0  0
 18 19  2  0  0  0  0
 18 31  1  0  0  0  0
 19 32  1  0  0  0  0
M  CHG  1   6   1
M  END
> <s_m_source_file>
AV-unprocessed.smi

> <i_m_source_file_index>
1767

> <i_lp_mmshare_version>
43012

> <i_f3d_flags>
0

> <s_epik_input>
W2NIXTFbY0hdYyhGKVtjSF1bY0hdYzFbQ0BIXShbT0hdKVtDSDJdbihbY0hdbjIpYyhjMjMpW2NIXVtjSF1bY0hdW2NIXTM=

> <s_epik_cmdline>
J2VwaWtfcHl0aG9uJywgJy1waCcsICc3LjAnLCAnLXRuJywgJzgnLCAnLW1hJywgJzIwMCcsICctbWV0YWxfYmluZGluZycsICctaW1hZScsICc8aW5maWxlLm1hZT4nLCAnLW9tYWUnLCAnPG91dGZpbGUubWFlPic=

> <r_epik_Ionization_Penalty>
1.3029

> <r_epik_Ionization_Penalty_Charging>
1.3029

> <r_epik_Ionization_Penalty_Neutral>
1.79538e-06

> <r_epik_State_Penalty>
1.377

> <r_epik_Charging_Adjusted_Penalty>
2.6799

> <i_epik_Tot_Q>
1

> <i_epik_Tot_abs_Q>
1

> <r_epik_Metal_State_Penalty>
5.40879

> <b_epik_Metal_Only>
0

> <s_lp_Force_Field>
OPLS_2005

> <r_lp_Energy>
17.7516

> <b_lp_Chiralities_Consistent>
1

> <s_lp_Variant>
AV-unprocessed.smi:1767-3

> <Gold.Version>
5.8.1

> <Gold.Id.Protein>
6NUR|6NUR_protein|mol2

> <Gold.PLP.Fitness>
56.7895

> <Gold.PLP.PLP>
-50.0851

> <Gold.PLP.part.hbond>
-3.0000

> <Gold.PLP.part.metal>
0.0000

> <Gold.PLP.part.buried>
-6.5838

> <Gold.PLP.part.nonpolar>
-39.9857

> <Gold.PLP.part.repulsive>
0.0177

> <Gold.PLP.ligand.clash>
0.0000

> <Gold.PLP.ligand.torsion>
0.3752

> <Gold.PLP.Chemscore.Hbond>
2.4800

> <Gold.PLP.Chemscore.CHOScore>
0.0000

> <Gold.PLP.Chemscore.Metal>
0.0000

> <Gold.Chemscore.Hbonds>
donor molecule, donor type, donor heavy atom, donor atom, acceptor molecule, acceptor atom, score
      L1  H     6    33       P1  8028  1.72
      P1  H  6933  6945       L1     1  0.10

> <Gold.PLP.Chemscore.Internal.Correction>
0.0148

> <Gold.Rescore>
     Score         DG    S(hbond)    S(metal)    S(lipo)     H(rot)  DE(clash)    DE(int)     intcor
     17.56     -18.69       0.94        0.00     129.24       1.97       0.60       0.54       ----

> <Gold.Chemscore.Fitness>
17.5602

> <Gold.Chemscore.DG>
-18.6940

> <Gold.Chemscore.ZeroCoef>
-5.4800

> <Gold.Chemscore.Hbond>
0.9372

> <Gold.Chemscore.Metal>
0.0000

> <Gold.Chemscore.Lipo>
129.2398

> <Gold.Chemscore.Internal_Hbond>
0.0000

> <Gold.Chemscore.DEClash>
0.5952

> <Gold.Chemscore.DEInternal>
0.5387

> <Gold.Chemscore.Rot>
1.9677

> <Gold.Chemscore.Internal.Correction>
   9.000000E+99

> <Gold.Chemscore.Hbonds>
donor molecule, donor type, donor heavy atom, donor atom, acceptor molecule, acceptor atom, score
      L1  H     6    33       P1  8028  0.68
      P1  H  6933  6945       L1     1  0.10

> <Gold.Chemscore.Hbond.Weighted>
-3.1302

> <Gold.Chemscore.Metal.Weighted>
-0.0000

> <Gold.Chemscore.Lipo.Weighted>
-15.1211

> <Gold.Chemscore.Internal_Hbond.Weighted>
0.0000

> <Gold.Chemscore.DEClash.Weighted>
0.5952

> <Gold.Chemscore.DEInternal.Weighted>
0.5387

> <Gold.Chemscore.Rot.Weighted>
5.0372

> <Gold.Chemscore.Internal.Correction.Weighted>
   9.000000E+99

> <Gold.Protein.RotatedTorsions>
[ 6907 6896 6895 6894 ] final  -56.22 input  -60.11 | X-H torsion
[ 7974 7965 7964 7962 ] final -103.88 input  175.53 | X-H torsion
[ 8008 7997 7996 7995 ] final -148.84 input   59.86 | X-H torsion
[ 10167 10162 10161 10158 ] final  116.76 input  -65.29 | X-H torsion
[ 10718 10713 10712 10709 ] final   74.76 input   66.30 | X-H torsion
[ 10763 10752 10751 10750 ] final -137.78 input  -60.55 | X-H torsion
[ 11005 11000 10999 10996 ] final   67.84 input  -57.11 | X-H torsion

> <Gold.Protein.ActiveResidues>
 VAL166  LYS551  ARG553  GLY616  TRP617  ASP618  TYR619  PRO620  LYS621  CYS622 
 ASP623  PHE694  ASN695  SER759  ASP760  ASP761  ALA762  ILE779  LEU786  VAL792 
 PHE793  MET794  SER795  GLU796  ALA797  LYS798  CYS799  TRP800  GLU811  SER814 

> <Gold.Protein.RotatedAtoms>
  150.8186  134.7381  159.6751 H   0  0  0  0  0  0  0  0  0  0  0  0  # atno 6907 bound_to 6896
  152.4303  134.5787  159.9951 H   0  0  0  0  0  0  0  0  0  0  0  0  # atno 6908 bound_to 6896
  151.5977  133.3322  159.3077 H   0  0  0  0  0  0  0  0  0  0  0  0  # atno 6909 bound_to 6896
  145.2503  140.9235  143.3099 H   0  0  0  0  0  0  0  0  0  0  0  0  # atno 7974 bound_to 7965
  155.5981  140.0659  157.2740 H   0  0  0  0  0  0  0  0  0  0  0  0  # atno 8008 bound_to 7997
  154.4286  140.1823  156.1192 H   0  0  0  0  0  0  0  0  0  0  0  0  # atno 8009 bound_to 7997
  156.0180  140.3320  155.7013 H   0  0  0  0  0  0  0  0  0  0  0  0  # atno 8010 bound_to 7997
  139.6225  144.7103  151.2604 H   0  0  0  0  0  0  0  0  0  0  0  0  # atno 10167 bound_to 10162
  157.6606  130.9693  150.1257 H   0  0  0  0  0  0  0  0  0  0  0  0  # atno 10718 bound_to 10713
  154.8653  135.3632  154.5279 H   0  0  0  0  0  0  0  0  0  0  0  0  # atno 10763 bound_to 10752
  153.5906  135.7015  153.5430 H   0  0  0  0  0  0  0  0  0  0  0  0  # atno 10764 bound_to 10752
  153.3377  135.4107  155.1508 H   0  0  0  0  0  0  0  0  0  0  0  0  # atno 10765 bound_to 10752
  139.9747  134.6842  156.0378 H   0  0  0  0  0  0  0  0  0  0  0  0  # atno 11005 bound_to 11000
  144.9509  139.4084  143.6403 LP  0  0  0  0  0  0  0  0  0  0  0  0  # atno 17320 bound_to 7965
  146.3304  139.8516  142.8872 LP  0  0  0  0  0  0  0  0  0  0  0  0  # atno 17321 bound_to 7965
  140.7391  143.6629  150.8148 LP  0  0  0  0  0  0  0  0  0  0  0  0  # atno 17342 bound_to 10162
  140.0242  143.5511  152.2788 LP  0  0  0  0  0  0  0  0  0  0  0  0  # atno 17343 bound_to 10162
  156.2117  130.3667  149.8662 LP  0  0  0  0  0  0  0  0  0  0  0  0  # atno 17370 bound_to 10713
  156.6539  130.8755  151.3536 LP  0  0  0  0  0  0  0  0  0  0  0  0  # atno 17371 bound_to 10713
  141.1424  133.6562  156.3770 LP  0  0  0  0  0  0  0  0  0  0  0  0  # atno 17394 bound_to 11000
  140.5220  134.6295  157.5321 LP  0  0  0  0  0  0  0  0  0  0  0  0  # atno 17395 bound_to 11000

$$$$
