AV-unprocessed.smi:1961|AV-procd|sdf|7921|dock7
  -GOLD-   2272010 83D 1   1.00000     0.00000
 Structure written by MMmdl.
 35 36  0  0  0  0  0  0  0  0  2 V2000
  154.2901  140.1568  160.9865 C   0  0  0  0  0  0  0  0  0  0  0  0
  153.4312  140.4873  159.7573 C   0  0  0  0  0  0  0  0  0  0  0  0
  152.9681  141.9510  159.7205 C   0  0  0  0  0  0  0  0  0  0  0  0
  152.2919  139.5307  159.5912 C   0  0  0  0  0  0  0  0  0  0  0  0
  151.0310  139.9243  159.3860 N   0  0  0  0  0  0  0  0  0  0  0  0
  150.1601  138.8517  159.2626 N   0  0  0  0  0  0  0  0  0  0  0  0
  150.7714  137.6634  159.3669 C   0  0  0  0  0  0  0  0  0  0  0  0
  150.1058  136.4999  159.2788 N   0  5  0  0  0  0  0  0  0  0  0  0
  148.8554  136.3966  159.7841 C   0  0  0  0  0  0  0  0  0  0  0  0
  148.3606  137.1075  160.6623 O   0  0  0  0  0  0  0  0  0  0  0  0
  148.1305  135.4117  159.2381 N   0  0  0  0  0  0  0  0  0  0  0  0
  146.7541  135.0918  159.5914 C   0  0  0  0  0  0  0  0  0  0  0  0
  146.6288  134.8131  161.0956 C   0  0  1  0  0  0  0  0  0  0  0  0
  147.8833  134.1940  161.7097 C   0  0  0  0  0  0  0  0  0  0  0  0
  147.7490  134.6030  163.1584 C   0  0  0  0  0  0  0  0  0  0  0  0
  147.1779  136.0121  163.0318 C   0  0  0  0  0  0  0  0  0  0  0  0
  146.4264  136.0246  161.8207 O   0  0  0  0  0  0  0  0  0  0  0  0
  152.5065  137.7887  159.6532 S   0  0  0  0  0  0  0  0  0  0  0  0
  154.6726  139.1369  160.9343 H   0  0  0  0  0  0  0  0  0  0  0  0
  153.7150  140.2504  161.9083 H   0  0  0  0  0  0  0  0  0  0  0  0
  155.1464  140.8275  161.0598 H   0  0  0  0  0  0  0  0  0  0  0  0
  154.0760  140.3494  158.8883 H   0  0  0  0  0  0  0  0  0  0  0  0
  152.4340  142.1691  158.7951 H   0  0  0  0  0  0  0  0  0  0  0  0
  153.8164  142.6329  159.7812 H   0  0  0  0  0  0  0  0  0  0  0  0
  152.2998  142.1771  160.5520 H   0  0  0  0  0  0  0  0  0  0  0  0
  148.5641  134.8509  158.5193 H   0  0  0  0  0  0  0  0  0  0  0  0
  146.1133  135.9313  159.3173 H   0  0  0  0  0  0  0  0  0  0  0  0
  146.4187  134.2271  159.0168 H   0  0  0  0  0  0  0  0  0  0  0  0
  145.7779  134.1579  161.2903 H   0  0  0  0  0  0  0  0  0  0  0  0
  147.9357  133.1136  161.5722 H   0  0  0  0  0  0  0  0  0  0  0  0
  148.7827  134.6381  161.2803 H   0  0  0  0  0  0  0  0  0  0  0  0
  147.0364  133.9522  163.6665 H   0  0  0  0  0  0  0  0  0  0  0  0
  148.6923  134.5722  163.7041 H   0  0  0  0  0  0  0  0  0  0  0  0
  146.5602  136.2872  163.8870 H   0  0  0  0  0  0  0  0  0  0  0  0
  147.9825  136.7435  162.9457 H   0  0  0  0  0  0  0  0  0  0  0  0
  1  2  1  0  0  0  0
  1 19  1  0  0  0  0
  1 20  1  0  0  0  0
  1 21  1  0  0  0  0
  2  3  1  0  0  0  0
  2  4  1  0  0  0  0
  2 22  1  0  0  0  0
  3 23  1  0  0  0  0
  3 24  1  0  0  0  0
  3 25  1  0  0  0  0
  4 18  1  0  0  0  0
  4  5  2  0  0  0  0
  5  6  1  0  0  0  0
  6  7  2  0  0  0  0
  7  8  1  0  0  0  0
  7 18  1  0  0  0  0
  8  9  1  0  0  0  0
  9 10  2  0  0  0  0
  9 11  1  0  0  0  0
 11 12  1  0  0  0  0
 11 26  1  0  0  0  0
 12 13  1  0  0  0  0
 12 27  1  0  0  0  0
 12 28  1  0  0  0  0
 13 17  1  0  0  0  0
 13 14  1  0  0  0  0
 13 29  1  0  0  0  0
 14 15  1  0  0  0  0
 14 30  1  0  0  0  0
 14 31  1  0  0  0  0
 15 16  1  0  0  0  0
 15 32  1  0  0  0  0
 15 33  1  0  0  0  0
 16 17  1  0  0  0  0
 16 34  1  0  0  0  0
 16 35  1  0  0  0  0
M  CHG  1   8  -1
M  END
> <s_m_source_file>
AV-unprocessed.smi

> <i_m_source_file_index>
1961

> <i_lp_mmshare_version>
43012

> <i_f3d_flags>
0

> <s_epik_input>
W0NIM11bQ0hdKFtDSDNdKWMxbm5jKHMxKVtOSF1DKD1PKVtOSF1bQ0gyXVtDQEBIXTJbQ0gyXVtDSDJdW0NIMl1PMg==

> <s_epik_cmdline>
J2VwaWtfcHl0aG9uJywgJy1waCcsICc3LjAnLCAnLXRuJywgJzgnLCAnLW1hJywgJzIwMCcsICctbWV0YWxfYmluZGluZycsICctaW1hZScsICc8aW5maWxlLm1hZT4nLCAnLW9tYWUnLCAnPG91dGZpbGUubWFlPic=

> <r_lp_tautomer_probability>
1

> <r_epik_Ionization_Penalty>
4.36179

> <r_epik_Ionization_Penalty_Charging>
4.21437

> <r_epik_Ionization_Penalty_Neutral>
0.147417

> <r_epik_State_Penalty>
4.21389

> <r_epik_Charging_Adjusted_Penalty>
8.42826

> <i_epik_Tot_Q>
-1

> <i_epik_Tot_abs_Q>
1

> <r_epik_Metal_State_Penalty>
0.693772

> <b_epik_Metal_Only>
1

> <s_lp_Force_Field>
OPLS_2005

> <r_lp_Energy>
8.86259

> <b_lp_Chiralities_Consistent>
1

> <s_lp_Variant>
AV-unprocessed.smi:1961-4

> <Gold.Version>
5.8.1

> <Gold.Id.Protein>
6NUR|6NUR_protein|mol2

> <Gold.PLP.Fitness>
38.6967

> <Gold.PLP.PLP>
-30.8393

> <Gold.PLP.part.hbond>
-3.5519

> <Gold.PLP.part.metal>
0.0000

> <Gold.PLP.part.buried>
-4.7288

> <Gold.PLP.part.nonpolar>
-23.9305

> <Gold.PLP.part.repulsive>
0.0704

> <Gold.PLP.ligand.clash>
0.0000

> <Gold.PLP.ligand.torsion>
0.8243

> <Gold.PLP.Chemscore.Hbond>
3.1352

> <Gold.PLP.Chemscore.CHOScore>
0.0000

> <Gold.PLP.Chemscore.Metal>
0.0000

> <Gold.Chemscore.Hbonds>
donor molecule, donor type, donor heavy atom, donor atom, acceptor molecule, acceptor atom, score
      P1  H  6896  6907       L1     8  2.00
      P1  H  6931  6943       L1    10  0.85
      P1  H  6934  6947       L1    10  0.27

> <Gold.PLP.Chemscore.Internal.Correction>
0.1004

> <Gold.Rescore>
     Score         DG    S(hbond)    S(metal)    S(lipo)     H(rot)  DE(clash)    DE(int)     intcor
     14.62     -17.55       2.10        0.00      74.27       1.42       0.04       2.89       ----

> <Gold.Chemscore.Fitness>
14.6180

> <Gold.Chemscore.DG>
-17.5521

> <Gold.Chemscore.ZeroCoef>
-5.4800

> <Gold.Chemscore.Hbond>
2.1006

> <Gold.Chemscore.Metal>
0.0000

> <Gold.Chemscore.Lipo>
74.2696

> <Gold.Chemscore.Internal_Hbond>
0.0000

> <Gold.Chemscore.DEClash>
0.0421

> <Gold.Chemscore.DEInternal>
2.8921

> <Gold.Chemscore.Rot>
1.4193

> <Gold.Chemscore.Internal.Correction>
   9.000000E+99

> <Gold.Chemscore.Hbonds>
donor molecule, donor type, donor heavy atom, donor atom, acceptor molecule, acceptor atom, score
      P1  H  6896  6907       L1     8  0.34
      P1  H  6931  6943       L1    10  0.83
      P1  H  6934  6947       L1    10  0.27

> <Gold.Chemscore.Hbond.Weighted>
-7.0159

> <Gold.Chemscore.Metal.Weighted>
-0.0000

> <Gold.Chemscore.Lipo.Weighted>
-8.6895

> <Gold.Chemscore.Internal_Hbond.Weighted>
0.0000

> <Gold.Chemscore.DEClash.Weighted>
0.0421

> <Gold.Chemscore.DEInternal.Weighted>
2.8921

> <Gold.Chemscore.Rot.Weighted>
3.6333

> <Gold.Chemscore.Internal.Correction.Weighted>
   9.000000E+99

> <Gold.Protein.RotatedTorsions>
[ 6907 6896 6895 6894 ] final  -53.13 input  -60.11 | X-H torsion
[ 7974 7965 7964 7962 ] final   -4.07 input  175.53 | X-H torsion
[ 8008 7997 7996 7995 ] final  -56.13 input   59.86 | X-H torsion
[ 10167 10162 10161 10158 ] final  130.71 input  -65.29 | X-H torsion
[ 10718 10713 10712 10709 ] final  -71.42 input   66.30 | X-H torsion
[ 10763 10752 10751 10750 ] final  113.68 input  -60.55 | X-H torsion
[ 11005 11000 10999 10996 ] final  -12.02 input  -57.11 | X-H torsion

> <Gold.Protein.ActiveResidues>
 VAL166  LYS551  ARG553  GLY616  TRP617  ASP618  TYR619  PRO620  LYS621  CYS622 
 ASP623  PHE694  ASN695  SER759  ASP760  ASP761  ALA762  ILE779  LEU786  VAL792 
 PHE793  MET794  SER795  GLU796  ALA797  LYS798  CYS799  TRP800  GLU811  SER814 

> <Gold.Protein.RotatedAtoms>
  150.8454  134.7761  159.6966 H   0  0  0  0  0  0  0  0  0  0  0  0  # atno 6907 bound_to 6896
  152.4532  134.5345  159.9830 H   0  0  0  0  0  0  0  0  0  0  0  0  # atno 6908 bound_to 6896
  151.5476  133.3384  159.2983 H   0  0  0  0  0  0  0  0  0  0  0  0  # atno 6909 bound_to 6896
  146.2379  140.1816  142.8332 H   0  0  0  0  0  0  0  0  0  0  0  0  # atno 7974 bound_to 7965
  154.4219  140.1137  156.5588 H   0  0  0  0  0  0  0  0  0  0  0  0  # atno 8008 bound_to 7997
  155.6333  140.3496  155.4671 H   0  0  0  0  0  0  0  0  0  0  0  0  # atno 8009 bound_to 7997
  155.9930  140.1183  157.0610 H   0  0  0  0  0  0  0  0  0  0  0  0  # atno 8010 bound_to 7997
  139.5417  144.6736  151.4603 H   0  0  0  0  0  0  0  0  0  0  0  0  # atno 10167 bound_to 10162
  156.0363  130.4351  150.2442 H   0  0  0  0  0  0  0  0  0  0  0  0  # atno 10718 bound_to 10713
  153.4960  135.3648  155.2516 H   0  0  0  0  0  0  0  0  0  0  0  0  # atno 10763 bound_to 10752
  154.8750  135.3988  154.3533 H   0  0  0  0  0  0  0  0  0  0  0  0  # atno 10764 bound_to 10752
  153.4161  135.7079  153.6391 H   0  0  0  0  0  0  0  0  0  0  0  0  # atno 10765 bound_to 10752
  140.7614  133.8512  155.9128 H   0  0  0  0  0  0  0  0  0  0  0  0  # atno 11005 bound_to 11000
  144.9930  140.8564  143.5328 LP  0  0  0  0  0  0  0  0  0  0  0  0  # atno 17320 bound_to 7965
  145.1824  139.2344  143.5285 LP  0  0  0  0  0  0  0  0  0  0  0  0  # atno 17321 bound_to 7965
  140.6650  143.8418  150.6931 LP  0  0  0  0  0  0  0  0  0  0  0  0  # atno 17342 bound_to 10162
  140.1824  143.4103  152.1923 LP  0  0  0  0  0  0  0  0  0  0  0  0  # atno 17343 bound_to 10162
  157.0541  131.0071  151.3244 LP  0  0  0  0  0  0  0  0  0  0  0  0  # atno 17370 bound_to 10713
  157.5119  130.7944  149.7714 LP  0  0  0  0  0  0  0  0  0  0  0  0  # atno 17371 bound_to 10713
  140.9659  134.1594  157.4616 LP  0  0  0  0  0  0  0  0  0  0  0  0  # atno 17394 bound_to 11000
  139.8770  134.9961  156.5780 LP  0  0  0  0  0  0  0  0  0  0  0  0  # atno 17395 bound_to 11000

$$$$
