AV-unprocessed.smi:1353|AV-procd|sdf|5532|dock6
  -GOLD-   22720 5123D 1   1.00000     0.00000
 Structure written by MMmdl.
 39 41  0  0  0  0  0  0  0  0  1 V2000
  153.7746  136.2140  160.0066 O   0  0  0  0  0  0  0  0  0  0  0  0
  153.7208  137.6202  160.1209 C   0  0  0  0  0  0  0  0  0  0  0  0
  152.8034  138.2310  159.0474 C   0  0  0  0  0  0  0  0  0  0  0  0
  152.6156  139.7151  159.1957 C   0  0  0  0  0  0  0  0  0  0  0  0
  153.2805  140.4053  160.1241 N   0  0  0  0  0  0  0  0  0  0  0  0
  152.8255  141.6944  159.9339 C   0  0  0  0  0  0  0  0  0  0  0  0
  153.1415  142.8896  160.6189 C   0  0  0  0  0  0  0  0  0  0  0  0
  152.5399  144.1082  160.2428 C   0  0  0  0  0  0  0  0  0  0  0  0
  151.6165  144.1490  159.1782 C   0  0  0  0  0  0  0  0  0  0  0  0
  151.2903  142.9700  158.4811 C   0  0  0  0  0  0  0  0  0  0  0  0
  151.8937  141.7553  158.8602 C   0  0  0  0  0  0  0  0  0  0  0  0
  151.7986  140.4470  158.3930 N   0  0  0  0  0  0  0  0  0  0  0  0
  150.9791  140.0041  157.2718 C   0  0  0  0  0  0  0  0  0  0  0  0
  151.3059  140.7521  155.9723 C   0  0  0  0  0  0  0  0  0  0  0  0
  150.6844  140.0893  154.8787 O   0  0  0  0  0  0  0  0  0  0  0  0
  149.3930  140.4387  154.5500 C   0  0  0  0  0  0  0  0  0  0  0  0
  148.5866  139.4344  153.9759 C   0  0  0  0  0  0  0  0  0  0  0  0
  147.2542  139.7027  153.6077 C   0  0  0  0  0  0  0  0  0  0  0  0
  146.7127  140.9852  153.8122 C   0  0  0  0  0  0  0  0  0  0  0  0
  147.5057  141.9963  154.3861 C   0  0  0  0  0  0  0  0  0  0  0  0
  148.8385  141.7278  154.7544 C   0  0  0  0  0  0  0  0  0  0  0  0
  154.3212  135.9927  159.2680 H   0  0  0  0  0  0  0  0  0  0  0  0
  153.3956  137.8981  161.1240 H   0  0  0  0  0  0  0  0  0  0  0  0
  154.7343  138.0025  159.9980 H   0  0  0  0  0  0  0  0  0  0  0  0
  153.2436  138.0547  158.0654 H   0  0  0  0  0  0  0  0  0  0  0  0
  151.8482  137.7091  159.0408 H   0  0  0  0  0  0  0  0  0  0  0  0
  153.8468  142.8680  161.4364 H   0  0  0  0  0  0  0  0  0  0  0  0
  152.7873  145.0156  160.7739 H   0  0  0  0  0  0  0  0  0  0  0  0
  151.1585  145.0860  158.8970 H   0  0  0  0  0  0  0  0  0  0  0  0
  150.5815  142.9994  157.6671 H   0  0  0  0  0  0  0  0  0  0  0  0
  151.1447  138.9366  157.1252 H   0  0  0  0  0  0  0  0  0  0  0  0
  149.9247  140.1059  157.5275 H   0  0  0  0  0  0  0  0  0  0  0  0
  150.9483  141.7803  156.0423 H   0  0  0  0  0  0  0  0  0  0  0  0
  152.3858  140.7866  155.8344 H   0  0  0  0  0  0  0  0  0  0  0  0
  148.9954  138.4477  153.8143 H   0  0  0  0  0  0  0  0  0  0  0  0
  146.6484  138.9245  153.1677 H   0  0  0  0  0  0  0  0  0  0  0  0
  145.6911  141.1929  153.5299 H   0  0  0  0  0  0  0  0  0  0  0  0
  147.0912  142.9810  154.5445 H   0  0  0  0  0  0  0  0  0  0  0  0
  149.4146  142.5278  155.1932 H   0  0  0  0  0  0  0  0  0  0  0  0
  1  2  1  0  0  0  0
  1 22  1  0  0  0  0
  2  3  1  0  0  0  0
  2 23  1  0  0  0  0
  2 24  1  0  0  0  0
  3  4  1  0  0  0  0
  3 25  1  0  0  0  0
  3 26  1  0  0  0  0
  4 12  1  0  0  0  0
  4  5  2  0  0  0  0
  5  6  1  0  0  0  0
  6 11  2  0  0  0  0
  6  7  1  0  0  0  0
  7  8  2  0  0  0  0
  7 27  1  0  0  0  0
  8  9  1  0  0  0  0
  8 28  1  0  0  0  0
  9 10  2  0  0  0  0
  9 29  1  0  0  0  0
 10 11  1  0  0  0  0
 10 30  1  0  0  0  0
 11 12  1  0  0  0  0
 12 13  1  0  0  0  0
 13 14  1  0  0  0  0
 13 31  1  0  0  0  0
 13 32  1  0  0  0  0
 14 15  1  0  0  0  0
 14 33  1  0  0  0  0
 14 34  1  0  0  0  0
 15 16  1  0  0  0  0
 16 21  1  0  0  0  0
 16 17  2  0  0  0  0
 17 18  1  0  0  0  0
 17 35  1  0  0  0  0
 18 19  2  0  0  0  0
 18 36  1  0  0  0  0
 19 20  1  0  0  0  0
 19 37  1  0  0  0  0
 20 21  2  0  0  0  0
 20 38  1  0  0  0  0
 21 39  1  0  0  0  0
M  END
> <s_m_source_file>
AV-unprocessed.smi

> <i_m_source_file_index>
1353

> <i_lp_mmshare_version>
43012

> <i_f3d_flags>
0

> <s_epik_input>
W2NIXTFbY0hdW2NIXVtjSF1jKGMxMiluKGMobjIpW0NIMl1bQ0gyXVtPSF0pW0NIMl1bQ0gyXU9jM1tjSF1bY0hdW2NIXVtjSF1bY0hdMw==

> <s_epik_cmdline>
J2VwaWtfcHl0aG9uJywgJy1waCcsICc3LjAnLCAnLXRuJywgJzgnLCAnLW1hJywgJzIwMCcsICctbWV0YWxfYmluZGluZycsICctaW1hZScsICc8aW5maWxlLm1hZT4nLCAnLW9tYWUnLCAnPG91dGZpbGUubWFlPic=

> <r_lp_tautomer_probability>
1

> <r_epik_Ionization_Penalty>
0.230562

> <r_epik_Ionization_Penalty_Charging>
0

> <r_epik_Ionization_Penalty_Neutral>
0.230562

> <r_epik_State_Penalty>
0.221203

> <r_epik_Charging_Adjusted_Penalty>
0.221203

> <i_epik_Tot_Q>
0

> <i_epik_Tot_abs_Q>
0

> <r_epik_Metal_State_Penalty>
0.000268091

> <b_epik_Metal_Only>
0

> <s_lp_Force_Field>
OPLS_2005

> <r_lp_Energy>
15.7907

> <b_lp_Chiralities_Consistent>
1

> <s_lp_Variant>
AV-unprocessed.smi:1353-1

> <Gold.Version>
5.8.1

> <Gold.Id.Protein>
6NUR|6NUR_protein|mol2

> <Gold.PLP.Fitness>
51.1855

> <Gold.PLP.PLP>
-46.6550

> <Gold.PLP.part.hbond>
-2.0000

> <Gold.PLP.part.metal>
0.0000

> <Gold.PLP.part.buried>
-2.4652

> <Gold.PLP.part.nonpolar>
-41.1884

> <Gold.PLP.part.repulsive>
0.0617

> <Gold.PLP.ligand.clash>
0.0000

> <Gold.PLP.ligand.torsion>
0.6116

> <Gold.PLP.Chemscore.Hbond>
1.9000

> <Gold.PLP.Chemscore.CHOScore>
0.0000

> <Gold.PLP.Chemscore.Metal>
0.0000

> <Gold.Chemscore.Hbonds>
donor molecule, donor type, donor heavy atom, donor atom, acceptor molecule, acceptor atom, score
      P1  H  6896  6908       L1     1  0.98
      P1  H  7989  7998       L1    15  0.95

> <Gold.PLP.Chemscore.Internal.Correction>
0.0538

> <Gold.Rescore>
     Score         DG    S(hbond)    S(metal)    S(lipo)     H(rot)  DE(clash)    DE(int)     intcor
     16.64     -17.45       0.95        0.00     125.76       2.31       0.27       0.54       ----

> <Gold.Chemscore.Fitness>
16.6369

> <Gold.Chemscore.DG>
-17.4526

> <Gold.Chemscore.ZeroCoef>
-5.4800

> <Gold.Chemscore.Hbond>
0.9496

> <Gold.Chemscore.Metal>
0.0000

> <Gold.Chemscore.Lipo>
125.7609

> <Gold.Chemscore.Internal_Hbond>
0.0000

> <Gold.Chemscore.DEClash>
0.2708

> <Gold.Chemscore.DEInternal>
0.5449

> <Gold.Chemscore.Rot>
2.3098

> <Gold.Chemscore.Internal.Correction>
   9.000000E+99

> <Gold.Chemscore.Hbonds>
donor molecule, donor type, donor heavy atom, donor atom, acceptor molecule, acceptor atom, score
      P1  H  6896  6908       L1     1  0.68
      P1  H  7989  7998       L1    15  0.06

> <Gold.Chemscore.Hbond.Weighted>
-3.1717

> <Gold.Chemscore.Metal.Weighted>
-0.0000

> <Gold.Chemscore.Lipo.Weighted>
-14.7140

> <Gold.Chemscore.Internal_Hbond.Weighted>
0.0000

> <Gold.Chemscore.DEClash.Weighted>
0.2708

> <Gold.Chemscore.DEInternal.Weighted>
0.5449

> <Gold.Chemscore.Rot.Weighted>
5.9131

> <Gold.Chemscore.Internal.Correction.Weighted>
   9.000000E+99

> <Gold.Protein.RotatedTorsions>
[ 6907 6896 6895 6894 ] final  -85.88 input  -60.11 | X-H torsion
[ 7974 7965 7964 7962 ] final   58.85 input  175.53 | X-H torsion
[ 8008 7997 7996 7995 ] final  -94.12 input   59.86 | X-H torsion
[ 10167 10162 10161 10158 ] final -176.59 input  -65.29 | X-H torsion
[ 10718 10713 10712 10709 ] final   61.73 input   66.30 | X-H torsion
[ 10763 10752 10751 10750 ] final -170.35 input  -60.55 | X-H torsion
[ 11005 11000 10999 10996 ] final   29.30 input  -57.11 | X-H torsion

> <Gold.Protein.ActiveResidues>
 VAL166  LYS551  ARG553  GLY616  TRP617  ASP618  TYR619  PRO620  LYS621  CYS622 
 ASP623  PHE694  ASN695  SER759  ASP760  ASP761  ALA762  ILE779  LEU786  VAL792 
 PHE793  MET794  SER795  GLU796  ALA797  LYS798  CYS799  TRP800  GLU811  SER814 

> <Gold.Protein.RotatedAtoms>
  150.6868  134.3136  159.4756 H   0  0  0  0  0  0  0  0  0  0  0  0  # atno 6907 bound_to 6896
  152.1019  134.9333  160.0578 H   0  0  0  0  0  0  0  0  0  0  0  0  # atno 6908 bound_to 6896
  152.0609  133.4027  159.4454 H   0  0  0  0  0  0  0  0  0  0  0  0  # atno 6909 bound_to 6896
  145.9136  139.3673  143.0520 H   0  0  0  0  0  0  0  0  0  0  0  0  # atno 7974 bound_to 7965
  154.7444  140.0492  157.0839 H   0  0  0  0  0  0  0  0  0  0  0  0  # atno 8008 bound_to 7997
  155.0137  140.3139  155.4800 H   0  0  0  0  0  0  0  0  0  0  0  0  # atno 8009 bound_to 7997
  156.2871  140.2179  156.5252 H   0  0  0  0  0  0  0  0  0  0  0  0  # atno 8010 bound_to 7997
  139.5522  144.2080  152.1097 H   0  0  0  0  0  0  0  0  0  0  0  0  # atno 10167 bound_to 10162
  157.5849  130.9011  149.9498 H   0  0  0  0  0  0  0  0  0  0  0  0  # atno 10718 bound_to 10713
  154.6424  135.2900  155.0087 H   0  0  0  0  0  0  0  0  0  0  0  0  # atno 10763 bound_to 10752
  154.1209  135.6548  153.4906 H   0  0  0  0  0  0  0  0  0  0  0  0  # atno 10764 bound_to 10752
  153.0333  135.5287  154.7297 H   0  0  0  0  0  0  0  0  0  0  0  0  # atno 10765 bound_to 10752
  140.3064  134.2699  155.7743 H   0  0  0  0  0  0  0  0  0  0  0  0  # atno 11005 bound_to 11000
  145.8640  140.9459  143.0685 LP  0  0  0  0  0  0  0  0  0  0  0  0  # atno 17320 bound_to 7965
  144.6745  140.0567  143.7477 LP  0  0  0  0  0  0  0  0  0  0  0  0  # atno 17321 bound_to 7965
  140.1578  144.5054  150.6650 LP  0  0  0  0  0  0  0  0  0  0  0  0  # atno 17342 bound_to 10162
  140.6787  143.2316  151.5440 LP  0  0  0  0  0  0  0  0  0  0  0  0  # atno 17343 bound_to 10162
  156.0897  130.3664  150.0418 LP  0  0  0  0  0  0  0  0  0  0  0  0  # atno 17370 bound_to 10713
  156.8551  130.9472  151.3622 LP  0  0  0  0  0  0  0  0  0  0  0  0  # atno 17371 bound_to 10713
  141.2117  133.7679  156.9842 LP  0  0  0  0  0  0  0  0  0  0  0  0  # atno 17394 bound_to 11000
  140.1064  134.9504  157.2000 LP  0  0  0  0  0  0  0  0  0  0  0  0  # atno 17395 bound_to 11000

$$$$
