AV-unprocessed.smi:285|AV-procd|sdf|2165|dock3
  -GOLD-   2262021523D 1   1.00000     0.00000
 Structure written by MMmdl.
 31 33  0  0  0  0  0  0  0  0  1 V2000
  149.4107  142.3836  155.0030 N   0  0  0  0  0  0  0  0  0  0  0  0
  150.0585  141.7334  155.9796 C   0  0  0  0  0  0  0  0  0  0  0  0
  150.0269  142.2539  157.2287 N   0  0  0  0  0  0  0  0  0  0  0  0
  150.6653  141.6255  158.2210 C   0  0  0  0  0  0  0  0  0  0  0  0
  151.3758  140.4955  158.1741 N   0  0  0  0  0  0  0  0  0  0  0  0
  151.4093  139.9711  156.9134 C   0  0  0  0  0  0  0  0  0  0  0  0
  150.7738  140.5283  155.7650 C   0  0  0  0  0  0  0  0  0  0  0  0
  151.0085  139.7311  154.6518 N   0  0  0  0  0  0  0  0  0  0  0  0
  151.7424  138.7690  155.1374 C   0  0  0  0  0  0  0  0  0  0  0  0
  152.3463  137.3571  154.0108 Br  0  0  0  0  0  0  0  0  0  0  0  0
  152.0435  138.8230  156.4798 N   0  0  0  0  0  0  0  0  0  0  0  0
  152.8630  137.8782  157.2998 C   0  0  2  0  0  0  0  0  0  0  0  0
  152.1482  137.5220  158.6034 C   0  0  0  0  0  0  0  0  0  0  0  0
  153.3165  137.3465  159.5505 C   0  0  1  0  0  0  0  0  0  0  0  0
  153.8473  136.0372  159.4574 O   0  0  0  0  0  0  0  0  0  0  0  0
  154.2932  138.4180  159.0393 C   0  0  1  0  0  0  0  0  0  0  0  0
  155.7854  138.2065  159.3467 C   0  0  0  0  0  0  0  0  0  0  0  0
  156.5437  139.3000  158.8748 O   0  0  0  0  0  0  0  0  0  0  0  0
  154.0684  138.4990  157.6328 O   0  0  0  0  0  0  0  0  0  0  0  0
  149.4189  142.0163  154.0622 H   0  0  0  0  0  0  0  0  0  0  0  0
  148.9199  143.2418  155.2084 H   0  0  0  0  0  0  0  0  0  0  0  0
  150.5978  142.0949  159.1913 H   0  0  0  0  0  0  0  0  0  0  0  0
  153.0610  137.0150  156.6651 H   0  0  0  0  0  0  0  0  0  0  0  0
  151.5270  138.3582  158.9275 H   0  0  0  0  0  0  0  0  0  0  0  0
  151.5199  136.6382  158.4867 H   0  0  0  0  0  0  0  0  0  0  0  0
  153.0272  137.5261  160.5864 H   0  0  0  0  0  0  0  0  0  0  0  0
  154.1399  135.8964  158.5697 H   0  0  0  0  0  0  0  0  0  0  0  0
  153.9839  139.3805  159.4499 H   0  0  0  0  0  0  0  0  0  0  0  0
  155.9598  138.0682  160.4137 H   0  0  0  0  0  0  0  0  0  0  0  0
  156.1406  137.3039  158.8489 H   0  0  0  0  0  0  0  0  0  0  0  0
  157.4027  139.2612  159.2672 H   0  0  0  0  0  0  0  0  0  0  0  0
  1  2  1  0  0  0  0
  1 20  1  0  0  0  0
  1 21  1  0  0  0  0
  2  7  1  0  0  0  0
  2  3  2  0  0  0  0
  3  4  1  0  0  0  0
  4  5  2  0  0  0  0
  4 22  1  0  0  0  0
  5  6  1  0  0  0  0
  6 11  1  0  0  0  0
  6  7  2  0  0  0  0
  7  8  1  0  0  0  0
  8  9  2  0  0  0  0
  9 10  1  0  0  0  0
  9 11  1  0  0  0  0
 11 12  1  0  0  0  0
 12 19  1  0  0  0  0
 12 13  1  0  0  0  0
 12 23  1  0  0  0  0
 13 14  1  0  0  0  0
 13 24  1  0  0  0  0
 13 25  1  0  0  0  0
 14 15  1  0  0  0  0
 14 16  1  0  0  0  0
 14 26  1  0  0  0  0
 15 27  1  0  0  0  0
 16 17  1  0  0  0  0
 16 19  1  0  0  0  0
 16 28  1  0  0  0  0
 17 18  1  0  0  0  0
 17 29  1  0  0  0  0
 17 30  1  0  0  0  0
 18 31  1  0  0  0  0
M  END
> <s_m_source_file>
AV-unprocessed.smi

> <i_m_source_file_index>
285

> <i_lp_mmshare_version>
43012

> <i_f3d_flags>
0

> <s_epik_input>
bjFbY0hdbmMoW05IMl0pYyhjMTIpbmMoQnIpbjJbQ0BASF0zW0NIMl1bQ0BASF0oW09IXSlbQ0BIXShPMylbQ0gyXVtPSF0=

> <s_epik_cmdline>
J2VwaWtfcHl0aG9uJywgJy1waCcsICc3LjAnLCAnLXRuJywgJzgnLCAnLW1hJywgJzIwMCcsICctbWV0YWxfYmluZGluZycsICctaW1hZScsICc8aW5maWxlLm1hZT4nLCAnLW9tYWUnLCAnPG91dGZpbGUubWFlPic=

> <r_lp_tautomer_probability>
1

> <r_epik_Ionization_Penalty>
0.000103242

> <r_epik_Ionization_Penalty_Charging>
0

> <r_epik_Ionization_Penalty_Neutral>
0.000103242

> <r_epik_State_Penalty>
-0

> <r_epik_Charging_Adjusted_Penalty>
0

> <i_epik_Tot_Q>
0

> <i_epik_Tot_abs_Q>
0

> <r_epik_Metal_State_Penalty>
-0

> <b_epik_Metal_Only>
0

> <s_epik_Chemistry_Notes>
This compound contains an acetal/aminal-like group ( X-CH(R)-Y where X, Y are N, S, or O) that may be acid/base labile, releasing an aldehyde.

> <s_lp_Force_Field>
OPLS_2005

> <r_lp_Energy>
33.7508

> <b_lp_Chiralities_Consistent>
1

> <s_lp_Variant>
AV-unprocessed.smi:285-1

> <Gold.Version>
5.8.1

> <Gold.Id.Protein>
6NUR|6NUR_protein|mol2

> <Gold.PLP.Fitness>
34.9933

> <Gold.PLP.PLP>
-21.9065

> <Gold.PLP.part.hbond>
-4.8098

> <Gold.PLP.part.metal>
0.0000

> <Gold.PLP.part.buried>
0.1775

> <Gold.PLP.part.nonpolar>
-18.6699

> <Gold.PLP.part.repulsive>
0.5369

> <Gold.PLP.ligand.clash>
0.0000

> <Gold.PLP.ligand.torsion>
0.2622

> <Gold.PLP.Chemscore.Hbond>
4.5360

> <Gold.PLP.Chemscore.CHOScore>
0.0000

> <Gold.PLP.Chemscore.Metal>
0.0000

> <Gold.Chemscore.Hbonds>
donor molecule, donor type, donor heavy atom, donor atom, acceptor molecule, acceptor atom, score
      L1  H     1    21       P1  8028  1.00
      P1  H  6896  6908       L1    15  1.00
      P1  H  7989  7998       L1     8  1.00
      P1  H  7997  8009       L1    18  0.92
      P1  H  7997  8010       L1    19  0.59

> <Gold.PLP.Chemscore.Internal.Correction>
0.0032

> <Gold.Rescore>
     Score         DG    S(hbond)    S(metal)    S(lipo)     H(rot)  DE(clash)    DE(int)     intcor
     11.47     -13.63       3.64        0.00      32.84       3.06       1.17       0.99       ----

> <Gold.Chemscore.Fitness>
11.4668

> <Gold.Chemscore.DG>
-13.6310

> <Gold.Chemscore.ZeroCoef>
-5.4800

> <Gold.Chemscore.Hbond>
3.6358

> <Gold.Chemscore.Metal>
0.0000

> <Gold.Chemscore.Lipo>
32.8443

> <Gold.Chemscore.Internal_Hbond>
0.0000

> <Gold.Chemscore.DEClash>
1.1725

> <Gold.Chemscore.DEInternal>
0.9917

> <Gold.Chemscore.Rot>
3.0607

> <Gold.Chemscore.Internal.Correction>
   9.000000E+99

> <Gold.Chemscore.Hbonds>
donor molecule, donor type, donor heavy atom, donor atom, acceptor molecule, acceptor atom, score
      L1  H     1    21       P1  8028  0.91
      P1  H  6896  6908       L1    15  0.54
      P1  H  7989  7998       L1     8  0.39
      P1  H  7997  8009       L1    18  0.81
      P1  H  7997  8010       L1    19  0.54

> <Gold.Chemscore.Hbond.Weighted>
-12.1435

> <Gold.Chemscore.Metal.Weighted>
-0.0000

> <Gold.Chemscore.Lipo.Weighted>
-3.8428

> <Gold.Chemscore.Internal_Hbond.Weighted>
0.0000

> <Gold.Chemscore.DEClash.Weighted>
1.1725

> <Gold.Chemscore.DEInternal.Weighted>
0.9917

> <Gold.Chemscore.Rot.Weighted>
7.8354

> <Gold.Chemscore.Internal.Correction.Weighted>
   9.000000E+99

> <Gold.Protein.RotatedTorsions>
[ 6907 6896 6895 6894 ] final  -59.38 input  -60.11 | X-H torsion
[ 7974 7965 7964 7962 ] final  155.19 input  175.53 | X-H torsion
[ 8008 7997 7996 7995 ] final   58.71 input   59.86 | X-H torsion
[ 10167 10162 10161 10158 ] final  -16.06 input  -65.29 | X-H torsion
[ 10718 10713 10712 10709 ] final  -79.88 input   66.30 | X-H torsion
[ 10763 10752 10751 10750 ] final   93.68 input  -60.55 | X-H torsion
[ 11005 11000 10999 10996 ] final   89.87 input  -57.11 | X-H torsion

> <Gold.Protein.ActiveResidues>
 VAL166  LYS551  ARG553  GLY616  TRP617  ASP618  TYR619  PRO620  LYS621  CYS622 
 ASP623  PHE694  ASN695  SER759  ASP760  ASP761  ALA762  ILE779  LEU786  VAL792 
 PHE793  MET794  SER795  GLU796  ALA797  LYS798  CYS799  TRP800  GLU811  SER814 

> <Gold.Protein.RotatedAtoms>
  150.7935  134.6977  159.6531 H   0  0  0  0  0  0  0  0  0  0  0  0  # atno 6907 bound_to 6896
  152.4044  134.6229  160.0065 H   0  0  0  0  0  0  0  0  0  0  0  0  # atno 6908 bound_to 6896
  151.6490  133.3285  159.3184 H   0  0  0  0  0  0  0  0  0  0  0  0  # atno 6909 bound_to 6896
  144.8040  139.7035  143.6169 H   0  0  0  0  0  0  0  0  0  0  0  0  # atno 7974 bound_to 7965
  155.5544  140.3487  155.4476 H   0  0  0  0  0  0  0  0  0  0  0  0  # atno 8008 bound_to 7997
  156.0559  140.1329  157.0022 H   0  0  0  0  0  0  0  0  0  0  0  0  # atno 8009 bound_to 7997
  154.4456  140.0995  156.6430 H   0  0  0  0  0  0  0  0  0  0  0  0  # atno 8010 bound_to 7997
  140.7228  143.5154  150.9698 H   0  0  0  0  0  0  0  0  0  0  0  0  # atno 10167 bound_to 10162
  156.0082  130.4558  150.3716 H   0  0  0  0  0  0  0  0  0  0  0  0  # atno 10718 bound_to 10713
  153.2330  135.4317  155.0616 H   0  0  0  0  0  0  0  0  0  0  0  0  # atno 10763 bound_to 10752
  154.8306  135.3384  154.6759 H   0  0  0  0  0  0  0  0  0  0  0  0  # atno 10764 bound_to 10752
  153.7186  135.7018  153.5075 H   0  0  0  0  0  0  0  0  0  0  0  0  # atno 10765 bound_to 10752
  139.8867  134.8579  156.3204 H   0  0  0  0  0  0  0  0  0  0  0  0  # atno 11005 bound_to 11000
  146.2328  139.5847  142.9544 LP  0  0  0  0  0  0  0  0  0  0  0  0  # atno 17320 bound_to 7965
  145.5482  141.0415  143.2293 LP  0  0  0  0  0  0  0  0  0  0  0  0  # atno 17321 bound_to 7965
  139.8870  143.7001  152.3150 LP  0  0  0  0  0  0  0  0  0  0  0  0  # atno 17342 bound_to 10162
  139.7303  144.7584  151.0812 LP  0  0  0  0  0  0  0  0  0  0  0  0  # atno 17343 bound_to 10162
  157.1800  131.0390  151.2753 LP  0  0  0  0  0  0  0  0  0  0  0  0  # atno 17370 bound_to 10713
  157.4154  130.7408  149.6871 LP  0  0  0  0  0  0  0  0  0  0  0  0  # atno 17371 bound_to 10713
  140.9790  133.7279  156.0645 LP  0  0  0  0  0  0  0  0  0  0  0  0  # atno 17394 bound_to 11000
  140.7773  134.3765  157.5495 LP  0  0  0  0  0  0  0  0  0  0  0  0  # atno 17395 bound_to 11000

$$$$
