AV-unprocessed.smi:285|AV-procd|sdf|2170|dock7
  -GOLD-   2262021533D 1   1.00000     0.00000
 Structure written by MMmdl.
 31 33  0  0  0  0  0  0  0  0  1 V2000
  152.6307  138.0661  156.2351 N   0  0  0  0  0  0  0  0  0  0  0  0
  152.1729  139.2501  156.6650 C   0  0  0  0  0  0  0  0  0  0  0  0
  151.2524  139.8955  155.9111 N   0  0  0  0  0  0  0  0  0  0  0  0
  150.7826  141.0801  156.3152 C   0  0  0  0  0  0  0  0  0  0  0  0
  151.0964  141.7735  157.4128 N   0  0  0  0  0  0  0  0  0  0  0  0
  152.0224  141.1207  158.1755 C   0  0  0  0  0  0  0  0  0  0  0  0
  152.6092  139.8577  157.8693 C   0  0  0  0  0  0  0  0  0  0  0  0
  153.5140  139.4958  158.8596 N   0  0  0  0  0  0  0  0  0  0  0  0
  153.4484  140.4997  159.6889 C   0  0  0  0  0  0  0  0  0  0  0  0
  154.5291  140.5248  161.2572 Br  0  0  0  0  0  0  0  0  0  0  0  0
  152.5853  141.5239  159.3708 N   0  0  0  0  0  0  0  0  0  0  0  0
  152.3057  142.7870  160.1213 C   0  0  1  0  0  0  0  0  0  0  0  0
  152.8124  144.0015  159.3496 C   0  0  0  0  0  0  0  0  0  0  0  0
  151.8014  145.0415  159.7765 C   0  0  1  0  0  0  0  0  0  0  0  0
  151.7458  146.1028  158.8456 O   0  0  0  0  0  0  0  0  0  0  0  0
  150.5072  144.2207  159.8080 C   0  0  2  0  0  0  0  0  0  0  0  0
  149.4437  144.7972  160.7554 C   0  0  0  0  0  0  0  0  0  0  0  0
  148.3969  143.8679  160.9371 O   0  0  0  0  0  0  0  0  0  0  0  0
  150.9246  142.9334  160.2668 O   0  0  0  0  0  0  0  0  0  0  0  0
  153.3192  137.5657  156.7789 H   0  0  0  0  0  0  0  0  0  0  0  0
  152.2879  137.6772  155.3686 H   0  0  0  0  0  0  0  0  0  0  0  0
  150.0512  141.5388  155.6663 H   0  0  0  0  0  0  0  0  0  0  0  0
  152.7674  142.6703  161.1015 H   0  0  0  0  0  0  0  0  0  0  0  0
  153.8416  144.2423  159.6175 H   0  0  0  0  0  0  0  0  0  0  0  0
  152.7530  143.8149  158.2757 H   0  0  0  0  0  0  0  0  0  0  0  0
  152.0475  145.4200  160.7699 H   0  0  0  0  0  0  0  0  0  0  0  0
  152.4586  146.0020  158.2330 H   0  0  0  0  0  0  0  0  0  0  0  0
  150.1169  144.1204  158.7933 H   0  0  0  0  0  0  0  0  0  0  0  0
  149.8772  145.0765  161.7161 H   0  0  0  0  0  0  0  0  0  0  0  0
  149.0066  145.6980  160.3234 H   0  0  0  0  0  0  0  0  0  0  0  0
  147.6030  144.2353  160.5796 H   0  0  0  0  0  0  0  0  0  0  0  0
  1  2  1  0  0  0  0
  1 20  1  0  0  0  0
  1 21  1  0  0  0  0
  2  7  1  0  0  0  0
  2  3  2  0  0  0  0
  3  4  1  0  0  0  0
  4  5  2  0  0  0  0
  4 22  1  0  0  0  0
  5  6  1  0  0  0  0
  6 11  1  0  0  0  0
  6  7  2  0  0  0  0
  7  8  1  0  0  0  0
  8  9  2  0  0  0  0
  9 10  1  0  0  0  0
  9 11  1  0  0  0  0
 11 12  1  0  0  0  0
 12 19  1  0  0  0  0
 12 13  1  0  0  0  0
 12 23  1  0  0  0  0
 13 14  1  0  0  0  0
 13 24  1  0  0  0  0
 13 25  1  0  0  0  0
 14 15  1  0  0  0  0
 14 16  1  0  0  0  0
 14 26  1  0  0  0  0
 15 27  1  0  0  0  0
 16 17  1  0  0  0  0
 16 19  1  0  0  0  0
 16 28  1  0  0  0  0
 17 18  1  0  0  0  0
 17 29  1  0  0  0  0
 17 30  1  0  0  0  0
 18 31  1  0  0  0  0
M  END
> <s_m_source_file>
AV-unprocessed.smi

> <i_m_source_file_index>
285

> <i_lp_mmshare_version>
43012

> <i_f3d_flags>
0

> <s_epik_input>
bjFbY0hdbmMoW05IMl0pYyhjMTIpbmMoQnIpbjJbQ0BASF0zW0NIMl1bQ0BASF0oW09IXSlbQ0BIXShPMylbQ0gyXVtPSF0=

> <s_epik_cmdline>
J2VwaWtfcHl0aG9uJywgJy1waCcsICc3LjAnLCAnLXRuJywgJzgnLCAnLW1hJywgJzIwMCcsICctbWV0YWxfYmluZGluZycsICctaW1hZScsICc8aW5maWxlLm1hZT4nLCAnLW9tYWUnLCAnPG91dGZpbGUubWFlPic=

> <r_lp_tautomer_probability>
1

> <r_epik_Ionization_Penalty>
0.000103242

> <r_epik_Ionization_Penalty_Charging>
0

> <r_epik_Ionization_Penalty_Neutral>
0.000103242

> <r_epik_State_Penalty>
-0

> <r_epik_Charging_Adjusted_Penalty>
0

> <i_epik_Tot_Q>
0

> <i_epik_Tot_abs_Q>
0

> <r_epik_Metal_State_Penalty>
-0

> <b_epik_Metal_Only>
0

> <s_epik_Chemistry_Notes>
This compound contains an acetal/aminal-like group ( X-CH(R)-Y where X, Y are N, S, or O) that may be acid/base labile, releasing an aldehyde.

> <s_lp_Force_Field>
OPLS_2005

> <r_lp_Energy>
32.6465

> <b_lp_Chiralities_Consistent>
1

> <s_lp_Variant>
AV-unprocessed.smi:285-6

> <Gold.Version>
5.8.1

> <Gold.Id.Protein>
6NUR|6NUR_protein|mol2

> <Gold.PLP.Fitness>
46.1795

> <Gold.PLP.PLP>
-34.9580

> <Gold.PLP.part.hbond>
-5.0751

> <Gold.PLP.part.metal>
0.0000

> <Gold.PLP.part.buried>
-2.3204

> <Gold.PLP.part.nonpolar>
-27.7998

> <Gold.PLP.part.repulsive>
0.3668

> <Gold.PLP.ligand.clash>
0.0000

> <Gold.PLP.ligand.torsion>
0.1866

> <Gold.PLP.Chemscore.Hbond>
2.8620

> <Gold.PLP.Chemscore.CHOScore>
1.0000

> <Gold.PLP.Chemscore.Metal>
0.0000

> <Gold.Chemscore.Hbonds>
donor molecule, donor type, donor heavy atom, donor atom, acceptor molecule, acceptor atom, score
      P1  H  6933  6944       L1    18  1.00

> <Gold.PLP.Chemscore.Internal.Correction>
0.0086

> <Gold.Rescore>
     Score         DG    S(hbond)    S(metal)    S(lipo)     H(rot)  DE(clash)    DE(int)     intcor
      5.17      -8.56       1.37        0.00      54.11       3.06       3.28       0.11       ----

> <Gold.Chemscore.Fitness>
5.1707

> <Gold.Chemscore.DG>
-8.5571

> <Gold.Chemscore.ZeroCoef>
-5.4800

> <Gold.Chemscore.Hbond>
1.3718

> <Gold.Chemscore.Metal>
0.0000

> <Gold.Chemscore.Lipo>
54.1068

> <Gold.Chemscore.Internal_Hbond>
0.0000

> <Gold.Chemscore.DEClash>
3.2808

> <Gold.Chemscore.DEInternal>
0.1057

> <Gold.Chemscore.Rot>
3.0607

> <Gold.Chemscore.Internal.Correction>
   9.000000E+99

> <Gold.Chemscore.Hbonds>
donor molecule, donor type, donor heavy atom, donor atom, acceptor molecule, acceptor atom, score
      P1  H  6933  6944       L1    18  0.93

> <Gold.Chemscore.Hbond.Weighted>
-4.5820

> <Gold.Chemscore.Metal.Weighted>
-0.0000

> <Gold.Chemscore.Lipo.Weighted>
-6.3305

> <Gold.Chemscore.Internal_Hbond.Weighted>
0.0000

> <Gold.Chemscore.DEClash.Weighted>
3.2808

> <Gold.Chemscore.DEInternal.Weighted>
0.1057

> <Gold.Chemscore.Rot.Weighted>
7.8354

> <Gold.Chemscore.Internal.Correction.Weighted>
   9.000000E+99

> <Gold.Protein.RotatedTorsions>
[ 6907 6896 6895 6894 ] final   77.59 input  -60.11 | X-H torsion
[ 7974 7965 7964 7962 ] final  -63.29 input  175.53 | X-H torsion
[ 8008 7997 7996 7995 ] final  143.07 input   59.86 | X-H torsion
[ 10167 10162 10161 10158 ] final  129.46 input  -65.29 | X-H torsion
[ 10718 10713 10712 10709 ] final   68.83 input   66.30 | X-H torsion
[ 10763 10752 10751 10750 ] final  108.89 input  -60.55 | X-H torsion
[ 11005 11000 10999 10996 ] final   41.37 input  -57.11 | X-H torsion

> <Gold.Protein.ActiveResidues>
 VAL166  LYS551  ARG553  GLY616  TRP617  ASP618  TYR619  PRO620  LYS621  CYS622 
 ASP623  PHE694  ASN695  SER759  ASP760  ASP761  ALA762  ILE779  LEU786  VAL792 
 PHE793  MET794  SER795  GLU796  ALA797  LYS798  CYS799  TRP800  GLU811  SER814 

> <Gold.Protein.RotatedAtoms>
  152.5124  134.3794  159.9345 H   0  0  0  0  0  0  0  0  0  0  0  0  # atno 6907 bound_to 6896
  151.3750  133.3835  159.2711 H   0  0  0  0  0  0  0  0  0  0  0  0  # atno 6908 bound_to 6896
  150.9548  134.8964  159.7753 H   0  0  0  0  0  0  0  0  0  0  0  0  # atno 6909 bound_to 6896
  145.7809  140.8762  143.0331 H   0  0  0  0  0  0  0  0  0  0  0  0  # atno 7974 bound_to 7965
  156.2937  140.2272  156.4831 H   0  0  0  0  0  0  0  0  0  0  0  0  # atno 8008 bound_to 7997
  154.7836  140.0458  157.1167 H   0  0  0  0  0  0  0  0  0  0  0  0  # atno 8009 bound_to 7997
  154.9729  140.3069  155.4983 H   0  0  0  0  0  0  0  0  0  0  0  0  # atno 8010 bound_to 7997
  139.5477  144.6787  151.4422 H   0  0  0  0  0  0  0  0  0  0  0  0  # atno 10167 bound_to 10162
  157.6312  130.9394  150.0431 H   0  0  0  0  0  0  0  0  0  0  0  0  # atno 10718 bound_to 10713
  153.4270  135.3797  155.2146 H   0  0  0  0  0  0  0  0  0  0  0  0  # atno 10763 bound_to 10752
  154.8748  135.3831  154.4315 H   0  0  0  0  0  0  0  0  0  0  0  0  # atno 10764 bound_to 10752
  153.4842  135.7088  153.5983 H   0  0  0  0  0  0  0  0  0  0  0  0  # atno 10765 bound_to 10752
  140.1841  134.4068  155.8183 H   0  0  0  0  0  0  0  0  0  0  0  0  # atno 11005 bound_to 11000
  144.6796  139.9988  143.7484 LP  0  0  0  0  0  0  0  0  0  0  0  0  # atno 17320 bound_to 7965
  146.0075  139.3142  143.0890 LP  0  0  0  0  0  0  0  0  0  0  0  0  # atno 17321 bound_to 7965
  140.6730  143.8252  150.7023 LP  0  0  0  0  0  0  0  0  0  0  0  0  # atno 17342 bound_to 10162
  140.1682  143.4217  152.2020 LP  0  0  0  0  0  0  0  0  0  0  0  0  # atno 17343 bound_to 10162
  156.1516  130.3642  149.9429 LP  0  0  0  0  0  0  0  0  0  0  0  0  # atno 17370 bound_to 10713
  156.7448  130.9093  151.3634 LP  0  0  0  0  0  0  0  0  0  0  0  0  # atno 17371 bound_to 10713
  141.2224  133.7014  156.7981 LP  0  0  0  0  0  0  0  0  0  0  0  0  # atno 17394 bound_to 11000
  140.2234  134.8740  157.3401 LP  0  0  0  0  0  0  0  0  0  0  0  0  # atno 17395 bound_to 11000

$$$$
