AV-unprocessed.smi:3201|AV-procd|sdf|12239|dock2
  -GOLD-   2272018 73D 1   1.00000     0.00000
 Structure written by MMmdl.
 41 43  0  0  0  0  0  0  0  0  2 V2000
  152.1846  142.4601  158.2425 C   0  0  0  0  0  0  0  0  0  0  0  0
  152.2732  142.9542  159.6505 C   0  0  0  0  0  0  0  0  0  0  0  0
  151.7405  144.0677  160.2431 C   0  0  0  0  0  0  0  0  0  0  0  0
  150.8882  145.1482  159.6362 C   0  0  0  0  0  0  0  0  0  0  0  0
  149.4401  145.0696  160.1367 C   0  0  0  0  0  0  0  0  0  0  0  0
  148.6248  144.1999  159.2646 N   0  3  0  0  0  0  0  0  0  0  0  0
  147.3985  143.6629  159.8952 C   0  0  2  0  0  0  0  0  0  0  0  0
  146.1926  143.7341  158.9319 C   0  0  0  0  0  0  0  0  0  0  0  0
  145.1613  144.5557  159.7267 C   0  0  1  0  0  0  0  0  0  0  0  0
  144.6465  143.7263  160.9175 C   0  0  0  0  0  0  0  0  0  0  0  0
  145.8544  143.7201  161.8734 C   0  0  0  0  0  0  0  0  0  0  0  0
  146.9134  144.5187  161.0899 C   0  0  2  0  0  0  0  0  0  0  0  0
  146.0512  145.5820  160.4159 C   0  0  0  0  0  0  0  0  0  0  0  0
  152.1839  143.9759  161.5926 C   0  0  0  0  0  0  0  0  0  0  0  0
  152.9248  142.9059  161.8177 N   0  0  0  0  0  0  0  0  0  0  0  0
  152.9788  142.2753  160.6265 N   0  0  0  0  0  0  0  0  0  0  0  0
  153.7254  141.0377  160.5096 C   0  0  0  0  0  0  0  0  0  0  0  0
  151.6795  143.1816  157.6009 H   0  0  0  0  0  0  0  0  0  0  0  0
  151.6283  141.5238  158.1960 H   0  0  0  0  0  0  0  0  0  0  0  0
  153.1779  142.2847  157.8289 H   0  0  0  0  0  0  0  0  0  0  0  0
  151.2987  146.1321  159.8670 H   0  0  0  0  0  0  0  0  0  0  0  0
  150.8974  145.0733  158.5480 H   0  0  0  0  0  0  0  0  0  0  0  0
  149.4193  144.6772  161.1544 H   0  0  0  0  0  0  0  0  0  0  0  0
  149.0060  146.0689  160.1690 H   0  0  0  0  0  0  0  0  0  0  0  0
  148.3647  144.7110  158.4333 H   0  0  0  0  0  0  0  0  0  0  0  0
  147.5810  142.6298  160.1962 H   0  0  0  0  0  0  0  0  0  0  0  0
  146.4486  144.2465  158.0031 H   0  0  0  0  0  0  0  0  0  0  0  0
  145.8155  142.7452  158.6680 H   0  0  0  0  0  0  0  0  0  0  0  0
  144.3665  144.9752  159.1090 H   0  0  0  0  0  0  0  0  0  0  0  0
  143.7889  144.2094  161.3875 H   0  0  0  0  0  0  0  0  0  0  0  0
  144.3437  142.7212  160.6215 H   0  0  0  0  0  0  0  0  0  0  0  0
  145.6035  144.2235  162.8080 H   0  0  0  0  0  0  0  0  0  0  0  0
  146.1884  142.7112  162.1186 H   0  0  0  0  0  0  0  0  0  0  0  0
  147.7079  144.9084  161.7262 H   0  0  0  0  0  0  0  0  0  0  0  0
  146.6038  146.2146  159.7192 H   0  0  0  0  0  0  0  0  0  0  0  0
  145.5127  146.2154  161.1233 H   0  0  0  0  0  0  0  0  0  0  0  0
  151.9910  144.6540  162.4108 H   0  0  0  0  0  0  0  0  0  0  0  0
  153.0909  140.2649  160.0752 H   0  0  0  0  0  0  0  0  0  0  0  0
  154.0690  140.7003  161.4886 H   0  0  0  0  0  0  0  0  0  0  0  0
  154.5911  141.1923  159.8653 H   0  0  0  0  0  0  0  0  0  0  0  0
  149.2019  143.4169  158.9927 H   0  0  0  0  0  0  0  0  0  0  0  0
  1  2  1  0  0  0  0
  1 18  1  0  0  0  0
  1 19  1  0  0  0  0
  1 20  1  0  0  0  0
  2 16  1  0  0  0  0
  2  3  2  0  0  0  0
  3  4  1  0  0  0  0
  3 14  1  0  0  0  0
  4  5  1  0  0  0  0
  4 21  1  0  0  0  0
  4 22  1  0  0  0  0
  5  6  1  0  0  0  0
  5 23  1  0  0  0  0
  5 24  1  0  0  0  0
  6  7  1  0  0  0  0
  6 25  1  0  0  0  0
  6 41  1  0  0  0  0
  7 12  1  0  0  0  0
  7  8  1  0  0  0  0
  7 26  1  0  0  0  0
  8  9  1  0  0  0  0
  8 27  1  0  0  0  0
  8 28  1  0  0  0  0
  9 13  1  0  0  0  0
  9 10  1  0  0  0  0
  9 29  1  0  0  0  0
 10 11  1  0  0  0  0
 10 30  1  0  0  0  0
 10 31  1  0  0  0  0
 11 12  1  0  0  0  0
 11 32  1  0  0  0  0
 11 33  1  0  0  0  0
 12 13  1  0  0  0  0
 12 34  1  0  0  0  0
 13 35  1  0  0  0  0
 13 36  1  0  0  0  0
 14 15  2  0  0  0  0
 14 37  1  0  0  0  0
 15 16  1  0  0  0  0
 16 17  1  0  0  0  0
 17 38  1  0  0  0  0
 17 39  1  0  0  0  0
 17 40  1  0  0  0  0
M  CHG  1   6   1
M  END
> <s_m_source_file>
AV-unprocessed.smi

> <i_m_source_file_index>
3201

> <i_lp_mmshare_version>
43012

> <i_f3d_flags>
0

> <s_epik_input>
W0NIM11uMW5bY0hdYyhjMVtDSDNdKVtDSDJdW0NIMl1bTkhdW0NASF0oW0NIMl1bQ0BIXTIzKVtDQEhdKFtDSDJdMylbQ0gyXVtDSDJdMg==

> <s_epik_cmdline>
J2VwaWtfcHl0aG9uJywgJy1waCcsICc3LjAnLCAnLXRuJywgJzgnLCAnLW1hJywgJzIwMCcsICctbWV0YWxfYmluZGluZycsICctaW1hZScsICc8aW5maWxlLm1hZT4nLCAnLW9tYWUnLCAnPG91dGZpbGUubWFlPic=

> <r_lp_tautomer_probability>
1

> <r_epik_Ionization_Penalty>
0.000331174

> <r_epik_Ionization_Penalty_Charging>
0.000242709

> <r_epik_Ionization_Penalty_Neutral>
8.84659e-05

> <r_epik_State_Penalty>
-0

> <r_epik_Charging_Adjusted_Penalty>
0.000242709

> <i_epik_Tot_Q>
1

> <i_epik_Tot_abs_Q>
1

> <r_epik_Metal_State_Penalty>
-0

> <b_epik_Metal_Only>
0

> <s_lp_Force_Field>
OPLS_2005

> <r_lp_Energy>
49.8246

> <b_lp_Chiralities_Consistent>
1

> <s_lp_Variant>
AV-unprocessed.smi:3201-3

> <Gold.Version>
5.8.1

> <Gold.Id.Protein>
6NUR|6NUR_protein|mol2

> <Gold.PLP.Fitness>
45.2926

> <Gold.PLP.PLP>
-41.1864

> <Gold.PLP.part.hbond>
-1.0000

> <Gold.PLP.part.metal>
0.0000

> <Gold.PLP.part.buried>
-6.3757

> <Gold.PLP.part.nonpolar>
-33.4785

> <Gold.PLP.part.repulsive>
0.2209

> <Gold.PLP.ligand.clash>
0.0000

> <Gold.PLP.ligand.torsion>
0.9620

> <Gold.PLP.Chemscore.Hbond>
2.0000

> <Gold.PLP.Chemscore.CHOScore>
0.0000

> <Gold.PLP.Chemscore.Metal>
0.0000

> <Gold.Chemscore.Hbonds>
donor molecule, donor type, donor heavy atom, donor atom, acceptor molecule, acceptor atom, score
      L1  H     6    25       P1  8029  2.00

> <Gold.PLP.Chemscore.Internal.Correction>
0.0301

> <Gold.Rescore>
     Score         DG    S(hbond)    S(metal)    S(lipo)     H(rot)  DE(clash)    DE(int)     intcor
     17.19     -18.03       1.00        0.00     108.49       1.36       0.02       0.82       ----

> <Gold.Chemscore.Fitness>
17.1900

> <Gold.Chemscore.DG>
-18.0291

> <Gold.Chemscore.ZeroCoef>
-5.4800

> <Gold.Chemscore.Hbond>
0.9984

> <Gold.Chemscore.Metal>
0.0000

> <Gold.Chemscore.Lipo>
108.4873

> <Gold.Chemscore.Internal_Hbond>
0.0000

> <Gold.Chemscore.DEClash>
0.0237

> <Gold.Chemscore.DEInternal>
0.8154

> <Gold.Chemscore.Rot>
1.3588

> <Gold.Chemscore.Internal.Correction>
   9.000000E+99

> <Gold.Chemscore.Hbonds>
donor molecule, donor type, donor heavy atom, donor atom, acceptor molecule, acceptor atom, score
      L1  H     6    25       P1  8029  0.88

> <Gold.Chemscore.Hbond.Weighted>
-3.3346

> <Gold.Chemscore.Metal.Weighted>
-0.0000

> <Gold.Chemscore.Lipo.Weighted>
-12.6930

> <Gold.Chemscore.Internal_Hbond.Weighted>
0.0000

> <Gold.Chemscore.DEClash.Weighted>
0.0237

> <Gold.Chemscore.DEInternal.Weighted>
0.8154

> <Gold.Chemscore.Rot.Weighted>
3.4786

> <Gold.Chemscore.Internal.Correction.Weighted>
   9.000000E+99

> <Gold.Protein.RotatedTorsions>
[ 6907 6896 6895 6894 ] final  -50.30 input  -60.11 | X-H torsion
[ 7974 7965 7964 7962 ] final -178.74 input  175.53 | X-H torsion
[ 8008 7997 7996 7995 ] final   80.18 input   59.86 | X-H torsion
[ 10167 10162 10161 10158 ] final -102.74 input  -65.29 | X-H torsion
[ 10718 10713 10712 10709 ] final  -11.20 input   66.30 | X-H torsion
[ 10763 10752 10751 10750 ] final  -45.71 input  -60.55 | X-H torsion
[ 11005 11000 10999 10996 ] final   99.53 input  -57.11 | X-H torsion

> <Gold.Protein.ActiveResidues>
 VAL166  LYS551  ARG553  GLY616  TRP617  ASP618  TYR619  PRO620  LYS621  CYS622 
 ASP623  PHE694  ASN695  SER759  ASP760  ASP761  ALA762  ILE779  LEU786  VAL792 
 PHE793  MET794  SER795  GLU796  ALA797  LYS798  CYS799  TRP800  GLU811  SER814 

> <Gold.Protein.RotatedAtoms>
  150.8721  134.8096  159.7162 H   0  0  0  0  0  0  0  0  0  0  0  0  # atno 6907 bound_to 6896
  152.4721  134.4930  159.9711 H   0  0  0  0  0  0  0  0  0  0  0  0  # atno 6908 bound_to 6896
  151.5017  133.3464  159.2905 H   0  0  0  0  0  0  0  0  0  0  0  0  # atno 6909 bound_to 6896
  144.7132  140.0823  143.6425 H   0  0  0  0  0  0  0  0  0  0  0  0  # atno 7974 bound_to 7965
  155.8799  140.3444  155.5880 H   0  0  0  0  0  0  0  0  0  0  0  0  # atno 8008 bound_to 7997
  155.7731  140.0848  157.2117 H   0  0  0  0  0  0  0  0  0  0  0  0  # atno 8009 bound_to 7997
  154.4024  140.1514  156.2952 H   0  0  0  0  0  0  0  0  0  0  0  0  # atno 8010 bound_to 7997
  140.2274  143.3631  152.0916 H   0  0  0  0  0  0  0  0  0  0  0  0  # atno 10167 bound_to 10162
  156.6624  130.4986  149.6026 H   0  0  0  0  0  0  0  0  0  0  0  0  # atno 10718 bound_to 10713
  154.0331  135.6654  153.4782 H   0  0  0  0  0  0  0  0  0  0  0  0  # atno 10763 bound_to 10752
  153.0532  135.5072  154.7914 H   0  0  0  0  0  0  0  0  0  0  0  0  # atno 10764 bound_to 10752
  154.6866  135.3054  154.9504 H   0  0  0  0  0  0  0  0  0  0  0  0  # atno 10765 bound_to 10752
  139.8771  134.9100  156.4620 H   0  0  0  0  0  0  0  0  0  0  0  0  # atno 11005 bound_to 11000
  145.9691  139.2857  143.1109 LP  0  0  0  0  0  0  0  0  0  0  0  0  # atno 17320 bound_to 7965
  145.9136  140.9163  143.0441 LP  0  0  0  0  0  0  0  0  0  0  0  0  # atno 17321 bound_to 7965
  139.5122  144.6913  151.5752 LP  0  0  0  0  0  0  0  0  0  0  0  0  # atno 17342 bound_to 10162
  140.6210  143.9258  150.6526 LP  0  0  0  0  0  0  0  0  0  0  0  0  # atno 17343 bound_to 10162
  156.2000  130.6614  151.1157 LP  0  0  0  0  0  0  0  0  0  0  0  0  # atno 17370 bound_to 10713
  157.7105  131.0736  150.6517 LP  0  0  0  0  0  0  0  0  0  0  0  0  # atno 17371 bound_to 10713
  140.8857  133.7885  155.9515 LP  0  0  0  0  0  0  0  0  0  0  0  0  # atno 17394 bound_to 11000
  140.8807  134.2615  157.5145 LP  0  0  0  0  0  0  0  0  0  0  0  0  # atno 17395 bound_to 11000

$$$$
