AV-unprocessed.smi:2740|AV-procd|sdf|10557|dock5
  -GOLD-   2272015 13D 1   1.00000     0.00000
 Structure written by MMmdl.
 30 31  0  0  0  0  0  0  0  0  2 V2000
  148.0948  137.0931  154.8506 C   0  0  0  0  0  0  0  0  0  0  0  0
  149.1450  138.1389  155.0152 C   0  0  0  0  0  0  0  0  0  0  0  0
  149.8947  138.7320  154.0329 C   0  0  0  0  0  0  0  0  0  0  0  0
  150.8018  139.6781  154.5124 N   0  0  0  0  0  0  0  0  0  0  0  0
  150.7710  139.8171  155.8421 C   0  0  0  0  0  0  0  0  0  0  0  0
  151.5624  140.6741  156.5076 N   0  5  0  0  0  0  0  0  0  0  0  0
  151.3794  140.8721  157.8331 C   0  0  0  0  0  0  0  0  0  0  0  0
  150.3535  140.6279  158.4729 O   0  0  0  0  0  0  0  0  0  0  0  0
  152.4498  141.3849  158.4569 N   0  0  0  0  0  0  0  0  0  0  0  0
  152.5376  141.6983  159.8792 C   0  0  0  0  0  0  0  0  0  0  0  0
  152.1555  143.1604  160.1633 C   0  0  1  0  0  0  0  0  0  0  0  0
  152.4545  144.1114  159.0050 C   0  0  0  0  0  0  0  0  0  0  0  0
  151.4378  145.2303  159.1810 C   0  0  0  0  0  0  0  0  0  0  0  0
  150.4574  144.6859  160.2233 C   0  0  0  0  0  0  0  0  0  0  0  0
  150.7509  143.2995  160.3116 O   0  0  0  0  0  0  0  0  0  0  0  0
  149.5644  138.7659  156.5870 S   0  0  0  0  0  0  0  0  0  0  0  0
  148.5255  136.1750  154.4511 H   0  0  0  0  0  0  0  0  0  0  0  0
  147.3182  137.4294  154.1635 H   0  0  0  0  0  0  0  0  0  0  0  0
  147.6209  136.8554  155.8033 H   0  0  0  0  0  0  0  0  0  0  0  0
  149.8496  138.5426  152.9707 H   0  0  0  0  0  0  0  0  0  0  0  0
  153.2675  141.5743  157.8964 H   0  0  0  0  0  0  0  0  0  0  0  0
  151.8927  141.0235  160.4446 H   0  0  0  0  0  0  0  0  0  0  0  0
  153.5564  141.5030  160.2145 H   0  0  0  0  0  0  0  0  0  0  0  0
  152.6479  143.5219  161.0684 H   0  0  0  0  0  0  0  0  0  0  0  0
  153.4846  144.4683  159.0166 H   0  0  0  0  0  0  0  0  0  0  0  0
  152.2837  143.6112  158.0508 H   0  0  0  0  0  0  0  0  0  0  0  0
  151.9046  146.1514  159.5315 H   0  0  0  0  0  0  0  0  0  0  0  0
  150.9375  145.4454  158.2362 H   0  0  0  0  0  0  0  0  0  0  0  0
  150.6326  145.1511  161.1944 H   0  0  0  0  0  0  0  0  0  0  0  0
  149.4157  144.8534  159.9484 H   0  0  0  0  0  0  0  0  0  0  0  0
  1  2  1  0  0  0  0
  1 17  1  0  0  0  0
  1 18  1  0  0  0  0
  1 19  1  0  0  0  0
  2 16  1  0  0  0  0
  2  3  2  0  0  0  0
  3  4  1  0  0  0  0
  3 20  1  0  0  0  0
  4  5  2  0  0  0  0
  5  6  1  0  0  0  0
  5 16  1  0  0  0  0
  6  7  1  0  0  0  0
  7  8  2  0  0  0  0
  7  9  1  0  0  0  0
  9 10  1  0  0  0  0
  9 21  1  0  0  0  0
 10 11  1  0  0  0  0
 10 22  1  0  0  0  0
 10 23  1  0  0  0  0
 11 15  1  0  0  0  0
 11 12  1  0  0  0  0
 11 24  1  0  0  0  0
 12 13  1  0  0  0  0
 12 25  1  0  0  0  0
 12 26  1  0  0  0  0
 13 14  1  0  0  0  0
 13 27  1  0  0  0  0
 13 28  1  0  0  0  0
 14 15  1  0  0  0  0
 14 29  1  0  0  0  0
 14 30  1  0  0  0  0
M  CHG  1   6  -1
M  END
> <s_m_source_file>
AV-unprocessed.smi

> <i_m_source_file_index>
2740

> <i_lp_mmshare_version>
43012

> <i_f3d_flags>
0

> <s_epik_input>
W0NIM11jMVtjSF1uYyhzMSlbTkhdQyg9TylbTkhdW0NIMl1bQ0BASF0yW0NIMl1bQ0gyXVtDSDJdTzI=

> <s_epik_cmdline>
J2VwaWtfcHl0aG9uJywgJy1waCcsICc3LjAnLCAnLXRuJywgJzgnLCAnLW1hJywgJzIwMCcsICctbWV0YWxfYmluZGluZycsICctaW1hZScsICc8aW5maWxlLm1hZT4nLCAnLW9tYWUnLCAnPG91dGZpbGUubWFlPic=

> <r_lp_tautomer_probability>
0.999

> <r_epik_Ionization_Penalty>
8.54039

> <r_epik_Ionization_Penalty_Charging>
6.77868

> <r_epik_Ionization_Penalty_Neutral>
1.76171

> <r_epik_State_Penalty>
6.77885

> <r_epik_Charging_Adjusted_Penalty>
13.5575

> <i_epik_Tot_Q>
-1

> <i_epik_Tot_abs_Q>
1

> <r_epik_Metal_State_Penalty>
2.69888

> <b_epik_Metal_Only>
1

> <s_lp_Force_Field>
OPLS_2005

> <r_lp_Energy>
13.1724

> <b_lp_Chiralities_Consistent>
1

> <s_lp_Variant>
AV-unprocessed.smi:2740-4

> <Gold.Version>
5.8.1

> <Gold.Id.Protein>
6NUR|6NUR_protein|mol2

> <Gold.PLP.Fitness>
37.8793

> <Gold.PLP.PLP>
-30.6974

> <Gold.PLP.part.hbond>
-1.6355

> <Gold.PLP.part.metal>
0.0000

> <Gold.PLP.part.buried>
-4.5096

> <Gold.PLP.part.nonpolar>
-25.0216

> <Gold.PLP.part.repulsive>
0.2666

> <Gold.PLP.ligand.clash>
0.0000

> <Gold.PLP.ligand.torsion>
0.6212

> <Gold.PLP.Chemscore.Hbond>
1.0000

> <Gold.PLP.Chemscore.CHOScore>
1.7995

> <Gold.PLP.Chemscore.Metal>
0.0000

> <Gold.Chemscore.Hbonds>
donor molecule, donor type, donor heavy atom, donor atom, acceptor molecule, acceptor atom, score
      P1  H  7989  7998       L1     4  1.00
      L1  C     3    20       P1  7948  0.60
      L1  C     3    20       P1  7957  1.00

> <Gold.PLP.Chemscore.Internal.Correction>
0.0257

> <Gold.Rescore>
     Score         DG    S(hbond)    S(metal)    S(lipo)     H(rot)  DE(clash)    DE(int)     intcor
     12.40     -14.30       0.93        0.00      76.08       1.25       0.07       1.82       ----

> <Gold.Chemscore.Fitness>
12.4049

> <Gold.Chemscore.DG>
-14.2960

> <Gold.Chemscore.ZeroCoef>
-5.4800

> <Gold.Chemscore.Hbond>
0.9335

> <Gold.Chemscore.Metal>
0.0000

> <Gold.Chemscore.Lipo>
76.0828

> <Gold.Chemscore.Internal_Hbond>
0.0000

> <Gold.Chemscore.DEClash>
0.0715

> <Gold.Chemscore.DEInternal>
1.8195

> <Gold.Chemscore.Rot>
1.2514

> <Gold.Chemscore.Internal.Correction>
   9.000000E+99

> <Gold.Chemscore.Hbonds>
donor molecule, donor type, donor heavy atom, donor atom, acceptor molecule, acceptor atom, score
      P1  H  7989  7998       L1     4  0.98

> <Gold.Chemscore.Hbond.Weighted>
-3.1178

> <Gold.Chemscore.Metal.Weighted>
-0.0000

> <Gold.Chemscore.Lipo.Weighted>
-8.9017

> <Gold.Chemscore.Internal_Hbond.Weighted>
0.0000

> <Gold.Chemscore.DEClash.Weighted>
0.0715

> <Gold.Chemscore.DEInternal.Weighted>
1.8195

> <Gold.Chemscore.Rot.Weighted>
3.2036

> <Gold.Chemscore.Internal.Correction.Weighted>
   9.000000E+99

> <Gold.Protein.RotatedTorsions>
[ 6907 6896 6895 6894 ] final  -30.08 input  -60.11 | X-H torsion
[ 7974 7965 7964 7962 ] final  -23.99 input  175.53 | X-H torsion
[ 8008 7997 7996 7995 ] final  139.30 input   59.86 | X-H torsion
[ 10167 10162 10161 10158 ] final  123.60 input  -65.29 | X-H torsion
[ 10718 10713 10712 10709 ] final   33.83 input   66.30 | X-H torsion
[ 10763 10752 10751 10750 ] final   41.40 input  -60.55 | X-H torsion
[ 11005 11000 10999 10996 ] final  -82.42 input  -57.11 | X-H torsion

> <Gold.Protein.ActiveResidues>
 VAL166  LYS551  ARG553  GLY616  TRP617  ASP618  TYR619  PRO620  LYS621  CYS622 
 ASP623  PHE694  ASN695  SER759  ASP760  ASP761  ALA762  ILE779  LEU786  VAL792 
 PHE793  MET794  SER795  GLU796  ALA797  LYS798  CYS799  TRP800  GLU811  SER814 

> <Gold.Protein.RotatedAtoms>
  151.1104  135.0023  159.8490 H   0  0  0  0  0  0  0  0  0  0  0  0  # atno 6907 bound_to 6896
  152.5443  134.1843  159.8658 H   0  0  0  0  0  0  0  0  0  0  0  0  # atno 6908 bound_to 6896
  151.1893  133.4632  159.2628 H   0  0  0  0  0  0  0  0  0  0  0  0  # atno 6909 bound_to 6896
  146.1582  140.4690  142.8582 H   0  0  0  0  0  0  0  0  0  0  0  0  # atno 7974 bound_to 7965
  156.2991  140.2371  156.4215 H   0  0  0  0  0  0  0  0  0  0  0  0  # atno 8008 bound_to 7997
  154.8351  140.0431  157.1524 H   0  0  0  0  0  0  0  0  0  0  0  0  # atno 8009 bound_to 7997
  154.9164  140.2997  155.5243 H   0  0  0  0  0  0  0  0  0  0  0  0  # atno 8010 bound_to 7997
  139.5790  144.6977  151.3578 H   0  0  0  0  0  0  0  0  0  0  0  0  # atno 10167 bound_to 10162
  157.3027  130.7359  149.6677 H   0  0  0  0  0  0  0  0  0  0  0  0  # atno 10718 bound_to 10713
  152.9909  135.6163  154.2781 H   0  0  0  0  0  0  0  0  0  0  0  0  # atno 10763 bound_to 10752
  154.2511  135.2785  155.2818 H   0  0  0  0  0  0  0  0  0  0  0  0  # atno 10764 bound_to 10752
  154.5287  135.5794  153.6798 H   0  0  0  0  0  0  0  0  0  0  0  0  # atno 10765 bound_to 10752
  141.1663  133.7244  156.8570 H   0  0  0  0  0  0  0  0  0  0  0  0  # atno 11005 bound_to 11000
  144.7992  140.6181  143.6489 LP  0  0  0  0  0  0  0  0  0  0  0  0  # atno 17320 bound_to 7965
  145.4654  139.1508  143.3843 LP  0  0  0  0  0  0  0  0  0  0  0  0  # atno 17321 bound_to 7965
  140.7070  143.7488  150.7499 LP  0  0  0  0  0  0  0  0  0  0  0  0  # atno 17342 bound_to 10162
  140.1015  143.4783  152.2422 LP  0  0  0  0  0  0  0  0  0  0  0  0  # atno 17343 bound_to 10162
  155.9672  130.4275  150.4746 LP  0  0  0  0  0  0  0  0  0  0  0  0  # atno 17370 bound_to 10713
  157.2730  131.0591  151.2247 LP  0  0  0  0  0  0  0  0  0  0  0  0  # atno 17371 bound_to 10713
  140.1875  134.8989  157.3022 LP  0  0  0  0  0  0  0  0  0  0  0  0  # atno 17394 bound_to 11000
  140.2326  134.3891  155.7515 LP  0  0  0  0  0  0  0  0  0  0  0  0  # atno 17395 bound_to 11000

$$$$
