AV-unprocessed.smi:1899|AV-procd|sdf|7706|dock1
  -GOLD-   22720 9443D 1   1.00000     0.00000
 Structure written by MMmdl.
 34 35  0  0  0  0  0  0  0  0  2 V2000
  151.2441  140.6244  156.9257 O   0  0  0  0  0  0  0  0  0  0  0  0
  150.7858  141.7633  157.0180 C   0  0  0  0  0  0  0  0  0  0  0  0
  149.9991  142.3162  156.0821 N   0  0  0  0  0  0  0  0  0  0  0  0
  149.5647  141.6636  154.8502 C   0  0  0  0  0  0  0  0  0  0  0  0
  149.0126  140.2435  155.0861 C   0  0  0  0  0  0  0  0  0  0  0  0
  147.9913  139.8643  154.1052 N   0  0  0  0  0  0  0  0  0  0  0  0
  147.9328  138.7084  153.3702 C   0  0  0  0  0  0  0  0  0  0  0  0
  146.8085  138.7985  152.5902 C   0  0  0  0  0  0  0  0  0  0  0  0
  146.2292  140.0044  152.8821 N   0  3  0  0  0  0  0  0  0  0  0  0
  146.9487  140.6501  153.8053 C   0  0  0  0  0  0  0  0  0  0  0  0
  151.0904  142.6231  158.2513 C   0  0  1  0  0  0  0  0  0  0  0  0
  151.9862  141.8566  159.2517 C   0  0  0  0  0  0  0  0  0  0  0  0
  152.5125  142.7570  160.3552 C   0  0  0  0  0  0  0  0  0  0  0  0
  152.4953  144.0992  160.2852 C   0  0  0  0  0  0  0  0  0  0  0  0
  151.9527  144.8677  159.0931 C   0  0  0  0  0  0  0  0  0  0  0  0
  151.7425  143.9653  157.8622 C   0  0  0  0  0  0  0  0  0  0  0  0
  149.6762  143.2609  156.2355 H   0  0  0  0  0  0  0  0  0  0  0  0
  148.7999  142.2868  154.3862 H   0  0  0  0  0  0  0  0  0  0  0  0
  150.3985  141.6269  154.1473 H   0  0  0  0  0  0  0  0  0  0  0  0
  149.8201  139.5138  155.0165 H   0  0  0  0  0  0  0  0  0  0  0  0
  148.5882  140.1428  156.0858 H   0  0  0  0  0  0  0  0  0  0  0  0
  148.6761  137.9287  153.4543 H   0  0  0  0  0  0  0  0  0  0  0  0
  146.3888  138.1128  151.8684 H   0  0  0  0  0  0  0  0  0  0  0  0
  146.7336  141.6181  154.2227 H   0  0  0  0  0  0  0  0  0  0  0  0
  150.1455  142.8504  158.7490 H   0  0  0  0  0  0  0  0  0  0  0  0
  151.4186  141.0444  159.7074 H   0  0  0  0  0  0  0  0  0  0  0  0
  152.8432  141.4032  158.7514 H   0  0  0  0  0  0  0  0  0  0  0  0
  152.9290  142.2704  161.2251 H   0  0  0  0  0  0  0  0  0  0  0  0
  152.8737  144.6846  161.1105 H   0  0  0  0  0  0  0  0  0  0  0  0
  151.0095  145.3280  159.3889 H   0  0  0  0  0  0  0  0  0  0  0  0
  152.6384  145.6784  158.8454 H   0  0  0  0  0  0  0  0  0  0  0  0
  152.7088  143.7780  157.3908 H   0  0  0  0  0  0  0  0  0  0  0  0
  151.1371  144.4909  157.1223 H   0  0  0  0  0  0  0  0  0  0  0  0
  145.3786  140.3582  152.4621 H   0  0  0  0  0  0  0  0  0  0  0  0
  1  2  2  0  0  0  0
  2  3  1  0  0  0  0
  2 11  1  0  0  0  0
  3  4  1  0  0  0  0
  3 17  1  0  0  0  0
  4  5  1  0  0  0  0
  4 18  1  0  0  0  0
  4 19  1  0  0  0  0
  5  6  1  0  0  0  0
  5 20  1  0  0  0  0
  5 21  1  0  0  0  0
  6 10  1  0  0  0  0
  6  7  1  0  0  0  0
  7  8  2  0  0  0  0
  7 22  1  0  0  0  0
  8  9  1  0  0  0  0
  8 23  1  0  0  0  0
  9 10  2  0  0  0  0
  9 34  1  0  0  0  0
 10 24  1  0  0  0  0
 11 16  1  0  0  0  0
 11 12  1  0  0  0  0
 11 25  1  0  0  0  0
 12 13  1  0  0  0  0
 12 26  1  0  0  0  0
 12 27  1  0  0  0  0
 13 14  2  0  0  0  0
 13 28  1  0  0  0  0
 14 15  1  0  0  0  0
 14 29  1  0  0  0  0
 15 16  1  0  0  0  0
 15 30  1  0  0  0  0
 15 31  1  0  0  0  0
 16 32  1  0  0  0  0
 16 33  1  0  0  0  0
M  CHG  1   9   1
M  END
> <s_m_source_file>
AV-unprocessed.smi

> <i_m_source_file_index>
1899

> <i_lp_mmshare_version>
43012

> <i_f3d_flags>
0

> <s_epik_input>
W0NIMl0xW0NIMl1bQ0hdPVtDSF1bQ0gyXVtDQEhdMUMoPU8pW05IXVtDSDJdW0NIMl1uMltjSF1bY0hdbltjSF0y

> <s_epik_cmdline>
J2VwaWtfcHl0aG9uJywgJy1waCcsICc3LjAnLCAnLXRuJywgJzgnLCAnLW1hJywgJzIwMCcsICctbWV0YWxfYmluZGluZycsICctaW1hZScsICc8aW5maWxlLm1hZT4nLCAnLW9tYWUnLCAnPG91dGZpbGUubWFlPic=

> <r_lp_tautomer_probability>
1

> <r_epik_Ionization_Penalty>
0.268283

> <r_epik_Ionization_Penalty_Charging>
0

> <r_epik_Ionization_Penalty_Neutral>
0.268283

> <r_epik_State_Penalty>
0.260312

> <r_epik_Charging_Adjusted_Penalty>
0.260312

> <i_epik_Tot_Q>
1

> <i_epik_Tot_abs_Q>
1

> <r_epik_Metal_State_Penalty>
0.545819

> <b_epik_Metal_Only>
0

> <s_lp_Force_Field>
OPLS_2005

> <r_lp_Energy>
11.7263

> <b_lp_Chiralities_Consistent>
1

> <s_lp_Variant>
AV-unprocessed.smi:1899-2

> <Gold.Version>
5.8.1

> <Gold.Id.Protein>
6NUR|6NUR_protein|mol2

> <Gold.PLP.Fitness>
46.7800

> <Gold.PLP.PLP>
-35.7498

> <Gold.PLP.part.hbond>
-2.0000

> <Gold.PLP.part.metal>
0.0000

> <Gold.PLP.part.buried>
-1.4111

> <Gold.PLP.part.nonpolar>
-32.5311

> <Gold.PLP.part.repulsive>
0.1208

> <Gold.PLP.ligand.clash>
0.0000

> <Gold.PLP.ligand.torsion>
0.3609

> <Gold.PLP.Chemscore.Hbond>
3.0000

> <Gold.PLP.Chemscore.CHOScore>
0.9019

> <Gold.PLP.Chemscore.Metal>
0.0000

> <Gold.Chemscore.Hbonds>
donor molecule, donor type, donor heavy atom, donor atom, acceptor molecule, acceptor atom, score
      L1  H     3    17       P1  8028  1.00
      L1  H     9    34       P1 10175  2.00
      L1  C     7    22       P1  7948  0.87

> <Gold.PLP.Chemscore.Internal.Correction>
0.0462

> <Gold.Rescore>
     Score         DG    S(hbond)    S(metal)    S(lipo)     H(rot)  DE(clash)    DE(int)     intcor
     16.50     -18.26       1.96        0.00      94.36       1.87       0.15       1.61       ----

> <Gold.Chemscore.Fitness>
16.4958

> <Gold.Chemscore.DG>
-18.2551

> <Gold.Chemscore.ZeroCoef>
-5.4800

> <Gold.Chemscore.Hbond>
1.9563

> <Gold.Chemscore.Metal>
0.0000

> <Gold.Chemscore.Lipo>
94.3553

> <Gold.Chemscore.Internal_Hbond>
0.0000

> <Gold.Chemscore.DEClash>
0.1513

> <Gold.Chemscore.DEInternal>
1.6080

> <Gold.Chemscore.Rot>
1.8743

> <Gold.Chemscore.Internal.Correction>
   9.000000E+99

> <Gold.Chemscore.Hbonds>
donor molecule, donor type, donor heavy atom, donor atom, acceptor molecule, acceptor atom, score
      L1  H     3    17       P1  8028  0.95
      L1  H     9    34       P1 10175  0.62

> <Gold.Chemscore.Hbond.Weighted>
-6.5339

> <Gold.Chemscore.Metal.Weighted>
-0.0000

> <Gold.Chemscore.Lipo.Weighted>
-11.0396

> <Gold.Chemscore.Internal_Hbond.Weighted>
0.0000

> <Gold.Chemscore.DEClash.Weighted>
0.1513

> <Gold.Chemscore.DEInternal.Weighted>
1.6080

> <Gold.Chemscore.Rot.Weighted>
4.7983

> <Gold.Chemscore.Internal.Correction.Weighted>
   9.000000E+99

> <Gold.Protein.RotatedTorsions>
[ 6907 6896 6895 6894 ] final  170.20 input  -60.11 | X-H torsion
[ 7974 7965 7964 7962 ] final  175.20 input  175.53 | X-H torsion
[ 8008 7997 7996 7995 ] final  -66.47 input   59.86 | X-H torsion
[ 10167 10162 10161 10158 ] final   71.49 input  -65.29 | X-H torsion
[ 10718 10713 10712 10709 ] final  -13.76 input   66.30 | X-H torsion
[ 10763 10752 10751 10750 ] final -154.43 input  -60.55 | X-H torsion
[ 11005 11000 10999 10996 ] final  125.32 input  -57.11 | X-H torsion

> <Gold.Protein.ActiveResidues>
 VAL166  LYS551  ARG553  GLY616  TRP617  ASP618  TYR619  PRO620  LYS621  CYS622 
 ASP623  PHE694  ASN695  SER759  ASP760  ASP761  ALA762  ILE779  LEU786  VAL792 
 PHE793  MET794  SER795  GLU796  ALA797  LYS798  CYS799  TRP800  GLU811  SER814 

> <Gold.Protein.RotatedAtoms>
  151.8199  133.3393  159.3580 H   0  0  0  0  0  0  0  0  0  0  0  0  # atno 6907 bound_to 6896
  150.7298  134.5584  159.5839 H   0  0  0  0  0  0  0  0  0  0  0  0  # atno 6908 bound_to 6896
  152.3014  134.7608  160.0408 H   0  0  0  0  0  0  0  0  0  0  0  0  # atno 6909 bound_to 6896
  144.7206  139.9911  143.6440 H   0  0  0  0  0  0  0  0  0  0  0  0  # atno 7974 bound_to 7965
  154.4737  140.0912  156.7208 H   0  0  0  0  0  0  0  0  0  0  0  0  # atno 8008 bound_to 7997
  155.4655  140.3462  155.4300 H   0  0  0  0  0  0  0  0  0  0  0  0  # atno 8009 bound_to 7997
  156.1081  140.1440  156.9364 H   0  0  0  0  0  0  0  0  0  0  0  0  # atno 8010 bound_to 7997
  140.0455  144.5354  150.7402 H   0  0  0  0  0  0  0  0  0  0  0  0  # atno 10167 bound_to 10162
  156.6257  130.4887  149.6148 H   0  0  0  0  0  0  0  0  0  0  0  0  # atno 10718 bound_to 10713
  154.7859  135.3190  154.7887 H   0  0  0  0  0  0  0  0  0  0  0  0  # atno 10763 bound_to 10752
  153.8587  135.6855  153.4789 H   0  0  0  0  0  0  0  0  0  0  0  0  # atno 10764 bound_to 10752
  153.1510  135.4699  154.9576 H   0  0  0  0  0  0  0  0  0  0  0  0  # atno 10765 bound_to 10752
  139.9400  134.9636  156.8540 H   0  0  0  0  0  0  0  0  0  0  0  0  # atno 11005 bound_to 11000
  146.0411  139.3422  143.0697 LP  0  0  0  0  0  0  0  0  0  0  0  0  # atno 17320 bound_to 7965
  145.8334  140.9619  143.0837 LP  0  0  0  0  0  0  0  0  0  0  0  0  # atno 17321 bound_to 7965
  140.7241  143.2618  151.4181 LP  0  0  0  0  0  0  0  0  0  0  0  0  # atno 17342 bound_to 10162
  139.5986  144.1343  152.2173 LP  0  0  0  0  0  0  0  0  0  0  0  0  # atno 17343 bound_to 10162
  156.2275  130.6775  151.1431 LP  0  0  0  0  0  0  0  0  0  0  0  0  # atno 17370 bound_to 10713
  157.7215  131.0678  150.6116 LP  0  0  0  0  0  0  0  0  0  0  0  0  # atno 17371 bound_to 10713
  140.5975  134.0203  155.7524 LP  0  0  0  0  0  0  0  0  0  0  0  0  # atno 17394 bound_to 11000
  141.1031  133.9736  157.3044 LP  0  0  0  0  0  0  0  0  0  0  0  0  # atno 17395 bound_to 11000

$$$$
