AV-unprocessed.smi:3124|AV-procd|sdf|11903|dock9
  -GOLD-   2272017283D 1   1.00000     0.00000
 Structure written by MMmdl.
 24 24  0  0  0  0  0  0  0  0  2 V2000
  151.5655  141.9543  158.1118 C   0  0  0  0  0  0  0  0  0  0  0  0
  150.9596  141.3991  156.8677 C   0  0  0  0  0  0  0  0  0  0  0  0
  149.7140  141.5445  156.3246 C   0  0  0  0  0  0  0  0  0  0  0  0
  149.7556  140.7631  155.1324 C   0  0  0  0  0  0  0  0  0  0  0  0
  148.6571  140.5494  154.1258 C   0  0  0  0  0  0  0  0  0  0  0  0
  148.2801  139.0648  153.9560 C   0  0  1  0  0  0  0  0  0  0  0  0
  147.2177  138.6287  154.9741 C   0  0  0  0  0  0  0  0  0  0  0  0
  147.8124  138.7900  152.5846 N   0  3  0  0  0  0  0  0  0  0  0  0
  150.9324  140.1818  154.9503 N   0  0  0  0  0  0  0  0  0  0  0  0
  151.6574  140.5772  156.0133 N   0  0  0  0  0  0  0  0  0  0  0  0
  152.6139  140.2787  156.1440 H   0  0  0  0  0  0  0  0  0  0  0  0
  150.8132  142.4539  158.7227 H   0  0  0  0  0  0  0  0  0  0  0  0
  152.3425  142.6808  157.8733 H   0  0  0  0  0  0  0  0  0  0  0  0
  152.0143  141.1629  158.7125 H   0  0  0  0  0  0  0  0  0  0  0  0
  148.8922  142.1214  156.7223 H   0  0  0  0  0  0  0  0  0  0  0  0
  148.9559  140.9644  153.1621 H   0  0  0  0  0  0  0  0  0  0  0  0
  147.7745  141.1144  154.4294 H   0  0  0  0  0  0  0  0  0  0  0  0
  149.1709  138.4571  154.1197 H   0  0  0  0  0  0  0  0  0  0  0  0
  147.5663  138.7838  155.9957 H   0  0  0  0  0  0  0  0  0  0  0  0
  146.9803  137.5696  154.8671 H   0  0  0  0  0  0  0  0  0  0  0  0
  146.2922  139.1926  154.8508 H   0  0  0  0  0  0  0  0  0  0  0  0
  148.2061  139.4694  151.9498 H   0  0  0  0  0  0  0  0  0  0  0  0
  146.8043  138.8452  152.5544 H   0  0  0  0  0  0  0  0  0  0  0  0
  148.1065  137.8632  152.3102 H   0  0  0  0  0  0  0  0  0  0  0  0
  1 12  1  0  0  0  0
  1 13  1  0  0  0  0
  1 14  1  0  0  0  0
  1  2  1  0  0  0  0
  2 10  1  0  0  0  0
  2  3  2  0  0  0  0
  3  4  1  0  0  0  0
  3 15  1  0  0  0  0
  4  5  1  0  0  0  0
  4  9  2  0  0  0  0
  5  6  1  0  0  0  0
  5 16  1  0  0  0  0
  5 17  1  0  0  0  0
  6  7  1  0  0  0  0
  6  8  1  0  0  0  0
  6 18  1  0  0  0  0
  7 19  1  0  0  0  0
  7 20  1  0  0  0  0
  7 21  1  0  0  0  0
  8 22  1  0  0  0  0
  8 23  1  0  0  0  0
  8 24  1  0  0  0  0
  9 10  1  0  0  0  0
 10 11  1  0  0  0  0
M  CHG  1   8   1
M  END
> <s_m_source_file>
AV-unprocessed.smi

> <i_m_source_file_index>
3124

> <i_lp_mmshare_version>
43012

> <i_f3d_flags>
0

> <s_epik_input>
W0NIM11jMVtjSF1jKFtuSF1uMSlbQ0gyXVtDQEhdKFtDSDNdKVtOSDJd

> <s_epik_cmdline>
J2VwaWtfcHl0aG9uJywgJy1waCcsICc3LjAnLCAnLXRuJywgJzgnLCAnLW1hJywgJzIwMCcsICctbWV0YWxfYmluZGluZycsICctaW1hZScsICc8aW5maWxlLm1hZT4nLCAnLW9tYWUnLCAnPG91dGZpbGUubWFlPic=

> <r_lp_tautomer_probability>
0.5

> <r_epik_Ionization_Penalty>
0.00151643

> <r_epik_Ionization_Penalty_Charging>
0.00146569

> <r_epik_Ionization_Penalty_Neutral>
5.07401e-05

> <r_epik_State_Penalty>
0.379573

> <r_epik_Charging_Adjusted_Penalty>
0.381038

> <i_epik_Tot_Q>
1

> <i_epik_Tot_abs_Q>
1

> <r_epik_Metal_State_Penalty>
0.378341

> <b_epik_Metal_Only>
0

> <s_lp_Force_Field>
OPLS_2005

> <r_lp_Energy>
2.04404

> <b_lp_Chiralities_Consistent>
1

> <s_lp_Variant>
AV-unprocessed.smi:3124-2

> <Gold.Version>
5.8.1

> <Gold.Id.Protein>
6NUR|6NUR_protein|mol2

> <Gold.PLP.Fitness>
28.5888

> <Gold.PLP.PLP>
-17.2905

> <Gold.PLP.part.hbond>
-3.0000

> <Gold.PLP.part.metal>
0.0000

> <Gold.PLP.part.buried>
-2.2670

> <Gold.PLP.part.nonpolar>
-12.4697

> <Gold.PLP.part.repulsive>
0.2791

> <Gold.PLP.ligand.clash>
0.0000

> <Gold.PLP.ligand.torsion>
0.3524

> <Gold.PLP.Chemscore.Hbond>
4.0000

> <Gold.PLP.Chemscore.CHOScore>
0.0000

> <Gold.PLP.Chemscore.Metal>
0.0000

> <Gold.Chemscore.Hbonds>
donor molecule, donor type, donor heavy atom, donor atom, acceptor molecule, acceptor atom, score
      L1  H     8    22       P1  7957  0.94
      L1  H     8    24       P1  7948  2.00
      P1  H  7989  7998       L1     9  1.00

> <Gold.PLP.Chemscore.Internal.Correction>
0.0031

> <Gold.Rescore>
     Score         DG    S(hbond)    S(metal)    S(lipo)     H(rot)  DE(clash)    DE(int)     intcor
     15.98     -16.41       2.82        0.00      41.31       1.30       0.05       0.38       ----

> <Gold.Chemscore.Fitness>
15.9831

> <Gold.Chemscore.DG>
-16.4148

> <Gold.Chemscore.ZeroCoef>
-5.4800

> <Gold.Chemscore.Hbond>
2.8223

> <Gold.Chemscore.Metal>
0.0000

> <Gold.Chemscore.Lipo>
41.3065

> <Gold.Chemscore.Internal_Hbond>
0.0000

> <Gold.Chemscore.DEClash>
0.0530

> <Gold.Chemscore.DEInternal>
0.3787

> <Gold.Chemscore.Rot>
1.2987

> <Gold.Chemscore.Internal.Correction>
   9.000000E+99

> <Gold.Chemscore.Hbonds>
donor molecule, donor type, donor heavy atom, donor atom, acceptor molecule, acceptor atom, score
      L1  H     8    22       P1  7957  0.91
      L1  H     8    24       P1  7948  1.00
      P1  H  7989  7998       L1     9  0.42

> <Gold.Chemscore.Hbond.Weighted>
-9.4266

> <Gold.Chemscore.Metal.Weighted>
-0.0000

> <Gold.Chemscore.Lipo.Weighted>
-4.8329

> <Gold.Chemscore.Internal_Hbond.Weighted>
0.0000

> <Gold.Chemscore.DEClash.Weighted>
0.0530

> <Gold.Chemscore.DEInternal.Weighted>
0.3787

> <Gold.Chemscore.Rot.Weighted>
3.3246

> <Gold.Chemscore.Internal.Correction.Weighted>
   9.000000E+99

> <Gold.Protein.RotatedTorsions>
[ 6907 6896 6895 6894 ] final -103.40 input  -60.11 | X-H torsion
[ 7974 7965 7964 7962 ] final   85.28 input  175.53 | X-H torsion
[ 8008 7997 7996 7995 ] final   19.49 input   59.86 | X-H torsion
[ 10167 10162 10161 10158 ] final  -18.74 input  -65.29 | X-H torsion
[ 10718 10713 10712 10709 ] final -176.22 input   66.30 | X-H torsion
[ 10763 10752 10751 10750 ] final -100.83 input  -60.55 | X-H torsion
[ 11005 11000 10999 10996 ] final   28.69 input  -57.11 | X-H torsion

> <Gold.Protein.ActiveResidues>
 VAL166  LYS551  ARG553  GLY616  TRP617  ASP618  TYR619  PRO620  LYS621  CYS622 
 ASP623  PHE694  ASN695  SER759  ASP760  ASP761  ALA762  ILE779  LEU786  VAL792 
 PHE793  MET794  SER795  GLU796  ALA797  LYS798  CYS799  TRP800  GLU811  SER814 

> <Gold.Protein.RotatedAtoms>
  150.7239  134.0435  159.3773 H   0  0  0  0  0  0  0  0  0  0  0  0  # atno 6907 bound_to 6896
  151.8409  135.0588  160.0457 H   0  0  0  0  0  0  0  0  0  0  0  0  # atno 6908 bound_to 6896
  152.2863  133.5482  159.5566 H   0  0  0  0  0  0  0  0  0  0  0  0  # atno 6909 bound_to 6896
  145.5876  139.2333  143.2318 H   0  0  0  0  0  0  0  0  0  0  0  0  # atno 7974 bound_to 7965
  154.9215  140.3028  155.5214 H   0  0  0  0  0  0  0  0  0  0  0  0  # atno 8008 bound_to 7997
  156.3009  140.2370  156.4202 H   0  0  0  0  0  0  0  0  0  0  0  0  # atno 8009 bound_to 7997
  154.8326  140.0417  157.1476 H   0  0  0  0  0  0  0  0  0  0  0  0  # atno 8010 bound_to 7997
  140.7262  143.4886  151.0021 H   0  0  0  0  0  0  0  0  0  0  0  0  # atno 10167 bound_to 10162
  156.8114  130.9587  151.3115 H   0  0  0  0  0  0  0  0  0  0  0  0  # atno 10718 bound_to 10713
  154.7610  135.4920  153.9465 H   0  0  0  0  0  0  0  0  0  0  0  0  # atno 10763 bound_to 10752
  153.1252  135.6740  153.9277 H   0  0  0  0  0  0  0  0  0  0  0  0  # atno 10764 bound_to 10752
  153.8997  135.3111  155.3427 H   0  0  0  0  0  0  0  0  0  0  0  0  # atno 10765 bound_to 10752
  140.3129  134.2629  155.7731 H   0  0  0  0  0  0  0  0  0  0  0  0  # atno 11005 bound_to 11000
  146.1671  140.6702  142.9250 LP  0  0  0  0  0  0  0  0  0  0  0  0  # atno 17320 bound_to 7965
  144.7366  140.4825  143.6899 LP  0  0  0  0  0  0  0  0  0  0  0  0  # atno 17321 bound_to 7965
  139.8589  143.7340  152.3174 LP  0  0  0  0  0  0  0  0  0  0  0  0  # atno 17342 bound_to 10162
  139.7549  144.7524  151.0451 LP  0  0  0  0  0  0  0  0  0  0  0  0  # atno 17343 bound_to 10162
  157.6504  130.8879  149.9621 LP  0  0  0  0  0  0  0  0  0  0  0  0  # atno 17370 bound_to 10713
  156.1042  130.3654  150.0163 LP  0  0  0  0  0  0  0  0  0  0  0  0  # atno 17371 bound_to 10713
  141.2104  133.7720  156.9933 LP  0  0  0  0  0  0  0  0  0  0  0  0  # atno 17394 bound_to 11000
  140.1009  134.9536  157.1921 LP  0  0  0  0  0  0  0  0  0  0  0  0  # atno 17395 bound_to 11000

$$$$
