AV-unprocessed.smi:1287|AV-procd|sdf|5379|dock5
  -GOLD-   22720 4523D 1   1.00000     0.00000
 Structure written by MMmdl.
 44 45  0  0  0  0  0  0  0  0  1 V2000
  145.8979  142.4350  154.7998 C   0  0  0  0  0  0  0  0  0  0  0  0
  146.8992  141.5089  154.1183 C   0  0  0  0  0  0  0  0  0  0  0  0
  148.0915  141.8115  154.0750 O   0  0  0  0  0  0  0  0  0  0  0  0
  146.4004  140.3796  153.5907 N   0  0  0  0  0  0  0  0  0  0  0  0
  147.1839  139.3455  152.9168 C   0  0  2  0  0  0  0  0  0  0  0  0
  146.2818  138.1170  152.7133 C   0  0  0  0  0  0  0  0  0  0  0  0
  148.3803  138.9310  153.7880 C   0  0  0  0  0  0  0  0  0  0  0  0
  148.2037  138.4744  154.9188 O   0  0  0  0  0  0  0  0  0  0  0  0
  149.5957  139.0996  153.2453 N   0  0  0  0  0  0  0  0  0  0  0  0
  150.8572  138.8235  153.9249 C   0  0  0  0  0  0  0  0  0  0  0  0
  151.1832  139.7907  155.0552 C   0  0  0  0  0  0  0  0  0  0  0  0
  150.4011  140.9366  155.3131 C   0  0  0  0  0  0  0  0  0  0  0  0
  150.7636  141.7872  156.3746 C   0  0  0  0  0  0  0  0  0  0  0  0
  151.9021  141.4738  157.1546 C   0  0  0  0  0  0  0  0  0  0  0  0
  152.2806  142.3090  158.2287 N   0  0  0  0  0  0  0  0  0  0  0  0
  152.5083  141.6873  159.5323 C   0  0  0  0  0  0  0  0  0  0  0  0
  153.1797  142.6831  160.4929 C   0  0  0  0  0  0  0  0  0  0  0  0
  152.3961  143.8683  160.5795 O   0  0  0  0  0  0  0  0  0  0  0  0
  152.2814  144.5191  159.3185 C   0  0  0  0  0  0  0  0  0  0  0  0
  151.5814  143.5892  158.3123 C   0  0  0  0  0  0  0  0  0  0  0  0
  152.6598  140.3797  156.8928 N   0  0  0  0  0  0  0  0  0  0  0  0
  152.3071  139.5667  155.8750 C   0  0  0  0  0  0  0  0  0  0  0  0
  145.3241  141.8910  155.5511 H   0  0  0  0  0  0  0  0  0  0  0  0
  145.2048  142.8501  154.0675 H   0  0  0  0  0  0  0  0  0  0  0  0
  146.4090  143.2617  155.2946 H   0  0  0  0  0  0  0  0  0  0  0  0
  145.4090  140.2111  153.6818 H   0  0  0  0  0  0  0  0  0  0  0  0
  147.5272  139.7115  151.9467 H   0  0  0  0  0  0  0  0  0  0  0  0
  146.8196  137.3088  152.2159 H   0  0  0  0  0  0  0  0  0  0  0  0
  145.4227  138.3654  152.0894 H   0  0  0  0  0  0  0  0  0  0  0  0
  145.9002  137.7302  153.6597 H   0  0  0  0  0  0  0  0  0  0  0  0
  149.6516  139.4759  152.3100 H   0  0  0  0  0  0  0  0  0  0  0  0
  150.8536  137.7999  154.3036 H   0  0  0  0  0  0  0  0  0  0  0  0
  151.6593  138.8767  153.1887 H   0  0  0  0  0  0  0  0  0  0  0  0
  149.5362  141.1704  154.7100 H   0  0  0  0  0  0  0  0  0  0  0  0
  150.1744  142.6713  156.5666 H   0  0  0  0  0  0  0  0  0  0  0  0
  151.5546  141.3553  159.9454 H   0  0  0  0  0  0  0  0  0  0  0  0
  153.1432  140.8067  159.4256 H   0  0  0  0  0  0  0  0  0  0  0  0
  153.2696  142.2433  161.4863 H   0  0  0  0  0  0  0  0  0  0  0  0
  154.1901  142.9250  160.1593 H   0  0  0  0  0  0  0  0  0  0  0  0
  151.7054  145.4360  159.4439 H   0  0  0  0  0  0  0  0  0  0  0  0
  153.2687  144.8105  158.9563 H   0  0  0  0  0  0  0  0  0  0  0  0
  151.5335  144.0887  157.3458 H   0  0  0  0  0  0  0  0  0  0  0  0
  150.5528  143.4077  158.6261 H   0  0  0  0  0  0  0  0  0  0  0  0
  152.9426  138.7085  155.7129 H   0  0  0  0  0  0  0  0  0  0  0  0
  1  2  1  0  0  0  0
  1 23  1  0  0  0  0
  1 24  1  0  0  0  0
  1 25  1  0  0  0  0
  2  3  2  0  0  0  0
  2  4  1  0  0  0  0
  4  5  1  0  0  0  0
  4 26  1  0  0  0  0
  5  6  1  0  0  0  0
  5  7  1  0  0  0  0
  5 27  1  0  0  0  0
  6 28  1  0  0  0  0
  6 29  1  0  0  0  0
  6 30  1  0  0  0  0
  7  8  2  0  0  0  0
  7  9  1  0  0  0  0
  9 10  1  0  0  0  0
  9 31  1  0  0  0  0
 10 11  1  0  0  0  0
 10 32  1  0  0  0  0
 10 33  1  0  0  0  0
 11 22  1  0  0  0  0
 11 12  2  0  0  0  0
 12 13  1  0  0  0  0
 12 34  1  0  0  0  0
 13 14  2  0  0  0  0
 13 35  1  0  0  0  0
 14 15  1  0  0  0  0
 14 21  1  0  0  0  0
 15 20  1  0  0  0  0
 15 16  1  0  0  0  0
 16 17  1  0  0  0  0
 16 36  1  0  0  0  0
 16 37  1  0  0  0  0
 17 18  1  0  0  0  0
 17 38  1  0  0  0  0
 17 39  1  0  0  0  0
 18 19  1  0  0  0  0
 19 20  1  0  0  0  0
 19 40  1  0  0  0  0
 19 41  1  0  0  0  0
 20 42  1  0  0  0  0
 20 43  1  0  0  0  0
 21 22  2  0  0  0  0
 22 44  1  0  0  0  0
M  END
> <s_m_source_file>
AV-unprocessed.smi

> <i_m_source_file_index>
1287

> <i_lp_mmshare_version>
43012

> <i_f3d_flags>
0

> <s_epik_input>
W0NIM11DKD1PKVtOSF1bQ0BIXShbQ0gzXSlDKD1PKVtOSF1bQ0gyXWMxW2NIXVtjSF1jKG5bY0hdMSlOMltDSDJdW0NIMl1PW0NIMl1bQ0gyXTI=

> <s_epik_cmdline>
J2VwaWtfcHl0aG9uJywgJy1waCcsICc3LjAnLCAnLXRuJywgJzgnLCAnLW1hJywgJzIwMCcsICctbWV0YWxfYmluZGluZycsICctaW1hZScsICc8aW5maWxlLm1hZT4nLCAnLW9tYWUnLCAnPG91dGZpbGUubWFlPic=

> <r_lp_tautomer_probability>
1

> <r_epik_Ionization_Penalty>
0.00481935

> <r_epik_Ionization_Penalty_Charging>
0

> <r_epik_Ionization_Penalty_Neutral>
0.00481935

> <r_epik_State_Penalty>
0.00349439

> <r_epik_Charging_Adjusted_Penalty>
0.00349439

> <i_epik_Tot_Q>
0

> <i_epik_Tot_abs_Q>
0

> <r_epik_Metal_State_Penalty>
-0

> <b_epik_Metal_Only>
0

> <s_lp_Force_Field>
OPLS_2005

> <r_lp_Energy>
14.7746

> <b_lp_Chiralities_Consistent>
1

> <s_lp_Variant>
AV-unprocessed.smi:1287-1

> <Gold.Version>
5.8.1

> <Gold.Id.Protein>
6NUR|6NUR_protein|mol2

> <Gold.PLP.Fitness>
56.1210

> <Gold.PLP.PLP>
-46.6508

> <Gold.PLP.part.hbond>
-4.8507

> <Gold.PLP.part.metal>
0.0000

> <Gold.PLP.part.buried>
-2.3417

> <Gold.PLP.part.nonpolar>
-38.1702

> <Gold.PLP.part.repulsive>
0.4396

> <Gold.PLP.ligand.clash>
0.0000

> <Gold.PLP.ligand.torsion>
0.3479

> <Gold.PLP.Chemscore.Hbond>
3.2588

> <Gold.PLP.Chemscore.CHOScore>
0.0000

> <Gold.PLP.Chemscore.Metal>
0.0000

> <Gold.Chemscore.Hbonds>
donor molecule, donor type, donor heavy atom, donor atom, acceptor molecule, acceptor atom, score
      L1  H     4    26       P1 10175  0.56
      L1  H     9    31       P1  7957  0.36
      P1  H  7997  8009       L1    21  0.65

> <Gold.PLP.Chemscore.Internal.Correction>
0.3895

> <Gold.Rescore>
     Score         DG    S(hbond)    S(metal)    S(lipo)     H(rot)  DE(clash)    DE(int)     intcor
     16.00     -19.24       2.20        0.00     102.18       2.16       0.42       2.82       ----

> <Gold.Chemscore.Fitness>
15.9967

> <Gold.Chemscore.DG>
-19.2376

> <Gold.Chemscore.ZeroCoef>
-5.4800

> <Gold.Chemscore.Hbond>
2.1964

> <Gold.Chemscore.Metal>
0.0000

> <Gold.Chemscore.Lipo>
102.1819

> <Gold.Chemscore.Internal_Hbond>
0.0000

> <Gold.Chemscore.DEClash>
0.4184

> <Gold.Chemscore.DEInternal>
2.8225

> <Gold.Chemscore.Rot>
2.1616

> <Gold.Chemscore.Internal.Correction>
   9.000000E+99

> <Gold.Chemscore.Hbonds>
donor molecule, donor type, donor heavy atom, donor atom, acceptor molecule, acceptor atom, score
      L1  H     4    26       P1 10175  0.57
      L1  H     9    31       P1  7957  0.35
      P1  H  7997  8009       L1    21  0.11
      P1  H  8011  8017       L1     3  0.01

> <Gold.Chemscore.Hbond.Weighted>
-7.3360

> <Gold.Chemscore.Metal.Weighted>
-0.0000

> <Gold.Chemscore.Lipo.Weighted>
-11.9553

> <Gold.Chemscore.Internal_Hbond.Weighted>
0.0000

> <Gold.Chemscore.DEClash.Weighted>
0.4184

> <Gold.Chemscore.DEInternal.Weighted>
2.8225

> <Gold.Chemscore.Rot.Weighted>
5.5336

> <Gold.Chemscore.Internal.Correction.Weighted>
   9.000000E+99

> <Gold.Protein.RotatedTorsions>
[ 6907 6896 6895 6894 ] final   34.10 input  -60.11 | X-H torsion
[ 7974 7965 7964 7962 ] final   44.03 input  175.53 | X-H torsion
[ 8008 7997 7996 7995 ] final  168.40 input   59.86 | X-H torsion
[ 10167 10162 10161 10158 ] final  109.30 input  -65.29 | X-H torsion
[ 10718 10713 10712 10709 ] final  -37.67 input   66.30 | X-H torsion
[ 10763 10752 10751 10750 ] final  148.15 input  -60.55 | X-H torsion
[ 11005 11000 10999 10996 ] final   65.06 input  -57.11 | X-H torsion

> <Gold.Protein.ActiveResidues>
 VAL166  LYS551  ARG553  GLY616  TRP617  ASP618  TYR619  PRO620  LYS621  CYS622 
 ASP623  PHE694  ASN695  SER759  ASP760  ASP761  ALA762  ILE779  LEU786  VAL792 
 PHE793  MET794  SER795  GLU796  ALA797  LYS798  CYS799  TRP800  GLU811  SER814 

> <Gold.Protein.RotatedAtoms>
  152.0977  134.9364  160.0570 H   0  0  0  0  0  0  0  0  0  0  0  0  # atno 6907 bound_to 6896
  152.0590  133.4048  159.4418 H   0  0  0  0  0  0  0  0  0  0  0  0  # atno 6908 bound_to 6896
  150.6838  134.3142  159.4802 H   0  0  0  0  0  0  0  0  0  0  0  0  # atno 6909 bound_to 6896
  146.0604  139.5120  142.9662 H   0  0  0  0  0  0  0  0  0  0  0  0  # atno 7974 bound_to 7965
  156.1550  140.1591  156.8708 H   0  0  0  0  0  0  0  0  0  0  0  0  # atno 8008 bound_to 7997
  154.5106  140.0802  156.8018 H   0  0  0  0  0  0  0  0  0  0  0  0  # atno 8009 bound_to 7997
  155.3822  140.3405  155.4249 H   0  0  0  0  0  0  0  0  0  0  0  0  # atno 8010 bound_to 7997
  139.6778  144.7121  151.1571 H   0  0  0  0  0  0  0  0  0  0  0  0  # atno 10167 bound_to 10162
  156.3125  130.4254  149.8036 H   0  0  0  0  0  0  0  0  0  0  0  0  # atno 10718 bound_to 10713
  154.0500  135.2882  155.3342 H   0  0  0  0  0  0  0  0  0  0  0  0  # atno 10763 bound_to 10752
  154.6875  135.5239  153.8349 H   0  0  0  0  0  0  0  0  0  0  0  0  # atno 10764 bound_to 10752
  153.0564  135.6597  154.0697 H   0  0  0  0  0  0  0  0  0  0  0  0  # atno 10765 bound_to 10752
  139.9918  134.6579  156.0077 H   0  0  0  0  0  0  0  0  0  0  0  0  # atno 11005 bound_to 11000
  145.6570  141.0250  143.1730 LP  0  0  0  0  0  0  0  0  0  0  0  0  # atno 17320 bound_to 7965
  144.7172  139.8156  143.7394 LP  0  0  0  0  0  0  0  0  0  0  0  0  # atno 17321 bound_to 7965
  140.7641  143.5746  150.8959 LP  0  0  0  0  0  0  0  0  0  0  0  0  # atno 17342 bound_to 10162
  139.9416  143.6376  152.3052 LP  0  0  0  0  0  0  0  0  0  0  0  0  # atno 17343 bound_to 10162
  156.5374  130.8285  151.3258 LP  0  0  0  0  0  0  0  0  0  0  0  0  # atno 17370 bound_to 10713
  157.7394  130.9831  150.2312 LP  0  0  0  0  0  0  0  0  0  0  0  0  # atno 17371 bound_to 10713
  141.1572  133.6542  156.4201 LP  0  0  0  0  0  0  0  0  0  0  0  0  # atno 17394 bound_to 11000
  140.4893  134.6590  157.5204 LP  0  0  0  0  0  0  0  0  0  0  0  0  # atno 17395 bound_to 11000

$$$$
