AV-unprocessed.smi:1376|AV-procd|sdf|5593|dock1
  -GOLD-   22720 5193D 1   1.00000     0.00000
 Structure written by MMmdl.
 42 43  0  0  0  0  0  0  0  0  1 V2000
  150.6259  140.3303  156.4527 O   0  0  0  0  0  0  0  0  0  0  0  0
  150.1842  141.3319  155.8871 C   0  0  0  0  0  0  0  0  0  0  0  0
  149.2098  141.2136  154.7058 C   0  0  0  0  0  0  0  0  0  0  0  0
  147.8497  141.6880  155.0117 N   0  0  0  0  0  0  0  0  0  0  0  0
  147.2288  142.5084  154.0485 C   0  0  0  0  0  0  0  0  0  0  0  0
  145.9936  143.0028  154.2264 C   0  0  0  0  0  0  0  0  0  0  0  0
  145.2962  142.6732  155.4468 C   0  0  0  0  0  0  0  0  0  0  0  0
  145.8816  141.8915  156.3759 C   0  0  0  0  0  0  0  0  0  0  0  0
  147.2331  141.3512  156.1867 C   0  0  0  0  0  0  0  0  0  0  0  0
  147.7774  140.6413  157.0326 O   0  0  0  0  0  0  0  0  0  0  0  0
  150.5055  142.5821  156.2537 N   0  0  0  0  0  0  0  0  0  0  0  0
  151.4146  142.9333  157.3406 C   0  0  1  0  0  0  0  0  0  0  0  0
  151.5830  144.4626  157.4034 C   0  0  0  0  0  0  0  0  0  0  0  0
  152.4982  144.8801  158.5657 C   0  0  0  0  0  0  0  0  0  0  0  0
  151.9999  144.3158  159.9077 C   0  0  0  0  0  0  0  0  0  0  0  0
  151.8303  142.7867  159.8564 C   0  0  2  0  0  0  0  0  0  0  0  0
  153.1286  142.2178  159.7198 O   0  0  0  0  0  0  0  0  0  0  0  0
  153.1780  140.7985  159.7671 C   0  0  0  0  0  0  0  0  0  0  0  0
  154.3242  140.3686  160.6903 C   0  0  0  0  0  0  0  0  0  0  0  0
  154.2216  139.0641  160.9423 F   0  0  0  0  0  0  0  0  0  0  0  0
  155.4985  140.6007  160.1046 F   0  0  0  0  0  0  0  0  0  0  0  0
  154.2603  141.0328  161.8442 F   0  0  0  0  0  0  0  0  0  0  0  0
  150.8989  142.3909  158.6908 C   0  0  0  0  0  0  0  0  0  0  0  0
  149.6205  141.7718  153.8630 H   0  0  0  0  0  0  0  0  0  0  0  0
  149.1861  140.1743  154.3729 H   0  0  0  0  0  0  0  0  0  0  0  0
  147.8208  142.7120  153.1679 H   0  0  0  0  0  0  0  0  0  0  0  0
  145.5354  143.6328  153.4785 H   0  0  0  0  0  0  0  0  0  0  0  0
  144.3007  143.0565  155.6163 H   0  0  0  0  0  0  0  0  0  0  0  0
  145.3447  141.6566  157.2833 H   0  0  0  0  0  0  0  0  0  0  0  0
  150.0981  143.3473  155.7358 H   0  0  0  0  0  0  0  0  0  0  0  0
  152.3906  142.4917  157.1302 H   0  0  0  0  0  0  0  0  0  0  0  0
  151.9938  144.8333  156.4636 H   0  0  0  0  0  0  0  0  0  0  0  0
  150.6081  144.9375  157.5235 H   0  0  0  0  0  0  0  0  0  0  0  0
  153.5126  144.5279  158.3744 H   0  0  0  0  0  0  0  0  0  0  0  0
  152.5565  145.9674  158.6195 H   0  0  0  0  0  0  0  0  0  0  0  0
  152.6906  144.5887  160.7064 H   0  0  0  0  0  0  0  0  0  0  0  0
  151.0442  144.7777  160.1588 H   0  0  0  0  0  0  0  0  0  0  0  0
  151.3952  142.4580  160.8016 H   0  0  0  0  0  0  0  0  0  0  0  0
  152.2334  140.4002  160.1400 H   0  0  0  0  0  0  0  0  0  0  0  0
  153.3409  140.3835  158.7727 H   0  0  0  0  0  0  0  0  0  0  0  0
  149.9033  142.7935  158.8828 H   0  0  0  0  0  0  0  0  0  0  0  0
  150.7719  141.3099  158.6497 H   0  0  0  0  0  0  0  0  0  0  0  0
  1  2  2  0  0  0  0
  2  3  1  0  0  0  0
  2 11  1  0  0  0  0
  3  4  1  0  0  0  0
  3 24  1  0  0  0  0
  3 25  1  0  0  0  0
  4  9  1  0  0  0  0
  4  5  1  0  0  0  0
  5  6  2  0  0  0  0
  5 26  1  0  0  0  0
  6  7  1  0  0  0  0
  6 27  1  0  0  0  0
  7  8  2  0  0  0  0
  7 28  1  0  0  0  0
  8  9  1  0  0  0  0
  8 29  1  0  0  0  0
  9 10  2  0  0  0  0
 11 12  1  0  0  0  0
 11 30  1  0  0  0  0
 12 23  1  0  0  0  0
 12 13  1  0  0  0  0
 12 31  1  0  0  0  0
 13 14  1  0  0  0  0
 13 32  1  0  0  0  0
 13 33  1  0  0  0  0
 14 15  1  0  0  0  0
 14 34  1  0  0  0  0
 14 35  1  0  0  0  0
 15 16  1  0  0  0  0
 15 36  1  0  0  0  0
 15 37  1  0  0  0  0
 16 17  1  0  0  0  0
 16 23  1  0  0  0  0
 16 38  1  0  0  0  0
 17 18  1  0  0  0  0
 18 19  1  0  0  0  0
 18 39  1  0  0  0  0
 18 40  1  0  0  0  0
 19 20  1  0  0  0  0
 19 21  1  0  0  0  0
 19 22  1  0  0  0  0
 23 41  1  0  0  0  0
 23 42  1  0  0  0  0
M  END
> <s_m_source_file>
AV-unprocessed.smi

> <i_m_source_file_index>
1376

> <i_lp_mmshare_version>
43012

> <i_f3d_flags>
0

> <s_epik_input>
Tz1jMVtjSF1bY0hdW2NIXVtjSF1uMVtDSDJdQyg9TylbTkhdW0NAQEhdMltDSDJdW0NIMl1bQ0gyXVtDQEhdKFtDSDJdMilPW0NIMl1DKEYpKEYpRg==

> <s_epik_cmdline>
J2VwaWtfcHl0aG9uJywgJy1waCcsICc3LjAnLCAnLXRuJywgJzgnLCAnLW1hJywgJzIwMCcsICctbWV0YWxfYmluZGluZycsICctaW1hZScsICc8aW5maWxlLm1hZT4nLCAnLW9tYWUnLCAnPG91dGZpbGUubWFlPic=

> <r_lp_tautomer_probability>
1

> <r_epik_Ionization_Penalty>
4.08567e-07

> <r_epik_Ionization_Penalty_Charging>
3.90028e-07

> <r_epik_Ionization_Penalty_Neutral>
1.85393e-08

> <r_epik_State_Penalty>
-0

> <r_epik_Charging_Adjusted_Penalty>
3.90028e-07

> <i_epik_Tot_Q>
0

> <i_epik_Tot_abs_Q>
0

> <r_epik_Metal_State_Penalty>
-0

> <b_epik_Metal_Only>
0

> <s_lp_Force_Field>
OPLS_2005

> <r_lp_Energy>
20.214

> <b_lp_Chiralities_Consistent>
1

> <s_lp_Variant>
AV-unprocessed.smi:1376-4

> <Gold.Version>
5.8.1

> <Gold.Id.Protein>
6NUR|6NUR_protein|mol2

> <Gold.PLP.Fitness>
52.4507

> <Gold.PLP.PLP>
-50.7175

> <Gold.PLP.part.hbond>
-1.0000

> <Gold.PLP.part.metal>
0.0000

> <Gold.PLP.part.buried>
-5.8482

> <Gold.PLP.part.nonpolar>
-44.4658

> <Gold.PLP.part.repulsive>
0.1378

> <Gold.PLP.ligand.clash>
0.0000

> <Gold.PLP.ligand.torsion>
0.7033

> <Gold.PLP.Chemscore.Hbond>
0.9920

> <Gold.PLP.Chemscore.CHOScore>
0.0000

> <Gold.PLP.Chemscore.Metal>
0.0000

> <Gold.Chemscore.Hbonds>
donor molecule, donor type, donor heavy atom, donor atom, acceptor molecule, acceptor atom, score
      L1  H    11    30       P1  8028  0.99

> <Gold.PLP.Chemscore.Internal.Correction>
0.1637

> <Gold.Rescore>
     Score         DG    S(hbond)    S(metal)    S(lipo)     H(rot)  DE(clash)    DE(int)     intcor
     12.87     -15.86       1.38        0.00      97.10       2.18       0.01       2.98       ----

> <Gold.Chemscore.Fitness>
12.8719

> <Gold.Chemscore.DG>
-15.8605

> <Gold.Chemscore.ZeroCoef>
-5.4800

> <Gold.Chemscore.Hbond>
1.3773

> <Gold.Chemscore.Metal>
0.0000

> <Gold.Chemscore.Lipo>
97.0977

> <Gold.Chemscore.Internal_Hbond>
0.0000

> <Gold.Chemscore.DEClash>
0.0106

> <Gold.Chemscore.DEInternal>
2.9780

> <Gold.Chemscore.Rot>
2.1797

> <Gold.Chemscore.Internal.Correction>
   9.000000E+99

> <Gold.Chemscore.Hbonds>
donor molecule, donor type, donor heavy atom, donor atom, acceptor molecule, acceptor atom, score
      L1  H    11    30       P1  8028  0.94

> <Gold.Chemscore.Hbond.Weighted>
-4.6002

> <Gold.Chemscore.Metal.Weighted>
-0.0000

> <Gold.Chemscore.Lipo.Weighted>
-11.3604

> <Gold.Chemscore.Internal_Hbond.Weighted>
0.0000

> <Gold.Chemscore.DEClash.Weighted>
0.0106

> <Gold.Chemscore.DEInternal.Weighted>
2.9780

> <Gold.Chemscore.Rot.Weighted>
5.5802

> <Gold.Chemscore.Internal.Correction.Weighted>
   9.000000E+99

> <Gold.Protein.RotatedTorsions>
[ 6907 6896 6895 6894 ] final  -39.41 input  -60.11 | X-H torsion
[ 7974 7965 7964 7962 ] final -171.81 input  175.53 | X-H torsion
[ 8008 7997 7996 7995 ] final   81.36 input   59.86 | X-H torsion
[ 10167 10162 10161 10158 ] final -112.47 input  -65.29 | X-H torsion
[ 10718 10713 10712 10709 ] final -108.76 input   66.30 | X-H torsion
[ 10763 10752 10751 10750 ] final  -23.84 input  -60.55 | X-H torsion
[ 11005 11000 10999 10996 ] final -167.29 input  -57.11 | X-H torsion

> <Gold.Protein.ActiveResidues>
 VAL166  LYS551  ARG553  GLY616  TRP617  ASP618  TYR619  PRO620  LYS621  CYS622 
 ASP623  PHE694  ASN695  SER759  ASP760  ASP761  ALA762  ILE779  LEU786  VAL792 
 PHE793  MET794  SER795  GLU796  ALA797  LYS798  CYS799  TRP800  GLU811  SER814 

> <Gold.Protein.RotatedAtoms>
  150.9907  134.9242  159.7897 H   0  0  0  0  0  0  0  0  0  0  0  0  # atno 6907 bound_to 6896
  152.5250  134.3285  159.9184 H   0  0  0  0  0  0  0  0  0  0  0  0  # atno 6908 bound_to 6896
  151.3291  133.3966  159.2695 H   0  0  0  0  0  0  0  0  0  0  0  0  # atno 6909 bound_to 6896
  144.7153  140.1867  143.6353 H   0  0  0  0  0  0  0  0  0  0  0  0  # atno 7974 bound_to 7965
  155.8961  140.3436  155.5992 H   0  0  0  0  0  0  0  0  0  0  0  0  # atno 8008 bound_to 7997
  155.7554  140.0825  157.2200 H   0  0  0  0  0  0  0  0  0  0  0  0  # atno 8009 bound_to 7997
  154.4038  140.1545  156.2759 H   0  0  0  0  0  0  0  0  0  0  0  0  # atno 8010 bound_to 7997
  140.1223  143.4432  152.1682 H   0  0  0  0  0  0  0  0  0  0  0  0  # atno 10167 bound_to 10162
  156.0502  130.5729  150.8006 H   0  0  0  0  0  0  0  0  0  0  0  0  # atno 10718 bound_to 10713
  153.6742  135.6970  153.5138 H   0  0  0  0  0  0  0  0  0  0  0  0  # atno 10763 bound_to 10752
  153.2534  135.4267  155.0820 H   0  0  0  0  0  0  0  0  0  0  0  0  # atno 10764 bound_to 10752
  154.8418  135.3537  154.6286 H   0  0  0  0  0  0  0  0  0  0  0  0  # atno 10765 bound_to 10752
  140.5549  134.5391  157.5130 H   0  0  0  0  0  0  0  0  0  0  0  0  # atno 11005 bound_to 11000
  145.8807  139.2321  143.1607 LP  0  0  0  0  0  0  0  0  0  0  0  0  # atno 17320 bound_to 7965
  145.9998  140.8530  143.0024 LP  0  0  0  0  0  0  0  0  0  0  0  0  # atno 17321 bound_to 7965
  139.5562  144.7374  151.4288 LP  0  0  0  0  0  0  0  0  0  0  0  0  # atno 17342 bound_to 10162
  140.6865  143.7963  150.7193 LP  0  0  0  0  0  0  0  0  0  0  0  0  # atno 17343 bound_to 10162
  157.5420  131.0941  150.9814 LP  0  0  0  0  0  0  0  0  0  0  0  0  # atno 17370 bound_to 10713
  157.0095  130.5631  149.5319 LP  0  0  0  0  0  0  0  0  0  0  0  0  # atno 17371 bound_to 10713
  139.9437  134.7741  156.0616 LP  0  0  0  0  0  0  0  0  0  0  0  0  # atno 17394 bound_to 11000
  141.1149  133.6631  156.3070 LP  0  0  0  0  0  0  0  0  0  0  0  0  # atno 17395 bound_to 11000

$$$$
