AV-unprocessed.smi:141|AV-procd|sdf|1188|dock1
  -GOLD-   2262018343D 1   1.00000     0.00000
 Structure written by MMmdl.
 56 59  0  0  0  0  0  0  0  0  1 V2000
  151.1467  135.6801  154.5610 O   0  0  0  0  0  0  0  0  0  0  0  0
  150.2237  136.3413  155.0411 C   0  0  0  0  0  0  0  0  0  0  0  0
  148.9379  135.6148  155.4905 C   0  0  0  0  0  0  0  0  0  0  0  0
  148.5865  134.4510  154.6456 N   0  0  0  0  0  0  0  0  0  0  0  0
  149.4600  133.3349  154.6276 C   0  0  0  0  0  0  0  0  0  0  0  0
  150.4852  133.3156  155.3108 O   0  0  0  0  0  0  0  0  0  0  0  0
  149.0665  132.2402  153.7477 C   0  0  0  0  0  0  0  0  0  0  0  0
  149.8401  131.1448  153.6615 F   0  0  0  0  0  0  0  0  0  0  0  0
  147.9386  132.3118  153.0115 C   0  0  0  0  0  0  0  0  0  0  0  0
  147.0929  133.4055  153.0422 N   0  0  0  0  0  0  0  0  0  0  0  0
  145.8466  133.4614  152.1870 C   0  0  1  0  0  0  0  0  0  0  0  0
  146.1788  133.0709  150.7421 C   0  0  0  0  0  0  0  0  0  0  0  0
  145.8470  131.5946  150.7344 C   0  0  0  0  0  0  0  0  0  0  0  0
  144.6514  131.5466  151.6785 C   0  0  0  0  0  0  0  0  0  0  0  0
  144.9172  132.5344  152.6709 O   0  0  0  0  0  0  0  0  0  0  0  0
  147.4123  134.5131  153.8572 C   0  0  0  0  0  0  0  0  0  0  0  0
  146.6915  135.5133  153.8701 O   0  0  0  0  0  0  0  0  0  0  0  0
  150.3048  137.6865  155.1889 N   0  0  0  0  0  0  0  0  0  0  0  0
  149.2826  138.5453  155.8020 C   0  0  0  0  0  0  0  0  0  0  0  0
  149.8185  139.0735  157.1450 C   0  0  0  0  0  0  0  0  0  0  0  0
  151.1553  139.8262  156.9588 C   0  0  0  0  0  0  0  0  0  0  0  0
  151.7525  140.2929  158.3053 C   0  0  0  0  0  0  0  0  0  0  0  0
  151.9982  141.7899  158.3463 C   0  0  0  0  0  0  0  0  0  0  0  0
  151.4163  142.6300  157.3738 C   0  0  0  0  0  0  0  0  0  0  0  0
  151.6375  144.0203  157.4167 C   0  0  0  0  0  0  0  0  0  0  0  0
  152.4397  144.5751  158.4328 C   0  0  0  0  0  0  0  0  0  0  0  0
  153.0198  143.7392  159.4068 C   0  0  0  0  0  0  0  0  0  0  0  0
  152.7997  142.3485  159.3639 C   0  0  0  0  0  0  0  0  0  0  0  0
  152.1526  138.9677  156.1498 C   0  0  0  0  0  0  0  0  0  0  0  0
  151.5131  138.4485  154.8495 C   0  0  0  0  0  0  0  0  0  0  0  0
  149.0530  135.3063  156.5308 H   0  0  0  0  0  0  0  0  0  0  0  0
  148.1165  136.3326  155.5070 H   0  0  0  0  0  0  0  0  0  0  0  0
  147.7026  131.4753  152.3707 H   0  0  0  0  0  0  0  0  0  0  0  0
  145.4471  134.4712  152.2938 H   0  0  0  0  0  0  0  0  0  0  0  0
  145.5122  133.6158  150.0725 H   0  0  0  0  0  0  0  0  0  0  0  0
  147.2117  133.2976  150.4745 H   0  0  0  0  0  0  0  0  0  0  0  0
  145.6215  131.2104  149.7395 H   0  0  0  0  0  0  0  0  0  0  0  0
  146.6779  131.0189  151.1437 H   0  0  0  0  0  0  0  0  0  0  0  0
  143.7387  131.8210  151.1475 H   0  0  0  0  0  0  0  0  0  0  0  0
  144.5044  130.5617  152.1221 H   0  0  0  0  0  0  0  0  0  0  0  0
  149.0698  139.3801  155.1325 H   0  0  0  0  0  0  0  0  0  0  0  0
  148.3250  138.0513  155.9570 H   0  0  0  0  0  0  0  0  0  0  0  0
  149.0809  139.7340  157.6023 H   0  0  0  0  0  0  0  0  0  0  0  0
  149.9544  138.2368  157.8319 H   0  0  0  0  0  0  0  0  0  0  0  0
  150.9420  140.7070  156.3503 H   0  0  0  0  0  0  0  0  0  0  0  0
  151.0982  140.0227  159.1354 H   0  0  0  0  0  0  0  0  0  0  0  0
  152.6958  139.7831  158.5062 H   0  0  0  0  0  0  0  0  0  0  0  0
  150.7970  142.2107  156.5941 H   0  0  0  0  0  0  0  0  0  0  0  0
  151.1910  144.6611  156.6707 H   0  0  0  0  0  0  0  0  0  0  0  0
  152.6084  145.6414  158.4659 H   0  0  0  0  0  0  0  0  0  0  0  0
  153.6329  144.1648  160.1874 H   0  0  0  0  0  0  0  0  0  0  0  0
  153.2449  141.7120  160.1149 H   0  0  0  0  0  0  0  0  0  0  0  0
  153.0425  139.5527  155.9150 H   0  0  0  0  0  0  0  0  0  0  0  0
  152.4873  138.1207  156.7507 H   0  0  0  0  0  0  0  0  0  0  0  0
  152.2421  137.8639  154.2875 H   0  0  0  0  0  0  0  0  0  0  0  0
  151.2440  139.2848  154.2027 H   0  0  0  0  0  0  0  0  0  0  0  0
  1  2  2  0  0  0  0
  2  3  1  0  0  0  0
  2 18  1  0  0  0  0
  3  4  1  0  0  0  0
  3 31  1  0  0  0  0
  3 32  1  0  0  0  0
  4 16  1  0  0  0  0
  4  5  1  0  0  0  0
  5  6  2  0  0  0  0
  5  7  1  0  0  0  0
  7  8  1  0  0  0  0
  7  9  2  0  0  0  0
  9 10  1  0  0  0  0
  9 33  1  0  0  0  0
 10 11  1  0  0  0  0
 10 16  1  0  0  0  0
 11 15  1  0  0  0  0
 11 12  1  0  0  0  0
 11 34  1  0  0  0  0
 12 13  1  0  0  0  0
 12 35  1  0  0  0  0
 12 36  1  0  0  0  0
 13 14  1  0  0  0  0
 13 37  1  0  0  0  0
 13 38  1  0  0  0  0
 14 15  1  0  0  0  0
 14 39  1  0  0  0  0
 14 40  1  0  0  0  0
 16 17  2  0  0  0  0
 18 30  1  0  0  0  0
 18 19  1  0  0  0  0
 19 20  1  0  0  0  0
 19 41  1  0  0  0  0
 19 42  1  0  0  0  0
 20 21  1  0  0  0  0
 20 43  1  0  0  0  0
 20 44  1  0  0  0  0
 21 22  1  0  0  0  0
 21 29  1  0  0  0  0
 21 45  1  0  0  0  0
 22 23  1  0  0  0  0
 22 46  1  0  0  0  0
 22 47  1  0  0  0  0
 23 28  1  0  0  0  0
 23 24  2  0  0  0  0
 24 25  1  0  0  0  0
 24 48  1  0  0  0  0
 25 26  2  0  0  0  0
 25 49  1  0  0  0  0
 26 27  1  0  0  0  0
 26 50  1  0  0  0  0
 27 28  2  0  0  0  0
 27 51  1  0  0  0  0
 28 52  1  0  0  0  0
 29 30  1  0  0  0  0
 29 53  1  0  0  0  0
 29 54  1  0  0  0  0
 30 55  1  0  0  0  0
 30 56  1  0  0  0  0
M  END
> <s_m_source_file>
AV-unprocessed.smi

> <i_m_source_file_index>
141

> <i_lp_mmshare_version>
43012

> <i_f3d_flags>
0

> <s_epik_input>
W2NIXTFbY0hdW2NIXVtjSF1bY0hdYzFbQ0gyXVtDSF0oW0NIMl1bQ0gyXTIpW0NIMl1bQ0gyXU4yQyg9TylbQ0gyXW4zYyg9TyljKEYpW2NIXW4oYzM9TylbQ0BASF00W0NIMl1bQ0gyXVtDSDJdTzQ=

> <s_epik_cmdline>
J2VwaWtfcHl0aG9uJywgJy1waCcsICc3LjAnLCAnLXRuJywgJzgnLCAnLW1hJywgJzIwMCcsICctbWV0YWxfYmluZGluZycsICctaW1hZScsICc8aW5maWxlLm1hZT4nLCAnLW9tYWUnLCAnPG91dGZpbGUubWFlPic=

> <r_lp_tautomer_probability>
1

> <r_epik_Ionization_Penalty>
3.78313e-08

> <r_epik_Ionization_Penalty_Charging>
4.95074e-09

> <r_epik_Ionization_Penalty_Neutral>
3.28806e-08

> <r_epik_State_Penalty>
-0

> <r_epik_Charging_Adjusted_Penalty>
4.95074e-09

> <i_epik_Tot_Q>
0

> <i_epik_Tot_abs_Q>
0

> <r_epik_Metal_State_Penalty>
-0

> <b_epik_Metal_Only>
0

> <s_epik_Chemistry_Notes>
This compound contains an acetal/aminal-like group ( X-CH(R)-Y where X, Y are N, S, or O) that may be acid/base labile, releasing an aldehyde.

> <s_lp_Force_Field>
OPLS_2005

> <r_lp_Energy>
51.0645

> <b_lp_Chiralities_Consistent>
1

> <s_lp_Variant>
AV-unprocessed.smi:141-2

> <Gold.Version>
5.8.1

> <Gold.Id.Protein>
6NUR|6NUR_protein|mol2

> <Gold.PLP.Fitness>
57.1542

> <Gold.PLP.PLP>
-54.4772

> <Gold.PLP.part.hbond>
-1.0000

> <Gold.PLP.part.metal>
0.0000

> <Gold.PLP.part.buried>
-3.9970

> <Gold.PLP.part.nonpolar>
-48.8105

> <Gold.PLP.part.repulsive>
1.5438

> <Gold.PLP.ligand.clash>
0.0000

> <Gold.PLP.ligand.torsion>
1.4739

> <Gold.PLP.Chemscore.Hbond>
1.0000

> <Gold.PLP.Chemscore.CHOScore>
0.8035

> <Gold.PLP.Chemscore.Metal>
0.0000

> <Gold.Chemscore.Hbonds>
donor molecule, donor type, donor heavy atom, donor atom, acceptor molecule, acceptor atom, score
      P1  H 10752 10764       L1     1  1.00
      L1  C     9    33       P1 10747  0.89

> <Gold.PLP.Chemscore.Internal.Correction>
0.2143

> <Gold.Rescore>
     Score         DG    S(hbond)    S(metal)    S(lipo)     H(rot)  DE(clash)    DE(int)     intcor
     14.04     -19.72       0.96        0.00     134.69       1.85       0.15       5.54       ----

> <Gold.Chemscore.Fitness>
14.0357

> <Gold.Chemscore.DG>
-19.7170

> <Gold.Chemscore.ZeroCoef>
-5.4800

> <Gold.Chemscore.Hbond>
0.9592

> <Gold.Chemscore.Metal>
0.0000

> <Gold.Chemscore.Lipo>
134.6936

> <Gold.Chemscore.Internal_Hbond>
0.0000

> <Gold.Chemscore.DEClash>
0.1461

> <Gold.Chemscore.DEInternal>
5.5353

> <Gold.Chemscore.Rot>
1.8461

> <Gold.Chemscore.Internal.Correction>
   9.000000E+99

> <Gold.Chemscore.Hbonds>
donor molecule, donor type, donor heavy atom, donor atom, acceptor molecule, acceptor atom, score
      P1  H 10752 10764       L1     1  0.99

> <Gold.Chemscore.Hbond.Weighted>
-3.2039

> <Gold.Chemscore.Metal.Weighted>
-0.0000

> <Gold.Chemscore.Lipo.Weighted>
-15.7591

> <Gold.Chemscore.Internal_Hbond.Weighted>
0.0000

> <Gold.Chemscore.DEClash.Weighted>
0.1461

> <Gold.Chemscore.DEInternal.Weighted>
5.5353

> <Gold.Chemscore.Rot.Weighted>
4.7260

> <Gold.Chemscore.Internal.Correction.Weighted>
   9.000000E+99

> <Gold.Protein.RotatedTorsions>
[ 6907 6896 6895 6894 ] final  157.71 input  -60.11 | X-H torsion
[ 7974 7965 7964 7962 ] final -126.26 input  175.53 | X-H torsion
[ 8008 7997 7996 7995 ] final  158.21 input   59.86 | X-H torsion
[ 10167 10162 10161 10158 ] final   -2.31 input  -65.29 | X-H torsion
[ 10718 10713 10712 10709 ] final   69.31 input   66.30 | X-H torsion
[ 10763 10752 10751 10750 ] final  -66.25 input  -60.55 | X-H torsion
[ 11005 11000 10999 10996 ] final -121.49 input  -57.11 | X-H torsion

> <Gold.Protein.ActiveResidues>
 VAL166  LYS551  ARG553  GLY616  TRP617  ASP618  TYR619  PRO620  LYS621  CYS622 
 ASP623  PHE694  ASN695  SER759  ASP760  ASP761  ALA762  ILE779  LEU786  VAL792 
 PHE793  MET794  SER795  GLU796  ALA797  LYS798  CYS799  TRP800  GLU811  SER814 

> <Gold.Protein.RotatedAtoms>
  152.0110  133.3861  159.4219 H   0  0  0  0  0  0  0  0  0  0  0  0  # atno 6907 bound_to 6896
  150.6899  134.3730  159.5009 H   0  0  0  0  0  0  0  0  0  0  0  0  # atno 6908 bound_to 6896
  152.1491  134.9002  160.0600 H   0  0  0  0  0  0  0  0  0  0  0  0  # atno 6909 bound_to 6896
  144.9891  140.7714  143.4565 H   0  0  0  0  0  0  0  0  0  0  0  0  # atno 7974 bound_to 7965
  156.2317  140.1864  156.7226 H   0  0  0  0  0  0  0  0  0  0  0  0  # atno 8008 bound_to 7997
  154.6034  140.0632  156.9426 H   0  0  0  0  0  0  0  0  0  0  0  0  # atno 8009 bound_to 7997
  155.2137  140.3302  155.4328 H   0  0  0  0  0  0  0  0  0  0  0  0  # atno 8010 bound_to 7997
  140.6846  143.6672  150.8216 H   0  0  0  0  0  0  0  0  0  0  0  0  # atno 10167 bound_to 10162
  157.6339  130.9419  150.0497 H   0  0  0  0  0  0  0  0  0  0  0  0  # atno 10718 bound_to 10713
  154.3570  135.6124  153.5671 H   0  0  0  0  0  0  0  0  0  0  0  0  # atno 10763 bound_to 10752
  152.9795  135.5806  154.4677 H   0  0  0  0  0  0  0  0  0  0  0  0  # atno 10764 bound_to 10752
  154.4408  135.2850  155.1826 H   0  0  0  0  0  0  0  0  0  0  0  0  # atno 10765 bound_to 10752
  141.0066  134.0325  157.3469 H   0  0  0  0  0  0  0  0  0  0  0  0  # atno 11005 bound_to 11000
  145.2311  139.2114  143.5042 LP  0  0  0  0  0  0  0  0  0  0  0  0  # atno 17320 bound_to 7965
  146.3427  140.2188  142.8591 LP  0  0  0  0  0  0  0  0  0  0  0  0  # atno 17321 bound_to 7965
  140.0377  143.5378  152.2732 LP  0  0  0  0  0  0  0  0  0  0  0  0  # atno 17342 bound_to 10162
  139.6194  144.7626  151.2774 LP  0  0  0  0  0  0  0  0  0  0  0  0  # atno 17343 bound_to 10162
  156.1563  130.3643  149.9365 LP  0  0  0  0  0  0  0  0  0  0  0  0  # atno 17370 bound_to 10713
  156.7373  130.9066  151.3630 LP  0  0  0  0  0  0  0  0  0  0  0  0  # atno 17371 bound_to 10713
  139.9067  135.0181  156.7515 LP  0  0  0  0  0  0  0  0  0  0  0  0  # atno 17394 bound_to 11000
  140.6802  133.9481  155.7906 LP  0  0  0  0  0  0  0  0  0  0  0  0  # atno 17395 bound_to 11000

$$$$
