AV-unprocessed.smi:323|AV-procd|sdf|2339|dock2
  -GOLD-   2262022253D 1   1.00000     0.00000
 Structure written by MMmdl.
 41 42  0  0  0  0  0  0  0  0  1 V2000
  149.7978  130.9198  153.9635 C   0  0  0  0  0  0  0  0  0  0  0  0
  149.1105  132.2844  154.1303 C   0  0  0  0  0  0  0  0  0  0  0  0
  148.4014  132.6950  152.8318 C   0  0  0  0  0  0  0  0  0  0  0  0
  150.0876  133.3859  154.6033 C   0  0  0  0  0  0  0  0  0  0  0  0
  149.4263  134.6091  155.2738 C   0  0  0  0  0  0  0  0  0  0  0  0
  149.8918  135.8621  154.6906 N   0  0  0  0  0  0  0  0  0  0  0  0
  150.7615  136.7088  155.2640 C   0  0  0  0  0  0  0  0  0  0  0  0
  151.1549  136.5976  156.4248 O   0  0  0  0  0  0  0  0  0  0  0  0
  151.3079  137.8253  154.3715 C   0  0  0  0  0  0  0  0  0  0  0  0
  151.0131  139.1516  155.0109 C   0  0  0  0  0  0  0  0  0  0  0  0
  150.0922  140.0825  154.5968 C   0  0  0  0  0  0  0  0  0  0  0  0
  149.9952  141.4363  155.6904 S   0  0  0  0  0  0  0  0  0  0  0  0
  151.2400  140.6776  156.6871 C   0  0  0  0  0  0  0  0  0  0  0  0
  151.7493  141.1639  157.9279 N   0  0  0  0  0  0  0  0  0  0  0  0
  151.2227  142.3723  158.5565 C   0  0  0  0  0  0  0  0  0  0  0  0
  152.1903  142.7085  159.6952 C   0  0  0  0  0  0  0  0  0  0  0  0
  153.0136  141.4409  159.9111 C   0  0  0  0  0  0  0  0  0  0  0  0
  152.7373  140.6215  158.6613 C   0  0  0  0  0  0  0  0  0  0  0  0
  153.3756  139.6011  158.4078 O   0  0  0  0  0  0  0  0  0  0  0  0
  151.6888  139.5269  156.1770 N   0  0  0  0  0  0  0  0  0  0  0  0
  150.6123  130.9720  153.2409 H   0  0  0  0  0  0  0  0  0  0  0  0
  149.0909  130.1667  153.6138 H   0  0  0  0  0  0  0  0  0  0  0  0
  150.2083  130.5604  154.9064 H   0  0  0  0  0  0  0  0  0  0  0  0
  148.3305  132.1697  154.8797 H   0  0  0  0  0  0  0  0  0  0  0  0
  149.1121  132.8289  152.0158 H   0  0  0  0  0  0  0  0  0  0  0  0
  147.8589  133.6319  152.9607 H   0  0  0  0  0  0  0  0  0  0  0  0
  147.6768  131.9398  152.5252 H   0  0  0  0  0  0  0  0  0  0  0  0
  150.8172  132.9535  155.2890 H   0  0  0  0  0  0  0  0  0  0  0  0
  150.6635  133.7386  153.7465 H   0  0  0  0  0  0  0  0  0  0  0  0
  148.3430  134.5621  155.1667 H   0  0  0  0  0  0  0  0  0  0  0  0
  149.6225  134.5984  156.3470 H   0  0  0  0  0  0  0  0  0  0  0  0
  149.6235  136.0422  153.7337 H   0  0  0  0  0  0  0  0  0  0  0  0
  152.3807  137.6899  154.2260 H   0  0  0  0  0  0  0  0  0  0  0  0
  150.8478  137.7588  153.3846 H   0  0  0  0  0  0  0  0  0  0  0  0
  149.4457  140.0397  153.7329 H   0  0  0  0  0  0  0  0  0  0  0  0
  151.1442  143.2016  157.8530 H   0  0  0  0  0  0  0  0  0  0  0  0
  150.2252  142.1636  158.9452 H   0  0  0  0  0  0  0  0  0  0  0  0
  152.8452  143.5291  159.3989 H   0  0  0  0  0  0  0  0  0  0  0  0
  151.6633  143.0166  160.5986 H   0  0  0  0  0  0  0  0  0  0  0  0
  154.0770  141.6551  160.0226 H   0  0  0  0  0  0  0  0  0  0  0  0
  152.6727  140.8896  160.7880 H   0  0  0  0  0  0  0  0  0  0  0  0
  1  2  1  0  0  0  0
  1 21  1  0  0  0  0
  1 22  1  0  0  0  0
  1 23  1  0  0  0  0
  2  3  1  0  0  0  0
  2  4  1  0  0  0  0
  2 24  1  0  0  0  0
  3 25  1  0  0  0  0
  3 26  1  0  0  0  0
  3 27  1  0  0  0  0
  4  5  1  0  0  0  0
  4 28  1  0  0  0  0
  4 29  1  0  0  0  0
  5  6  1  0  0  0  0
  5 30  1  0  0  0  0
  5 31  1  0  0  0  0
  6  7  1  0  0  0  0
  6 32  1  0  0  0  0
  7  8  2  0  0  0  0
  7  9  1  0  0  0  0
  9 10  1  0  0  0  0
  9 33  1  0  0  0  0
  9 34  1  0  0  0  0
 10 20  1  0  0  0  0
 10 11  2  0  0  0  0
 11 12  1  0  0  0  0
 11 35  1  0  0  0  0
 12 13  1  0  0  0  0
 13 14  1  0  0  0  0
 13 20  2  0  0  0  0
 14 18  1  0  0  0  0
 14 15  1  0  0  0  0
 15 16  1  0  0  0  0
 15 36  1  0  0  0  0
 15 37  1  0  0  0  0
 16 17  1  0  0  0  0
 16 38  1  0  0  0  0
 16 39  1  0  0  0  0
 17 18  1  0  0  0  0
 17 40  1  0  0  0  0
 17 41  1  0  0  0  0
 18 19  2  0  0  0  0
M  END
> <s_m_source_file>
AV-unprocessed.smi

> <i_m_source_file_index>
323

> <i_lp_mmshare_version>
43012

> <i_f3d_flags>
0

> <s_epik_input>
W0NIM11bQ0hdKFtDSDNdKVtDSDJdW0NIMl1bTkhdQyg9TylbQ0gyXWMxW2NIXXNjKG4xKU4yW0NIMl1bQ0gyXVtDSDJdQzI9Tw==

> <s_epik_cmdline>
J2VwaWtfcHl0aG9uJywgJy1waCcsICc3LjAnLCAnLXRuJywgJzgnLCAnLW1hJywgJzIwMCcsICctbWV0YWxfYmluZGluZycsICctaW1hZScsICc8aW5maWxlLm1hZT4nLCAnLW9tYWUnLCAnPG91dGZpbGUubWFlPic=

> <r_lp_tautomer_probability>
1

> <r_epik_Ionization_Penalty>
3.047e-05

> <r_epik_Ionization_Penalty_Charging>
0

> <r_epik_Ionization_Penalty_Neutral>
3.047e-05

> <r_epik_State_Penalty>
-0

> <r_epik_Charging_Adjusted_Penalty>
0

> <i_epik_Tot_Q>
0

> <i_epik_Tot_abs_Q>
0

> <r_epik_Metal_State_Penalty>
-0

> <b_epik_Metal_Only>
0

> <s_lp_Force_Field>
OPLS_2005

> <r_lp_Energy>
17.0488

> <b_lp_Chiralities_Consistent>
1

> <s_lp_Variant>
AV-unprocessed.smi:323-1

> <Gold.Version>
5.8.1

> <Gold.Id.Protein>
6NUR|6NUR_protein|mol2

> <Gold.PLP.Fitness>
49.3280

> <Gold.PLP.PLP>
-41.7311

> <Gold.PLP.part.hbond>
-2.0000

> <Gold.PLP.part.metal>
0.0000

> <Gold.PLP.part.buried>
-3.0789

> <Gold.PLP.part.nonpolar>
-36.9576

> <Gold.PLP.part.repulsive>
0.0445

> <Gold.PLP.ligand.clash>
0.0000

> <Gold.PLP.ligand.torsion>
0.7429

> <Gold.PLP.Chemscore.Hbond>
2.0000

> <Gold.PLP.Chemscore.CHOScore>
1.0000

> <Gold.PLP.Chemscore.Metal>
0.0000

> <Gold.Chemscore.Hbonds>
donor molecule, donor type, donor heavy atom, donor atom, acceptor molecule, acceptor atom, score
      L1  H     6    32       P1  7948  1.00
      P1  H  7997  8008       L1    19  1.00
      L1  C    11    35       P1  7957  0.88

> <Gold.PLP.Chemscore.Internal.Correction>
0.0826

> <Gold.Rescore>
     Score         DG    S(hbond)    S(metal)    S(lipo)     H(rot)  DE(clash)    DE(int)     intcor
     14.22     -17.16       1.86        0.00      84.98       1.74       0.08       2.86       ----

> <Gold.Chemscore.Fitness>
14.2216

> <Gold.Chemscore.DG>
-17.1553

> <Gold.Chemscore.ZeroCoef>
-5.4800

> <Gold.Chemscore.Hbond>
1.8559

> <Gold.Chemscore.Metal>
0.0000

> <Gold.Chemscore.Lipo>
84.9816

> <Gold.Chemscore.Internal_Hbond>
0.0000

> <Gold.Chemscore.DEClash>
0.0757

> <Gold.Chemscore.DEInternal>
2.8580

> <Gold.Chemscore.Rot>
1.7446

> <Gold.Chemscore.Internal.Correction>
   9.000000E+99

> <Gold.Chemscore.Hbonds>
donor molecule, donor type, donor heavy atom, donor atom, acceptor molecule, acceptor atom, score
      L1  H     6    32       P1  7948  0.39
      P1  H  7997  8008       L1    19  0.73

> <Gold.Chemscore.Hbond.Weighted>
-6.1986

> <Gold.Chemscore.Metal.Weighted>
-0.0000

> <Gold.Chemscore.Lipo.Weighted>
-9.9428

> <Gold.Chemscore.Internal_Hbond.Weighted>
0.0000

> <Gold.Chemscore.DEClash.Weighted>
0.0757

> <Gold.Chemscore.DEInternal.Weighted>
2.8580

> <Gold.Chemscore.Rot.Weighted>
4.4662

> <Gold.Chemscore.Internal.Correction.Weighted>
   9.000000E+99

> <Gold.Protein.RotatedTorsions>
[ 6907 6896 6895 6894 ] final  -42.77 input  -60.11 | X-H torsion
[ 7974 7965 7964 7962 ] final  152.66 input  175.53 | X-H torsion
[ 8008 7997 7996 7995 ] final -103.69 input   59.86 | X-H torsion
[ 10167 10162 10161 10158 ] final  -89.24 input  -65.29 | X-H torsion
[ 10718 10713 10712 10709 ] final  164.55 input   66.30 | X-H torsion
[ 10763 10752 10751 10750 ] final  -83.65 input  -60.55 | X-H torsion
[ 11005 11000 10999 10996 ] final  -62.39 input  -57.11 | X-H torsion

> <Gold.Protein.ActiveResidues>
 VAL166  LYS551  ARG553  GLY616  TRP617  ASP618  TYR619  PRO620  LYS621  CYS622 
 ASP623  PHE694  ASN695  SER759  ASP760  ASP761  ALA762  ILE779  LEU786  VAL792 
 PHE793  MET794  SER795  GLU796  ALA797  LYS798  CYS799  TRP800  GLU811  SER814 

> <Gold.Protein.RotatedAtoms>
  150.9515  134.8914  159.7674 H   0  0  0  0  0  0  0  0  0  0  0  0  # atno 6907 bound_to 6896
  152.5121  134.3800  159.9358 H   0  0  0  0  0  0  0  0  0  0  0  0  # atno 6908 bound_to 6896
  151.3815  133.3779  159.2745 H   0  0  0  0  0  0  0  0  0  0  0  0  # atno 6909 bound_to 6896
  144.8207  139.6697  143.6101 H   0  0  0  0  0  0  0  0  0  0  0  0  # atno 7974 bound_to 7965
  154.8745  140.0421  157.1745 H   0  0  0  0  0  0  0  0  0  0  0  0  # atno 8008 bound_to 7997
  154.8704  140.2957  155.5464 H   0  0  0  0  0  0  0  0  0  0  0  0  # atno 8009 bound_to 7997
  156.2999  140.2430  156.3692 H   0  0  0  0  0  0  0  0  0  0  0  0  # atno 8010 bound_to 7997
  140.3667  143.2814  151.9549 H   0  0  0  0  0  0  0  0  0  0  0  0  # atno 10167 bound_to 10162
  157.0928  131.0422  151.2530 H   0  0  0  0  0  0  0  0  0  0  0  0  # atno 10718 bound_to 10713
  154.5903  135.5548  153.7271 H   0  0  0  0  0  0  0  0  0  0  0  0  # atno 10763 bound_to 10752
  153.0114  135.6341  154.1859 H   0  0  0  0  0  0  0  0  0  0  0  0  # atno 10764 bound_to 10752
  154.1799  135.2887  155.3035 H   0  0  0  0  0  0  0  0  0  0  0  0  # atno 10765 bound_to 10752
  141.1358  133.6639  156.5521 H   0  0  0  0  0  0  0  0  0  0  0  0  # atno 11005 bound_to 11000
  146.2512  139.6205  142.9425 LP  0  0  0  0  0  0  0  0  0  0  0  0  # atno 17320 bound_to 7965
  145.5111  141.0435  143.2487 LP  0  0  0  0  0  0  0  0  0  0  0  0  # atno 17321 bound_to 7965
  139.4808  144.5944  151.7716 LP  0  0  0  0  0  0  0  0  0  0  0  0  # atno 17342 bound_to 10162
  140.5073  144.1078  150.5986 LP  0  0  0  0  0  0  0  0  0  0  0  0  # atno 17343 bound_to 10162
  157.4707  130.7707  149.7321 LP  0  0  0  0  0  0  0  0  0  0  0  0  # atno 17370 bound_to 10713
  155.9893  130.3952  150.3076 LP  0  0  0  0  0  0  0  0  0  0  0  0  # atno 17371 bound_to 10713
  140.4055  134.7318  157.4805 LP  0  0  0  0  0  0  0  0  0  0  0  0  # atno 17394 bound_to 11000
  140.0465  134.6192  155.8915 LP  0  0  0  0  0  0  0  0  0  0  0  0  # atno 17395 bound_to 11000

$$$$
