AV-unprocessed.smi:526|AV-procd|sdf|2813|dock3
  -GOLD-   2262023293D 1   1.00000     0.00000
 Structure written by MMmdl.
 30 30  0  0  0  0  0  0  0  0  2 V2000
  152.5320  144.4897  158.0668 C   0  0  0  0  0  0  0  0  0  0  0  0
  151.9867  143.5601  158.8684 C   0  0  0  0  0  0  0  0  0  0  0  0
  152.2232  143.5529  160.3668 C   0  0  0  0  0  0  0  0  0  0  0  0
  151.0982  142.4534  158.3310 C   0  0  0  0  0  0  0  0  0  0  0  0
  151.1285  142.3590  156.5149 S   0  0  0  0  0  0  0  0  0  0  0  0
  150.7021  140.6540  156.1947 C   0  0  0  0  0  0  0  0  0  0  0  0
  150.4085  139.9334  157.2765 N   0  0  0  0  0  0  0  0  0  0  0  0
  150.0800  138.6384  157.0736 C   0  0  0  0  0  0  0  0  0  0  0  0
  149.7539  137.8366  158.3206 C   0  0  0  0  0  0  0  0  0  0  0  0
  150.0429  138.0745  155.7725 C   0  0  0  0  0  0  0  0  0  0  0  0
  149.6768  136.6118  155.5307 C   0  0  0  0  0  0  0  0  0  0  0  0
  150.6007  135.7205  156.3676 C   0  0  0  0  0  0  0  0  0  0  0  0
  151.8064  135.6907  156.0377 O   0  0  0  0  0  0  0  0  0  0  0  0
  150.0954  135.0909  157.3234 O   0  5  0  0  0  0  0  0  0  0  0  0
  150.3760  138.9461  154.7053 C   0  0  0  0  0  0  0  0  0  0  0  0
  150.3723  138.5042  153.4140 O   0  0  0  0  0  0  0  0  0  0  0  0
  150.7030  140.2374  154.9267 N   0  0  0  0  0  0  0  0  0  0  0  0
  150.1602  139.1874  152.7973 H   0  0  0  0  0  0  0  0  0  0  0  0
  153.1625  145.2719  158.4636 H   0  0  0  0  0  0  0  0  0  0  0  0
  152.3571  144.4829  157.0008 H   0  0  0  0  0  0  0  0  0  0  0  0
  152.7195  142.6320  160.6732 H   0  0  0  0  0  0  0  0  0  0  0  0
  151.2745  143.6253  160.8994 H   0  0  0  0  0  0  0  0  0  0  0  0
  152.8490  144.3913  160.6746 H   0  0  0  0  0  0  0  0  0  0  0  0
  151.4236  141.5031  158.7552 H   0  0  0  0  0  0  0  0  0  0  0  0
  150.0696  142.6170  158.6553 H   0  0  0  0  0  0  0  0  0  0  0  0
  148.7131  137.5138  158.3038 H   0  0  0  0  0  0  0  0  0  0  0  0
  149.9082  138.4274  159.2244 H   0  0  0  0  0  0  0  0  0  0  0  0
  150.3904  136.9543  158.3869 H   0  0  0  0  0  0  0  0  0  0  0  0
  149.7801  136.3508  154.4775 H   0  0  0  0  0  0  0  0  0  0  0  0
  148.6334  136.4306  155.7901 H   0  0  0  0  0  0  0  0  0  0  0  0
  1  2  2  0  0  0  0
  1 19  1  0  0  0  0
  1 20  1  0  0  0  0
  2  3  1  0  0  0  0
  2  4  1  0  0  0  0
  3 21  1  0  0  0  0
  3 22  1  0  0  0  0
  3 23  1  0  0  0  0
  4 24  1  0  0  0  0
  4 25  1  0  0  0  0
  4  5  1  0  0  0  0
  5  6  1  0  0  0  0
  6 17  1  0  0  0  0
  6  7  2  0  0  0  0
  7  8  1  0  0  0  0
  8 10  2  0  0  0  0
  8  9  1  0  0  0  0
  9 26  1  0  0  0  0
  9 27  1  0  0  0  0
  9 28  1  0  0  0  0
 10 15  1  0  0  0  0
 10 11  1  0  0  0  0
 11 12  1  0  0  0  0
 11 29  1  0  0  0  0
 11 30  1  0  0  0  0
 12 13  2  0  0  0  0
 12 14  1  0  0  0  0
 15 17  2  0  0  0  0
 15 16  1  0  0  0  0
 16 18  1  0  0  0  0
M  CHG  1  14  -1
M  END
> <s_m_source_file>
AV-unprocessed.smi

> <i_m_source_file_index>
526

> <i_lp_mmshare_version>
43012

> <i_f3d_flags>
0

> <s_epik_input>
W0NIMl09QyhbQ0gzXSlbQ0gyXVNjMW5jKFtDSDNdKWMoYyg9TylbbkhdMSlbQ0gyXUMoPU8pW09IXQ==

> <s_epik_cmdline>
J2VwaWtfcHl0aG9uJywgJy1waCcsICc3LjAnLCAnLXRuJywgJzgnLCAnLW1hJywgJzIwMCcsICctbWV0YWxfYmluZGluZycsICctaW1hZScsICc8aW5maWxlLm1hZT4nLCAnLW9tYWUnLCAnPG91dGZpbGUubWFlPic=

> <r_lp_tautomer_probability>
0.0660145

> <r_epik_Ionization_Penalty>
2.37967

> <r_epik_Ionization_Penalty_Charging>
0.000421182

> <r_epik_Ionization_Penalty_Neutral>
2.37925

> <r_epik_State_Penalty>
1.68674

> <r_epik_Charging_Adjusted_Penalty>
1.68716

> <i_epik_Tot_Q>
-1

> <i_epik_Tot_abs_Q>
1

> <r_epik_Metal_State_Penalty>
1.80034

> <b_epik_Metal_Only>
0

> <s_lp_Force_Field>
OPLS_2005

> <r_lp_Energy>
-7.53164

> <b_lp_Chiralities_Consistent>
1

> <s_lp_Variant>
AV-unprocessed.smi:526-3

> <Gold.Version>
5.8.1

> <Gold.Id.Protein>
6NUR|6NUR_protein|mol2

> <Gold.PLP.Fitness>
46.3120

> <Gold.PLP.PLP>
-30.8603

> <Gold.PLP.part.hbond>
-5.1370

> <Gold.PLP.part.metal>
0.0000

> <Gold.PLP.part.buried>
-4.6245

> <Gold.PLP.part.nonpolar>
-21.5024

> <Gold.PLP.part.repulsive>
0.0596

> <Gold.PLP.ligand.clash>
0.0000

> <Gold.PLP.ligand.torsion>
0.3517

> <Gold.PLP.Chemscore.Hbond>
5.3764

> <Gold.PLP.Chemscore.CHOScore>
0.0000

> <Gold.PLP.Chemscore.Metal>
0.0000

> <Gold.Chemscore.Hbonds>
donor molecule, donor type, donor heavy atom, donor atom, acceptor molecule, acceptor atom, score
      L1  H    16    18       P1  7957  1.00
      P1  H  6896  6908       L1    14  0.49
      P1  H  7989  7998       L1    17  1.00
      P1  H 10752 10763       L1    13  2.00

> <Gold.PLP.Chemscore.Internal.Correction>
0.0259

> <Gold.Rescore>
     Score         DG    S(hbond)    S(metal)    S(lipo)     H(rot)  DE(clash)    DE(int)     intcor
     16.23     -16.64       3.25        0.00      66.65       2.92       0.01       0.41       ----

> <Gold.Chemscore.Fitness>
16.2253

> <Gold.Chemscore.DG>
-16.6440

> <Gold.Chemscore.ZeroCoef>
-5.4800

> <Gold.Chemscore.Hbond>
3.2450

> <Gold.Chemscore.Metal>
0.0000

> <Gold.Chemscore.Lipo>
66.6458

> <Gold.Chemscore.Internal_Hbond>
0.0000

> <Gold.Chemscore.DEClash>
0.0132

> <Gold.Chemscore.DEInternal>
0.4055

> <Gold.Chemscore.Rot>
2.9187

> <Gold.Chemscore.Internal.Correction>
   9.000000E+99

> <Gold.Chemscore.Hbonds>
donor molecule, donor type, donor heavy atom, donor atom, acceptor molecule, acceptor atom, score
      L1  H    16    18       P1  7957  0.78
      P1  H  6896  6908       L1    14  0.24
      P1  H  7989  7998       L1    17  0.70
      P1  H 10752 10763       L1    13  1.00

> <Gold.Chemscore.Hbond.Weighted>
-10.8385

> <Gold.Chemscore.Metal.Weighted>
-0.0000

> <Gold.Chemscore.Lipo.Weighted>
-7.7976

> <Gold.Chemscore.Internal_Hbond.Weighted>
0.0000

> <Gold.Chemscore.DEClash.Weighted>
0.0132

> <Gold.Chemscore.DEInternal.Weighted>
0.4055

> <Gold.Chemscore.Rot.Weighted>
7.4720

> <Gold.Chemscore.Internal.Correction.Weighted>
   9.000000E+99

> <Gold.Protein.RotatedTorsions>
[ 6907 6896 6895 6894 ] final  156.32 input  -60.11 | X-H torsion
[ 7974 7965 7964 7962 ] final   51.54 input  175.53 | X-H torsion
[ 8008 7997 7996 7995 ] final  -49.88 input   59.86 | X-H torsion
[ 10167 10162 10161 10158 ] final   -5.75 input  -65.29 | X-H torsion
[ 10718 10713 10712 10709 ] final   -8.04 input   66.30 | X-H torsion
[ 10763 10752 10751 10750 ] final   84.44 input  -60.55 | X-H torsion
[ 11005 11000 10999 10996 ] final  -85.89 input  -57.11 | X-H torsion

> <Gold.Protein.ActiveResidues>
 VAL166  LYS551  ARG553  GLY616  TRP617  ASP618  TYR619  PRO620  LYS621  CYS622 
 ASP623  PHE694  ASN695  SER759  ASP760  ASP761  ALA762  ILE779  LEU786  VAL792 
 PHE793  MET794  SER795  GLU796  ALA797  LYS798  CYS799  TRP800  GLU811  SER814 

> <Gold.Protein.RotatedAtoms>
  152.0313  133.3939  159.4298 H   0  0  0  0  0  0  0  0  0  0  0  0  # atno 6907 bound_to 6896
  150.6882  134.3517  159.4921 H   0  0  0  0  0  0  0  0  0  0  0  0  # atno 6908 bound_to 6896
  152.1304  134.9139  160.0609 H   0  0  0  0  0  0  0  0  0  0  0  0  # atno 6909 bound_to 6896
  145.9903  139.4332  143.0077 H   0  0  0  0  0  0  0  0  0  0  0  0  # atno 7974 bound_to 7965
  154.4052  140.1286  156.4575 H   0  0  0  0  0  0  0  0  0  0  0  0  # atno 8008 bound_to 7997
  155.7306  140.3491  155.5038 H   0  0  0  0  0  0  0  0  0  0  0  0  # atno 8009 bound_to 7997
  155.9131  140.1039  157.1254 H   0  0  0  0  0  0  0  0  0  0  0  0  # atno 8010 bound_to 7997
  140.6974  143.6272  150.8557 H   0  0  0  0  0  0  0  0  0  0  0  0  # atno 10167 bound_to 10162
  156.7084  130.5114  149.5898 H   0  0  0  0  0  0  0  0  0  0  0  0  # atno 10718 bound_to 10713
  153.1382  135.4654  154.9455 H   0  0  0  0  0  0  0  0  0  0  0  0  # atno 10763 bound_to 10752
  154.7724  135.3163  154.8164 H   0  0  0  0  0  0  0  0  0  0  0  0  # atno 10764 bound_to 10752
  153.8692  135.6905  153.4830 H   0  0  0  0  0  0  0  0  0  0  0  0  # atno 10765 bound_to 10752
  141.1636  133.7424  156.9081 H   0  0  0  0  0  0  0  0  0  0  0  0  # atno 11005 bound_to 11000
  145.7639  140.9924  143.1185 LP  0  0  0  0  0  0  0  0  0  0  0  0  # atno 17320 bound_to 7965
  144.6887  139.9364  143.7473 LP  0  0  0  0  0  0  0  0  0  0  0  0  # atno 17321 bound_to 7965
  139.9991  143.5763  152.2882 LP  0  0  0  0  0  0  0  0  0  0  0  0  # atno 17342 bound_to 10162
  139.6446  144.7657  151.2269 LP  0  0  0  0  0  0  0  0  0  0  0  0  # atno 17343 bound_to 10162
  156.1679  130.6417  151.0800 LP  0  0  0  0  0  0  0  0  0  0  0  0  # atno 17370 bound_to 10713
  157.6946  131.0798  150.7008 LP  0  0  0  0  0  0  0  0  0  0  0  0  # atno 17371 bound_to 10713
  140.1536  134.9213  157.2624 LP  0  0  0  0  0  0  0  0  0  0  0  0  # atno 17394 bound_to 11000
  140.2693  134.3478  155.7379 LP  0  0  0  0  0  0  0  0  0  0  0  0  # atno 17395 bound_to 11000

$$$$
