AV-unprocessed.smi:2001|AV-procd|sdf|8102|dock8
  -GOLD-   2272010323D 1   1.00000     0.00000
 Structure written by MMmdl.
 50 51  0  0  0  0  0  0  0  0  1 V2000
  150.0412  143.6121  158.8474 C   0  0  0  0  0  0  0  0  0  0  0  0
  150.7488  142.4092  158.6023 O   0  0  0  0  0  0  0  0  0  0  0  0
  150.5467  141.9182  157.2881 C   0  0  0  0  0  0  0  0  0  0  0  0
  151.6613  140.9139  156.9586 C   0  0  0  0  0  0  0  0  0  0  0  0
  151.2760  140.0207  155.8614 N   0  0  0  0  0  0  0  0  0  0  0  0
  149.9858  140.2198  155.3982 N   0  0  0  0  0  0  0  0  0  0  0  0
  149.5210  139.4907  154.4353 C   0  0  0  0  0  0  0  0  0  0  0  0
  148.1371  139.6667  153.9142 C   0  0  0  0  0  0  0  0  0  0  0  0
  147.6734  140.7805  153.6635 O   0  0  0  0  0  0  0  0  0  0  0  0
  147.4400  138.5304  153.7343 N   0  0  0  0  0  0  0  0  0  0  0  0
  146.0806  138.4524  153.2148 C   0  0  0  0  0  0  0  0  0  0  0  0
  146.0241  137.5836  151.9451 C   0  0  0  0  0  0  0  0  0  0  0  0
  145.3990  136.2737  152.1183 N   0  0  0  0  0  0  0  0  0  0  0  0
  145.3226  135.5159  150.8717 C   0  0  0  0  0  0  0  0  0  0  0  0
  144.6418  134.1479  151.0703 C   0  0  2  0  0  0  0  0  0  0  0  0
  144.4851  133.3803  149.7535 C   0  0  0  0  0  0  0  0  0  0  0  0
  143.3463  134.3488  151.6281 O   0  0  0  0  0  0  0  0  0  0  0  0
  143.3706  135.0431  152.8719 C   0  0  2  0  0  0  0  0  0  0  0  0
  141.9289  135.1867  153.3708 C   0  0  0  0  0  0  0  0  0  0  0  0
  144.0562  136.4084  152.6721 C   0  0  0  0  0  0  0  0  0  0  0  0
  150.3400  138.4592  153.8211 C   0  0  0  0  0  0  0  0  0  0  0  0
  151.5993  138.2829  154.2779 C   0  0  0  0  0  0  0  0  0  0  0  0
  152.1497  139.0940  155.3648 C   0  0  0  0  0  0  0  0  0  0  0  0
  153.2954  138.9575  155.7927 O   0  0  0  0  0  0  0  0  0  0  0  0
  150.2364  143.9509  159.8648 H   0  0  0  0  0  0  0  0  0  0  0  0
  148.9654  143.4648  158.7427 H   0  0  0  0  0  0  0  0  0  0  0  0
  150.3554  144.4018  158.1638 H   0  0  0  0  0  0  0  0  0  0  0  0
  149.5718  141.4331  157.2173 H   0  0  0  0  0  0  0  0  0  0  0  0
  150.5566  142.7460  156.5771 H   0  0  0  0  0  0  0  0  0  0  0  0
  152.5832  141.4444  156.7133 H   0  0  0  0  0  0  0  0  0  0  0  0
  151.8936  140.3272  157.8494 H   0  0  0  0  0  0  0  0  0  0  0  0
  147.8914  137.6569  153.9656 H   0  0  0  0  0  0  0  0  0  0  0  0
  145.4574  138.0294  154.0019 H   0  0  0  0  0  0  0  0  0  0  0  0
  145.6932  139.4524  153.0125 H   0  0  0  0  0  0  0  0  0  0  0  0
  145.4651  138.1360  151.1884 H   0  0  0  0  0  0  0  0  0  0  0  0
  147.0309  137.4612  151.5423 H   0  0  0  0  0  0  0  0  0  0  0  0
  144.7746  136.0910  150.1235 H   0  0  0  0  0  0  0  0  0  0  0  0
  146.3216  135.3506  150.4696 H   0  0  0  0  0  0  0  0  0  0  0  0
  145.2337  133.5432  151.7596 H   0  0  0  0  0  0  0  0  0  0  0  0
  145.4538  133.1980  149.2874 H   0  0  0  0  0  0  0  0  0  0  0  0
  143.8706  133.9351  149.0442 H   0  0  0  0  0  0  0  0  0  0  0  0
  144.0101  132.4135  149.9211 H   0  0  0  0  0  0  0  0  0  0  0  0
  143.9356  134.4531  153.5956 H   0  0  0  0  0  0  0  0  0  0  0  0
  141.8955  135.7017  154.3312 H   0  0  0  0  0  0  0  0  0  0  0  0
  141.4627  134.2099  153.5015 H   0  0  0  0  0  0  0  0  0  0  0  0
  141.3218  135.7540  152.6647 H   0  0  0  0  0  0  0  0  0  0  0  0
  144.1038  136.9295  153.6293 H   0  0  0  0  0  0  0  0  0  0  0  0
  143.4463  137.0271  152.0116 H   0  0  0  0  0  0  0  0  0  0  0  0
  149.9601  137.8459  153.0169 H   0  0  0  0  0  0  0  0  0  0  0  0
  152.2199  137.5212  153.8289 H   0  0  0  0  0  0  0  0  0  0  0  0
  1  2  1  0  0  0  0
  1 25  1  0  0  0  0
  1 26  1  0  0  0  0
  1 27  1  0  0  0  0
  2  3  1  0  0  0  0
  3  4  1  0  0  0  0
  3 28  1  0  0  0  0
  3 29  1  0  0  0  0
  4  5  1  0  0  0  0
  4 30  1  0  0  0  0
  4 31  1  0  0  0  0
  5 23  1  0  0  0  0
  5  6  1  0  0  0  0
  6  7  2  0  0  0  0
  7  8  1  0  0  0  0
  7 21  1  0  0  0  0
  8  9  2  0  0  0  0
  8 10  1  0  0  0  0
 10 11  1  0  0  0  0
 10 32  1  0  0  0  0
 11 12  1  0  0  0  0
 11 33  1  0  0  0  0
 11 34  1  0  0  0  0
 12 13  1  0  0  0  0
 12 35  1  0  0  0  0
 12 36  1  0  0  0  0
 13 20  1  0  0  0  0
 13 14  1  0  0  0  0
 14 15  1  0  0  0  0
 14 37  1  0  0  0  0
 14 38  1  0  0  0  0
 15 16  1  0  0  0  0
 15 17  1  0  0  0  0
 15 39  1  0  0  0  0
 16 40  1  0  0  0  0
 16 41  1  0  0  0  0
 16 42  1  0  0  0  0
 17 18  1  0  0  0  0
 18 19  1  0  0  0  0
 18 20  1  0  0  0  0
 18 43  1  0  0  0  0
 19 44  1  0  0  0  0
 19 45  1  0  0  0  0
 19 46  1  0  0  0  0
 20 47  1  0  0  0  0
 20 48  1  0  0  0  0
 21 22  2  0  0  0  0
 21 49  1  0  0  0  0
 22 23  1  0  0  0  0
 22 50  1  0  0  0  0
 23 24  2  0  0  0  0
M  END
> <s_m_source_file>
AV-unprocessed.smi

> <i_m_source_file_index>
2001

> <i_lp_mmshare_version>
43012

> <i_f3d_flags>
0

> <s_epik_input>
W0NIM11PW0NIMl1bQ0gyXW4xbmMoW2NIXVtjSF1jMT1PKUMoPU8pW05IXVtDSDJdW0NIMl1OMltDSDJdW0NAQEhdKFtDSDNdKU9bQ0BASF0oW0NIM10pW0NIMl0y

> <s_epik_cmdline>
J2VwaWtfcHl0aG9uJywgJy1waCcsICc3LjAnLCAnLXRuJywgJzgnLCAnLW1hJywgJzIwMCcsICctbWV0YWxfYmluZGluZycsICctaW1hZScsICc8aW5maWxlLm1hZT4nLCAnLW9tYWUnLCAnPG91dGZpbGUubWFlPic=

> <r_lp_tautomer_probability>
1

> <r_epik_Ionization_Penalty>
0.206669

> <r_epik_Ionization_Penalty_Charging>
5.55992e-09

> <r_epik_Ionization_Penalty_Neutral>
0.206669

> <r_epik_State_Penalty>
0.196651

> <r_epik_Charging_Adjusted_Penalty>
0.196651

> <i_epik_Tot_Q>
0

> <i_epik_Tot_abs_Q>
0

> <r_epik_Metal_State_Penalty>
0.198372

> <b_epik_Metal_Only>
0

> <s_lp_Force_Field>
OPLS_2005

> <r_lp_Energy>
38.6275

> <b_lp_Chiralities_Consistent>
1

> <s_lp_Variant>
AV-unprocessed.smi:2001-1

> <Gold.Version>
5.8.1

> <Gold.Id.Protein>
6NUR|6NUR_protein|mol2

> <Gold.PLP.Fitness>
41.2784

> <Gold.PLP.PLP>
-40.8393

> <Gold.PLP.part.hbond>
-1.0099

> <Gold.PLP.part.metal>
0.0000

> <Gold.PLP.part.buried>
-5.6822

> <Gold.PLP.part.nonpolar>
-35.4739

> <Gold.PLP.part.repulsive>
0.6575

> <Gold.PLP.ligand.clash>
0.0000

> <Gold.PLP.ligand.torsion>
1.3023

> <Gold.PLP.Chemscore.Hbond>
1.0000

> <Gold.PLP.Chemscore.CHOScore>
0.0000

> <Gold.PLP.Chemscore.Metal>
0.0000

> <Gold.Chemscore.Hbonds>
donor molecule, donor type, donor heavy atom, donor atom, acceptor molecule, acceptor atom, score
      P1  H  7997  8010       L1    24  0.98

> <Gold.PLP.Chemscore.Internal.Correction>
0.0437

> <Gold.Rescore>
     Score         DG    S(hbond)    S(metal)    S(lipo)     H(rot)  DE(clash)    DE(int)     intcor
     12.43     -13.81       0.97        0.00      87.18       2.00       0.09       1.28       ----

> <Gold.Chemscore.Fitness>
12.4338

> <Gold.Chemscore.DG>
-13.8090

> <Gold.Chemscore.ZeroCoef>
-5.4800

> <Gold.Chemscore.Hbond>
0.9743

> <Gold.Chemscore.Metal>
0.0000

> <Gold.Chemscore.Lipo>
87.1787

> <Gold.Chemscore.Internal_Hbond>
0.0000

> <Gold.Chemscore.DEClash>
0.0934

> <Gold.Chemscore.DEInternal>
1.2818

> <Gold.Chemscore.Rot>
2.0020

> <Gold.Chemscore.Internal.Correction>
   9.000000E+99

> <Gold.Chemscore.Hbonds>
donor molecule, donor type, donor heavy atom, donor atom, acceptor molecule, acceptor atom, score
      P1  H  7997  8010       L1    24  0.93

> <Gold.Chemscore.Hbond.Weighted>
-3.2543

> <Gold.Chemscore.Metal.Weighted>
-0.0000

> <Gold.Chemscore.Lipo.Weighted>
-10.1999

> <Gold.Chemscore.Internal_Hbond.Weighted>
0.0000

> <Gold.Chemscore.DEClash.Weighted>
0.0934

> <Gold.Chemscore.DEInternal.Weighted>
1.2818

> <Gold.Chemscore.Rot.Weighted>
5.1252

> <Gold.Chemscore.Internal.Correction.Weighted>
   9.000000E+99

> <Gold.Protein.RotatedTorsions>
[ 6907 6896 6895 6894 ] final -116.56 input  -60.11 | X-H torsion
[ 7974 7965 7964 7962 ] final  -95.27 input  175.53 | X-H torsion
[ 8008 7997 7996 7995 ] final   73.18 input   59.86 | X-H torsion
[ 10167 10162 10161 10158 ] final   37.77 input  -65.29 | X-H torsion
[ 10718 10713 10712 10709 ] final  -35.43 input   66.30 | X-H torsion
[ 10763 10752 10751 10750 ] final  115.92 input  -60.55 | X-H torsion
[ 11005 11000 10999 10996 ] final -159.18 input  -57.11 | X-H torsion

> <Gold.Protein.ActiveResidues>
 VAL166  LYS551  ARG553  GLY616  TRP617  ASP618  TYR619  PRO620  LYS621  CYS622 
 ASP623  PHE694  ASN695  SER759  ASP760  ASP761  ALA762  ILE779  LEU786  VAL792 
 PHE793  MET794  SER795  GLU796  ALA797  LYS798  CYS799  TRP800  GLU811  SER814 

> <Gold.Protein.RotatedAtoms>
  150.8066  133.8499  159.3202 H   0  0  0  0  0  0  0  0  0  0  0  0  # atno 6907 bound_to 6896
  151.6296  135.1022  160.0128 H   0  0  0  0  0  0  0  0  0  0  0  0  # atno 6908 bound_to 6896
  152.4157  133.6994  159.6472 H   0  0  0  0  0  0  0  0  0  0  0  0  # atno 6909 bound_to 6896
  145.3622  140.9493  143.2494 H   0  0  0  0  0  0  0  0  0  0  0  0  # atno 7974 bound_to 7965
  155.7798  140.3482  155.5291 H   0  0  0  0  0  0  0  0  0  0  0  0  # atno 8008 bound_to 7997
  155.8739  140.0991  157.1552 H   0  0  0  0  0  0  0  0  0  0  0  0  # atno 8009 bound_to 7997
  154.4019  140.1335  156.4100 H   0  0  0  0  0  0  0  0  0  0  0  0  # atno 8010 bound_to 7997
  140.4000  144.1736  150.6133 H   0  0  0  0  0  0  0  0  0  0  0  0  # atno 10167 bound_to 10162
  156.3387  130.4290  149.7806 H   0  0  0  0  0  0  0  0  0  0  0  0  # atno 10718 bound_to 10713
  153.5295  135.3581  155.2669 H   0  0  0  0  0  0  0  0  0  0  0  0  # atno 10763 bound_to 10752
  154.8728  135.4065  154.3168 H   0  0  0  0  0  0  0  0  0  0  0  0  # atno 10764 bound_to 10752
  153.3854  135.7070  153.6602 H   0  0  0  0  0  0  0  0  0  0  0  0  # atno 10765 bound_to 10752
  140.6454  134.4507  157.5234 H   0  0  0  0  0  0  0  0  0  0  0  0  # atno 11005 bound_to 11000
  144.8638  139.5138  143.6800 LP  0  0  0  0  0  0  0  0  0  0  0  0  # atno 17320 bound_to 7965
  146.2922  139.7173  142.9152 LP  0  0  0  0  0  0  0  0  0  0  0  0  # atno 17321 bound_to 7965
  140.4749  143.2399  151.9036 LP  0  0  0  0  0  0  0  0  0  0  0  0  # atno 17342 bound_to 10162
  139.4785  144.5330  151.8639 LP  0  0  0  0  0  0  0  0  0  0  0  0  # atno 17343 bound_to 10162
  156.5051  130.8146  151.3147 LP  0  0  0  0  0  0  0  0  0  0  0  0  # atno 17370 bound_to 10713
  157.7443  130.9932  150.2663 LP  0  0  0  0  0  0  0  0  0  0  0  0  # atno 17371 bound_to 10713
  139.9065  134.8438  156.1688 LP  0  0  0  0  0  0  0  0  0  0  0  0  # atno 17394 bound_to 11000
  141.0576  133.6857  156.1890 LP  0  0  0  0  0  0  0  0  0  0  0  0  # atno 17395 bound_to 11000

$$$$
