AV-unprocessed.smi:278|AV-procd|sdf|2094|dock7
  -GOLD-   2262021373D 1   1.00000     0.00000
 Structure written by MMmdl.
 50 54  0  0  0  0  0  0  0  0  1 V2000
  151.0641  139.7519  154.4381 O   0  0  0  0  0  0  0  0  0  0  0  0
  151.4028  138.4981  155.1286 S   0  0  0  0  0  0  0  0  0  0  0  0
  152.0377  137.3878  154.4016 O   0  0  0  0  0  0  0  0  0  0  0  0
  152.4040  138.8887  156.6161 C   0  0  0  0  0  0  0  0  0  0  0  0
  151.4546  138.7765  157.8163 C   0  0  0  0  0  0  0  0  0  0  0  0
  150.3512  137.7522  157.4941 C   0  0  2  0  0  0  0  0  0  0  0  0
  150.8157  136.2932  157.5634 C   0  0  0  0  0  0  0  0  0  0  0  0
  149.9781  135.5822  156.6081 N   0  0  0  0  0  0  0  0  0  0  0  0
  150.1994  134.2746  156.3113 C   0  0  0  0  0  0  0  0  0  0  0  0
  151.1182  133.5862  157.0400 N   0  0  0  0  0  0  0  0  0  0  0  0
  151.3642  132.2984  156.7836 C   0  0  0  0  0  0  0  0  0  0  0  0
  150.8090  131.5111  155.8615 N   0  0  0  0  0  0  0  0  0  0  0  0
  149.8767  132.1884  155.1331 C   0  0  0  0  0  0  0  0  0  0  0  0
  149.5110  133.5569  155.2882 C   0  0  0  0  0  0  0  0  0  0  0  0
  148.5161  133.8785  154.3700 N   0  0  0  0  0  0  0  0  0  0  0  0
  148.3127  132.7716  153.7100 C   0  0  0  0  0  0  0  0  0  0  0  0
  149.0863  131.7058  154.1059 N   0  0  0  0  0  0  0  0  0  0  0  0
  149.0657  130.3618  153.5569 C   0  0  0  0  0  0  0  0  0  0  0  0
  147.8884  129.5271  154.0980 C   0  0  1  0  0  0  0  0  0  0  0  0
  146.6855  130.2725  154.0599 O   0  0  0  0  0  0  0  0  0  0  0  0
  147.7085  128.1885  153.3546 C   0  0  1  0  0  0  0  0  0  0  0  0
  147.2392  128.2926  151.8929 C   0  0  0  0  0  0  0  0  0  0  0  0
  148.3376  127.5945  151.1112 C   0  0  0  0  0  0  0  0  0  0  0  0
  148.9536  126.6695  152.1525 C   0  0  0  0  0  0  0  0  0  0  0  0
  148.9309  127.4562  153.3319 O   0  0  0  0  0  0  0  0  0  0  0  0
  149.4601  136.5012  155.6033 C   0  0  0  0  0  0  0  0  0  0  0  0
  149.9127  137.9033  156.0364 C   0  0  2  0  0  0  0  0  0  0  0  0
  149.4938  137.8824  158.1559 H   0  0  0  0  0  0  0  0  0  0  0  0
  149.1260  138.6489  155.9188 H   0  0  0  0  0  0  0  0  0  0  0  0
  153.2042  138.1515  156.6848 H   0  0  0  0  0  0  0  0  0  0  0  0
  152.8523  139.8775  156.5196 H   0  0  0  0  0  0  0  0  0  0  0  0
  151.9896  138.5259  158.7328 H   0  0  0  0  0  0  0  0  0  0  0  0
  150.9863  139.7477  157.9803 H   0  0  0  0  0  0  0  0  0  0  0  0
  151.8607  136.1972  157.2659 H   0  0  0  0  0  0  0  0  0  0  0  0
  150.7086  135.8875  158.5698 H   0  0  0  0  0  0  0  0  0  0  0  0
  152.1117  131.8318  157.4081 H   0  0  0  0  0  0  0  0  0  0  0  0
  147.5841  132.7002  152.9155 H   0  0  0  0  0  0  0  0  0  0  0  0
  149.0219  130.4313  152.4692 H   0  0  0  0  0  0  0  0  0  0  0  0
  150.0132  129.8800  153.8011 H   0  0  0  0  0  0  0  0  0  0  0  0
  148.0798  129.3019  155.1480 H   0  0  0  0  0  0  0  0  0  0  0  0
  146.5002  130.4909  153.1592 H   0  0  0  0  0  0  0  0  0  0  0  0
  146.9856  127.5809  153.9017 H   0  0  0  0  0  0  0  0  0  0  0  0
  146.2929  127.7644  151.7693 H   0  0  0  0  0  0  0  0  0  0  0  0
  147.0877  129.3176  151.5528 H   0  0  0  0  0  0  0  0  0  0  0  0
  147.9678  127.0638  150.2335 H   0  0  0  0  0  0  0  0  0  0  0  0
  149.0786  128.3239  150.7819 H   0  0  0  0  0  0  0  0  0  0  0  0
  148.3412  125.7776  152.2945 H   0  0  0  0  0  0  0  0  0  0  0  0
  149.9661  126.3578  151.8953 H   0  0  0  0  0  0  0  0  0  0  0  0
  149.7994  136.2539  154.5972 H   0  0  0  0  0  0  0  0  0  0  0  0
  148.3715  136.4408  155.6112 H   0  0  0  0  0  0  0  0  0  0  0  0
  1  2  2  0  0  0  0
  2 27  1  0  0  0  0
  2  3  2  0  0  0  0
  2  4  1  0  0  0  0
  4  5  1  0  0  0  0
  4 30  1  0  0  0  0
  4 31  1  0  0  0  0
  5  6  1  0  0  0  0
  5 32  1  0  0  0  0
  5 33  1  0  0  0  0
  6 28  1  0  0  0  0
  6 27  1  0  0  0  0
  6  7  1  0  0  0  0
  7  8  1  0  0  0  0
  7 34  1  0  0  0  0
  7 35  1  0  0  0  0
  8  9  1  0  0  0  0
  8 26  1  0  0  0  0
  9 14  1  0  0  0  0
  9 10  2  0  0  0  0
 10 11  1  0  0  0  0
 11 12  2  0  0  0  0
 11 36  1  0  0  0  0
 12 13  1  0  0  0  0
 13 17  1  0  0  0  0
 13 14  2  0  0  0  0
 14 15  1  0  0  0  0
 15 16  2  0  0  0  0
 16 17  1  0  0  0  0
 16 37  1  0  0  0  0
 17 18  1  0  0  0  0
 18 19  1  0  0  0  0
 18 38  1  0  0  0  0
 18 39  1  0  0  0  0
 19 20  1  0  0  0  0
 19 21  1  0  0  0  0
 19 40  1  0  0  0  0
 20 41  1  0  0  0  0
 21 25  1  0  0  0  0
 21 22  1  0  0  0  0
 21 42  1  0  0  0  0
 22 23  1  0  0  0  0
 22 43  1  0  0  0  0
 22 44  1  0  0  0  0
 23 24  1  0  0  0  0
 23 45  1  0  0  0  0
 23 46  1  0  0  0  0
 24 25  1  0  0  0  0
 24 47  1  0  0  0  0
 24 48  1  0  0  0  0
 26 27  1  0  0  0  0
 26 49  1  0  0  0  0
 26 50  1  0  0  0  0
 27 29  1  0  0  0  0
M  END
> <s_m_source_file>
AV-unprocessed.smi

> <i_m_source_file_index>
278

> <i_lp_mmshare_version>
43012

> <i_f3d_flags>
0

> <s_epik_input>
W0NIMl0xW0NIMl1TKD1PKSg9TylbQ0BASF0oW0NAQEhdMTIpW0NIMl1OKFtDSDJdMiljKG5bY0hdbjMpYyhjMzQpbltjSF1uNFtDSDJdW0NASF0oW09IXSlbQ0BASF01W0NIMl1bQ0gyXVtDSDJdTzU=

> <s_epik_cmdline>
J2VwaWtfcHl0aG9uJywgJy1waCcsICc3LjAnLCAnLXRuJywgJzgnLCAnLW1hJywgJzIwMCcsICctbWV0YWxfYmluZGluZycsICctaW1hZScsICc8aW5maWxlLm1hZT4nLCAnLW9tYWUnLCAnPG91dGZpbGUubWFlPic=

> <r_lp_tautomer_probability>
1

> <r_epik_Ionization_Penalty>
0.000636766

> <r_epik_Ionization_Penalty_Charging>
0

> <r_epik_Ionization_Penalty_Neutral>
0.000636766

> <r_epik_State_Penalty>
0.000329976

> <r_epik_Charging_Adjusted_Penalty>
0.000329976

> <i_epik_Tot_Q>
0

> <i_epik_Tot_abs_Q>
0

> <r_epik_Metal_State_Penalty>
-0

> <b_epik_Metal_Only>
0

> <s_lp_Force_Field>
OPLS_2005

> <r_lp_Energy>
51.0774

> <b_lp_Chiralities_Consistent>
1

> <s_lp_Variant>
AV-unprocessed.smi:278-8

> <Gold.Version>
5.8.1

> <Gold.Id.Protein>
6NUR|6NUR_protein|mol2

> <Gold.PLP.Fitness>
44.3387

> <Gold.PLP.PLP>
-38.5624

> <Gold.PLP.part.hbond>
-3.0000

> <Gold.PLP.part.metal>
0.0000

> <Gold.PLP.part.buried>
-7.0036

> <Gold.PLP.part.nonpolar>
-29.8418

> <Gold.PLP.part.repulsive>
0.4941

> <Gold.PLP.ligand.clash>
0.0000

> <Gold.PLP.ligand.torsion>
0.5316

> <Gold.PLP.Chemscore.Hbond>
2.1948

> <Gold.PLP.Chemscore.CHOScore>
0.0000

> <Gold.PLP.Chemscore.Metal>
0.0000

> <Gold.Chemscore.Hbonds>
donor molecule, donor type, donor heavy atom, donor atom, acceptor molecule, acceptor atom, score
      P1  H  6896  6909       L1    10  0.39
      P1  H  7989  7998       L1     1  1.00
      P1  H 10752 10764       L1     3  0.88

> <Gold.PLP.Chemscore.Internal.Correction>
0.2552

> <Gold.Rescore>
     Score         DG    S(hbond)    S(metal)    S(lipo)     H(rot)  DE(clash)    DE(int)     intcor
     12.30     -14.70       2.08        0.00      66.01       2.13       0.01       2.38       ----

> <Gold.Chemscore.Fitness>
12.3044

> <Gold.Chemscore.DG>
-14.6962

> <Gold.Chemscore.ZeroCoef>
-5.4800

> <Gold.Chemscore.Hbond>
2.0831

> <Gold.Chemscore.Metal>
0.0000

> <Gold.Chemscore.Lipo>
66.0121

> <Gold.Chemscore.Internal_Hbond>
0.0000

> <Gold.Chemscore.DEClash>
0.0126

> <Gold.Chemscore.DEInternal>
2.3792

> <Gold.Chemscore.Rot>
2.1346

> <Gold.Chemscore.Internal.Correction>
   9.000000E+99

> <Gold.Chemscore.Hbonds>
donor molecule, donor type, donor heavy atom, donor atom, acceptor molecule, acceptor atom, score
      P1  H  6896  6909       L1    10  0.08
      P1  H  7989  7998       L1     1  0.97
      P1  H 10752 10764       L1     3  0.86

> <Gold.Chemscore.Hbond.Weighted>
-6.9574

> <Gold.Chemscore.Metal.Weighted>
-0.0000

> <Gold.Chemscore.Lipo.Weighted>
-7.7234

> <Gold.Chemscore.Internal_Hbond.Weighted>
0.0000

> <Gold.Chemscore.DEClash.Weighted>
0.0126

> <Gold.Chemscore.DEInternal.Weighted>
2.3792

> <Gold.Chemscore.Rot.Weighted>
5.4646

> <Gold.Chemscore.Internal.Correction.Weighted>
   9.000000E+99

> <Gold.Protein.RotatedTorsions>
[ 6907 6896 6895 6894 ] final  -28.29 input  -60.11 | X-H torsion
[ 7974 7965 7964 7962 ] final   55.77 input  175.53 | X-H torsion
[ 8008 7997 7996 7995 ] final   87.45 input   59.86 | X-H torsion
[ 10167 10162 10161 10158 ] final -131.64 input  -65.29 | X-H torsion
[ 10718 10713 10712 10709 ] final   35.32 input   66.30 | X-H torsion
[ 10763 10752 10751 10750 ] final  -81.72 input  -60.55 | X-H torsion
[ 11005 11000 10999 10996 ] final  -33.26 input  -57.11 | X-H torsion

> <Gold.Protein.ActiveResidues>
 VAL166  LYS551  ARG553  GLY616  TRP617  ASP618  TYR619  PRO620  LYS621  CYS622 
 ASP623  PHE694  ASN695  SER759  ASP760  ASP761  ALA762  ILE779  LEU786  VAL792 
 PHE793  MET794  SER795  GLU796  ALA797  LYS798  CYS799  TRP800  GLU811  SER814 

> <Gold.Protein.RotatedAtoms>
  151.1350  135.0150  159.8599 H   0  0  0  0  0  0  0  0  0  0  0  0  # atno 6907 bound_to 6896
  152.5452  134.1566  159.8550 H   0  0  0  0  0  0  0  0  0  0  0  0  # atno 6908 bound_to 6896
  151.1636  133.4784  159.2627 H   0  0  0  0  0  0  0  0  0  0  0  0  # atno 6909 bound_to 6896
  145.9468  139.3937  143.0330 H   0  0  0  0  0  0  0  0  0  0  0  0  # atno 7974 bound_to 7965
  155.9755  140.3382  155.6615 H   0  0  0  0  0  0  0  0  0  0  0  0  # atno 8008 bound_to 7997
  155.6617  140.0717  157.2569 H   0  0  0  0  0  0  0  0  0  0  0  0  # atno 8009 bound_to 7997
  154.4178  140.1707  156.1771 H   0  0  0  0  0  0  0  0  0  0  0  0  # atno 8010 bound_to 7997
  139.9168  143.6429  152.2563 H   0  0  0  0  0  0  0  0  0  0  0  0  # atno 10167 bound_to 10162
  157.3212  130.7449  149.6786 H   0  0  0  0  0  0  0  0  0  0  0  0  # atno 10718 bound_to 10713
  154.5670  135.5616  153.7060 H   0  0  0  0  0  0  0  0  0  0  0  0  # atno 10763 bound_to 10752
  153.0036  135.6288  154.2166 H   0  0  0  0  0  0  0  0  0  0  0  0  # atno 10764 bound_to 10752
  154.2105  135.2874  155.2940 H   0  0  0  0  0  0  0  0  0  0  0  0  # atno 10765 bound_to 10752
  140.9620  133.7159  156.1384 H   0  0  0  0  0  0  0  0  0  0  0  0  # atno 11005 bound_to 11000
  145.8225  140.9672  143.0891 LP  0  0  0  0  0  0  0  0  0  0  0  0  # atno 17320 bound_to 7965
  144.6788  140.0059  143.7484 LP  0  0  0  0  0  0  0  0  0  0  0  0  # atno 17321 bound_to 7965
  139.6895  144.7648  151.1463 LP  0  0  0  0  0  0  0  0  0  0  0  0  # atno 17342 bound_to 10162
  140.7672  143.5609  150.9100 LP  0  0  0  0  0  0  0  0  0  0  0  0  # atno 17343 bound_to 10162
  155.9686  130.4222  150.4507 LP  0  0  0  0  0  0  0  0  0  0  0  0  # atno 17370 bound_to 10713
  157.2523  131.0549  151.2371 LP  0  0  0  0  0  0  0  0  0  0  0  0  # atno 17371 bound_to 10713
  140.7454  134.4104  157.5549 LP  0  0  0  0  0  0  0  0  0  0  0  0  # atno 17394 bound_to 11000
  139.8881  134.8864  156.2491 LP  0  0  0  0  0  0  0  0  0  0  0  0  # atno 17395 bound_to 11000

$$$$
