AV-unprocessed.smi:2475|AV-procd|sdf|9755|dock3
  -GOLD-   2272013393D 1   1.00000     0.00000
 Structure written by MMmdl.
 37 38  0  0  0  0  0  0  0  0  1 V2000
  146.9272  139.7227  153.3531 C   0  0  0  0  0  0  0  0  0  0  0  0
  148.2690  139.9170  154.0270 C   0  0  0  0  0  0  0  0  0  0  0  0
  148.5419  141.0539  154.8161 C   0  0  0  0  0  0  0  0  0  0  0  0
  149.8246  141.1392  155.4021 C   0  0  0  0  0  0  0  0  0  0  0  0
  150.0703  142.2938  156.1894 N   0  0  0  0  0  0  0  0  0  0  0  0
  150.8267  142.4021  157.2987 C   0  0  0  0  0  0  0  0  0  0  0  0
  151.4719  141.4760  157.7918 O   0  0  0  0  0  0  0  0  0  0  0  0
  150.8930  143.7956  157.9421 C   0  0  2  0  0  0  0  0  0  0  0  0
  152.3123  144.3882  158.0487 C   0  0  0  0  0  0  0  0  0  0  0  0
  152.4641  144.7317  159.5215 C   0  0  0  0  0  0  0  0  0  0  0  0
  151.0234  144.7938  160.0087 C   0  0  0  0  0  0  0  0  0  0  0  0
  150.4122  143.7410  159.2843 O   0  0  0  0  0  0  0  0  0  0  0  0
  150.7289  140.1502  155.1962 N   0  0  0  0  0  0  0  0  0  0  0  0
  150.3721  139.1155  154.4283 C   0  0  0  0  0  0  0  0  0  0  0  0
  151.4071  138.0168  154.2242 C   0  0  0  0  0  0  0  0  0  0  0  0
  150.9118  136.6591  154.7452 C   0  0  0  0  0  0  0  0  0  0  0  0
  152.7831  138.4088  154.7851 C   0  0  0  0  0  0  0  0  0  0  0  0
  149.1876  138.9474  153.8342 N   0  0  0  0  0  0  0  0  0  0  0  0
  146.2508  140.5481  153.5764 H   0  0  0  0  0  0  0  0  0  0  0  0
  146.4615  138.7983  153.6955 H   0  0  0  0  0  0  0  0  0  0  0  0
  147.0511  139.6660  152.2714 H   0  0  0  0  0  0  0  0  0  0  0  0
  147.8003  141.8257  154.9640 H   0  0  0  0  0  0  0  0  0  0  0  0
  149.6131  143.1395  155.8809 H   0  0  0  0  0  0  0  0  0  0  0  0
  150.2535  144.4748  157.3763 H   0  0  0  0  0  0  0  0  0  0  0  0
  153.1028  143.7082  157.7278 H   0  0  0  0  0  0  0  0  0  0  0  0
  152.3855  145.2872  157.4357 H   0  0  0  0  0  0  0  0  0  0  0  0
  152.9919  143.9278  160.0361 H   0  0  0  0  0  0  0  0  0  0  0  0
  153.0103  145.6600  159.6903 H   0  0  0  0  0  0  0  0  0  0  0  0
  150.9346  144.6489  161.0856 H   0  0  0  0  0  0  0  0  0  0  0  0
  150.5581  145.7449  159.7445 H   0  0  0  0  0  0  0  0  0  0  0  0
  151.5419  137.8989  153.1475 H   0  0  0  0  0  0  0  0  0  0  0  0
  149.9719  136.3775  154.2697 H   0  0  0  0  0  0  0  0  0  0  0  0
  150.7468  136.6823  155.8229 H   0  0  0  0  0  0  0  0  0  0  0  0
  151.6363  135.8713  154.5375 H   0  0  0  0  0  0  0  0  0  0  0  0
  153.1351  139.3410  154.3425 H   0  0  0  0  0  0  0  0  0  0  0  0
  153.5266  137.6403  154.5728 H   0  0  0  0  0  0  0  0  0  0  0  0
  152.7484  138.5453  155.8666 H   0  0  0  0  0  0  0  0  0  0  0  0
  1  2  1  0  0  0  0
  1 19  1  0  0  0  0
  1 20  1  0  0  0  0
  1 21  1  0  0  0  0
  2 18  1  0  0  0  0
  2  3  2  0  0  0  0
  3  4  1  0  0  0  0
  3 22  1  0  0  0  0
  4  5  1  0  0  0  0
  4 13  2  0  0  0  0
  5  6  1  0  0  0  0
  5 23  1  0  0  0  0
  6  7  2  0  0  0  0
  6  8  1  0  0  0  0
  8 12  1  0  0  0  0
  8  9  1  0  0  0  0
  8 24  1  0  0  0  0
  9 10  1  0  0  0  0
  9 25  1  0  0  0  0
  9 26  1  0  0  0  0
 10 11  1  0  0  0  0
 10 27  1  0  0  0  0
 10 28  1  0  0  0  0
 11 12  1  0  0  0  0
 11 29  1  0  0  0  0
 11 30  1  0  0  0  0
 13 14  1  0  0  0  0
 14 15  1  0  0  0  0
 14 18  2  0  0  0  0
 15 16  1  0  0  0  0
 15 17  1  0  0  0  0
 15 31  1  0  0  0  0
 16 32  1  0  0  0  0
 16 33  1  0  0  0  0
 16 34  1  0  0  0  0
 17 35  1  0  0  0  0
 17 36  1  0  0  0  0
 17 37  1  0  0  0  0
M  END
> <s_m_source_file>
AV-unprocessed.smi

> <i_m_source_file_index>
2475

> <i_lp_mmshare_version>
43012

> <i_f3d_flags>
0

> <s_epik_input>
W0NIM11bQ0hdKFtDSDNdKWMobjEpbmMoW2NIXWMxW0NIM10pW05IXUMoPU8pW0NAQEhdMltDSDJdW0NIMl1bQ0gyXU8y

> <s_epik_cmdline>
J2VwaWtfcHl0aG9uJywgJy1waCcsICc3LjAnLCAnLXRuJywgJzgnLCAnLW1hJywgJzIwMCcsICctbWV0YWxfYmluZGluZycsICctaW1hZScsICc8aW5maWxlLm1hZT4nLCAnLW9tYWUnLCAnPG91dGZpbGUubWFlPic=

> <r_lp_tautomer_probability>
1

> <r_epik_Ionization_Penalty>
1.42804e-05

> <r_epik_Ionization_Penalty_Charging>
0

> <r_epik_Ionization_Penalty_Neutral>
1.42804e-05

> <r_epik_State_Penalty>
-0

> <r_epik_Charging_Adjusted_Penalty>
0

> <i_epik_Tot_Q>
0

> <i_epik_Tot_abs_Q>
0

> <r_epik_Metal_State_Penalty>
-0

> <b_epik_Metal_Only>
0

> <s_lp_Force_Field>
OPLS_2005

> <r_lp_Energy>
10.8571

> <b_lp_Chiralities_Consistent>
1

> <s_lp_Variant>
AV-unprocessed.smi:2475-1

> <Gold.Version>
5.8.1

> <Gold.Id.Protein>
6NUR|6NUR_protein|mol2

> <Gold.PLP.Fitness>
42.8044

> <Gold.PLP.PLP>
-39.4450

> <Gold.PLP.part.hbond>
-2.0000

> <Gold.PLP.part.metal>
0.0000

> <Gold.PLP.part.buried>
-5.1834

> <Gold.PLP.part.nonpolar>
-34.3378

> <Gold.PLP.part.repulsive>
1.9031

> <Gold.PLP.ligand.clash>
0.0000

> <Gold.PLP.ligand.torsion>
0.3074

> <Gold.PLP.Chemscore.Hbond>
1.3000

> <Gold.PLP.Chemscore.CHOScore>
0.0000

> <Gold.PLP.Chemscore.Metal>
0.0000

> <Gold.Chemscore.Hbonds>
donor molecule, donor type, donor heavy atom, donor atom, acceptor molecule, acceptor atom, score
      L1  H     5    23       P1  8028  1.00
      P1  H  7989  7998       L1    13  0.22

> <Gold.PLP.Chemscore.Internal.Correction>
0.0743

> <Gold.Rescore>
     Score         DG    S(hbond)    S(metal)    S(lipo)     H(rot)  DE(clash)    DE(int)     intcor
     14.92     -16.30       1.00        0.00      89.81       1.18       0.11       1.27       ----

> <Gold.Chemscore.Fitness>
14.9183

> <Gold.Chemscore.DG>
-16.2999

> <Gold.Chemscore.ZeroCoef>
-5.4800

> <Gold.Chemscore.Hbond>
1.0009

> <Gold.Chemscore.Metal>
0.0000

> <Gold.Chemscore.Lipo>
89.8149

> <Gold.Chemscore.Internal_Hbond>
0.0000

> <Gold.Chemscore.DEClash>
0.1087

> <Gold.Chemscore.DEInternal>
1.2730

> <Gold.Chemscore.Rot>
1.1842

> <Gold.Chemscore.Internal.Correction>
   9.000000E+99

> <Gold.Chemscore.Hbonds>
donor molecule, donor type, donor heavy atom, donor atom, acceptor molecule, acceptor atom, score
      L1  H     5    23       P1  8028  1.00

> <Gold.Chemscore.Hbond.Weighted>
-3.3431

> <Gold.Chemscore.Metal.Weighted>
-0.0000

> <Gold.Chemscore.Lipo.Weighted>
-10.5083

> <Gold.Chemscore.Internal_Hbond.Weighted>
0.0000

> <Gold.Chemscore.DEClash.Weighted>
0.1087

> <Gold.Chemscore.DEInternal.Weighted>
1.2730

> <Gold.Chemscore.Rot.Weighted>
3.0315

> <Gold.Chemscore.Internal.Correction.Weighted>
   9.000000E+99

> <Gold.Protein.RotatedTorsions>
[ 6907 6896 6895 6894 ] final  102.10 input  -60.11 | X-H torsion
[ 7974 7965 7964 7962 ] final -136.63 input  175.53 | X-H torsion
[ 8008 7997 7996 7995 ] final   60.78 input   59.86 | X-H torsion
[ 10167 10162 10161 10158 ] final -112.47 input  -65.29 | X-H torsion
[ 10718 10713 10712 10709 ] final  -42.17 input   66.30 | X-H torsion
[ 10763 10752 10751 10750 ] final -152.08 input  -60.55 | X-H torsion
[ 11005 11000 10999 10996 ] final -113.92 input  -57.11 | X-H torsion

> <Gold.Protein.ActiveResidues>
 VAL166  LYS551  ARG553  GLY616  TRP617  ASP618  TYR619  PRO620  LYS621  CYS622 
 ASP623  PHE694  ASN695  SER759  ASP760  ASP761  ALA762  ILE779  LEU786  VAL792 
 PHE793  MET794  SER795  GLU796  ALA797  LYS798  CYS799  TRP800  GLU811  SER814 

> <Gold.Protein.RotatedAtoms>
  152.5332  134.0026  159.7901 H   0  0  0  0  0  0  0  0  0  0  0  0  # atno 6907 bound_to 6896
  151.0242  133.5840  159.2675 H   0  0  0  0  0  0  0  0  0  0  0  0  # atno 6908 bound_to 6896
  151.2869  135.0737  159.9243 H   0  0  0  0  0  0  0  0  0  0  0  0  # atno 6909 bound_to 6896
  144.8911  140.6642  143.5145 H   0  0  0  0  0  0  0  0  0  0  0  0  # atno 7974 bound_to 7965
  155.5878  140.3492  155.4558 H   0  0  0  0  0  0  0  0  0  0  0  0  # atno 8008 bound_to 7997
  156.0324  140.1277  157.0268 H   0  0  0  0  0  0  0  0  0  0  0  0  # atno 8009 bound_to 7997
  154.4358  140.1040  156.6105 H   0  0  0  0  0  0  0  0  0  0  0  0  # atno 8010 bound_to 7997
  140.1224  143.4432  152.1682 H   0  0  0  0  0  0  0  0  0  0  0  0  # atno 10167 bound_to 10162
  156.2625  130.4198  149.8526 H   0  0  0  0  0  0  0  0  0  0  0  0  # atno 10718 bound_to 10713
  154.8017  135.3244  154.7533 H   0  0  0  0  0  0  0  0  0  0  0  0  # atno 10763 bound_to 10752
  153.8200  135.6888  153.4833 H   0  0  0  0  0  0  0  0  0  0  0  0  # atno 10764 bound_to 10752
  153.1738  135.4613  154.9881 H   0  0  0  0  0  0  0  0  0  0  0  0  # atno 10765 bound_to 10752
  141.0584  133.9575  157.2711 H   0  0  0  0  0  0  0  0  0  0  0  0  # atno 11005 bound_to 11000
  145.3782  139.1643  143.4295 LP  0  0  0  0  0  0  0  0  0  0  0  0  # atno 17320 bound_to 7965
  146.3054  140.3860  142.8689 LP  0  0  0  0  0  0  0  0  0  0  0  0  # atno 17321 bound_to 7965
  139.5562  144.7374  151.4288 LP  0  0  0  0  0  0  0  0  0  0  0  0  # atno 17342 bound_to 10162
  140.6864  143.7963  150.7193 LP  0  0  0  0  0  0  0  0  0  0  0  0  # atno 17343 bound_to 10162
  156.6037  130.8557  151.3438 LP  0  0  0  0  0  0  0  0  0  0  0  0  # atno 17370 bound_to 10713
  157.7255  130.9617  150.1619 LP  0  0  0  0  0  0  0  0  0  0  0  0  # atno 17371 bound_to 10713
  139.9411  135.0191  156.8710 LP  0  0  0  0  0  0  0  0  0  0  0  0  # atno 17394 bound_to 11000
  140.5917  134.0255  155.7502 LP  0  0  0  0  0  0  0  0  0  0  0  0  # atno 17395 bound_to 11000

$$$$
