AV-unprocessed.smi:2145|AV-procd|sdf|8735|dock5
  -GOLD-   2272011503D 1   1.00000     0.00000
 Structure written by MMmdl.
 44 46  0  0  0  0  0  0  0  0  1 V2000
  143.0248  146.3259  155.9354 C   0  0  0  0  0  0  0  0  0  0  0  0
  143.7912  146.1155  154.6306 C   0  0  0  0  0  0  0  0  0  0  0  0
  143.6518  146.9360  153.7242 O   0  0  0  0  0  0  0  0  0  0  0  0
  144.6712  144.9170  154.5264 C   0  0  0  0  0  0  0  0  0  0  0  0
  145.4045  144.6940  153.3396 C   0  0  0  0  0  0  0  0  0  0  0  0
  146.2415  143.5688  153.2154 C   0  0  0  0  0  0  0  0  0  0  0  0
  146.3677  142.6420  154.2685 C   0  0  0  0  0  0  0  0  0  0  0  0
  147.2073  141.5683  154.0623 O   0  0  0  0  0  0  0  0  0  0  0  0
  147.5175  140.7373  155.1728 C   0  0  0  0  0  0  0  0  0  0  0  0
  148.4849  141.4898  156.1039 C   0  0  1  0  0  0  0  0  0  0  0  0
  148.2570  141.0470  157.4256 O   0  0  0  0  0  0  0  0  0  0  0  0
  149.9769  141.2392  155.7968 C   0  0  0  0  0  0  0  0  0  0  0  0
  150.7924  141.0595  156.9909 N   0  0  0  0  0  0  0  0  0  0  0  0
  151.1343  139.8979  157.6010 C   0  0  0  0  0  0  0  0  0  0  0  0
  150.6857  138.5691  157.0813 C   0  0  0  0  0  0  0  0  0  0  0  0
  151.8968  140.0140  158.6883 N   0  0  0  0  0  0  0  0  0  0  0  0
  152.0721  141.3803  158.7911 C   0  0  0  0  0  0  0  0  0  0  0  0
  152.7879  142.1455  159.7397 C   0  0  0  0  0  0  0  0  0  0  0  0
  152.8259  143.5518  159.6404 C   0  0  0  0  0  0  0  0  0  0  0  0
  152.1502  144.2121  158.5937 C   0  0  0  0  0  0  0  0  0  0  0  0
  151.4319  143.4687  157.6374 C   0  0  0  0  0  0  0  0  0  0  0  0
  151.3969  142.0649  157.7411 C   0  0  0  0  0  0  0  0  0  0  0  0
  145.6337  142.8638  155.4598 C   0  0  0  0  0  0  0  0  0  0  0  0
  144.7954  143.9884  155.5858 C   0  0  0  0  0  0  0  0  0  0  0  0
  142.3445  145.4938  156.1170 H   0  0  0  0  0  0  0  0  0  0  0  0
  142.4362  147.2422  155.8880 H   0  0  0  0  0  0  0  0  0  0  0  0
  143.7141  146.4079  156.7760 H   0  0  0  0  0  0  0  0  0  0  0  0
  145.3325  145.3828  152.5101 H   0  0  0  0  0  0  0  0  0  0  0  0
  146.7927  143.4159  152.2991 H   0  0  0  0  0  0  0  0  0  0  0  0
  146.6192  140.4330  155.7132 H   0  0  0  0  0  0  0  0  0  0  0  0
  147.9970  139.8384  154.7864 H   0  0  0  0  0  0  0  0  0  0  0  0
  148.2799  142.5592  156.0546 H   0  0  0  0  0  0  0  0  0  0  0  0
  148.9208  140.4111  157.6459 H   0  0  0  0  0  0  0  0  0  0  0  0
  150.0905  140.3599  155.1620 H   0  0  0  0  0  0  0  0  0  0  0  0
  150.3856  142.0739  155.2259 H   0  0  0  0  0  0  0  0  0  0  0  0
  151.0865  137.7638  157.6979 H   0  0  0  0  0  0  0  0  0  0  0  0
  151.0369  138.4232  156.0597 H   0  0  0  0  0  0  0  0  0  0  0  0
  149.5984  138.5014  157.0971 H   0  0  0  0  0  0  0  0  0  0  0  0
  153.3087  141.6492  160.5451 H   0  0  0  0  0  0  0  0  0  0  0  0
  153.3759  144.1264  160.3712 H   0  0  0  0  0  0  0  0  0  0  0  0
  152.1839  145.2896  158.5250 H   0  0  0  0  0  0  0  0  0  0  0  0
  150.9114  143.9722  156.8364 H   0  0  0  0  0  0  0  0  0  0  0  0
  145.6940  142.1836  156.2959 H   0  0  0  0  0  0  0  0  0  0  0  0
  144.2542  144.1176  156.5112 H   0  0  0  0  0  0  0  0  0  0  0  0
  1  2  1  0  0  0  0
  1 25  1  0  0  0  0
  1 26  1  0  0  0  0
  1 27  1  0  0  0  0
  2  3  2  0  0  0  0
  2  4  1  0  0  0  0
  4 24  1  0  0  0  0
  4  5  2  0  0  0  0
  5  6  1  0  0  0  0
  5 28  1  0  0  0  0
  6  7  2  0  0  0  0
  6 29  1  0  0  0  0
  7  8  1  0  0  0  0
  7 23  1  0  0  0  0
  8  9  1  0  0  0  0
  9 10  1  0  0  0  0
  9 30  1  0  0  0  0
  9 31  1  0  0  0  0
 10 11  1  0  0  0  0
 10 12  1  0  0  0  0
 10 32  1  0  0  0  0
 11 33  1  0  0  0  0
 12 13  1  0  0  0  0
 12 34  1  0  0  0  0
 12 35  1  0  0  0  0
 13 22  1  0  0  0  0
 13 14  1  0  0  0  0
 14 15  1  0  0  0  0
 14 16  2  0  0  0  0
 15 36  1  0  0  0  0
 15 37  1  0  0  0  0
 15 38  1  0  0  0  0
 16 17  1  0  0  0  0
 17 22  2  0  0  0  0
 17 18  1  0  0  0  0
 18 19  2  0  0  0  0
 18 39  1  0  0  0  0
 19 20  1  0  0  0  0
 19 40  1  0  0  0  0
 20 21  2  0  0  0  0
 20 41  1  0  0  0  0
 21 22  1  0  0  0  0
 21 42  1  0  0  0  0
 23 24  2  0  0  0  0
 23 43  1  0  0  0  0
 24 44  1  0  0  0  0
M  END
> <s_m_source_file>
AV-unprocessed.smi

> <i_m_source_file_index>
2145

> <i_lp_mmshare_version>
43012

> <i_f3d_flags>
0

> <s_epik_input>
W0NIM11DKD1PKWMxW2NIXVtjSF1jKFtjSF1bY0hdMSlPW0NIMl1bQ0BIXShbT0hdKVtDSDJdbihjKG4yKVtDSDNdKWMoYzIzKVtjSF1bY0hdW2NIXVtjSF0z

> <s_epik_cmdline>
J2VwaWtfcHl0aG9uJywgJy1waCcsICc3LjAnLCAnLXRuJywgJzgnLCAnLW1hJywgJzIwMCcsICctbWV0YWxfYmluZGluZycsICctaW1hZScsICc8aW5maWxlLm1hZT4nLCAnLW9tYWUnLCAnPG91dGZpbGUubWFlPic=

> <r_lp_tautomer_probability>
0.99995

> <r_epik_Ionization_Penalty>
0.109398

> <r_epik_Ionization_Penalty_Charging>
0

> <r_epik_Ionization_Penalty_Neutral>
0.109398

> <r_epik_State_Penalty>
0.0991698

> <r_epik_Charging_Adjusted_Penalty>
0.0991698

> <i_epik_Tot_Q>
0

> <i_epik_Tot_abs_Q>
0

> <r_epik_Metal_State_Penalty>
0.000107943

> <b_epik_Metal_Only>
0

> <s_lp_Force_Field>
OPLS_2005

> <r_lp_Energy>
22.9418

> <b_lp_Chiralities_Consistent>
1

> <s_lp_Variant>
AV-unprocessed.smi:2145-2

> <Gold.Version>
5.8.1

> <Gold.Id.Protein>
6NUR|6NUR_protein|mol2

> <Gold.PLP.Fitness>
46.5648

> <Gold.PLP.PLP>
-49.3650

> <Gold.PLP.part.hbond>
-2.0000

> <Gold.PLP.part.metal>
0.0000

> <Gold.PLP.part.buried>
-6.3366

> <Gold.PLP.part.nonpolar>
-40.8625

> <Gold.PLP.part.repulsive>
0.2466

> <Gold.PLP.ligand.clash>
0.0000

> <Gold.PLP.ligand.torsion>
1.4680

> <Gold.PLP.Chemscore.Hbond>
0.0000

> <Gold.PLP.Chemscore.CHOScore>
0.0000

> <Gold.PLP.Chemscore.Metal>
0.0000

> <Gold.PLP.Chemscore.Internal.Correction>
0.1357

> <Gold.Rescore>
     Score         DG    S(hbond)    S(metal)    S(lipo)     H(rot)  DE(clash)    DE(int)     intcor
     13.22     -14.89       0.00        0.00     128.92       2.22       0.17       1.50       ----

> <Gold.Chemscore.Fitness>
13.2159

> <Gold.Chemscore.DG>
-14.8867

> <Gold.Chemscore.ZeroCoef>
-5.4800

> <Gold.Chemscore.Hbond>
0.0000

> <Gold.Chemscore.Metal>
0.0000

> <Gold.Chemscore.Lipo>
128.9203

> <Gold.Chemscore.Internal_Hbond>
0.0000

> <Gold.Chemscore.DEClash>
0.1712

> <Gold.Chemscore.DEInternal>
1.4997

> <Gold.Chemscore.Rot>
2.2176

> <Gold.Chemscore.Internal.Correction>
   9.000000E+99

> <Gold.Chemscore.Hbond.Weighted>
-0.0000

> <Gold.Chemscore.Metal.Weighted>
-0.0000

> <Gold.Chemscore.Lipo.Weighted>
-15.0837

> <Gold.Chemscore.Internal_Hbond.Weighted>
0.0000

> <Gold.Chemscore.DEClash.Weighted>
0.1712

> <Gold.Chemscore.DEInternal.Weighted>
1.4997

> <Gold.Chemscore.Rot.Weighted>
5.6769

> <Gold.Chemscore.Internal.Correction.Weighted>
   9.000000E+99

> <Gold.Protein.RotatedTorsions>
[ 6907 6896 6895 6894 ] final -127.37 input  -60.11 | X-H torsion
[ 7974 7965 7964 7962 ] final   31.15 input  175.53 | X-H torsion
[ 8008 7997 7996 7995 ] final    9.57 input   59.86 | X-H torsion
[ 10167 10162 10161 10158 ] final  -50.21 input  -65.29 | X-H torsion
[ 10718 10713 10712 10709 ] final  147.72 input   66.30 | X-H torsion
[ 10763 10752 10751 10750 ] final  -92.95 input  -60.55 | X-H torsion
[ 11005 11000 10999 10996 ] final  -27.00 input  -57.11 | X-H torsion

> <Gold.Protein.ActiveResidues>
 VAL166  LYS551  ARG553  GLY616  TRP617  ASP618  TYR619  PRO620  LYS621  CYS622 
 ASP623  PHE694  ASN695  SER759  ASP760  ASP761  ALA762  ILE779  LEU786  VAL792 
 PHE793  MET794  SER795  GLU796  ALA797  LYS798  CYS799  TRP800  GLU811  SER814 

> <Gold.Protein.RotatedAtoms>
  150.9066  133.7050  159.2865 H   0  0  0  0  0  0  0  0  0  0  0  0  # atno 6907 bound_to 6896
  151.4551  135.1032  159.9718 H   0  0  0  0  0  0  0  0  0  0  0  0  # atno 6908 bound_to 6896
  152.4907  133.8443  159.7224 H   0  0  0  0  0  0  0  0  0  0  0  0  # atno 6909 bound_to 6896
  146.1568  139.6694  142.9061 H   0  0  0  0  0  0  0  0  0  0  0  0  # atno 7974 bound_to 7965
  154.7818  140.2820  155.6058 H   0  0  0  0  0  0  0  0  0  0  0  0  # atno 8008 bound_to 7997
  156.2951  140.2621  156.2573 H   0  0  0  0  0  0  0  0  0  0  0  0  # atno 8009 bound_to 7997
  154.9775  140.0375  157.2252 H   0  0  0  0  0  0  0  0  0  0  0  0  # atno 8010 bound_to 7997
  140.6648  143.2666  151.4327 H   0  0  0  0  0  0  0  0  0  0  0  0  # atno 10167 bound_to 10162
  157.3175  131.0898  151.1267 H   0  0  0  0  0  0  0  0  0  0  0  0  # atno 10718 bound_to 10713
  154.6912  135.5212  153.8394 H   0  0  0  0  0  0  0  0  0  0  0  0  # atno 10763 bound_to 10752
  153.0633  135.6576  154.0421 H   0  0  0  0  0  0  0  0  0  0  0  0  # atno 10764 bound_to 10752
  154.0295  135.2986  155.3350 H   0  0  0  0  0  0  0  0  0  0  0  0  # atno 10765 bound_to 10752
  140.9080  133.7479  156.0632 H   0  0  0  0  0  0  0  0  0  0  0  0  # atno 11005 bound_to 11000
  145.4689  141.0435  143.2710 LP  0  0  0  0  0  0  0  0  0  0  0  0  # atno 17320 bound_to 7965
  144.7973  139.6208  143.7087 LP  0  0  0  0  0  0  0  0  0  0  0  0  # atno 17321 bound_to 7965
  139.5893  144.1533  152.2069 LP  0  0  0  0  0  0  0  0  0  0  0  0  # atno 17342 bound_to 10162
  140.0883  144.5642  150.7073 LP  0  0  0  0  0  0  0  0  0  0  0  0  # atno 17343 bound_to 10162
  157.2564  130.6638  149.5955 LP  0  0  0  0  0  0  0  0  0  0  0  0  # atno 17370 bound_to 10713
  155.9683  130.4522  150.5765 LP  0  0  0  0  0  0  0  0  0  0  0  0  # atno 17371 bound_to 10713
  140.8146  134.3360  157.5401 LP  0  0  0  0  0  0  0  0  0  0  0  0  # atno 17394 bound_to 11000
  139.8752  134.9274  156.3424 LP  0  0  0  0  0  0  0  0  0  0  0  0  # atno 17395 bound_to 11000

$$$$
