AV-unprocessed.smi:710|AV-procd|sdf|3462|dock7
  -GOLD-   22720 0453D 1   1.00000     0.00000
 Structure written by MMmdl.
 40 41  0  0  0  0  0  0  0  0  1 V2000
  153.4611  137.8102  156.7107 C   0  0  0  0  0  0  0  0  0  0  0  0
  152.3874  138.7877  156.3261 C   0  0  0  0  0  0  0  0  0  0  0  0
  152.2717  139.9226  156.9954 N   0  0  0  0  0  0  0  0  0  0  0  0
  151.2414  140.5645  156.4087 N   0  0  0  0  0  0  0  0  0  0  0  0
  150.8433  141.8689  156.9006 C   0  0  0  0  0  0  0  0  0  0  0  0
  150.7005  139.8303  155.3712 C   0  0  0  0  0  0  0  0  0  0  0  0
  149.5501  140.3308  154.5576 C   0  0  0  0  0  0  0  0  0  0  0  0
  151.4203  138.6676  155.2856 C   0  0  0  0  0  0  0  0  0  0  0  0
  151.2547  137.5191  154.3209 C   0  0  0  0  0  0  0  0  0  0  0  0
  150.8315  136.2582  155.0760 C   0  0  0  0  0  0  0  0  0  0  0  0
  151.4625  135.8869  156.0651 O   0  0  0  0  0  0  0  0  0  0  0  0
  149.7586  135.6120  154.5991 N   0  0  0  0  0  0  0  0  0  0  0  0
  149.2121  134.3781  155.1477 C   0  0  0  0  0  0  0  0  0  0  0  0
  148.0068  133.8782  154.3227 C   0  0  1  0  0  0  0  0  0  0  0  0
  147.2842  135.0147  153.8813 O   0  0  0  0  0  0  0  0  0  0  0  0
  148.4464  133.0986  153.0726 C   0  0  0  0  0  0  0  0  0  0  0  0
  147.2112  132.3987  152.4954 C   0  0  0  0  0  0  0  0  0  0  0  0
  146.1318  131.9569  153.8808 S   0  0  0  0  0  0  0  0  0  0  0  0
  147.0606  132.9371  155.0903 C   0  0  0  0  0  0  0  0  0  0  0  0
  153.9859  137.4410  155.8294 H   0  0  0  0  0  0  0  0  0  0  0  0
  153.0361  136.9502  157.2284 H   0  0  0  0  0  0  0  0  0  0  0  0
  154.2032  138.2622  157.3700 H   0  0  0  0  0  0  0  0  0  0  0  0
  150.8068  142.5781  156.0731 H   0  0  0  0  0  0  0  0  0  0  0  0
  151.5533  142.2338  157.6444 H   0  0  0  0  0  0  0  0  0  0  0  0
  149.8556  141.8016  157.3573 H   0  0  0  0  0  0  0  0  0  0  0  0
  149.1464  139.5470  153.9175 H   0  0  0  0  0  0  0  0  0  0  0  0
  149.8625  141.1562  153.9176 H   0  0  0  0  0  0  0  0  0  0  0  0
  148.7422  140.6846  155.1982 H   0  0  0  0  0  0  0  0  0  0  0  0
  150.5066  137.7470  153.5607 H   0  0  0  0  0  0  0  0  0  0  0  0
  152.1780  137.3129  153.7788 H   0  0  0  0  0  0  0  0  0  0  0  0
  149.3076  135.9837  153.7759 H   0  0  0  0  0  0  0  0  0  0  0  0
  149.9892  133.6131  155.1996 H   0  0  0  0  0  0  0  0  0  0  0  0
  148.8985  134.5780  156.1737 H   0  0  0  0  0  0  0  0  0  0  0  0
  147.8766  135.5819  153.4115 H   0  0  0  0  0  0  0  0  0  0  0  0
  148.9330  133.7366  152.3334 H   0  0  0  0  0  0  0  0  0  0  0  0
  149.1741  132.3380  153.3594 H   0  0  0  0  0  0  0  0  0  0  0  0
  146.6643  133.0793  151.8423 H   0  0  0  0  0  0  0  0  0  0  0  0
  147.4756  131.5185  151.9090 H   0  0  0  0  0  0  0  0  0  0  0  0
  147.6404  132.2399  155.6961 H   0  0  0  0  0  0  0  0  0  0  0  0
  146.3862  133.4696  155.7622 H   0  0  0  0  0  0  0  0  0  0  0  0
  1  2  1  0  0  0  0
  1 20  1  0  0  0  0
  1 21  1  0  0  0  0
  1 22  1  0  0  0  0
  2  8  1  0  0  0  0
  2  3  2  0  0  0  0
  3  4  1  0  0  0  0
  4  5  1  0  0  0  0
  4  6  1  0  0  0  0
  5 23  1  0  0  0  0
  5 24  1  0  0  0  0
  5 25  1  0  0  0  0
  6  7  1  0  0  0  0
  6  8  2  0  0  0  0
  7 26  1  0  0  0  0
  7 27  1  0  0  0  0
  7 28  1  0  0  0  0
  8  9  1  0  0  0  0
  9 10  1  0  0  0  0
  9 29  1  0  0  0  0
  9 30  1  0  0  0  0
 10 11  2  0  0  0  0
 10 12  1  0  0  0  0
 12 13  1  0  0  0  0
 12 31  1  0  0  0  0
 13 14  1  0  0  0  0
 13 32  1  0  0  0  0
 13 33  1  0  0  0  0
 14 19  1  0  0  0  0
 14 15  1  0  0  0  0
 14 16  1  0  0  0  0
 15 34  1  0  0  0  0
 16 17  1  0  0  0  0
 16 35  1  0  0  0  0
 16 36  1  0  0  0  0
 17 18  1  0  0  0  0
 17 37  1  0  0  0  0
 17 38  1  0  0  0  0
 18 19  1  0  0  0  0
 19 39  1  0  0  0  0
 19 40  1  0  0  0  0
M  END
> <s_m_source_file>
AV-unprocessed.smi

> <i_m_source_file_index>
710

> <i_lp_mmshare_version>
43012

> <i_f3d_flags>
0

> <s_epik_input>
W0NIM11jMW5uKFtDSDNdKWMoW0NIM10pYzFbQ0gyXUMoPU8pW05IXVtDSDJdW0NAQF0yKFtPSF0pW0NIMl1bQ0gyXVNbQ0gyXTI=

> <s_epik_cmdline>
J2VwaWtfcHl0aG9uJywgJy1waCcsICc3LjAnLCAnLXRuJywgJzgnLCAnLW1hJywgJzIwMCcsICctbWV0YWxfYmluZGluZycsICctaW1hZScsICc8aW5maWxlLm1hZT4nLCAnLW9tYWUnLCAnPG91dGZpbGUubWFlPic=

> <r_lp_tautomer_probability>
1

> <r_epik_Ionization_Penalty>
0.00343686

> <r_epik_Ionization_Penalty_Charging>
0

> <r_epik_Ionization_Penalty_Neutral>
0.00343686

> <r_epik_State_Penalty>
0.00243544

> <r_epik_Charging_Adjusted_Penalty>
0.00243544

> <i_epik_Tot_Q>
0

> <i_epik_Tot_abs_Q>
0

> <r_epik_Metal_State_Penalty>
-0

> <b_epik_Metal_Only>
0

> <s_lp_Force_Field>
OPLS_2005

> <r_lp_Energy>
10.7161

> <b_lp_Chiralities_Consistent>
1

> <s_lp_Variant>
AV-unprocessed.smi:710-1

> <Gold.Version>
5.8.1

> <Gold.Id.Protein>
6NUR|6NUR_protein|mol2

> <Gold.PLP.Fitness>
42.0765

> <Gold.PLP.PLP>
-32.4848

> <Gold.PLP.part.hbond>
-4.3049

> <Gold.PLP.part.metal>
0.0000

> <Gold.PLP.part.buried>
3.8330

> <Gold.PLP.part.nonpolar>
-31.0252

> <Gold.PLP.part.repulsive>
0.0934

> <Gold.PLP.ligand.clash>
0.0000

> <Gold.PLP.ligand.torsion>
0.4604

> <Gold.PLP.Chemscore.Hbond>
3.5000

> <Gold.PLP.Chemscore.CHOScore>
0.0000

> <Gold.PLP.Chemscore.Metal>
0.0000

> <Gold.Chemscore.Hbonds>
donor molecule, donor type, donor heavy atom, donor atom, acceptor molecule, acceptor atom, score
      L1  H    12    31       P1  7948  1.00
      L1  H    15    34       P1  7948  1.00
      P1  H  7997  8009       L1     3  0.17
      P1  H 10752 10763       L1    11  0.89

> <Gold.PLP.Chemscore.Internal.Correction>
0.0125

> <Gold.Rescore>
     Score         DG    S(hbond)    S(metal)    S(lipo)     H(rot)  DE(clash)    DE(int)     intcor
     15.32     -16.61       2.33        0.00      74.19       2.07       0.67       0.63       ----

> <Gold.Chemscore.Fitness>
15.3234

> <Gold.Chemscore.DG>
-16.6140

> <Gold.Chemscore.ZeroCoef>
-5.4800

> <Gold.Chemscore.Hbond>
2.3252

> <Gold.Chemscore.Metal>
0.0000

> <Gold.Chemscore.Lipo>
74.1877

> <Gold.Chemscore.Internal_Hbond>
0.0000

> <Gold.Chemscore.DEClash>
0.6650

> <Gold.Chemscore.DEInternal>
0.6256

> <Gold.Chemscore.Rot>
2.0750

> <Gold.Chemscore.Internal.Correction>
   9.000000E+99

> <Gold.Chemscore.Hbonds>
donor molecule, donor type, donor heavy atom, donor atom, acceptor molecule, acceptor atom, score
      L1  H    12    31       P1  7948  0.73
      L1  H    15    34       P1  7948  0.96
      P1  H 10752 10763       L1    11  0.16

> <Gold.Chemscore.Hbond.Weighted>
-7.7660

> <Gold.Chemscore.Metal.Weighted>
-0.0000

> <Gold.Chemscore.Lipo.Weighted>
-8.6800

> <Gold.Chemscore.Internal_Hbond.Weighted>
0.0000

> <Gold.Chemscore.DEClash.Weighted>
0.6650

> <Gold.Chemscore.DEInternal.Weighted>
0.6256

> <Gold.Chemscore.Rot.Weighted>
5.3120

> <Gold.Chemscore.Internal.Correction.Weighted>
   9.000000E+99

> <Gold.Protein.RotatedTorsions>
[ 6907 6896 6895 6894 ] final   49.79 input  -60.11 | X-H torsion
[ 7974 7965 7964 7962 ] final  112.81 input  175.53 | X-H torsion
[ 8008 7997 7996 7995 ] final  173.35 input   59.86 | X-H torsion
[ 10167 10162 10161 10158 ] final  107.09 input  -65.29 | X-H torsion
[ 10718 10713 10712 10709 ] final  -21.14 input   66.30 | X-H torsion
[ 10763 10752 10751 10750 ] final   96.81 input  -60.55 | X-H torsion
[ 11005 11000 10999 10996 ] final -171.87 input  -57.11 | X-H torsion

> <Gold.Protein.ActiveResidues>
 VAL166  LYS551  ARG553  GLY616  TRP617  ASP618  TYR619  PRO620  LYS621  CYS622 
 ASP623  PHE694  ASN695  SER759  ASP760  ASP761  ALA762  ILE779  LEU786  VAL792 
 PHE793  MET794  SER795  GLU796  ALA797  LYS798  CYS799  TRP800  GLU811  SER814 

> <Gold.Protein.RotatedAtoms>
  152.2947  134.7681  160.0370 H   0  0  0  0  0  0  0  0  0  0  0  0  # atno 6907 bound_to 6896
  151.8215  133.3390  159.3594 H   0  0  0  0  0  0  0  0  0  0  0  0  # atno 6908 bound_to 6896
  150.7246  134.5498  159.5833 H   0  0  0  0  0  0  0  0  0  0  0  0  # atno 6909 bound_to 6896
  145.2249  139.2845  143.4199 H   0  0  0  0  0  0  0  0  0  0  0  0  # atno 7974 bound_to 7965
  156.1084  140.1462  156.9372 H   0  0  0  0  0  0  0  0  0  0  0  0  # atno 8008 bound_to 7997
  154.4750  140.0897  156.7283 H   0  0  0  0  0  0  0  0  0  0  0  0  # atno 8009 bound_to 7997
  155.4638  140.3439  155.4318 H   0  0  0  0  0  0  0  0  0  0  0  0  # atno 8010 bound_to 7997
  139.6955  144.7102  151.1274 H   0  0  0  0  0  0  0  0  0  0  0  0  # atno 10167 bound_to 10162
  156.5223  130.4635  149.6590 H   0  0  0  0  0  0  0  0  0  0  0  0  # atno 10718 bound_to 10713
  153.2694  135.4205  155.0973 H   0  0  0  0  0  0  0  0  0  0  0  0  # atno 10763 bound_to 10752
  154.8450  135.3468  154.6265 H   0  0  0  0  0  0  0  0  0  0  0  0  # atno 10764 bound_to 10752
  153.6685  135.7045  153.5212 H   0  0  0  0  0  0  0  0  0  0  0  0  # atno 10765 bound_to 10752
  140.5034  134.5871  157.4995 H   0  0  0  0  0  0  0  0  0  0  0  0  # atno 11005 bound_to 11000
  146.3367  140.2566  142.8600 LP  0  0  0  0  0  0  0  0  0  0  0  0  # atno 17320 bound_to 7965
  144.9731  140.8387  143.5443 LP  0  0  0  0  0  0  0  0  0  0  0  0  # atno 17321 bound_to 7965
  140.7695  143.5497  150.9218 LP  0  0  0  0  0  0  0  0  0  0  0  0  # atno 17342 bound_to 10162
  139.9177  143.6644  152.3103 LP  0  0  0  0  0  0  0  0  0  0  0  0  # atno 17343 bound_to 10162
  156.3138  130.7243  151.2141 LP  0  0  0  0  0  0  0  0  0  0  0  0  # atno 17370 bound_to 10713
  157.7435  131.0474  150.4942 LP  0  0  0  0  0  0  0  0  0  0  0  0  # atno 17371 bound_to 10713
  139.9700  134.7309  156.0061 LP  0  0  0  0  0  0  0  0  0  0  0  0  # atno 17394 bound_to 11000
  141.1423  133.6562  156.3767 LP  0  0  0  0  0  0  0  0  0  0  0  0  # atno 17395 bound_to 11000

$$$$
