AV-unprocessed.smi:2262|AV-procd|sdf|9139|dock10
  -GOLD-   2272012343D 1   1.00000     0.00000
 Structure written by MMmdl.
 43 44  0  0  0  0  0  0  0  0  2 V2000
  144.9772  133.3385  150.8489 C   0  0  0  0  0  0  0  0  0  0  0  0
  144.8736  134.2251  152.0280 N   0  3  2  0  0  0  0  0  0  0  0  0
  145.0631  135.6548  151.6786 C   0  0  0  0  0  0  0  0  0  0  0  0
  144.8159  136.5616  152.8983 C   0  0  0  0  0  0  0  0  0  0  0  0
  145.6882  136.1649  154.1030 C   0  0  2  0  0  0  0  0  0  0  0  0
  147.0845  136.5373  153.8736 N   0  0  0  0  0  0  0  0  0  0  0  0
  147.7937  137.3791  154.6408 C   0  0  0  0  0  0  0  0  0  0  0  0
  147.3432  137.9089  155.6570 O   0  0  0  0  0  0  0  0  0  0  0  0
  149.0358  137.5558  154.1560 N   0  0  0  0  0  0  0  0  0  0  0  0
  150.0649  138.3892  154.6710 C   0  0  0  0  0  0  0  0  0  0  0  0
  151.3532  138.1530  154.1424 C   0  0  0  0  0  0  0  0  0  0  0  0
  152.4376  138.9305  154.5915 C   0  0  0  0  0  0  0  0  0  0  0  0
  152.2062  139.9259  155.5574 C   0  0  0  0  0  0  0  0  0  0  0  0
  150.8944  140.1059  156.0352 C   0  0  0  0  0  0  0  0  0  0  0  0
  150.6610  141.0845  156.9793 O   0  0  0  0  0  0  0  0  0  0  0  0
  151.7122  141.4235  157.8800 C   0  0  0  0  0  0  0  0  0  0  0  0
  151.4238  142.8033  158.4797 C   0  0  0  0  0  0  0  0  0  0  0  0
  152.3212  143.0998  159.4194 F   0  0  0  0  0  0  0  0  0  0  0  0
  151.4653  143.7339  157.5269 F   0  0  0  0  0  0  0  0  0  0  0  0
  149.8540  139.3531  155.6006 N   0  0  0  0  0  0  0  0  0  0  0  0
  145.5326  134.6576  154.3915 C   0  0  0  0  0  0  0  0  0  0  0  0
  145.7659  133.8006  153.1348 C   0  0  0  0  0  0  0  0  0  0  0  0
  145.9782  133.3755  150.4172 H   0  0  0  0  0  0  0  0  0  0  0  0
  144.2615  133.6340  150.0812 H   0  0  0  0  0  0  0  0  0  0  0  0
  144.7605  132.3056  151.1238 H   0  0  0  0  0  0  0  0  0  0  0  0
  146.0716  135.8064  151.2908 H   0  0  0  0  0  0  0  0  0  0  0  0
  144.3734  135.9290  150.8794 H   0  0  0  0  0  0  0  0  0  0  0  0
  144.9877  137.6054  152.6324 H   0  0  0  0  0  0  0  0  0  0  0  0
  143.7653  136.4924  153.1829 H   0  0  0  0  0  0  0  0  0  0  0  0
  145.3330  136.7248  154.9703 H   0  0  0  0  0  0  0  0  0  0  0  0
  147.5333  136.1491  153.0570 H   0  0  0  0  0  0  0  0  0  0  0  0
  149.2699  137.0468  153.3168 H   0  0  0  0  0  0  0  0  0  0  0  0
  151.5143  137.3850  153.3996 H   0  0  0  0  0  0  0  0  0  0  0  0
  153.4307  138.7664  154.2001 H   0  0  0  0  0  0  0  0  0  0  0  0
  153.0162  140.5403  155.9219 H   0  0  0  0  0  0  0  0  0  0  0  0
  151.8009  140.6814  158.6754 H   0  0  0  0  0  0  0  0  0  0  0  0
  152.6613  141.4546  157.3419 H   0  0  0  0  0  0  0  0  0  0  0  0
  150.4335  142.8466  158.9332 H   0  0  0  0  0  0  0  0  0  0  0  0
  146.2082  134.3449  155.1885 H   0  0  0  0  0  0  0  0  0  0  0  0
  144.5247  134.4703  154.7643 H   0  0  0  0  0  0  0  0  0  0  0  0
  145.5786  132.7527  153.3727 H   0  0  0  0  0  0  0  0  0  0  0  0
  146.8070  133.8707  152.8156 H   0  0  0  0  0  0  0  0  0  0  0  0
  143.9277  134.1351  152.3708 H   0  0  0  0  0  0  0  0  0  0  0  0
  1  2  1  0  0  0  0
  1 23  1  0  0  0  0
  1 24  1  0  0  0  0
  1 25  1  0  0  0  0
  2 22  1  0  0  0  0
  2  3  1  0  0  0  0
  2 43  1  0  0  0  0
  3  4  1  0  0  0  0
  3 26  1  0  0  0  0
  3 27  1  0  0  0  0
  4  5  1  0  0  0  0
  4 28  1  0  0  0  0
  4 29  1  0  0  0  0
  5  6  1  0  0  0  0
  5 21  1  0  0  0  0
  5 30  1  0  0  0  0
  6  7  1  0  0  0  0
  6 31  1  0  0  0  0
  7  8  2  0  0  0  0
  7  9  1  0  0  0  0
  9 10  1  0  0  0  0
  9 32  1  0  0  0  0
 10 20  1  0  0  0  0
 10 11  2  0  0  0  0
 11 12  1  0  0  0  0
 11 33  1  0  0  0  0
 12 13  2  0  0  0  0
 12 34  1  0  0  0  0
 13 14  1  0  0  0  0
 13 35  1  0  0  0  0
 14 15  1  0  0  0  0
 14 20  2  0  0  0  0
 15 16  1  0  0  0  0
 16 17  1  0  0  0  0
 16 36  1  0  0  0  0
 16 37  1  0  0  0  0
 17 18  1  0  0  0  0
 17 19  1  0  0  0  0
 17 38  1  0  0  0  0
 21 22  1  0  0  0  0
 21 39  1  0  0  0  0
 21 40  1  0  0  0  0
 22 41  1  0  0  0  0
 22 42  1  0  0  0  0
M  CHG  1   2   1
M  END
> <s_m_source_file>
AV-unprocessed.smi

> <i_m_source_file_index>
2262

> <i_lp_mmshare_version>
43012

> <i_f3d_flags>
0

> <s_epik_input>
W0NIM11OMVtDSDJdW0NIMl1bQ0hdKFtDSDJdW0NIMl0xKVtOSF1DKD1PKVtOSF1jMltjSF1bY0hdW2NIXWMobjIpT1tDSDJdW0NIXShGKUY=

> <s_epik_cmdline>
J2VwaWtfcHl0aG9uJywgJy1waCcsICc3LjAnLCAnLXRuJywgJzgnLCAnLW1hJywgJzIwMCcsICctbWV0YWxfYmluZGluZycsICctaW1hZScsICc8aW5maWxlLm1hZT4nLCAnLW9tYWUnLCAnPG91dGZpbGUubWFlPic=

> <r_lp_tautomer_probability>
1

> <r_epik_Ionization_Penalty>
0.00369782

> <r_epik_Ionization_Penalty_Charging>
0.00366825

> <r_epik_Ionization_Penalty_Neutral>
2.95729e-05

> <r_epik_State_Penalty>
0.00261101

> <r_epik_Charging_Adjusted_Penalty>
0.00627926

> <i_epik_Tot_Q>
1

> <i_epik_Tot_abs_Q>
1

> <r_epik_Metal_State_Penalty>
-0

> <b_epik_Metal_Only>
0

> <s_lp_Force_Field>
OPLS_2005

> <r_lp_Energy>
16.3431

> <b_lp_Chiralities_Consistent>
1

> <s_lp_Variant>
AV-unprocessed.smi:2262-2

> <Gold.Version>
5.8.1

> <Gold.Id.Protein>
6NUR|6NUR_protein|mol2

> <Gold.PLP.Fitness>
41.5902

> <Gold.PLP.PLP>
-36.6529

> <Gold.PLP.part.hbond>
-2.0000

> <Gold.PLP.part.metal>
0.0000

> <Gold.PLP.part.buried>
-3.8343

> <Gold.PLP.part.nonpolar>
-29.9082

> <Gold.PLP.part.repulsive>
0.1013

> <Gold.PLP.ligand.clash>
0.0000

> <Gold.PLP.ligand.torsion>
0.5272

> <Gold.PLP.Chemscore.Hbond>
1.9920

> <Gold.PLP.Chemscore.CHOScore>
0.0000

> <Gold.PLP.Chemscore.Metal>
0.0000

> <Gold.Chemscore.Hbonds>
donor molecule, donor type, donor heavy atom, donor atom, acceptor molecule, acceptor atom, score
      L1  H     6    31       P1  7948  0.96
      L1  H     9    32       P1  7948  1.00

> <Gold.PLP.Chemscore.Internal.Correction>
0.0158

> <Gold.Rescore>
     Score         DG    S(hbond)    S(metal)    S(lipo)     H(rot)  DE(clash)    DE(int)     intcor
     13.74     -15.27       1.96        0.00      63.84       1.64       0.02       1.51       ----

> <Gold.Chemscore.Fitness>
13.7404

> <Gold.Chemscore.DG>
-15.2720

> <Gold.Chemscore.ZeroCoef>
-5.4800

> <Gold.Chemscore.Hbond>
1.9550

> <Gold.Chemscore.Metal>
0.0000

> <Gold.Chemscore.Lipo>
63.8392

> <Gold.Chemscore.Internal_Hbond>
0.0000

> <Gold.Chemscore.DEClash>
0.0198

> <Gold.Chemscore.DEInternal>
1.5119

> <Gold.Chemscore.Rot>
1.6434

> <Gold.Chemscore.Internal.Correction>
   9.000000E+99

> <Gold.Chemscore.Hbonds>
donor molecule, donor type, donor heavy atom, donor atom, acceptor molecule, acceptor atom, score
      L1  H     6    31       P1  7948  0.92
      L1  H     9    32       P1  7948  0.97

> <Gold.Chemscore.Hbond.Weighted>
-6.5298

> <Gold.Chemscore.Metal.Weighted>
-0.0000

> <Gold.Chemscore.Lipo.Weighted>
-7.4692

> <Gold.Chemscore.Internal_Hbond.Weighted>
0.0000

> <Gold.Chemscore.DEClash.Weighted>
0.0198

> <Gold.Chemscore.DEInternal.Weighted>
1.5119

> <Gold.Chemscore.Rot.Weighted>
4.2070

> <Gold.Chemscore.Internal.Correction.Weighted>
   9.000000E+99

> <Gold.Protein.RotatedTorsions>
[ 6907 6896 6895 6894 ] final   79.66 input  -60.11 | X-H torsion
[ 7974 7965 7964 7962 ] final -169.47 input  175.53 | X-H torsion
[ 8008 7997 7996 7995 ] final -143.44 input   59.86 | X-H torsion
[ 10167 10162 10161 10158 ] final  120.42 input  -65.29 | X-H torsion
[ 10718 10713 10712 10709 ] final -127.43 input   66.30 | X-H torsion
[ 10763 10752 10751 10750 ] final  -14.27 input  -60.55 | X-H torsion
[ 11005 11000 10999 10996 ] final  -60.28 input  -57.11 | X-H torsion

> <Gold.Protein.ActiveResidues>
 VAL166  LYS551  ARG553  GLY616  TRP617  ASP618  TYR619  PRO620  LYS621  CYS622 
 ASP623  PHE694  ASN695  SER759  ASP760  ASP761  ALA762  ILE779  LEU786  VAL792 
 PHE793  MET794  SER795  GLU796  ALA797  LYS798  CYS799  TRP800  GLU811  SER814 

> <Gold.Protein.RotatedAtoms>
  152.5207  134.3477  159.9239 H   0  0  0  0  0  0  0  0  0  0  0  0  # atno 6907 bound_to 6896
  151.3427  133.3950  159.2680 H   0  0  0  0  0  0  0  0  0  0  0  0  # atno 6908 bound_to 6896
  150.9790  134.9167  159.7891 H   0  0  0  0  0  0  0  0  0  0  0  0  # atno 6909 bound_to 6896
  144.7185  140.2216  143.6315 H   0  0  0  0  0  0  0  0  0  0  0  0  # atno 7974 bound_to 7965
  155.5106  140.0583  157.2924 H   0  0  0  0  0  0  0  0  0  0  0  0  # atno 8008 bound_to 7997
  154.4553  140.1970  156.0345 H   0  0  0  0  0  0  0  0  0  0  0  0  # atno 8009 bound_to 7997
  156.0787  140.3250  155.7670 H   0  0  0  0  0  0  0  0  0  0  0  0  # atno 8010 bound_to 7997
  139.5983  144.7049  151.3123 H   0  0  0  0  0  0  0  0  0  0  0  0  # atno 10167 bound_to 10162
  156.1856  130.6761  151.0360 H   0  0  0  0  0  0  0  0  0  0  0  0  # atno 10718 bound_to 10713
  153.5257  135.7015  153.5708 H   0  0  0  0  0  0  0  0  0  0  0  0  # atno 10763 bound_to 10752
  153.3738  135.3938  155.1807 H   0  0  0  0  0  0  0  0  0  0  0  0  # atno 10764 bound_to 10752
  154.8690  135.3818  154.4750 H   0  0  0  0  0  0  0  0  0  0  0  0  # atno 10765 bound_to 10752
  141.1281  133.6621  156.5199 H   0  0  0  0  0  0  0  0  0  0  0  0  # atno 11005 bound_to 11000
  145.8495  139.2168  143.1780 LP  0  0  0  0  0  0  0  0  0  0  0  0  # atno 17320 bound_to 7965
  146.0273  140.8291  142.9893 LP  0  0  0  0  0  0  0  0  0  0  0  0  # atno 17321 bound_to 7965
  140.7229  143.7084  150.7789 LP  0  0  0  0  0  0  0  0  0  0  0  0  # atno 17342 bound_to 10162
  140.0655  143.5112  152.2606 LP  0  0  0  0  0  0  0  0  0  0  0  0  # atno 17343 bound_to 10162
  157.6896  131.0814  150.7144 LP  0  0  0  0  0  0  0  0  0  0  0  0  # atno 17370 bound_to 10713
  156.7201  130.4678  149.5525 LP  0  0  0  0  0  0  0  0  0  0  0  0  # atno 17371 bound_to 10713
  140.4300  134.7110  157.4937 LP  0  0  0  0  0  0  0  0  0  0  0  0  # atno 17394 bound_to 11000
  140.0300  134.6420  155.9119 LP  0  0  0  0  0  0  0  0  0  0  0  0  # atno 17395 bound_to 11000

$$$$
