AV-unprocessed.smi:1466|AV-procd|sdf|5953|dock6
  -GOLD-   22720 6 33D 1   1.00000     0.00000
 Structure written by MMmdl.
 49 50  0  0  0  0  0  0  0  0  2 V2000
  144.9393  131.8122  150.2128 C   0  0  0  0  0  0  0  0  0  0  0  0
  145.0559  132.3464  151.5632 N   0  0  0  0  0  0  0  0  0  0  0  0
  145.6313  131.5341  152.6294 C   0  0  0  0  0  0  0  0  0  0  0  0
  144.6169  133.6592  151.8397 C   0  0  0  0  0  0  0  0  0  0  0  0
  144.9859  134.7809  151.0571 C   0  0  0  0  0  0  0  0  0  0  0  0
  144.5093  136.0642  151.3959 C   0  0  0  0  0  0  0  0  0  0  0  0
  143.6705  136.2227  152.5258 C   0  0  0  0  0  0  0  0  0  0  0  0
  143.1264  137.4669  152.9450 N   0  0  0  0  0  0  0  0  0  0  0  0
  142.2008  137.6958  153.8925 C   0  0  0  0  0  0  0  0  0  0  0  0
  141.6471  136.8290  154.5685 O   0  0  0  0  0  0  0  0  0  0  0  0
  141.9299  139.0040  154.0025 N   0  0  0  0  0  0  0  0  0  0  0  0
  140.9554  139.5785  154.9227 C   0  0  0  0  0  0  0  0  0  0  0  0
  139.9842  140.5268  154.1953 C   0  0  0  0  0  0  0  0  0  0  0  0
  138.7630  139.8280  153.7786 N   0  0  0  0  0  0  0  0  0  0  0  0
  138.9498  138.6881  152.8675 C   0  0  0  0  0  0  0  0  0  0  0  0
  138.6773  137.3151  153.5238 C   0  0  0  0  0  0  0  0  0  0  0  0
  137.6247  137.2961  154.6500 C   0  0  0  0  0  0  0  0  0  0  0  0
  136.2707  137.9441  154.2913 C   0  0  0  0  0  0  0  0  0  0  0  0
  136.3165  139.3973  153.7605 C   0  0  0  0  0  0  0  0  0  0  0  0
  137.5393  140.2071  154.2221 C   0  0  0  0  0  0  0  0  0  0  0  0
  137.3660  141.1665  154.9743 O   0  0  0  0  0  0  0  0  0  0  0  0
  143.3199  135.0728  153.2611 C   0  0  0  0  0  0  0  0  0  0  0  0
  143.7991  133.8627  152.9014 N   0  3  0  0  0  0  0  0  0  0  0  0
  145.4767  132.4415  149.5027 H   0  0  0  0  0  0  0  0  0  0  0  0
  143.8927  131.7600  149.9114 H   0  0  0  0  0  0  0  0  0  0  0  0
  145.3557  130.8070  150.1469 H   0  0  0  0  0  0  0  0  0  0  0  0
  146.5422  131.9953  153.0121 H   0  0  0  0  0  0  0  0  0  0  0  0
  145.8861  130.5355  152.2739 H   0  0  0  0  0  0  0  0  0  0  0  0
  144.9246  131.4237  153.4526 H   0  0  0  0  0  0  0  0  0  0  0  0
  145.6260  134.6799  150.1939 H   0  0  0  0  0  0  0  0  0  0  0  0
  144.7883  136.8988  150.7715 H   0  0  0  0  0  0  0  0  0  0  0  0
  143.4296  138.2730  152.4183 H   0  0  0  0  0  0  0  0  0  0  0  0
  142.4276  139.6489  153.4060 H   0  0  0  0  0  0  0  0  0  0  0  0
  140.4132  138.7815  155.4347 H   0  0  0  0  0  0  0  0  0  0  0  0
  141.4998  140.1254  155.6928 H   0  0  0  0  0  0  0  0  0  0  0  0
  139.7354  141.3707  154.8402 H   0  0  0  0  0  0  0  0  0  0  0  0
  140.4699  140.9699  153.3238 H   0  0  0  0  0  0  0  0  0  0  0  0
  138.3027  138.8153  151.9994 H   0  0  0  0  0  0  0  0  0  0  0  0
  139.9555  138.6894  152.4452 H   0  0  0  0  0  0  0  0  0  0  0  0
  138.3939  136.6044  152.7467 H   0  0  0  0  0  0  0  0  0  0  0  0
  139.6127  136.9383  153.9390 H   0  0  0  0  0  0  0  0  0  0  0  0
  137.4511  136.2623  154.9499 H   0  0  0  0  0  0  0  0  0  0  0  0
  138.0358  137.7806  155.5367 H   0  0  0  0  0  0  0  0  0  0  0  0
  135.7663  137.3210  153.5522 H   0  0  0  0  0  0  0  0  0  0  0  0
  135.6353  137.9159  155.1772 H   0  0  0  0  0  0  0  0  0  0  0  0
  136.2837  139.3993  152.6715 H   0  0  0  0  0  0  0  0  0  0  0  0
  135.4080  139.9178  154.0661 H   0  0  0  0  0  0  0  0  0  0  0  0
  142.6771  135.0826  154.1297 H   0  0  0  0  0  0  0  0  0  0  0  0
  143.5297  133.0547  153.4627 H   0  0  0  0  0  0  0  0  0  0  0  0
  1  2  1  0  0  0  0
  1 24  1  0  0  0  0
  1 25  1  0  0  0  0
  1 26  1  0  0  0  0
  2  3  1  0  0  0  0
  2  4  1  0  0  0  0
  3 27  1  0  0  0  0
  3 28  1  0  0  0  0
  3 29  1  0  0  0  0
  4 23  1  0  0  0  0
  4  5  2  0  0  0  0
  5  6  1  0  0  0  0
  5 30  1  0  0  0  0
  6  7  2  0  0  0  0
  6 31  1  0  0  0  0
  7  8  1  0  0  0  0
  7 22  1  0  0  0  0
  8  9  1  0  0  0  0
  8 32  1  0  0  0  0
  9 10  2  0  0  0  0
  9 11  1  0  0  0  0
 11 12  1  0  0  0  0
 11 33  1  0  0  0  0
 12 13  1  0  0  0  0
 12 34  1  0  0  0  0
 12 35  1  0  0  0  0
 13 14  1  0  0  0  0
 13 36  1  0  0  0  0
 13 37  1  0  0  0  0
 14 20  1  0  0  0  0
 14 15  1  0  0  0  0
 15 16  1  0  0  0  0
 15 38  1  0  0  0  0
 15 39  1  0  0  0  0
 16 17  1  0  0  0  0
 16 40  1  0  0  0  0
 16 41  1  0  0  0  0
 17 18  1  0  0  0  0
 17 42  1  0  0  0  0
 17 43  1  0  0  0  0
 18 19  1  0  0  0  0
 18 44  1  0  0  0  0
 18 45  1  0  0  0  0
 19 20  1  0  0  0  0
 19 46  1  0  0  0  0
 19 47  1  0  0  0  0
 20 21  2  0  0  0  0
 22 23  2  0  0  0  0
 22 48  1  0  0  0  0
 23 49  1  0  0  0  0
M  CHG  1  23   1
M  END
> <s_m_source_file>
AV-unprocessed.smi

> <i_m_source_file_index>
1466

> <i_lp_mmshare_version>
43012

> <i_f3d_flags>
0

> <s_epik_input>
W0NIM11OKFtDSDNdKWMxW2NIXVtjSF1jKFtjSF1uMSlbTkhdQyg9TylbTkhdW0NIMl1bQ0gyXU4yW0NIMl1bQ0gyXVtDSDJdW0NIMl1bQ0gyXUMyPU8=

> <s_epik_cmdline>
J2VwaWtfcHl0aG9uJywgJy1waCcsICc3LjAnLCAnLXRuJywgJzgnLCAnLW1hJywgJzIwMCcsICctbWV0YWxfYmluZGluZycsICctaW1hZScsICc8aW5maWxlLm1hZT4nLCAnLW9tYWUnLCAnPG91dGZpbGUubWFlPic=

> <r_lp_tautomer_probability>
0.999994

> <r_epik_Ionization_Penalty>
0.269687

> <r_epik_Ionization_Penalty_Charging>
0.269668

> <r_epik_Ionization_Penalty_Neutral>
1.89217e-05

> <r_epik_State_Penalty>
0.261755

> <r_epik_Charging_Adjusted_Penalty>
0.531423

> <i_epik_Tot_Q>
1

> <i_epik_Tot_abs_Q>
1

> <r_epik_Metal_State_Penalty>
0.546954

> <b_epik_Metal_Only>
0

> <s_lp_Force_Field>
OPLS_2005

> <r_lp_Energy>
31.5815

> <b_lp_Chiralities_Consistent>
1

> <s_lp_Variant>
AV-unprocessed.smi:1466-1

> <Gold.Version>
5.8.1

> <Gold.Id.Protein>
6NUR|6NUR_protein|mol2

> <Gold.PLP.Fitness>
47.3379

> <Gold.PLP.PLP>
-38.8559

> <Gold.PLP.part.hbond>
-2.9443

> <Gold.PLP.part.metal>
0.0000

> <Gold.PLP.part.buried>
-5.3418

> <Gold.PLP.part.nonpolar>
-31.6063

> <Gold.PLP.part.repulsive>
0.0421

> <Gold.PLP.ligand.clash>
0.0000

> <Gold.PLP.ligand.torsion>
1.1456

> <Gold.PLP.Chemscore.Hbond>
3.5795

> <Gold.PLP.Chemscore.CHOScore>
0.0000

> <Gold.PLP.Chemscore.Metal>
0.0000

> <Gold.Chemscore.Hbonds>
donor molecule, donor type, donor heavy atom, donor atom, acceptor molecule, acceptor atom, score
      L1  H     8    32       P1 10175  0.60
      L1  H    11    33       P1 10175  1.00
      L1  H    23    49       P1 10957  1.98

> <Gold.PLP.Chemscore.Internal.Correction>
0.0350

> <Gold.Rescore>
     Score         DG    S(hbond)    S(metal)    S(lipo)     H(rot)  DE(clash)    DE(int)     intcor
     16.99     -19.30       2.62        0.00      76.18       1.50       0.02       2.29       ----

> <Gold.Chemscore.Fitness>
16.9877

> <Gold.Chemscore.DG>
-19.2984

> <Gold.Chemscore.ZeroCoef>
-5.4800

> <Gold.Chemscore.Hbond>
2.6220

> <Gold.Chemscore.Metal>
0.0000

> <Gold.Chemscore.Lipo>
76.1791

> <Gold.Chemscore.Internal_Hbond>
0.0000

> <Gold.Chemscore.DEClash>
0.0228

> <Gold.Chemscore.DEInternal>
2.2878

> <Gold.Chemscore.Rot>
1.5047

> <Gold.Chemscore.Internal.Correction>
   9.000000E+99

> <Gold.Chemscore.Hbonds>
donor molecule, donor type, donor heavy atom, donor atom, acceptor molecule, acceptor atom, score
      L1  H     8    32       P1 10175  0.59
      L1  H    11    33       P1 10175  0.99
      L1  H    23    49       P1 10957  0.81

> <Gold.Chemscore.Hbond.Weighted>
-8.7576

> <Gold.Chemscore.Metal.Weighted>
-0.0000

> <Gold.Chemscore.Lipo.Weighted>
-8.9129

> <Gold.Chemscore.Internal_Hbond.Weighted>
0.0000

> <Gold.Chemscore.DEClash.Weighted>
0.0228

> <Gold.Chemscore.DEInternal.Weighted>
2.2878

> <Gold.Chemscore.Rot.Weighted>
3.8522

> <Gold.Chemscore.Internal.Correction.Weighted>
   9.000000E+99

> <Gold.Protein.RotatedTorsions>
[ 6907 6896 6895 6894 ] final -128.07 input  -60.11 | X-H torsion
[ 7974 7965 7964 7962 ] final  -49.46 input  175.53 | X-H torsion
[ 8008 7997 7996 7995 ] final  154.17 input   59.86 | X-H torsion
[ 10167 10162 10161 10158 ] final  -41.93 input  -65.29 | X-H torsion
[ 10718 10713 10712 10709 ] final -176.08 input   66.30 | X-H torsion
[ 10763 10752 10751 10750 ] final   59.10 input  -60.55 | X-H torsion
[ 11005 11000 10999 10996 ] final  -13.64 input  -57.11 | X-H torsion

> <Gold.Protein.ActiveResidues>
 VAL166  LYS551  ARG553  GLY616  TRP617  ASP618  TYR619  PRO620  LYS621  CYS622 
 ASP623  PHE694  ASN695  SER759  ASP760  ASP761  ALA762  ILE779  LEU786  VAL792 
 PHE793  MET794  SER795  GLU796  ALA797  LYS798  CYS799  TRP800  GLU811  SER814 

> <Gold.Protein.RotatedAtoms>
  150.9140  133.6962  159.2847 H   0  0  0  0  0  0  0  0  0  0  0  0  # atno 6907 bound_to 6896
  151.4439  135.1022  159.9688 H   0  0  0  0  0  0  0  0  0  0  0  0  # atno 6908 bound_to 6896
  152.4945  133.8542  159.7272 H   0  0  0  0  0  0  0  0  0  0  0  0  # atno 6909 bound_to 6896
  145.9403  140.7668  142.9555 H   0  0  0  0  0  0  0  0  0  0  0  0  # atno 7974 bound_to 7965
  156.2545  140.1974  156.6604 H   0  0  0  0  0  0  0  0  0  0  0  0  # atno 8008 bound_to 7997
  154.6469  140.0576  156.9936 H   0  0  0  0  0  0  0  0  0  0  0  0  # atno 8009 bound_to 7997
  155.1477  140.3248  155.4440 H   0  0  0  0  0  0  0  0  0  0  0  0  # atno 8010 bound_to 7997
  140.6986  143.3066  151.3137 H   0  0  0  0  0  0  0  0  0  0  0  0  # atno 10167 bound_to 10162
  156.8094  130.9580  151.3116 H   0  0  0  0  0  0  0  0  0  0  0  0  # atno 10718 bound_to 10713
  152.9886  135.5583  154.5659 H   0  0  0  0  0  0  0  0  0  0  0  0  # atno 10763 bound_to 10752
  154.5069  135.2800  155.1377 H   0  0  0  0  0  0  0  0  0  0  0  0  # atno 10764 bound_to 10752
  154.2785  135.6349  153.5390 H   0  0  0  0  0  0  0  0  0  0  0  0  # atno 10765 bound_to 10752
  140.7782  133.8384  155.9268 H   0  0  0  0  0  0  0  0  0  0  0  0  # atno 11005 bound_to 11000
  144.6778  140.2269  143.7360 LP  0  0  0  0  0  0  0  0  0  0  0  0  # atno 17320 bound_to 7965
  145.8309  139.2085  143.1883 LP  0  0  0  0  0  0  0  0  0  0  0  0  # atno 17321 bound_to 7965
  139.6474  144.0425  152.2601 LP  0  0  0  0  0  0  0  0  0  0  0  0  # atno 17342 bound_to 10162
  139.9950  144.6334  150.7780 LP  0  0  0  0  0  0  0  0  0  0  0  0  # atno 17343 bound_to 10162
  157.6514  130.8887  149.9640 LP  0  0  0  0  0  0  0  0  0  0  0  0  # atno 17370 bound_to 10713
  156.1054  130.3653  150.0144 LP  0  0  0  0  0  0  0  0  0  0  0  0  # atno 17371 bound_to 10713
  140.9508  134.1781  157.4729 LP  0  0  0  0  0  0  0  0  0  0  0  0  # atno 17394 bound_to 11000
  139.8746  134.9908  156.5520 LP  0  0  0  0  0  0  0  0  0  0  0  0  # atno 17395 bound_to 11000

$$$$
