AV-unprocessed.smi:2474|AV-procd|sdf|9754|dock8
  -GOLD-   2272013393D 1   1.00000     0.00000
 Structure written by MMmdl.
 40 41  0  0  0  0  0  0  0  0  1 V2000
  145.5336  135.9811  152.1106 C   0  0  0  0  0  0  0  0  0  0  0  0
  146.0115  137.3911  152.1895 C   0  0  0  0  0  0  0  0  0  0  0  0
  146.2297  138.2636  151.1523 C   0  0  0  0  0  0  0  0  0  0  0  0
  146.6617  139.5274  151.5592 N   0  0  0  0  0  0  0  0  0  0  0  0
  146.7761  139.6266  152.8868 C   0  0  0  0  0  0  0  0  0  0  0  0
  147.1440  140.8942  153.5995 C   0  0  1  0  0  0  0  0  0  0  0  0
  146.5123  140.9752  154.9968 C   0  0  0  0  0  0  0  0  0  0  0  0
  148.6652  141.1690  153.6083 C   0  0  0  0  0  0  0  0  0  0  0  0
  149.0673  141.9809  154.7554 N   0  0  0  0  0  0  0  0  0  0  0  0
  150.0896  141.7077  155.5784 C   0  0  0  0  0  0  0  0  0  0  0  0
  150.7448  140.6660  155.5472 O   0  0  0  0  0  0  0  0  0  0  0  0
  150.3526  142.7343  156.3979 N   0  0  0  0  0  0  0  0  0  0  0  0
  151.5078  142.8188  157.2860 C   0  0  1  0  0  0  0  0  0  0  0  0
  151.5998  144.2347  157.8960 C   0  0  0  0  0  0  0  0  0  0  0  0
  152.8233  144.4096  158.8084 C   0  0  0  0  0  0  0  0  0  0  0  0
  152.8057  143.4438  160.0013 C   0  0  0  0  0  0  0  0  0  0  0  0
  152.8532  141.7172  159.4490 S   0  0  0  0  0  0  0  0  0  0  0  0
  151.3933  141.7358  158.3725 C   0  0  0  0  0  0  0  0  0  0  0  0
  146.3627  138.1352  153.7269 S   0  0  0  0  0  0  0  0  0  0  0  0
  145.3364  135.6905  151.0784 H   0  0  0  0  0  0  0  0  0  0  0  0
  144.6108  135.8540  152.6771 H   0  0  0  0  0  0  0  0  0  0  0  0
  146.2786  135.2970  152.5170 H   0  0  0  0  0  0  0  0  0  0  0  0
  146.0947  138.0726  150.0980 H   0  0  0  0  0  0  0  0  0  0  0  0
  146.6922  141.7023  153.0226 H   0  0  0  0  0  0  0  0  0  0  0  0
  145.4281  140.8739  154.9437 H   0  0  0  0  0  0  0  0  0  0  0  0
  146.7321  141.9316  155.4716 H   0  0  0  0  0  0  0  0  0  0  0  0
  146.8896  140.1869  155.6489 H   0  0  0  0  0  0  0  0  0  0  0  0
  149.2111  140.2265  153.6566 H   0  0  0  0  0  0  0  0  0  0  0  0
  148.9673  141.6468  152.6747 H   0  0  0  0  0  0  0  0  0  0  0  0
  148.5902  142.8628  154.8728 H   0  0  0  0  0  0  0  0  0  0  0  0
  149.7564  143.5472  156.3489 H   0  0  0  0  0  0  0  0  0  0  0  0
  152.4106  142.6215  156.7045 H   0  0  0  0  0  0  0  0  0  0  0  0
  151.6528  144.9776  157.0989 H   0  0  0  0  0  0  0  0  0  0  0  0
  150.6911  144.4580  158.4566 H   0  0  0  0  0  0  0  0  0  0  0  0
  153.7377  144.2680  158.2312 H   0  0  0  0  0  0  0  0  0  0  0  0
  152.8506  145.4355  159.1767 H   0  0  0  0  0  0  0  0  0  0  0  0
  153.6640  143.6270  160.6478 H   0  0  0  0  0  0  0  0  0  0  0  0
  151.9110  143.6001  160.6048 H   0  0  0  0  0  0  0  0  0  0  0  0
  150.5057  141.8986  158.9853 H   0  0  0  0  0  0  0  0  0  0  0  0
  151.2922  140.7496  157.9184 H   0  0  0  0  0  0  0  0  0  0  0  0
  1  2  1  0  0  0  0
  1 20  1  0  0  0  0
  1 21  1  0  0  0  0
  1 22  1  0  0  0  0
  2 19  1  0  0  0  0
  2  3  2  0  0  0  0
  3  4  1  0  0  0  0
  3 23  1  0  0  0  0
  4  5  2  0  0  0  0
  5  6  1  0  0  0  0
  5 19  1  0  0  0  0
  6  7  1  0  0  0  0
  6  8  1  0  0  0  0
  6 24  1  0  0  0  0
  7 25  1  0  0  0  0
  7 26  1  0  0  0  0
  7 27  1  0  0  0  0
  8  9  1  0  0  0  0
  8 28  1  0  0  0  0
  8 29  1  0  0  0  0
  9 10  1  0  0  0  0
  9 30  1  0  0  0  0
 10 11  2  0  0  0  0
 10 12  1  0  0  0  0
 12 13  1  0  0  0  0
 12 31  1  0  0  0  0
 13 18  1  0  0  0  0
 13 14  1  0  0  0  0
 13 32  1  0  0  0  0
 14 15  1  0  0  0  0
 14 33  1  0  0  0  0
 14 34  1  0  0  0  0
 15 16  1  0  0  0  0
 15 35  1  0  0  0  0
 15 36  1  0  0  0  0
 16 17  1  0  0  0  0
 16 37  1  0  0  0  0
 16 38  1  0  0  0  0
 17 18  1  0  0  0  0
 18 39  1  0  0  0  0
 18 40  1  0  0  0  0
M  END
> <s_m_source_file>
AV-unprocessed.smi

> <i_m_source_file_index>
2474

> <i_lp_mmshare_version>
43012

> <i_f3d_flags>
0

> <s_epik_input>
W0NIM11jMVtjSF1uYyhzMSlbQ0BIXShbQ0gzXSlbQ0gyXVtOSF1DKD1PKVtOSF1bQ0BASF0yW0NIMl1bQ0gyXVtDSDJdU1tDSDJdMg==

> <s_epik_cmdline>
J2VwaWtfcHl0aG9uJywgJy1waCcsICc3LjAnLCAnLXRuJywgJzgnLCAnLW1hJywgJzIwMCcsICctbWV0YWxfYmluZGluZycsICctaW1hZScsICc8aW5maWxlLm1hZT4nLCAnLW9tYWUnLCAnPG91dGZpbGUubWFlPic=

> <r_epik_Ionization_Penalty>
0.000644338

> <r_epik_Ionization_Penalty_Charging>
0

> <r_epik_Ionization_Penalty_Neutral>
0.000644338

> <r_epik_State_Penalty>
0.000374131

> <r_epik_Charging_Adjusted_Penalty>
0.000374131

> <i_epik_Tot_Q>
0

> <i_epik_Tot_abs_Q>
0

> <r_epik_Metal_State_Penalty>
-0

> <b_epik_Metal_Only>
0

> <s_lp_Force_Field>
OPLS_2005

> <r_lp_Energy>
-6.83814

> <b_lp_Chiralities_Consistent>
1

> <s_lp_Variant>
AV-unprocessed.smi:2474-4

> <Gold.Version>
5.8.1

> <Gold.Id.Protein>
6NUR|6NUR_protein|mol2

> <Gold.PLP.Fitness>
43.1800

> <Gold.PLP.PLP>
-37.1836

> <Gold.PLP.part.hbond>
-2.7834

> <Gold.PLP.part.metal>
0.0000

> <Gold.PLP.part.buried>
2.4921

> <Gold.PLP.part.nonpolar>
-38.4501

> <Gold.PLP.part.repulsive>
1.7615

> <Gold.PLP.ligand.clash>
0.0000

> <Gold.PLP.ligand.torsion>
1.1588

> <Gold.PLP.Chemscore.Hbond>
2.2896

> <Gold.PLP.Chemscore.CHOScore>
0.4392

> <Gold.PLP.Chemscore.Metal>
0.0000

> <Gold.Chemscore.Hbonds>
donor molecule, donor type, donor heavy atom, donor atom, acceptor molecule, acceptor atom, score
      L1  H     9    30       P1  8028  0.83
      L1  H    12    31       P1  8028  1.00
      P1  H  7989  7998       L1    11  0.41
      L1  C     3    23       P1 10171  0.45

> <Gold.PLP.Chemscore.Internal.Correction>
0.1276

> <Gold.Rescore>
     Score         DG    S(hbond)    S(metal)    S(lipo)     H(rot)  DE(clash)    DE(int)     intcor
     17.44     -21.30       1.73        0.00     117.71       1.46       2.72       1.14       ----

> <Gold.Chemscore.Fitness>
17.4416

> <Gold.Chemscore.DG>
-21.3014

> <Gold.Chemscore.ZeroCoef>
-5.4800

> <Gold.Chemscore.Hbond>
1.7339

> <Gold.Chemscore.Metal>
0.0000

> <Gold.Chemscore.Lipo>
117.7072

> <Gold.Chemscore.Internal_Hbond>
0.0000

> <Gold.Chemscore.DEClash>
2.7189

> <Gold.Chemscore.DEInternal>
1.1409

> <Gold.Chemscore.Rot>
1.4616

> <Gold.Chemscore.Internal.Correction>
   9.000000E+99

> <Gold.Chemscore.Hbonds>
donor molecule, donor type, donor heavy atom, donor atom, acceptor molecule, acceptor atom, score
      L1  H     9    30       P1  8028  0.79
      L1  H    12    31       P1  8028  0.98
      P1  H  7989  7998       L1    11  0.09

> <Gold.Chemscore.Hbond.Weighted>
-5.7913

> <Gold.Chemscore.Metal.Weighted>
-0.0000

> <Gold.Chemscore.Lipo.Weighted>
-13.7717

> <Gold.Chemscore.Internal_Hbond.Weighted>
0.0000

> <Gold.Chemscore.DEClash.Weighted>
2.7189

> <Gold.Chemscore.DEInternal.Weighted>
1.1409

> <Gold.Chemscore.Rot.Weighted>
3.7416

> <Gold.Chemscore.Internal.Correction.Weighted>
   9.000000E+99

> <Gold.Protein.RotatedTorsions>
[ 6907 6896 6895 6894 ] final  -40.29 input  -60.11 | X-H torsion
[ 7974 7965 7964 7962 ] final   27.07 input  175.53 | X-H torsion
[ 8008 7997 7996 7995 ] final   74.12 input   59.86 | X-H torsion
[ 10167 10162 10161 10158 ] final   62.57 input  -65.29 | X-H torsion
[ 10718 10713 10712 10709 ] final -160.53 input   66.30 | X-H torsion
[ 10763 10752 10751 10750 ] final   37.84 input  -60.55 | X-H torsion
[ 11005 11000 10999 10996 ] final  -93.21 input  -57.11 | X-H torsion

> <Gold.Protein.ActiveResidues>
 VAL166  LYS551  ARG553  GLY616  TRP617  ASP618  TYR619  PRO620  LYS621  CYS622 
 ASP623  PHE694  ASN695  SER759  ASP760  ASP761  ALA762  ILE779  LEU786  VAL792 
 PHE793  MET794  SER795  GLU796  ALA797  LYS798  CYS799  TRP800  GLU811  SER814 

> <Gold.Protein.RotatedAtoms>
  150.9802  134.9158  159.7839 H   0  0  0  0  0  0  0  0  0  0  0  0  # atno 6907 bound_to 6896
  152.5219  134.3421  159.9231 H   0  0  0  0  0  0  0  0  0  0  0  0  # atno 6908 bound_to 6896
  151.3428  133.3914  159.2707 H   0  0  0  0  0  0  0  0  0  0  0  0  # atno 6909 bound_to 6896
  146.1804  139.7242  142.8904 H   0  0  0  0  0  0  0  0  0  0  0  0  # atno 7974 bound_to 7965
  155.7936  140.3478  155.5363 H   0  0  0  0  0  0  0  0  0  0  0  0  # atno 8008 bound_to 7997
  155.8609  140.0971  157.1634 H   0  0  0  0  0  0  0  0  0  0  0  0  # atno 8009 bound_to 7997
  154.4012  140.1359  156.3946 H   0  0  0  0  0  0  0  0  0  0  0  0  # atno 8010 bound_to 7997
  140.1425  144.4540  150.6803 H   0  0  0  0  0  0  0  0  0  0  0  0  # atno 10167 bound_to 10162
  156.5834  130.8739  151.2871 H   0  0  0  0  0  0  0  0  0  0  0  0  # atno 10718 bound_to 10713
  153.0023  135.6266  154.2208 H   0  0  0  0  0  0  0  0  0  0  0  0  # atno 10763 bound_to 10752
  154.1951  135.2807  155.3011 H   0  0  0  0  0  0  0  0  0  0  0  0  # atno 10764 bound_to 10752
  154.5728  135.5671  153.7170 H   0  0  0  0  0  0  0  0  0  0  0  0  # atno 10765 bound_to 10752
  141.1503  133.7873  157.0128 H   0  0  0  0  0  0  0  0  0  0  0  0  # atno 11005 bound_to 11000
  145.4092  141.0394  143.3026 LP  0  0  0  0  0  0  0  0  0  0  0  0  # atno 17320 bound_to 7965
  144.8305  139.5636  143.6946 LP  0  0  0  0  0  0  0  0  0  0  0  0  # atno 17321 bound_to 7965
  140.6752  143.2302  151.5526 LP  0  0  0  0  0  0  0  0  0  0  0  0  # atno 17342 bound_to 10162
  139.5465  144.2508  152.1451 LP  0  0  0  0  0  0  0  0  0  0  0  0  # atno 17343 bound_to 10162
  157.7321  130.9710  150.1912 LP  0  0  0  0  0  0  0  0  0  0  0  0  # atno 17370 bound_to 10713
  156.2612  130.3711  149.8129 LP  0  0  0  0  0  0  0  0  0  0  0  0  # atno 17371 bound_to 10713
  140.0866  134.9617  157.1710 LP  0  0  0  0  0  0  0  0  0  0  0  0  # atno 17394 bound_to 11000
  140.3503  134.2606  155.7199 LP  0  0  0  0  0  0  0  0  0  0  0  0  # atno 17395 bound_to 11000

$$$$
