AV-unprocessed.smi:2104|AV-procd|sdf|8584|dock10
  -GOLD-   2272011313D 1   1.00000     0.00000
 Structure written by MMmdl.
 43 44  0  0  0  0  0  0  0  0  1 V2000
  152.9807  137.2804  156.9649 C   0  0  0  0  0  0  0  0  0  0  0  0
  152.2041  138.0680  155.9664 C   0  0  0  0  0  0  0  0  0  0  0  0
  151.0816  137.7960  155.2359 C   0  0  0  0  0  0  0  0  0  0  0  0
  150.8913  138.9873  154.4863 C   0  0  0  0  0  0  0  0  0  0  0  0
  149.8016  139.1160  153.5879 N   0  0  0  0  0  0  0  0  0  0  0  0
  148.5157  138.7982  153.8131 C   0  0  0  0  0  0  0  0  0  0  0  0
  148.0603  138.4121  154.8901 O   0  0  0  0  0  0  0  0  0  0  0  0
  147.7774  138.9398  152.7022 N   0  0  0  0  0  0  0  0  0  0  0  0
  146.3699  138.5738  152.5786 C   0  0  0  0  0  0  0  0  0  0  0  0
  146.1979  137.3134  151.7175 C   0  0  0  0  0  0  0  0  0  0  0  0
  145.1363  136.5380  152.2516 O   0  0  0  0  0  0  0  0  0  0  0  0
  144.4714  135.6910  151.3233 C   0  0  1  0  0  0  0  0  0  0  0  0
  145.4934  135.0135  150.3837 C   0  0  0  0  0  0  0  0  0  0  0  0
  146.4446  134.0800  151.1517 C   0  0  0  0  0  0  0  0  0  0  0  0
  145.6656  133.0344  151.9635 C   0  0  0  0  0  0  0  0  0  0  0  0
  144.6428  133.6993  152.8986 C   0  0  0  0  0  0  0  0  0  0  0  0
  143.6854  134.6286  152.1240 C   0  0  1  0  0  0  0  0  0  0  0  0
  142.6347  135.2633  153.0481 C   0  0  0  0  0  0  0  0  0  0  0  0
  151.8121  139.9049  154.7393 N   0  0  0  0  0  0  0  0  0  0  0  0
  152.6588  139.3200  155.6883 O   0  0  0  0  0  0  0  0  0  0  0  0
  152.5866  136.2680  157.0544 H   0  0  0  0  0  0  0  0  0  0  0  0
  152.9332  137.7499  157.9475 H   0  0  0  0  0  0  0  0  0  0  0  0
  154.0284  137.2105  156.6723 H   0  0  0  0  0  0  0  0  0  0  0  0
  150.4938  136.8902  155.2397 H   0  0  0  0  0  0  0  0  0  0  0  0
  150.0330  139.4449  152.6623 H   0  0  0  0  0  0  0  0  0  0  0  0
  148.2342  139.2737  151.8661 H   0  0  0  0  0  0  0  0  0  0  0  0
  145.9119  138.4380  153.5598 H   0  0  0  0  0  0  0  0  0  0  0  0
  145.8506  139.4088  152.1080 H   0  0  0  0  0  0  0  0  0  0  0  0
  145.9562  137.5910  150.6908 H   0  0  0  0  0  0  0  0  0  0  0  0
  147.1328  136.7537  151.6908 H   0  0  0  0  0  0  0  0  0  0  0  0
  143.7643  136.2779  150.7340 H   0  0  0  0  0  0  0  0  0  0  0  0
  144.9562  134.4340  149.6320 H   0  0  0  0  0  0  0  0  0  0  0  0
  146.0694  135.7547  149.8308 H   0  0  0  0  0  0  0  0  0  0  0  0
  147.1188  133.5812  150.4551 H   0  0  0  0  0  0  0  0  0  0  0  0
  147.0748  134.6658  151.8209 H   0  0  0  0  0  0  0  0  0  0  0  0
  145.1502  132.3553  151.2834 H   0  0  0  0  0  0  0  0  0  0  0  0
  146.3583  132.4246  152.5445 H   0  0  0  0  0  0  0  0  0  0  0  0
  144.0738  132.9291  153.4204 H   0  0  0  0  0  0  0  0  0  0  0  0
  145.1687  134.2656  153.6688 H   0  0  0  0  0  0  0  0  0  0  0  0
  143.1427  134.0133  151.4048 H   0  0  0  0  0  0  0  0  0  0  0  0
  143.1009  135.8768  153.8198 H   0  0  0  0  0  0  0  0  0  0  0  0
  142.0400  134.4986  153.5482 H   0  0  0  0  0  0  0  0  0  0  0  0
  141.9500  135.8986  152.4856 H   0  0  0  0  0  0  0  0  0  0  0  0
  1  2  1  0  0  0  0
  1 21  1  0  0  0  0
  1 22  1  0  0  0  0
  1 23  1  0  0  0  0
  2 20  1  0  0  0  0
  2  3  2  0  0  0  0
  3  4  1  0  0  0  0
  3 24  1  0  0  0  0
  4  5  1  0  0  0  0
  4 19  2  0  0  0  0
  5  6  1  0  0  0  0
  5 25  1  0  0  0  0
  6  7  2  0  0  0  0
  6  8  1  0  0  0  0
  8  9  1  0  0  0  0
  8 26  1  0  0  0  0
  9 10  1  0  0  0  0
  9 27  1  0  0  0  0
  9 28  1  0  0  0  0
 10 11  1  0  0  0  0
 10 29  1  0  0  0  0
 10 30  1  0  0  0  0
 11 12  1  0  0  0  0
 12 17  1  0  0  0  0
 12 13  1  0  0  0  0
 12 31  1  0  0  0  0
 13 14  1  0  0  0  0
 13 32  1  0  0  0  0
 13 33  1  0  0  0  0
 14 15  1  0  0  0  0
 14 34  1  0  0  0  0
 14 35  1  0  0  0  0
 15 16  1  0  0  0  0
 15 36  1  0  0  0  0
 15 37  1  0  0  0  0
 16 17  1  0  0  0  0
 16 38  1  0  0  0  0
 16 39  1  0  0  0  0
 17 18  1  0  0  0  0
 17 40  1  0  0  0  0
 18 41  1  0  0  0  0
 18 42  1  0  0  0  0
 18 43  1  0  0  0  0
 19 20  1  0  0  0  0
M  END
> <s_m_source_file>
AV-unprocessed.smi

> <i_m_source_file_index>
2104

> <i_lp_mmshare_version>
43012

> <i_f3d_flags>
0

> <s_epik_input>
W0NIM11jMVtjSF1jKG5vMSlbTkhdQyg9TylbTkhdW0NIMl1bQ0gyXU9bQ0BASF0yW0NIMl1bQ0gyXVtDSDJdW0NIMl1bQ0BIXTJbQ0gzXQ==

> <s_epik_cmdline>
J2VwaWtfcHl0aG9uJywgJy1waCcsICc3LjAnLCAnLXRuJywgJzgnLCAnLW1hJywgJzIwMCcsICctbWV0YWxfYmluZGluZycsICctaW1hZScsICc8aW5maWxlLm1hZT4nLCAnLW9tYWUnLCAnPG91dGZpbGUubWFlPic=

> <r_lp_tautomer_probability>
1

> <r_epik_Ionization_Penalty>
2.94418e-05

> <r_epik_Ionization_Penalty_Charging>
0

> <r_epik_Ionization_Penalty_Neutral>
2.94418e-05

> <r_epik_State_Penalty>
-0

> <r_epik_Charging_Adjusted_Penalty>
0

> <i_epik_Tot_Q>
0

> <i_epik_Tot_abs_Q>
0

> <r_epik_Metal_State_Penalty>
0.0104148

> <b_epik_Metal_Only>
0

> <s_lp_Force_Field>
OPLS_2005

> <r_lp_Energy>
8.22598

> <b_lp_Chiralities_Consistent>
1

> <s_lp_Variant>
AV-unprocessed.smi:2104-2

> <Gold.Version>
5.8.1

> <Gold.Id.Protein>
6NUR|6NUR_protein|mol2

> <Gold.PLP.Fitness>
39.8292

> <Gold.PLP.PLP>
-29.8967

> <Gold.PLP.part.hbond>
-4.7744

> <Gold.PLP.part.metal>
0.0000

> <Gold.PLP.part.buried>
0.2945

> <Gold.PLP.part.nonpolar>
-25.2676

> <Gold.PLP.part.repulsive>
0.5323

> <Gold.PLP.ligand.clash>
0.0000

> <Gold.PLP.ligand.torsion>
1.0174

> <Gold.PLP.Chemscore.Hbond>
3.9840

> <Gold.PLP.Chemscore.CHOScore>
0.0000

> <Gold.PLP.Chemscore.Metal>
0.0000

> <Gold.Chemscore.Hbonds>
donor molecule, donor type, donor heavy atom, donor atom, acceptor molecule, acceptor atom, score
      L1  H     5    25       P1  7957  1.00
      L1  H     8    26       P1  7957  0.99
      P1  H  7989  7998       L1    19  0.99
      P1  H  7997  8008       L1    20  1.00

> <Gold.PLP.Chemscore.Internal.Correction>
0.0155

> <Gold.Rescore>
     Score         DG    S(hbond)    S(metal)    S(lipo)     H(rot)  DE(clash)    DE(int)     intcor
     18.51     -19.72       3.32        0.00      65.32       1.75       0.21       1.00       ----

> <Gold.Chemscore.Fitness>
18.5079

> <Gold.Chemscore.DG>
-19.7171

> <Gold.Chemscore.ZeroCoef>
-5.4800

> <Gold.Chemscore.Hbond>
3.3175

> <Gold.Chemscore.Metal>
0.0000

> <Gold.Chemscore.Lipo>
65.3234

> <Gold.Chemscore.Internal_Hbond>
0.0000

> <Gold.Chemscore.DEClash>
0.2076

> <Gold.Chemscore.DEInternal>
1.0015

> <Gold.Chemscore.Rot>
1.7524

> <Gold.Chemscore.Internal.Correction>
   9.000000E+99

> <Gold.Chemscore.Hbonds>
donor molecule, donor type, donor heavy atom, donor atom, acceptor molecule, acceptor atom, score
      L1  H     5    25       P1  7957  0.91
      L1  H     8    26       P1  7957  0.94
      P1  H  7989  7998       L1    19  0.32
      P1  H  7997  8008       L1    20  0.96

> <Gold.Chemscore.Hbond.Weighted>
-11.0804

> <Gold.Chemscore.Metal.Weighted>
-0.0000

> <Gold.Chemscore.Lipo.Weighted>
-7.6428

> <Gold.Chemscore.Internal_Hbond.Weighted>
0.0000

> <Gold.Chemscore.DEClash.Weighted>
0.2076

> <Gold.Chemscore.DEInternal.Weighted>
1.0015

> <Gold.Chemscore.Rot.Weighted>
4.4861

> <Gold.Chemscore.Internal.Correction.Weighted>
   9.000000E+99

> <Gold.Protein.RotatedTorsions>
[ 6907 6896 6895 6894 ] final -158.44 input  -60.11 | X-H torsion
[ 7974 7965 7964 7962 ] final   -7.65 input  175.53 | X-H torsion
[ 8008 7997 7996 7995 ] final  -26.14 input   59.86 | X-H torsion
[ 10167 10162 10161 10158 ] final   29.67 input  -65.29 | X-H torsion
[ 10718 10713 10712 10709 ] final -173.37 input   66.30 | X-H torsion
[ 10763 10752 10751 10750 ] final   44.34 input  -60.55 | X-H torsion
[ 11005 11000 10999 10996 ] final    4.10 input  -57.11 | X-H torsion

> <Gold.Protein.ActiveResidues>
 VAL166  LYS551  ARG553  GLY616  TRP617  ASP618  TYR619  PRO620  LYS621  CYS622 
 ASP623  PHE694  ASN695  SER759  ASP760  ASP761  ALA762  ILE779  LEU786  VAL792 
 PHE793  MET794  SER795  GLU796  ALA797  LYS798  CYS799  TRP800  GLU811  SER814 

> <Gold.Protein.RotatedAtoms>
  151.3182  133.4051  159.2652 H   0  0  0  0  0  0  0  0  0  0  0  0  # atno 6907 bound_to 6896
  151.0057  134.9358  159.7989 H   0  0  0  0  0  0  0  0  0  0  0  0  # atno 6908 bound_to 6896
  152.5287  134.3147  159.9179 H   0  0  0  0  0  0  0  0  0  0  0  0  # atno 6909 bound_to 6896
  146.2301  140.2351  142.8341 H   0  0  0  0  0  0  0  0  0  0  0  0  # atno 7974 bound_to 7965
  154.4440  140.1907  156.0729 H   0  0  0  0  0  0  0  0  0  0  0  0  # atno 8008 bound_to 7997
  156.0497  140.3310  155.7310 H   0  0  0  0  0  0  0  0  0  0  0  0  # atno 8009 bound_to 7997
  155.5575  140.0600  157.2827 H   0  0  0  0  0  0  0  0  0  0  0  0  # atno 8010 bound_to 7997
  140.4746  144.0711  150.6247 H   0  0  0  0  0  0  0  0  0  0  0  0  # atno 10167 bound_to 10162
  156.7693  130.9442  151.3119 H   0  0  0  0  0  0  0  0  0  0  0  0  # atno 10718 bound_to 10713
  152.9843  135.6073  154.3258 H   0  0  0  0  0  0  0  0  0  0  0  0  # atno 10763 bound_to 10752
  154.2965  135.2773  155.2633 H   0  0  0  0  0  0  0  0  0  0  0  0  # atno 10764 bound_to 10752
  154.4905  135.5893  153.6512 H   0  0  0  0  0  0  0  0  0  0  0  0  # atno 10765 bound_to 10752
  140.5857  133.9971  155.8067 H   0  0  0  0  0  0  0  0  0  0  0  0  # atno 11005 bound_to 11000
  144.9528  140.8196  143.5561 LP  0  0  0  0  0  0  0  0  0  0  0  0  # atno 17320 bound_to 7965
  145.2313  139.2114  143.5041 LP  0  0  0  0  0  0  0  0  0  0  0  0  # atno 17321 bound_to 7965
  140.3935  143.2740  152.0032 LP  0  0  0  0  0  0  0  0  0  0  0  0  # atno 17342 bound_to 10162
  139.4823  144.6058  151.7524 LP  0  0  0  0  0  0  0  0  0  0  0  0  # atno 17343 bound_to 10162
  157.6698  130.9041  150.0015 LP  0  0  0  0  0  0  0  0  0  0  0  0  # atno 17370 bound_to 10713
  156.1288  130.3644  149.9765 LP  0  0  0  0  0  0  0  0  0  0  0  0  # atno 17371 bound_to 10713
  141.0967  133.9832  157.3148 LP  0  0  0  0  0  0  0  0  0  0  0  0  # atno 17394 bound_to 11000
  139.9297  135.0200  156.8356 LP  0  0  0  0  0  0  0  0  0  0  0  0  # atno 17395 bound_to 11000

$$$$
