AV-unprocessed.smi:2055|AV-procd|sdf|8334|dock3
  -GOLD-   2272011 03D 1   1.00000     0.00000
 Structure written by MMmdl.
 43 44  0  0  0  0  0  0  0  0  1 V2000
  143.7023  134.4952  151.4988 C   0  0  0  0  0  0  0  0  0  0  0  0
  144.8688  134.2690  150.5223 C   0  0  2  0  0  0  0  0  0  0  0  0
  144.7794  132.8818  149.8607 C   0  0  0  0  0  0  0  0  0  0  0  0
  143.5645  132.7539  149.1525 O   0  0  0  0  0  0  0  0  0  0  0  0
  146.1308  134.3788  151.2490 N   0  0  0  0  0  0  0  0  0  0  0  0
  146.5544  133.5295  152.1949 C   0  0  0  0  0  0  0  0  0  0  0  0
  145.9162  132.5512  152.5834 O   0  0  0  0  0  0  0  0  0  0  0  0
  147.7716  133.8598  152.6481 N   0  0  0  0  0  0  0  0  0  0  0  0
  148.5319  133.0951  153.6324 C   0  0  0  0  0  0  0  0  0  0  0  0
  149.0075  133.8857  154.8471 C   0  0  0  0  0  0  0  0  0  0  0  0
  148.4011  133.6555  156.0969 C   0  0  0  0  0  0  0  0  0  0  0  0
  148.8466  134.3948  157.2074 C   0  0  0  0  0  0  0  0  0  0  0  0
  149.8301  135.3151  157.1369 N   0  0  0  0  0  0  0  0  0  0  0  0
  150.4255  135.5510  155.9433 C   0  0  0  0  0  0  0  0  0  0  0  0
  151.4634  136.5091  155.9348 N   0  0  0  0  0  0  0  0  0  0  0  0
  151.4567  137.5449  154.9054 C   0  0  0  0  0  0  0  0  0  0  0  0
  152.8207  138.2527  154.8465 C   0  0  0  0  0  0  0  0  0  0  0  0
  153.1580  138.7524  156.1360 O   0  0  0  0  0  0  0  0  0  0  0  0
  153.2838  137.7037  157.0908 C   0  0  0  0  0  0  0  0  0  0  0  0
  151.9416  136.9668  157.2383 C   0  0  0  0  0  0  0  0  0  0  0  0
  150.0318  134.8578  154.7705 C   0  0  0  0  0  0  0  0  0  0  0  0
  142.7423  134.4273  150.9864 H   0  0  0  0  0  0  0  0  0  0  0  0
  143.7559  135.4828  151.9588 H   0  0  0  0  0  0  0  0  0  0  0  0
  143.7052  133.7550  152.2997 H   0  0  0  0  0  0  0  0  0  0  0  0
  144.8122  135.0368  149.7476 H   0  0  0  0  0  0  0  0  0  0  0  0
  145.6262  132.6932  149.1994 H   0  0  0  0  0  0  0  0  0  0  0  0
  144.7895  132.0996  150.6206 H   0  0  0  0  0  0  0  0  0  0  0  0
  143.1860  133.6134  149.0461 H   0  0  0  0  0  0  0  0  0  0  0  0
  146.7289  135.1543  151.0040 H   0  0  0  0  0  0  0  0  0  0  0  0
  148.2170  134.6813  152.2665 H   0  0  0  0  0  0  0  0  0  0  0  0
  147.9000  132.2795  153.9845 H   0  0  0  0  0  0  0  0  0  0  0  0
  149.3922  132.6299  153.1477 H   0  0  0  0  0  0  0  0  0  0  0  0
  147.6110  132.9269  156.2052 H   0  0  0  0  0  0  0  0  0  0  0  0
  148.4026  134.2417  158.1799 H   0  0  0  0  0  0  0  0  0  0  0  0
  151.2421  137.1081  153.9291 H   0  0  0  0  0  0  0  0  0  0  0  0
  150.6694  138.2670  155.1254 H   0  0  0  0  0  0  0  0  0  0  0  0
  153.5974  137.5722  154.4932 H   0  0  0  0  0  0  0  0  0  0  0  0
  152.7815  139.0833  154.1418 H   0  0  0  0  0  0  0  0  0  0  0  0
  154.0739  137.0143  156.7883 H   0  0  0  0  0  0  0  0  0  0  0  0
  153.5840  138.1299  158.0482 H   0  0  0  0  0  0  0  0  0  0  0  0
  151.1947  137.6334  157.6711 H   0  0  0  0  0  0  0  0  0  0  0  0
  152.0696  136.1375  157.9338 H   0  0  0  0  0  0  0  0  0  0  0  0
  150.5006  135.0657  153.8216 H   0  0  0  0  0  0  0  0  0  0  0  0
  1  2  1  0  0  0  0
  1 22  1  0  0  0  0
  1 23  1  0  0  0  0
  1 24  1  0  0  0  0
  2  3  1  0  0  0  0
  2  5  1  0  0  0  0
  2 25  1  0  0  0  0
  3  4  1  0  0  0  0
  3 26  1  0  0  0  0
  3 27  1  0  0  0  0
  4 28  1  0  0  0  0
  5  6  1  0  0  0  0
  5 29  1  0  0  0  0
  6  7  2  0  0  0  0
  6  8  1  0  0  0  0
  8  9  1  0  0  0  0
  8 30  1  0  0  0  0
  9 10  1  0  0  0  0
  9 31  1  0  0  0  0
  9 32  1  0  0  0  0
 10 21  1  0  0  0  0
 10 11  2  0  0  0  0
 11 12  1  0  0  0  0
 11 33  1  0  0  0  0
 12 13  2  0  0  0  0
 12 34  1  0  0  0  0
 13 14  1  0  0  0  0
 14 15  1  0  0  0  0
 14 21  2  0  0  0  0
 15 20  1  0  0  0  0
 15 16  1  0  0  0  0
 16 17  1  0  0  0  0
 16 35  1  0  0  0  0
 16 36  1  0  0  0  0
 17 18  1  0  0  0  0
 17 37  1  0  0  0  0
 17 38  1  0  0  0  0
 18 19  1  0  0  0  0
 19 20  1  0  0  0  0
 19 39  1  0  0  0  0
 19 40  1  0  0  0  0
 20 41  1  0  0  0  0
 20 42  1  0  0  0  0
 21 43  1  0  0  0  0
M  END
> <s_m_source_file>
AV-unprocessed.smi

> <i_m_source_file_index>
2055

> <i_lp_mmshare_version>
43012

> <i_f3d_flags>
0

> <s_epik_input>
W09IXVtDSDJdW0NAQEhdKFtDSDNdKVtOSF1DKD1PKVtOSF1bQ0gyXWMxW2NIXVtjSF1uYyhbY0hdMSlOMltDSDJdW0NIMl1PW0NIMl1bQ0gyXTI=

> <s_epik_cmdline>
J2VwaWtfcHl0aG9uJywgJy1waCcsICc3LjAnLCAnLXRuJywgJzgnLCAnLW1hJywgJzIwMCcsICctbWV0YWxfYmluZGluZycsICctaW1hZScsICc8aW5maWxlLm1hZT4nLCAnLW9tYWUnLCAnPG91dGZpbGUubWFlPic=

> <r_lp_tautomer_probability>
1

> <r_epik_Ionization_Penalty>
0.0122173

> <r_epik_Ionization_Penalty_Charging>
0

> <r_epik_Ionization_Penalty_Neutral>
0.0122173

> <r_epik_State_Penalty>
0.00940497

> <r_epik_Charging_Adjusted_Penalty>
0.00940497

> <i_epik_Tot_Q>
0

> <i_epik_Tot_abs_Q>
0

> <r_epik_Metal_State_Penalty>
0.00921475

> <b_epik_Metal_Only>
0

> <s_lp_Force_Field>
OPLS_2005

> <r_lp_Energy>
13.2065

> <b_lp_Chiralities_Consistent>
1

> <s_lp_Variant>
AV-unprocessed.smi:2055-1

> <Gold.Version>
5.8.1

> <Gold.Id.Protein>
6NUR|6NUR_protein|mol2

> <Gold.PLP.Fitness>
46.0273

> <Gold.PLP.PLP>
-34.3172

> <Gold.PLP.part.hbond>
-4.4898

> <Gold.PLP.part.metal>
0.0000

> <Gold.PLP.part.buried>
-6.6597

> <Gold.PLP.part.nonpolar>
-23.3426

> <Gold.PLP.part.repulsive>
0.2336

> <Gold.PLP.ligand.clash>
0.0000

> <Gold.PLP.ligand.torsion>
0.4003

> <Gold.PLP.Chemscore.Hbond>
4.0000

> <Gold.PLP.Chemscore.CHOScore>
0.0000

> <Gold.PLP.Chemscore.Metal>
0.0000

> <Gold.Chemscore.Hbonds>
donor molecule, donor type, donor heavy atom, donor atom, acceptor molecule, acceptor atom, score
      L1  H     4    28       P1 10186  0.09
      L1  H     8    30       P1  7948  0.95
      P1  H  7997  8009       L1    18  1.00
      P1  H 10752 10764       L1    15  0.30

> <Gold.PLP.Chemscore.Internal.Correction>
0.5109

> <Gold.Rescore>
     Score         DG    S(hbond)    S(metal)    S(lipo)     H(rot)  DE(clash)    DE(int)     intcor
     14.14     -15.73       2.72        0.00      69.11       2.70       0.00       1.59       ----

> <Gold.Chemscore.Fitness>
14.1389

> <Gold.Chemscore.DG>
-15.7314

> <Gold.Chemscore.ZeroCoef>
-5.4800

> <Gold.Chemscore.Hbond>
2.7203

> <Gold.Chemscore.Metal>
0.0000

> <Gold.Chemscore.Lipo>
69.1070

> <Gold.Chemscore.Internal_Hbond>
0.0000

> <Gold.Chemscore.DEClash>
0.0048

> <Gold.Chemscore.DEInternal>
1.5877

> <Gold.Chemscore.Rot>
2.7031

> <Gold.Chemscore.Internal.Correction>
   9.000000E+99

> <Gold.Chemscore.Hbonds>
donor molecule, donor type, donor heavy atom, donor atom, acceptor molecule, acceptor atom, score
      L1  H     4    28       P1 10186  0.10
      L1  H     8    30       P1  7948  0.22
      P1  H  7997  8009       L1    18  0.87

> <Gold.Chemscore.Hbond.Weighted>
-9.0858

> <Gold.Chemscore.Metal.Weighted>
-0.0000

> <Gold.Chemscore.Lipo.Weighted>
-8.0855

> <Gold.Chemscore.Internal_Hbond.Weighted>
0.0000

> <Gold.Chemscore.DEClash.Weighted>
0.0048

> <Gold.Chemscore.DEInternal.Weighted>
1.5877

> <Gold.Chemscore.Rot.Weighted>
6.9199

> <Gold.Chemscore.Internal.Correction.Weighted>
   9.000000E+99

> <Gold.Protein.RotatedTorsions>
[ 6907 6896 6895 6894 ] final  117.06 input  -60.11 | X-H torsion
[ 7974 7965 7964 7962 ] final   21.08 input  175.53 | X-H torsion
[ 8008 7997 7996 7995 ] final -154.87 input   59.86 | X-H torsion
[ 10167 10162 10161 10158 ] final   30.26 input  -65.29 | X-H torsion
[ 10718 10713 10712 10709 ] final   -6.61 input   66.30 | X-H torsion
[ 10763 10752 10751 10750 ] final  -44.76 input  -60.55 | X-H torsion
[ 11005 11000 10999 10996 ] final  151.24 input  -57.11 | X-H torsion

> <Gold.Protein.ActiveResidues>
 VAL166  LYS551  ARG553  GLY616  TRP617  ASP618  TYR619  PRO620  LYS621  CYS622 
 ASP623  PHE694  ASN695  SER759  ASP760  ASP761  ALA762  ILE779  LEU786  VAL792 
 PHE793  MET794  SER795  GLU796  ALA797  LYS798  CYS799  TRP800  GLU811  SER814 

> <Gold.Protein.RotatedAtoms>
  152.4637  133.7877  159.6884 H   0  0  0  0  0  0  0  0  0  0  0  0  # atno 6907 bound_to 6896
  150.8592  133.7659  159.3004 H   0  0  0  0  0  0  0  0  0  0  0  0  # atno 6908 bound_to 6896
  151.5230  135.1070  159.9935 H   0  0  0  0  0  0  0  0  0  0  0  0  # atno 6909 bound_to 6896
  146.2086  139.8078  142.8707 H   0  0  0  0  0  0  0  0  0  0  0  0  # atno 7974 bound_to 7965
  155.6931  140.0758  157.2440 H   0  0  0  0  0  0  0  0  0  0  0  0  # atno 8008 bound_to 7997
  154.4085  140.1661  156.2161 H   0  0  0  0  0  0  0  0  0  0  0  0  # atno 8009 bound_to 7997
  155.9434  140.3383  155.6350 H   0  0  0  0  0  0  0  0  0  0  0  0  # atno 8010 bound_to 7997
  140.4693  144.0787  150.6233 H   0  0  0  0  0  0  0  0  0  0  0  0  # atno 10167 bound_to 10162
  156.7294  130.5175  149.5849 H   0  0  0  0  0  0  0  0  0  0  0  0  # atno 10718 bound_to 10713
  154.0174  135.6673  153.4770 H   0  0  0  0  0  0  0  0  0  0  0  0  # atno 10763 bound_to 10752
  153.0595  135.5036  154.8056 H   0  0  0  0  0  0  0  0  0  0  0  0  # atno 10764 bound_to 10752
  154.6959  135.3070  154.9377 H   0  0  0  0  0  0  0  0  0  0  0  0  # atno 10765 bound_to 10752
  140.1201  134.8869  157.2060 H   0  0  0  0  0  0  0  0  0  0  0  0  # atno 11005 bound_to 11000
  145.3228  141.0248  143.3490 LP  0  0  0  0  0  0  0  0  0  0  0  0  # atno 17320 bound_to 7965
  144.8854  139.4846  143.6703 LP  0  0  0  0  0  0  0  0  0  0  0  0  # atno 17321 bound_to 7965
  140.3997  143.2710  151.9963 LP  0  0  0  0  0  0  0  0  0  0  0  0  # atno 17342 bound_to 10162
  139.4816  144.6008  151.7609 LP  0  0  0  0  0  0  0  0  0  0  0  0  # atno 17343 bound_to 10162
  156.1539  130.6329  151.0632 LP  0  0  0  0  0  0  0  0  0  0  0  0  # atno 17370 bound_to 10713
  157.6865  131.0823  150.7228 LP  0  0  0  0  0  0  0  0  0  0  0  0  # atno 17371 bound_to 10713
  140.2976  134.3169  155.7298 LP  0  0  0  0  0  0  0  0  0  0  0  0  # atno 17394 bound_to 11000
  141.2150  133.7572  156.9594 LP  0  0  0  0  0  0  0  0  0  0  0  0  # atno 17395 bound_to 11000

$$$$
