AV-unprocessed.smi:52|AV-procd|sdf|508|dock7
  -GOLD-   2262016383D 1   1.00000     0.00000
 Structure written by MMmdl.
 27 28  0  0  0  0  0  0  0  0  3 V2000
  152.3774  137.0300  155.1603 O   0  0  0  0  0  0  0  0  0  0  0  0
  152.3777  138.2454  154.8659 C   0  0  0  0  0  0  0  0  0  0  0  0
  153.4289  138.9228  154.8510 O   0  5  0  0  0  0  0  0  0  0  0  0
  151.0906  138.9050  154.5282 C   0  0  0  0  0  0  0  0  0  0  0  0
  149.9313  138.2902  154.1273 C   0  0  0  0  0  0  0  0  0  0  0  0
  148.9651  139.2389  153.9269 O   0  0  0  0  0  0  0  0  0  0  0  0
  149.5869  140.4144  154.2142 C   0  0  0  0  0  0  0  0  0  0  0  0
  148.8083  141.6851  154.1302 C   0  0  0  0  0  0  0  0  0  0  0  0
  147.4147  141.2435  153.8815 N   0  3  1  0  0  0  0  0  0  0  0  0
  146.7629  140.5273  155.0037 C   0  0  0  0  0  0  0  0  0  0  0  0
  145.2687  140.7713  154.8204 C   0  0  0  0  0  0  0  0  0  0  0  0
  145.2355  142.2079  154.3111 C   0  0  2  0  0  0  0  0  0  0  0  0
  144.0637  142.4803  153.5729 O   0  0  0  0  0  0  0  0  0  0  0  0
  146.5026  142.3311  153.4538 C   0  0  0  0  0  0  0  0  0  0  0  0
  150.8596  140.2737  154.5747 N   0  0  0  0  0  0  0  0  0  0  0  0
  145.2985  142.8942  155.1569 H   0  0  0  0  0  0  0  0  0  0  0  0
  149.6515  137.2613  153.9553 H   0  0  0  0  0  0  0  0  0  0  0  0
  148.8993  142.2642  155.0501 H   0  0  0  0  0  0  0  0  0  0  0  0
  149.1850  142.2822  153.2990 H   0  0  0  0  0  0  0  0  0  0  0  0
  147.0119  139.4655  155.0071 H   0  0  0  0  0  0  0  0  0  0  0  0
  147.0868  140.9520  155.9553 H   0  0  0  0  0  0  0  0  0  0  0  0
  144.8758  140.0879  154.0657 H   0  0  0  0  0  0  0  0  0  0  0  0
  144.6969  140.6294  155.7381 H   0  0  0  0  0  0  0  0  0  0  0  0
  143.8070  141.6963  153.1111 H   0  0  0  0  0  0  0  0  0  0  0  0
  146.9492  143.3207  153.5613 H   0  0  0  0  0  0  0  0  0  0  0  0
  146.2831  142.1831  152.3955 H   0  0  0  0  0  0  0  0  0  0  0  0
  147.4473  140.5942  153.1084 H   0  0  0  0  0  0  0  0  0  0  0  0
  1  2  2  0  0  0  0
  2  3  1  0  0  0  0
  2  4  1  0  0  0  0
  4 15  1  0  0  0  0
  4  5  2  0  0  0  0
  5  6  1  0  0  0  0
  5 17  1  0  0  0  0
  6  7  1  0  0  0  0
  7  8  1  0  0  0  0
  7 15  2  0  0  0  0
  8  9  1  0  0  0  0
  8 18  1  0  0  0  0
  8 19  1  0  0  0  0
  9 14  1  0  0  0  0
  9 10  1  0  0  0  0
  9 27  1  0  0  0  0
 10 11  1  0  0  0  0
 10 20  1  0  0  0  0
 10 21  1  0  0  0  0
 11 12  1  0  0  0  0
 11 22  1  0  0  0  0
 11 23  1  0  0  0  0
 12 16  1  0  0  0  0
 12 13  1  0  0  0  0
 12 14  1  0  0  0  0
 13 24  1  0  0  0  0
 14 25  1  0  0  0  0
 14 26  1  0  0  0  0
M  CHG  1   3  -1
M  CHG  1   9   1
M  END
> <s_m_source_file>
AV-unprocessed.smi

> <i_m_source_file_index>
52

> <i_lp_mmshare_version>
43012

> <i_f3d_flags>
0

> <s_epik_input>
Tz1DKFtPSF0pYzFbY0hdb2MobjEpW0NIMl1OMltDSDJdW0NIMl1bQ0BIXShbT0hdKVtDSDJdMg==

> <s_epik_cmdline>
J2VwaWtfcHl0aG9uJywgJy1waCcsICc3LjAnLCAnLXRuJywgJzgnLCAnLW1hJywgJzIwMCcsICctbWV0YWxfYmluZGluZycsICctaW1hZScsICc8aW5maWxlLm1hZT4nLCAnLW9tYWUnLCAnPG91dGZpbGUubWFlPic=

> <r_epik_Ionization_Penalty>
0.0376014

> <r_epik_Ionization_Penalty_Charging>
0.0376013

> <r_epik_Ionization_Penalty_Neutral>
1.78687e-08

> <r_epik_State_Penalty>
0.0314164

> <r_epik_Charging_Adjusted_Penalty>
0.0690177

> <i_epik_Tot_Q>
0

> <i_epik_Tot_abs_Q>
2

> <r_epik_Metal_State_Penalty>
0.0314164

> <b_epik_Metal_Only>
0

> <s_lp_Force_Field>
OPLS_2005

> <r_lp_Energy>
18.2584

> <b_lp_Chiralities_Consistent>
1

> <s_lp_Variant>
AV-unprocessed.smi:52-2

> <Gold.Version>
5.8.1

> <Gold.Id.Protein>
6NUR|6NUR_protein|mol2

> <Gold.PLP.Fitness>
42.7672

> <Gold.PLP.PLP>
-25.2276

> <Gold.PLP.part.hbond>
-4.6321

> <Gold.PLP.part.metal>
0.0000

> <Gold.PLP.part.buried>
-3.2695

> <Gold.PLP.part.nonpolar>
-19.1774

> <Gold.PLP.part.repulsive>
0.3663

> <Gold.PLP.ligand.clash>
0.0000

> <Gold.PLP.ligand.torsion>
0.2892

> <Gold.PLP.Chemscore.Hbond>
5.0454

> <Gold.PLP.Chemscore.CHOScore>
0.9905

> <Gold.PLP.Chemscore.Metal>
0.0000

> <Gold.Chemscore.Hbonds>
donor molecule, donor type, donor heavy atom, donor atom, acceptor molecule, acceptor atom, score
      P1  H  7989  7998       L1    15  0.81
      P1  H  7997  8009       L1     3  2.00
      P1  H 10752 10763       L1     1  1.50
      L1  C     5    17       P1  7948  0.95

> <Gold.PLP.Chemscore.Internal.Correction>
0.0102

> <Gold.Rescore>
     Score         DG    S(hbond)    S(metal)    S(lipo)     H(rot)  DE(clash)    DE(int)     intcor
      8.63     -10.43       1.81        0.00      34.27       1.99       0.00       1.80       ----

> <Gold.Chemscore.Fitness>
8.6335

> <Gold.Chemscore.DG>
-10.4347

> <Gold.Chemscore.ZeroCoef>
-5.4800

> <Gold.Chemscore.Hbond>
1.8095

> <Gold.Chemscore.Metal>
0.0000

> <Gold.Chemscore.Lipo>
34.2735

> <Gold.Chemscore.Internal_Hbond>
0.0000

> <Gold.Chemscore.DEClash>
0.0044

> <Gold.Chemscore.DEInternal>
1.7969

> <Gold.Chemscore.Rot>
1.9919

> <Gold.Chemscore.Internal.Correction>
   9.000000E+99

> <Gold.Chemscore.Hbonds>
donor molecule, donor type, donor heavy atom, donor atom, acceptor molecule, acceptor atom, score
      P1  H  7989  7998       L1    15  0.24
      P1  H  7997  8009       L1     3  0.98
      P1  H 10752 10763       L1     1  0.75

> <Gold.Chemscore.Hbond.Weighted>
-6.0438

> <Gold.Chemscore.Metal.Weighted>
-0.0000

> <Gold.Chemscore.Lipo.Weighted>
-4.0100

> <Gold.Chemscore.Internal_Hbond.Weighted>
0.0000

> <Gold.Chemscore.DEClash.Weighted>
0.0044

> <Gold.Chemscore.DEInternal.Weighted>
1.7969

> <Gold.Chemscore.Rot.Weighted>
5.0991

> <Gold.Chemscore.Internal.Correction.Weighted>
   9.000000E+99

> <Gold.Protein.RotatedTorsions>
[ 6907 6896 6895 6894 ] final  -57.90 input  -60.11 | X-H torsion
[ 7974 7965 7964 7962 ] final  158.26 input  175.53 | X-H torsion
[ 8008 7997 7996 7995 ] final -129.63 input   59.86 | X-H torsion
[ 10167 10162 10161 10158 ] final  153.75 input  -65.29 | X-H torsion
[ 10718 10713 10712 10709 ] final  111.48 input   66.30 | X-H torsion
[ 10763 10752 10751 10750 ] final   61.36 input  -60.55 | X-H torsion
[ 11005 11000 10999 10996 ] final  168.40 input  -57.11 | X-H torsion

> <Gold.Protein.ActiveResidues>
 VAL166  LYS551  ARG553  GLY616  TRP617  ASP618  TYR619  PRO620  LYS621  CYS622 
 ASP623  PHE694  ASN695  SER759  ASP760  ASP761  ALA762  ILE779  LEU786  VAL792 
 PHE793  MET794  SER795  GLU796  ALA797  LYS798  CYS799  TRP800  GLU811  SER814 

> <Gold.Protein.RotatedAtoms>
  150.8049  134.7168  159.6634 H   0  0  0  0  0  0  0  0  0  0  0  0  # atno 6907 bound_to 6896
  152.4168  134.6023  160.0013 H   0  0  0  0  0  0  0  0  0  0  0  0  # atno 6908 bound_to 6896
  151.6250  133.3299  159.3132 H   0  0  0  0  0  0  0  0  0  0  0  0  # atno 6909 bound_to 6896
  144.7856  139.7454  143.6242 H   0  0  0  0  0  0  0  0  0  0  0  0  # atno 7974 bound_to 7965
  155.2824  140.0444  157.3016 H   0  0  0  0  0  0  0  0  0  0  0  0  # atno 8008 bound_to 7997
  154.5589  140.2340  155.8335 H   0  0  0  0  0  0  0  0  0  0  0  0  # atno 8009 bound_to 7997
  156.2030  140.3020  155.9575 H   0  0  0  0  0  0  0  0  0  0  0  0  # atno 8010 bound_to 7997
  139.4826  144.5246  151.7822 H   0  0  0  0  0  0  0  0  0  0  0  0  # atno 10167 bound_to 10162
  157.6442  131.0951  150.6755 H   0  0  0  0  0  0  0  0  0  0  0  0  # atno 10718 bound_to 10713
  152.9948  135.5503  154.6021 H   0  0  0  0  0  0  0  0  0  0  0  0  # atno 10763 bound_to 10752
  154.5360  135.2816  155.1140 H   0  0  0  0  0  0  0  0  0  0  0  0  # atno 10764 bound_to 10752
  154.2436  135.6412  153.5268 H   0  0  0  0  0  0  0  0  0  0  0  0  # atno 10765 bound_to 10752
  140.2869  134.7705  157.3805 H   0  0  0  0  0  0  0  0  0  0  0  0  # atno 11005 bound_to 11000
  146.2085  139.5426  142.9696 LP  0  0  0  0  0  0  0  0  0  0  0  0  # atno 17320 bound_to 7965
  145.5932  141.0366  143.2059 LP  0  0  0  0  0  0  0  0  0  0  0  0  # atno 17321 bound_to 7965
  140.4764  144.1513  150.5925 LP  0  0  0  0  0  0  0  0  0  0  0  0  # atno 17342 bound_to 10162
  140.4326  143.2561  151.9576 LP  0  0  0  0  0  0  0  0  0  0  0  0  # atno 17343 bound_to 10162
  156.7074  130.4641  149.5556 LP  0  0  0  0  0  0  0  0  0  0  0  0  # atno 17370 bound_to 10713
  156.1753  130.6464  151.0887 LP  0  0  0  0  0  0  0  0  0  0  0  0  # atno 17371 bound_to 10713
  140.1231  134.5193  155.8167 LP  0  0  0  0  0  0  0  0  0  0  0  0  # atno 17394 bound_to 11000
  141.2153  133.6763  156.6903 LP  0  0  0  0  0  0  0  0  0  0  0  0  # atno 17395 bound_to 11000

$$$$
