AV-unprocessed.smi:54|AV-procd|sdf|531|dock3
  -GOLD-   2262016403D 1   1.00000     0.00000
 Structure written by MMmdl.
 44 46  0  0  0  0  0  0  0  0  1 V2000
  152.1021  144.1602  161.5307 C   0  0  0  0  0  0  0  0  0  0  0  0
  152.4766  144.2931  160.0457 C   0  0  0  0  0  0  0  0  0  0  0  0
  151.5346  145.2656  159.3176 C   0  0  0  0  0  0  0  0  0  0  0  0
  152.4680  142.9217  159.3615 C   0  0  0  0  0  0  0  0  0  0  0  0
  152.1652  142.7863  158.1752 O   0  0  0  0  0  0  0  0  0  0  0  0
  152.8307  141.7997  160.2095 N   0  0  0  0  0  0  0  0  0  0  0  0
  152.9269  140.4998  159.8465 C   0  0  0  0  0  0  0  0  0  0  0  0
  152.7248  140.0832  158.6057 N   0  0  0  0  0  0  0  0  0  0  0  0
  152.8821  138.7396  158.4138 C   0  0  0  0  0  0  0  0  0  0  0  0
  153.2267  137.8154  159.3793 C   0  0  0  0  0  0  0  0  0  0  0  0
  153.2976  136.5441  158.8232 N   0  0  0  0  0  0  0  0  0  0  0  0
  153.0057  136.7330  157.5673 C   0  0  0  0  0  0  0  0  0  0  0  0
  152.7283  138.0370  157.2324 N   0  0  0  0  0  0  0  0  0  0  0  0
  152.3833  138.5639  155.8717 C   0  0  2  0  0  0  0  0  0  0  0  0
  152.0230  139.9085  155.9991 O   0  0  0  0  0  0  0  0  0  0  0  0
  150.6526  140.1018  155.6527 C   0  0  1  0  0  0  0  0  0  0  0  0
  150.4058  141.5258  155.1233 C   0  0  0  0  0  0  0  0  0  0  0  0
  150.7158  142.4756  156.1211 O   0  0  0  0  0  0  0  0  0  0  0  0
  150.3726  138.9648  154.6615 C   0  0  1  0  0  0  0  0  0  0  0  0
  150.7905  139.3315  153.3553 O   0  0  0  0  0  0  0  0  0  0  0  0
  151.1957  137.8173  155.2426 C   0  0  1  0  0  0  0  0  0  0  0  0
  151.5826  136.8862  154.2497 O   0  0  0  0  0  0  0  0  0  0  0  0
  153.4542  138.2485  160.7283 C   0  0  0  0  0  0  0  0  0  0  0  0
  153.7649  137.5687  161.7041 O   0  0  0  0  0  0  0  0  0  0  0  0
  153.2835  139.6308  160.8765 N   0  0  0  0  0  0  0  0  0  0  0  0
  153.3049  138.4881  155.2930 H   0  0  0  0  0  0  0  0  0  0  0  0
  150.0339  139.9378  156.5333 H   0  0  0  0  0  0  0  0  0  0  0  0
  149.3110  138.7184  154.6221 H   0  0  0  0  0  0  0  0  0  0  0  0
  150.6178  137.3064  156.0124 H   0  0  0  0  0  0  0  0  0  0  0  0
  152.7682  143.4685  162.0473 H   0  0  0  0  0  0  0  0  0  0  0  0
  151.0810  143.7977  161.6565 H   0  0  0  0  0  0  0  0  0  0  0  0
  152.1748  145.1228  162.0379 H   0  0  0  0  0  0  0  0  0  0  0  0
  153.4885  144.6970  159.9870 H   0  0  0  0  0  0  0  0  0  0  0  0
  151.7965  145.3563  158.2626 H   0  0  0  0  0  0  0  0  0  0  0  0
  151.5912  146.2625  159.7548 H   0  0  0  0  0  0  0  0  0  0  0  0
  150.4956  144.9383  159.3762 H   0  0  0  0  0  0  0  0  0  0  0  0
  153.0063  142.0154  161.1797 H   0  0  0  0  0  0  0  0  0  0  0  0
  152.9841  135.9240  156.8516 H   0  0  0  0  0  0  0  0  0  0  0  0
  150.9849  141.7232  154.2208 H   0  0  0  0  0  0  0  0  0  0  0  0
  149.3527  141.6541  154.8706 H   0  0  0  0  0  0  0  0  0  0  0  0
  150.2927  143.2914  155.9008 H   0  0  0  0  0  0  0  0  0  0  0  0
  150.0217  139.4970  152.8313 H   0  0  0  0  0  0  0  0  0  0  0  0
  151.0620  137.0407  153.4762 H   0  0  0  0  0  0  0  0  0  0  0  0
  153.4306  140.0073  161.8013 H   0  0  0  0  0  0  0  0  0  0  0  0
  1  2  1  0  0  0  0
  1 30  1  0  0  0  0
  1 31  1  0  0  0  0
  1 32  1  0  0  0  0
  2  3  1  0  0  0  0
  2  4  1  0  0  0  0
  2 33  1  0  0  0  0
  3 34  1  0  0  0  0
  3 35  1  0  0  0  0
  3 36  1  0  0  0  0
  4  5  2  0  0  0  0
  4  6  1  0  0  0  0
  6 37  1  0  0  0  0
  6  7  1  0  0  0  0
  7 25  1  0  0  0  0
  7  8  2  0  0  0  0
  8  9  1  0  0  0  0
  9 13  1  0  0  0  0
  9 10  2  0  0  0  0
 10 11  1  0  0  0  0
 10 23  1  0  0  0  0
 11 12  2  0  0  0  0
 12 13  1  0  0  0  0
 12 38  1  0  0  0  0
 13 14  1  0  0  0  0
 14 26  1  0  0  0  0
 14 21  1  0  0  0  0
 14 15  1  0  0  0  0
 15 16  1  0  0  0  0
 16 27  1  0  0  0  0
 16 17  1  0  0  0  0
 16 19  1  0  0  0  0
 17 18  1  0  0  0  0
 17 39  1  0  0  0  0
 17 40  1  0  0  0  0
 18 41  1  0  0  0  0
 19 28  1  0  0  0  0
 19 20  1  0  0  0  0
 19 21  1  0  0  0  0
 20 42  1  0  0  0  0
 21 29  1  0  0  0  0
 21 22  1  0  0  0  0
 22 43  1  0  0  0  0
 23 24  2  0  0  0  0
 23 25  1  0  0  0  0
 25 44  1  0  0  0  0
M  END
> <s_m_source_file>
AV-unprocessed.smi

> <i_m_source_file_index>
54

> <i_lp_mmshare_version>
43012

> <i_f3d_flags>
0

> <s_epik_input>
W0NIM11bQ0hdKFtDSDNdKUMoPU8pW05IXWMobjEpW25IXWMoPU8pYyhjMTIpbltjSF1uMltDQEBIXTNPW0NASF0oW0NIMl1bT0hdKVtDQEBIXShbT0hdKVtDQEhdM1tPSF0=

> <s_epik_cmdline>
J2VwaWtfcHl0aG9uJywgJy1waCcsICc3LjAnLCAnLXRuJywgJzgnLCAnLW1hJywgJzIwMCcsICctbWV0YWxfYmluZGluZycsICctaW1hZScsICc8aW5maWxlLm1hZT4nLCAnLW9tYWUnLCAnPG91dGZpbGUubWFlPic=

> <r_lp_tautomer_probability>
0.85571

> <r_epik_Ionization_Penalty>
0.0316551

> <r_epik_Ionization_Penalty_Charging>
0.0316043

> <r_epik_Ionization_Penalty_Neutral>
5.07097e-05

> <r_epik_State_Penalty>
3.15494e-07

> <r_epik_Charging_Adjusted_Penalty>
0.0316047

> <i_epik_Tot_Q>
0

> <i_epik_Tot_abs_Q>
0

> <r_epik_Metal_State_Penalty>
0.421206

> <b_epik_Metal_Only>
0

> <s_epik_Chemistry_Notes>
This compound contains an acetal/aminal-like group ( X-CH(R)-Y where X, Y are N, S, or O) that may be acid/base labile, releasing an aldehyde.

> <s_lp_Force_Field>
OPLS_2005

> <r_lp_Energy>
45.4171

> <b_lp_Chiralities_Consistent>
1

> <s_lp_Variant>
AV-unprocessed.smi:54-3

> <Gold.Version>
5.8.1

> <Gold.Id.Protein>
6NUR|6NUR_protein|mol2

> <Gold.PLP.Fitness>
48.7639

> <Gold.PLP.PLP>
-40.6256

> <Gold.PLP.part.hbond>
-5.6954

> <Gold.PLP.part.metal>
0.0000

> <Gold.PLP.part.buried>
-4.6551

> <Gold.PLP.part.nonpolar>
-29.8551

> <Gold.PLP.part.repulsive>
0.1492

> <Gold.PLP.ligand.clash>
0.0000

> <Gold.PLP.ligand.torsion>
0.8340

> <Gold.PLP.Chemscore.Hbond>
3.2584

> <Gold.PLP.Chemscore.CHOScore>
0.0000

> <Gold.PLP.Chemscore.Metal>
0.0000

> <Gold.Chemscore.Hbonds>
donor molecule, donor type, donor heavy atom, donor atom, acceptor molecule, acceptor atom, score
      L1  H    18    41       P1  8028  1.00
      L1  H    20    42       P1  7957  0.75
      L1  H    22    43       P1  7949  0.25
      P1  H  7989  7998       L1    20  0.75
      P1  H  7997  8008       L1    15  0.02
      P1  H 10752 10764       L1    22  1.00

> <Gold.PLP.Chemscore.Internal.Correction>
0.0309

> <Gold.Rescore>
     Score         DG    S(hbond)    S(metal)    S(lipo)     H(rot)  DE(clash)    DE(int)     intcor
      9.11     -13.54       3.11        0.00      68.61       4.05       1.21       3.22       ----

> <Gold.Chemscore.Fitness>
9.1086

> <Gold.Chemscore.DG>
-13.5366

> <Gold.Chemscore.ZeroCoef>
-5.4800

> <Gold.Chemscore.Hbond>
3.1123

> <Gold.Chemscore.Metal>
0.0000

> <Gold.Chemscore.Lipo>
68.6134

> <Gold.Chemscore.Internal_Hbond>
0.0000

> <Gold.Chemscore.DEClash>
1.2117

> <Gold.Chemscore.DEInternal>
3.2163

> <Gold.Chemscore.Rot>
4.0493

> <Gold.Chemscore.Internal.Correction>
   9.000000E+99

> <Gold.Chemscore.Hbonds>
donor molecule, donor type, donor heavy atom, donor atom, acceptor molecule, acceptor atom, score
      L1  H    18    41       P1  8028  0.95
      L1  H    20    42       P1  7957  0.74
      L1  H    22    43       P1  7949  0.10
      P1  H  7989  7998       L1    20  0.29
      P1  H 10752 10764       L1    22  0.99

> <Gold.Chemscore.Hbond.Weighted>
-10.3951

> <Gold.Chemscore.Metal.Weighted>
-0.0000

> <Gold.Chemscore.Lipo.Weighted>
-8.0278

> <Gold.Chemscore.Internal_Hbond.Weighted>
0.0000

> <Gold.Chemscore.DEClash.Weighted>
1.2117

> <Gold.Chemscore.DEInternal.Weighted>
3.2163

> <Gold.Chemscore.Rot.Weighted>
10.3662

> <Gold.Chemscore.Internal.Correction.Weighted>
   9.000000E+99

> <Gold.Protein.RotatedTorsions>
[ 6907 6896 6895 6894 ] final   82.22 input  -60.11 | X-H torsion
[ 7974 7965 7964 7962 ] final  153.01 input  175.53 | X-H torsion
[ 8008 7997 7996 7995 ] final  -42.49 input   59.86 | X-H torsion
[ 10167 10162 10161 10158 ] final   88.76 input  -65.29 | X-H torsion
[ 10718 10713 10712 10709 ] final  -32.50 input   66.30 | X-H torsion
[ 10763 10752 10751 10750 ] final  -73.86 input  -60.55 | X-H torsion
[ 11005 11000 10999 10996 ] final  163.70 input  -57.11 | X-H torsion

> <Gold.Protein.ActiveResidues>
 VAL166  LYS551  ARG553  GLY616  TRP617  ASP618  TYR619  PRO620  LYS621  CYS622 
 ASP623  PHE694  ASN695  SER759  ASP760  ASP761  ALA762  ILE779  LEU786  VAL792 
 PHE793  MET794  SER795  GLU796  ALA797  LYS798  CYS799  TRP800  GLU811  SER814 

> <Gold.Protein.RotatedAtoms>
  152.5293  134.3083  159.9103 H   0  0  0  0  0  0  0  0  0  0  0  0  # atno 6907 bound_to 6896
  151.3032  133.4106  159.2649 H   0  0  0  0  0  0  0  0  0  0  0  0  # atno 6908 bound_to 6896
  151.0101  134.9406  159.8059 H   0  0  0  0  0  0  0  0  0  0  0  0  # atno 6909 bound_to 6896
  144.8183  139.6744  143.6111 H   0  0  0  0  0  0  0  0  0  0  0  0  # atno 7974 bound_to 7965
  154.3999  140.1472  156.3363 H   0  0  0  0  0  0  0  0  0  0  0  0  # atno 8008 bound_to 7997
  155.8397  140.3462  155.5603 H   0  0  0  0  0  0  0  0  0  0  0  0  # atno 8009 bound_to 7997
  155.8100  140.0882  157.1900 H   0  0  0  0  0  0  0  0  0  0  0  0  # atno 8010 bound_to 7997
  139.8640  144.6528  150.9025 H   0  0  0  0  0  0  0  0  0  0  0  0  # atno 10167 bound_to 10162
  156.3741  130.4345  149.7521 H   0  0  0  0  0  0  0  0  0  0  0  0  # atno 10718 bound_to 10713
  154.4653  135.5883  153.6284 H   0  0  0  0  0  0  0  0  0  0  0  0  # atno 10763 bound_to 10752
  152.9828  135.6054  154.3435 H   0  0  0  0  0  0  0  0  0  0  0  0  # atno 10764 bound_to 10752
  154.3311  135.2842  155.2450 H   0  0  0  0  0  0  0  0  0  0  0  0  # atno 10765 bound_to 10752
  140.2385  134.8069  157.3387 H   0  0  0  0  0  0  0  0  0  0  0  0  # atno 11005 bound_to 11000
  146.2488  139.6154  142.9441 LP  0  0  0  0  0  0  0  0  0  0  0  0  # atno 17320 bound_to 7965
  145.5163  141.0433  143.2460 LP  0  0  0  0  0  0  0  0  0  0  0  0  # atno 17321 bound_to 7965
  140.7771  143.3719  151.1633 LP  0  0  0  0  0  0  0  0  0  0  0  0  # atno 17342 bound_to 10162
  139.7346  143.9019  152.3031 LP  0  0  0  0  0  0  0  0  0  0  0  0  # atno 17343 bound_to 10162
  156.4637  130.7964  151.2983 LP  0  0  0  0  0  0  0  0  0  0  0  0  # atno 17370 bound_to 10713
  157.7486  131.0058  150.3126 LP  0  0  0  0  0  0  0  0  0  0  0  0  # atno 17371 bound_to 10713
  140.1678  134.4647  155.7852 LP  0  0  0  0  0  0  0  0  0  0  0  0  # atno 17394 bound_to 11000
  141.2212  133.6928  156.7655 LP  0  0  0  0  0  0  0  0  0  0  0  0  # atno 17395 bound_to 11000

$$$$
