AV-unprocessed.smi:1326|AV-procd|sdf|5475|dock4
  -GOLD-   22720 5 43D 1   1.00000     0.00000
 Structure written by MMmdl.
 39 39  0  0  0  0  0  0  0  0  1 V2000
  144.2754  144.0069  154.9394 C   0  0  0  0  0  0  0  0  0  0  0  0
  145.4150  143.0379  155.1675 C   0  0  0  0  0  0  0  0  0  0  0  0
  145.7639  142.3144  154.0393 N   0  0  0  0  0  0  0  0  0  0  0  0
  146.8020  141.4060  154.1478 C   0  0  0  0  0  0  0  0  0  0  0  0
  147.1220  140.6585  152.8652 C   0  0  0  0  0  0  0  0  0  0  0  0
  147.4570  141.2245  155.3227 C   0  0  0  0  0  0  0  0  0  0  0  0
  148.6096  140.2336  155.4822 C   0  0  0  0  0  0  0  0  0  0  0  0
  149.9846  140.8485  155.7508 C   0  0  0  0  0  0  0  0  0  0  0  0
  150.9619  140.4761  155.1019 O   0  0  0  0  0  0  0  0  0  0  0  0
  150.0441  141.7965  156.6991 N   0  0  0  0  0  0  0  0  0  0  0  0
  151.2484  142.5195  157.0890 C   0  0  0  0  0  0  0  0  0  0  0  0
  150.9360  143.5903  158.1501 C   0  0  0  0  0  0  0  0  0  0  0  0
  152.1856  144.2125  158.8057 C   0  0  0  0  0  0  0  0  0  0  0  0
  153.0584  143.1668  159.5203 C   0  0  0  0  0  0  0  0  0  0  0  0
  151.7852  145.3314  159.7796 C   0  0  0  0  0  0  0  0  0  0  0  0
  147.0322  142.0220  156.4980 C   0  0  0  0  0  0  0  0  0  0  0  0
  147.5737  141.8912  157.5950 O   0  0  0  0  0  0  0  0  0  0  0  0
  145.9783  142.9354  156.3329 N   0  0  0  0  0  0  0  0  0  0  0  0
  145.3047  142.4189  153.1459 H   0  0  0  0  0  0  0  0  0  0  0  0
  143.9619  144.4682  155.8768 H   0  0  0  0  0  0  0  0  0  0  0  0
  143.4157  143.4912  154.5106 H   0  0  0  0  0  0  0  0  0  0  0  0
  144.5830  144.7982  154.2549 H   0  0  0  0  0  0  0  0  0  0  0  0
  147.0135  139.5839  153.0128 H   0  0  0  0  0  0  0  0  0  0  0  0
  148.1452  140.8623  152.5503 H   0  0  0  0  0  0  0  0  0  0  0  0
  146.4572  140.9518  152.0519 H   0  0  0  0  0  0  0  0  0  0  0  0
  148.6880  139.5848  154.6092 H   0  0  0  0  0  0  0  0  0  0  0  0
  148.3708  139.5575  156.3038 H   0  0  0  0  0  0  0  0  0  0  0  0
  149.1898  142.0414  157.1790 H   0  0  0  0  0  0  0  0  0  0  0  0
  151.9559  141.7889  157.4796 H   0  0  0  0  0  0  0  0  0  0  0  0
  151.7183  142.9712  156.2138 H   0  0  0  0  0  0  0  0  0  0  0  0
  150.3574  144.3857  157.6781 H   0  0  0  0  0  0  0  0  0  0  0  0
  150.2901  143.1661  158.9202 H   0  0  0  0  0  0  0  0  0  0  0  0
  152.7875  144.6701  158.0194 H   0  0  0  0  0  0  0  0  0  0  0  0
  152.4951  142.6406  160.2917 H   0  0  0  0  0  0  0  0  0  0  0  0
  153.9175  143.6367  160.0001 H   0  0  0  0  0  0  0  0  0  0  0  0
  153.4481  142.4238  158.8253 H   0  0  0  0  0  0  0  0  0  0  0  0
  151.1642  144.9476  160.5898 H   0  0  0  0  0  0  0  0  0  0  0  0
  151.2214  146.1140  159.2709 H   0  0  0  0  0  0  0  0  0  0  0  0
  152.6630  145.7993  160.2260 H   0  0  0  0  0  0  0  0  0  0  0  0
  1 20  1  0  0  0  0
  1 21  1  0  0  0  0
  1 22  1  0  0  0  0
  1  2  1  0  0  0  0
  2  3  1  0  0  0  0
  2 18  2  0  0  0  0
  3  4  1  0  0  0  0
  3 19  1  0  0  0  0
  4  6  2  0  0  0  0
  4  5  1  0  0  0  0
  5 23  1  0  0  0  0
  5 24  1  0  0  0  0
  5 25  1  0  0  0  0
  6 16  1  0  0  0  0
  6  7  1  0  0  0  0
  7  8  1  0  0  0  0
  7 26  1  0  0  0  0
  7 27  1  0  0  0  0
  8  9  2  0  0  0  0
  8 10  1  0  0  0  0
 10 11  1  0  0  0  0
 10 28  1  0  0  0  0
 11 12  1  0  0  0  0
 11 29  1  0  0  0  0
 11 30  1  0  0  0  0
 12 13  1  0  0  0  0
 12 31  1  0  0  0  0
 12 32  1  0  0  0  0
 13 14  1  0  0  0  0
 13 15  1  0  0  0  0
 13 33  1  0  0  0  0
 14 34  1  0  0  0  0
 14 35  1  0  0  0  0
 14 36  1  0  0  0  0
 15 37  1  0  0  0  0
 15 38  1  0  0  0  0
 15 39  1  0  0  0  0
 16 17  2  0  0  0  0
 16 18  1  0  0  0  0
M  END
> <s_m_source_file>
AV-unprocessed.smi

> <i_m_source_file_index>
1326

> <i_lp_mmshare_version>
43012

> <i_f3d_flags>
0

> <s_epik_input>
W0NIM11jMW5jKFtDSDNdKWMoYyg9TylbbkhdMSlbQ0gyXUMoPU8pW05IXVtDSDJdW0NIMl1bQ0hdKFtDSDNdKVtDSDNd

> <s_epik_cmdline>
J2VwaWtfcHl0aG9uJywgJy1waCcsICc3LjAnLCAnLXRuJywgJzgnLCAnLW1hJywgJzIwMCcsICctbWV0YWxfYmluZGluZycsICctaW1hZScsICc8aW5maWxlLm1hZT4nLCAnLW9tYWUnLCAnPG91dGZpbGUubWFlPic=

> <r_lp_tautomer_probability>
0.156392

> <r_epik_Ionization_Penalty>
0.0135605

> <r_epik_Ionization_Penalty_Charging>
0.013428

> <r_epik_Ionization_Penalty_Neutral>
0.000132491

> <r_epik_State_Penalty>
1.15342

> <r_epik_Charging_Adjusted_Penalty>
1.16684

> <i_epik_Tot_Q>
0

> <i_epik_Tot_abs_Q>
0

> <r_epik_Metal_State_Penalty>
1.31299

> <b_epik_Metal_Only>
0

> <s_lp_Force_Field>
OPLS_2005

> <r_lp_Energy>
9.03726

> <b_lp_Chiralities_Consistent>
1

> <s_lp_Variant>
AV-unprocessed.smi:1326-2

> <Gold.Version>
5.8.1

> <Gold.Id.Protein>
6NUR|6NUR_protein|mol2

> <Gold.PLP.Fitness>
37.0561

> <Gold.PLP.PLP>
-34.4960

> <Gold.PLP.part.hbond>
-1.8520

> <Gold.PLP.part.metal>
0.0000

> <Gold.PLP.part.buried>
-4.3752

> <Gold.PLP.part.nonpolar>
-28.4640

> <Gold.PLP.part.repulsive>
0.4426

> <Gold.PLP.ligand.clash>
0.0000

> <Gold.PLP.ligand.torsion>
0.2253

> <Gold.PLP.Chemscore.Hbond>
0.9920

> <Gold.PLP.Chemscore.CHOScore>
0.0000

> <Gold.PLP.Chemscore.Metal>
0.0000

> <Gold.Chemscore.Hbonds>
donor molecule, donor type, donor heavy atom, donor atom, acceptor molecule, acceptor atom, score
      P1  H  7989  7998       L1     9  1.00

> <Gold.PLP.Chemscore.Internal.Correction>
0.0347

> <Gold.Rescore>
     Score         DG    S(hbond)    S(metal)    S(lipo)     H(rot)  DE(clash)    DE(int)     intcor
     12.17     -13.89       0.99        0.00      85.11       1.89       0.02       1.70       ----

> <Gold.Chemscore.Fitness>
12.1655

> <Gold.Chemscore.DG>
-13.8853

> <Gold.Chemscore.ZeroCoef>
-5.4800

> <Gold.Chemscore.Hbond>
0.9850

> <Gold.Chemscore.Metal>
0.0000

> <Gold.Chemscore.Lipo>
85.1082

> <Gold.Chemscore.Internal_Hbond>
0.0000

> <Gold.Chemscore.DEClash>
0.0164

> <Gold.Chemscore.DEInternal>
1.7034

> <Gold.Chemscore.Rot>
1.8916

> <Gold.Chemscore.Internal.Correction>
   9.000000E+99

> <Gold.Chemscore.Hbonds>
donor molecule, donor type, donor heavy atom, donor atom, acceptor molecule, acceptor atom, score
      P1  H  7989  7998       L1     9  0.95

> <Gold.Chemscore.Hbond.Weighted>
-3.2901

> <Gold.Chemscore.Metal.Weighted>
-0.0000

> <Gold.Chemscore.Lipo.Weighted>
-9.9577

> <Gold.Chemscore.Internal_Hbond.Weighted>
0.0000

> <Gold.Chemscore.DEClash.Weighted>
0.0164

> <Gold.Chemscore.DEInternal.Weighted>
1.7034

> <Gold.Chemscore.Rot.Weighted>
4.8424

> <Gold.Chemscore.Internal.Correction.Weighted>
   9.000000E+99

> <Gold.Protein.RotatedTorsions>
[ 6907 6896 6895 6894 ] final   57.94 input  -60.11 | X-H torsion
[ 7974 7965 7964 7962 ] final  -94.23 input  175.53 | X-H torsion
[ 8008 7997 7996 7995 ] final   71.13 input   59.86 | X-H torsion
[ 10167 10162 10161 10158 ] final  159.03 input  -65.29 | X-H torsion
[ 10718 10713 10712 10709 ] final -110.81 input   66.30 | X-H torsion
[ 10763 10752 10751 10750 ] final  161.23 input  -60.55 | X-H torsion
[ 11005 11000 10999 10996 ] final   40.86 input  -57.11 | X-H torsion

> <Gold.Protein.ActiveResidues>
 VAL166  LYS551  ARG553  GLY616  TRP617  ASP618  TYR619  PRO620  LYS621  CYS622 
 ASP623  PHE694  ASN695  SER759  ASP760  ASP761  ALA762  ILE779  LEU786  VAL792 
 PHE793  MET794  SER795  GLU796  ALA797  LYS798  CYS799  TRP800  GLU811  SER814 

> <Gold.Protein.RotatedAtoms>
  152.3778  134.6637  160.0153 H   0  0  0  0  0  0  0  0  0  0  0  0  # atno 6907 bound_to 6896
  151.6910  133.3305  159.3251 H   0  0  0  0  0  0  0  0  0  0  0  0  # atno 6908 bound_to 6896
  150.7723  134.6634  159.6397 H   0  0  0  0  0  0  0  0  0  0  0  0  # atno 6909 bound_to 6896
  145.3760  140.9511  143.2420 H   0  0  0  0  0  0  0  0  0  0  0  0  # atno 7974 bound_to 7965
  155.7493  140.3489  155.5142 H   0  0  0  0  0  0  0  0  0  0  0  0  # atno 8008 bound_to 7997
  155.9020  140.1035  157.1364 H   0  0  0  0  0  0  0  0  0  0  0  0  # atno 8009 bound_to 7997
  154.4045  140.1284  156.4435 H   0  0  0  0  0  0  0  0  0  0  0  0  # atno 8010 bound_to 7997
  139.4830  144.4769  151.8499 H   0  0  0  0  0  0  0  0  0  0  0  0  # atno 10167 bound_to 10162
  156.0611  130.5834  150.8288 H   0  0  0  0  0  0  0  0  0  0  0  0  # atno 10718 bound_to 10713
  154.2598  135.2769  155.2783 H   0  0  0  0  0  0  0  0  0  0  0  0  # atno 10763 bound_to 10752
  154.5394  135.5707  153.6829 H   0  0  0  0  0  0  0  0  0  0  0  0  # atno 10764 bound_to 10752
  152.9964  135.6247  154.2748 H   0  0  0  0  0  0  0  0  0  0  0  0  # atno 10765 bound_to 10752
  140.1890  134.4010  155.8157 H   0  0  0  0  0  0  0  0  0  0  0  0  # atno 11005 bound_to 11000
  144.8541  139.5276  143.6842 LP  0  0  0  0  0  0  0  0  0  0  0  0  # atno 17320 bound_to 7965
  146.2863  139.7015  142.9193 LP  0  0  0  0  0  0  0  0  0  0  0  0  # atno 17321 bound_to 7965
  140.4242  144.2203  150.5887 LP  0  0  0  0  0  0  0  0  0  0  0  0  # atno 17342 bound_to 10162
  140.4844  143.2368  151.8909 LP  0  0  0  0  0  0  0  0  0  0  0  0  # atno 17343 bound_to 10162
  157.5621  131.0946  150.9544 LP  0  0  0  0  0  0  0  0  0  0  0  0  # atno 17370 bound_to 10713
  156.9779  130.5516  149.5294 LP  0  0  0  0  0  0  0  0  0  0  0  0  # atno 17371 bound_to 10713
  141.2226  133.7037  156.8062 LP  0  0  0  0  0  0  0  0  0  0  0  0  # atno 17394 bound_to 11000
  140.2181  134.8777  157.3348 LP  0  0  0  0  0  0  0  0  0  0  0  0  # atno 17395 bound_to 11000

$$$$
