AV-unprocessed.smi:3017|AV-procd|sdf|11478|dock3
  -GOLD-   2272016413D 1   1.00000     0.00000
 Structure written by MMmdl.
 37 38  0  0  0  0  0  0  0  0  1 V2000
  153.2201  142.5195  162.5043 C   0  0  0  0  0  0  0  0  0  0  0  0
  152.5454  142.9850  161.2063 C   0  0  1  0  0  0  0  0  0  0  0  0
  152.1303  144.4668  161.2854 C   0  0  0  0  0  0  0  0  0  0  0  0
  151.4577  144.9336  159.9850 C   0  0  0  0  0  0  0  0  0  0  0  0
  152.3600  144.6806  158.7660 C   0  0  0  0  0  0  0  0  0  0  0  0
  152.7883  143.2058  158.6677 C   0  0  2  0  0  0  0  0  0  0  0  0
  151.6263  142.4367  158.3823 O   0  0  0  0  0  0  0  0  0  0  0  0
  150.8770  142.8825  157.2583 C   0  0  0  0  0  0  0  0  0  0  0  0
  150.2356  141.6847  156.5534 C   0  0  0  0  0  0  0  0  0  0  0  0
  150.5022  140.5496  156.9472 O   0  0  0  0  0  0  0  0  0  0  0  0
  149.4162  141.9592  155.5204 N   0  0  0  0  0  0  0  0  0  0  0  0
  148.6815  141.0505  154.7154 C   0  0  0  0  0  0  0  0  0  0  0  0
  149.2422  139.7584  154.5811 C   0  0  0  0  0  0  0  0  0  0  0  0
  148.6633  138.7852  153.8429 N   0  0  0  0  0  0  0  0  0  0  0  0
  147.5051  139.1034  153.2264 C   0  0  0  0  0  0  0  0  0  0  0  0
  146.9317  140.3848  153.3492 C   0  0  0  0  0  0  0  0  0  0  0  0
  147.5153  141.3526  154.0893 N   0  0  0  0  0  0  0  0  0  0  0  0
  153.4529  142.7449  159.9829 C   0  0  0  0  0  0  0  0  0  0  0  0
  154.1365  143.0779  162.6981 H   0  0  0  0  0  0  0  0  0  0  0  0
  153.4795  141.4615  162.4531 H   0  0  0  0  0  0  0  0  0  0  0  0
  152.5593  142.6548  163.3609 H   0  0  0  0  0  0  0  0  0  0  0  0
  151.6407  142.3886  161.0783 H   0  0  0  0  0  0  0  0  0  0  0  0
  151.4498  144.6203  162.1238 H   0  0  0  0  0  0  0  0  0  0  0  0
  153.0067  145.0856  161.4824 H   0  0  0  0  0  0  0  0  0  0  0  0
  150.5093  144.4101  159.8560 H   0  0  0  0  0  0  0  0  0  0  0  0
  151.2159  145.9944  160.0525 H   0  0  0  0  0  0  0  0  0  0  0  0
  151.8464  144.9820  157.8526 H   0  0  0  0  0  0  0  0  0  0  0  0
  153.2483  145.3094  158.8398 H   0  0  0  0  0  0  0  0  0  0  0  0
  153.4976  143.1112  157.8435 H   0  0  0  0  0  0  0  0  0  0  0  0
  150.0916  143.5698  157.5754 H   0  0  0  0  0  0  0  0  0  0  0  0
  151.5133  143.4082  156.5465 H   0  0  0  0  0  0  0  0  0  0  0  0
  149.2946  142.9372  155.2994 H   0  0  0  0  0  0  0  0  0  0  0  0
  150.1700  139.5002  155.0708 H   0  0  0  0  0  0  0  0  0  0  0  0
  147.0340  138.3340  152.6329 H   0  0  0  0  0  0  0  0  0  0  0  0
  146.0054  140.6336  152.8532 H   0  0  0  0  0  0  0  0  0  0  0  0
  154.3869  143.2925  160.1164 H   0  0  0  0  0  0  0  0  0  0  0  0
  153.7329  141.6935  159.9250 H   0  0  0  0  0  0  0  0  0  0  0  0
  1  2  1  0  0  0  0
  1 19  1  0  0  0  0
  1 20  1  0  0  0  0
  1 21  1  0  0  0  0
  2 18  1  0  0  0  0
  2  3  1  0  0  0  0
  2 22  1  0  0  0  0
  3  4  1  0  0  0  0
  3 23  1  0  0  0  0
  3 24  1  0  0  0  0
  4  5  1  0  0  0  0
  4 25  1  0  0  0  0
  4 26  1  0  0  0  0
  5  6  1  0  0  0  0
  5 27  1  0  0  0  0
  5 28  1  0  0  0  0
  6  7  1  0  0  0  0
  6 18  1  0  0  0  0
  6 29  1  0  0  0  0
  7  8  1  0  0  0  0
  8  9  1  0  0  0  0
  8 30  1  0  0  0  0
  8 31  1  0  0  0  0
  9 10  2  0  0  0  0
  9 11  1  0  0  0  0
 11 12  1  0  0  0  0
 11 32  1  0  0  0  0
 12 17  1  0  0  0  0
 12 13  2  0  0  0  0
 13 14  1  0  0  0  0
 13 33  1  0  0  0  0
 14 15  2  0  0  0  0
 15 16  1  0  0  0  0
 15 34  1  0  0  0  0
 16 17  2  0  0  0  0
 16 35  1  0  0  0  0
 18 36  1  0  0  0  0
 18 37  1  0  0  0  0
M  END
> <s_m_source_file>
AV-unprocessed.smi

> <i_m_source_file_index>
3017

> <i_lp_mmshare_version>
43012

> <i_f3d_flags>
0

> <s_epik_input>
W0NIM11bQ0BASF0xW0NIMl1bQ0gyXVtDSDJdW0NASF0oW0NIMl0xKU9bQ0gyXUMoPU8pW05IXWMyW2NIXW5bY0hdW2NIXW4y

> <s_epik_cmdline>
J2VwaWtfcHl0aG9uJywgJy1waCcsICc3LjAnLCAnLXRuJywgJzgnLCAnLW1hJywgJzIwMCcsICctbWV0YWxfYmluZGluZycsICctaW1hZScsICc8aW5maWxlLm1hZT4nLCAnLW9tYWUnLCAnPG91dGZpbGUubWFlPic=

> <r_lp_tautomer_probability>
1

> <r_epik_Ionization_Penalty>
2.89243e-06

> <r_epik_Ionization_Penalty_Charging>
0

> <r_epik_Ionization_Penalty_Neutral>
2.89243e-06

> <r_epik_State_Penalty>
-0

> <r_epik_Charging_Adjusted_Penalty>
0

> <i_epik_Tot_Q>
0

> <i_epik_Tot_abs_Q>
0

> <r_epik_Metal_State_Penalty>
-0

> <b_epik_Metal_Only>
0

> <s_lp_Force_Field>
OPLS_2005

> <r_lp_Energy>
20.5114

> <b_lp_Chiralities_Consistent>
1

> <s_lp_Variant>
AV-unprocessed.smi:3017-4

> <Gold.Version>
5.8.1

> <Gold.Id.Protein>
6NUR|6NUR_protein|mol2

> <Gold.PLP.Fitness>
49.6509

> <Gold.PLP.PLP>
-43.6376

> <Gold.PLP.part.hbond>
-1.0000

> <Gold.PLP.part.metal>
0.0000

> <Gold.PLP.part.buried>
-3.1199

> <Gold.PLP.part.nonpolar>
-40.4909

> <Gold.PLP.part.repulsive>
0.9567

> <Gold.PLP.ligand.clash>
0.0000

> <Gold.PLP.ligand.torsion>
0.4311

> <Gold.PLP.Chemscore.Hbond>
0.9920

> <Gold.PLP.Chemscore.CHOScore>
1.2896

> <Gold.PLP.Chemscore.Metal>
0.0000

> <Gold.Chemscore.Hbonds>
donor molecule, donor type, donor heavy atom, donor atom, acceptor molecule, acceptor atom, score
      L1  H    11    32       P1  8028  1.00
      L1  C    16    35       P1 10175  1.00

> <Gold.PLP.Chemscore.Internal.Correction>
0.0307

> <Gold.Rescore>
     Score         DG    S(hbond)    S(metal)    S(lipo)     H(rot)  DE(clash)    DE(int)     intcor
     16.56     -18.50       0.97        0.00     116.70       1.51       0.13       1.80       ----

> <Gold.Chemscore.Fitness>
16.5629

> <Gold.Chemscore.DG>
-18.4998

> <Gold.Chemscore.ZeroCoef>
-5.4800

> <Gold.Chemscore.Hbond>
0.9691

> <Gold.Chemscore.Metal>
0.0000

> <Gold.Chemscore.Lipo>
116.6967

> <Gold.Chemscore.Internal_Hbond>
0.0000

> <Gold.Chemscore.DEClash>
0.1348

> <Gold.Chemscore.DEInternal>
1.8021

> <Gold.Chemscore.Rot>
1.5119

> <Gold.Chemscore.Internal.Correction>
   9.000000E+99

> <Gold.Chemscore.Hbonds>
donor molecule, donor type, donor heavy atom, donor atom, acceptor molecule, acceptor atom, score
      L1  H    11    32       P1  8028  0.98

> <Gold.Chemscore.Hbond.Weighted>
-3.2369

> <Gold.Chemscore.Metal.Weighted>
-0.0000

> <Gold.Chemscore.Lipo.Weighted>
-13.6535

> <Gold.Chemscore.Internal_Hbond.Weighted>
0.0000

> <Gold.Chemscore.DEClash.Weighted>
0.1348

> <Gold.Chemscore.DEInternal.Weighted>
1.8021

> <Gold.Chemscore.Rot.Weighted>
3.8706

> <Gold.Chemscore.Internal.Correction.Weighted>
   9.000000E+99

> <Gold.Protein.RotatedTorsions>
[ 6907 6896 6895 6894 ] final   32.84 input  -60.11 | X-H torsion
[ 7974 7965 7964 7962 ] final   56.10 input  175.53 | X-H torsion
[ 8008 7997 7996 7995 ] final  -27.16 input   59.86 | X-H torsion
[ 10167 10162 10161 10158 ] final    6.42 input  -65.29 | X-H torsion
[ 10718 10713 10712 10709 ] final   92.46 input   66.30 | X-H torsion
[ 10763 10752 10751 10750 ] final  163.69 input  -60.55 | X-H torsion
[ 11005 11000 10999 10996 ] final  -82.88 input  -57.11 | X-H torsion

> <Gold.Protein.ActiveResidues>
 VAL166  LYS551  ARG553  GLY616  TRP617  ASP618  TYR619  PRO620  LYS621  CYS622 
 ASP623  PHE694  ASN695  SER759  ASP760  ASP761  ALA762  ILE779  LEU786  VAL792 
 PHE793  MET794  SER795  GLU796  ALA797  LYS798  CYS799  TRP800  GLU811  SER814 

> <Gold.Protein.RotatedAtoms>
  152.0801  134.9477  160.0573 H   0  0  0  0  0  0  0  0  0  0  0  0  # atno 6907 bound_to 6896
  152.0769  133.4128  159.4492 H   0  0  0  0  0  0  0  0  0  0  0  0  # atno 6908 bound_to 6896
  150.6836  134.2947  159.4725 H   0  0  0  0  0  0  0  0  0  0  0  0  # atno 6909 bound_to 6896
  145.9434  139.3908  143.0350 H   0  0  0  0  0  0  0  0  0  0  0  0  # atno 7974 bound_to 7965
  154.4390  140.1880  156.0888 H   0  0  0  0  0  0  0  0  0  0  0  0  # atno 8008 bound_to 7997
  156.0382  140.3323  155.7188 H   0  0  0  0  0  0  0  0  0  0  0  0  # atno 8009 bound_to 7997
  155.5739  140.0615  157.2790 H   0  0  0  0  0  0  0  0  0  0  0  0  # atno 8010 bound_to 7997
  140.6429  143.7732  150.7454 H   0  0  0  0  0  0  0  0  0  0  0  0  # atno 10167 bound_to 10162
  157.6958  131.0444  150.3886 H   0  0  0  0  0  0  0  0  0  0  0  0  # atno 10718 bound_to 10713
  154.2975  135.2759  155.2626 H   0  0  0  0  0  0  0  0  0  0  0  0  # atno 10763 bound_to 10752
  154.5078  135.5791  153.6584 H   0  0  0  0  0  0  0  0  0  0  0  0  # atno 10764 bound_to 10752
  152.9905  135.6173  154.3144 H   0  0  0  0  0  0  0  0  0  0  0  0  # atno 10765 bound_to 10752
  141.1661  133.7267  156.8638 H   0  0  0  0  0  0  0  0  0  0  0  0  # atno 11005 bound_to 11000
  145.8269  140.9650  143.0869 LP  0  0  0  0  0  0  0  0  0  0  0  0  # atno 17320 bound_to 7965
  144.6783  140.0113  143.7484 LP  0  0  0  0  0  0  0  0  0  0  0  0  # atno 17321 bound_to 7965
  140.1367  143.4477  152.2220 LP  0  0  0  0  0  0  0  0  0  0  0  0  # atno 17342 bound_to 10162
  139.5638  144.7422  151.4079 LP  0  0  0  0  0  0  0  0  0  0  0  0  # atno 17343 bound_to 10162
  156.4292  130.3968  149.6772 LP  0  0  0  0  0  0  0  0  0  0  0  0  # atno 17370 bound_to 10713
  156.3996  130.7668  151.2674 LP  0  0  0  0  0  0  0  0  0  0  0  0  # atno 17371 bound_to 10713
  140.1830  134.9020  157.2970 LP  0  0  0  0  0  0  0  0  0  0  0  0  # atno 17394 bound_to 11000
  140.2374  134.3836  155.7495 LP  0  0  0  0  0  0  0  0  0  0  0  0  # atno 17395 bound_to 11000

$$$$
