AV-unprocessed.smi:3091|AV-procd|sdf|11778|dock3
  -GOLD-   2272017163D 1   1.00000     0.00000
 Structure written by MMmdl.
 29 30  0  0  0  0  0  0  0  0  2 V2000
  149.1044  138.6483  153.2834 N   0  3  0  0  0  0  0  0  0  0  0  0
  150.2784  138.3585  154.1220 C   0  0  0  0  0  0  0  0  0  0  0  0
  150.5151  139.4764  155.1162 C   0  0  0  0  0  0  0  0  0  0  0  0
  149.7437  140.6550  155.0693 C   0  0  0  0  0  0  0  0  0  0  0  0
  150.0081  141.6661  156.0135 C   0  0  0  0  0  0  0  0  0  0  0  0
  150.9654  141.5630  156.9592 N   0  0  0  0  0  0  0  0  0  0  0  0
  151.7087  140.4295  157.0039 C   0  0  0  0  0  0  0  0  0  0  0  0
  152.6907  140.3065  157.9671 O   0  0  0  0  0  0  0  0  0  0  0  0
  152.3656  140.5369  159.3399 C   0  0  2  0  0  0  0  0  0  0  0  0
  151.9430  141.9829  159.5660 C   0  0  0  0  0  0  0  0  0  0  0  0
  153.2715  142.6766  159.8287 C   0  0  0  0  0  0  0  0  0  0  0  0
  153.9676  141.7344  160.6262 O   0  0  0  0  0  0  0  0  0  0  0  0
  153.6591  140.4240  160.1610 C   0  0  0  0  0  0  0  0  0  0  0  0
  151.5170  139.3628  156.1016 C   0  0  0  0  0  0  0  0  0  0  0  0
  148.8008  137.8031  152.8214 H   0  0  0  0  0  0  0  0  0  0  0  0
  149.3500  139.3422  152.5917 H   0  0  0  0  0  0  0  0  0  0  0  0
  150.1221  137.4167  154.6493 H   0  0  0  0  0  0  0  0  0  0  0  0
  151.1548  138.2316  153.4858 H   0  0  0  0  0  0  0  0  0  0  0  0
  148.9661  140.7854  154.3308 H   0  0  0  0  0  0  0  0  0  0  0  0
  149.4361  142.5822  156.0083 H   0  0  0  0  0  0  0  0  0  0  0  0
  151.6241  139.8240  159.7040 H   0  0  0  0  0  0  0  0  0  0  0  0
  151.3935  142.4207  158.7325 H   0  0  0  0  0  0  0  0  0  0  0  0
  151.3143  142.0489  160.4547 H   0  0  0  0  0  0  0  0  0  0  0  0
  153.8157  142.8432  158.8977 H   0  0  0  0  0  0  0  0  0  0  0  0
  153.1578  143.6324  160.3404 H   0  0  0  0  0  0  0  0  0  0  0  0
  153.5340  139.7604  161.0171 H   0  0  0  0  0  0  0  0  0  0  0  0
  154.4837  140.0382  159.5601 H   0  0  0  0  0  0  0  0  0  0  0  0
  152.1297  138.4755  156.1699 H   0  0  0  0  0  0  0  0  0  0  0  0
  148.3582  139.0031  153.8640 H   0  0  0  0  0  0  0  0  0  0  0  0
  1  2  1  0  0  0  0
  1 15  1  0  0  0  0
  1 16  1  0  0  0  0
  1 29  1  0  0  0  0
  2  3  1  0  0  0  0
  2 17  1  0  0  0  0
  2 18  1  0  0  0  0
  3 14  1  0  0  0  0
  3  4  2  0  0  0  0
  4  5  1  0  0  0  0
  4 19  1  0  0  0  0
  5  6  2  0  0  0  0
  5 20  1  0  0  0  0
  6  7  1  0  0  0  0
  7  8  1  0  0  0  0
  7 14  2  0  0  0  0
  8  9  1  0  0  0  0
  9 13  1  0  0  0  0
  9 10  1  0  0  0  0
  9 21  1  0  0  0  0
 10 11  1  0  0  0  0
 10 22  1  0  0  0  0
 10 23  1  0  0  0  0
 11 12  1  0  0  0  0
 11 24  1  0  0  0  0
 11 25  1  0  0  0  0
 12 13  1  0  0  0  0
 13 26  1  0  0  0  0
 13 27  1  0  0  0  0
 14 28  1  0  0  0  0
M  CHG  1   1   1
M  END
> <s_m_source_file>
AV-unprocessed.smi

> <i_m_source_file_index>
3091

> <i_lp_mmshare_version>
43012

> <i_f3d_flags>
0

> <s_epik_input>
W05IMl1bQ0gyXWMxW2NIXVtjSF1uYyhbY0hdMSlPW0NAQEhdMltDSDJdW0NIMl1PW0NIMl0y

> <s_epik_cmdline>
J2VwaWtfcHl0aG9uJywgJy1waCcsICc3LjAnLCAnLXRuJywgJzgnLCAnLW1hJywgJzIwMCcsICctbWV0YWxfYmluZGluZycsICctaW1hZScsICc8aW5maWxlLm1hZT4nLCAnLW9tYWUnLCAnPG91dGZpbGUubWFlPic=

> <r_lp_tautomer_probability>
1

> <r_epik_Ionization_Penalty>
0.0773124

> <r_epik_Ionization_Penalty_Charging>
0.0773118

> <r_epik_Ionization_Penalty_Neutral>
5.92883e-07

> <r_epik_State_Penalty>
0.0682686

> <r_epik_Charging_Adjusted_Penalty>
0.14558

> <i_epik_Tot_Q>
1

> <i_epik_Tot_abs_Q>
1

> <r_epik_Metal_State_Penalty>
0.0682821

> <b_epik_Metal_Only>
0

> <s_lp_Force_Field>
OPLS_2005

> <r_lp_Energy>
12.9222

> <b_lp_Chiralities_Consistent>
1

> <s_lp_Variant>
AV-unprocessed.smi:3091-1

> <Gold.Version>
5.8.1

> <Gold.Id.Protein>
6NUR|6NUR_protein|mol2

> <Gold.PLP.Fitness>
44.6117

> <Gold.PLP.PLP>
-29.9677

> <Gold.PLP.part.hbond>
-2.8871

> <Gold.PLP.part.metal>
0.0000

> <Gold.PLP.part.buried>
-3.0208

> <Gold.PLP.part.nonpolar>
-23.9857

> <Gold.PLP.part.repulsive>
0.1440

> <Gold.PLP.ligand.clash>
0.0000

> <Gold.PLP.ligand.torsion>
0.1029

> <Gold.PLP.Chemscore.Hbond>
3.9440

> <Gold.PLP.Chemscore.CHOScore>
1.0000

> <Gold.PLP.Chemscore.Metal>
0.0000

> <Gold.Chemscore.Hbonds>
donor molecule, donor type, donor heavy atom, donor atom, acceptor molecule, acceptor atom, score
      L1  H     1    15       P1  7948  2.00
      L1  H     1    16       P1  7957  1.00
      P1  H  7997  8009       L1     8  0.77
      L1  C     5    20       P1  8028  1.00

> <Gold.PLP.Chemscore.Internal.Correction>
0.0179

> <Gold.Rescore>
     Score         DG    S(hbond)    S(metal)    S(lipo)     H(rot)  DE(clash)    DE(int)     intcor
     17.46     -18.87       2.75        0.00      70.69       1.59       0.02       1.40       ----

> <Gold.Chemscore.Fitness>
17.4580

> <Gold.Chemscore.DG>
-18.8712

> <Gold.Chemscore.ZeroCoef>
-5.4800

> <Gold.Chemscore.Hbond>
2.7535

> <Gold.Chemscore.Metal>
0.0000

> <Gold.Chemscore.Lipo>
70.6921

> <Gold.Chemscore.Internal_Hbond>
0.0000

> <Gold.Chemscore.DEClash>
0.0174

> <Gold.Chemscore.DEInternal>
1.3958

> <Gold.Chemscore.Rot>
1.5924

> <Gold.Chemscore.Internal.Correction>
   9.000000E+99

> <Gold.Chemscore.Hbonds>
donor molecule, donor type, donor heavy atom, donor atom, acceptor molecule, acceptor atom, score
      L1  H     1    15       P1  7948  0.99
      L1  H     1    16       P1  7957  0.98
      P1  H  7997  8009       L1     8  0.40

> <Gold.Chemscore.Hbond.Weighted>
-9.1967

> <Gold.Chemscore.Metal.Weighted>
-0.0000

> <Gold.Chemscore.Lipo.Weighted>
-8.2710

> <Gold.Chemscore.Internal_Hbond.Weighted>
0.0000

> <Gold.Chemscore.DEClash.Weighted>
0.0174

> <Gold.Chemscore.DEInternal.Weighted>
1.3958

> <Gold.Chemscore.Rot.Weighted>
4.0765

> <Gold.Chemscore.Internal.Correction.Weighted>
   9.000000E+99

> <Gold.Protein.RotatedTorsions>
[ 6907 6896 6895 6894 ] final  108.45 input  -60.11 | X-H torsion
[ 7974 7965 7964 7962 ] final  -83.27 input  175.53 | X-H torsion
[ 8008 7997 7996 7995 ] final  162.09 input   59.86 | X-H torsion
[ 10167 10162 10161 10158 ] final  -22.56 input  -65.29 | X-H torsion
[ 10718 10713 10712 10709 ] final   94.19 input   66.30 | X-H torsion
[ 10763 10752 10751 10750 ] final   49.58 input  -60.55 | X-H torsion
[ 11005 11000 10999 10996 ] final -123.16 input  -57.11 | X-H torsion

> <Gold.Protein.ActiveResidues>
 VAL166  LYS551  ARG553  GLY616  TRP617  ASP618  TYR619  PRO620  LYS621  CYS622 
 ASP623  PHE694  ASN695  SER759  ASP760  ASP761  ALA762  ILE779  LEU786  VAL792 
 PHE793  MET794  SER795  GLU796  ALA797  LYS798  CYS799  TRP800  GLU811  SER814 

> <Gold.Protein.RotatedAtoms>
  152.5111  133.9087  159.7476 H   0  0  0  0  0  0  0  0  0  0  0  0  # atno 6907 bound_to 6896
  150.9486  133.6567  159.2783 H   0  0  0  0  0  0  0  0  0  0  0  0  # atno 6908 bound_to 6896
  151.3853  135.0952  159.9562 H   0  0  0  0  0  0  0  0  0  0  0  0  # atno 6909 bound_to 6896
  145.5222  140.9530  143.1649 H   0  0  0  0  0  0  0  0  0  0  0  0  # atno 7974 bound_to 7965
  156.2056  140.1760  156.7806 H   0  0  0  0  0  0  0  0  0  0  0  0  # atno 8008 bound_to 7997
  154.5651  140.0692  156.8909 H   0  0  0  0  0  0  0  0  0  0  0  0  # atno 8009 bound_to 7997
  155.2776  140.3347  155.4263 H   0  0  0  0  0  0  0  0  0  0  0  0  # atno 8010 bound_to 7997
  140.7286  143.4523  151.0498 H   0  0  0  0  0  0  0  0  0  0  0  0  # atno 10167 bound_to 10162
  157.6950  131.0504  150.4148 H   0  0  0  0  0  0  0  0  0  0  0  0  # atno 10718 bound_to 10713
  152.9786  135.5907  154.4112 H   0  0  0  0  0  0  0  0  0  0  0  0  # atno 10763 bound_to 10752
  154.3747  135.2767  155.2248 H   0  0  0  0  0  0  0  0  0  0  0  0  # atno 10764 bound_to 10752
  154.4187  135.6064  153.6051 H   0  0  0  0  0  0  0  0  0  0  0  0  # atno 10765 bound_to 10752
  140.9940  134.0498  157.3620 H   0  0  0  0  0  0  0  0  0  0  0  0  # atno 11005 bound_to 11000
  144.7670  139.6822  143.7210 LP  0  0  0  0  0  0  0  0  0  0  0  0  # atno 17320 bound_to 7965
  146.2099  139.5448  142.9688 LP  0  0  0  0  0  0  0  0  0  0  0  0  # atno 17321 bound_to 7965
  139.8200  143.7833  152.3176 LP  0  0  0  0  0  0  0  0  0  0  0  0  # atno 17342 bound_to 10162
  139.7912  144.7409  150.9952 LP  0  0  0  0  0  0  0  0  0  0  0  0  # atno 17343 bound_to 10162
  156.4528  130.4015  149.6625 LP  0  0  0  0  0  0  0  0  0  0  0  0  # atno 17370 bound_to 10713
  156.3768  130.7558  151.2547 LP  0  0  0  0  0  0  0  0  0  0  0  0  # atno 17371 bound_to 10713
  139.9006  135.0163  156.7248 LP  0  0  0  0  0  0  0  0  0  0  0  0  # atno 17394 bound_to 11000
  140.6995  133.9318  155.8016 LP  0  0  0  0  0  0  0  0  0  0  0  0  # atno 17395 bound_to 11000

$$$$
