AV-unprocessed.smi:948|AV-procd|sdf|4239|dock2
  -GOLD-   22720 2153D 1   1.00000     0.00000
 Structure written by MMmdl.
 18 18  0  0  0  0  0  0  0  0  2 V2000
  143.7146  133.5371  147.7859 N   0  3  0  0  0  0  0  0  0  0  0  0
  144.4773  132.6666  148.6960 C   0  0  0  0  0  0  0  0  0  0  0  0
  144.0399  132.8613  150.1541 C   0  0  0  0  0  0  0  0  0  0  0  0
  144.4298  134.1916  150.7075 C   0  0  0  0  0  0  0  0  0  0  0  0
  144.1709  134.7745  151.9296 C   0  0  0  0  0  0  0  0  0  0  0  0
  144.7558  136.0411  151.9874 N   0  0  0  0  0  0  0  0  0  0  0  0
  145.3431  136.1811  150.8052 C   0  0  0  0  0  0  0  0  0  0  0  0
  145.1849  135.1200  150.0091 N   0  0  0  0  0  0  0  0  0  0  0  0
  145.5466  135.0203  149.0714 H   0  0  0  0  0  0  0  0  0  0  0  0
  144.2311  134.3901  147.6251 H   0  0  0  0  0  0  0  0  0  0  0  0
  142.8204  133.7586  148.1998 H   0  0  0  0  0  0  0  0  0  0  0  0
  144.3308  131.6297  148.3916 H   0  0  0  0  0  0  0  0  0  0  0  0
  145.5390  132.8890  148.5838 H   0  0  0  0  0  0  0  0  0  0  0  0
  142.9583  132.7440  150.2321 H   0  0  0  0  0  0  0  0  0  0  0  0
  144.4745  132.0757  150.7739 H   0  0  0  0  0  0  0  0  0  0  0  0
  143.6134  134.3823  152.7676 H   0  0  0  0  0  0  0  0  0  0  0  0
  145.8939  137.0642  150.5166 H   0  0  0  0  0  0  0  0  0  0  0  0
  143.5700  133.0616  146.9065 H   0  0  0  0  0  0  0  0  0  0  0  0
  1  2  1  0  0  0  0
  1 10  1  0  0  0  0
  1 11  1  0  0  0  0
  1 18  1  0  0  0  0
  2  3  1  0  0  0  0
  2 12  1  0  0  0  0
  2 13  1  0  0  0  0
  3 14  1  0  0  0  0
  3 15  1  0  0  0  0
  3  4  1  0  0  0  0
  4  5  2  0  0  0  0
  4  8  1  0  0  0  0
  5 16  1  0  0  0  0
  5  6  1  0  0  0  0
  6  7  2  0  0  0  0
  7  8  1  0  0  0  0
  7 17  1  0  0  0  0
  8  9  1  0  0  0  0
M  CHG  1   1   1
M  END
> <s_m_source_file>
AV-unprocessed.smi

> <i_m_source_file_index>
948

> <i_lp_mmshare_version>
43012

> <i_f3d_flags>
0

> <s_epik_input>
W05IMl1bQ0gyXVtDSDJdYzFbY0hdW25IXVtjSF1uMQ==

> <s_epik_cmdline>
J2VwaWtfcHl0aG9uJywgJy1waCcsICc3LjAnLCAnLXRuJywgJzgnLCAnLW1hJywgJzIwMCcsICctbWV0YWxfYmluZGluZycsICctaW1hZScsICc8aW5maWxlLm1hZT4nLCAnLW9tYWUnLCAnPG91dGZpbGUubWFlPic=

> <r_lp_tautomer_probability>
0.5

> <r_epik_Ionization_Penalty>
0.0942268

> <r_epik_Ionization_Penalty_Charging>
0.0942262

> <r_epik_Ionization_Penalty_Neutral>
6.36763e-07

> <r_epik_State_Penalty>
0.454975

> <r_epik_Charging_Adjusted_Penalty>
0.549201

> <i_epik_Tot_Q>
1

> <i_epik_Tot_abs_Q>
1

> <r_epik_Metal_State_Penalty>
0.380897

> <b_epik_Metal_Only>
0

> <s_lp_Force_Field>
OPLS_2005

> <r_lp_Energy>
4.92874

> <b_lp_Chiralities_Consistent>
1

> <s_lp_Variant>
AV-unprocessed.smi:948-1

> <Gold.Version>
5.8.1

> <Gold.Id.Protein>
6NUR|6NUR_protein|mol2

> <Gold.PLP.Fitness>
39.0487

> <Gold.PLP.PLP>
-18.1226

> <Gold.PLP.part.hbond>
-4.0000

> <Gold.PLP.part.metal>
0.0000

> <Gold.PLP.part.buried>
-2.6619

> <Gold.PLP.part.nonpolar>
-13.1362

> <Gold.PLP.part.repulsive>
1.0715

> <Gold.PLP.ligand.clash>
0.0000

> <Gold.PLP.ligand.torsion>
0.0364

> <Gold.PLP.Chemscore.Hbond>
5.0000

> <Gold.PLP.Chemscore.CHOScore>
1.9996

> <Gold.PLP.Chemscore.Metal>
0.0000

> <Gold.Chemscore.Hbonds>
donor molecule, donor type, donor heavy atom, donor atom, acceptor molecule, acceptor atom, score
      L1  H     1    10       P1  7921  0.67
      L1  H     1    11       P1 10186  0.49
      L1  H     1    18       P1 10195  0.26
      L1  H     8     9       P1  7921  1.00
      L1  C     7    17       P1 10171  0.30

> <Gold.PLP.Chemscore.Internal.Correction>
0.0002

> <Gold.Rescore>
     Score         DG    S(hbond)    S(metal)    S(lipo)     H(rot)  DE(clash)    DE(int)     intcor
     18.59     -18.79       3.81        0.00      38.21       1.51       0.08       0.12       ----

> <Gold.Chemscore.Fitness>
18.5885

> <Gold.Chemscore.DG>
-18.7890

> <Gold.Chemscore.ZeroCoef>
-5.4800

> <Gold.Chemscore.Hbond>
3.8058

> <Gold.Chemscore.Metal>
0.0000

> <Gold.Chemscore.Lipo>
38.2057

> <Gold.Chemscore.Internal_Hbond>
0.0000

> <Gold.Chemscore.DEClash>
0.0811

> <Gold.Chemscore.DEInternal>
0.1194

> <Gold.Chemscore.Rot>
1.5127

> <Gold.Chemscore.Internal.Correction>
   9.000000E+99

> <Gold.Chemscore.Hbonds>
donor molecule, donor type, donor heavy atom, donor atom, acceptor molecule, acceptor atom, score
      L1  H     1    10       P1  7921  0.66
      L1  H     1    11       P1 10186  0.25
      L1  H     1    18       P1 10195  0.27
      L1  H     8     9       P1  7921  0.96

> <Gold.Chemscore.Hbond.Weighted>
-12.7115

> <Gold.Chemscore.Metal.Weighted>
-0.0000

> <Gold.Chemscore.Lipo.Weighted>
-4.4701

> <Gold.Chemscore.Internal_Hbond.Weighted>
0.0000

> <Gold.Chemscore.DEClash.Weighted>
0.0811

> <Gold.Chemscore.DEInternal.Weighted>
0.1194

> <Gold.Chemscore.Rot.Weighted>
3.8726

> <Gold.Chemscore.Internal.Correction.Weighted>
   9.000000E+99

> <Gold.Protein.RotatedTorsions>
[ 6907 6896 6895 6894 ] final  114.30 input  -60.11 | X-H torsion
[ 7974 7965 7964 7962 ] final -148.80 input  175.53 | X-H torsion
[ 8008 7997 7996 7995 ] final  108.12 input   59.86 | X-H torsion
[ 10167 10162 10161 10158 ] final   48.02 input  -65.29 | X-H torsion
[ 10718 10713 10712 10709 ] final  -96.79 input   66.30 | X-H torsion
[ 10763 10752 10751 10750 ] final   83.91 input  -60.55 | X-H torsion
[ 11005 11000 10999 10996 ] final  172.01 input  -57.11 | X-H torsion

> <Gold.Protein.ActiveResidues>
 VAL166  LYS551  ARG553  GLY616  TRP617  ASP618  TYR619  PRO620  LYS621  CYS622 
 ASP623  PHE694  ASN695  SER759  ASP760  ASP761  ALA762  ILE779  LEU786  VAL792 
 PHE793  MET794  SER795  GLU796  ALA797  LYS798  CYS799  TRP800  GLU811  SER814 

> <Gold.Protein.RotatedAtoms>
  152.4810  133.8255  159.7075 H   0  0  0  0  0  0  0  0  0  0  0  0  # atno 6907 bound_to 6896
  150.8860  133.7297  159.2925 H   0  0  0  0  0  0  0  0  0  0  0  0  # atno 6908 bound_to 6896
  151.4786  135.1054  159.9823 H   0  0  0  0  0  0  0  0  0  0  0  0  # atno 6909 bound_to 6896
  144.8007  140.5149  143.5709 H   0  0  0  0  0  0  0  0  0  0  0  0  # atno 7974 bound_to 7965
  156.1878  140.3082  155.9273 H   0  0  0  0  0  0  0  0  0  0  0  0  # atno 8008 bound_to 7997
  155.3241  140.0457  157.3057 H   0  0  0  0  0  0  0  0  0  0  0  0  # atno 8009 bound_to 7997
  154.5417  140.2263  155.8640 H   0  0  0  0  0  0  0  0  0  0  0  0  # atno 8010 bound_to 7997
  140.2976  144.2972  150.6226 H   0  0  0  0  0  0  0  0  0  0  0  0  # atno 10167 bound_to 10162
  156.0069  130.5166  150.6278 H   0  0  0  0  0  0  0  0  0  0  0  0  # atno 10718 bound_to 10713
  153.1334  135.4674  154.9384 H   0  0  0  0  0  0  0  0  0  0  0  0  # atno 10763 bound_to 10752
  154.7684  135.3151  154.8242 H   0  0  0  0  0  0  0  0  0  0  0  0  # atno 10764 bound_to 10752
  153.8780  135.6897  153.4823 H   0  0  0  0  0  0  0  0  0  0  0  0  # atno 10765 bound_to 10752
  140.3251  134.7405  157.4093 H   0  0  0  0  0  0  0  0  0  0  0  0  # atno 11005 bound_to 11000
  145.5561  139.1478  143.3367 LP  0  0  0  0  0  0  0  0  0  0  0  0  # atno 17320 bound_to 7965
  146.2287  140.5698  142.8985 LP  0  0  0  0  0  0  0  0  0  0  0  0  # atno 17321 bound_to 7965
  140.5679  143.2184  151.7652 LP  0  0  0  0  0  0  0  0  0  0  0  0  # atno 17342 bound_to 10162
  139.4922  144.4258  151.9927 LP  0  0  0  0  0  0  0  0  0  0  0  0  # atno 17343 bound_to 10162
  157.4082  131.0820  151.1246 LP  0  0  0  0  0  0  0  0  0  0  0  0  # atno 17370 bound_to 10713
  157.1886  130.6341  149.5696 LP  0  0  0  0  0  0  0  0  0  0  0  0  # atno 17371 bound_to 10713
  140.0908  134.5603  155.8446 LP  0  0  0  0  0  0  0  0  0  0  0  0  # atno 17394 bound_to 11000
  141.2077  133.6667  156.6324 LP  0  0  0  0  0  0  0  0  0  0  0  0  # atno 17395 bound_to 11000

$$$$
