AV-unprocessed.smi:608|AV-procd|sdf|3044|dock2
  -GOLD-   2262023563D 1   1.00000     0.00000
 Structure written by MMmdl.
 40 41  0  0  0  0  0  0  0  0  1 V2000
  151.4106  145.3055  158.9508 C   0  0  0  0  0  0  0  0  0  0  0  0
  151.6529  145.0248  160.4380 C   0  0  0  0  0  0  0  0  0  0  0  0
  152.3940  143.7515  160.6826 C   0  0  0  0  0  0  0  0  0  0  0  0
  152.7460  143.2068  161.8930 C   0  0  0  0  0  0  0  0  0  0  0  0
  153.4457  142.0024  161.7889 N   0  0  0  0  0  0  0  0  0  0  0  0
  153.6405  141.6341  160.5205 C   0  0  0  0  0  0  0  0  0  0  0  0
  154.3440  140.3791  160.1248 C   0  0  0  0  0  0  0  0  0  0  0  0
  153.3858  139.1941  159.9472 C   0  0  0  0  0  0  0  0  0  0  0  0
  152.2013  139.6068  159.2075 N   0  0  0  0  0  0  0  0  0  0  0  0
  151.7402  139.0033  158.0997 C   0  0  0  0  0  0  0  0  0  0  0  0
  152.3001  138.0207  157.6113 O   0  0  0  0  0  0  0  0  0  0  0  0
  150.6169  139.5587  157.5745 N   0  0  0  0  0  0  0  0  0  0  0  0
  150.0098  140.8293  157.9947 C   0  0  0  0  0  0  0  0  0  0  0  0
  150.6028  141.9731  157.1525 C   0  0  0  0  0  0  0  0  0  0  0  0
  149.9276  142.0979  155.8647 N   0  0  0  0  0  0  0  0  0  0  0  0
  149.8061  141.1489  154.9182 C   0  0  0  0  0  0  0  0  0  0  0  0
  149.1803  141.3686  153.8836 O   0  0  0  0  0  0  0  0  0  0  0  0
  150.4754  139.7760  155.1116 C   0  0  0  0  0  0  0  0  0  0  0  0
  149.9878  139.0159  156.3640 C   0  0  0  0  0  0  0  0  0  0  0  0
  152.9313  142.7490  159.3588 S   0  0  0  0  0  0  0  0  0  0  0  0
  150.8785  146.2470  158.8140 H   0  0  0  0  0  0  0  0  0  0  0  0
  150.8128  144.5171  158.4926 H   0  0  0  0  0  0  0  0  0  0  0  0
  152.3522  145.3724  158.4049 H   0  0  0  0  0  0  0  0  0  0  0  0
  152.2052  145.8577  160.8746 H   0  0  0  0  0  0  0  0  0  0  0  0
  150.6961  144.9919  160.9596 H   0  0  0  0  0  0  0  0  0  0  0  0
  152.5414  143.6090  162.8744 H   0  0  0  0  0  0  0  0  0  0  0  0
  154.8855  140.5662  159.1968 H   0  0  0  0  0  0  0  0  0  0  0  0
  155.0940  140.1450  160.8818 H   0  0  0  0  0  0  0  0  0  0  0  0
  153.8856  138.3845  159.4126 H   0  0  0  0  0  0  0  0  0  0  0  0
  153.0858  138.8036  160.9210 H   0  0  0  0  0  0  0  0  0  0  0  0
  151.6953  140.4062  159.5594 H   0  0  0  0  0  0  0  0  0  0  0  0
  148.9235  140.7983  157.8934 H   0  0  0  0  0  0  0  0  0  0  0  0
  150.1757  141.0256  159.0543 H   0  0  0  0  0  0  0  0  0  0  0  0
  150.4583  142.9165  157.6793 H   0  0  0  0  0  0  0  0  0  0  0  0
  151.6792  141.8614  157.0111 H   0  0  0  0  0  0  0  0  0  0  0  0
  149.4847  142.9864  155.6796 H   0  0  0  0  0  0  0  0  0  0  0  0
  150.2570  139.1707  154.2309 H   0  0  0  0  0  0  0  0  0  0  0  0
  151.5592  139.8981  155.1282 H   0  0  0  0  0  0  0  0  0  0  0  0
  150.2024  137.9523  156.2497 H   0  0  0  0  0  0  0  0  0  0  0  0
  148.9009  139.0703  156.4441 H   0  0  0  0  0  0  0  0  0  0  0  0
  1  2  1  0  0  0  0
  1 21  1  0  0  0  0
  1 22  1  0  0  0  0
  1 23  1  0  0  0  0
  2  3  1  0  0  0  0
  2 24  1  0  0  0  0
  2 25  1  0  0  0  0
  3 20  1  0  0  0  0
  3  4  2  0  0  0  0
  4  5  1  0  0  0  0
  4 26  1  0  0  0  0
  5  6  2  0  0  0  0
  6  7  1  0  0  0  0
  6 20  1  0  0  0  0
  7  8  1  0  0  0  0
  7 27  1  0  0  0  0
  7 28  1  0  0  0  0
  8  9  1  0  0  0  0
  8 29  1  0  0  0  0
  8 30  1  0  0  0  0
  9 10  1  0  0  0  0
  9 31  1  0  0  0  0
 10 11  2  0  0  0  0
 10 12  1  0  0  0  0
 12 19  1  0  0  0  0
 12 13  1  0  0  0  0
 13 14  1  0  0  0  0
 13 32  1  0  0  0  0
 13 33  1  0  0  0  0
 14 15  1  0  0  0  0
 14 34  1  0  0  0  0
 14 35  1  0  0  0  0
 15 16  1  0  0  0  0
 15 36  1  0  0  0  0
 16 17  2  0  0  0  0
 16 18  1  0  0  0  0
 18 19  1  0  0  0  0
 18 37  1  0  0  0  0
 18 38  1  0  0  0  0
 19 39  1  0  0  0  0
 19 40  1  0  0  0  0
M  END
> <s_m_source_file>
AV-unprocessed.smi

> <i_m_source_file_index>
608

> <i_lp_mmshare_version>
43012

> <i_f3d_flags>
0

> <s_epik_input>
W0NIM11bQ0gyXWMxW2NIXW5jKHMxKVtDSDJdW0NIMl1bTkhdQyg9TylOMltDSDJdW0NIMl1bTkhdQyg9TylbQ0gyXVtDSDJdMg==

> <s_epik_cmdline>
J2VwaWtfcHl0aG9uJywgJy1waCcsICc3LjAnLCAnLXRuJywgJzgnLCAnLW1hJywgJzIwMCcsICctbWV0YWxfYmluZGluZycsICctaW1hZScsICc8aW5maWxlLm1hZT4nLCAnLW9tYWUnLCAnPG91dGZpbGUubWFlPic=

> <r_epik_Ionization_Penalty>
0.000937608

> <r_epik_Ionization_Penalty_Charging>
0

> <r_epik_Ionization_Penalty_Neutral>
0.000937608

> <r_epik_State_Penalty>
0.000579253

> <r_epik_Charging_Adjusted_Penalty>
0.000579253

> <i_epik_Tot_Q>
0

> <i_epik_Tot_abs_Q>
0

> <r_epik_Metal_State_Penalty>
-0

> <b_epik_Metal_Only>
0

> <s_lp_Force_Field>
OPLS_2005

> <r_lp_Energy>
19.2261

> <b_lp_Chiralities_Consistent>
1

> <s_lp_Variant>
AV-unprocessed.smi:608-1

> <Gold.Version>
5.8.1

> <Gold.Id.Protein>
6NUR|6NUR_protein|mol2

> <Gold.PLP.Fitness>
47.9763

> <Gold.PLP.PLP>
-43.4568

> <Gold.PLP.part.hbond>
-2.9410

> <Gold.PLP.part.metal>
0.0000

> <Gold.PLP.part.buried>
-5.4786

> <Gold.PLP.part.nonpolar>
-34.8333

> <Gold.PLP.part.repulsive>
1.0591

> <Gold.PLP.ligand.clash>
0.0000

> <Gold.PLP.ligand.torsion>
0.4694

> <Gold.PLP.Chemscore.Hbond>
1.8000

> <Gold.PLP.Chemscore.CHOScore>
0.0000

> <Gold.PLP.Chemscore.Metal>
0.0000

> <Gold.Chemscore.Hbonds>
donor molecule, donor type, donor heavy atom, donor atom, acceptor molecule, acceptor atom, score
      L1  H    15    36       P1  8028  1.00
      P1  H  8011  8017       L1    17  0.78

> <Gold.PLP.Chemscore.Internal.Correction>
0.0584

> <Gold.Rescore>
     Score         DG    S(hbond)    S(metal)    S(lipo)     H(rot)  DE(clash)    DE(int)     intcor
     19.26     -19.82       1.77        0.00     107.25       1.61       0.11       0.45       ----

> <Gold.Chemscore.Fitness>
19.2632

> <Gold.Chemscore.DG>
-19.8188

> <Gold.Chemscore.ZeroCoef>
-5.4800

> <Gold.Chemscore.Hbond>
1.7716

> <Gold.Chemscore.Metal>
0.0000

> <Gold.Chemscore.Lipo>
107.2512

> <Gold.Chemscore.Internal_Hbond>
0.0000

> <Gold.Chemscore.DEClash>
0.1101

> <Gold.Chemscore.DEInternal>
0.4455

> <Gold.Chemscore.Rot>
1.6120

> <Gold.Chemscore.Internal.Correction>
   9.000000E+99

> <Gold.Chemscore.Hbonds>
donor molecule, donor type, donor heavy atom, donor atom, acceptor molecule, acceptor atom, score
      L1  H    15    36       P1  8028  1.00
      P1  H  8011  8017       L1    17  0.76

> <Gold.Chemscore.Hbond.Weighted>
-5.9172

> <Gold.Chemscore.Metal.Weighted>
-0.0000

> <Gold.Chemscore.Lipo.Weighted>
-12.5484

> <Gold.Chemscore.Internal_Hbond.Weighted>
0.0000

> <Gold.Chemscore.DEClash.Weighted>
0.1101

> <Gold.Chemscore.DEInternal.Weighted>
0.4455

> <Gold.Chemscore.Rot.Weighted>
4.1267

> <Gold.Chemscore.Internal.Correction.Weighted>
   9.000000E+99

> <Gold.Protein.RotatedTorsions>
[ 6907 6896 6895 6894 ] final  -30.50 input  -60.11 | X-H torsion
[ 7974 7965 7964 7962 ] final  -20.22 input  175.53 | X-H torsion
[ 8008 7997 7996 7995 ] final   18.32 input   59.86 | X-H torsion
[ 10167 10162 10161 10158 ] final  135.45 input  -65.29 | X-H torsion
[ 10718 10713 10712 10709 ] final  147.49 input   66.30 | X-H torsion
[ 10763 10752 10751 10750 ] final  166.58 input  -60.55 | X-H torsion
[ 11005 11000 10999 10996 ] final   42.28 input  -57.11 | X-H torsion

> <Gold.Protein.ActiveResidues>
 VAL166  LYS551  ARG553  GLY616  TRP617  ASP618  TYR619  PRO620  LYS621  CYS622 
 ASP623  PHE694  ASN695  SER759  ASP760  ASP761  ALA762  ILE779  LEU786  VAL792 
 PHE793  MET794  SER795  GLU796  ALA797  LYS798  CYS799  TRP800  GLU811  SER814 

> <Gold.Protein.RotatedAtoms>
  151.1047  134.9992  159.8465 H   0  0  0  0  0  0  0  0  0  0  0  0  # atno 6907 bound_to 6896
  152.5439  134.1908  159.8683 H   0  0  0  0  0  0  0  0  0  0  0  0  # atno 6908 bound_to 6896
  151.1954  133.4598  159.2628 H   0  0  0  0  0  0  0  0  0  0  0  0  # atno 6909 bound_to 6896
  146.1800  140.4171  142.8498 H   0  0  0  0  0  0  0  0  0  0  0  0  # atno 7974 bound_to 7965
  154.9043  140.3005  155.5300 H   0  0  0  0  0  0  0  0  0  0  0  0  # atno 8008 bound_to 7997
  156.3017  140.2401  156.4010 H   0  0  0  0  0  0  0  0  0  0  0  0  # atno 8009 bound_to 7997
  154.8489  140.0410  157.1580 H   0  0  0  0  0  0  0  0  0  0  0  0  # atno 8010 bound_to 7997
  139.5216  144.6516  151.5285 H   0  0  0  0  0  0  0  0  0  0  0  0  # atno 10167 bound_to 10162
  157.3203  131.0903  151.1246 H   0  0  0  0  0  0  0  0  0  0  0  0  # atno 10718 bound_to 10713
  154.3411  135.2754  155.2422 H   0  0  0  0  0  0  0  0  0  0  0  0  # atno 10763 bound_to 10752
  154.4692  135.5887  153.6313 H   0  0  0  0  0  0  0  0  0  0  0  0  # atno 10764 bound_to 10752
  152.9857  135.6084  154.3613 H   0  0  0  0  0  0  0  0  0  0  0  0  # atno 10765 bound_to 10752
  140.1754  134.4170  155.8231 H   0  0  0  0  0  0  0  0  0  0  0  0  # atno 11005 bound_to 11000
  144.8299  140.6690  143.6298 LP  0  0  0  0  0  0  0  0  0  0  0  0  # atno 17320 bound_to 7965
  145.4103  139.1581  143.4129 LP  0  0  0  0  0  0  0  0  0  0  0  0  # atno 17321 bound_to 7965
  140.6323  143.9052  150.6616 LP  0  0  0  0  0  0  0  0  0  0  0  0  # atno 17342 bound_to 10162
  140.2360  143.3700  152.1526 LP  0  0  0  0  0  0  0  0  0  0  0  0  # atno 17343 bound_to 10162
  157.2533  130.6624  149.5941 LP  0  0  0  0  0  0  0  0  0  0  0  0  # atno 17370 bound_to 10713
  155.9685  130.4531  150.5801 LP  0  0  0  0  0  0  0  0  0  0  0  0  # atno 17371 bound_to 10713
  141.2220  133.6975  156.7837 LP  0  0  0  0  0  0  0  0  0  0  0  0  # atno 17394 bound_to 11000
  140.2328  134.8672  157.3495 LP  0  0  0  0  0  0  0  0  0  0  0  0  # atno 17395 bound_to 11000

$$$$
