AV-unprocessed.smi:1145|AV-procd|sdf|4885|dock1
  -GOLD-   22720 3453D 1   1.00000     0.00000
 Structure written by MMmdl.
 36 37  0  0  0  0  0  0  0  0  1 V2000
  143.4228  137.1967  153.0206 C   0  0  0  0  0  0  0  0  0  0  0  0
  144.9571  137.2712  153.1291 C   0  0  1  0  0  0  0  0  0  0  0  0
  145.6764  136.8499  151.8319 C   0  0  0  0  0  0  0  0  0  0  0  0
  145.3280  135.5088  151.3991 N   0  0  0  0  0  0  0  0  0  0  0  0
  146.1464  134.4049  151.2804 C   0  0  0  0  0  0  0  0  0  0  0  0
  145.3700  133.3688  150.8465 C   0  0  0  0  0  0  0  0  0  0  0  0
  144.0733  133.9433  150.7310 C   0  0  0  0  0  0  0  0  0  0  0  0
  144.0510  135.2235  151.0649 N   0  0  0  0  0  0  0  0  0  0  0  0
  145.3720  138.6259  153.4832 N   0  0  0  0  0  0  0  0  0  0  0  0
  146.1396  138.9582  154.5332 C   0  0  0  0  0  0  0  0  0  0  0  0
  146.5812  138.1299  155.3301 O   0  0  0  0  0  0  0  0  0  0  0  0
  146.4643  140.4561  154.6918 C   0  0  1  0  0  0  0  0  0  0  0  0
  147.2167  140.7561  156.0014 C   0  0  0  0  0  0  0  0  0  0  0  0
  148.6665  140.2359  156.0015 C   0  0  0  0  0  0  0  0  0  0  0  0
  149.4144  140.4851  154.6830 C   0  0  0  0  0  0  0  0  0  0  0  0
  150.6387  140.3840  154.6558 O   0  0  0  0  0  0  0  0  0  0  0  0
  148.7087  140.7669  153.5737 N   0  0  0  0  0  0  0  0  0  0  0  0
  147.2691  141.0242  153.5012 C   0  0  0  0  0  0  0  0  0  0  0  0
  143.0857  136.1797  152.8198 H   0  0  0  0  0  0  0  0  0  0  0  0
  143.0515  137.8353  152.2186 H   0  0  0  0  0  0  0  0  0  0  0  0
  142.9452  137.5156  153.9475 H   0  0  0  0  0  0  0  0  0  0  0  0
  145.2757  136.5916  153.9219 H   0  0  0  0  0  0  0  0  0  0  0  0
  145.4365  137.5438  151.0249 H   0  0  0  0  0  0  0  0  0  0  0  0
  146.7581  136.8935  151.9679 H   0  0  0  0  0  0  0  0  0  0  0  0
  147.2007  134.4487  151.5101 H   0  0  0  0  0  0  0  0  0  0  0  0
  145.6801  132.3545  150.6436 H   0  0  0  0  0  0  0  0  0  0  0  0
  143.1535  133.4710  150.4189 H   0  0  0  0  0  0  0  0  0  0  0  0
  145.0540  139.3694  152.8788 H   0  0  0  0  0  0  0  0  0  0  0  0
  145.5109  140.9866  154.7220 H   0  0  0  0  0  0  0  0  0  0  0  0
  147.2273  141.8348  156.1639 H   0  0  0  0  0  0  0  0  0  0  0  0
  146.6772  140.3348  156.8506 H   0  0  0  0  0  0  0  0  0  0  0  0
  149.2220  140.6892  156.8231 H   0  0  0  0  0  0  0  0  0  0  0  0
  148.6717  139.1611  156.1854 H   0  0  0  0  0  0  0  0  0  0  0  0
  149.2266  140.8786  152.7142 H   0  0  0  0  0  0  0  0  0  0  0  0
  146.8907  140.6320  152.5563 H   0  0  0  0  0  0  0  0  0  0  0  0
  147.1312  142.1050  153.4561 H   0  0  0  0  0  0  0  0  0  0  0  0
  1  2  1  0  0  0  0
  1 19  1  0  0  0  0
  1 20  1  0  0  0  0
  1 21  1  0  0  0  0
  2  3  1  0  0  0  0
  2  9  1  0  0  0  0
  2 22  1  0  0  0  0
  3  4  1  0  0  0  0
  3 23  1  0  0  0  0
  3 24  1  0  0  0  0
  4  8  1  0  0  0  0
  4  5  1  0  0  0  0
  5  6  2  0  0  0  0
  5 25  1  0  0  0  0
  6  7  1  0  0  0  0
  6 26  1  0  0  0  0
  7  8  2  0  0  0  0
  7 27  1  0  0  0  0
  9 10  1  0  0  0  0
  9 28  1  0  0  0  0
 10 11  2  0  0  0  0
 10 12  1  0  0  0  0
 12 18  1  0  0  0  0
 12 13  1  0  0  0  0
 12 29  1  0  0  0  0
 13 14  1  0  0  0  0
 13 30  1  0  0  0  0
 13 31  1  0  0  0  0
 14 15  1  0  0  0  0
 14 32  1  0  0  0  0
 14 33  1  0  0  0  0
 15 16  2  0  0  0  0
 15 17  1  0  0  0  0
 17 18  1  0  0  0  0
 17 34  1  0  0  0  0
 18 35  1  0  0  0  0
 18 36  1  0  0  0  0
M  END
> <s_m_source_file>
AV-unprocessed.smi

> <i_m_source_file_index>
1145

> <i_lp_mmshare_version>
43012

> <i_f3d_flags>
0

> <s_epik_input>
bjFbY0hdW2NIXVtjSF1uMVtDSDJdW0NAQEhdKFtDSDNdKVtOSF1DKD1PKVtDQEBIXTJbQ0gyXVtDSDJdQyg9TylbTkhdW0NIMl0y

> <s_epik_cmdline>
J2VwaWtfcHl0aG9uJywgJy1waCcsICc3LjAnLCAnLXRuJywgJzgnLCAnLW1hJywgJzIwMCcsICctbWV0YWxfYmluZGluZycsICctaW1hZScsICc8aW5maWxlLm1hZT4nLCAnLW9tYWUnLCAnPG91dGZpbGUubWFlPic=

> <r_lp_tautomer_probability>
1

> <r_epik_Ionization_Penalty>
0.000314064

> <r_epik_Ionization_Penalty_Charging>
0

> <r_epik_Ionization_Penalty_Neutral>
0.000314064

> <r_epik_State_Penalty>
-0

> <r_epik_Charging_Adjusted_Penalty>
0

> <i_epik_Tot_Q>
0

> <i_epik_Tot_abs_Q>
0

> <r_epik_Metal_State_Penalty>
-0

> <b_epik_Metal_Only>
0

> <s_lp_Force_Field>
OPLS_2005

> <r_lp_Energy>
8.22521

> <b_lp_Chiralities_Consistent>
1

> <s_lp_Variant>
AV-unprocessed.smi:1145-4

> <Gold.Version>
5.8.1

> <Gold.Id.Protein>
6NUR|6NUR_protein|mol2

> <Gold.PLP.Fitness>
40.6765

> <Gold.PLP.PLP>
-26.4870

> <Gold.PLP.part.hbond>
-3.0000

> <Gold.PLP.part.metal>
0.0000

> <Gold.PLP.part.buried>
-5.6079

> <Gold.PLP.part.nonpolar>
-19.4478

> <Gold.PLP.part.repulsive>
0.5165

> <Gold.PLP.ligand.clash>
0.0000

> <Gold.PLP.ligand.torsion>
0.1157

> <Gold.PLP.Chemscore.Hbond>
2.7920

> <Gold.PLP.Chemscore.CHOScore>
2.0000

> <Gold.PLP.Chemscore.Metal>
0.0000

> <Gold.Chemscore.Hbonds>
donor molecule, donor type, donor heavy atom, donor atom, acceptor molecule, acceptor atom, score
      L1  H     9    28       P1 10175  0.91
      L1  H    17    34       P1  7957  0.86
      P1  H  7989  7998       L1    16  1.00
      L1  C     5    25       P1  7948  1.00
      L1  C     7    27       P1 10186  1.00

> <Gold.PLP.Chemscore.Internal.Correction>
0.0450

> <Gold.Rescore>
     Score         DG    S(hbond)    S(metal)    S(lipo)     H(rot)  DE(clash)    DE(int)     intcor
     13.90     -16.13       2.89        0.00      47.97       1.80       0.02       2.22       ----

> <Gold.Chemscore.Fitness>
13.8977

> <Gold.Chemscore.DG>
-16.1308

> <Gold.Chemscore.ZeroCoef>
-5.4800

> <Gold.Chemscore.Hbond>
2.8866

> <Gold.Chemscore.Metal>
0.0000

> <Gold.Chemscore.Lipo>
47.9742

> <Gold.Chemscore.Internal_Hbond>
0.0000

> <Gold.Chemscore.DEClash>
0.0166

> <Gold.Chemscore.DEInternal>
2.2165

> <Gold.Chemscore.Rot>
1.7982

> <Gold.Chemscore.Internal.Correction>
   9.000000E+99

> <Gold.Chemscore.Hbonds>
donor molecule, donor type, donor heavy atom, donor atom, acceptor molecule, acceptor atom, score
      L1  H     9    28       P1 10175  0.90
      L1  H    17    34       P1  7957  0.85
      P1  H  7989  7998       L1    16  0.97

> <Gold.Chemscore.Hbond.Weighted>
-9.6413

> <Gold.Chemscore.Metal.Weighted>
-0.0000

> <Gold.Chemscore.Lipo.Weighted>
-5.6130

> <Gold.Chemscore.Internal_Hbond.Weighted>
0.0000

> <Gold.Chemscore.DEClash.Weighted>
0.0166

> <Gold.Chemscore.DEInternal.Weighted>
2.2165

> <Gold.Chemscore.Rot.Weighted>
4.6035

> <Gold.Chemscore.Internal.Correction.Weighted>
   9.000000E+99

> <Gold.Protein.RotatedTorsions>
[ 6907 6896 6895 6894 ] final  109.43 input  -60.11 | X-H torsion
[ 7974 7965 7964 7962 ] final -119.63 input  175.53 | X-H torsion
[ 8008 7997 7996 7995 ] final  111.22 input   59.86 | X-H torsion
[ 10167 10162 10161 10158 ] final  161.64 input  -65.29 | X-H torsion
[ 10718 10713 10712 10709 ] final   47.32 input   66.30 | X-H torsion
[ 10763 10752 10751 10750 ] final  135.89 input  -60.55 | X-H torsion
[ 11005 11000 10999 10996 ] final  -15.33 input  -57.11 | X-H torsion

> <Gold.Protein.ActiveResidues>
 VAL166  LYS551  ARG553  GLY616  TRP617  ASP618  TYR619  PRO620  LYS621  CYS622 
 ASP623  PHE694  ASN695  SER759  ASP760  ASP761  ALA762  ILE779  LEU786  VAL792 
 PHE793  MET794  SER795  GLU796  ALA797  LYS798  CYS799  TRP800  GLU811  SER814 

> <Gold.Protein.RotatedAtoms>
  152.5067  133.8945  159.7410 H   0  0  0  0  0  0  0  0  0  0  0  0  # atno 6907 bound_to 6896
  150.9376  133.6685  159.2804 H   0  0  0  0  0  0  0  0  0  0  0  0  # atno 6908 bound_to 6896
  151.4008  135.0975  159.9608 H   0  0  0  0  0  0  0  0  0  0  0  0  # atno 6909 bound_to 6896
  145.0603  140.8285  143.4156 H   0  0  0  0  0  0  0  0  0  0  0  0  # atno 7974 bound_to 7965
  156.2109  140.3023  155.9730 H   0  0  0  0  0  0  0  0  0  0  0  0  # atno 8008 bound_to 7997
  155.2727  140.0434  157.3025 H   0  0  0  0  0  0  0  0  0  0  0  0  # atno 8009 bound_to 7997
  154.5698  140.2345  155.8217 H   0  0  0  0  0  0  0  0  0  0  0  0  # atno 8010 bound_to 7997
  139.4851  144.4516  151.8822 H   0  0  0  0  0  0  0  0  0  0  0  0  # atno 10167 bound_to 10162
  157.4573  130.8175  149.7849 H   0  0  0  0  0  0  0  0  0  0  0  0  # atno 10718 bound_to 10713
  153.8475  135.3083  155.3430 H   0  0  0  0  0  0  0  0  0  0  0  0  # atno 10763 bound_to 10752
  154.7906  135.4785  154.0047 H   0  0  0  0  0  0  0  0  0  0  0  0  # atno 10764 bound_to 10752
  153.1538  135.6848  153.8935 H   0  0  0  0  0  0  0  0  0  0  0  0  # atno 10765 bound_to 10752
  140.7955  133.8255  155.9420 H   0  0  0  0  0  0  0  0  0  0  0  0  # atno 11005 bound_to 11000
  145.1416  139.2568  143.5487 LP  0  0  0  0  0  0  0  0  0  0  0  0  # atno 17320 bound_to 7965
  146.3524  140.1095  142.8604 LP  0  0  0  0  0  0  0  0  0  0  0  0  # atno 17321 bound_to 7965
  140.3974  144.2538  150.5895 LP  0  0  0  0  0  0  0  0  0  0  0  0  # atno 17342 bound_to 10162
  140.5090  143.2296  151.8565 LP  0  0  0  0  0  0  0  0  0  0  0  0  # atno 17343 bound_to 10162
  156.0013  130.3879  150.2596 LP  0  0  0  0  0  0  0  0  0  0  0  0  # atno 17370 bound_to 10713
  157.0772  131.0133  151.3169 LP  0  0  0  0  0  0  0  0  0  0  0  0  # atno 17371 bound_to 10713
  140.9347  134.1977  157.4839 LP  0  0  0  0  0  0  0  0  0  0  0  0  # atno 17394 bound_to 11000
  139.8727  134.9847  156.5252 LP  0  0  0  0  0  0  0  0  0  0  0  0  # atno 17395 bound_to 11000

$$$$
