AV-unprocessed.smi:1389|AV-procd|sdf|5646|dock7
  -GOLD-   22720 5263D 1   1.00000     0.00000
 Structure written by MMmdl.
 51 53  0  0  0  0  0  0  0  0  1 V2000
  148.0064  139.5840  154.6717 C   0  0  0  0  0  0  0  0  0  0  0  0
  149.1832  138.5980  154.4566 C   0  0  2  0  0  0  0  0  0  0  0  0
  148.8992  137.2836  155.2379 C   0  0  0  0  0  0  0  0  0  0  0  0
  148.5903  136.1547  154.3630 N   0  0  0  0  0  0  0  0  0  0  0  0
  148.4903  134.8741  154.7472 C   0  0  0  0  0  0  0  0  0  0  0  0
  148.6676  134.4910  155.9035 O   0  0  0  0  0  0  0  0  0  0  0  0
  148.1472  134.0863  153.7147 N   0  0  0  0  0  0  0  0  0  0  0  0
  147.8857  132.6864  153.7233 C   0  0  0  0  0  0  0  0  0  0  0  0
  148.4996  131.8050  154.6464 C   0  0  0  0  0  0  0  0  0  0  0  0
  148.2005  130.4323  154.5883 C   0  0  0  0  0  0  0  0  0  0  0  0
  147.3037  129.9861  153.6021 C   0  0  0  0  0  0  0  0  0  0  0  0
  146.7251  130.8095  152.7048 N   0  0  0  0  0  0  0  0  0  0  0  0
  147.0038  132.1351  152.7551 C   0  0  0  0  0  0  0  0  0  0  0  0
  146.4093  132.9664  151.7832 N   0  0  0  0  0  0  0  0  0  0  0  0
  145.7823  132.2300  150.6894 C   0  0  0  0  0  0  0  0  0  0  0  0
  144.5457  133.0331  150.2829 C   0  0  0  0  0  0  0  0  0  0  0  0
  144.1553  133.7350  151.5774 C   0  0  0  0  0  0  0  0  0  0  0  0
  145.5118  134.0384  152.2116 C   0  0  0  0  0  0  0  0  0  0  0  0
  150.4977  139.1975  154.7867 N   0  0  0  0  0  0  0  0  0  0  0  0
  150.5866  139.6468  156.1810 C   0  0  0  0  0  0  0  0  0  0  0  0
  151.9595  140.2481  156.5284 C   0  0  0  0  0  0  0  0  0  0  0  0
  152.9813  139.2994  156.2557 O   0  0  0  0  0  0  0  0  0  0  0  0
  152.9818  138.8942  154.8940 C   0  0  0  0  0  0  0  0  0  0  0  0
  151.6169  138.2821  154.5349 C   0  0  0  0  0  0  0  0  0  0  0  0
  147.0395  139.1334  154.4524 H   0  0  0  0  0  0  0  0  0  0  0  0
  148.0638  140.4501  154.0144 H   0  0  0  0  0  0  0  0  0  0  0  0
  147.9750  139.9416  155.7015 H   0  0  0  0  0  0  0  0  0  0  0  0
  149.1893  138.3410  153.3963 H   0  0  0  0  0  0  0  0  0  0  0  0
  149.7753  136.9629  155.7984 H   0  0  0  0  0  0  0  0  0  0  0  0
  148.1093  137.4504  155.9722 H   0  0  0  0  0  0  0  0  0  0  0  0
  148.4223  136.3708  153.3914 H   0  0  0  0  0  0  0  0  0  0  0  0
  147.9426  134.5573  152.8456 H   0  0  0  0  0  0  0  0  0  0  0  0
  149.2024  132.1547  155.3870 H   0  0  0  0  0  0  0  0  0  0  0  0
  148.6519  129.7375  155.2809 H   0  0  0  0  0  0  0  0  0  0  0  0
  147.0504  128.9391  153.5255 H   0  0  0  0  0  0  0  0  0  0  0  0
  146.4691  132.1082  149.8515 H   0  0  0  0  0  0  0  0  0  0  0  0
  145.4865  131.2349  151.0265 H   0  0  0  0  0  0  0  0  0  0  0  0
  144.8155  133.7742  149.5294 H   0  0  0  0  0  0  0  0  0  0  0  0
  143.7492  132.4098  149.8759 H   0  0  0  0  0  0  0  0  0  0  0  0
  143.5518  134.6285  151.4163 H   0  0  0  0  0  0  0  0  0  0  0  0
  143.5915  133.0525  152.2150 H   0  0  0  0  0  0  0  0  0  0  0  0
  145.4347  134.1595  153.2922 H   0  0  0  0  0  0  0  0  0  0  0  0
  145.9045  134.9757  151.8163 H   0  0  0  0  0  0  0  0  0  0  0  0
  149.8457  140.4169  156.3865 H   0  0  0  0  0  0  0  0  0  0  0  0
  150.3755  138.8135  156.8527 H   0  0  0  0  0  0  0  0  0  0  0  0
  152.1373  141.1608  155.9574 H   0  0  0  0  0  0  0  0  0  0  0  0
  151.9983  140.5188  157.5836 H   0  0  0  0  0  0  0  0  0  0  0  0
  153.2037  139.7475  154.2511 H   0  0  0  0  0  0  0  0  0  0  0  0
  153.7765  138.1641  154.7408 H   0  0  0  0  0  0  0  0  0  0  0  0
  151.4743  137.3590  155.0988 H   0  0  0  0  0  0  0  0  0  0  0  0
  151.6607  138.0073  153.4827 H   0  0  0  0  0  0  0  0  0  0  0  0
  1  2  1  0  0  0  0
  1 25  1  0  0  0  0
  1 26  1  0  0  0  0
  1 27  1  0  0  0  0
  2  3  1  0  0  0  0
  2 19  1  0  0  0  0
  2 28  1  0  0  0  0
  3  4  1  0  0  0  0
  3 29  1  0  0  0  0
  3 30  1  0  0  0  0
  4  5  1  0  0  0  0
  4 31  1  0  0  0  0
  5  6  2  0  0  0  0
  5  7  1  0  0  0  0
  7  8  1  0  0  0  0
  7 32  1  0  0  0  0
  8 13  1  0  0  0  0
  8  9  2  0  0  0  0
  9 10  1  0  0  0  0
  9 33  1  0  0  0  0
 10 11  2  0  0  0  0
 10 34  1  0  0  0  0
 11 12  1  0  0  0  0
 11 35  1  0  0  0  0
 12 13  2  0  0  0  0
 13 14  1  0  0  0  0
 14 18  1  0  0  0  0
 14 15  1  0  0  0  0
 15 16  1  0  0  0  0
 15 36  1  0  0  0  0
 15 37  1  0  0  0  0
 16 17  1  0  0  0  0
 16 38  1  0  0  0  0
 16 39  1  0  0  0  0
 17 18  1  0  0  0  0
 17 40  1  0  0  0  0
 17 41  1  0  0  0  0
 18 42  1  0  0  0  0
 18 43  1  0  0  0  0
 19 24  1  0  0  0  0
 19 20  1  0  0  0  0
 20 21  1  0  0  0  0
 20 44  1  0  0  0  0
 20 45  1  0  0  0  0
 21 22  1  0  0  0  0
 21 46  1  0  0  0  0
 21 47  1  0  0  0  0
 22 23  1  0  0  0  0
 23 24  1  0  0  0  0
 23 48  1  0  0  0  0
 23 49  1  0  0  0  0
 24 50  1  0  0  0  0
 24 51  1  0  0  0  0
M  END
> <s_m_source_file>
AV-unprocessed.smi

> <i_m_source_file_index>
1389

> <i_lp_mmshare_version>
43012

> <i_f3d_flags>
0

> <s_epik_input>
W0NIMl0xW0NIMl1PW0NIMl1bQ0gyXU4xW0NASF0oW0NIM10pW0NIMl1bTkhdQyg9TylbTkhdYzJbY0hdW2NIXVtjSF1uYzJOM1tDSDJdW0NIMl1bQ0gyXVtDSDJdMw==

> <s_epik_cmdline>
J2VwaWtfcHl0aG9uJywgJy1waCcsICc3LjAnLCAnLXRuJywgJzgnLCAnLW1hJywgJzIwMCcsICctbWV0YWxfYmluZGluZycsICctaW1hZScsICc8aW5maWxlLm1hZT4nLCAnLW9tYWUnLCAnPG91dGZpbGUubWFlPic=

> <r_lp_tautomer_probability>
1

> <r_epik_Ionization_Penalty>
0.365229

> <r_epik_Ionization_Penalty_Charging>
0

> <r_epik_Ionization_Penalty_Neutral>
0.365229

> <r_epik_State_Penalty>
0.350519

> <r_epik_Charging_Adjusted_Penalty>
0.350519

> <i_epik_Tot_Q>
0

> <i_epik_Tot_abs_Q>
0

> <r_epik_Metal_State_Penalty>
0.33386

> <b_epik_Metal_Only>
0

> <s_lp_Force_Field>
OPLS_2005

> <r_lp_Energy>
57.3938

> <b_lp_Chiralities_Consistent>
1

> <s_lp_Variant>
AV-unprocessed.smi:1389-1

> <Gold.Version>
5.8.1

> <Gold.Id.Protein>
6NUR|6NUR_protein|mol2

> <Gold.PLP.Fitness>
40.6718

> <Gold.PLP.PLP>
-35.3349

> <Gold.PLP.part.hbond>
-2.6026

> <Gold.PLP.part.metal>
0.0000

> <Gold.PLP.part.buried>
-4.8069

> <Gold.PLP.part.nonpolar>
-28.3183

> <Gold.PLP.part.repulsive>
0.6297

> <Gold.PLP.ligand.clash>
0.0000

> <Gold.PLP.ligand.torsion>
1.0843

> <Gold.PLP.Chemscore.Hbond>
2.4464

> <Gold.PLP.Chemscore.CHOScore>
0.0000

> <Gold.PLP.Chemscore.Metal>
0.0000

> <Gold.Chemscore.Hbonds>
donor molecule, donor type, donor heavy atom, donor atom, acceptor molecule, acceptor atom, score
      L1  H     4    31       P1  7948  0.91
      L1  H     7    32       P1  7948  0.44
      P1  H  7989  7998       L1    19  0.04
      P1  H  7997  8009       L1    22  1.00

> <Gold.PLP.Chemscore.Internal.Correction>
0.1664

> <Gold.Rescore>
     Score         DG    S(hbond)    S(metal)    S(lipo)     H(rot)  DE(clash)    DE(int)     intcor
     15.15     -17.56       1.76        0.00      87.36       1.57       0.01       2.40       ----

> <Gold.Chemscore.Fitness>
15.1493

> <Gold.Chemscore.DG>
-17.5566

> <Gold.Chemscore.ZeroCoef>
-5.4800

> <Gold.Chemscore.Hbond>
1.7601

> <Gold.Chemscore.Metal>
0.0000

> <Gold.Chemscore.Lipo>
87.3644

> <Gold.Chemscore.Internal_Hbond>
0.0000

> <Gold.Chemscore.DEClash>
0.0060

> <Gold.Chemscore.DEInternal>
2.4013

> <Gold.Chemscore.Rot>
1.5718

> <Gold.Chemscore.Internal.Correction>
   9.000000E+99

> <Gold.Chemscore.Hbonds>
donor molecule, donor type, donor heavy atom, donor atom, acceptor molecule, acceptor atom, score
      L1  H     4    31       P1  7948  0.89
      L1  H     7    32       P1  7948  0.32
      P1  H  7997  8009       L1    22  0.36

> <Gold.Chemscore.Hbond.Weighted>
-5.8789

> <Gold.Chemscore.Metal.Weighted>
-0.0000

> <Gold.Chemscore.Lipo.Weighted>
-10.2216

> <Gold.Chemscore.Internal_Hbond.Weighted>
0.0000

> <Gold.Chemscore.DEClash.Weighted>
0.0060

> <Gold.Chemscore.DEInternal.Weighted>
2.4013

> <Gold.Chemscore.Rot.Weighted>
4.0239

> <Gold.Chemscore.Internal.Correction.Weighted>
   9.000000E+99

> <Gold.Protein.RotatedTorsions>
[ 6907 6896 6895 6894 ] final  -55.84 input  -60.11 | X-H torsion
[ 7974 7965 7964 7962 ] final  -15.79 input  175.53 | X-H torsion
[ 8008 7997 7996 7995 ] final -179.69 input   59.86 | X-H torsion
[ 10167 10162 10161 10158 ] final -175.87 input  -65.29 | X-H torsion
[ 10718 10713 10712 10709 ] final   -6.92 input   66.30 | X-H torsion
[ 10763 10752 10751 10750 ] final   49.58 input  -60.55 | X-H torsion
[ 11005 11000 10999 10996 ] final -136.69 input  -57.11 | X-H torsion

> <Gold.Protein.ActiveResidues>
 VAL166  LYS551  ARG553  GLY616  TRP617  ASP618  TYR619  PRO620  LYS621  CYS622 
 ASP623  PHE694  ASN695  SER759  ASP760  ASP761  ALA762  ILE779  LEU786  VAL792 
 PHE793  MET794  SER795  GLU796  ALA797  LYS798  CYS799  TRP800  GLU811  SER814 

> <Gold.Protein.RotatedAtoms>
  150.8218  134.7429  159.6778 H   0  0  0  0  0  0  0  0  0  0  0  0  # atno 6907 bound_to 6896
  152.4332  134.5733  159.9937 H   0  0  0  0  0  0  0  0  0  0  0  0  # atno 6908 bound_to 6896
  151.5915  133.3328  159.3064 H   0  0  0  0  0  0  0  0  0  0  0  0  # atno 6909 bound_to 6896
  146.2017  140.3543  142.8421 H   0  0  0  0  0  0  0  0  0  0  0  0  # atno 7974 bound_to 7965
  156.0334  140.1287  157.0234 H   0  0  0  0  0  0  0  0  0  0  0  0  # atno 8008 bound_to 7997
  154.4359  140.1045  156.6203 H   0  0  0  0  0  0  0  0  0  0  0  0  # atno 8009 bound_to 7997
  155.5773  140.3467  155.4533 H   0  0  0  0  0  0  0  0  0  0  0  0  # atno 8010 bound_to 7997
  139.5559  144.1991  152.1157 H   0  0  0  0  0  0  0  0  0  0  0  0  # atno 10167 bound_to 10162
  156.7248  130.5162  149.5859 H   0  0  0  0  0  0  0  0  0  0  0  0  # atno 10718 bound_to 10713
  152.9786  135.5907  154.4113 H   0  0  0  0  0  0  0  0  0  0  0  0  # atno 10763 bound_to 10752
  154.3748  135.2767  155.2248 H   0  0  0  0  0  0  0  0  0  0  0  0  # atno 10764 bound_to 10752
  154.4187  135.6064  153.6051 H   0  0  0  0  0  0  0  0  0  0  0  0  # atno 10765 bound_to 10752
  140.8782  134.1965  157.4608 H   0  0  0  0  0  0  0  0  0  0  0  0  # atno 11005 bound_to 11000
  144.8697  140.7256  143.6054 LP  0  0  0  0  0  0  0  0  0  0  0  0  # atno 17320 bound_to 7965
  145.3462  139.1718  143.4459 LP  0  0  0  0  0  0  0  0  0  0  0  0  # atno 17321 bound_to 7965
  140.1495  144.5127  150.6695 LP  0  0  0  0  0  0  0  0  0  0  0  0  # atno 17342 bound_to 10162
  140.6831  143.2336  151.5332 LP  0  0  0  0  0  0  0  0  0  0  0  0  # atno 17343 bound_to 10162
  156.1569  130.6348  151.0669 LP  0  0  0  0  0  0  0  0  0  0  0  0  # atno 17370 bound_to 10713
  157.6883  131.0818  150.7180 LP  0  0  0  0  0  0  0  0  0  0  0  0  # atno 17371 bound_to 10713
  139.8717  134.9805  156.5079 LP  0  0  0  0  0  0  0  0  0  0  0  0  # atno 17394 bound_to 11000
  140.8493  133.8144  155.9153 LP  0  0  0  0  0  0  0  0  0  0  0  0  # atno 17395 bound_to 11000

$$$$
