AV-unprocessed.smi:2742|AV-procd|sdf|10565|dock2
  -GOLD-   2272015 13D 1   1.00000     0.00000
 Structure written by MMmdl.
 37 38  0  0  0  0  0  0  0  0  1 V2000
  151.2372  139.2898  155.0442 C   0  0  0  0  0  0  0  0  0  0  0  0
  149.8678  140.2994  154.4177 S   0  0  0  0  0  0  0  0  0  0  0  0
  148.5264  139.0746  154.3842 C   0  0  1  0  0  0  0  0  0  0  0  0
  148.0821  138.7308  155.8169 C   0  0  0  0  0  0  0  0  0  0  0  0
  146.9332  137.7105  155.8211 C   0  0  0  0  0  0  0  0  0  0  0  0
  145.7394  138.2144  154.9930 C   0  0  0  0  0  0  0  0  0  0  0  0
  146.1485  138.5835  153.5516 C   0  0  2  0  0  0  0  0  0  0  0  0
  146.4844  137.3924  152.7724 N   0  0  0  0  0  0  0  0  0  0  0  0
  145.6106  136.4697  152.3447 C   0  0  0  0  0  0  0  0  0  0  0  0
  144.4002  136.5344  152.5568 O   0  0  0  0  0  0  0  0  0  0  0  0
  146.2354  135.4955  151.6608 N   0  0  0  0  0  0  0  0  0  0  0  0
  145.6910  134.3359  151.0420 C   0  0  0  0  0  0  0  0  0  0  0  0
  144.4552  134.2993  150.3507 C   0  0  0  0  0  0  0  0  0  0  0  0
  144.0286  133.0768  149.7940 C   0  0  0  0  0  0  0  0  0  0  0  0
  144.7329  131.9293  149.8888 N   0  0  0  0  0  0  0  0  0  0  0  0
  145.9044  131.9647  150.5577 C   0  0  0  0  0  0  0  0  0  0  0  0
  146.4220  133.1336  151.1509 C   0  0  0  0  0  0  0  0  0  0  0  0
  147.6045  133.0980  151.8121 F   0  0  0  0  0  0  0  0  0  0  0  0
  147.3294  139.5748  153.5481 C   0  0  0  0  0  0  0  0  0  0  0  0
  152.1247  139.9086  155.1756 H   0  0  0  0  0  0  0  0  0  0  0  0
  151.4805  138.4881  154.3479 H   0  0  0  0  0  0  0  0  0  0  0  0
  150.9782  138.8505  156.0074 H   0  0  0  0  0  0  0  0  0  0  0  0
  148.9295  138.1693  153.9285 H   0  0  0  0  0  0  0  0  0  0  0  0
  148.9253  138.3345  156.3836 H   0  0  0  0  0  0  0  0  0  0  0  0
  147.7632  139.6382  156.3318 H   0  0  0  0  0  0  0  0  0  0  0  0
  147.2857  136.7593  155.4210 H   0  0  0  0  0  0  0  0  0  0  0  0
  146.6155  137.5141  156.8454 H   0  0  0  0  0  0  0  0  0  0  0  0
  144.9454  137.4668  154.9870 H   0  0  0  0  0  0  0  0  0  0  0  0
  145.3183  139.0952  155.4795 H   0  0  0  0  0  0  0  0  0  0  0  0
  145.3037  139.0770  153.0678 H   0  0  0  0  0  0  0  0  0  0  0  0
  147.4598  137.2600  152.5487 H   0  0  0  0  0  0  0  0  0  0  0  0
  147.2286  135.6192  151.5292 H   0  0  0  0  0  0  0  0  0  0  0  0
  143.8239  135.1669  150.2422 H   0  0  0  0  0  0  0  0  0  0  0  0
  143.0911  133.0187  149.2610 H   0  0  0  0  0  0  0  0  0  0  0  0
  146.4457  131.0326  150.6243 H   0  0  0  0  0  0  0  0  0  0  0  0
  146.9888  140.5297  153.9508 H   0  0  0  0  0  0  0  0  0  0  0  0
  147.6360  139.7738  152.5212 H   0  0  0  0  0  0  0  0  0  0  0  0
  1  2  1  0  0  0  0
  1 20  1  0  0  0  0
  1 21  1  0  0  0  0
  1 22  1  0  0  0  0
  2  3  1  0  0  0  0
  3 19  1  0  0  0  0
  3  4  1  0  0  0  0
  3 23  1  0  0  0  0
  4  5  1  0  0  0  0
  4 24  1  0  0  0  0
  4 25  1  0  0  0  0
  5  6  1  0  0  0  0
  5 26  1  0  0  0  0
  5 27  1  0  0  0  0
  6  7  1  0  0  0  0
  6 28  1  0  0  0  0
  6 29  1  0  0  0  0
  7  8  1  0  0  0  0
  7 19  1  0  0  0  0
  7 30  1  0  0  0  0
  8  9  1  0  0  0  0
  8 31  1  0  0  0  0
  9 10  2  0  0  0  0
  9 11  1  0  0  0  0
 11 12  1  0  0  0  0
 11 32  1  0  0  0  0
 12 17  1  0  0  0  0
 12 13  2  0  0  0  0
 13 14  1  0  0  0  0
 13 33  1  0  0  0  0
 14 15  2  0  0  0  0
 14 34  1  0  0  0  0
 15 16  1  0  0  0  0
 16 17  2  0  0  0  0
 16 35  1  0  0  0  0
 17 18  1  0  0  0  0
 19 36  1  0  0  0  0
 19 37  1  0  0  0  0
M  END
> <s_m_source_file>
AV-unprocessed.smi

> <i_m_source_file_index>
2742

> <i_lp_mmshare_version>
43012

> <i_f3d_flags>
0

> <s_epik_input>
W0NIM11TW0NAQEhdMVtDSDJdW0NIMl1bQ0gyXVtDQEhdKFtDSDJdMSlbTkhdQyg9TylbTkhdYzJbY0hdW2NIXW5bY0hdYzJG

> <s_epik_cmdline>
J2VwaWtfcHl0aG9uJywgJy1waCcsICc3LjAnLCAnLXRuJywgJzgnLCAnLW1hJywgJzIwMCcsICctbWV0YWxfYmluZGluZycsICctaW1hZScsICc8aW5maWxlLm1hZT4nLCAnLW9tYWUnLCAnPG91dGZpbGUubWFlPic=

> <r_epik_Ionization_Penalty>
0.00344009

> <r_epik_Ionization_Penalty_Charging>
0

> <r_epik_Ionization_Penalty_Neutral>
0.00344009

> <r_epik_State_Penalty>
0.0024078

> <r_epik_Charging_Adjusted_Penalty>
0.0024078

> <i_epik_Tot_Q>
0

> <i_epik_Tot_abs_Q>
0

> <r_epik_Metal_State_Penalty>
-0

> <b_epik_Metal_Only>
0

> <s_lp_Force_Field>
OPLS_2005

> <r_lp_Energy>
13.9364

> <b_lp_Chiralities_Consistent>
1

> <s_lp_Variant>
AV-unprocessed.smi:2742-4

> <Gold.Version>
5.8.1

> <Gold.Id.Protein>
6NUR|6NUR_protein|mol2

> <Gold.PLP.Fitness>
38.6429

> <Gold.PLP.PLP>
-28.1379

> <Gold.PLP.part.hbond>
-2.1513

> <Gold.PLP.part.metal>
0.0000

> <Gold.PLP.part.buried>
-0.5072

> <Gold.PLP.part.nonpolar>
-25.2439

> <Gold.PLP.part.repulsive>
0.3935

> <Gold.PLP.ligand.clash>
0.0000

> <Gold.PLP.ligand.torsion>
0.5247

> <Gold.PLP.Chemscore.Hbond>
2.0000

> <Gold.PLP.Chemscore.CHOScore>
1.8471

> <Gold.PLP.Chemscore.Metal>
0.0000

> <Gold.Chemscore.Hbonds>
donor molecule, donor type, donor heavy atom, donor atom, acceptor molecule, acceptor atom, score
      L1  H     8    31       P1  7948  1.00
      L1  H    11    32       P1  7948  1.00
      L1  C    14    34       P1 10186  0.99
      L1  C    16    35       P1 10747  0.82

> <Gold.PLP.Chemscore.Internal.Correction>
0.0131

> <Gold.Rescore>
     Score         DG    S(hbond)    S(metal)    S(lipo)     H(rot)  DE(clash)    DE(int)     intcor
     16.55     -17.38       1.96        0.00      71.74       1.19       0.32       0.51       ----

> <Gold.Chemscore.Fitness>
16.5521

> <Gold.Chemscore.DG>
-17.3804

> <Gold.Chemscore.ZeroCoef>
-5.4800

> <Gold.Chemscore.Hbond>
1.9600

> <Gold.Chemscore.Metal>
0.0000

> <Gold.Chemscore.Lipo>
71.7441

> <Gold.Chemscore.Internal_Hbond>
0.0000

> <Gold.Chemscore.DEClash>
0.3184

> <Gold.Chemscore.DEInternal>
0.5100

> <Gold.Chemscore.Rot>
1.1875

> <Gold.Chemscore.Internal.Correction>
   9.000000E+99

> <Gold.Chemscore.Hbonds>
donor molecule, donor type, donor heavy atom, donor atom, acceptor molecule, acceptor atom, score
      L1  H     8    31       P1  7948  0.96
      L1  H    11    32       P1  7948  0.98

> <Gold.Chemscore.Hbond.Weighted>
-6.5464

> <Gold.Chemscore.Metal.Weighted>
-0.0000

> <Gold.Chemscore.Lipo.Weighted>
-8.3941

> <Gold.Chemscore.Internal_Hbond.Weighted>
0.0000

> <Gold.Chemscore.DEClash.Weighted>
0.3184

> <Gold.Chemscore.DEInternal.Weighted>
0.5100

> <Gold.Chemscore.Rot.Weighted>
3.0400

> <Gold.Chemscore.Internal.Correction.Weighted>
   9.000000E+99

> <Gold.Protein.RotatedTorsions>
[ 6907 6896 6895 6894 ] final   66.24 input  -60.11 | X-H torsion
[ 7974 7965 7964 7962 ] final -112.23 input  175.53 | X-H torsion
[ 8008 7997 7996 7995 ] final  146.52 input   59.86 | X-H torsion
[ 10167 10162 10161 10158 ] final  -36.98 input  -65.29 | X-H torsion
[ 10718 10713 10712 10709 ] final  107.73 input   66.30 | X-H torsion
[ 10763 10752 10751 10750 ] final   73.51 input  -60.55 | X-H torsion
[ 11005 11000 10999 10996 ] final -171.97 input  -57.11 | X-H torsion

> <Gold.Protein.ActiveResidues>
 VAL166  LYS551  ARG553  GLY616  TRP617  ASP618  TYR619  PRO620  LYS621  CYS622 
 ASP623  PHE694  ASN695  SER759  ASP760  ASP761  ALA762  ILE779  LEU786  VAL792 
 PHE793  MET794  SER795  GLU796  ALA797  LYS798  CYS799  TRP800  GLU811  SER814 

> <Gold.Protein.RotatedAtoms>
  152.4467  134.5480  159.9858 H   0  0  0  0  0  0  0  0  0  0  0  0  # atno 6907 bound_to 6896
  151.5564  133.3404  159.2970 H   0  0  0  0  0  0  0  0  0  0  0  0  # atno 6908 bound_to 6896
  150.8384  134.7699  159.6976 H   0  0  0  0  0  0  0  0  0  0  0  0  # atno 6909 bound_to 6896
  145.1466  140.8806  143.3671 H   0  0  0  0  0  0  0  0  0  0  0  0  # atno 7974 bound_to 7965
  156.2853  140.2180  156.5390 H   0  0  0  0  0  0  0  0  0  0  0  0  # atno 8008 bound_to 7997
  154.7385  140.0489  157.0812 H   0  0  0  0  0  0  0  0  0  0  0  0  # atno 8009 bound_to 7997
  155.0261  140.3129  155.4778 H   0  0  0  0  0  0  0  0  0  0  0  0  # atno 8010 bound_to 7997
  140.7129  143.3372  151.2436 H   0  0  0  0  0  0  0  0  0  0  0  0  # atno 10167 bound_to 10162
  157.6616  131.0879  150.6200 H   0  0  0  0  0  0  0  0  0  0  0  0  # atno 10718 bound_to 10713
  153.0526  135.5060  154.7905 H   0  0  0  0  0  0  0  0  0  0  0  0  # atno 10763 bound_to 10752
  154.6755  135.2960  154.9686 H   0  0  0  0  0  0  0  0  0  0  0  0  # atno 10764 bound_to 10752
  154.0490  135.6706  153.4851 H   0  0  0  0  0  0  0  0  0  0  0  0  # atno 10765 bound_to 10752
  140.5023  134.5882  157.4992 H   0  0  0  0  0  0  0  0  0  0  0  0  # atno 11005 bound_to 11000
  145.0476  139.3208  143.5945 LP  0  0  0  0  0  0  0  0  0  0  0  0  # atno 17320 bound_to 7965
  146.3499  139.9872  142.8689 LP  0  0  0  0  0  0  0  0  0  0  0  0  # atno 17321 bound_to 7965
  139.6870  143.9756  152.2839 LP  0  0  0  0  0  0  0  0  0  0  0  0  # atno 17342 bound_to 10162
  139.9405  144.6685  150.8271 LP  0  0  0  0  0  0  0  0  0  0  0  0  # atno 17343 bound_to 10162
  156.6503  130.4483  149.5722 LP  0  0  0  0  0  0  0  0  0  0  0  0  # atno 17370 bound_to 10713
  156.2143  130.6698  151.1302 LP  0  0  0  0  0  0  0  0  0  0  0  0  # atno 17371 bound_to 10713
  139.9706  134.7299  156.0049 LP  0  0  0  0  0  0  0  0  0  0  0  0  # atno 17394 bound_to 11000
  141.1429  133.6561  156.3782 LP  0  0  0  0  0  0  0  0  0  0  0  0  # atno 17395 bound_to 11000

$$$$
