AV-unprocessed.smi:2391|AV-procd|sdf|9483|dock6
  -GOLD-   2272013113D 1   1.00000     0.00000
 Structure written by MMmdl.
 35 36  0  0  0  0  0  0  0  0  1 V2000
  149.9316  135.9637  158.7619 O   0  0  0  0  0  0  0  0  0  0  0  0
  149.5516  137.0071  159.3011 C   0  0  0  0  0  0  0  0  0  0  0  0
  148.7869  137.1628  160.4518 N   0  0  0  0  0  0  0  0  0  0  0  0
  148.1762  136.1681  161.0274 C   0  0  0  0  0  0  0  0  0  0  0  0
  147.3957  136.3732  162.2357 C   0  0  0  0  0  0  0  0  0  0  0  0
  146.7571  135.3472  162.8444 C   0  0  0  0  0  0  0  0  0  0  0  0
  146.8646  134.0233  162.2643 C   0  0  0  0  0  0  0  0  0  0  0  0
  147.5449  133.7953  161.1910 N   0  0  0  0  0  0  0  0  0  0  0  0
  148.1771  134.8250  160.5918 N   0  0  0  0  0  0  0  0  0  0  0  0
  149.8607  138.2124  158.7986 N   0  0  0  0  0  0  0  0  0  0  0  0
  150.6536  138.4841  157.5965 C   0  0  2  0  0  0  0  0  0  0  0  0
  151.0447  139.9847  157.5682 C   0  0  0  0  0  0  0  0  0  0  0  0
  152.0283  140.4249  158.6584 C   0  0  0  0  0  0  0  0  0  0  0  0
  151.8951  141.9486  158.7224 C   0  0  0  0  0  0  0  0  0  0  0  0
  150.4768  142.2732  158.2354 C   0  0  0  0  0  0  0  0  0  0  0  0
  149.8639  140.9450  157.7764 C   0  0  0  0  0  0  0  0  0  0  0  0
  149.8540  138.0186  156.3578 C   0  0  0  0  0  0  0  0  0  0  0  0
  149.8059  136.6860  156.3261 F   0  0  0  0  0  0  0  0  0  0  0  0
  148.6071  138.4901  156.3979 F   0  0  0  0  0  0  0  0  0  0  0  0
  150.4352  138.4282  155.2311 F   0  0  0  0  0  0  0  0  0  0  0  0
  147.3043  137.3529  162.6817 H   0  0  0  0  0  0  0  0  0  0  0  0
  146.1765  135.4988  163.7422 H   0  0  0  0  0  0  0  0  0  0  0  0
  146.3334  133.2326  162.7939 H   0  0  0  0  0  0  0  0  0  0  0  0
  149.5108  139.0212  159.2916 H   0  0  0  0  0  0  0  0  0  0  0  0
  151.5739  137.8985  157.6224 H   0  0  0  0  0  0  0  0  0  0  0  0
  151.4933  140.2147  156.6002 H   0  0  0  0  0  0  0  0  0  0  0  0
  151.7397  139.9926  159.6177 H   0  0  0  0  0  0  0  0  0  0  0  0
  153.0540  140.1197  158.4499 H   0  0  0  0  0  0  0  0  0  0  0  0
  152.0833  142.3290  159.7267 H   0  0  0  0  0  0  0  0  0  0  0  0
  152.6246  142.4116  158.0565 H   0  0  0  0  0  0  0  0  0  0  0  0
  149.8753  142.7276  159.0235 H   0  0  0  0  0  0  0  0  0  0  0  0
  150.5191  142.9829  157.4083 H   0  0  0  0  0  0  0  0  0  0  0  0
  149.2585  141.0620  156.8771 H   0  0  0  0  0  0  0  0  0  0  0  0
  149.2104  140.5617  158.5615 H   0  0  0  0  0  0  0  0  0  0  0  0
  148.6959  134.6019  159.7543 H   0  0  0  0  0  0  0  0  0  0  0  0
  1  2  2  0  0  0  0
  2  3  1  0  0  0  0
  2 10  1  0  0  0  0
  3  4  2  0  0  0  0
  4  9  1  0  0  0  0
  4  5  1  0  0  0  0
  5  6  2  0  0  0  0
  5 21  1  0  0  0  0
  6  7  1  0  0  0  0
  6 22  1  0  0  0  0
  7  8  2  0  0  0  0
  7 23  1  0  0  0  0
  8  9  1  0  0  0  0
  9 35  1  0  0  0  0
 10 11  1  0  0  0  0
 10 24  1  0  0  0  0
 11 12  1  0  0  0  0
 11 17  1  0  0  0  0
 11 25  1  0  0  0  0
 12 16  1  0  0  0  0
 12 13  1  0  0  0  0
 12 26  1  0  0  0  0
 13 14  1  0  0  0  0
 13 27  1  0  0  0  0
 13 28  1  0  0  0  0
 14 15  1  0  0  0  0
 14 29  1  0  0  0  0
 14 30  1  0  0  0  0
 15 16  1  0  0  0  0
 15 31  1  0  0  0  0
 15 32  1  0  0  0  0
 16 33  1  0  0  0  0
 16 34  1  0  0  0  0
 17 18  1  0  0  0  0
 17 19  1  0  0  0  0
 17 20  1  0  0  0  0
M  END
> <s_m_source_file>
AV-unprocessed.smi

> <i_m_source_file_index>
2391

> <i_lp_mmshare_version>
43012

> <i_f3d_flags>
0

> <s_epik_input>
W0NIMl0xW0NIMl1bQ0gyXVtDSDJdW0NIXTFbQ0BIXShDKEYpKEYpRilbTkhdQyg9TylbTkhdYzJbY0hdW2NIXVtjSF1ubjI=

> <s_epik_cmdline>
J2VwaWtfcHl0aG9uJywgJy1waCcsICc3LjAnLCAnLXRuJywgJzgnLCAnLW1hJywgJzIwMCcsICctbWV0YWxfYmluZGluZycsICctaW1hZScsICc8aW5maWxlLm1hZT4nLCAnLW9tYWUnLCAnPG91dGZpbGUubWFlPic=

> <r_epik_Ionization_Penalty>
0.0611197

> <r_epik_Ionization_Penalty_Charging>
0.0611196

> <r_epik_Ionization_Penalty_Neutral>
6.50554e-08

> <r_epik_State_Penalty>
2.29873

> <r_epik_Charging_Adjusted_Penalty>
2.35985

> <i_epik_Tot_Q>
0

> <i_epik_Tot_abs_Q>
0

> <r_epik_Metal_State_Penalty>
2.32932

> <b_epik_Metal_Only>
0

> <s_lp_Force_Field>
OPLS_2005

> <r_lp_Energy>
49.9712

> <b_lp_Chiralities_Consistent>
1

> <s_lp_Variant>
AV-unprocessed.smi:2391-3

> <Gold.Version>
5.8.1

> <Gold.Id.Protein>
6NUR|6NUR_protein|mol2

> <Gold.PLP.Fitness>
34.8242

> <Gold.PLP.PLP>
-30.3827

> <Gold.PLP.part.hbond>
-2.8223

> <Gold.PLP.part.metal>
0.0000

> <Gold.PLP.part.buried>
-5.5543

> <Gold.PLP.part.nonpolar>
-22.8373

> <Gold.PLP.part.repulsive>
0.2858

> <Gold.PLP.ligand.clash>
0.0000

> <Gold.PLP.ligand.torsion>
0.4294

> <Gold.PLP.Chemscore.Hbond>
1.6711

> <Gold.PLP.Chemscore.CHOScore>
0.0000

> <Gold.PLP.Chemscore.Metal>
0.0000

> <Gold.Chemscore.Hbonds>
donor molecule, donor type, donor heavy atom, donor atom, acceptor molecule, acceptor atom, score
      P1  H  6896  6909       L1     1  1.00
      P1  H  6931  6943       L1     3  0.67

> <Gold.PLP.Chemscore.Internal.Correction>
0.2871

> <Gold.Rescore>
     Score         DG    S(hbond)    S(metal)    S(lipo)     H(rot)  DE(clash)    DE(int)     intcor
     11.93     -14.12       1.54        0.00      58.91       1.33       0.00       2.19       ----

> <Gold.Chemscore.Fitness>
11.9258

> <Gold.Chemscore.DG>
-14.1221

> <Gold.Chemscore.ZeroCoef>
-5.4800

> <Gold.Chemscore.Hbond>
1.5434

> <Gold.Chemscore.Metal>
0.0000

> <Gold.Chemscore.Lipo>
58.9132

> <Gold.Chemscore.Internal_Hbond>
0.0000

> <Gold.Chemscore.DEClash>
0.0029

> <Gold.Chemscore.DEInternal>
2.1934

> <Gold.Chemscore.Rot>
1.3304

> <Gold.Chemscore.Internal.Correction>
   9.000000E+99

> <Gold.Chemscore.Hbonds>
donor molecule, donor type, donor heavy atom, donor atom, acceptor molecule, acceptor atom, score
      P1  H  6896  6909       L1     1  0.98
      P1  H  6931  6943       L1     3  0.20

> <Gold.Chemscore.Hbond.Weighted>
-5.1550

> <Gold.Chemscore.Metal.Weighted>
-0.0000

> <Gold.Chemscore.Lipo.Weighted>
-6.8928

> <Gold.Chemscore.Internal_Hbond.Weighted>
0.0000

> <Gold.Chemscore.DEClash.Weighted>
0.0029

> <Gold.Chemscore.DEInternal.Weighted>
2.1934

> <Gold.Chemscore.Rot.Weighted>
3.4057

> <Gold.Chemscore.Internal.Correction.Weighted>
   9.000000E+99

> <Gold.Protein.RotatedTorsions>
[ 6907 6896 6895 6894 ] final   58.06 input  -60.11 | X-H torsion
[ 7974 7965 7964 7962 ] final  -82.79 input  175.53 | X-H torsion
[ 8008 7997 7996 7995 ] final -129.29 input   59.86 | X-H torsion
[ 10167 10162 10161 10158 ] final  172.93 input  -65.29 | X-H torsion
[ 10718 10713 10712 10709 ] final  -57.41 input   66.30 | X-H torsion
[ 10763 10752 10751 10750 ] final  -81.95 input  -60.55 | X-H torsion
[ 11005 11000 10999 10996 ] final -121.25 input  -57.11 | X-H torsion

> <Gold.Protein.ActiveResidues>
 VAL166  LYS551  ARG553  GLY616  TRP617  ASP618  TYR619  PRO620  LYS621  CYS622 
 ASP623  PHE694  ASN695  SER759  ASP760  ASP761  ALA762  ILE779  LEU786  VAL792 
 PHE793  MET794  SER795  GLU796  ALA797  LYS798  CYS799  TRP800  GLU811  SER814 

> <Gold.Protein.RotatedAtoms>
  152.3789  134.6620  160.0149 H   0  0  0  0  0  0  0  0  0  0  0  0  # atno 6907 bound_to 6896
  151.6890  133.3305  159.3246 H   0  0  0  0  0  0  0  0  0  0  0  0  # atno 6908 bound_to 6896
  150.7732  134.6651  159.6405 H   0  0  0  0  0  0  0  0  0  0  0  0  # atno 6909 bound_to 6896
  145.5286  140.9524  143.1615 H   0  0  0  0  0  0  0  0  0  0  0  0  # atno 7974 bound_to 7965
  155.2767  140.0442  157.3012 H   0  0  0  0  0  0  0  0  0  0  0  0  # atno 8008 bound_to 7997
  154.5621  140.2349  155.8288 H   0  0  0  0  0  0  0  0  0  0  0  0  # atno 8009 bound_to 7997
  156.2055  140.3013  155.9626 H   0  0  0  0  0  0  0  0  0  0  0  0  # atno 8010 bound_to 7997
  139.5092  144.3318  152.0103 H   0  0  0  0  0  0  0  0  0  0  0  0  # atno 10167 bound_to 10162
  156.1212  130.4166  150.0437 H   0  0  0  0  0  0  0  0  0  0  0  0  # atno 10718 bound_to 10713
  154.5698  135.5608  153.7084 H   0  0  0  0  0  0  0  0  0  0  0  0  # atno 10763 bound_to 10752
  153.0045  135.6294  154.2130 H   0  0  0  0  0  0  0  0  0  0  0  0  # atno 10764 bound_to 10752
  154.2069  135.2875  155.2951 H   0  0  0  0  0  0  0  0  0  0  0  0  # atno 10765 bound_to 10752
  141.0084  134.0301  157.3447 H   0  0  0  0  0  0  0  0  0  0  0  0  # atno 11005 bound_to 11000
  144.7638  139.6894  143.7223 LP  0  0  0  0  0  0  0  0  0  0  0  0  # atno 17320 bound_to 7965
  146.2059  139.5383  142.9713 LP  0  0  0  0  0  0  0  0  0  0  0  0  # atno 17321 bound_to 7965
  140.2758  144.3914  150.6135 LP  0  0  0  0  0  0  0  0  0  0  0  0  # atno 17342 bound_to 10162
  140.6055  143.2167  151.6989 LP  0  0  0  0  0  0  0  0  0  0  0  0  # atno 17343 bound_to 10162
  156.8375  130.9414  151.3634 LP  0  0  0  0  0  0  0  0  0  0  0  0  # atno 17370 bound_to 10713
  157.6396  130.8794  149.9423 LP  0  0  0  0  0  0  0  0  0  0  0  0  # atno 17371 bound_to 10713
  139.9076  135.0183  156.7553 LP  0  0  0  0  0  0  0  0  0  0  0  0  # atno 17394 bound_to 11000
  140.6775  133.9504  155.7891 LP  0  0  0  0  0  0  0  0  0  0  0  0  # atno 17395 bound_to 11000

$$$$
