AV-unprocessed.smi:2893|AV-procd|sdf|11122|dock7
  -GOLD-   2272015593D 1   1.00000     0.00000
 Structure written by MMmdl.
 37 39  0  0  0  0  0  0  0  0  1 V2000
  154.1438  135.2220  164.4935 C   0  0  0  0  0  0  0  0  0  0  0  0
  154.6983  135.3692  163.0705 C   0  0  0  0  0  0  0  0  0  0  0  0
  154.5228  136.7257  162.5656 N   0  0  0  0  0  0  0  0  0  0  0  0
  153.8659  137.0559  161.4403 C   0  0  0  0  0  0  0  0  0  0  0  0
  153.3529  136.2242  160.6903 O   0  0  0  0  0  0  0  0  0  0  0  0
  153.8205  138.5243  161.1120 C   0  0  0  0  0  0  0  0  0  0  0  0
  154.3720  139.4672  162.0065 C   0  0  0  0  0  0  0  0  0  0  0  0
  154.3200  140.8241  161.6447 C   0  0  0  0  0  0  0  0  0  0  0  0
  153.7245  141.1513  160.4120 C   0  0  0  0  0  0  0  0  0  0  0  0
  153.6649  142.4978  160.0255 N   0  0  0  0  0  0  0  0  0  0  0  0
  152.9221  142.9187  158.8422 C   0  0  2  0  0  0  0  0  0  0  0  0
  152.8151  144.4432  158.7365 C   0  0  0  0  0  0  0  0  0  0  0  0
  151.2993  144.6494  158.6246 C   0  0  1  0  0  0  0  0  0  0  0  0
  150.7360  144.1326  157.2934 C   0  0  0  0  0  0  0  0  0  0  0  0
  150.8011  142.6184  157.4929 C   0  0  0  0  0  0  0  0  0  0  0  0
  151.4364  142.5110  158.8855 C   0  0  2  0  0  0  0  0  0  0  0  0
  150.8478  143.6408  159.5100 O   0  0  0  0  0  0  0  0  0  0  0  0
  153.2162  140.1998  159.5905 N   0  0  0  0  0  0  0  0  0  0  0  0
  153.2648  138.9087  159.9347 N   0  0  0  0  0  0  0  0  0  0  0  0
  154.3076  134.2124  164.8707 H   0  0  0  0  0  0  0  0  0  0  0  0
  153.0711  135.4160  164.5240 H   0  0  0  0  0  0  0  0  0  0  0  0
  154.6300  135.9164  165.1796 H   0  0  0  0  0  0  0  0  0  0  0  0
  155.7639  135.1396  163.0661 H   0  0  0  0  0  0  0  0  0  0  0  0
  154.2228  134.6505  162.4012 H   0  0  0  0  0  0  0  0  0  0  0  0
  154.9226  137.4744  163.1130 H   0  0  0  0  0  0  0  0  0  0  0  0
  154.8217  139.1677  162.9420 H   0  0  0  0  0  0  0  0  0  0  0  0
  154.7268  141.5859  162.2936 H   0  0  0  0  0  0  0  0  0  0  0  0
  154.0346  143.2082  160.6403 H   0  0  0  0  0  0  0  0  0  0  0  0
  153.4071  142.5127  157.9535 H   0  0  0  0  0  0  0  0  0  0  0  0
  153.1945  144.9377  159.6322 H   0  0  0  0  0  0  0  0  0  0  0  0
  153.3540  144.8435  157.8772 H   0  0  0  0  0  0  0  0  0  0  0  0
  150.9700  145.6555  158.8851 H   0  0  0  0  0  0  0  0  0  0  0  0
  149.7036  144.4556  157.1551 H   0  0  0  0  0  0  0  0  0  0  0  0
  151.3198  144.4739  156.4380 H   0  0  0  0  0  0  0  0  0  0  0  0
  149.7984  142.1895  157.4922 H   0  0  0  0  0  0  0  0  0  0  0  0
  151.3890  142.1134  156.7258 H   0  0  0  0  0  0  0  0  0  0  0  0
  151.2343  141.5620  159.3832 H   0  0  0  0  0  0  0  0  0  0  0  0
  1  2  1  0  0  0  0
  1 20  1  0  0  0  0
  1 21  1  0  0  0  0
  1 22  1  0  0  0  0
  2  3  1  0  0  0  0
  2 23  1  0  0  0  0
  2 24  1  0  0  0  0
  3  4  1  0  0  0  0
  3 25  1  0  0  0  0
  4  5  2  0  0  0  0
  4  6  1  0  0  0  0
  6 19  1  0  0  0  0
  6  7  2  0  0  0  0
  7  8  1  0  0  0  0
  7 26  1  0  0  0  0
  8  9  2  0  0  0  0
  8 27  1  0  0  0  0
  9 10  1  0  0  0  0
  9 18  1  0  0  0  0
 10 11  1  0  0  0  0
 10 28  1  0  0  0  0
 11 16  1  0  0  0  0
 11 12  1  0  0  0  0
 11 29  1  0  0  0  0
 12 13  1  0  0  0  0
 12 30  1  0  0  0  0
 12 31  1  0  0  0  0
 13 17  1  0  0  0  0
 13 14  1  0  0  0  0
 13 32  1  0  0  0  0
 14 15  1  0  0  0  0
 14 33  1  0  0  0  0
 14 34  1  0  0  0  0
 15 16  1  0  0  0  0
 15 35  1  0  0  0  0
 15 36  1  0  0  0  0
 16 17  1  0  0  0  0
 16 37  1  0  0  0  0
 18 19  2  0  0  0  0
M  END
> <s_m_source_file>
AV-unprocessed.smi

> <i_m_source_file_index>
2893

> <i_lp_mmshare_version>
43012

> <i_f3d_flags>
0

> <s_epik_input>
W0NIM11bQ0gyXVtOSF1DKD1PKWMxW2NIXVtjSF1jKG5uMSlbTkhdW0NASF0oW0NIMl1bQ0BASF0yMylbQ0BASF0oTzMpW0NIMl1bQ0gyXTI=

> <s_epik_cmdline>
J2VwaWtfcHl0aG9uJywgJy1waCcsICc3LjAnLCAnLXRuJywgJzgnLCAnLW1hJywgJzIwMCcsICctbWV0YWxfYmluZGluZycsICctaW1hZScsICc8aW5maWxlLm1hZT4nLCAnLW9tYWUnLCAnPG91dGZpbGUubWFlPic=

> <r_lp_tautomer_probability>
1

> <r_epik_Ionization_Penalty>
0.00432031

> <r_epik_Ionization_Penalty_Charging>
0

> <r_epik_Ionization_Penalty_Neutral>
0.00432031

> <r_epik_State_Penalty>
-0

> <r_epik_Charging_Adjusted_Penalty>
0

> <i_epik_Tot_Q>
0

> <i_epik_Tot_abs_Q>
0

> <r_epik_Metal_State_Penalty>
-0

> <b_epik_Metal_Only>
0

> <s_lp_Force_Field>
OPLS_2005

> <r_lp_Energy>
51.3486

> <b_lp_Chiralities_Consistent>
1

> <s_lp_Variant>
AV-unprocessed.smi:2893-1

> <Gold.Version>
5.8.1

> <Gold.Id.Protein>
6NUR|6NUR_protein|mol2

> <Gold.PLP.Fitness>
36.8224

> <Gold.PLP.PLP>
-33.9313

> <Gold.PLP.part.hbond>
-1.0000

> <Gold.PLP.part.metal>
0.0000

> <Gold.PLP.part.buried>
-1.6358

> <Gold.PLP.part.nonpolar>
-31.0886

> <Gold.PLP.part.repulsive>
0.1010

> <Gold.PLP.ligand.clash>
0.0000

> <Gold.PLP.ligand.torsion>
0.0659

> <Gold.PLP.Chemscore.Hbond>
1.0000

> <Gold.PLP.Chemscore.CHOScore>
0.0000

> <Gold.PLP.Chemscore.Metal>
0.0000

> <Gold.Chemscore.Hbonds>
donor molecule, donor type, donor heavy atom, donor atom, acceptor molecule, acceptor atom, score
      P1  H  6896  6909       L1     5  1.00

> <Gold.PLP.Chemscore.Internal.Correction>
0.0231

> <Gold.Rescore>
     Score         DG    S(hbond)    S(metal)    S(lipo)     H(rot)  DE(clash)    DE(int)     intcor
     16.63     -18.20       1.00        0.00     106.61       1.21       1.39       0.18       ----

> <Gold.Chemscore.Fitness>
16.6345

> <Gold.Chemscore.DG>
-18.2002

> <Gold.Chemscore.ZeroCoef>
-5.4800

> <Gold.Chemscore.Hbond>
0.9984

> <Gold.Chemscore.Metal>
0.0000

> <Gold.Chemscore.Lipo>
106.6081

> <Gold.Chemscore.Internal_Hbond>
0.0000

> <Gold.Chemscore.DEClash>
1.3881

> <Gold.Chemscore.DEInternal>
0.1777

> <Gold.Chemscore.Rot>
1.2061

> <Gold.Chemscore.Internal.Correction>
   9.000000E+99

> <Gold.Chemscore.Hbonds>
donor molecule, donor type, donor heavy atom, donor atom, acceptor molecule, acceptor atom, score
      P1  H  6896  6909       L1     5  1.00

> <Gold.Chemscore.Hbond.Weighted>
-3.3347

> <Gold.Chemscore.Metal.Weighted>
-0.0000

> <Gold.Chemscore.Lipo.Weighted>
-12.4731

> <Gold.Chemscore.Internal_Hbond.Weighted>
0.0000

> <Gold.Chemscore.DEClash.Weighted>
1.3881

> <Gold.Chemscore.DEInternal.Weighted>
0.1777

> <Gold.Chemscore.Rot.Weighted>
3.0876

> <Gold.Chemscore.Internal.Correction.Weighted>
   9.000000E+99

> <Gold.Protein.RotatedTorsions>
[ 6907 6896 6895 6894 ] final  163.02 input  -60.11 | X-H torsion
[ 7974 7965 7964 7962 ] final -150.91 input  175.53 | X-H torsion
[ 8008 7997 7996 7995 ] final -109.51 input   59.86 | X-H torsion
[ 10167 10162 10161 10158 ] final   97.64 input  -65.29 | X-H torsion
[ 10718 10713 10712 10709 ] final   57.01 input   66.30 | X-H torsion
[ 10763 10752 10751 10750 ] final -143.85 input  -60.55 | X-H torsion
[ 11005 11000 10999 10996 ] final  -38.21 input  -57.11 | X-H torsion

> <Gold.Protein.ActiveResidues>
 VAL166  LYS551  ARG553  GLY616  TRP617  ASP618  TYR619  PRO620  LYS621  CYS622 
 ASP623  PHE694  ASN695  SER759  ASP760  ASP761  ALA762  ILE779  LEU786  VAL792 
 PHE793  MET794  SER795  GLU796  ALA797  LYS798  CYS799  TRP800  GLU811  SER814 

> <Gold.Protein.RotatedAtoms>
  151.9316  133.3612  159.3932 H   0  0  0  0  0  0  0  0  0  0  0  0  # atno 6907 bound_to 6896
  150.7016  134.4532  159.5355 H   0  0  0  0  0  0  0  0  0  0  0  0  # atno 6908 bound_to 6896
  152.2173  134.8446  160.0541 H   0  0  0  0  0  0  0  0  0  0  0  0  # atno 6909 bound_to 6896
  144.7880  140.4868  143.5793 H   0  0  0  0  0  0  0  0  0  0  0  0  # atno 7974 bound_to 7965
  154.9605  140.0399  157.2187 H   0  0  0  0  0  0  0  0  0  0  0  0  # atno 8008 bound_to 7997
  154.7894  140.2832  155.5981 H   0  0  0  0  0  0  0  0  0  0  0  0  # atno 8009 bound_to 7997
  156.2947  140.2576  156.2737 H   0  0  0  0  0  0  0  0  0  0  0  0  # atno 8010 bound_to 7997
  139.7782  144.6898  151.0059 H   0  0  0  0  0  0  0  0  0  0  0  0  # atno 10167 bound_to 10162
  157.5479  130.8744  149.8919 H   0  0  0  0  0  0  0  0  0  0  0  0  # atno 10718 bound_to 10713
  154.8453  135.3456  154.6253 H   0  0  0  0  0  0  0  0  0  0  0  0  # atno 10763 bound_to 10752
  153.6862  135.6977  153.5108 H   0  0  0  0  0  0  0  0  0  0  0  0  # atno 10764 bound_to 10752
  153.2630  135.4317  155.0868 H   0  0  0  0  0  0  0  0  0  0  0  0  # atno 10765 bound_to 10752
  141.0010  133.6955  156.2023 H   0  0  0  0  0  0  0  0  0  0  0  0  # atno 11005 bound_to 11000
  145.5870  139.1493  143.3203 LP  0  0  0  0  0  0  0  0  0  0  0  0  # atno 17320 bound_to 7965
  146.2120  140.5998  142.9055 LP  0  0  0  0  0  0  0  0  0  0  0  0  # atno 17321 bound_to 7965
  140.7817  143.4512  151.0410 LP  0  0  0  0  0  0  0  0  0  0  0  0  # atno 17342 bound_to 10162
  139.8193  143.7841  152.3176 LP  0  0  0  0  0  0  0  0  0  0  0  0  # atno 17343 bound_to 10162
  156.0551  130.3710  150.1109 LP  0  0  0  0  0  0  0  0  0  0  0  0  # atno 17370 bound_to 10713
  156.9284  130.9706  151.3537 LP  0  0  0  0  0  0  0  0  0  0  0  0  # atno 17371 bound_to 10713
  140.6889  134.4688  157.5589 LP  0  0  0  0  0  0  0  0  0  0  0  0  # atno 17394 bound_to 11000
  139.9039  134.8493  156.1784 LP  0  0  0  0  0  0  0  0  0  0  0  0  # atno 17395 bound_to 11000

$$$$
