AV-unprocessed.smi:1635|AV-procd|sdf|6540|dock3
  -GOLD-   22720 7223D 1   1.00000     0.00000
 Structure written by MMmdl.
 37 38  0  0  0  0  0  0  0  0  1 V2000
  151.8262  144.9291  157.2458 C   0  0  0  0  0  0  0  0  0  0  0  0
  151.9108  143.8065  158.2672 C   0  0  0  0  0  0  0  0  0  0  0  0
  152.7693  143.9475  159.3782 C   0  0  0  0  0  0  0  0  0  0  0  0
  152.8441  142.9098  160.3229 C   0  0  0  0  0  0  0  0  0  0  0  0
  152.0525  141.7674  160.1144 C   0  0  0  0  0  0  0  0  0  0  0  0
  151.2306  141.6237  159.0547 N   0  0  0  0  0  0  0  0  0  0  0  0
  151.1466  142.6161  158.1334 C   0  0  0  0  0  0  0  0  0  0  0  0
  150.3027  142.5343  156.9898 N   0  0  0  0  0  0  0  0  0  0  0  0
  149.7026  141.4508  156.4661 C   0  0  0  0  0  0  0  0  0  0  0  0
  149.7912  140.3033  156.9042 O   0  0  0  0  0  0  0  0  0  0  0  0
  148.9822  141.7760  155.3826 N   0  0  0  0  0  0  0  0  0  0  0  0
  148.1868  140.8517  154.5740 C   0  0  2  0  0  0  0  0  0  0  0  0
  146.9077  140.4192  155.3376 C   0  0  0  0  0  0  0  0  0  0  0  0
  146.3126  139.0492  154.9498 C   0  0  0  0  0  0  0  0  0  0  0  0
  146.0076  138.8554  153.4505 C   0  0  0  0  0  0  0  0  0  0  0  0
  147.1724  139.1170  152.4665 C   0  0  0  0  0  0  0  0  0  0  0  0
  148.5016  138.9327  153.0471 N   0  0  0  0  0  0  0  0  0  0  0  0
  149.0432  139.7026  154.0067 C   0  0  0  0  0  0  0  0  0  0  0  0
  150.1766  139.4900  154.4357 O   0  0  0  0  0  0  0  0  0  0  0  0
  152.4722  145.7640  157.5185 H   0  0  0  0  0  0  0  0  0  0  0  0
  150.8050  145.3049  157.1760 H   0  0  0  0  0  0  0  0  0  0  0  0
  152.1337  144.5743  156.2619 H   0  0  0  0  0  0  0  0  0  0  0  0
  153.3643  144.8395  159.5078 H   0  0  0  0  0  0  0  0  0  0  0  0
  153.4907  142.9875  161.1845 H   0  0  0  0  0  0  0  0  0  0  0  0
  152.0793  140.9469  160.8161 H   0  0  0  0  0  0  0  0  0  0  0  0
  150.1370  143.4088  156.5141 H   0  0  0  0  0  0  0  0  0  0  0  0
  148.9626  142.7448  155.0989 H   0  0  0  0  0  0  0  0  0  0  0  0
  147.8662  141.4197  153.6997 H   0  0  0  0  0  0  0  0  0  0  0  0
  147.1196  140.3894  156.4075 H   0  0  0  0  0  0  0  0  0  0  0  0
  146.1458  141.1896  155.2126 H   0  0  0  0  0  0  0  0  0  0  0  0
  146.9820  138.2561  155.2859 H   0  0  0  0  0  0  0  0  0  0  0  0
  145.3920  138.8971  155.5141 H   0  0  0  0  0  0  0  0  0  0  0  0
  145.6689  137.8276  153.3159 H   0  0  0  0  0  0  0  0  0  0  0  0
  145.1600  139.4799  153.1668 H   0  0  0  0  0  0  0  0  0  0  0  0
  147.0773  138.4534  151.6068 H   0  0  0  0  0  0  0  0  0  0  0  0
  147.0972  140.1256  152.0586 H   0  0  0  0  0  0  0  0  0  0  0  0
  149.0578  138.1730  152.6826 H   0  0  0  0  0  0  0  0  0  0  0  0
  1  2  1  0  0  0  0
  1 20  1  0  0  0  0
  1 21  1  0  0  0  0
  1 22  1  0  0  0  0
  2  7  1  0  0  0  0
  2  3  2  0  0  0  0
  3  4  1  0  0  0  0
  3 23  1  0  0  0  0
  4  5  2  0  0  0  0
  4 24  1  0  0  0  0
  5  6  1  0  0  0  0
  5 25  1  0  0  0  0
  6  7  2  0  0  0  0
  7  8  1  0  0  0  0
  8  9  1  0  0  0  0
  8 26  1  0  0  0  0
  9 10  2  0  0  0  0
  9 11  1  0  0  0  0
 11 12  1  0  0  0  0
 11 27  1  0  0  0  0
 12 18  1  0  0  0  0
 12 13  1  0  0  0  0
 12 28  1  0  0  0  0
 13 14  1  0  0  0  0
 13 29  1  0  0  0  0
 13 30  1  0  0  0  0
 14 15  1  0  0  0  0
 14 31  1  0  0  0  0
 14 32  1  0  0  0  0
 15 16  1  0  0  0  0
 15 33  1  0  0  0  0
 15 34  1  0  0  0  0
 16 17  1  0  0  0  0
 16 35  1  0  0  0  0
 16 36  1  0  0  0  0
 17 18  1  0  0  0  0
 17 37  1  0  0  0  0
 18 19  2  0  0  0  0
M  END
> <s_m_source_file>
AV-unprocessed.smi

> <i_m_source_file_index>
1635

> <i_lp_mmshare_version>
43012

> <i_f3d_flags>
0

> <s_epik_input>
W0NIM11jMVtjSF1bY0hdW2NIXW5jMVtOSF1DKD1PKVtOSF1bQ0BASF0yW0NIMl1bQ0gyXVtDSDJdW0NIMl1bTkhdQzI9Tw==

> <s_epik_cmdline>
J2VwaWtfcHl0aG9uJywgJy1waCcsICc3LjAnLCAnLXRuJywgJzgnLCAnLW1hJywgJzIwMCcsICctbWV0YWxfYmluZGluZycsICctaW1hZScsICc8aW5maWxlLm1hZT4nLCAnLW9tYWUnLCAnPG91dGZpbGUubWFlPic=

> <r_lp_tautomer_probability>
1

> <r_epik_Ionization_Penalty>
5.14862e-05

> <r_epik_Ionization_Penalty_Charging>
0

> <r_epik_Ionization_Penalty_Neutral>
5.14862e-05

> <r_epik_State_Penalty>
-0

> <r_epik_Charging_Adjusted_Penalty>
0

> <i_epik_Tot_Q>
0

> <i_epik_Tot_abs_Q>
0

> <r_epik_Metal_State_Penalty>
-0

> <b_epik_Metal_Only>
0

> <s_lp_Force_Field>
OPLS_2005

> <r_lp_Energy>
17.2511

> <b_lp_Chiralities_Consistent>
1

> <s_lp_Variant>
AV-unprocessed.smi:1635-1

> <Gold.Version>
5.8.1

> <Gold.Id.Protein>
6NUR|6NUR_protein|mol2

> <Gold.PLP.Fitness>
42.0195

> <Gold.PLP.PLP>
-31.1154

> <Gold.PLP.part.hbond>
-4.2986

> <Gold.PLP.part.metal>
0.0000

> <Gold.PLP.part.buried>
0.2459

> <Gold.PLP.part.nonpolar>
-27.7038

> <Gold.PLP.part.repulsive>
0.4484

> <Gold.PLP.ligand.clash>
0.0000

> <Gold.PLP.ligand.torsion>
0.1228

> <Gold.PLP.Chemscore.Hbond>
3.6985

> <Gold.PLP.Chemscore.CHOScore>
0.0000

> <Gold.PLP.Chemscore.Metal>
0.0000

> <Gold.Chemscore.Hbonds>
donor molecule, donor type, donor heavy atom, donor atom, acceptor molecule, acceptor atom, score
      L1  H     8    26       P1  8028  1.00
      L1  H    11    27       P1  8028  0.95
      L1  H    17    37       P1  7948  0.80
      P1  H  7989  7998       L1    19  0.55

> <Gold.PLP.Chemscore.Internal.Correction>
0.0541

> <Gold.Rescore>
     Score         DG    S(hbond)    S(metal)    S(lipo)     H(rot)  DE(clash)    DE(int)     intcor
     16.18     -24.21       3.37        0.00      85.60       1.00       2.88       5.15       ----

> <Gold.Chemscore.Fitness>
16.1824

> <Gold.Chemscore.DG>
-24.2056

> <Gold.Chemscore.ZeroCoef>
-5.4800

> <Gold.Chemscore.Hbond>
3.3744

> <Gold.Chemscore.Metal>
0.0000

> <Gold.Chemscore.Lipo>
85.5980

> <Gold.Chemscore.Internal_Hbond>
0.0000

> <Gold.Chemscore.DEClash>
2.8781

> <Gold.Chemscore.DEInternal>
5.1450

> <Gold.Chemscore.Rot>
1.0000

> <Gold.Chemscore.Internal.Correction>
   9.000000E+99

> <Gold.Chemscore.Hbonds>
donor molecule, donor type, donor heavy atom, donor atom, acceptor molecule, acceptor atom, score
      L1  H     8    26       P1  8028  0.92
      L1  H    11    27       P1  8028  0.85
      L1  H    17    37       P1  7948  0.74
      P1  H  7989  7998       L1    19  0.42

> <Gold.Chemscore.Hbond.Weighted>
-11.2706

> <Gold.Chemscore.Metal.Weighted>
-0.0000

> <Gold.Chemscore.Lipo.Weighted>
-10.0150

> <Gold.Chemscore.Internal_Hbond.Weighted>
0.0000

> <Gold.Chemscore.DEClash.Weighted>
2.8781

> <Gold.Chemscore.DEInternal.Weighted>
5.1450

> <Gold.Chemscore.Rot.Weighted>
2.5600

> <Gold.Chemscore.Internal.Correction.Weighted>
   9.000000E+99

> <Gold.Protein.RotatedTorsions>
[ 6907 6896 6895 6894 ] final  -49.48 input  -60.11 | X-H torsion
[ 7974 7965 7964 7962 ] final  -64.69 input  175.53 | X-H torsion
[ 8008 7997 7996 7995 ] final   57.32 input   59.86 | X-H torsion
[ 10167 10162 10161 10158 ] final  161.60 input  -65.29 | X-H torsion
[ 10718 10713 10712 10709 ] final -146.38 input   66.30 | X-H torsion
[ 10763 10752 10751 10750 ] final  -69.45 input  -60.55 | X-H torsion
[ 11005 11000 10999 10996 ] final  -91.74 input  -57.11 | X-H torsion

> <Gold.Protein.ActiveResidues>
 VAL166  LYS551  ARG553  GLY616  TRP617  ASP618  TYR619  PRO620  LYS621  CYS622 
 ASP623  PHE694  ASN695  SER759  ASP760  ASP761  ALA762  ILE779  LEU786  VAL792 
 PHE793  MET794  SER795  GLU796  ALA797  LYS798  CYS799  TRP800  GLU811  SER814 

> <Gold.Protein.RotatedAtoms>
  150.8801  134.8190  159.7218 H   0  0  0  0  0  0  0  0  0  0  0  0  # atno 6907 bound_to 6896
  152.4772  134.4810  159.9675 H   0  0  0  0  0  0  0  0  0  0  0  0  # atno 6908 bound_to 6896
  151.4886  133.3491  159.2885 H   0  0  0  0  0  0  0  0  0  0  0  0  # atno 6909 bound_to 6896
  145.7636  140.8849  143.0417 H   0  0  0  0  0  0  0  0  0  0  0  0  # atno 7974 bound_to 7965
  155.5318  140.3482  155.4428 H   0  0  0  0  0  0  0  0  0  0  0  0  # atno 8008 bound_to 7997
  156.0713  140.1364  156.9852 H   0  0  0  0  0  0  0  0  0  0  0  0  # atno 8009 bound_to 7997
  154.4529  140.0965  156.6648 H   0  0  0  0  0  0  0  0  0  0  0  0  # atno 8010 bound_to 7997
  139.4851  144.4520  151.8818 H   0  0  0  0  0  0  0  0  0  0  0  0  # atno 10167 bound_to 10162
  156.3942  130.7901  151.2106 H   0  0  0  0  0  0  0  0  0  0  0  0  # atno 10718 bound_to 10713
  154.4035  135.6025  153.5911 H   0  0  0  0  0  0  0  0  0  0  0  0  # atno 10763 bound_to 10752
  152.9788  135.5912  154.4155 H   0  0  0  0  0  0  0  0  0  0  0  0  # atno 10764 bound_to 10752
  154.3957  135.2842  155.2105 H   0  0  0  0  0  0  0  0  0  0  0  0  # atno 10765 bound_to 10752
  141.1538  133.7775  156.9922 H   0  0  0  0  0  0  0  0  0  0  0  0  # atno 11005 bound_to 11000
  144.6826  139.9757  143.7483 LP  0  0  0  0  0  0  0  0  0  0  0  0  # atno 17320 bound_to 7965
  146.0240  139.3276  143.0796 LP  0  0  0  0  0  0  0  0  0  0  0  0  # atno 17321 bound_to 7965
  140.3977  144.2533  150.5895 LP  0  0  0  0  0  0  0  0  0  0  0  0  # atno 17342 bound_to 10162
  140.5086  143.2297  151.8569 LP  0  0  0  0  0  0  0  0  0  0  0  0  # atno 17343 bound_to 10162
  157.7500  131.0306  150.4146 LP  0  0  0  0  0  0  0  0  0  0  0  0  # atno 17370 bound_to 10713
  156.4413  130.3992  149.6695 LP  0  0  0  0  0  0  0  0  0  0  0  0  # atno 17371 bound_to 10713
  140.0995  134.9544  157.1901 LP  0  0  0  0  0  0  0  0  0  0  0  0  # atno 17394 bound_to 11000
  140.3338  134.2781  155.7223 LP  0  0  0  0  0  0  0  0  0  0  0  0  # atno 17395 bound_to 11000

$$$$
