AV-unprocessed.smi:701|AV-procd|sdf|3413|dock7
  -GOLD-   22720 0393D 1   1.00000     0.00000
 Structure written by MMmdl.
 48 50  0  0  0  0  0  0  0  0  2 V2000
  151.5126  137.4553  154.8859 C   0  0  0  0  0  0  0  0  0  0  0  0
  151.3676  138.9720  154.7466 C   0  0  0  0  0  0  0  0  0  0  0  0
  151.3293  139.5432  156.0433 O   0  0  0  0  0  0  0  0  0  0  0  0
  151.1180  140.9497  156.0341 C   0  0  1  0  0  0  0  0  0  0  0  0
  149.8727  141.3441  155.2304 C   0  0  0  0  0  0  0  0  0  0  0  0
  149.0723  141.2741  156.5388 C   0  0  1  0  0  0  0  0  0  0  0  0
  148.4526  139.9618  156.7269 N   0  0  0  0  0  0  0  0  0  0  0  0
  147.4520  139.7042  157.5805 C   0  0  0  0  0  0  0  0  0  0  0  0
  146.9528  140.5641  158.3080 O   0  0  0  0  0  0  0  0  0  0  0  0
  146.9261  138.2619  157.5778 C   0  0  0  0  0  0  0  0  0  0  0  0
  147.1424  137.5602  158.8532 N   0  0  0  0  0  0  0  0  0  0  0  0
  146.0227  136.9790  159.4740 C   0  0  0  0  0  0  0  0  0  0  0  0
  146.1199  136.3271  160.6480 C   0  0  0  0  0  0  0  0  0  0  0  0
  147.4311  136.2308  161.2770 C   0  0  0  0  0  0  0  0  0  0  0  0
  147.5398  135.6343  162.3467 O   0  0  0  0  0  0  0  0  0  0  0  0
  148.4864  136.8151  160.6378 N   0  5  0  0  0  0  0  0  0  0  0  0
  148.3715  137.4798  159.4461 C   0  0  0  0  0  0  0  0  0  0  0  0
  149.3359  138.0064  158.8899 O   0  0  0  0  0  0  0  0  0  0  0  0
  150.4055  141.4508  157.3188 C   0  0  0  0  0  0  0  0  0  0  0  0
  150.6091  140.6188  158.6048 C   0  0  0  0  0  0  0  0  0  0  0  0
  152.0268  140.7547  159.1848 C   0  0  0  0  0  0  0  0  0  0  0  0
  152.3581  142.2186  159.4981 C   0  0  0  0  0  0  0  0  0  0  0  0
  152.1296  143.1104  158.2721 C   0  0  0  0  0  0  0  0  0  0  0  0
  150.7162  142.9157  157.6947 C   0  0  0  0  0  0  0  0  0  0  0  0
  151.5482  136.9752  153.9078 H   0  0  0  0  0  0  0  0  0  0  0  0
  150.6727  137.0317  155.4369 H   0  0  0  0  0  0  0  0  0  0  0  0
  152.4282  137.1973  155.4189 H   0  0  0  0  0  0  0  0  0  0  0  0
  152.2092  139.3781  154.1839 H   0  0  0  0  0  0  0  0  0  0  0  0
  150.4573  139.2068  154.1942 H   0  0  0  0  0  0  0  0  0  0  0  0
  152.0147  141.5150  155.7766 H   0  0  0  0  0  0  0  0  0  0  0  0
  149.9348  142.3572  154.8312 H   0  0  0  0  0  0  0  0  0  0  0  0
  149.5696  140.6373  154.4573 H   0  0  0  0  0  0  0  0  0  0  0  0
  148.3784  142.1064  156.6681 H   0  0  0  0  0  0  0  0  0  0  0  0
  148.8015  139.2038  156.1584 H   0  0  0  0  0  0  0  0  0  0  0  0
  145.8617  138.2889  157.3405 H   0  0  0  0  0  0  0  0  0  0  0  0
  147.3871  137.7104  156.7563 H   0  0  0  0  0  0  0  0  0  0  0  0
  145.0888  137.1029  158.9458 H   0  0  0  0  0  0  0  0  0  0  0  0
  145.2491  135.8904  161.1142 H   0  0  0  0  0  0  0  0  0  0  0  0
  149.8827  140.9201  159.3606 H   0  0  0  0  0  0  0  0  0  0  0  0
  150.4177  139.5607  158.4264 H   0  0  0  0  0  0  0  0  0  0  0  0
  152.1187  140.1527  160.0892 H   0  0  0  0  0  0  0  0  0  0  0  0
  152.7528  140.3573  158.4743 H   0  0  0  0  0  0  0  0  0  0  0  0
  151.7282  142.5641  160.3187 H   0  0  0  0  0  0  0  0  0  0  0  0
  153.3895  142.3068  159.8406 H   0  0  0  0  0  0  0  0  0  0  0  0
  152.2798  144.1559  158.5426 H   0  0  0  0  0  0  0  0  0  0  0  0
  152.8759  142.8815  157.5109 H   0  0  0  0  0  0  0  0  0  0  0  0
  150.6026  143.5676  156.8280 H   0  0  0  0  0  0  0  0  0  0  0  0
  149.9850  143.2732  158.4211 H   0  0  0  0  0  0  0  0  0  0  0  0
  1  2  1  0  0  0  0
  1 25  1  0  0  0  0
  1 26  1  0  0  0  0
  1 27  1  0  0  0  0
  2  3  1  0  0  0  0
  2 28  1  0  0  0  0
  2 29  1  0  0  0  0
  3  4  1  0  0  0  0
  4 19  1  0  0  0  0
  4  5  1  0  0  0  0
  4 30  1  0  0  0  0
  5  6  1  0  0  0  0
  5 31  1  0  0  0  0
  5 32  1  0  0  0  0
  6  7  1  0  0  0  0
  6 19  1  0  0  0  0
  6 33  1  0  0  0  0
  7  8  1  0  0  0  0
  7 34  1  0  0  0  0
  8  9  2  0  0  0  0
  8 10  1  0  0  0  0
 10 11  1  0  0  0  0
 10 35  1  0  0  0  0
 10 36  1  0  0  0  0
 11 17  1  0  0  0  0
 11 12  1  0  0  0  0
 12 13  2  0  0  0  0
 12 37  1  0  0  0  0
 13 14  1  0  0  0  0
 13 38  1  0  0  0  0
 14 15  2  0  0  0  0
 14 16  1  0  0  0  0
 16 17  1  0  0  0  0
 17 18  2  0  0  0  0
 19 24  1  0  0  0  0
 19 20  1  0  0  0  0
 20 21  1  0  0  0  0
 20 39  1  0  0  0  0
 20 40  1  0  0  0  0
 21 22  1  0  0  0  0
 21 41  1  0  0  0  0
 21 42  1  0  0  0  0
 22 23  1  0  0  0  0
 22 43  1  0  0  0  0
 22 44  1  0  0  0  0
 23 24  1  0  0  0  0
 23 45  1  0  0  0  0
 23 46  1  0  0  0  0
 24 47  1  0  0  0  0
 24 48  1  0  0  0  0
M  CHG  1  16  -1
M  END
> <s_m_source_file>
AV-unprocessed.smi

> <i_m_source_file_index>
701

> <i_lp_mmshare_version>
43012

> <i_f3d_flags>
0

> <s_epik_input>
W0NIMl0xW0NIMl1bQ0gyXVtDSDJdW0NIMl1DMTJbQ0BIXShPW0NIMl1bQ0gzXSlbQ0gyXVtDQEhdMltOSF1DKD1PKVtDSDJdbjNbY0hdW2NIXWMoPU8pW25IXWMzPU8=

> <s_epik_cmdline>
J2VwaWtfcHl0aG9uJywgJy1waCcsICc3LjAnLCAnLXRuJywgJzgnLCAnLW1hJywgJzIwMCcsICctbWV0YWxfYmluZGluZycsICctaW1hZScsICc8aW5maWxlLm1hZT4nLCAnLW9tYWUnLCAnPG91dGZpbGUubWFlPic=

> <r_lp_tautomer_probability>
0.999537

> <r_epik_Ionization_Penalty>
3.12423

> <r_epik_Ionization_Penalty_Charging>
2.92877e-08

> <r_epik_Ionization_Penalty_Neutral>
3.12423

> <r_epik_State_Penalty>
3.12332

> <r_epik_Charging_Adjusted_Penalty>
3.12332

> <i_epik_Tot_Q>
-1

> <i_epik_Tot_abs_Q>
1

> <r_epik_Metal_State_Penalty>
0.463873

> <b_epik_Metal_Only>
1

> <s_lp_Force_Field>
OPLS_2005

> <r_lp_Energy>
39.3964

> <b_lp_Chiralities_Consistent>
1

> <s_lp_Variant>
AV-unprocessed.smi:701-6

> <Gold.Version>
5.8.1

> <Gold.Id.Protein>
6NUR|6NUR_protein|mol2

> <Gold.PLP.Fitness>
39.0702

> <Gold.PLP.PLP>
-34.1627

> <Gold.PLP.part.hbond>
-2.0000

> <Gold.PLP.part.metal>
0.0000

> <Gold.PLP.part.buried>
-3.8053

> <Gold.PLP.part.nonpolar>
-28.9381

> <Gold.PLP.part.repulsive>
0.0301

> <Gold.PLP.ligand.clash>
0.0000

> <Gold.PLP.ligand.torsion>
0.5124

> <Gold.PLP.Chemscore.Hbond>
1.8602

> <Gold.PLP.Chemscore.CHOScore>
0.0000

> <Gold.PLP.Chemscore.Metal>
0.0000

> <Gold.Chemscore.Hbonds>
donor molecule, donor type, donor heavy atom, donor atom, acceptor molecule, acceptor atom, score
      P1  H  6931  6943       L1    16  1.86
      P1  H  6934  6946       L1     9  0.01

> <Gold.PLP.Chemscore.Internal.Correction>
0.3518

> <Gold.Rescore>
     Score         DG    S(hbond)    S(metal)    S(lipo)     H(rot)  DE(clash)    DE(int)     intcor
      9.89     -10.54       0.17        0.00      83.16       2.04       0.01       0.64       ----

> <Gold.Chemscore.Fitness>
9.8911

> <Gold.Chemscore.DG>
-10.5449

> <Gold.Chemscore.ZeroCoef>
-5.4800

> <Gold.Chemscore.Hbond>
0.1669

> <Gold.Chemscore.Metal>
0.0000

> <Gold.Chemscore.Lipo>
83.1582

> <Gold.Chemscore.Internal_Hbond>
0.0000

> <Gold.Chemscore.DEClash>
0.0141

> <Gold.Chemscore.DEInternal>
0.6397

> <Gold.Chemscore.Rot>
2.0399

> <Gold.Chemscore.Internal.Correction>
   9.000000E+99

> <Gold.Chemscore.Hbonds>
donor molecule, donor type, donor heavy atom, donor atom, acceptor molecule, acceptor atom, score
      P1  H  6931  6943       L1    16  0.16
      P1  H  6934  6946       L1     9  0.02

> <Gold.Chemscore.Hbond.Weighted>
-0.5575

> <Gold.Chemscore.Metal.Weighted>
-0.0000

> <Gold.Chemscore.Lipo.Weighted>
-9.7295

> <Gold.Chemscore.Internal_Hbond.Weighted>
0.0000

> <Gold.Chemscore.DEClash.Weighted>
0.0141

> <Gold.Chemscore.DEInternal.Weighted>
0.6397

> <Gold.Chemscore.Rot.Weighted>
5.2222

> <Gold.Chemscore.Internal.Correction.Weighted>
   9.000000E+99

> <Gold.Protein.RotatedTorsions>
[ 6907 6896 6895 6894 ] final   56.76 input  -60.11 | X-H torsion
[ 7974 7965 7964 7962 ] final    4.25 input  175.53 | X-H torsion
[ 8008 7997 7996 7995 ] final  173.57 input   59.86 | X-H torsion
[ 10167 10162 10161 10158 ] final  -93.59 input  -65.29 | X-H torsion
[ 10718 10713 10712 10709 ] final   14.72 input   66.30 | X-H torsion
[ 10763 10752 10751 10750 ] final   42.03 input  -60.55 | X-H torsion
[ 11005 11000 10999 10996 ] final  170.29 input  -57.11 | X-H torsion

> <Gold.Protein.ActiveResidues>
 VAL166  LYS551  ARG553  GLY616  TRP617  ASP618  TYR619  PRO620  LYS621  CYS622 
 ASP623  PHE694  ASN695  SER759  ASP760  ASP761  ALA762  ILE779  LEU786  VAL792 
 PHE793  MET794  SER795  GLU796  ALA797  LYS798  CYS799  TRP800  GLU811  SER814 

> <Gold.Protein.RotatedAtoms>
  152.3667  134.6794  160.0189 H   0  0  0  0  0  0  0  0  0  0  0  0  # atno 6907 bound_to 6896
  151.7100  133.3307  159.3296 H   0  0  0  0  0  0  0  0  0  0  0  0  # atno 6908 bound_to 6896
  150.7643  134.6475  159.6315 H   0  0  0  0  0  0  0  0  0  0  0  0  # atno 6909 bound_to 6896
  146.2444  140.0562  142.8371 H   0  0  0  0  0  0  0  0  0  0  0  0  # atno 7974 bound_to 7965
  156.1062  140.1457  156.9400 H   0  0  0  0  0  0  0  0  0  0  0  0  # atno 8008 bound_to 7997
  154.4736  140.0902  156.7250 H   0  0  0  0  0  0  0  0  0  0  0  0  # atno 8009 bound_to 7997
  155.4675  140.3440  155.4323 H   0  0  0  0  0  0  0  0  0  0  0  0  # atno 8010 bound_to 7997
  140.3231  143.3037  152.0024 H   0  0  0  0  0  0  0  0  0  0  0  0  # atno 10167 bound_to 10162
  157.0431  130.6239  149.5754 H   0  0  0  0  0  0  0  0  0  0  0  0  # atno 10718 bound_to 10713
  152.9893  135.6144  154.2883 H   0  0  0  0  0  0  0  0  0  0  0  0  # atno 10763 bound_to 10752
  154.2610  135.2782  155.2780 H   0  0  0  0  0  0  0  0  0  0  0  0  # atno 10764 bound_to 10752
  154.5206  135.5816  153.6735 H   0  0  0  0  0  0  0  0  0  0  0  0  # atno 10765 bound_to 10752
  140.3068  134.7550  157.3959 H   0  0  0  0  0  0  0  0  0  0  0  0  # atno 11005 bound_to 11000
  145.0940  140.9303  143.4752 LP  0  0  0  0  0  0  0  0  0  0  0  0  # atno 17320 bound_to 7965
  145.0741  139.3009  143.5817 LP  0  0  0  0  0  0  0  0  0  0  0  0  # atno 17321 bound_to 7965
  139.4870  144.6295  151.7098 LP  0  0  0  0  0  0  0  0  0  0  0  0  # atno 17342 bound_to 10162
  140.5465  144.0494  150.6109 LP  0  0  0  0  0  0  0  0  0  0  0  0  # atno 17343 bound_to 10162
  156.0031  130.5114  150.7736 LP  0  0  0  0  0  0  0  0  0  0  0  0  # atno 17370 bound_to 10713
  157.5089  131.0924  151.0223 LP  0  0  0  0  0  0  0  0  0  0  0  0  # atno 17371 bound_to 10713
  140.1060  134.5408  155.8309 LP  0  0  0  0  0  0  0  0  0  0  0  0  # atno 17394 bound_to 11000
  141.2117  133.6709  156.6600 LP  0  0  0  0  0  0  0  0  0  0  0  0  # atno 17395 bound_to 11000

$$$$
