AV-unprocessed.smi:2702|AV-procd|sdf|10430|dock9
  -GOLD-   2272014473D 1   1.00000     0.00000
 Structure written by MMmdl.
 47 48  0  0  0  0  0  0  0  0  1 V2000
  147.7303  135.9836  162.8324 C   0  0  0  0  0  0  0  0  0  0  0  0
  148.2909  136.6684  161.7264 O   0  0  0  0  0  0  0  0  0  0  0  0
  147.7753  136.2127  160.4872 C   0  0  0  0  0  0  0  0  0  0  0  0
  148.5160  136.8616  159.3359 C   0  0  0  0  0  0  0  0  0  0  0  0
  147.8881  137.6646  158.4459 C   0  0  0  0  0  0  0  0  0  0  0  0
  148.6245  138.2660  157.3341 C   0  0  0  0  0  0  0  0  0  0  0  0
  148.0918  139.0122  156.5122 O   0  0  0  0  0  0  0  0  0  0  0  0
  149.9487  137.9365  157.2769 N   0  0  0  0  0  0  0  0  0  0  0  0
  150.8268  138.4696  156.2189 C   0  0  0  0  0  0  0  0  0  0  0  0
  151.3799  139.8695  156.5262 C   0  0  0  0  0  0  0  0  0  0  0  0
  151.3712  140.7561  155.6710 O   0  0  0  0  0  0  0  0  0  0  0  0
  151.8400  140.0511  157.7739 N   0  0  0  0  0  0  0  0  0  0  0  0
  152.3944  141.2923  158.3135 C   0  0  2  0  0  0  0  0  0  0  0  0
  153.2174  140.9584  159.5729 C   0  0  0  0  0  0  0  0  0  0  0  0
  153.7713  142.2217  160.2462 C   0  0  0  0  0  0  0  0  0  0  0  0
  152.6451  143.2162  160.5679 C   0  0  0  0  0  0  0  0  0  0  0  0
  151.8209  143.5872  159.3183 C   0  0  1  0  0  0  0  0  0  0  0  0
  152.6096  144.5160  158.3722 C   0  0  0  0  0  0  0  0  0  0  0  0
  151.2659  142.3084  158.6350 C   0  0  1  0  0  0  0  0  0  0  0  0
  150.3770  142.6344  157.4182 C   0  0  0  0  0  0  0  0  0  0  0  0
  150.5511  137.0875  158.2269 C   0  0  0  0  0  0  0  0  0  0  0  0
  149.8775  136.5701  159.2044 N   0  0  0  0  0  0  0  0  0  0  0  0
  148.1619  136.3665  163.7570 H   0  0  0  0  0  0  0  0  0  0  0  0
  147.9384  134.9140  162.7813 H   0  0  0  0  0  0  0  0  0  0  0  0
  146.6502  136.1288  162.8801 H   0  0  0  0  0  0  0  0  0  0  0  0
  147.8759  135.1283  160.4152 H   0  0  0  0  0  0  0  0  0  0  0  0
  146.7112  136.4433  160.4131 H   0  0  0  0  0  0  0  0  0  0  0  0
  146.8333  137.8714  158.5544 H   0  0  0  0  0  0  0  0  0  0  0  0
  151.6706  137.8020  156.0349 H   0  0  0  0  0  0  0  0  0  0  0  0
  150.2883  138.5053  155.2699 H   0  0  0  0  0  0  0  0  0  0  0  0
  151.8005  139.2649  158.4062 H   0  0  0  0  0  0  0  0  0  0  0  0
  153.0706  141.7417  157.5848 H   0  0  0  0  0  0  0  0  0  0  0  0
  152.5953  140.4172  160.2875 H   0  0  0  0  0  0  0  0  0  0  0  0
  154.0407  140.2912  159.3151 H   0  0  0  0  0  0  0  0  0  0  0  0
  154.2983  141.9511  161.1616 H   0  0  0  0  0  0  0  0  0  0  0  0
  154.5112  142.6906  159.5971 H   0  0  0  0  0  0  0  0  0  0  0  0
  151.9845  142.7736  161.3148 H   0  0  0  0  0  0  0  0  0  0  0  0
  153.0596  144.1138  161.0283 H   0  0  0  0  0  0  0  0  0  0  0  0
  150.9651  144.1663  159.6685 H   0  0  0  0  0  0  0  0  0  0  0  0
  153.4631  144.0140  157.9181 H   0  0  0  0  0  0  0  0  0  0  0  0
  152.9895  145.3853  158.9095 H   0  0  0  0  0  0  0  0  0  0  0  0
  151.9812  144.8933  157.5658 H   0  0  0  0  0  0  0  0  0  0  0  0
  150.6104  141.8325  159.3665 H   0  0  0  0  0  0  0  0  0  0  0  0
  150.9675  142.9904  156.5738 H   0  0  0  0  0  0  0  0  0  0  0  0
  149.6424  143.4020  157.6621 H   0  0  0  0  0  0  0  0  0  0  0  0
  149.8235  141.7576  157.0816 H   0  0  0  0  0  0  0  0  0  0  0  0
  151.6171  136.9038  158.0817 H   0  0  0  0  0  0  0  0  0  0  0  0
  1  2  1  0  0  0  0
  1 23  1  0  0  0  0
  1 24  1  0  0  0  0
  1 25  1  0  0  0  0
  2  3  1  0  0  0  0
  3  4  1  0  0  0  0
  3 26  1  0  0  0  0
  3 27  1  0  0  0  0
  4 22  1  0  0  0  0
  4  5  2  0  0  0  0
  5  6  1  0  0  0  0
  5 28  1  0  0  0  0
  6  7  2  0  0  0  0
  6  8  1  0  0  0  0
  8  9  1  0  0  0  0
  8 21  1  0  0  0  0
  9 10  1  0  0  0  0
  9 29  1  0  0  0  0
  9 30  1  0  0  0  0
 10 11  2  0  0  0  0
 10 12  1  0  0  0  0
 12 13  1  0  0  0  0
 12 31  1  0  0  0  0
 13 19  1  0  0  0  0
 13 14  1  0  0  0  0
 13 32  1  0  0  0  0
 14 15  1  0  0  0  0
 14 33  1  0  0  0  0
 14 34  1  0  0  0  0
 15 16  1  0  0  0  0
 15 35  1  0  0  0  0
 15 36  1  0  0  0  0
 16 17  1  0  0  0  0
 16 37  1  0  0  0  0
 16 38  1  0  0  0  0
 17 18  1  0  0  0  0
 17 19  1  0  0  0  0
 17 39  1  0  0  0  0
 18 40  1  0  0  0  0
 18 41  1  0  0  0  0
 18 42  1  0  0  0  0
 19 20  1  0  0  0  0
 19 43  1  0  0  0  0
 20 44  1  0  0  0  0
 20 45  1  0  0  0  0
 20 46  1  0  0  0  0
 21 22  2  0  0  0  0
 21 47  1  0  0  0  0
M  END
> <s_m_source_file>
AV-unprocessed.smi

> <i_m_source_file_index>
2702

> <i_lp_mmshare_version>
43012

> <i_f3d_flags>
0

> <s_epik_input>
W0NIM11PW0NIMl1jMVtjSF1jKD1PKW4oW2NIXW4xKVtDSDJdQyg9TylbTkhdW0NAQEhdMltDSDJdW0NIMl1bQ0gyXVtDQEBIXShbQ0gzXSlbQ0BIXTJbQ0gzXQ==

> <s_epik_cmdline>
J2VwaWtfcHl0aG9uJywgJy1waCcsICc3LjAnLCAnLXRuJywgJzgnLCAnLW1hJywgJzIwMCcsICctbWV0YWxfYmluZGluZycsICctaW1hZScsICc8aW5maWxlLm1hZT4nLCAnLW9tYWUnLCAnPG91dGZpbGUubWFlPic=

> <r_lp_tautomer_probability>
1

> <r_epik_Ionization_Penalty>
1.22164e-06

> <r_epik_Ionization_Penalty_Charging>
3.17988e-07

> <r_epik_Ionization_Penalty_Neutral>
9.03656e-07

> <r_epik_State_Penalty>
-0

> <r_epik_Charging_Adjusted_Penalty>
3.17988e-07

> <i_epik_Tot_Q>
0

> <i_epik_Tot_abs_Q>
0

> <r_epik_Metal_State_Penalty>
-0

> <b_epik_Metal_Only>
0

> <s_lp_Force_Field>
OPLS_2005

> <r_lp_Energy>
19.3371

> <b_lp_Chiralities_Consistent>
1

> <s_lp_Variant>
AV-unprocessed.smi:2702-1

> <Gold.Version>
5.8.1

> <Gold.Id.Protein>
6NUR|6NUR_protein|mol2

> <Gold.PLP.Fitness>
47.4871

> <Gold.PLP.PLP>
-41.3144

> <Gold.PLP.part.hbond>
-3.0000

> <Gold.PLP.part.metal>
0.0000

> <Gold.PLP.part.buried>
-4.5751

> <Gold.PLP.part.nonpolar>
-33.2314

> <Gold.PLP.part.repulsive>
0.0851

> <Gold.PLP.ligand.clash>
0.0000

> <Gold.PLP.ligand.torsion>
0.7798

> <Gold.PLP.Chemscore.Hbond>
2.5741

> <Gold.PLP.Chemscore.CHOScore>
0.0000

> <Gold.PLP.Chemscore.Metal>
0.0000

> <Gold.Chemscore.Hbonds>
donor molecule, donor type, donor heavy atom, donor atom, acceptor molecule, acceptor atom, score
      P1  H  6896  6909       L1    22  1.00
      P1  H  6931  6943       L1     2  1.00
      P1  H  7989  7998       L1    11  0.46

> <Gold.PLP.Chemscore.Internal.Correction>
0.0102

> <Gold.Rescore>
     Score         DG    S(hbond)    S(metal)    S(lipo)     H(rot)  DE(clash)    DE(int)     intcor
     20.40     -21.47       2.54        0.00     106.29       1.93       0.11       0.97       ----

> <Gold.Chemscore.Fitness>
20.3976

> <Gold.Chemscore.DG>
-21.4723

> <Gold.Chemscore.ZeroCoef>
-5.4800

> <Gold.Chemscore.Hbond>
2.5430

> <Gold.Chemscore.Metal>
0.0000

> <Gold.Chemscore.Lipo>
106.2871

> <Gold.Chemscore.Internal_Hbond>
0.0000

> <Gold.Chemscore.DEClash>
0.1056

> <Gold.Chemscore.DEInternal>
0.9691

> <Gold.Chemscore.Rot>
1.9284

> <Gold.Chemscore.Internal.Correction>
   9.000000E+99

> <Gold.Chemscore.Hbonds>
donor molecule, donor type, donor heavy atom, donor atom, acceptor molecule, acceptor atom, score
      P1  H  6896  6909       L1    22  0.51
      P1  H  6931  6943       L1     2  0.98
      P1  H  7989  7998       L1    11  0.45

> <Gold.Chemscore.Hbond.Weighted>
-8.4935

> <Gold.Chemscore.Metal.Weighted>
-0.0000

> <Gold.Chemscore.Lipo.Weighted>
-12.4356

> <Gold.Chemscore.Internal_Hbond.Weighted>
0.0000

> <Gold.Chemscore.DEClash.Weighted>
0.1056

> <Gold.Chemscore.DEInternal.Weighted>
0.9691

> <Gold.Chemscore.Rot.Weighted>
4.9368

> <Gold.Chemscore.Internal.Correction.Weighted>
   9.000000E+99

> <Gold.Protein.RotatedTorsions>
[ 6907 6896 6895 6894 ] final   66.64 input  -60.11 | X-H torsion
[ 7974 7965 7964 7962 ] final  -15.46 input  175.53 | X-H torsion
[ 8008 7997 7996 7995 ] final -100.93 input   59.86 | X-H torsion
[ 10167 10162 10161 10158 ] final   90.18 input  -65.29 | X-H torsion
[ 10718 10713 10712 10709 ] final -110.93 input   66.30 | X-H torsion
[ 10763 10752 10751 10750 ] final  -76.13 input  -60.55 | X-H torsion
[ 11005 11000 10999 10996 ] final  -37.20 input  -57.11 | X-H torsion

> <Gold.Protein.ActiveResidues>
 VAL166  LYS551  ARG553  GLY616  TRP617  ASP618  TYR619  PRO620  LYS621  CYS622 
 ASP623  PHE694  ASN695  SER759  ASP760  ASP761  ALA762  ILE779  LEU786  VAL792 
 PHE793  MET794  SER795  GLU796  ALA797  LYS798  CYS799  TRP800  GLU811  SER814 

> <Gold.Protein.RotatedAtoms>
  152.4495  134.5423  159.9842 H   0  0  0  0  0  0  0  0  0  0  0  0  # atno 6907 bound_to 6896
  151.5500  133.3413  159.2959 H   0  0  0  0  0  0  0  0  0  0  0  0  # atno 6908 bound_to 6896
  150.8420  134.7747  159.7003 H   0  0  0  0  0  0  0  0  0  0  0  0  # atno 6909 bound_to 6896
  146.2031  140.3496  142.8416 H   0  0  0  0  0  0  0  0  0  0  0  0  # atno 7974 bound_to 7965
  154.8355  140.0437  157.1506 H   0  0  0  0  0  0  0  0  0  0  0  0  # atno 8008 bound_to 7997
  154.9104  140.3013  155.5249 H   0  0  0  0  0  0  0  0  0  0  0  0  # atno 8009 bound_to 7997
  156.2989  140.2359  156.4143 H   0  0  0  0  0  0  0  0  0  0  0  0  # atno 8010 bound_to 7997
  139.8498  144.6599  150.9183 H   0  0  0  0  0  0  0  0  0  0  0  0  # atno 10167 bound_to 10162
  156.0618  130.5841  150.8304 H   0  0  0  0  0  0  0  0  0  0  0  0  # atno 10718 bound_to 10713
  154.4958  135.5808  153.6493 H   0  0  0  0  0  0  0  0  0  0  0  0  # atno 10763 bound_to 10752
  152.9870  135.6124  154.3066 H   0  0  0  0  0  0  0  0  0  0  0  0  # atno 10764 bound_to 10752
  154.2969  135.2847  155.2608 H   0  0  0  0  0  0  0  0  0  0  0  0  # atno 10765 bound_to 10752
  140.9933  133.6993  156.1890 H   0  0  0  0  0  0  0  0  0  0  0  0  # atno 11005 bound_to 11000
  144.8728  140.7296  143.6036 LP  0  0  0  0  0  0  0  0  0  0  0  0  # atno 17320 bound_to 7965
  145.3416  139.1731  143.4483 LP  0  0  0  0  0  0  0  0  0  0  0  0  # atno 17321 bound_to 7965
  140.7789  143.3837  151.1431 LP  0  0  0  0  0  0  0  0  0  0  0  0  # atno 17342 bound_to 10162
  139.7476  143.8828  152.3068 LP  0  0  0  0  0  0  0  0  0  0  0  0  # atno 17343 bound_to 10162
  157.5632  131.0946  150.9528 LP  0  0  0  0  0  0  0  0  0  0  0  0  # atno 17370 bound_to 10713
  156.9761  130.5509  149.5293 LP  0  0  0  0  0  0  0  0  0  0  0  0  # atno 17371 bound_to 10713
  140.7005  134.4569  157.5586 LP  0  0  0  0  0  0  0  0  0  0  0  0  # atno 17394 bound_to 11000
  139.9003  134.8572  156.1926 LP  0  0  0  0  0  0  0  0  0  0  0  0  # atno 17395 bound_to 11000

$$$$
