AV-unprocessed.smi:2775|AV-procd|sdf|10696|dock3
  -GOLD-   2272015133D 1   1.00000     0.00000
 Structure written by MMmdl.
 43 46  0  0  0  0  0  0  0  0  2 V2000
  144.3112  132.3281  150.6679 C   0  0  0  0  0  0  0  0  0  0  0  0
  144.2760  133.6441  151.4209 C   0  0  0  0  0  0  0  0  0  0  0  0
  143.0655  134.1642  151.7206 N   0  3  0  0  0  0  0  0  0  0  0  0
  142.9091  135.3307  152.3798 C   0  0  0  0  0  0  0  0  0  0  0  0
  144.0399  136.0602  152.7951 C   0  0  0  0  0  0  0  0  0  0  0  0
  145.3356  135.5526  152.5220 C   0  0  0  0  0  0  0  0  0  0  0  0
  146.5315  136.2276  152.8935 N   0  0  0  0  0  0  0  0  0  0  0  0
  146.7393  137.0794  153.9164 C   0  0  0  0  0  0  0  0  0  0  0  0
  145.8687  137.4786  154.6862 O   0  0  0  0  0  0  0  0  0  0  0  0
  148.0190  137.4673  154.0496 N   0  0  0  0  0  0  0  0  0  0  0  0
  148.5732  138.3830  155.0563 C   0  0  2  0  0  0  0  0  0  0  0  0
  148.0759  139.8302  154.9291 C   0  0  2  0  0  0  0  0  0  0  0  0
  146.8745  140.4922  154.3572 C   0  0  0  0  0  0  0  0  0  0  0  0
  147.6030  141.7159  153.7455 C   0  0  0  0  0  0  0  0  0  0  0  0
  149.0203  141.4378  153.8753 O   0  0  0  0  0  0  0  0  0  0  0  0
  149.1108  140.0255  153.8330 C   0  0  1  0  0  0  0  0  0  0  0  0
  149.9434  139.0184  154.6439 C   0  0  0  0  0  0  0  0  0  0  0  0
  150.9660  139.4834  155.6937 C   0  0  0  0  0  0  0  0  0  0  0  0
  151.8149  138.2604  155.3325 C   0  0  0  0  0  0  0  0  0  0  0  0
  151.0616  138.1868  154.0005 C   0  0  0  0  0  0  0  0  0  0  0  0
  145.4493  134.3328  151.8096 C   0  0  0  0  0  0  0  0  0  0  0  0
  147.0066  133.6829  151.4200 Cl  0  0  0  0  0  0  0  0  0  0  0  0
  144.8721  131.5823  151.2320 H   0  0  0  0  0  0  0  0  0  0  0  0
  144.7905  132.4589  149.6974 H   0  0  0  0  0  0  0  0  0  0  0  0
  143.3064  131.9382  150.5003 H   0  0  0  0  0  0  0  0  0  0  0  0
  141.8901  135.6468  152.5498 H   0  0  0  0  0  0  0  0  0  0  0  0
  143.8897  137.0001  153.3036 H   0  0  0  0  0  0  0  0  0  0  0  0
  147.3588  135.9470  152.3869 H   0  0  0  0  0  0  0  0  0  0  0  0
  148.6783  137.0987  153.3790 H   0  0  0  0  0  0  0  0  0  0  0  0
  148.5666  137.9936  156.0756 H   0  0  0  0  0  0  0  0  0  0  0  0
  148.3583  140.3526  155.8505 H   0  0  0  0  0  0  0  0  0  0  0  0
  146.3882  139.8835  153.5940 H   0  0  0  0  0  0  0  0  0  0  0  0
  146.1432  140.7751  155.1141 H   0  0  0  0  0  0  0  0  0  0  0  0
  147.3350  141.8414  152.6957 H   0  0  0  0  0  0  0  0  0  0  0  0
  147.3608  142.6404  154.2704 H   0  0  0  0  0  0  0  0  0  0  0  0
  148.8088  139.6348  152.8567 H   0  0  0  0  0  0  0  0  0  0  0  0
  151.4465  140.4254  155.4244 H   0  0  0  0  0  0  0  0  0  0  0  0
  150.6008  139.4952  156.7210 H   0  0  0  0  0  0  0  0  0  0  0  0
  152.8836  138.4568  155.2423 H   0  0  0  0  0  0  0  0  0  0  0  0
  151.6134  137.4033  155.9768 H   0  0  0  0  0  0  0  0  0  0  0  0
  150.7783  137.1789  153.6964 H   0  0  0  0  0  0  0  0  0  0  0  0
  151.5731  138.7209  153.1982 H   0  0  0  0  0  0  0  0  0  0  0  0
  142.2311  133.6539  151.4298 H   0  0  0  0  0  0  0  0  0  0  0  0
  1  2  1  0  0  0  0
  1 23  1  0  0  0  0
  1 24  1  0  0  0  0
  1 25  1  0  0  0  0
  2 21  1  0  0  0  0
  2  3  2  0  0  0  0
  3  4  1  0  0  0  0
  3 43  1  0  0  0  0
  4  5  2  0  0  0  0
  4 26  1  0  0  0  0
  5  6  1  0  0  0  0
  5 27  1  0  0  0  0
  6  7  1  0  0  0  0
  6 21  2  0  0  0  0
  7  8  1  0  0  0  0
  7 28  1  0  0  0  0
  8  9  2  0  0  0  0
  8 10  1  0  0  0  0
 10 11  1  0  0  0  0
 10 29  1  0  0  0  0
 11 17  1  0  0  0  0
 11 12  1  0  0  0  0
 11 30  1  0  0  0  0
 12 16  1  0  0  0  0
 12 13  1  0  0  0  0
 12 31  1  0  0  0  0
 13 14  1  0  0  0  0
 13 32  1  0  0  0  0
 13 33  1  0  0  0  0
 14 15  1  0  0  0  0
 14 34  1  0  0  0  0
 14 35  1  0  0  0  0
 15 16  1  0  0  0  0
 16 17  1  0  0  0  0
 16 36  1  0  0  0  0
 17 20  1  0  0  0  0
 17 18  1  0  0  0  0
 18 19  1  0  0  0  0
 18 37  1  0  0  0  0
 18 38  1  0  0  0  0
 19 20  1  0  0  0  0
 19 39  1  0  0  0  0
 19 40  1  0  0  0  0
 20 41  1  0  0  0  0
 20 42  1  0  0  0  0
 21 22  1  0  0  0  0
M  CHG  1   3   1
M  END
> <s_m_source_file>
AV-unprocessed.smi

> <i_m_source_file_index>
2775

> <i_lp_mmshare_version>
43012

> <i_f3d_flags>
0

> <s_epik_input>
W0NIM11jMW5bY0hdW2NIXWMoYzFDbClbTkhdQyg9TylbTkhdW0NAQEhdMltDQEhdKFtDSDJdW0NIMl1PMylbQ0BASF0zQzI0W0NIMl1bQ0gyXVtDSDJdNA==

> <s_epik_cmdline>
J2VwaWtfcHl0aG9uJywgJy1waCcsICc3LjAnLCAnLXRuJywgJzgnLCAnLW1hJywgJzIwMCcsICctbWV0YWxfYmluZGluZycsICctaW1hZScsICc8aW5maWxlLm1hZT4nLCAnLW9tYWUnLCAnPG91dGZpbGUubWFlPic=

> <r_epik_Ionization_Penalty>
2.4104

> <r_epik_Ionization_Penalty_Charging>
2.41038

> <r_epik_Ionization_Penalty_Neutral>
1.9872e-05

> <r_epik_State_Penalty>
2.56896

> <r_epik_Charging_Adjusted_Penalty>
4.97934

> <i_epik_Tot_Q>
1

> <i_epik_Tot_abs_Q>
1

> <r_epik_Metal_State_Penalty>
2.57906

> <b_epik_Metal_Only>
0

> <s_lp_Force_Field>
OPLS_2005

> <r_lp_Energy>
86.9508

> <b_lp_Chiralities_Consistent>
1

> <s_lp_Variant>
AV-unprocessed.smi:2775-9

> <Gold.Version>
5.8.1

> <Gold.Id.Protein>
6NUR|6NUR_protein|mol2

> <Gold.PLP.Fitness>
42.1344

> <Gold.PLP.PLP>
-32.9603

> <Gold.PLP.part.hbond>
-4.6347

> <Gold.PLP.part.metal>
0.0000

> <Gold.PLP.part.buried>
-3.1089

> <Gold.PLP.part.nonpolar>
-24.9680

> <Gold.PLP.part.repulsive>
0.2581

> <Gold.PLP.ligand.clash>
0.0000

> <Gold.PLP.ligand.torsion>
0.3206

> <Gold.PLP.Chemscore.Hbond>
3.1661

> <Gold.PLP.Chemscore.CHOScore>
0.0000

> <Gold.PLP.Chemscore.Metal>
0.0000

> <Gold.Chemscore.Hbonds>
donor molecule, donor type, donor heavy atom, donor atom, acceptor molecule, acceptor atom, score
      L1  H     3    43       P1 10186  0.15
      L1  H     7    28       P1  7948  1.00
      L1  H    10    29       P1  7948  0.99
      P1  H  8011  8017       L1    15  0.75

> <Gold.PLP.Chemscore.Internal.Correction>
0.3170

> <Gold.Rescore>
     Score         DG    S(hbond)    S(metal)    S(lipo)     H(rot)  DE(clash)    DE(int)     intcor
     18.54     -21.04       2.36        0.00      87.60       1.00       1.15       1.35       ----

> <Gold.Chemscore.Fitness>
18.5421

> <Gold.Chemscore.DG>
-21.0418

> <Gold.Chemscore.ZeroCoef>
-5.4800

> <Gold.Chemscore.Hbond>
2.3570

> <Gold.Chemscore.Metal>
0.0000

> <Gold.Chemscore.Lipo>
87.6002

> <Gold.Chemscore.Internal_Hbond>
0.0000

> <Gold.Chemscore.DEClash>
1.1490

> <Gold.Chemscore.DEInternal>
1.3507

> <Gold.Chemscore.Rot>
1.0000

> <Gold.Chemscore.Internal.Correction>
   9.000000E+99

> <Gold.Chemscore.Hbonds>
donor molecule, donor type, donor heavy atom, donor atom, acceptor molecule, acceptor atom, score
      L1  H     3    43       P1 10186  0.02
      L1  H     7    28       P1  7948  0.96
      L1  H    10    29       P1  7948  0.93
      P1  H  8011  8017       L1    15  0.24

> <Gold.Chemscore.Hbond.Weighted>
-7.8725

> <Gold.Chemscore.Metal.Weighted>
-0.0000

> <Gold.Chemscore.Lipo.Weighted>
-10.2492

> <Gold.Chemscore.Internal_Hbond.Weighted>
0.0000

> <Gold.Chemscore.DEClash.Weighted>
1.1490

> <Gold.Chemscore.DEInternal.Weighted>
1.3507

> <Gold.Chemscore.Rot.Weighted>
2.5600

> <Gold.Chemscore.Internal.Correction.Weighted>
   9.000000E+99

> <Gold.Protein.RotatedTorsions>
[ 6907 6896 6895 6894 ] final   39.47 input  -60.11 | X-H torsion
[ 7974 7965 7964 7962 ] final  -53.87 input  175.53 | X-H torsion
[ 8008 7997 7996 7995 ] final  -99.14 input   59.86 | X-H torsion
[ 10167 10162 10161 10158 ] final  151.03 input  -65.29 | X-H torsion
[ 10718 10713 10712 10709 ] final  115.20 input   66.30 | X-H torsion
[ 10763 10752 10751 10750 ] final -128.03 input  -60.55 | X-H torsion
[ 11005 11000 10999 10996 ] final  146.19 input  -57.11 | X-H torsion

> <Gold.Protein.ActiveResidues>
 VAL166  LYS551  ARG553  GLY616  TRP617  ASP618  TYR619  PRO620  LYS621  CYS622 
 ASP623  PHE694  ASN695  SER759  ASP760  ASP761  ALA762  ILE779  LEU786  VAL792 
 PHE793  MET794  SER795  GLU796  ALA797  LYS798  CYS799  TRP800  GLU811  SER814 

> <Gold.Protein.RotatedAtoms>
  152.1700  134.8842  160.0534 H   0  0  0  0  0  0  0  0  0  0  0  0  # atno 6907 bound_to 6896
  151.9805  133.3751  159.4114 H   0  0  0  0  0  0  0  0  0  0  0  0  # atno 6908 bound_to 6896
  150.6900  134.3966  159.5144 H   0  0  0  0  0  0  0  0  0  0  0  0  # atno 6909 bound_to 6896
  145.8920  140.8063  142.9787 H   0  0  0  0  0  0  0  0  0  0  0  0  # atno 7974 bound_to 7965
  154.8107  140.0450  157.1340 H   0  0  0  0  0  0  0  0  0  0  0  0  # atno 8008 bound_to 7997
  154.9371  140.3047  155.5119 H   0  0  0  0  0  0  0  0  0  0  0  0  # atno 8009 bound_to 7997
  156.2971  140.2312  156.4437 H   0  0  0  0  0  0  0  0  0  0  0  0  # atno 8010 bound_to 7997
  139.4844  144.5474  151.7460 H   0  0  0  0  0  0  0  0  0  0  0  0  # atno 10167 bound_to 10162
  157.6236  131.1009  150.7295 H   0  0  0  0  0  0  0  0  0  0  0  0  # atno 10718 bound_to 10713
  154.8755  135.3942  154.3691 H   0  0  0  0  0  0  0  0  0  0  0  0  # atno 10763 bound_to 10752
  153.4453  135.7027  153.6148 H   0  0  0  0  0  0  0  0  0  0  0  0  # atno 10764 bound_to 10752
  153.4711  135.3790  155.2360 H   0  0  0  0  0  0  0  0  0  0  0  0  # atno 10765 bound_to 10752
  140.0773  134.9117  157.1443 H   0  0  0  0  0  0  0  0  0  0  0  0  # atno 11005 bound_to 11000
  144.6731  140.1544  143.7427 LP  0  0  0  0  0  0  0  0  0  0  0  0  # atno 17320 bound_to 7965
  145.8897  139.2368  143.1557 LP  0  0  0  0  0  0  0  0  0  0  0  0  # atno 17321 bound_to 7965
  140.5023  144.1150  150.5974 LP  0  0  0  0  0  0  0  0  0  0  0  0  # atno 17342 bound_to 10162
  140.4048  143.2686  151.9904 LP  0  0  0  0  0  0  0  0  0  0  0  0  # atno 17343 bound_to 10162
  156.7648  130.4810  149.5430 LP  0  0  0  0  0  0  0  0  0  0  0  0  # atno 17370 bound_to 10713
  156.1395  130.6235  151.0448 LP  0  0  0  0  0  0  0  0  0  0  0  0  # atno 17371 bound_to 10713
  140.3539  134.2568  155.7195 LP  0  0  0  0  0  0  0  0  0  0  0  0  # atno 17394 bound_to 11000
  141.2034  133.7913  157.0342 LP  0  0  0  0  0  0  0  0  0  0  0  0  # atno 17395 bound_to 11000

$$$$
