AV-unprocessed.smi:36|AV-procd|sdf|302|dock6
  -GOLD-   2262016103D 1   1.00000     0.00000
 Structure written by MMmdl.
 63 66  0  0  0  0  0  0  0  0  2 V2000
  145.6956  134.1868  159.8168 C   0  0  0  0  0  0  0  0  0  0  0  0
  146.6911  133.7117  160.8879 C   0  0  0  0  0  0  0  0  0  0  0  0
  147.9842  134.5401  160.8065 C   0  0  0  0  0  0  0  0  0  0  0  0
  146.0662  133.8630  162.2846 C   0  0  0  0  0  0  0  0  0  0  0  0
  147.1135  131.8726  160.5905 Si  0  0  0  0  0  0  0  0  0  0  0  0
  148.4326  131.2627  161.8145 C   0  0  0  0  0  0  0  0  0  0  0  0
  145.5608  130.7850  160.7216 C   0  0  0  0  0  0  0  0  0  0  0  0
  147.7368  131.7302  159.0245 O   0  0  0  0  0  0  0  0  0  0  0  0
  149.0242  132.1750  158.6526 C   0  0  0  0  0  0  0  0  0  0  0  0
  148.8973  133.4729  157.8454 C   0  0  1  0  0  0  0  0  0  0  0  0
  150.1909  133.9810  157.5351 O   0  0  0  0  0  0  0  0  0  0  0  0
  150.1442  134.7168  156.3471 C   0  0  2  0  0  0  0  0  0  0  0  0
  150.4079  136.1512  156.6714 N   0  0  0  0  0  0  0  0  0  0  0  0
  150.5984  136.7207  157.8795 C   0  0  0  0  0  0  0  0  0  0  0  0
  150.8169  138.0335  157.9109 N   0  0  0  0  0  0  0  0  0  0  0  0
  150.7615  138.3590  156.5636 C   0  0  0  0  0  0  0  0  0  0  0  0
  150.9038  139.5916  155.8692 C   0  0  0  0  0  0  0  0  0  0  0  0
  151.1521  140.7508  156.4977 N   0  5  0  0  0  0  0  0  0  0  0  0
  152.0651  140.7945  157.5009 C   0  0  0  0  0  0  0  0  0  0  0  0
  152.8195  139.8948  157.8772 O   0  0  0  0  0  0  0  0  0  0  0  0
  152.0711  142.1036  158.2438 C   0  0  0  0  0  0  0  0  0  0  0  0
  152.8185  142.2285  159.4371 C   0  0  0  0  0  0  0  0  0  0  0  0
  152.8619  143.4539  160.1301 C   0  0  0  0  0  0  0  0  0  0  0  0
  152.1654  144.5710  159.6323 C   0  0  0  0  0  0  0  0  0  0  0  0
  151.4281  144.4624  158.4384 C   0  0  0  0  0  0  0  0  0  0  0  0
  151.3843  143.2374  157.7446 C   0  0  0  0  0  0  0  0  0  0  0  0
  150.7984  139.5505  154.5162 N   0  0  0  0  0  0  0  0  0  0  0  0
  150.5555  138.3919  153.8913 C   0  0  0  0  0  0  0  0  0  0  0  0
  150.3924  137.1721  154.4143 N   0  0  0  0  0  0  0  0  0  0  0  0
  150.5078  137.2000  155.7740 C   0  0  0  0  0  0  0  0  0  0  0  0
  148.7366  134.5566  155.7611 C   0  0  0  0  0  0  0  0  0  0  0  0
  148.2442  133.3118  156.4719 C   0  0  2  0  0  0  0  0  0  0  0  0
  146.8329  133.2888  156.5399 O   0  0  0  0  0  0  0  0  0  0  0  0
  145.4330  135.2357  159.9589 H   0  0  0  0  0  0  0  0  0  0  0  0
  144.7711  133.6098  159.8503 H   0  0  0  0  0  0  0  0  0  0  0  0
  146.1111  134.0854  158.8139 H   0  0  0  0  0  0  0  0  0  0  0  0
  148.4452  134.4628  159.8216 H   0  0  0  0  0  0  0  0  0  0  0  0
  148.7174  134.2015  161.5395 H   0  0  0  0  0  0  0  0  0  0  0  0
  147.7916  135.5964  160.9964 H   0  0  0  0  0  0  0  0  0  0  0  0
  145.8266  134.9049  162.5009 H   0  0  0  0  0  0  0  0  0  0  0  0
  146.7454  133.5124  163.0623 H   0  0  0  0  0  0  0  0  0  0  0  0
  145.1427  133.2901  162.3711 H   0  0  0  0  0  0  0  0  0  0  0  0
  148.1003  131.3653  162.8472 H   0  0  0  0  0  0  0  0  0  0  0  0
  149.3620  131.8228  161.7138 H   0  0  0  0  0  0  0  0  0  0  0  0
  148.6698  130.2114  161.6533 H   0  0  0  0  0  0  0  0  0  0  0  0
  145.0962  130.8670  161.7038 H   0  0  0  0  0  0  0  0  0  0  0  0
  145.7943  129.7329  160.5618 H   0  0  0  0  0  0  0  0  0  0  0  0
  144.8112  131.0661  159.9824 H   0  0  0  0  0  0  0  0  0  0  0  0
  149.6018  132.3552  159.5595 H   0  0  0  0  0  0  0  0  0  0  0  0
  149.5472  131.4076  158.0811 H   0  0  0  0  0  0  0  0  0  0  0  0
  148.3733  134.2314  158.4299 H   0  0  0  0  0  0  0  0  0  0  0  0
  150.9458  134.4089  155.6749 H   0  0  0  0  0  0  0  0  0  0  0  0
  150.5749  136.1401  158.7897 H   0  0  0  0  0  0  0  0  0  0  0  0
  153.3612  141.3813  159.8311 H   0  0  0  0  0  0  0  0  0  0  0  0
  153.4326  143.5365  161.0430 H   0  0  0  0  0  0  0  0  0  0  0  0
  152.2004  145.5110  160.1625 H   0  0  0  0  0  0  0  0  0  0  0  0
  150.8985  145.3203  158.0512 H   0  0  0  0  0  0  0  0  0  0  0  0
  150.8224  143.1787  156.8236 H   0  0  0  0  0  0  0  0  0  0  0  0
  150.4825  138.4508  152.8157 H   0  0  0  0  0  0  0  0  0  0  0  0
  148.1243  135.4225  156.0207 H   0  0  0  0  0  0  0  0  0  0  0  0
  148.7697  134.4590  154.6756 H   0  0  0  0  0  0  0  0  0  0  0  0
  148.6136  132.4178  155.9675 H   0  0  0  0  0  0  0  0  0  0  0  0
  146.5735  133.4273  157.4380 H   0  0  0  0  0  0  0  0  0  0  0  0
  1  2  1  0  0  0  0
  1 34  1  0  0  0  0
  1 35  1  0  0  0  0
  1 36  1  0  0  0  0
  2  3  1  0  0  0  0
  2  4  1  0  0  0  0
  2  5  1  0  0  0  0
  3 37  1  0  0  0  0
  3 38  1  0  0  0  0
  3 39  1  0  0  0  0
  4 40  1  0  0  0  0
  4 41  1  0  0  0  0
  4 42  1  0  0  0  0
  5  6  1  0  0  0  0
  5  7  1  0  0  0  0
  5  8  1  0  0  0  0
  6 43  1  0  0  0  0
  6 44  1  0  0  0  0
  6 45  1  0  0  0  0
  7 46  1  0  0  0  0
  7 47  1  0  0  0  0
  7 48  1  0  0  0  0
  8  9  1  0  0  0  0
  9 10  1  0  0  0  0
  9 49  1  0  0  0  0
  9 50  1  0  0  0  0
 10 32  1  0  0  0  0
 10 11  1  0  0  0  0
 10 51  1  0  0  0  0
 11 12  1  0  0  0  0
 12 13  1  0  0  0  0
 12 31  1  0  0  0  0
 12 52  1  0  0  0  0
 13 30  1  0  0  0  0
 13 14  1  0  0  0  0
 14 15  2  0  0  0  0
 14 53  1  0  0  0  0
 15 16  1  0  0  0  0
 16 30  2  0  0  0  0
 16 17  1  0  0  0  0
 17 18  1  0  0  0  0
 17 27  2  0  0  0  0
 18 19  1  0  0  0  0
 19 20  2  0  0  0  0
 19 21  1  0  0  0  0
 21 26  1  0  0  0  0
 21 22  2  0  0  0  0
 22 23  1  0  0  0  0
 22 54  1  0  0  0  0
 23 24  2  0  0  0  0
 23 55  1  0  0  0  0
 24 25  1  0  0  0  0
 24 56  1  0  0  0  0
 25 26  2  0  0  0  0
 25 57  1  0  0  0  0
 26 58  1  0  0  0  0
 27 28  1  0  0  0  0
 28 29  2  0  0  0  0
 28 59  1  0  0  0  0
 29 30  1  0  0  0  0
 31 32  1  0  0  0  0
 31 60  1  0  0  0  0
 31 61  1  0  0  0  0
 32 33  1  0  0  0  0
 32 62  1  0  0  0  0
 33 63  1  0  0  0  0
M  CHG  1  18  -1
M  END
> <s_m_source_file>
AV-unprocessed.smi

> <i_m_source_file_index>
36

> <i_lp_mmshare_version>
43012

> <i_f3d_flags>
0

> <s_epik_input>
W0NIM11DKFtDSDNdKShbQ0gzXSlbU2ldKFtDSDNdKShbQ0gzXSlPW0NIMl1bQ0BASF0xT1tDQEhdKFtDSDJdW0NASF0xW09IXSluKFtjSF1uMiljKGMyMyluW2NIXW5jM1tOSF1DKD1PKWM0W2NIXVtjSF1bY0hdW2NIXVtjSF00

> <s_epik_cmdline>
J2VwaWtfcHl0aG9uJywgJy1waCcsICc3LjAnLCAnLXRuJywgJzgnLCAnLW1hJywgJzIwMCcsICctbWV0YWxfYmluZGluZycsICctaW1hZScsICc8aW5maWxlLm1hZT4nLCAnLW9tYWUnLCAnPG91dGZpbGUubWFlPic=

> <r_lp_tautomer_probability>
1

> <r_epik_Ionization_Penalty>
4.75685

> <r_epik_Ionization_Penalty_Charging>
3.55822

> <r_epik_Ionization_Penalty_Neutral>
1.19863

> <r_epik_State_Penalty>
3.564

> <r_epik_Charging_Adjusted_Penalty>
7.12222

> <i_epik_Tot_Q>
-1

> <i_epik_Tot_abs_Q>
1

> <r_epik_Metal_State_Penalty>
0.523258

> <b_epik_Metal_Only>
1

> <s_epik_Chemistry_Notes>
This compound contains an acetal/aminal-like group ( X-CH(R)-Y where X, Y are N, S, or O) that may be acid/base labile, releasing an aldehyde.

> <s_lp_Force_Field>
OPLS_2005

> <r_lp_Energy>
39.042

> <b_lp_Chiralities_Consistent>
1

> <s_lp_Variant>
AV-unprocessed.smi:36-24

> <Gold.Version>
5.8.1

> <Gold.Id.Protein>
6NUR|6NUR_protein|mol2

> <Gold.PLP.Fitness>
53.5523

> <Gold.PLP.PLP>
-44.2234

> <Gold.PLP.part.hbond>
-3.0000

> <Gold.PLP.part.metal>
0.0000

> <Gold.PLP.part.buried>
-7.6475

> <Gold.PLP.part.nonpolar>
-35.8470

> <Gold.PLP.part.repulsive>
0.9588

> <Gold.PLP.ligand.clash>
0.0000

> <Gold.PLP.ligand.torsion>
0.9399

> <Gold.PLP.Chemscore.Hbond>
2.6272

> <Gold.PLP.Chemscore.CHOScore>
0.9932

> <Gold.PLP.Chemscore.Metal>
0.0000

> <Gold.Chemscore.Hbonds>
donor molecule, donor type, donor heavy atom, donor atom, acceptor molecule, acceptor atom, score
      P1  H  6896  6909       L1    11  0.63
      P1  H  7989  7998       L1    27  1.00
      P1  H  7997  8010       L1    20  1.00
      L1  C    28    59       P1  7948  0.14
      L1  C    28    59       P1  7949  0.06
      L1  C    28    59       P1  7957  0.83

> <Gold.PLP.Chemscore.Internal.Correction>
0.3476

> <Gold.Rescore>
     Score         DG    S(hbond)    S(metal)    S(lipo)     H(rot)  DE(clash)    DE(int)     intcor
     13.96     -18.25       1.85        0.00     114.64       2.67       0.10       4.19       ----

> <Gold.Chemscore.Fitness>
13.9646

> <Gold.Chemscore.DG>
-18.2498

> <Gold.Chemscore.ZeroCoef>
-5.4800

> <Gold.Chemscore.Hbond>
1.8541

> <Gold.Chemscore.Metal>
0.0000

> <Gold.Chemscore.Lipo>
114.6384

> <Gold.Chemscore.Internal_Hbond>
0.0000

> <Gold.Chemscore.DEClash>
0.0983

> <Gold.Chemscore.DEInternal>
4.1869

> <Gold.Chemscore.Rot>
2.6702

> <Gold.Chemscore.Internal.Correction>
   9.000000E+99

> <Gold.Chemscore.Hbonds>
donor molecule, donor type, donor heavy atom, donor atom, acceptor molecule, acceptor atom, score
      P1  H  6896  6909       L1    11  0.06
      P1  H  7989  7998       L1    27  0.89
      P1  H  7997  8010       L1    20  0.48

> <Gold.Chemscore.Hbond.Weighted>
-6.1928

> <Gold.Chemscore.Metal.Weighted>
-0.0000

> <Gold.Chemscore.Lipo.Weighted>
-13.4127

> <Gold.Chemscore.Internal_Hbond.Weighted>
0.0000

> <Gold.Chemscore.DEClash.Weighted>
0.0983

> <Gold.Chemscore.DEInternal.Weighted>
4.1869

> <Gold.Chemscore.Rot.Weighted>
6.8358

> <Gold.Chemscore.Internal.Correction.Weighted>
   9.000000E+99

> <Gold.Protein.RotatedTorsions>
[ 6907 6896 6895 6894 ] final    0.60 input  -60.11 | X-H torsion
[ 7974 7965 7964 7962 ] final   34.01 input  175.53 | X-H torsion
[ 8008 7997 7996 7995 ] final   53.17 input   59.86 | X-H torsion
[ 10167 10162 10161 10158 ] final -117.49 input  -65.29 | X-H torsion
[ 10718 10713 10712 10709 ] final  -49.48 input   66.30 | X-H torsion
[ 10763 10752 10751 10750 ] final  134.05 input  -60.55 | X-H torsion
[ 11005 11000 10999 10996 ] final   89.97 input  -57.11 | X-H torsion

> <Gold.Protein.ActiveResidues>
 VAL166  LYS551  ARG553  GLY616  TRP617  ASP618  TYR619  PRO620  LYS621  CYS622 
 ASP623  PHE694  ASN695  SER759  ASP760  ASP761  ALA762  ILE779  LEU786  VAL792 
 PHE793  MET794  SER795  GLU796  ALA797  LYS798  CYS799  TRP800  GLU811  SER814 

> <Gold.Protein.RotatedAtoms>
  151.5791  135.1059  160.0012 H   0  0  0  0  0  0  0  0  0  0  0  0  # atno 6907 bound_to 6896
  152.4363  133.7362  159.6626 H   0  0  0  0  0  0  0  0  0  0  0  0  # atno 6908 bound_to 6896
  150.8261  133.8099  159.3141 H   0  0  0  0  0  0  0  0  0  0  0  0  # atno 6909 bound_to 6896
  146.1382  139.6323  142.9181 H   0  0  0  0  0  0  0  0  0  0  0  0  # atno 7974 bound_to 7965
  155.4638  140.3462  155.4316 H   0  0  0  0  0  0  0  0  0  0  0  0  # atno 8008 bound_to 7997
  156.1144  140.1470  156.9323 H   0  0  0  0  0  0  0  0  0  0  0  0  # atno 8009 bound_to 7997
  154.4779  140.0879  156.7285 H   0  0  0  0  0  0  0  0  0  0  0  0  # atno 8010 bound_to 7997
  140.0678  143.4906  152.1996 H   0  0  0  0  0  0  0  0  0  0  0  0  # atno 10167 bound_to 10162
  156.1889  130.4152  149.9399 H   0  0  0  0  0  0  0  0  0  0  0  0  # atno 10718 bound_to 10713
  153.8172  135.3121  155.3407 H   0  0  0  0  0  0  0  0  0  0  0  0  # atno 10763 bound_to 10752
  154.8027  135.4717  154.0319 H   0  0  0  0  0  0  0  0  0  0  0  0  # atno 10764 bound_to 10752
  153.1716  135.6878  153.8689 H   0  0  0  0  0  0  0  0  0  0  0  0  # atno 10765 bound_to 10752
  139.8865  134.8585  156.3218 H   0  0  0  0  0  0  0  0  0  0  0  0  # atno 11005 bound_to 11000
  145.5108  141.0435  143.2489 LP  0  0  0  0  0  0  0  0  0  0  0  0  # atno 17320 bound_to 7965
  144.7762  139.6624  143.7173 LP  0  0  0  0  0  0  0  0  0  0  0  0  # atno 17321 bound_to 7965
  139.5854  144.7529  151.3533 LP  0  0  0  0  0  0  0  0  0  0  0  0  # atno 17342 bound_to 10162
  140.7140  143.7315  150.7620 LP  0  0  0  0  0  0  0  0  0  0  0  0  # atno 17343 bound_to 10162
  156.7146  130.8983  151.3612 LP  0  0  0  0  0  0  0  0  0  0  0  0  # atno 17370 bound_to 10713
  157.6916  130.9240  150.0531 LP  0  0  0  0  0  0  0  0  0  0  0  0  # atno 17371 bound_to 10713
  140.9781  133.7284  156.0632 LP  0  0  0  0  0  0  0  0  0  0  0  0  # atno 17394 bound_to 11000
  140.7784  134.3753  157.5493 LP  0  0  0  0  0  0  0  0  0  0  0  0  # atno 17395 bound_to 11000

$$$$
