AV-unprocessed.smi:61|AV-procd|sdf|597|dock2
  -GOLD-   2262016493D 1   1.00000     0.00000
 Structure written by MMmdl.
 28 29  0  0  0  0  0  0  0  0  1 V2000
  149.5238  142.2050  155.7960 N   0  0  0  0  0  0  0  0  0  0  0  0
  150.4422  141.6815  156.6726 C   0  0  0  0  0  0  0  0  0  0  0  0
  150.7745  140.4025  156.4956 N   0  0  0  0  0  0  0  0  0  0  0  0
  151.6782  139.8903  157.3575 C   0  0  0  0  0  0  0  0  0  0  0  0
  152.2423  140.6648  158.3914 C   0  0  0  0  0  0  0  0  0  0  0  0
  151.8171  142.0113  158.4879 C   0  0  0  0  0  0  0  0  0  0  0  0
  152.3271  142.8556  159.4970 N   0  0  0  0  0  0  0  0  0  0  0  0
  153.3380  142.2889  160.3841 C   0  0  0  0  0  0  0  0  0  0  0  0
  153.0699  142.8774  161.7719 C   0  0  0  0  0  0  0  0  0  0  0  0
  152.2804  144.1480  161.4777 C   0  0  0  0  0  0  0  0  0  0  0  0
  151.4558  143.7608  160.2453 C   0  0  1  0  0  0  0  0  0  0  0  0
  150.9958  144.9789  159.4185 C   0  0  0  0  0  0  0  0  0  0  0  0
  149.6136  145.1968  159.6053 O   0  0  0  0  0  0  0  0  0  0  0  0
  150.9086  142.5063  157.6117 N   0  0  0  0  0  0  0  0  0  0  0  0
  149.2315  143.1680  155.8777 H   0  0  0  0  0  0  0  0  0  0  0  0
  149.1078  141.6226  155.0842 H   0  0  0  0  0  0  0  0  0  0  0  0
  151.9550  138.8556  157.2213 H   0  0  0  0  0  0  0  0  0  0  0  0
  152.9688  140.2403  159.0682 H   0  0  0  0  0  0  0  0  0  0  0  0
  153.3077  141.1987  160.4133 H   0  0  0  0  0  0  0  0  0  0  0  0
  154.3225  142.5902  160.0247 H   0  0  0  0  0  0  0  0  0  0  0  0
  152.4513  142.1889  162.3491 H   0  0  0  0  0  0  0  0  0  0  0  0
  153.9834  143.0636  162.3371 H   0  0  0  0  0  0  0  0  0  0  0  0
  151.6627  144.4675  162.3175 H   0  0  0  0  0  0  0  0  0  0  0  0
  152.9695  144.9591  161.2377 H   0  0  0  0  0  0  0  0  0  0  0  0
  150.5840  143.1934  160.5754 H   0  0  0  0  0  0  0  0  0  0  0  0
  151.5450  145.8756  159.7077 H   0  0  0  0  0  0  0  0  0  0  0  0
  151.1701  144.8294  158.3535 H   0  0  0  0  0  0  0  0  0  0  0  0
  149.2363  145.4540  158.7780 H   0  0  0  0  0  0  0  0  0  0  0  0
  1  2  1  0  0  0  0
  1 15  1  0  0  0  0
  1 16  1  0  0  0  0
  2 14  1  0  0  0  0
  2  3  2  0  0  0  0
  3  4  1  0  0  0  0
  4  5  2  0  0  0  0
  4 17  1  0  0  0  0
  5  6  1  0  0  0  0
  5 18  1  0  0  0  0
  6  7  1  0  0  0  0
  6 14  2  0  0  0  0
  7 11  1  0  0  0  0
  7  8  1  0  0  0  0
  8  9  1  0  0  0  0
  8 19  1  0  0  0  0
  8 20  1  0  0  0  0
  9 10  1  0  0  0  0
  9 21  1  0  0  0  0
  9 22  1  0  0  0  0
 10 11  1  0  0  0  0
 10 23  1  0  0  0  0
 10 24  1  0  0  0  0
 11 12  1  0  0  0  0
 11 25  1  0  0  0  0
 12 13  1  0  0  0  0
 12 26  1  0  0  0  0
 12 27  1  0  0  0  0
 13 28  1  0  0  0  0
M  END
> <s_m_source_file>
AV-unprocessed.smi

> <i_m_source_file_index>
61

> <i_lp_mmshare_version>
43012

> <i_f3d_flags>
0

> <s_epik_input>
W05IMl1jMW5bY0hdW2NIXWMobjEpTjJbQ0gyXVtDSDJdW0NIMl1bQ0BIXTJbQ0gyXVtPSF0=

> <s_epik_cmdline>
J2VwaWtfcHl0aG9uJywgJy1waCcsICc3LjAnLCAnLXRuJywgJzgnLCAnLW1hJywgJzIwMCcsICctbWV0YWxfYmluZGluZycsICctaW1hZScsICc8aW5maWxlLm1hZT4nLCAnLW9tYWUnLCAnPG91dGZpbGUubWFlPic=

> <r_lp_tautomer_probability>
1

> <r_epik_Ionization_Penalty>
0.76024

> <r_epik_Ionization_Penalty_Charging>
0

> <r_epik_Ionization_Penalty_Neutral>
0.76024

> <r_epik_State_Penalty>
0.587668

> <r_epik_Charging_Adjusted_Penalty>
0.587668

> <i_epik_Tot_Q>
0

> <i_epik_Tot_abs_Q>
0

> <r_epik_Metal_State_Penalty>
0.307814

> <b_epik_Metal_Only>
0

> <s_lp_Force_Field>
OPLS_2005

> <r_lp_Energy>
20.8196

> <b_lp_Chiralities_Consistent>
1

> <s_lp_Variant>
AV-unprocessed.smi:61-3

> <Gold.Version>
5.8.1

> <Gold.Id.Protein>
6NUR|6NUR_protein|mol2

> <Gold.PLP.Fitness>
36.6025

> <Gold.PLP.PLP>
-32.0146

> <Gold.PLP.part.hbond>
-2.6279

> <Gold.PLP.part.metal>
0.0000

> <Gold.PLP.part.buried>
-6.1133

> <Gold.PLP.part.nonpolar>
-23.7732

> <Gold.PLP.part.repulsive>
0.2775

> <Gold.PLP.ligand.clash>
0.0000

> <Gold.PLP.ligand.torsion>
0.8837

> <Gold.PLP.Chemscore.Hbond>
2.0000

> <Gold.PLP.Chemscore.CHOScore>
0.0000

> <Gold.PLP.Chemscore.Metal>
0.0000

> <Gold.Chemscore.Hbonds>
donor molecule, donor type, donor heavy atom, donor atom, acceptor molecule, acceptor atom, score
      L1  H     1    15       P1  8028  1.00
      L1  H    13    28       P1  8029  0.91

> <Gold.PLP.Chemscore.Internal.Correction>
0.3552

> <Gold.Rescore>
     Score         DG    S(hbond)    S(metal)    S(lipo)     H(rot)  DE(clash)    DE(int)     intcor
     13.78     -15.22       1.99        0.00      69.25       1.96       0.03       1.42       ----

> <Gold.Chemscore.Fitness>
13.7761

> <Gold.Chemscore.DG>
-15.2245

> <Gold.Chemscore.ZeroCoef>
-5.4800

> <Gold.Chemscore.Hbond>
1.9909

> <Gold.Chemscore.Metal>
0.0000

> <Gold.Chemscore.Lipo>
69.2521

> <Gold.Chemscore.Internal_Hbond>
0.0000

> <Gold.Chemscore.DEClash>
0.0309

> <Gold.Chemscore.DEInternal>
1.4175

> <Gold.Chemscore.Rot>
1.9561

> <Gold.Chemscore.Internal.Correction>
   9.000000E+99

> <Gold.Chemscore.Hbonds>
donor molecule, donor type, donor heavy atom, donor atom, acceptor molecule, acceptor atom, score
      L1  H     1    15       P1  8028  0.99
      L1  H    13    28       P1  8029  0.86

> <Gold.Chemscore.Hbond.Weighted>
-6.6497

> <Gold.Chemscore.Metal.Weighted>
-0.0000

> <Gold.Chemscore.Lipo.Weighted>
-8.1025

> <Gold.Chemscore.Internal_Hbond.Weighted>
0.0000

> <Gold.Chemscore.DEClash.Weighted>
0.0309

> <Gold.Chemscore.DEInternal.Weighted>
1.4175

> <Gold.Chemscore.Rot.Weighted>
5.0077

> <Gold.Chemscore.Internal.Correction.Weighted>
   9.000000E+99

> <Gold.Protein.RotatedTorsions>
[ 6907 6896 6895 6894 ] final -132.13 input  -60.11 | X-H torsion
[ 7974 7965 7964 7962 ] final -124.55 input  175.53 | X-H torsion
[ 8008 7997 7996 7995 ] final  131.53 input   59.86 | X-H torsion
[ 10167 10162 10161 10158 ] final  -22.57 input  -65.29 | X-H torsion
[ 10718 10713 10712 10709 ] final  -30.46 input   66.30 | X-H torsion
[ 10763 10752 10751 10750 ] final  -28.72 input  -60.55 | X-H torsion
[ 11005 11000 10999 10996 ] final -149.03 input  -57.11 | X-H torsion

> <Gold.Protein.ActiveResidues>
 VAL166  LYS551  ARG553  GLY616  TRP617  ASP618  TYR619  PRO620  LYS621  CYS622 
 ASP623  PHE694  ASN695  SER759  ASP760  ASP761  ALA762  ILE779  LEU786  VAL792 
 PHE793  MET794  SER795  GLU796  ALA797  LYS798  CYS799  TRP800  GLU811  SER814 

> <Gold.Protein.RotatedAtoms>
  150.9589  133.6467  159.2757 H   0  0  0  0  0  0  0  0  0  0  0  0  # atno 6907 bound_to 6896
  151.3797  135.0936  159.9501 H   0  0  0  0  0  0  0  0  0  0  0  0  # atno 6908 bound_to 6896
  152.5140  133.9126  159.7550 H   0  0  0  0  0  0  0  0  0  0  0  0  # atno 6909 bound_to 6896
  145.0069  140.7871  143.4462 H   0  0  0  0  0  0  0  0  0  0  0  0  # atno 7974 bound_to 7965
  156.2971  140.2569  156.2940 H   0  0  0  0  0  0  0  0  0  0  0  0  # atno 8008 bound_to 7997
  154.9482  140.0395  157.2149 H   0  0  0  0  0  0  0  0  0  0  0  0  # atno 8009 bound_to 7997
  154.8062  140.2836  155.5890 H   0  0  0  0  0  0  0  0  0  0  0  0  # atno 8010 bound_to 7997
  140.7286  143.4523  151.0499 H   0  0  0  0  0  0  0  0  0  0  0  0  # atno 10167 bound_to 10162
  156.3995  130.4387  149.7333 H   0  0  0  0  0  0  0  0  0  0  0  0  # atno 10718 bound_to 10713
  153.7529  135.6925  153.4942 H   0  0  0  0  0  0  0  0  0  0  0  0  # atno 10763 bound_to 10752
  153.1991  135.4443  155.0243 H   0  0  0  0  0  0  0  0  0  0  0  0  # atno 10764 bound_to 10752
  154.8181  135.3408  154.7049 H   0  0  0  0  0  0  0  0  0  0  0  0  # atno 10765 bound_to 10752
  140.7550  134.3363  157.5116 H   0  0  0  0  0  0  0  0  0  0  0  0  # atno 11005 bound_to 11000
  145.2076  139.2221  143.5160 LP  0  0  0  0  0  0  0  0  0  0  0  0  # atno 17320 bound_to 7965
  146.3463  140.1907  142.8589 LP  0  0  0  0  0  0  0  0  0  0  0  0  # atno 17321 bound_to 7965
  139.8200  143.7833  152.3176 LP  0  0  0  0  0  0  0  0  0  0  0  0  # atno 17342 bound_to 10162
  139.7912  144.7409  150.9952 LP  0  0  0  0  0  0  0  0  0  0  0  0  # atno 17343 bound_to 10162
  156.4355  130.7835  151.2856 LP  0  0  0  0  0  0  0  0  0  0  0  0  # atno 17370 bound_to 10713
  157.7503  131.0141  150.3450 LP  0  0  0  0  0  0  0  0  0  0  0  0  # atno 17371 bound_to 10713
  139.8781  134.9166  156.3158 LP  0  0  0  0  0  0  0  0  0  0  0  0  # atno 17394 bound_to 11000
  140.9716  133.7324  156.0542 LP  0  0  0  0  0  0  0  0  0  0  0  0  # atno 17395 bound_to 11000

$$$$
