AV-unprocessed.smi:973|AV-procd|sdf|4299|dock4
  -GOLD-   22720 2203D 1   1.00000     0.00000
 Structure written by MMmdl.
 41 42  0  0  0  0  0  0  0  0  1 V2000
  150.2221  139.3175  153.3989 C   0  0  0  0  0  0  0  0  0  0  0  0
  150.7958  138.6225  154.5542 N   0  0  0  0  0  0  0  0  0  0  0  0
  151.0629  137.2494  154.4200 C   0  0  0  0  0  0  0  0  0  0  0  0
  151.5848  136.5330  155.4251 C   0  0  0  0  0  0  0  0  0  0  0  0
  151.8728  137.2049  156.6696 C   0  0  0  0  0  0  0  0  0  0  0  0
  151.6131  138.5277  156.8240 C   0  0  0  0  0  0  0  0  0  0  0  0
  151.8706  139.2584  157.9972 N   0  0  0  0  0  0  0  0  0  0  0  0
  153.0467  139.5125  158.6004 C   0  0  0  0  0  0  0  0  0  0  0  0
  154.1489  139.1074  158.2311 O   0  0  0  0  0  0  0  0  0  0  0  0
  152.8695  140.2628  159.6972 N   0  0  0  0  0  0  0  0  0  0  0  0
  153.9300  140.6872  160.6040 C   0  0  0  0  0  0  0  0  0  0  0  0
  153.5377  141.9530  161.3862 C   0  0  0  0  0  0  0  0  0  0  0  0
  152.9206  143.0212  160.4984 C   0  0  0  0  0  0  0  0  0  0  0  0
  153.3098  143.1984  159.2208 C   0  0  0  0  0  0  0  0  0  0  0  0
  152.7430  144.2609  158.2954 C   0  0  0  0  0  0  0  0  0  0  0  0
  151.9375  145.3293  159.0536 C   0  0  0  0  0  0  0  0  0  0  0  0
  151.0259  144.6894  160.1077 C   0  0  0  0  0  0  0  0  0  0  0  0
  151.8390  143.8851  161.1380 C   0  0  0  0  0  0  0  0  0  0  0  0
  151.0476  139.3103  155.7076 C   0  0  0  0  0  0  0  0  0  0  0  0
  150.8081  140.5173  155.7960 O   0  0  0  0  0  0  0  0  0  0  0  0
  150.0916  138.6641  152.5357 H   0  0  0  0  0  0  0  0  0  0  0  0
  150.8655  140.1414  153.0869 H   0  0  0  0  0  0  0  0  0  0  0  0
  149.2419  139.7264  153.6479 H   0  0  0  0  0  0  0  0  0  0  0  0
  150.8193  136.8195  153.4594 H   0  0  0  0  0  0  0  0  0  0  0  0
  151.7838  135.4779  155.3078 H   0  0  0  0  0  0  0  0  0  0  0  0
  152.3150  136.6164  157.4571 H   0  0  0  0  0  0  0  0  0  0  0  0
  151.0443  139.6001  158.4661 H   0  0  0  0  0  0  0  0  0  0  0  0
  151.9299  140.5487  159.9315 H   0  0  0  0  0  0  0  0  0  0  0  0
  154.1254  139.8637  161.2907 H   0  0  0  0  0  0  0  0  0  0  0  0
  154.8538  140.8529  160.0467 H   0  0  0  0  0  0  0  0  0  0  0  0
  152.8306  141.6929  162.1754 H   0  0  0  0  0  0  0  0  0  0  0  0
  154.4111  142.3741  161.8853 H   0  0  0  0  0  0  0  0  0  0  0  0
  154.0673  142.5558  158.7957 H   0  0  0  0  0  0  0  0  0  0  0  0
  153.5584  144.7322  157.7461 H   0  0  0  0  0  0  0  0  0  0  0  0
  152.1102  143.7632  157.5600 H   0  0  0  0  0  0  0  0  0  0  0  0
  152.6221  146.0214  159.5459 H   0  0  0  0  0  0  0  0  0  0  0  0
  151.3507  145.9223  158.3515 H   0  0  0  0  0  0  0  0  0  0  0  0
  150.4363  145.4542  160.6141 H   0  0  0  0  0  0  0  0  0  0  0  0
  150.3135  144.0293  159.6110 H   0  0  0  0  0  0  0  0  0  0  0  0
  151.1656  143.2558  161.7210 H   0  0  0  0  0  0  0  0  0  0  0  0
  152.3184  144.5687  161.8392 H   0  0  0  0  0  0  0  0  0  0  0  0
  1  2  1  0  0  0  0
  1 21  1  0  0  0  0
  1 22  1  0  0  0  0
  1 23  1  0  0  0  0
  2 19  1  0  0  0  0
  2  3  1  0  0  0  0
  3  4  2  0  0  0  0
  3 24  1  0  0  0  0
  4  5  1  0  0  0  0
  4 25  1  0  0  0  0
  5  6  2  0  0  0  0
  5 26  1  0  0  0  0
  6  7  1  0  0  0  0
  6 19  1  0  0  0  0
  7  8  1  0  0  0  0
  7 27  1  0  0  0  0
  8  9  2  0  0  0  0
  8 10  1  0  0  0  0
 10 11  1  0  0  0  0
 10 28  1  0  0  0  0
 11 12  1  0  0  0  0
 11 29  1  0  0  0  0
 11 30  1  0  0  0  0
 12 13  1  0  0  0  0
 12 31  1  0  0  0  0
 12 32  1  0  0  0  0
 13 18  1  0  0  0  0
 13 14  2  0  0  0  0
 14 15  1  0  0  0  0
 14 33  1  0  0  0  0
 15 16  1  0  0  0  0
 15 34  1  0  0  0  0
 15 35  1  0  0  0  0
 16 17  1  0  0  0  0
 16 36  1  0  0  0  0
 16 37  1  0  0  0  0
 17 18  1  0  0  0  0
 17 38  1  0  0  0  0
 17 39  1  0  0  0  0
 18 40  1  0  0  0  0
 18 41  1  0  0  0  0
 19 20  2  0  0  0  0
M  END
> <s_m_source_file>
AV-unprocessed.smi

> <i_m_source_file_index>
973

> <i_lp_mmshare_version>
43012

> <i_f3d_flags>
0

> <s_epik_input>
W0NIM11uMVtjSF1bY0hdW2NIXWMoYzE9TylbTkhdQyg9TylbTkhdW0NIMl1bQ0gyXUMyPVtDSF1bQ0gyXVtDSDJdW0NIMl1bQ0gyXTI=

> <s_epik_cmdline>
J2VwaWtfcHl0aG9uJywgJy1waCcsICc3LjAnLCAnLXRuJywgJzgnLCAnLW1hJywgJzIwMCcsICctbWV0YWxfYmluZGluZycsICctaW1hZScsICc8aW5maWxlLm1hZT4nLCAnLW9tYWUnLCAnPG91dGZpbGUubWFlPic=

> <r_lp_tautomer_probability>
1

> <r_epik_Ionization_Penalty>
2.5397e-05

> <r_epik_Ionization_Penalty_Charging>
4.7783e-06

> <r_epik_Ionization_Penalty_Neutral>
2.06187e-05

> <r_epik_State_Penalty>
-0

> <r_epik_Charging_Adjusted_Penalty>
4.7783e-06

> <i_epik_Tot_Q>
0

> <i_epik_Tot_abs_Q>
0

> <r_epik_Metal_State_Penalty>
-0

> <b_epik_Metal_Only>
0

> <s_lp_Force_Field>
OPLS_2005

> <r_lp_Energy>
20.1854

> <b_lp_Chiralities_Consistent>
1

> <s_lp_Variant>
AV-unprocessed.smi:973-1

> <Gold.Version>
5.8.1

> <Gold.Id.Protein>
6NUR|6NUR_protein|mol2

> <Gold.PLP.Fitness>
45.9157

> <Gold.PLP.PLP>
-42.0941

> <Gold.PLP.part.hbond>
-1.0000

> <Gold.PLP.part.metal>
0.0000

> <Gold.PLP.part.buried>
-2.7807

> <Gold.PLP.part.nonpolar>
-39.8952

> <Gold.PLP.part.repulsive>
0.2262

> <Gold.PLP.ligand.clash>
0.0000

> <Gold.PLP.ligand.torsion>
1.1780

> <Gold.PLP.Chemscore.Hbond>
1.0000

> <Gold.PLP.Chemscore.CHOScore>
1.0582

> <Gold.PLP.Chemscore.Metal>
0.0000

> <Gold.Chemscore.Hbonds>
donor molecule, donor type, donor heavy atom, donor atom, acceptor molecule, acceptor atom, score
      P1  H  7997  8009       L1     9  0.96
      L1  C     3    24       P1  7948  0.12
      L1  C     3    24       P1  7949  0.80

> <Gold.PLP.Chemscore.Internal.Correction>
0.0030

> <Gold.Rescore>
     Score         DG    S(hbond)    S(metal)    S(lipo)     H(rot)  DE(clash)    DE(int)     intcor
     18.32     -19.38       1.00        0.00     120.90       1.40       0.06       1.00       ----

> <Gold.Chemscore.Fitness>
18.3228

> <Gold.Chemscore.DG>
-19.3785

> <Gold.Chemscore.ZeroCoef>
-5.4800

> <Gold.Chemscore.Hbond>
0.9958

> <Gold.Chemscore.Metal>
0.0000

> <Gold.Chemscore.Lipo>
120.9036

> <Gold.Chemscore.Internal_Hbond>
0.0000

> <Gold.Chemscore.DEClash>
0.0572

> <Gold.Chemscore.DEInternal>
0.9985

> <Gold.Chemscore.Rot>
1.3958

> <Gold.Chemscore.Internal.Correction>
   9.000000E+99

> <Gold.Chemscore.Hbonds>
donor molecule, donor type, donor heavy atom, donor atom, acceptor molecule, acceptor atom, score
      P1  H  7997  8009       L1     9  0.83

> <Gold.Chemscore.Hbond.Weighted>
-3.3261

> <Gold.Chemscore.Metal.Weighted>
-0.0000

> <Gold.Chemscore.Lipo.Weighted>
-14.1457

> <Gold.Chemscore.Internal_Hbond.Weighted>
0.0000

> <Gold.Chemscore.DEClash.Weighted>
0.0572

> <Gold.Chemscore.DEInternal.Weighted>
0.9985

> <Gold.Chemscore.Rot.Weighted>
3.5733

> <Gold.Chemscore.Internal.Correction.Weighted>
   9.000000E+99

> <Gold.Protein.RotatedTorsions>
[ 6907 6896 6895 6894 ] final   32.11 input  -60.11 | X-H torsion
[ 7974 7965 7964 7962 ] final   38.35 input  175.53 | X-H torsion
[ 8008 7997 7996 7995 ] final  135.46 input   59.86 | X-H torsion
[ 10167 10162 10161 10158 ] final   -0.64 input  -65.29 | X-H torsion
[ 10718 10713 10712 10709 ] final  169.49 input   66.30 | X-H torsion
[ 10763 10752 10751 10750 ] final -121.58 input  -60.55 | X-H torsion
[ 11005 11000 10999 10996 ] final   86.30 input  -57.11 | X-H torsion

> <Gold.Protein.ActiveResidues>
 VAL166  LYS551  ARG553  GLY616  TRP617  ASP618  TYR619  PRO620  LYS621  CYS622 
 ASP623  PHE694  ASN695  SER759  ASP760  ASP761  ALA762  ILE779  LEU786  VAL792 
 PHE793  MET794  SER795  GLU796  ALA797  LYS798  CYS799  TRP800  GLU811  SER814 

> <Gold.Protein.RotatedAtoms>
  152.0699  134.9540  160.0574 H   0  0  0  0  0  0  0  0  0  0  0  0  # atno 6907 bound_to 6896
  152.0870  133.4176  159.4535 H   0  0  0  0  0  0  0  0  0  0  0  0  # atno 6908 bound_to 6896
  150.6836  134.2835  159.4680 H   0  0  0  0  0  0  0  0  0  0  0  0  # atno 6909 bound_to 6896
  146.1068  139.5783  142.9378 H   0  0  0  0  0  0  0  0  0  0  0  0  # atno 7974 bound_to 7965
  156.3003  140.2470  156.3586 H   0  0  0  0  0  0  0  0  0  0  0  0  # atno 8008 bound_to 7997
  154.8899  140.0409  157.1851 H   0  0  0  0  0  0  0  0  0  0  0  0  # atno 8009 bound_to 7997
  154.8609  140.2920  155.5544 H   0  0  0  0  0  0  0  0  0  0  0  0  # atno 8010 bound_to 7997
  140.6776  143.6870  150.8059 H   0  0  0  0  0  0  0  0  0  0  0  0  # atno 10167 bound_to 10162
  157.0219  131.0234  151.2772 H   0  0  0  0  0  0  0  0  0  0  0  0  # atno 10718 bound_to 10713
  154.8671  135.4163  154.2643 H   0  0  0  0  0  0  0  0  0  0  0  0  # atno 10763 bound_to 10752
  153.3565  135.7001  153.6752 H   0  0  0  0  0  0  0  0  0  0  0  0  # atno 10764 bound_to 10752
  153.5670  135.3598  155.2795 H   0  0  0  0  0  0  0  0  0  0  0  0  # atno 10765 bound_to 10752
  139.8948  134.8346  156.2701 H   0  0  0  0  0  0  0  0  0  0  0  0  # atno 11005 bound_to 11000
  145.5744  141.0390  143.2157 LP  0  0  0  0  0  0  0  0  0  0  0  0  # atno 17320 bound_to 7965
  144.7478  139.7274  143.7285 LP  0  0  0  0  0  0  0  0  0  0  0  0  # atno 17321 bound_to 7965
  140.0565  143.5197  152.2648 LP  0  0  0  0  0  0  0  0  0  0  0  0  # atno 17342 bound_to 10162
  139.6078  144.7601  151.3022 LP  0  0  0  0  0  0  0  0  0  0  0  0  # atno 17343 bound_to 10162
  157.5243  130.8018  149.7844 LP  0  0  0  0  0  0  0  0  0  0  0  0  # atno 17370 bound_to 10713
  156.0099  130.3838  150.2300 LP  0  0  0  0  0  0  0  0  0  0  0  0  # atno 17371 bound_to 10713
  141.0106  133.7098  156.1105 LP  0  0  0  0  0  0  0  0  0  0  0  0  # atno 17394 bound_to 11000
  140.7373  134.4189  157.5559 LP  0  0  0  0  0  0  0  0  0  0  0  0  # atno 17395 bound_to 11000

$$$$
