AV-unprocessed.smi:3305|AV-procd|sdf|12700|dock3
  -GOLD-   2272019 33D 1   1.00000     0.00000
 Structure written by MMmdl.
 32 33  0  0  0  0  0  0  0  0  1 V2000
  154.3121  140.8982  161.2924 C   0  0  0  0  0  0  0  0  0  0  0  0
  153.3015  141.6663  160.4995 C   0  0  0  0  0  0  0  0  0  0  0  0
  152.9642  142.9882  160.6518 C   0  0  0  0  0  0  0  0  0  0  0  0
  151.7410  143.4819  159.5141 S   0  0  0  0  0  0  0  0  0  0  0  0
  151.7256  141.8437  158.8677 C   0  0  0  0  0  0  0  0  0  0  0  0
  150.8643  141.4192  157.7216 C   0  0  0  0  0  0  0  0  0  0  0  0
  150.9661  142.3390  156.4892 C   0  0  0  0  0  0  0  0  0  0  0  0
  149.7556  142.3333  155.6732 N   0  0  0  0  0  0  0  0  0  0  0  0
  149.4694  141.4285  154.7249 C   0  0  0  0  0  0  0  0  0  0  0  0
  150.2276  140.5055  154.4247 O   0  0  0  0  0  0  0  0  0  0  0  0
  148.1134  141.5865  154.0187 C   0  0  1  0  0  0  0  0  0  0  0  0
  147.6892  140.3125  153.2797 C   0  0  0  0  0  0  0  0  0  0  0  0
  146.4586  139.8099  154.0398 C   0  0  0  0  0  0  0  0  0  0  0  0
  146.5070  140.4797  155.2886 O   0  0  0  0  0  0  0  0  0  0  0  0
  146.9758  141.7918  155.0276 C   0  0  0  0  0  0  0  0  0  0  0  0
  152.5927  141.0301  159.4763 N   0  0  0  0  0  0  0  0  0  0  0  0
  154.6507  141.4632  162.1612 H   0  0  0  0  0  0  0  0  0  0  0  0
  155.1895  140.6645  160.6889 H   0  0  0  0  0  0  0  0  0  0  0  0
  153.8981  139.9567  161.6542 H   0  0  0  0  0  0  0  0  0  0  0  0
  153.3606  143.7002  161.3605 H   0  0  0  0  0  0  0  0  0  0  0  0
  151.1312  140.3994  157.4423 H   0  0  0  0  0  0  0  0  0  0  0  0
  149.8310  141.3774  158.0681 H   0  0  0  0  0  0  0  0  0  0  0  0
  151.1332  143.3650  156.8179 H   0  0  0  0  0  0  0  0  0  0  0  0
  151.8309  142.0664  155.8826 H   0  0  0  0  0  0  0  0  0  0  0  0
  149.0779  143.0588  155.8579 H   0  0  0  0  0  0  0  0  0  0  0  0
  148.1594  142.4344  153.3333 H   0  0  0  0  0  0  0  0  0  0  0  0
  147.4450  140.5152  152.2364 H   0  0  0  0  0  0  0  0  0  0  0  0
  148.4726  139.5528  153.2814 H   0  0  0  0  0  0  0  0  0  0  0  0
  145.5432  140.0924  153.5174 H   0  0  0  0  0  0  0  0  0  0  0  0
  146.4569  138.7275  154.1689 H   0  0  0  0  0  0  0  0  0  0  0  0
  147.2906  142.2851  155.9484 H   0  0  0  0  0  0  0  0  0  0  0  0
  146.1741  142.3878  154.5884 H   0  0  0  0  0  0  0  0  0  0  0  0
  1  2  1  0  0  0  0
  1 17  1  0  0  0  0
  1 18  1  0  0  0  0
  1 19  1  0  0  0  0
  2 16  1  0  0  0  0
  2  3  2  0  0  0  0
  3  4  1  0  0  0  0
  3 20  1  0  0  0  0
  4  5  1  0  0  0  0
  5  6  1  0  0  0  0
  5 16  2  0  0  0  0
  6  7  1  0  0  0  0
  6 21  1  0  0  0  0
  6 22  1  0  0  0  0
  7  8  1  0  0  0  0
  7 23  1  0  0  0  0
  7 24  1  0  0  0  0
  8  9  1  0  0  0  0
  8 25  1  0  0  0  0
  9 10  2  0  0  0  0
  9 11  1  0  0  0  0
 11 15  1  0  0  0  0
 11 12  1  0  0  0  0
 11 26  1  0  0  0  0
 12 13  1  0  0  0  0
 12 27  1  0  0  0  0
 12 28  1  0  0  0  0
 13 14  1  0  0  0  0
 13 29  1  0  0  0  0
 13 30  1  0  0  0  0
 14 15  1  0  0  0  0
 15 31  1  0  0  0  0
 15 32  1  0  0  0  0
M  END
> <s_m_source_file>
AV-unprocessed.smi

> <i_m_source_file_index>
3305

> <i_lp_mmshare_version>
43012

> <i_f3d_flags>
0

> <s_epik_input>
W0NIM11jMVtjSF1zYyhuMSlbQ0gyXVtDSDJdW05IXUMoPU8pW0NAQEhdMltDSDJdW0NIMl1PW0NIMl0y

> <s_epik_cmdline>
J2VwaWtfcHl0aG9uJywgJy1waCcsICc3LjAnLCAnLXRuJywgJzgnLCAnLW1hJywgJzIwMCcsICctbWV0YWxfYmluZGluZycsICctaW1hZScsICc8aW5maWxlLm1hZT4nLCAnLW9tYWUnLCAnPG91dGZpbGUubWFlPic=

> <r_epik_Ionization_Penalty>
0.00102754

> <r_epik_Ionization_Penalty_Charging>
0

> <r_epik_Ionization_Penalty_Neutral>
0.00102754

> <r_epik_State_Penalty>
0.000671034

> <r_epik_Charging_Adjusted_Penalty>
0.000671034

> <i_epik_Tot_Q>
0

> <i_epik_Tot_abs_Q>
0

> <r_epik_Metal_State_Penalty>
-0

> <b_epik_Metal_Only>
0

> <s_lp_Force_Field>
OPLS_2005

> <r_lp_Energy>
8.47293

> <b_lp_Chiralities_Consistent>
1

> <s_lp_Variant>
AV-unprocessed.smi:3305-2

> <Gold.Version>
5.8.1

> <Gold.Id.Protein>
6NUR|6NUR_protein|mol2

> <Gold.PLP.Fitness>
39.3419

> <Gold.PLP.PLP>
-34.8624

> <Gold.PLP.part.hbond>
-2.0000

> <Gold.PLP.part.metal>
0.0000

> <Gold.PLP.part.buried>
-3.2590

> <Gold.PLP.part.nonpolar>
-29.3808

> <Gold.PLP.part.repulsive>
0.3272

> <Gold.PLP.ligand.clash>
0.0000

> <Gold.PLP.ligand.torsion>
0.7462

> <Gold.PLP.Chemscore.Hbond>
1.9760

> <Gold.PLP.Chemscore.CHOScore>
0.0000

> <Gold.PLP.Chemscore.Metal>
0.0000

> <Gold.Chemscore.Hbonds>
donor molecule, donor type, donor heavy atom, donor atom, acceptor molecule, acceptor atom, score
      L1  H     8    25       P1  8028  0.80
      P1  H  7989  7998       L1    10  0.91

> <Gold.PLP.Chemscore.Internal.Correction>
0.0438

> <Gold.Rescore>
     Score         DG    S(hbond)    S(metal)    S(lipo)     H(rot)  DE(clash)    DE(int)     intcor
     17.13     -17.57       1.62        0.00      90.34       1.52       0.06       0.39       ----

> <Gold.Chemscore.Fitness>
17.1262

> <Gold.Chemscore.DG>
-17.5738

> <Gold.Chemscore.ZeroCoef>
-5.4800

> <Gold.Chemscore.Hbond>
1.6182

> <Gold.Chemscore.Metal>
0.0000

> <Gold.Chemscore.Lipo>
90.3374

> <Gold.Chemscore.Internal_Hbond>
0.0000

> <Gold.Chemscore.DEClash>
0.0554

> <Gold.Chemscore.DEInternal>
0.3921

> <Gold.Chemscore.Rot>
1.5159

> <Gold.Chemscore.Internal.Correction>
   9.000000E+99

> <Gold.Chemscore.Hbonds>
donor molecule, donor type, donor heavy atom, donor atom, acceptor molecule, acceptor atom, score
      L1  H     8    25       P1  8028  0.79
      P1  H  7989  7998       L1    10  0.84

> <Gold.Chemscore.Hbond.Weighted>
-5.4049

> <Gold.Chemscore.Metal.Weighted>
-0.0000

> <Gold.Chemscore.Lipo.Weighted>
-10.5695

> <Gold.Chemscore.Internal_Hbond.Weighted>
0.0000

> <Gold.Chemscore.DEClash.Weighted>
0.0554

> <Gold.Chemscore.DEInternal.Weighted>
0.3921

> <Gold.Chemscore.Rot.Weighted>
3.8807

> <Gold.Chemscore.Internal.Correction.Weighted>
   9.000000E+99

> <Gold.Protein.RotatedTorsions>
[ 6907 6896 6895 6894 ] final  -10.86 input  -60.11 | X-H torsion
[ 7974 7965 7964 7962 ] final  -75.63 input  175.53 | X-H torsion
[ 8008 7997 7996 7995 ] final -104.37 input   59.86 | X-H torsion
[ 10167 10162 10161 10158 ] final   25.11 input  -65.29 | X-H torsion
[ 10718 10713 10712 10709 ] final  132.39 input   66.30 | X-H torsion
[ 10763 10752 10751 10750 ] final   29.53 input  -60.55 | X-H torsion
[ 11005 11000 10999 10996 ] final  175.02 input  -57.11 | X-H torsion

> <Gold.Protein.ActiveResidues>
 VAL166  LYS551  ARG553  GLY616  TRP617  ASP618  TYR619  PRO620  LYS621  CYS622 
 ASP623  PHE694  ASN695  SER759  ASP760  ASP761  ALA762  ILE779  LEU786  VAL792 
 PHE793  MET794  SER795  GLU796  ALA797  LYS798  CYS799  TRP800  GLU811  SER814 

> <Gold.Protein.RotatedAtoms>
  151.3953  135.0962  159.9538 H   0  0  0  0  0  0  0  0  0  0  0  0  # atno 6907 bound_to 6896
  152.5067  133.8940  159.7418 H   0  0  0  0  0  0  0  0  0  0  0  0  # atno 6908 bound_to 6896
  150.9402  133.6609  159.2821 H   0  0  0  0  0  0  0  0  0  0  0  0  # atno 6909 bound_to 6896
  145.6235  140.9357  143.1125 H   0  0  0  0  0  0  0  0  0  0  0  0  # atno 7974 bound_to 7965
  154.8843  140.0418  157.1801 H   0  0  0  0  0  0  0  0  0  0  0  0  # atno 8008 bound_to 7997
  154.8607  140.2943  155.5520 H   0  0  0  0  0  0  0  0  0  0  0  0  # atno 8009 bound_to 7997
  156.2998  140.2447  156.3580 H   0  0  0  0  0  0  0  0  0  0  0  0  # atno 8010 bound_to 7997
  140.5133  144.0124  150.6382 H   0  0  0  0  0  0  0  0  0  0  0  0  # atno 10167 bound_to 10162
  157.4875  131.1089  150.9600 H   0  0  0  0  0  0  0  0  0  0  0  0  # atno 10718 bound_to 10713
  153.0425  135.6486  154.0905 H   0  0  0  0  0  0  0  0  0  0  0  0  # atno 10763 bound_to 10752
  154.0609  135.2888  155.3326 H   0  0  0  0  0  0  0  0  0  0  0  0  # atno 10764 bound_to 10752
  154.6658  135.5374  153.8140 H   0  0  0  0  0  0  0  0  0  0  0  0  # atno 10765 bound_to 10752
  140.3576  134.7141  157.4310 H   0  0  0  0  0  0  0  0  0  0  0  0  # atno 11005 bound_to 11000
  144.7222  139.7993  143.7378 LP  0  0  0  0  0  0  0  0  0  0  0  0  # atno 17320 bound_to 7965
  146.1413  139.4470  143.0107 LP  0  0  0  0  0  0  0  0  0  0  0  0  # atno 17321 bound_to 7965
  140.3453  143.2995  152.0545 LP  0  0  0  0  0  0  0  0  0  0  0  0  # atno 17342 bound_to 10162
  139.4902  144.6413  151.6871 LP  0  0  0  0  0  0  0  0  0  0  0  0  # atno 17343 bound_to 10162
  157.0313  130.5712  149.5343 LP  0  0  0  0  0  0  0  0  0  0  0  0  # atno 17370 bound_to 10713
  156.0155  130.5249  150.8121 LP  0  0  0  0  0  0  0  0  0  0  0  0  # atno 17371 bound_to 10713
  140.0652  134.5939  155.8703 LP  0  0  0  0  0  0  0  0  0  0  0  0  # atno 17394 bound_to 11000
  141.1994  133.6606  156.5840 LP  0  0  0  0  0  0  0  0  0  0  0  0  # atno 17395 bound_to 11000

$$$$
