AV-unprocessed.smi:203|AV-procd|sdf|1583|dock8
  -GOLD-   2262019473D 1   1.00000     0.00000
 Structure written by MMmdl.
 57 61  0  0  0  0  0  0  0  0  1 V2000
  156.2118  139.5347  158.9733 O   0  0  0  0  0  0  0  0  0  0  0  0
  155.2867  140.1120  159.5394 C   0  0  0  0  0  0  0  0  0  0  0  0
  153.8355  139.9959  159.1058 C   0  0  0  0  0  0  0  0  0  0  0  0
  153.1153  141.0630  159.9535 C   0  0  2  0  0  0  0  0  0  0  0  0
  152.5710  142.2694  159.1243 C   0  0  2  0  0  0  0  0  0  0  0  0
  152.7484  143.6281  159.8530 C   0  0  0  0  0  0  0  0  0  0  0  0
  152.2083  144.7966  159.0179 C   0  0  0  0  0  0  0  0  0  0  0  0
  150.7429  144.5415  158.6501 C   0  0  0  0  0  0  0  0  0  0  0  0
  150.6016  143.1968  157.9251 C   0  0  0  0  0  0  0  0  0  0  0  0
  151.1641  142.1028  158.7164 N   0  0  0  0  0  0  0  0  0  0  0  0
  150.8328  140.9131  158.1670 C   0  0  0  0  0  0  0  0  0  0  0  0
  150.8529  139.8289  158.9802 N   0  0  0  0  0  0  0  0  0  0  0  0
  150.5367  138.6250  158.4935 C   0  0  0  0  0  0  0  0  0  0  0  0
  150.1737  138.2946  157.2521 N   0  0  0  0  0  0  0  0  0  0  0  0
  150.1440  139.3870  156.4358 C   0  0  0  0  0  0  0  0  0  0  0  0
  150.4593  140.7238  156.8067 C   0  0  0  0  0  0  0  0  0  0  0  0
  150.3228  141.5663  155.7103 N   0  0  0  0  0  0  0  0  0  0  0  0
  149.9454  140.7727  154.7458 C   0  0  0  0  0  0  0  0  0  0  0  0
  149.7940  139.4504  155.0986 N   0  0  0  0  0  0  0  0  0  0  0  0
  149.3732  138.3620  154.2336 C   0  0  0  0  0  0  0  0  0  0  0  0
  148.1208  137.6134  154.7465 C   0  0  2  0  0  0  0  0  0  0  0  0
  148.0158  136.3875  154.0524 O   0  0  0  0  0  0  0  0  0  0  0  0
  146.7671  138.3569  154.6507 C   0  0  2  0  0  0  0  0  0  0  0  0
  146.7307  139.7931  155.1783 C   0  0  0  0  0  0  0  0  0  0  0  0
  145.2498  139.9815  155.4195 C   0  0  0  0  0  0  0  0  0  0  0  0
  144.8323  138.6068  155.9374 C   0  0  0  0  0  0  0  0  0  0  0  0
  145.7284  137.6704  155.3441 O   0  0  0  0  0  0  0  0  0  0  0  0
  154.1346  141.4601  161.0453 C   0  0  0  0  0  0  0  0  0  0  0  0
  155.3995  140.9089  160.5998 N   0  0  0  0  0  0  0  0  0  0  0  0
  153.7214  140.1441  158.0320 H   0  0  0  0  0  0  0  0  0  0  0  0
  153.4746  138.9951  159.3457 H   0  0  0  0  0  0  0  0  0  0  0  0
  152.2776  140.5585  160.4357 H   0  0  0  0  0  0  0  0  0  0  0  0
  153.1609  142.3241  158.2089 H   0  0  0  0  0  0  0  0  0  0  0  0
  152.2299  143.6148  160.8119 H   0  0  0  0  0  0  0  0  0  0  0  0
  153.7978  143.8149  160.0776 H   0  0  0  0  0  0  0  0  0  0  0  0
  152.3002  145.7305  159.5729 H   0  0  0  0  0  0  0  0  0  0  0  0
  152.8041  144.9095  158.1114 H   0  0  0  0  0  0  0  0  0  0  0  0
  150.1306  144.5386  159.5528 H   0  0  0  0  0  0  0  0  0  0  0  0
  150.3672  145.3478  158.0196 H   0  0  0  0  0  0  0  0  0  0  0  0
  149.5473  143.0051  157.7192 H   0  0  0  0  0  0  0  0  0  0  0  0
  151.1094  143.2445  156.9606 H   0  0  0  0  0  0  0  0  0  0  0  0
  150.5786  137.8096  159.2006 H   0  0  0  0  0  0  0  0  0  0  0  0
  149.7526  141.1372  153.7474 H   0  0  0  0  0  0  0  0  0  0  0  0
  149.1944  138.7648  153.2360 H   0  0  0  0  0  0  0  0  0  0  0  0
  150.2082  137.6672  154.1360 H   0  0  0  0  0  0  0  0  0  0  0  0
  148.2802  137.3548  155.7938 H   0  0  0  0  0  0  0  0  0  0  0  0
  148.4543  136.4756  153.2201 H   0  0  0  0  0  0  0  0  0  0  0  0
  146.4535  138.3733  153.6051 H   0  0  0  0  0  0  0  0  0  0  0  0
  147.2680  139.8915  156.1205 H   0  0  0  0  0  0  0  0  0  0  0  0
  147.1434  140.5152  154.4733 H   0  0  0  0  0  0  0  0  0  0  0  0
  145.0269  140.7865  156.1201 H   0  0  0  0  0  0  0  0  0  0  0  0
  144.7429  140.1976  154.4781 H   0  0  0  0  0  0  0  0  0  0  0  0
  144.9465  138.5561  157.0206 H   0  0  0  0  0  0  0  0  0  0  0  0
  143.7953  138.3709  155.6974 H   0  0  0  0  0  0  0  0  0  0  0  0
  154.2088  142.5372  161.1960 H   0  0  0  0  0  0  0  0  0  0  0  0
  153.8704  141.0116  162.0037 H   0  0  0  0  0  0  0  0  0  0  0  0
  156.2755  141.1246  161.0534 H   0  0  0  0  0  0  0  0  0  0  0  0
  1  2  2  0  0  0  0
  2 29  1  0  0  0  0
  2  3  1  0  0  0  0
  3  4  1  0  0  0  0
  3 30  1  0  0  0  0
  3 31  1  0  0  0  0
  4  5  1  0  0  0  0
  4 28  1  0  0  0  0
  4 32  1  0  0  0  0
  5 10  1  0  0  0  0
  5  6  1  0  0  0  0
  5 33  1  0  0  0  0
  6  7  1  0  0  0  0
  6 34  1  0  0  0  0
  6 35  1  0  0  0  0
  7  8  1  0  0  0  0
  7 36  1  0  0  0  0
  7 37  1  0  0  0  0
  8  9  1  0  0  0  0
  8 38  1  0  0  0  0
  8 39  1  0  0  0  0
  9 10  1  0  0  0  0
  9 40  1  0  0  0  0
  9 41  1  0  0  0  0
 10 11  1  0  0  0  0
 11 16  1  0  0  0  0
 11 12  2  0  0  0  0
 12 13  1  0  0  0  0
 13 14  2  0  0  0  0
 13 42  1  0  0  0  0
 14 15  1  0  0  0  0
 15 19  1  0  0  0  0
 15 16  2  0  0  0  0
 16 17  1  0  0  0  0
 17 18  2  0  0  0  0
 18 19  1  0  0  0  0
 18 43  1  0  0  0  0
 19 20  1  0  0  0  0
 20 21  1  0  0  0  0
 20 44  1  0  0  0  0
 20 45  1  0  0  0  0
 21 22  1  0  0  0  0
 21 23  1  0  0  0  0
 21 46  1  0  0  0  0
 22 47  1  0  0  0  0
 23 27  1  0  0  0  0
 23 24  1  0  0  0  0
 23 48  1  0  0  0  0
 24 25  1  0  0  0  0
 24 49  1  0  0  0  0
 24 50  1  0  0  0  0
 25 26  1  0  0  0  0
 25 51  1  0  0  0  0
 25 52  1  0  0  0  0
 26 27  1  0  0  0  0
 26 53  1  0  0  0  0
 26 54  1  0  0  0  0
 28 29  1  0  0  0  0
 28 55  1  0  0  0  0
 28 56  1  0  0  0  0
 29 57  1  0  0  0  0
M  END
> <s_m_source_file>
AV-unprocessed.smi

> <i_m_source_file_index>
203

> <i_lp_mmshare_version>
43012

> <i_f3d_flags>
0

> <s_epik_input>
Tz1DMVtDSDJdW0NASF0oW0NIMl1bTkhdMSlbQ0BASF0yW0NIMl1bQ0gyXVtDSDJdW0NIMl1OMmMobltjSF1uMyljKGMzNCluW2NIXW40W0NIMl1bQ0BIXShbT0hdKVtDQEBIXTVbQ0gyXVtDSDJdW0NIMl1PNQ==

> <s_epik_cmdline>
J2VwaWtfcHl0aG9uJywgJy1waCcsICc3LjAnLCAnLXRuJywgJzgnLCAnLW1hJywgJzIwMCcsICctbWV0YWxfYmluZGluZycsICctaW1hZScsICc8aW5maWxlLm1hZT4nLCAnLW9tYWUnLCAnPG91dGZpbGUubWFlPic=

> <r_lp_tautomer_probability>
1

> <r_epik_Ionization_Penalty>
0.00175146

> <r_epik_Ionization_Penalty_Charging>
0

> <r_epik_Ionization_Penalty_Neutral>
0.00175146

> <r_epik_State_Penalty>
0.00109045

> <r_epik_Charging_Adjusted_Penalty>
0.00109045

> <i_epik_Tot_Q>
0

> <i_epik_Tot_abs_Q>
0

> <r_epik_Metal_State_Penalty>
-0

> <b_epik_Metal_Only>
0

> <s_lp_Force_Field>
OPLS_2005

> <r_lp_Energy>
56.3505

> <b_lp_Chiralities_Consistent>
1

> <s_lp_Variant>
AV-unprocessed.smi:203-2

> <Gold.Version>
5.8.1

> <Gold.Id.Protein>
6NUR|6NUR_protein|mol2

> <Gold.PLP.Fitness>
42.2679

> <Gold.PLP.PLP>
-39.2945

> <Gold.PLP.part.hbond>
-3.0508

> <Gold.PLP.part.metal>
0.0000

> <Gold.PLP.part.buried>
-1.1117

> <Gold.PLP.part.nonpolar>
-35.7486

> <Gold.PLP.part.repulsive>
0.1874

> <Gold.PLP.ligand.clash>
1.1644

> <Gold.PLP.ligand.torsion>
1.5709

> <Gold.PLP.Chemscore.Hbond>
1.9825

> <Gold.PLP.Chemscore.CHOScore>
0.3486

> <Gold.PLP.Chemscore.Metal>
0.0000

> <Gold.Chemscore.Hbonds>
donor molecule, donor type, donor heavy atom, donor atom, acceptor molecule, acceptor atom, score
      L1  H    22    47       P1  7948  0.83
      P1  H  7997  8008       L1     1  0.90
      L1  C    18    43       P1  7957  0.31

> <Gold.PLP.Chemscore.Internal.Correction>
0.2863

> <Gold.Rescore>
     Score         DG    S(hbond)    S(metal)    S(lipo)     H(rot)  DE(clash)    DE(int)     intcor
      7.53     -13.40       1.01        0.00      98.35       2.72       0.16       5.71       ----

> <Gold.Chemscore.Fitness>
7.5313

> <Gold.Chemscore.DG>
-13.3996

> <Gold.Chemscore.ZeroCoef>
-5.4800

> <Gold.Chemscore.Hbond>
1.0086

> <Gold.Chemscore.Metal>
0.0000

> <Gold.Chemscore.Lipo>
98.3478

> <Gold.Chemscore.Internal_Hbond>
0.0000

> <Gold.Chemscore.DEClash>
0.1613

> <Gold.Chemscore.DEInternal>
5.7070

> <Gold.Chemscore.Rot>
2.7171

> <Gold.Chemscore.Internal.Correction>
   9.000000E+99

> <Gold.Chemscore.Hbonds>
donor molecule, donor type, donor heavy atom, donor atom, acceptor molecule, acceptor atom, score
      L1  H    22    47       P1  7948  0.82
      P1  H  7997  8008       L1     1  0.18

> <Gold.Chemscore.Hbond.Weighted>
-3.3686

> <Gold.Chemscore.Metal.Weighted>
-0.0000

> <Gold.Chemscore.Lipo.Weighted>
-11.5067

> <Gold.Chemscore.Internal_Hbond.Weighted>
0.0000

> <Gold.Chemscore.DEClash.Weighted>
0.1613

> <Gold.Chemscore.DEInternal.Weighted>
5.7070

> <Gold.Chemscore.Rot.Weighted>
6.9557

> <Gold.Chemscore.Internal.Correction.Weighted>
   9.000000E+99

> <Gold.Protein.RotatedTorsions>
[ 6907 6896 6895 6894 ] final  -27.93 input  -60.11 | X-H torsion
[ 7974 7965 7964 7962 ] final  149.03 input  175.53 | X-H torsion
[ 8008 7997 7996 7995 ] final -162.08 input   59.86 | X-H torsion
[ 10167 10162 10161 10158 ] final  159.62 input  -65.29 | X-H torsion
[ 10718 10713 10712 10709 ] final -172.20 input   66.30 | X-H torsion
[ 10763 10752 10751 10750 ] final   91.36 input  -60.55 | X-H torsion
[ 11005 11000 10999 10996 ] final    0.53 input  -57.11 | X-H torsion

> <Gold.Protein.ActiveResidues>
 VAL166  LYS551  ARG553  GLY616  TRP617  ASP618  TYR619  PRO620  LYS621  CYS622 
 ASP623  PHE694  ASN695  SER759  ASP760  ASP761  ALA762  ILE779  LEU786  VAL792 
 PHE793  MET794  SER795  GLU796  ALA797  LYS798  CYS799  TRP800  GLU811  SER814 

> <Gold.Protein.RotatedAtoms>
  151.1401  135.0175  159.8621 H   0  0  0  0  0  0  0  0  0  0  0  0  # atno 6907 bound_to 6896
  152.5452  134.1509  159.8528 H   0  0  0  0  0  0  0  0  0  0  0  0  # atno 6908 bound_to 6896
  151.1584  133.4815  159.2627 H   0  0  0  0  0  0  0  0  0  0  0  0  # atno 6909 bound_to 6896
  144.8469  139.6228  143.5991 H   0  0  0  0  0  0  0  0  0  0  0  0  # atno 7974 bound_to 7965
  155.8015  140.0892  157.1954 H   0  0  0  0  0  0  0  0  0  0  0  0  # atno 8008 bound_to 7997
  154.3982  140.1471  156.3339 H   0  0  0  0  0  0  0  0  0  0  0  0  # atno 8009 bound_to 7997
  155.8457  140.3437  155.5663 H   0  0  0  0  0  0  0  0  0  0  0  0  # atno 8010 bound_to 7997
  139.4834  144.4713  151.8573 H   0  0  0  0  0  0  0  0  0  0  0  0  # atno 10167 bound_to 10162
  156.7520  130.9382  151.3115 H   0  0  0  0  0  0  0  0  0  0  0  0  # atno 10718 bound_to 10713
  153.2074  135.4400  155.0339 H   0  0  0  0  0  0  0  0  0  0  0  0  # atno 10763 bound_to 10752
  154.8181  135.3324  154.7120 H   0  0  0  0  0  0  0  0  0  0  0  0  # atno 10764 bound_to 10752
  153.7561  135.6995  153.4991 H   0  0  0  0  0  0  0  0  0  0  0  0  # atno 10765 bound_to 10752
  140.6255  133.9622  155.8247 H   0  0  0  0  0  0  0  0  0  0  0  0  # atno 11005 bound_to 11000
  146.2752  139.6734  142.9268 LP  0  0  0  0  0  0  0  0  0  0  0  0  # atno 17320 bound_to 7965
  145.4579  141.0431  143.2768 LP  0  0  0  0  0  0  0  0  0  0  0  0  # atno 17321 bound_to 7965
  140.4181  144.2279  150.5887 LP  0  0  0  0  0  0  0  0  0  0  0  0  # atno 17342 bound_to 10162
  140.4900  143.2350  151.8832 LP  0  0  0  0  0  0  0  0  0  0  0  0  # atno 17343 bound_to 10162
  157.6773  130.9106  150.0180 LP  0  0  0  0  0  0  0  0  0  0  0  0  # atno 17370 bound_to 10713
  156.1395  130.3642  149.9605 LP  0  0  0  0  0  0  0  0  0  0  0  0  # atno 17371 bound_to 10713
  141.0712  134.0202  157.3523 LP  0  0  0  0  0  0  0  0  0  0  0  0  # atno 17394 bound_to 11000
  139.9136  135.0194  156.7793 LP  0  0  0  0  0  0  0  0  0  0  0  0  # atno 17395 bound_to 11000

$$$$
