AV-unprocessed.smi:827|AV-procd|sdf|3856|dock8
  -GOLD-   22720 1303D 1   1.00000     0.00000
 Structure written by MMmdl.
 46 47  0  0  0  0  0  0  0  0  1 V2000
  144.0016  136.0468  150.3006 C   0  0  0  0  0  0  0  0  0  0  0  0
  144.9736  135.3007  151.0251 O   0  0  0  0  0  0  0  0  0  0  0  0
  144.8757  133.9222  151.0335 C   0  0  0  0  0  0  0  0  0  0  0  0
  143.8268  133.3462  150.3941 N   0  0  0  0  0  0  0  0  0  0  0  0
  143.7272  132.0011  150.4045 C   0  0  0  0  0  0  0  0  0  0  0  0
  144.6542  131.1649  151.0535 C   0  0  0  0  0  0  0  0  0  0  0  0
  145.7434  131.7597  151.7169 C   0  0  0  0  0  0  0  0  0  0  0  0
  145.8709  133.1698  151.7003 C   0  0  0  0  0  0  0  0  0  0  0  0
  146.9219  133.8712  152.3533 N   0  0  0  0  0  0  0  0  0  0  0  0
  147.7450  133.4297  153.3192 C   0  0  0  0  0  0  0  0  0  0  0  0
  147.7214  132.3029  153.8147 O   0  0  0  0  0  0  0  0  0  0  0  0
  148.6300  134.3730  153.6712 N   0  0  0  0  0  0  0  0  0  0  0  0
  149.6822  134.1986  154.6650 C   0  0  0  0  0  0  0  0  0  0  0  0
  149.5183  135.1991  155.8258 C   0  0  0  0  0  0  0  0  0  0  0  0
  149.1986  136.5471  155.3583 N   0  0  0  0  0  0  0  0  0  0  0  0
  148.8687  137.4335  156.4820 C   0  0  0  0  0  0  0  0  0  0  0  0
  148.5682  138.8566  155.9720 C   0  0  0  0  0  0  0  0  0  0  0  0
  149.7422  139.3623  155.2539 N   0  0  0  0  0  0  0  0  0  0  0  0
  150.5121  140.4123  155.6264 C   0  0  0  0  0  0  0  0  0  0  0  0
  150.1370  141.2070  156.8791 C   0  0  0  0  0  0  0  0  0  0  0  0
  151.5119  140.7601  154.9981 O   0  0  0  0  0  0  0  0  0  0  0  0
  150.0545  138.5009  154.1109 C   0  0  0  0  0  0  0  0  0  0  0  0
  150.3530  137.0801  154.6271 C   0  0  0  0  0  0  0  0  0  0  0  0
  144.2232  137.1101  150.3903 H   0  0  0  0  0  0  0  0  0  0  0  0
  142.9982  135.8838  150.6963 H   0  0  0  0  0  0  0  0  0  0  0  0
  144.0137  135.7953  149.2391 H   0  0  0  0  0  0  0  0  0  0  0  0
  142.8798  131.5790  149.8849 H   0  0  0  0  0  0  0  0  0  0  0  0
  144.5301  130.0922  151.0467 H   0  0  0  0  0  0  0  0  0  0  0  0
  146.4475  131.1269  152.2346 H   0  0  0  0  0  0  0  0  0  0  0  0
  147.1208  134.7897  151.9847 H   0  0  0  0  0  0  0  0  0  0  0  0
  148.5800  135.2705  153.2118 H   0  0  0  0  0  0  0  0  0  0  0  0
  149.6247  133.1774  155.0433 H   0  0  0  0  0  0  0  0  0  0  0  0
  150.6523  134.2966  154.1773 H   0  0  0  0  0  0  0  0  0  0  0  0
  148.7596  134.8585  156.5324 H   0  0  0  0  0  0  0  0  0  0  0  0
  150.4614  135.2316  156.3734 H   0  0  0  0  0  0  0  0  0  0  0  0
  147.9941  137.0618  157.0143 H   0  0  0  0  0  0  0  0  0  0  0  0
  149.6928  137.4573  157.1971 H   0  0  0  0  0  0  0  0  0  0  0  0
  147.7129  138.8407  155.2946 H   0  0  0  0  0  0  0  0  0  0  0  0
  148.2666  139.4836  156.8095 H   0  0  0  0  0  0  0  0  0  0  0  0
  150.1370  140.5637  157.7596 H   0  0  0  0  0  0  0  0  0  0  0  0
  149.1513  141.6593  156.7693 H   0  0  0  0  0  0  0  0  0  0  0  0
  150.8541  142.0098  157.0539 H   0  0  0  0  0  0  0  0  0  0  0  0
  149.2071  138.4857  153.4235 H   0  0  0  0  0  0  0  0  0  0  0  0
  150.9044  138.8627  153.5309 H   0  0  0  0  0  0  0  0  0  0  0  0
  151.2336  137.0919  155.2722 H   0  0  0  0  0  0  0  0  0  0  0  0
  150.5829  136.4298  153.7821 H   0  0  0  0  0  0  0  0  0  0  0  0
  1  2  1  0  0  0  0
  1 24  1  0  0  0  0
  1 25  1  0  0  0  0
  1 26  1  0  0  0  0
  2  3  1  0  0  0  0
  3  8  1  0  0  0  0
  3  4  2  0  0  0  0
  4  5  1  0  0  0  0
  5  6  2  0  0  0  0
  5 27  1  0  0  0  0
  6  7  1  0  0  0  0
  6 28  1  0  0  0  0
  7  8  2  0  0  0  0
  7 29  1  0  0  0  0
  8  9  1  0  0  0  0
  9 10  1  0  0  0  0
  9 30  1  0  0  0  0
 10 11  2  0  0  0  0
 10 12  1  0  0  0  0
 12 13  1  0  0  0  0
 12 31  1  0  0  0  0
 13 14  1  0  0  0  0
 13 32  1  0  0  0  0
 13 33  1  0  0  0  0
 14 15  1  0  0  0  0
 14 34  1  0  0  0  0
 14 35  1  0  0  0  0
 15 23  1  0  0  0  0
 15 16  1  0  0  0  0
 16 17  1  0  0  0  0
 16 36  1  0  0  0  0
 16 37  1  0  0  0  0
 17 18  1  0  0  0  0
 17 38  1  0  0  0  0
 17 39  1  0  0  0  0
 18 19  1  0  0  0  0
 18 22  1  0  0  0  0
 19 20  1  0  0  0  0
 19 21  2  0  0  0  0
 20 40  1  0  0  0  0
 20 41  1  0  0  0  0
 20 42  1  0  0  0  0
 22 23  1  0  0  0  0
 22 43  1  0  0  0  0
 22 44  1  0  0  0  0
 23 45  1  0  0  0  0
 23 46  1  0  0  0  0
M  END
> <s_m_source_file>
AV-unprocessed.smi

> <i_m_source_file_index>
827

> <i_lp_mmshare_version>
43012

> <i_f3d_flags>
0

> <s_epik_input>
W0NIM11PYzFuW2NIXVtjSF1bY0hdYzFbTkhdQyg9TylbTkhdW0NIMl1bQ0gyXU4yW0NIMl1bQ0gyXU4oQyg9TylbQ0gzXSlbQ0gyXVtDSDJdMg==

> <s_epik_cmdline>
J2VwaWtfcHl0aG9uJywgJy1waCcsICc3LjAnLCAnLXRuJywgJzgnLCAnLW1hJywgJzIwMCcsICctbWV0YWxfYmluZGluZycsICctaW1hZScsICc8aW5maWxlLm1hZT4nLCAnLW9tYWUnLCAnPG91dGZpbGUubWFlPic=

> <r_lp_tautomer_probability>
1

> <r_epik_Ionization_Penalty>
0.251055

> <r_epik_Ionization_Penalty_Charging>
0

> <r_epik_Ionization_Penalty_Neutral>
0.251055

> <r_epik_State_Penalty>
0.242297

> <r_epik_Charging_Adjusted_Penalty>
0.242297

> <i_epik_Tot_Q>
0

> <i_epik_Tot_abs_Q>
0

> <r_epik_Metal_State_Penalty>
0.242294

> <b_epik_Metal_Only>
0

> <s_lp_Force_Field>
OPLS_2005

> <r_lp_Energy>
35.7173

> <b_lp_Chiralities_Consistent>
1

> <s_lp_Variant>
AV-unprocessed.smi:827-1

> <Gold.Version>
5.8.1

> <Gold.Id.Protein>
6NUR|6NUR_protein|mol2

> <Gold.PLP.Fitness>
43.0939

> <Gold.PLP.PLP>
-34.2325

> <Gold.PLP.part.hbond>
-3.1978

> <Gold.PLP.part.metal>
0.0000

> <Gold.PLP.part.buried>
-0.3164

> <Gold.PLP.part.nonpolar>
-30.6320

> <Gold.PLP.part.repulsive>
0.6279

> <Gold.PLP.ligand.clash>
0.0000

> <Gold.PLP.ligand.torsion>
0.1757

> <Gold.PLP.Chemscore.Hbond>
2.3070

> <Gold.PLP.Chemscore.CHOScore>
0.7464

> <Gold.PLP.Chemscore.Metal>
0.0000

> <Gold.Chemscore.Hbonds>
donor molecule, donor type, donor heavy atom, donor atom, acceptor molecule, acceptor atom, score
      L1  H     9    30       P1  7948  0.25
      L1  H    12    31       P1  7948  0.94
      P1  H  7989  7998       L1    21  0.67
      L1  C     5    27       P1 10952  1.00

> <Gold.PLP.Chemscore.Internal.Correction>
0.0526

> <Gold.Rescore>
     Score         DG    S(hbond)    S(metal)    S(lipo)     H(rot)  DE(clash)    DE(int)     intcor
     12.10     -15.11       1.81        0.00      70.58       1.83       1.49       1.52       ----

> <Gold.Chemscore.Fitness>
12.1045

> <Gold.Chemscore.DG>
-15.1140

> <Gold.Chemscore.ZeroCoef>
-5.4800

> <Gold.Chemscore.Hbond>
1.8129

> <Gold.Chemscore.Metal>
0.0000

> <Gold.Chemscore.Lipo>
70.5842

> <Gold.Chemscore.Internal_Hbond>
0.0000

> <Gold.Chemscore.DEClash>
1.4856

> <Gold.Chemscore.DEInternal>
1.5239

> <Gold.Chemscore.Rot>
1.8280

> <Gold.Chemscore.Internal.Correction>
   9.000000E+99

> <Gold.Chemscore.Hbonds>
donor molecule, donor type, donor heavy atom, donor atom, acceptor molecule, acceptor atom, score
      L1  H     9    30       P1  7948  0.24
      L1  H    12    31       P1  7948  0.80
      P1  H  7989  7998       L1    21  0.64

> <Gold.Chemscore.Hbond.Weighted>
-6.0552

> <Gold.Chemscore.Metal.Weighted>
-0.0000

> <Gold.Chemscore.Lipo.Weighted>
-8.2583

> <Gold.Chemscore.Internal_Hbond.Weighted>
0.0000

> <Gold.Chemscore.DEClash.Weighted>
1.4856

> <Gold.Chemscore.DEInternal.Weighted>
1.5239

> <Gold.Chemscore.Rot.Weighted>
4.6796

> <Gold.Chemscore.Internal.Correction.Weighted>
   9.000000E+99

> <Gold.Protein.RotatedTorsions>
[ 6907 6896 6895 6894 ] final -176.11 input  -60.11 | X-H torsion
[ 7974 7965 7964 7962 ] final  -76.08 input  175.53 | X-H torsion
[ 8008 7997 7996 7995 ] final  161.92 input   59.86 | X-H torsion
[ 10167 10162 10161 10158 ] final  -49.72 input  -65.29 | X-H torsion
[ 10718 10713 10712 10709 ] final   59.44 input   66.30 | X-H torsion
[ 10763 10752 10751 10750 ] final  -74.17 input  -60.55 | X-H torsion
[ 11005 11000 10999 10996 ] final  -51.92 input  -57.11 | X-H torsion

> <Gold.Protein.ActiveResidues>
 VAL166  LYS551  ARG553  GLY616  TRP617  ASP618  TYR619  PRO620  LYS621  CYS622 
 ASP623  PHE694  ASN695  SER759  ASP760  ASP761  ALA762  ILE779  LEU786  VAL792 
 PHE793  MET794  SER795  GLU796  ALA797  LYS798  CYS799  TRP800  GLU811  SER814 

> <Gold.Protein.RotatedAtoms>
  151.5995  133.3358  159.3044 H   0  0  0  0  0  0  0  0  0  0  0  0  # atno 6907 bound_to 6896
  150.8215  134.7429  159.6788 H   0  0  0  0  0  0  0  0  0  0  0  0  # atno 6908 bound_to 6896
  152.4308  134.5786  159.9993 H   0  0  0  0  0  0  0  0  0  0  0  0  # atno 6909 bound_to 6896
  145.6175  140.9371  143.1156 H   0  0  0  0  0  0  0  0  0  0  0  0  # atno 7974 bound_to 7965
  156.2068  140.1764  156.7781 H   0  0  0  0  0  0  0  0  0  0  0  0  # atno 8008 bound_to 7997
  154.5667  140.0690  156.8932 H   0  0  0  0  0  0  0  0  0  0  0  0  # atno 8009 bound_to 7997
  155.2748  140.3345  155.4265 H   0  0  0  0  0  0  0  0  0  0  0  0  # atno 8010 bound_to 7997
  140.6672  143.2686  151.4256 H   0  0  0  0  0  0  0  0  0  0  0  0  # atno 10167 bound_to 10162
  157.5676  130.8883  149.9213 H   0  0  0  0  0  0  0  0  0  0  0  0  # atno 10718 bound_to 10713
  154.4694  135.5873  153.6311 H   0  0  0  0  0  0  0  0  0  0  0  0  # atno 10763 bound_to 10752
  152.9832  135.6063  154.3386 H   0  0  0  0  0  0  0  0  0  0  0  0  # atno 10764 bound_to 10752
  154.3266  135.2843  155.2472 H   0  0  0  0  0  0  0  0  0  0  0  0  # atno 10765 bound_to 10752
  141.0897  133.6635  156.3948 H   0  0  0  0  0  0  0  0  0  0  0  0  # atno 11005 bound_to 11000
  144.7244  139.7922  143.7370 LP  0  0  0  0  0  0  0  0  0  0  0  0  # atno 17320 bound_to 7965
  146.1457  139.4525  143.0081 LP  0  0  0  0  0  0  0  0  0  0  0  0  # atno 17321 bound_to 7965
  139.5925  144.1468  152.2105 LP  0  0  0  0  0  0  0  0  0  0  0  0  # atno 17342 bound_to 10162
  140.0827  144.5687  150.7110 LP  0  0  0  0  0  0  0  0  0  0  0  0  # atno 17343 bound_to 10162
  156.0723  130.3683  150.0750 LP  0  0  0  0  0  0  0  0  0  0  0  0  # atno 17370 bound_to 10713
  156.8907  130.9587  151.3589 LP  0  0  0  0  0  0  0  0  0  0  0  0  # atno 17371 bound_to 10713
  140.5282  134.6239  157.5341 LP  0  0  0  0  0  0  0  0  0  0  0  0  # atno 17394 bound_to 11000
  139.9720  134.7277  156.0022 LP  0  0  0  0  0  0  0  0  0  0  0  0  # atno 17395 bound_to 11000

$$$$
