AV-unprocessed.smi:1433|AV-procd|sdf|5847|dock4
  -GOLD-   22720 5513D 1   1.00000     0.00000
 Structure written by MMmdl.
 45 46  0  0  0  0  0  0  0  0  2 V2000
  148.8236  141.0181  155.0847 C   0  0  0  0  0  0  0  0  0  0  0  0
  149.4643  139.7379  154.5368 C   0  0  2  0  0  0  0  0  0  0  0  0
  148.7940  138.4687  155.0929 C   0  0  0  0  0  0  0  0  0  0  0  0
  149.4700  137.2393  154.5957 N   0  3  2  0  0  0  0  0  0  0  0  0
  148.7819  135.9839  155.0439 C   0  0  1  0  0  0  0  0  0  0  0  0
  148.8071  135.8821  156.5872 C   0  0  0  0  0  0  0  0  0  0  0  0
  147.3244  135.8453  154.5176 C   0  0  0  0  0  0  0  0  0  0  0  0
  147.2650  135.5561  153.0888 N   0  0  0  0  0  0  0  0  0  0  0  0
  146.1457  135.2741  152.4044 C   0  0  0  0  0  0  0  0  0  0  0  0
  145.0371  135.1717  152.9292 O   0  0  0  0  0  0  0  0  0  0  0  0
  146.2988  135.1026  150.8932 C   0  0  0  0  0  0  0  0  0  0  0  0
  146.2867  133.6965  150.5300 N   0  0  0  0  0  0  0  0  0  0  0  0
  145.2060  132.8438  150.4432 C   0  0  0  0  0  0  0  0  0  0  0  0
  145.6804  131.6247  150.0518 C   0  0  0  0  0  0  0  0  0  0  0  0
  147.0819  131.8327  149.9222 C   0  0  0  0  0  0  0  0  0  0  0  0
  147.4420  133.0741  150.2062 N   0  0  0  0  0  0  0  0  0  0  0  0
  150.9254  137.3190  154.8995 C   0  0  0  0  0  0  0  0  0  0  0  0
  151.5380  138.6282  154.3656 C   0  0  2  0  0  0  0  0  0  0  0  0
  153.0165  138.7691  154.7449 C   0  0  0  0  0  0  0  0  0  0  0  0
  150.8346  139.7352  154.9120 O   0  0  0  0  0  0  0  0  0  0  0  0
  147.7680  141.0748  154.8179 H   0  0  0  0  0  0  0  0  0  0  0  0
  149.3156  141.9034  154.6810 H   0  0  0  0  0  0  0  0  0  0  0  0
  148.8972  141.0635  156.1717 H   0  0  0  0  0  0  0  0  0  0  0  0
  149.3857  139.7508  153.4482 H   0  0  0  0  0  0  0  0  0  0  0  0
  148.8225  138.4808  156.1839 H   0  0  0  0  0  0  0  0  0  0  0  0
  147.7444  138.4802  154.8056 H   0  0  0  0  0  0  0  0  0  0  0  0
  149.3483  135.1438  154.6388 H   0  0  0  0  0  0  0  0  0  0  0  0
  148.3418  134.9627  156.9428 H   0  0  0  0  0  0  0  0  0  0  0  0
  148.2745  136.7167  157.0442 H   0  0  0  0  0  0  0  0  0  0  0  0
  149.8178  135.8747  156.9912 H   0  0  0  0  0  0  0  0  0  0  0  0
  146.8087  135.0415  155.0440 H   0  0  0  0  0  0  0  0  0  0  0  0
  146.7480  136.7557  154.6873 H   0  0  0  0  0  0  0  0  0  0  0  0
  148.1303  135.6208  152.5713 H   0  0  0  0  0  0  0  0  0  0  0  0
  145.4948  135.6230  150.3700 H   0  0  0  0  0  0  0  0  0  0  0  0
  147.2389  135.5447  150.5605 H   0  0  0  0  0  0  0  0  0  0  0  0
  144.2008  133.1729  150.6630 H   0  0  0  0  0  0  0  0  0  0  0  0
  145.1127  130.7214  149.8838 H   0  0  0  0  0  0  0  0  0  0  0  0
  147.8427  131.1237  149.6305 H   0  0  0  0  0  0  0  0  0  0  0  0
  151.0769  137.2396  155.9774 H   0  0  0  0  0  0  0  0  0  0  0  0
  151.4623  136.4962  154.4288 H   0  0  0  0  0  0  0  0  0  0  0  0
  151.4574  138.6536  153.2773 H   0  0  0  0  0  0  0  0  0  0  0  0
  153.6065  137.9464  154.3400 H   0  0  0  0  0  0  0  0  0  0  0  0
  153.1483  138.7744  155.8273 H   0  0  0  0  0  0  0  0  0  0  0  0
  153.4324  139.6981  154.3544 H   0  0  0  0  0  0  0  0  0  0  0  0
  149.4002  137.2535  153.5882 H   0  0  0  0  0  0  0  0  0  0  0  0
  1  2  1  0  0  0  0
  1 21  1  0  0  0  0
  1 22  1  0  0  0  0
  1 23  1  0  0  0  0
  2 20  1  0  0  0  0
  2  3  1  0  0  0  0
  2 24  1  0  0  0  0
  3  4  1  0  0  0  0
  3 25  1  0  0  0  0
  3 26  1  0  0  0  0
  4  5  1  0  0  0  0
  4 17  1  0  0  0  0
  4 45  1  0  0  0  0
  5  6  1  0  0  0  0
  5  7  1  0  0  0  0
  5 27  1  0  0  0  0
  6 28  1  0  0  0  0
  6 29  1  0  0  0  0
  6 30  1  0  0  0  0
  7  8  1  0  0  0  0
  7 31  1  0  0  0  0
  7 32  1  0  0  0  0
  8  9  1  0  0  0  0
  8 33  1  0  0  0  0
  9 10  2  0  0  0  0
  9 11  1  0  0  0  0
 11 12  1  0  0  0  0
 11 34  1  0  0  0  0
 11 35  1  0  0  0  0
 12 16  1  0  0  0  0
 12 13  1  0  0  0  0
 13 14  2  0  0  0  0
 13 36  1  0  0  0  0
 14 15  1  0  0  0  0
 14 37  1  0  0  0  0
 15 16  2  0  0  0  0
 15 38  1  0  0  0  0
 17 18  1  0  0  0  0
 17 39  1  0  0  0  0
 17 40  1  0  0  0  0
 18 19  1  0  0  0  0
 18 20  1  0  0  0  0
 18 41  1  0  0  0  0
 19 42  1  0  0  0  0
 19 43  1  0  0  0  0
 19 44  1  0  0  0  0
M  CHG  1   4   1
M  END
> <s_m_source_file>
AV-unprocessed.smi

> <i_m_source_file_index>
1433

> <i_lp_mmshare_version>
43012

> <i_f3d_flags>
0

> <s_epik_input>
W0NIM11bQ0BASF0xW0NIMl1OKFtDSDJdW0NASF0oTzEpW0NIM10pW0NASF0oW0NIM10pW0NIMl1bTkhdQyg9TylbQ0gyXW4yW2NIXVtjSF1bY0hdbjI=

> <s_epik_cmdline>
J2VwaWtfcHl0aG9uJywgJy1waCcsICc3LjAnLCAnLXRuJywgJzgnLCAnLW1hJywgJzIwMCcsICctbWV0YWxfYmluZGluZycsICctaW1hZScsICc8aW5maWxlLm1hZT4nLCAnLW9tYWUnLCAnPG91dGZpbGUubWFlPic=

> <r_lp_tautomer_probability>
1

> <r_epik_Ionization_Penalty>
0.748405

> <r_epik_Ionization_Penalty_Charging>
0.748396

> <r_epik_Ionization_Penalty_Neutral>
8.54426e-06

> <r_epik_State_Penalty>
0.775162

> <r_epik_Charging_Adjusted_Penalty>
1.52356

> <i_epik_Tot_Q>
1

> <i_epik_Tot_abs_Q>
1

> <r_epik_Metal_State_Penalty>
0.775167

> <b_epik_Metal_Only>
0

> <s_lp_Force_Field>
OPLS_2005

> <r_lp_Energy>
17.7412

> <b_lp_Chiralities_Consistent>
1

> <s_lp_Variant>
AV-unprocessed.smi:1433-13

> <Gold.Version>
5.8.1

> <Gold.Id.Protein>
6NUR|6NUR_protein|mol2

> <Gold.PLP.Fitness>
51.5788

> <Gold.PLP.PLP>
-34.7086

> <Gold.PLP.part.hbond>
-3.0000

> <Gold.PLP.part.metal>
0.0000

> <Gold.PLP.part.buried>
-4.1396

> <Gold.PLP.part.nonpolar>
-27.6621

> <Gold.PLP.part.repulsive>
0.4101

> <Gold.PLP.ligand.clash>
0.0000

> <Gold.PLP.ligand.torsion>
0.6061

> <Gold.PLP.Chemscore.Hbond>
4.0000

> <Gold.PLP.Chemscore.CHOScore>
2.0000

> <Gold.PLP.Chemscore.Metal>
0.0000

> <Gold.Chemscore.Hbonds>
donor molecule, donor type, donor heavy atom, donor atom, acceptor molecule, acceptor atom, score
      L1  H     4    45       P1  7948  1.95
      L1  H     8    33       P1  7948  0.24
      P1  H  7989  7998       L1    20  0.40

> <Gold.PLP.Chemscore.Internal.Correction>
0.0826

> <Gold.Rescore>
     Score         DG    S(hbond)    S(metal)    S(lipo)     H(rot)  DE(clash)    DE(int)     intcor
     16.72     -17.23       2.25        0.00      76.95       1.87       0.16       0.35       ----

> <Gold.Chemscore.Fitness>
16.7204

> <Gold.Chemscore.DG>
-17.2255

> <Gold.Chemscore.ZeroCoef>
-5.4800

> <Gold.Chemscore.Hbond>
2.2509

> <Gold.Chemscore.Metal>
0.0000

> <Gold.Chemscore.Lipo>
76.9542

> <Gold.Chemscore.Internal_Hbond>
0.0000

> <Gold.Chemscore.DEClash>
0.1596

> <Gold.Chemscore.DEInternal>
0.3455

> <Gold.Chemscore.Rot>
1.8657

> <Gold.Chemscore.Internal.Correction>
   9.000000E+99

> <Gold.Chemscore.Hbonds>
donor molecule, donor type, donor heavy atom, donor atom, acceptor molecule, acceptor atom, score
      L1  H     4    45       P1  7948  0.83
      L1  H     8    33       P1  7948  0.24

> <Gold.Chemscore.Hbond.Weighted>
-7.5180

> <Gold.Chemscore.Metal.Weighted>
-0.0000

> <Gold.Chemscore.Lipo.Weighted>
-9.0036

> <Gold.Chemscore.Internal_Hbond.Weighted>
0.0000

> <Gold.Chemscore.DEClash.Weighted>
0.1596

> <Gold.Chemscore.DEInternal.Weighted>
0.3455

> <Gold.Chemscore.Rot.Weighted>
4.7761

> <Gold.Chemscore.Internal.Correction.Weighted>
   9.000000E+99

> <Gold.Protein.RotatedTorsions>
[ 6907 6896 6895 6894 ] final -135.17 input  -60.11 | X-H torsion
[ 7974 7965 7964 7962 ] final -168.84 input  175.53 | X-H torsion
[ 8008 7997 7996 7995 ] final -165.87 input   59.86 | X-H torsion
[ 10167 10162 10161 10158 ] final    3.84 input  -65.29 | X-H torsion
[ 10718 10713 10712 10709 ] final -111.56 input   66.30 | X-H torsion
[ 10763 10752 10751 10750 ] final -102.36 input  -60.55 | X-H torsion
[ 11005 11000 10999 10996 ] final -159.21 input  -57.11 | X-H torsion

> <Gold.Protein.ActiveResidues>
 VAL166  LYS551  ARG553  GLY616  TRP617  ASP618  TYR619  PRO620  LYS621  CYS622 
 ASP623  PHE694  ASN695  SER759  ASP760  ASP761  ALA762  ILE779  LEU786  VAL792 
 PHE793  MET794  SER795  GLU796  ALA797  LYS798  CYS799  TRP800  GLU811  SER814 

> <Gold.Protein.RotatedAtoms>
  150.9946  133.6116  159.2703 H   0  0  0  0  0  0  0  0  0  0  0  0  # atno 6907 bound_to 6896
  151.3324  135.0844  159.9353 H   0  0  0  0  0  0  0  0  0  0  0  0  # atno 6908 bound_to 6896
  152.5256  133.9573  159.7755 H   0  0  0  0  0  0  0  0  0  0  0  0  # atno 6909 bound_to 6896
  144.7196  140.2311  143.6304 H   0  0  0  0  0  0  0  0  0  0  0  0  # atno 7974 bound_to 7965
  155.8559  140.0970  157.1645 H   0  0  0  0  0  0  0  0  0  0  0  0  # atno 8008 bound_to 7997
  154.3988  140.1374  156.3963 H   0  0  0  0  0  0  0  0  0  0  0  0  # atno 8009 bound_to 7997
  155.7910  140.3456  155.5352 H   0  0  0  0  0  0  0  0  0  0  0  0  # atno 8010 bound_to 7997
  140.6565  143.7413  150.7663 H   0  0  0  0  0  0  0  0  0  0  0  0  # atno 10167 bound_to 10162
  156.0654  130.5874  150.8390 H   0  0  0  0  0  0  0  0  0  0  0  0  # atno 10718 bound_to 10713
  154.7728  135.4863  153.9684 H   0  0  0  0  0  0  0  0  0  0  0  0  # atno 10763 bound_to 10752
  153.1390  135.6768  153.9065 H   0  0  0  0  0  0  0  0  0  0  0  0  # atno 10764 bound_to 10752
  153.8745  135.3139  155.3421 H   0  0  0  0  0  0  0  0  0  0  0  0  # atno 10765 bound_to 10752
  140.6451  134.4510  157.5234 H   0  0  0  0  0  0  0  0  0  0  0  0  # atno 11005 bound_to 11000
  145.8410  139.2130  143.1827 LP  0  0  0  0  0  0  0  0  0  0  0  0  # atno 17320 bound_to 7965
  146.0346  140.8224  142.9859 LP  0  0  0  0  0  0  0  0  0  0  0  0  # atno 17321 bound_to 7965
  140.1074  143.4731  152.2390 LP  0  0  0  0  0  0  0  0  0  0  0  0  # atno 17342 bound_to 10162
  139.5789  144.7501  151.3692 LP  0  0  0  0  0  0  0  0  0  0  0  0  # atno 17343 bound_to 10162
  157.5692  131.0946  150.9443 LP  0  0  0  0  0  0  0  0  0  0  0  0  # atno 17370 bound_to 10713
  156.9663  130.5474  149.5288 LP  0  0  0  0  0  0  0  0  0  0  0  0  # atno 17371 bound_to 10713
  139.9066  134.8436  156.1684 LP  0  0  0  0  0  0  0  0  0  0  0  0  # atno 17394 bound_to 11000
  141.0578  133.6856  156.1894 LP  0  0  0  0  0  0  0  0  0  0  0  0  # atno 17395 bound_to 11000

$$$$
