AV-unprocessed.smi:160|AV-procd|sdf|1347|dock5
  -GOLD-   2262019 43D 1   1.00000     0.00000
 Structure written by MMmdl.
 29 30  0  0  0  0  0  0  0  0  1 V2000
  148.2876  137.6313  158.9215 N   0  0  0  0  0  0  0  0  0  0  0  0
  148.7834  136.6477  158.1645 C   0  0  0  0  0  0  0  0  0  0  0  0
  148.9938  135.5185  158.6049 O   0  0  0  0  0  0  0  0  0  0  0  0
  149.0723  136.9989  156.7316 C   0  0  0  0  0  0  0  0  0  0  0  0
  149.3582  136.0466  155.7926 N   0  0  0  0  0  0  0  0  0  0  0  0
  149.5201  136.8371  154.7396 C   0  0  0  0  0  0  0  0  0  0  0  0
  149.3802  138.1414  155.0060 N   0  0  0  0  0  0  0  0  0  0  0  0
  149.4172  139.3336  154.1024 C   0  0  2  0  0  0  0  0  0  0  0  0
  150.3963  140.2113  154.5783 O   0  0  0  0  0  0  0  0  0  0  0  0
  149.8080  141.3269  155.2440 C   0  0  2  0  0  0  0  0  0  0  0  0
  149.6065  141.0152  156.7453 C   0  0  0  0  0  0  0  0  0  0  0  0
  149.0666  142.1427  157.4008 O   0  0  0  0  0  0  0  0  0  0  0  0
  148.5175  141.5180  154.4345 C   0  0  2  0  0  0  0  0  0  0  0  0
  147.5201  142.2295  155.1404 O   0  0  0  0  0  0  0  0  0  0  0  0
  148.0765  140.0942  154.1175 C   0  0  1  0  0  0  0  0  0  0  0  0
  147.4399  140.0613  152.8563 O   0  0  0  0  0  0  0  0  0  0  0  0
  149.0506  138.2647  156.3155 N   0  0  0  0  0  0  0  0  0  0  0  0
  149.7011  138.9292  153.1298 H   0  0  0  0  0  0  0  0  0  0  0  0
  150.4467  142.2049  155.1395 H   0  0  0  0  0  0  0  0  0  0  0  0
  148.7590  142.0534  153.5145 H   0  0  0  0  0  0  0  0  0  0  0  0
  147.4212  139.7036  154.8981 H   0  0  0  0  0  0  0  0  0  0  0  0
  148.0728  137.4603  159.8928 H   0  0  0  0  0  0  0  0  0  0  0  0
  148.1319  138.5419  158.5137 H   0  0  0  0  0  0  0  0  0  0  0  0
  149.7481  136.4576  153.7542 H   0  0  0  0  0  0  0  0  0  0  0  0
  148.8850  140.2086  156.8742 H   0  0  0  0  0  0  0  0  0  0  0  0
  150.5240  140.6937  157.2356 H   0  0  0  0  0  0  0  0  0  0  0  0
  149.0407  142.8620  156.7884 H   0  0  0  0  0  0  0  0  0  0  0  0
  147.8240  143.1149  155.2713 H   0  0  0  0  0  0  0  0  0  0  0  0
  148.1025  140.1332  152.1858 H   0  0  0  0  0  0  0  0  0  0  0  0
  1  2  1  0  0  0  0
  1 22  1  0  0  0  0
  1 23  1  0  0  0  0
  2  3  2  0  0  0  0
  2  4  1  0  0  0  0
  4 17  2  0  0  0  0
  4  5  1  0  0  0  0
  5  6  2  0  0  0  0
  6  7  1  0  0  0  0
  6 24  1  0  0  0  0
  7  8  1  0  0  0  0
  7 17  1  0  0  0  0
  8 18  1  0  0  0  0
  8 15  1  0  0  0  0
  8  9  1  0  0  0  0
  9 10  1  0  0  0  0
 10 19  1  0  0  0  0
 10 11  1  0  0  0  0
 10 13  1  0  0  0  0
 11 12  1  0  0  0  0
 11 25  1  0  0  0  0
 11 26  1  0  0  0  0
 12 27  1  0  0  0  0
 13 20  1  0  0  0  0
 13 14  1  0  0  0  0
 13 15  1  0  0  0  0
 14 28  1  0  0  0  0
 15 21  1  0  0  0  0
 15 16  1  0  0  0  0
 16 29  1  0  0  0  0
M  END
> <s_m_source_file>
AV-unprocessed.smi

> <i_m_source_file_index>
160

> <i_lp_mmshare_version>
43012

> <i_f3d_flags>
0

> <s_epik_input>
W05IMl1DKD1PKWMxbltjSF1uKG4xKVtDQEBIXTJPW0NASF0oW0NIMl1bT0hdKVtDQEBIXShbT0hdKVtDQEhdMltPSF0=

> <s_epik_cmdline>
J2VwaWtfcHl0aG9uJywgJy1waCcsICc3LjAnLCAnLXRuJywgJzgnLCAnLW1hJywgJzIwMCcsICctbWV0YWxfYmluZGluZycsICctaW1hZScsICc8aW5maWxlLm1hZT4nLCAnLW9tYWUnLCAnPG91dGZpbGUubWFlPic=

> <r_lp_tautomer_probability>
1

> <r_epik_Ionization_Penalty>
1.06932e-05

> <r_epik_Ionization_Penalty_Charging>
0

> <r_epik_Ionization_Penalty_Neutral>
1.06932e-05

> <r_epik_State_Penalty>
-0

> <r_epik_Charging_Adjusted_Penalty>
0

> <i_epik_Tot_Q>
0

> <i_epik_Tot_abs_Q>
0

> <r_epik_Metal_State_Penalty>
0.0142097

> <b_epik_Metal_Only>
0

> <s_epik_Chemistry_Notes>
This compound contains an acetal/aminal-like group ( X-CH(R)-Y where X, Y are N, S, or O) that may be acid/base labile, releasing an aldehyde.

> <s_lp_Force_Field>
OPLS_2005

> <r_lp_Energy>
36.3531

> <b_lp_Chiralities_Consistent>
1

> <s_lp_Variant>
AV-unprocessed.smi:160-5

> <Gold.Version>
5.8.1

> <Gold.Id.Protein>
6NUR|6NUR_protein|mol2

> <Gold.PLP.Fitness>
39.3531

> <Gold.PLP.PLP>
-21.5400

> <Gold.PLP.part.hbond>
-4.8020

> <Gold.PLP.part.metal>
0.0000

> <Gold.PLP.part.buried>
-1.7643

> <Gold.PLP.part.nonpolar>
-14.7837

> <Gold.PLP.part.repulsive>
0.3688

> <Gold.PLP.ligand.clash>
0.0000

> <Gold.PLP.ligand.torsion>
0.0990

> <Gold.PLP.Chemscore.Hbond>
5.0000

> <Gold.PLP.Chemscore.CHOScore>
0.9848

> <Gold.PLP.Chemscore.Metal>
0.0000

> <Gold.Chemscore.Hbonds>
donor molecule, donor type, donor heavy atom, donor atom, acceptor molecule, acceptor atom, score
      L1  H    12    27       P1  8028  0.63
      L1  H    14    28       P1  8028  1.00
      L1  H    16    29       P1  7957  1.00
      P1  H  6896  6907       L1     3  0.70
      P1  H  7989  7998       L1     9  1.00
      L1  C     6    24       P1  7948  1.00

> <Gold.PLP.Chemscore.Internal.Correction>
0.0565

> <Gold.Rescore>
     Score         DG    S(hbond)    S(metal)    S(lipo)     H(rot)  DE(clash)    DE(int)     intcor
     11.38     -13.08       4.43        0.00      27.25       4.06       0.30       1.40       ----

> <Gold.Chemscore.Fitness>
11.3771

> <Gold.Chemscore.DG>
-13.0796

> <Gold.Chemscore.ZeroCoef>
-5.4800

> <Gold.Chemscore.Hbond>
4.4328

> <Gold.Chemscore.Metal>
0.0000

> <Gold.Chemscore.Lipo>
27.2453

> <Gold.Chemscore.Internal_Hbond>
0.0000

> <Gold.Chemscore.DEClash>
0.3020

> <Gold.Chemscore.DEInternal>
1.4005

> <Gold.Chemscore.Rot>
4.0600

> <Gold.Chemscore.Internal.Correction>
   9.000000E+99

> <Gold.Chemscore.Hbonds>
donor molecule, donor type, donor heavy atom, donor atom, acceptor molecule, acceptor atom, score
      L1  H    12    27       P1  8028  0.63
      L1  H    14    28       P1  8028  0.65
      L1  H    16    29       P1  7957  1.00
      P1  H  6896  6907       L1     3  0.71
      P1  H  7989  7998       L1     9  0.54

> <Gold.Chemscore.Hbond.Weighted>
-14.8055

> <Gold.Chemscore.Metal.Weighted>
-0.0000

> <Gold.Chemscore.Lipo.Weighted>
-3.1877

> <Gold.Chemscore.Internal_Hbond.Weighted>
0.0000

> <Gold.Chemscore.DEClash.Weighted>
0.3020

> <Gold.Chemscore.DEInternal.Weighted>
1.4005

> <Gold.Chemscore.Rot.Weighted>
10.3936

> <Gold.Chemscore.Internal.Correction.Weighted>
   9.000000E+99

> <Gold.Protein.RotatedTorsions>
[ 6907 6896 6895 6894 ] final  -77.17 input  -60.11 | X-H torsion
[ 7974 7965 7964 7962 ] final  -95.38 input  175.53 | X-H torsion
[ 8008 7997 7996 7995 ] final  -29.49 input   59.86 | X-H torsion
[ 10167 10162 10161 10158 ] final   31.40 input  -65.29 | X-H torsion
[ 10718 10713 10712 10709 ] final   98.87 input   66.30 | X-H torsion
[ 10763 10752 10751 10750 ] final   49.16 input  -60.55 | X-H torsion
[ 11005 11000 10999 10996 ] final -168.69 input  -57.11 | X-H torsion

> <Gold.Protein.ActiveResidues>
 VAL166  LYS551  ARG553  GLY616  TRP617  ASP618  TYR619  PRO620  LYS621  CYS622 
 ASP623  PHE694  ASN695  SER759  ASP760  ASP761  ALA762  ILE779  LEU786  VAL792 
 PHE793  MET794  SER795  GLU796  ALA797  LYS798  CYS799  TRP800  GLU811  SER814 

> <Gold.Protein.RotatedAtoms>
  150.7006  134.4463  159.5315 H   0  0  0  0  0  0  0  0  0  0  0  0  # atno 6907 bound_to 6896
  152.2164  134.8451  160.0500 H   0  0  0  0  0  0  0  0  0  0  0  0  # atno 6908 bound_to 6896
  151.9318  133.3578  159.3970 H   0  0  0  0  0  0  0  0  0  0  0  0  # atno 6909 bound_to 6896
  145.3608  140.9491  143.2501 H   0  0  0  0  0  0  0  0  0  0  0  0  # atno 7974 bound_to 7965
  154.4288  140.1817  156.1257 H   0  0  0  0  0  0  0  0  0  0  0  0  # atno 8008 bound_to 7997
  156.0108  140.3351  155.6913 H   0  0  0  0  0  0  0  0  0  0  0  0  # atno 8009 bound_to 7997
  155.6114  140.0650  157.2696 H   0  0  0  0  0  0  0  0  0  0  0  0  # atno 8010 bound_to 7997
  140.4592  144.0932  150.6209 H   0  0  0  0  0  0  0  0  0  0  0  0  # atno 10167 bound_to 10162
  157.6887  131.0653  150.4861 H   0  0  0  0  0  0  0  0  0  0  0  0  # atno 10718 bound_to 10713
  152.9788  135.5921  154.4043 H   0  0  0  0  0  0  0  0  0  0  0  0  # atno 10763 bound_to 10752
  154.3686  135.2767  155.2281 H   0  0  0  0  0  0  0  0  0  0  0  0  # atno 10764 bound_to 10752
  154.4247  135.6050  153.6086 H   0  0  0  0  0  0  0  0  0  0  0  0  # atno 10765 bound_to 10752
  140.5391  134.5540  157.5095 H   0  0  0  0  0  0  0  0  0  0  0  0  # atno 11005 bound_to 11000
  144.8647  139.5125  143.6795 LP  0  0  0  0  0  0  0  0  0  0  0  0  # atno 17320 bound_to 7965
  146.2928  139.7188  142.9149 LP  0  0  0  0  0  0  0  0  0  0  0  0  # atno 17321 bound_to 7965
  140.4114  143.2655  151.9828 LP  0  0  0  0  0  0  0  0  0  0  0  0  # atno 17342 bound_to 10162
  139.4804  144.5912  151.7768 LP  0  0  0  0  0  0  0  0  0  0  0  0  # atno 17343 bound_to 10162
  156.5191  130.4157  149.6260 LP  0  0  0  0  0  0  0  0  0  0  0  0  # atno 17370 bound_to 10713
  156.3171  130.7260  151.2165 LP  0  0  0  0  0  0  0  0  0  0  0  0  # atno 17371 bound_to 10713
  139.9513  134.7612  156.0442 LP  0  0  0  0  0  0  0  0  0  0  0  0  # atno 17394 bound_to 11000
  141.1237  133.6605  156.3281 LP  0  0  0  0  0  0  0  0  0  0  0  0  # atno 17395 bound_to 11000

$$$$
