AV-unprocessed.smi:1460|AV-procd|sdf|5929|dock8
  -GOLD-   22720 6 13D 1   1.00000     0.00000
 Structure written by MMmdl.
 41 42  0  0  0  0  0  0  0  0  1 V2000
  152.6754  139.3689  159.5730 C   0  0  0  0  0  0  0  0  0  0  0  0
  152.0145  140.7173  159.2574 C   0  0  1  0  0  0  0  0  0  0  0  0
  153.0200  141.8813  159.3944 C   0  0  0  0  0  0  0  0  0  0  0  0
  152.4167  143.1787  159.1443 N   0  0  0  0  0  0  0  0  0  0  0  0
  152.3989  144.2887  159.9630 C   0  0  0  0  0  0  0  0  0  0  0  0
  151.7348  145.2761  159.2937 C   0  0  0  0  0  0  0  0  0  0  0  0
  151.3751  144.6647  158.0601 C   0  0  0  0  0  0  0  0  0  0  0  0
  151.7809  143.4082  157.9753 N   0  0  0  0  0  0  0  0  0  0  0  0
  151.4572  140.6674  157.9061 N   0  0  0  0  0  0  0  0  0  0  0  0
  152.0507  140.1209  156.8324 C   0  0  0  0  0  0  0  0  0  0  0  0
  153.1716  139.6118  156.8636 O   0  0  0  0  0  0  0  0  0  0  0  0
  151.2456  140.1335  155.5275 C   0  0  0  0  0  0  0  0  0  0  0  0
  149.9361  140.9386  155.6990 C   0  0  0  0  0  0  0  0  0  0  0  0
  149.0577  140.8462  154.4380 C   0  0  0  0  0  0  0  0  0  0  0  0
  148.7881  139.4276  154.1491 N   0  0  0  0  0  0  0  0  0  0  0  0
  147.6153  138.7772  154.3561 C   0  0  0  0  0  0  0  0  0  0  0  0
  147.5127  137.5827  153.7648 N   0  0  0  0  0  0  0  0  0  0  0  0
  146.7088  139.2099  155.0659 O   0  0  0  0  0  0  0  0  0  0  0  0
  150.0229  138.7093  153.8104 C   0  0  0  0  0  0  0  0  0  0  0  0
  150.9486  138.6964  155.0400 C   0  0  0  0  0  0  0  0  0  0  0  0
  153.0779  139.3582  160.5862 H   0  0  0  0  0  0  0  0  0  0  0  0
  153.4962  139.1570  158.8871 H   0  0  0  0  0  0  0  0  0  0  0  0
  151.9572  138.5519  159.4971 H   0  0  0  0  0  0  0  0  0  0  0  0
  151.2119  140.8581  159.9841 H   0  0  0  0  0  0  0  0  0  0  0  0
  153.4426  141.8955  160.4002 H   0  0  0  0  0  0  0  0  0  0  0  0
  153.8577  141.7471  158.7087 H   0  0  0  0  0  0  0  0  0  0  0  0
  152.8633  144.2858  160.9380 H   0  0  0  0  0  0  0  0  0  0  0  0
  151.5378  146.2824  159.6319 H   0  0  0  0  0  0  0  0  0  0  0  0
  150.8346  145.0935  157.2294 H   0  0  0  0  0  0  0  0  0  0  0  0
  150.5368  141.0637  157.7821 H   0  0  0  0  0  0  0  0  0  0  0  0
  151.8409  140.6280  154.7576 H   0  0  0  0  0  0  0  0  0  0  0  0
  149.3709  140.5678  156.5558 H   0  0  0  0  0  0  0  0  0  0  0  0
  150.1655  141.9838  155.9109 H   0  0  0  0  0  0  0  0  0  0  0  0
  148.1595  141.4485  154.5726 H   0  0  0  0  0  0  0  0  0  0  0  0
  149.5786  141.2907  153.5887 H   0  0  0  0  0  0  0  0  0  0  0  0
  146.6692  137.0387  153.8712 H   0  0  0  0  0  0  0  0  0  0  0  0
  148.2814  137.2315  153.2127 H   0  0  0  0  0  0  0  0  0  0  0  0
  149.8361  137.6885  153.4735 H   0  0  0  0  0  0  0  0  0  0  0  0
  150.5149  139.2094  152.9748 H   0  0  0  0  0  0  0  0  0  0  0  0
  151.8798  138.1850  154.7930 H   0  0  0  0  0  0  0  0  0  0  0  0
  150.4776  138.1139  155.8336 H   0  0  0  0  0  0  0  0  0  0  0  0
  1  2  1  0  0  0  0
  1 21  1  0  0  0  0
  1 22  1  0  0  0  0
  1 23  1  0  0  0  0
  2  3  1  0  0  0  0
  2  9  1  0  0  0  0
  2 24  1  0  0  0  0
  3  4  1  0  0  0  0
  3 25  1  0  0  0  0
  3 26  1  0  0  0  0
  4  8  1  0  0  0  0
  4  5  1  0  0  0  0
  5  6  2  0  0  0  0
  5 27  1  0  0  0  0
  6  7  1  0  0  0  0
  6 28  1  0  0  0  0
  7  8  2  0  0  0  0
  7 29  1  0  0  0  0
  9 10  1  0  0  0  0
  9 30  1  0  0  0  0
 10 11  2  0  0  0  0
 10 12  1  0  0  0  0
 12 20  1  0  0  0  0
 12 13  1  0  0  0  0
 12 31  1  0  0  0  0
 13 14  1  0  0  0  0
 13 32  1  0  0  0  0
 13 33  1  0  0  0  0
 14 15  1  0  0  0  0
 14 34  1  0  0  0  0
 14 35  1  0  0  0  0
 15 16  1  0  0  0  0
 15 19  1  0  0  0  0
 16 17  1  0  0  0  0
 16 18  2  0  0  0  0
 17 36  1  0  0  0  0
 17 37  1  0  0  0  0
 19 20  1  0  0  0  0
 19 38  1  0  0  0  0
 19 39  1  0  0  0  0
 20 40  1  0  0  0  0
 20 41  1  0  0  0  0
M  END
> <s_m_source_file>
AV-unprocessed.smi

> <i_m_source_file_index>
1460

> <i_lp_mmshare_version>
43012

> <i_f3d_flags>
0

> <s_epik_input>
bjFbY0hdW2NIXVtjSF1uMVtDSDJdW0NAQEhdKFtDSDNdKVtOSF1DKD1PKVtDSF0yW0NIMl1bQ0gyXU4oQyg9TylbTkgyXSlbQ0gyXVtDSDJdMg==

> <s_epik_cmdline>
J2VwaWtfcHl0aG9uJywgJy1waCcsICc3LjAnLCAnLXRuJywgJzgnLCAnLW1hJywgJzIwMCcsICctbWV0YWxfYmluZGluZycsICctaW1hZScsICc8aW5maWxlLm1hZT4nLCAnLW9tYWUnLCAnPG91dGZpbGUubWFlPic=

> <r_lp_tautomer_probability>
1

> <r_epik_Ionization_Penalty>
0.000387527

> <r_epik_Ionization_Penalty_Charging>
0

> <r_epik_Ionization_Penalty_Neutral>
0.000387527

> <r_epik_State_Penalty>
-0

> <r_epik_Charging_Adjusted_Penalty>
0

> <i_epik_Tot_Q>
0

> <i_epik_Tot_abs_Q>
0

> <r_epik_Metal_State_Penalty>
-0

> <b_epik_Metal_Only>
0

> <s_lp_Force_Field>
OPLS_2005

> <r_lp_Energy>
25.9922

> <b_lp_Chiralities_Consistent>
1

> <s_lp_Variant>
AV-unprocessed.smi:1460-2

> <Gold.Version>
5.8.1

> <Gold.Id.Protein>
6NUR|6NUR_protein|mol2

> <Gold.PLP.Fitness>
46.2693

> <Gold.PLP.PLP>
-40.4983

> <Gold.PLP.part.hbond>
-1.6551

> <Gold.PLP.part.metal>
0.0000

> <Gold.PLP.part.buried>
-1.8374

> <Gold.PLP.part.nonpolar>
-37.0379

> <Gold.PLP.part.repulsive>
0.1960

> <Gold.PLP.ligand.clash>
2.0103

> <Gold.PLP.ligand.torsion>
0.5196

> <Gold.PLP.Chemscore.Hbond>
1.9204

> <Gold.PLP.Chemscore.CHOScore>
1.0000

> <Gold.PLP.Chemscore.Metal>
0.0000

> <Gold.Chemscore.Hbonds>
donor molecule, donor type, donor heavy atom, donor atom, acceptor molecule, acceptor atom, score
      L1  H    17    37       P1  7948  1.00
      P1  H  7997  8010       L1    11  0.64
      L1  C     7    29       P1  8028  1.00

> <Gold.PLP.Chemscore.Internal.Correction>
0.0594

> <Gold.Rescore>
     Score         DG    S(hbond)    S(metal)    S(lipo)     H(rot)  DE(clash)    DE(int)     intcor
     16.71     -18.51       1.98        0.00      94.72       1.82       0.05       1.75       ----

> <Gold.Chemscore.Fitness>
16.7059

> <Gold.Chemscore.DG>
-18.5105

> <Gold.Chemscore.ZeroCoef>
-5.4800

> <Gold.Chemscore.Hbond>
1.9789

> <Gold.Chemscore.Metal>
0.0000

> <Gold.Chemscore.Lipo>
94.7163

> <Gold.Chemscore.Internal_Hbond>
0.0000

> <Gold.Chemscore.DEClash>
0.0535

> <Gold.Chemscore.DEInternal>
1.7511

> <Gold.Chemscore.Rot>
1.8206

> <Gold.Chemscore.Internal.Correction>
   9.000000E+99

> <Gold.Chemscore.Hbonds>
donor molecule, donor type, donor heavy atom, donor atom, acceptor molecule, acceptor atom, score
      L1  H    17    37       P1  7948  0.97
      P1  H  7997  8010       L1    11  0.63

> <Gold.Chemscore.Hbond.Weighted>
-6.6094

> <Gold.Chemscore.Metal.Weighted>
-0.0000

> <Gold.Chemscore.Lipo.Weighted>
-11.0818

> <Gold.Chemscore.Internal_Hbond.Weighted>
0.0000

> <Gold.Chemscore.DEClash.Weighted>
0.0535

> <Gold.Chemscore.DEInternal.Weighted>
1.7511

> <Gold.Chemscore.Rot.Weighted>
4.6607

> <Gold.Chemscore.Internal.Correction.Weighted>
   9.000000E+99

> <Gold.Protein.RotatedTorsions>
[ 6907 6896 6895 6894 ] final   59.06 input  -60.11 | X-H torsion
[ 7974 7965 7964 7962 ] final -170.90 input  175.53 | X-H torsion
[ 8008 7997 7996 7995 ] final   81.89 input   59.86 | X-H torsion
[ 10167 10162 10161 10158 ] final  -95.50 input  -65.29 | X-H torsion
[ 10718 10713 10712 10709 ] final -133.77 input   66.30 | X-H torsion
[ 10763 10752 10751 10750 ] final  -11.26 input  -60.55 | X-H torsion
[ 11005 11000 10999 10996 ] final   25.10 input  -57.11 | X-H torsion

> <Gold.Protein.ActiveResidues>
 VAL166  LYS551  ARG553  GLY616  TRP617  ASP618  TYR619  PRO620  LYS621  CYS622 
 ASP623  PHE694  ASN695  SER759  ASP760  ASP761  ALA762  ILE779  LEU786  VAL792 
 PHE793  MET794  SER795  GLU796  ALA797  LYS798  CYS799  TRP800  GLU811  SER814 

> <Gold.Protein.RotatedAtoms>
  152.3881  134.6485  160.0117 H   0  0  0  0  0  0  0  0  0  0  0  0  # atno 6907 bound_to 6896
  151.6728  133.3308  159.3208 H   0  0  0  0  0  0  0  0  0  0  0  0  # atno 6908 bound_to 6896
  150.7803  134.6785  159.6475 H   0  0  0  0  0  0  0  0  0  0  0  0  # atno 6909 bound_to 6896
  144.7164  140.2002  143.6339 H   0  0  0  0  0  0  0  0  0  0  0  0  # atno 7974 bound_to 7965
  155.9033  140.3432  155.6043 H   0  0  0  0  0  0  0  0  0  0  0  0  # atno 8008 bound_to 7997
  155.7475  140.0815  157.2236 H   0  0  0  0  0  0  0  0  0  0  0  0  # atno 8009 bound_to 7997
  154.4046  140.1559  156.2673 H   0  0  0  0  0  0  0  0  0  0  0  0  # atno 8010 bound_to 7997
  140.3035  143.3148  152.0223 H   0  0  0  0  0  0  0  0  0  0  0  0  # atno 10167 bound_to 10162
  156.2484  130.7138  151.1027 H   0  0  0  0  0  0  0  0  0  0  0  0  # atno 10718 bound_to 10713
  153.4811  135.7017  153.5937 H   0  0  0  0  0  0  0  0  0  0  0  0  # atno 10763 bound_to 10752
  153.4150  135.3839  155.2075 H   0  0  0  0  0  0  0  0  0  0  0  0  # atno 10764 bound_to 10752
  154.8721  135.3914  154.4261 H   0  0  0  0  0  0  0  0  0  0  0  0  # atno 10765 bound_to 10752
  140.3514  134.2224  155.7679 H   0  0  0  0  0  0  0  0  0  0  0  0  # atno 11005 bound_to 11000
  145.8687  139.2260  143.1674 LP  0  0  0  0  0  0  0  0  0  0  0  0  # atno 17320 bound_to 7965
  146.0105  140.8439  142.9973 LP  0  0  0  0  0  0  0  0  0  0  0  0  # atno 17321 bound_to 7965
  139.4909  144.6438  151.6821 LP  0  0  0  0  0  0  0  0  0  0  0  0  # atno 17342 bound_to 10162
  140.5630  144.0236  150.6179 LP  0  0  0  0  0  0  0  0  0  0  0  0  # atno 17343 bound_to 10162
  157.7204  131.0685  150.6157 LP  0  0  0  0  0  0  0  0  0  0  0  0  # atno 17370 bound_to 10713
  156.6236  130.4412  149.5813 LP  0  0  0  0  0  0  0  0  0  0  0  0  # atno 17371 bound_to 10713
  141.2011  133.7971  157.0458 LP  0  0  0  0  0  0  0  0  0  0  0  0  # atno 17394 bound_to 11000
  140.0700  134.9708  157.1450 LP  0  0  0  0  0  0  0  0  0  0  0  0  # atno 17395 bound_to 11000

$$$$
