AV-unprocessed.smi:3282|AV-procd|sdf|12560|dock5
  -GOLD-   2272018483D 1   1.00000     0.00000
 Structure written by MMmdl.
 34 35  0  0  0  0  0  0  0  0  1 V2000
  152.3287  138.0978  155.2319 C   0  0  0  0  0  0  0  0  0  0  0  0
  150.8270  138.1800  154.9139 C   0  0  0  0  0  0  0  0  0  0  0  0
  150.3119  139.6164  154.7216 C   0  0  0  0  0  0  0  0  0  0  0  0
  151.0407  140.5715  154.9945 O   0  0  0  0  0  0  0  0  0  0  0  0
  149.0583  139.7863  154.2518 N   0  0  0  0  0  0  0  0  0  0  0  0
  148.4104  141.0708  153.9948 C   0  0  0  0  0  0  0  0  0  0  0  0
  147.0953  140.7445  153.2871 C   0  0  0  0  0  0  0  0  0  0  0  0
  146.7820  139.3053  153.6946 C   0  0  1  0  0  0  0  0  0  0  0  0
  146.0433  138.5788  152.6670 N   0  0  0  0  0  0  0  0  0  0  0  0
  145.8965  137.2468  152.6288 C   0  0  0  0  0  0  0  0  0  0  0  0
  146.3687  136.4870  153.4754 O   0  0  0  0  0  0  0  0  0  0  0  0
  145.1761  136.8645  151.5609 N   0  0  0  0  0  0  0  0  0  0  0  0
  144.8340  135.5427  151.1794 C   0  0  0  0  0  0  0  0  0  0  0  0
  144.1011  135.1843  150.1240 N   0  0  0  0  0  0  0  0  0  0  0  0
  144.0480  133.7995  150.1894 C   0  0  0  0  0  0  0  0  0  0  0  0
  144.7587  133.3956  151.2903 C   0  0  0  0  0  0  0  0  0  0  0  0
  145.2646  134.4949  151.9307 O   0  0  0  0  0  0  0  0  0  0  0  0
  148.1585  138.6785  153.9402 C   0  0  0  0  0  0  0  0  0  0  0  0
  152.6398  137.0598  155.3513 H   0  0  0  0  0  0  0  0  0  0  0  0
  152.5699  138.6208  156.1581 H   0  0  0  0  0  0  0  0  0  0  0  0
  152.9303  138.5310  154.4321 H   0  0  0  0  0  0  0  0  0  0  0  0
  150.6264  137.6059  154.0088 H   0  0  0  0  0  0  0  0  0  0  0  0
  150.2642  137.7104  155.7211 H   0  0  0  0  0  0  0  0  0  0  0  0
  148.2146  141.5680  154.9459 H   0  0  0  0  0  0  0  0  0  0  0  0
  149.0284  141.7313  153.3852 H   0  0  0  0  0  0  0  0  0  0  0  0
  146.2951  141.4384  153.5463 H   0  0  0  0  0  0  0  0  0  0  0  0
  147.2474  140.8047  152.2082 H   0  0  0  0  0  0  0  0  0  0  0  0
  146.2257  139.3089  154.6342 H   0  0  0  0  0  0  0  0  0  0  0  0
  145.6228  139.1288  151.9323 H   0  0  0  0  0  0  0  0  0  0  0  0
  144.8430  137.5958  150.9500 H   0  0  0  0  0  0  0  0  0  0  0  0
  143.5130  133.2150  149.4555 H   0  0  0  0  0  0  0  0  0  0  0  0
  144.9829  132.4334  151.7265 H   0  0  0  0  0  0  0  0  0  0  0  0
  148.5309  138.1742  153.0467 H   0  0  0  0  0  0  0  0  0  0  0  0
  148.1182  137.9455  154.7477 H   0  0  0  0  0  0  0  0  0  0  0  0
  1  2  1  0  0  0  0
  1 19  1  0  0  0  0
  1 20  1  0  0  0  0
  1 21  1  0  0  0  0
  2  3  1  0  0  0  0
  2 22  1  0  0  0  0
  2 23  1  0  0  0  0
  3  4  2  0  0  0  0
  3  5  1  0  0  0  0
  5 18  1  0  0  0  0
  5  6  1  0  0  0  0
  6  7  1  0  0  0  0
  6 24  1  0  0  0  0
  6 25  1  0  0  0  0
  7  8  1  0  0  0  0
  7 26  1  0  0  0  0
  7 27  1  0  0  0  0
  8  9  1  0  0  0  0
  8 18  1  0  0  0  0
  8 28  1  0  0  0  0
  9 10  1  0  0  0  0
  9 29  1  0  0  0  0
 10 11  2  0  0  0  0
 10 12  1  0  0  0  0
 12 13  1  0  0  0  0
 12 30  1  0  0  0  0
 13 17  1  0  0  0  0
 13 14  2  0  0  0  0
 14 15  1  0  0  0  0
 15 16  2  0  0  0  0
 15 31  1  0  0  0  0
 16 17  1  0  0  0  0
 16 32  1  0  0  0  0
 18 33  1  0  0  0  0
 18 34  1  0  0  0  0
M  END
> <s_m_source_file>
AV-unprocessed.smi

> <i_m_source_file_index>
3282

> <i_lp_mmshare_version>
43012

> <i_f3d_flags>
0

> <s_epik_input>
W0NIM11bQ0gyXUMoPU8pTjFbQ0gyXVtDSDJdW0NASF0oW0NIMl0xKVtOSF1DKD1PKVtOSF1jMm5bY0hdW2NIXW8y

> <s_epik_cmdline>
J2VwaWtfcHl0aG9uJywgJy1waCcsICc3LjAnLCAnLXRuJywgJzgnLCAnLW1hJywgJzIwMCcsICctbWV0YWxfYmluZGluZycsICctaW1hZScsICc8aW5maWxlLm1hZT4nLCAnLW9tYWUnLCAnPG91dGZpbGUubWFlPic=

> <r_lp_tautomer_probability>
0.785861

> <r_epik_Ionization_Penalty>
4.35681e-05

> <r_epik_Ionization_Penalty_Charging>
0

> <r_epik_Ionization_Penalty_Neutral>
4.35681e-05

> <r_epik_State_Penalty>
0.0212547

> <r_epik_Charging_Adjusted_Penalty>
0.0212547

> <i_epik_Tot_Q>
0

> <i_epik_Tot_abs_Q>
0

> <r_epik_Metal_State_Penalty>
0.00779955

> <b_epik_Metal_Only>
0

> <s_lp_Force_Field>
OPLS_2005

> <r_lp_Energy>
25.4051

> <b_lp_Chiralities_Consistent>
1

> <s_lp_Variant>
AV-unprocessed.smi:3282-1

> <Gold.Version>
5.8.1

> <Gold.Id.Protein>
6NUR|6NUR_protein|mol2

> <Gold.PLP.Fitness>
35.0657

> <Gold.PLP.PLP>
-29.0853

> <Gold.PLP.part.hbond>
-3.0000

> <Gold.PLP.part.metal>
0.0000

> <Gold.PLP.part.buried>
-2.7517

> <Gold.PLP.part.nonpolar>
-25.3462

> <Gold.PLP.part.repulsive>
1.1178

> <Gold.PLP.ligand.clash>
0.0000

> <Gold.PLP.ligand.torsion>
0.2446

> <Gold.PLP.Chemscore.Hbond>
2.0010

> <Gold.PLP.Chemscore.CHOScore>
0.1530

> <Gold.PLP.Chemscore.Metal>
0.0000

> <Gold.Chemscore.Hbonds>
donor molecule, donor type, donor heavy atom, donor atom, acceptor molecule, acceptor atom, score
      L1  H     9    29       P1 10175  0.02
      L1  H    12    30       P1 10171  1.00
      P1  H  7989  7998       L1     4  0.98
      L1  C    15    31       P1 10186  0.16

> <Gold.PLP.Chemscore.Internal.Correction>
0.0078

> <Gold.Rescore>
     Score         DG    S(hbond)    S(metal)    S(lipo)     H(rot)  DE(clash)    DE(int)     intcor
     10.81     -13.87       1.63        0.00      53.93       1.32       0.29       2.77       ----

> <Gold.Chemscore.Fitness>
10.8081

> <Gold.Chemscore.DG>
-13.8666

> <Gold.Chemscore.ZeroCoef>
-5.4800

> <Gold.Chemscore.Hbond>
1.6336

> <Gold.Chemscore.Metal>
0.0000

> <Gold.Chemscore.Lipo>
53.9255

> <Gold.Chemscore.Internal_Hbond>
0.0000

> <Gold.Chemscore.DEClash>
0.2887

> <Gold.Chemscore.DEInternal>
2.7697

> <Gold.Chemscore.Rot>
1.3199

> <Gold.Chemscore.Internal.Correction>
   9.000000E+99

> <Gold.Chemscore.Hbonds>
donor molecule, donor type, donor heavy atom, donor atom, acceptor molecule, acceptor atom, score
      L1  H     9    29       P1 10175  0.04
      L1  H    12    30       P1 10171  1.00
      P1  H  7989  7998       L1     4  0.24

> <Gold.Chemscore.Hbond.Weighted>
-5.4563

> <Gold.Chemscore.Metal.Weighted>
-0.0000

> <Gold.Chemscore.Lipo.Weighted>
-6.3093

> <Gold.Chemscore.Internal_Hbond.Weighted>
0.0000

> <Gold.Chemscore.DEClash.Weighted>
0.2887

> <Gold.Chemscore.DEInternal.Weighted>
2.7697

> <Gold.Chemscore.Rot.Weighted>
3.3789

> <Gold.Chemscore.Internal.Correction.Weighted>
   9.000000E+99

> <Gold.Protein.RotatedTorsions>
[ 6907 6896 6895 6894 ] final  -98.91 input  -60.11 | X-H torsion
[ 7974 7965 7964 7962 ] final   -5.81 input  175.53 | X-H torsion
[ 8008 7997 7996 7995 ] final -103.69 input   59.86 | X-H torsion
[ 10167 10162 10161 10158 ] final   27.21 input  -65.29 | X-H torsion
[ 10718 10713 10712 10709 ] final    8.93 input   66.30 | X-H torsion
[ 10763 10752 10751 10750 ] final -145.84 input  -60.55 | X-H torsion
[ 11005 11000 10999 10996 ] final  -83.86 input  -57.11 | X-H torsion

> <Gold.Protein.ActiveResidues>
 VAL166  LYS551  ARG553  GLY616  TRP617  ASP618  TYR619  PRO620  LYS621  CYS622 
 ASP623  PHE694  ASN695  SER759  ASP760  ASP761  ALA762  ILE779  LEU786  VAL792 
 PHE793  MET794  SER795  GLU796  ALA797  LYS798  CYS799  TRP800  GLU811  SER814 

> <Gold.Protein.RotatedAtoms>
  150.7062  134.1122  159.4004 H   0  0  0  0  0  0  0  0  0  0  0  0  # atno 6907 bound_to 6896
  151.9109  135.0337  160.0523 H   0  0  0  0  0  0  0  0  0  0  0  0  # atno 6908 bound_to 6896
  152.2337  133.5043  159.5267 H   0  0  0  0  0  0  0  0  0  0  0  0  # atno 6909 bound_to 6896
  146.2345  140.2076  142.8334 H   0  0  0  0  0  0  0  0  0  0  0  0  # atno 7974 bound_to 7965
  154.8746  140.0421  157.1745 H   0  0  0  0  0  0  0  0  0  0  0  0  # atno 8008 bound_to 7997
  154.8703  140.2957  155.5464 H   0  0  0  0  0  0  0  0  0  0  0  0  # atno 8009 bound_to 7997
  156.2999  140.2430  156.3691 H   0  0  0  0  0  0  0  0  0  0  0  0  # atno 8010 bound_to 7997
  140.4958  144.0395  150.6313 H   0  0  0  0  0  0  0  0  0  0  0  0  # atno 10167 bound_to 10162
  156.9589  130.5925  149.5661 H   0  0  0  0  0  0  0  0  0  0  0  0  # atno 10718 bound_to 10713
  154.8364  135.3402  154.6567 H   0  0  0  0  0  0  0  0  0  0  0  0  # atno 10763 bound_to 10752
  153.7182  135.6960  153.5024 H   0  0  0  0  0  0  0  0  0  0  0  0  # atno 10764 bound_to 10752
  153.2401  135.4387  155.0642 H   0  0  0  0  0  0  0  0  0  0  0  0  # atno 10765 bound_to 10752
  141.1655  133.7316  156.8783 H   0  0  0  0  0  0  0  0  0  0  0  0  # atno 11005 bound_to 11000
  144.9732  140.8389  143.5442 LP  0  0  0  0  0  0  0  0  0  0  0  0  # atno 17320 bound_to 7965
  145.2060  139.2228  143.5168 LP  0  0  0  0  0  0  0  0  0  0  0  0  # atno 17321 bound_to 7965
  140.3677  143.2872  152.0313 LP  0  0  0  0  0  0  0  0  0  0  0  0  # atno 17342 bound_to 10162
  139.4861  144.6254  151.7174 LP  0  0  0  0  0  0  0  0  0  0  0  0  # atno 17343 bound_to 10162
  156.0331  130.5420  150.8584 LP  0  0  0  0  0  0  0  0  0  0  0  0  # atno 17370 bound_to 10713
  157.5671  131.0946  150.9473 LP  0  0  0  0  0  0  0  0  0  0  0  0  # atno 17371 bound_to 10713
  140.1733  134.9084  157.2860 LP  0  0  0  0  0  0  0  0  0  0  0  0  # atno 17394 bound_to 11000
  140.2477  134.3720  155.7454 LP  0  0  0  0  0  0  0  0  0  0  0  0  # atno 17395 bound_to 11000

$$$$
