AV-unprocessed.smi:3141|AV-procd|sdf|11964|dock7
  -GOLD-   2272017363D 1   1.00000     0.00000
 Structure written by MMmdl.
 36 38  0  0  0  0  0  0  0  0  2 V2000
  145.8037  137.1182  154.8119 O   0  0  0  0  0  0  0  0  0  0  0  0
  146.6974  137.0039  153.9730 C   0  0  0  0  0  0  0  0  0  0  0  0
  147.2302  138.0273  153.2934 N   0  0  0  0  0  0  0  0  0  0  0  0
  146.8480  139.3956  153.4260 C   0  0  0  0  0  0  0  0  0  0  0  0
  147.9061  140.3772  153.8813 C   0  0  0  0  0  0  0  0  0  0  0  0
  146.8013  139.9803  154.8210 C   0  0  0  0  0  0  0  0  0  0  0  0
  147.2441  135.8331  153.6150 N   0  0  0  0  0  0  0  0  0  0  0  0
  146.9092  134.5261  154.1850 C   0  0  2  0  0  0  0  0  0  0  0  0
  148.1925  133.8483  154.7066 C   0  0  0  0  0  0  0  0  0  0  0  0
  148.5188  132.6927  153.7444 C   0  0  0  0  0  0  0  0  0  0  0  0
  147.5930  132.8698  152.5399 C   0  0  0  0  0  0  0  0  0  0  0  0
  146.3508  133.5305  153.1461 C   0  0  2  0  0  0  0  0  0  0  0  0
  145.3690  134.0800  152.1916 N   0  0  0  0  0  0  0  0  0  0  0  0
  145.6358  134.9928  151.2026 C   0  0  0  0  0  0  0  0  0  0  0  0
  144.4635  135.1946  150.5220 C   0  0  0  0  0  0  0  0  0  0  0  0
  143.5294  134.3907  151.1157 N   0  3  0  0  0  0  0  0  0  0  0  0
  144.0807  133.7096  152.1252 C   0  0  0  0  0  0  0  0  0  0  0  0
  147.9629  137.8257  152.6287 H   0  0  0  0  0  0  0  0  0  0  0  0
  146.1114  139.7799  152.7217 H   0  0  0  0  0  0  0  0  0  0  0  0
  148.9031  139.9928  154.0883 H   0  0  0  0  0  0  0  0  0  0  0  0
  147.8725  141.3809  153.4624 H   0  0  0  0  0  0  0  0  0  0  0  0
  146.0300  140.7192  155.0293 H   0  0  0  0  0  0  0  0  0  0  0  0
  147.0600  139.3308  155.6552 H   0  0  0  0  0  0  0  0  0  0  0  0
  147.9707  135.8463  152.9139 H   0  0  0  0  0  0  0  0  0  0  0  0
  146.1997  134.6581  155.0042 H   0  0  0  0  0  0  0  0  0  0  0  0
  149.0259  134.5497  154.7706 H   0  0  0  0  0  0  0  0  0  0  0  0
  148.0363  133.4577  155.7129 H   0  0  0  0  0  0  0  0  0  0  0  0
  149.5696  132.6802  153.4539 H   0  0  0  0  0  0  0  0  0  0  0  0
  148.3045  131.7413  154.2331 H   0  0  0  0  0  0  0  0  0  0  0  0
  148.0796  133.5256  151.8181 H   0  0  0  0  0  0  0  0  0  0  0  0
  147.3695  131.9259  152.0418 H   0  0  0  0  0  0  0  0  0  0  0  0
  145.8196  132.7522  153.6974 H   0  0  0  0  0  0  0  0  0  0  0  0
  146.6189  135.4168  151.0560 H   0  0  0  0  0  0  0  0  0  0  0  0
  144.2325  135.8281  149.6779 H   0  0  0  0  0  0  0  0  0  0  0  0
  143.5767  132.9952  152.7501 H   0  0  0  0  0  0  0  0  0  0  0  0
  142.5620  134.3138  150.8279 H   0  0  0  0  0  0  0  0  0  0  0  0
  1  2  2  0  0  0  0
  2  3  1  0  0  0  0
  2  7  1  0  0  0  0
  3  4  1  0  0  0  0
  3 18  1  0  0  0  0
  4  6  1  0  0  0  0
  4  5  1  0  0  0  0
  4 19  1  0  0  0  0
  5  6  1  0  0  0  0
  5 20  1  0  0  0  0
  5 21  1  0  0  0  0
  6 22  1  0  0  0  0
  6 23  1  0  0  0  0
  7  8  1  0  0  0  0
  7 24  1  0  0  0  0
  8 12  1  0  0  0  0
  8  9  1  0  0  0  0
  8 25  1  0  0  0  0
  9 10  1  0  0  0  0
  9 26  1  0  0  0  0
  9 27  1  0  0  0  0
 10 11  1  0  0  0  0
 10 28  1  0  0  0  0
 10 29  1  0  0  0  0
 11 12  1  0  0  0  0
 11 30  1  0  0  0  0
 11 31  1  0  0  0  0
 12 13  1  0  0  0  0
 12 32  1  0  0  0  0
 13 17  1  0  0  0  0
 13 14  1  0  0  0  0
 14 15  2  0  0  0  0
 14 33  1  0  0  0  0
 15 16  1  0  0  0  0
 15 34  1  0  0  0  0
 16 17  2  0  0  0  0
 16 36  1  0  0  0  0
 17 35  1  0  0  0  0
M  CHG  1  16   1
M  END
> <s_m_source_file>
AV-unprocessed.smi

> <i_m_source_file_index>
3141

> <i_lp_mmshare_version>
43012

> <i_f3d_flags>
0

> <s_epik_input>
W0NIMl0xW0NIMl1bQ0hdMVtOSF1DKD1PKVtOSF1bQ0BASF0yW0NIMl1bQ0gyXVtDSDJdW0NASF0ybjNbY0hdW2NIXW5bY0hdMw==

> <s_epik_cmdline>
J2VwaWtfcHl0aG9uJywgJy1waCcsICc3LjAnLCAnLXRuJywgJzgnLCAnLW1hJywgJzIwMCcsICctbWV0YWxfYmluZGluZycsICctaW1hZScsICc8aW5maWxlLm1hZT4nLCAnLW9tYWUnLCAnPG91dGZpbGUubWFlPic=

> <r_lp_tautomer_probability>
1

> <r_epik_Ionization_Penalty>
0.205063

> <r_epik_Ionization_Penalty_Charging>
0

> <r_epik_Ionization_Penalty_Neutral>
0.205063

> <r_epik_State_Penalty>
0.194948

> <r_epik_Charging_Adjusted_Penalty>
0.194948

> <i_epik_Tot_Q>
1

> <i_epik_Tot_abs_Q>
1

> <r_epik_Metal_State_Penalty>
0.500882

> <b_epik_Metal_Only>
0

> <s_lp_Force_Field>
OPLS_2005

> <r_lp_Energy>
37.736

> <b_lp_Chiralities_Consistent>
1

> <s_lp_Variant>
AV-unprocessed.smi:3141-3

> <Gold.Version>
5.8.1

> <Gold.Id.Protein>
6NUR|6NUR_protein|mol2

> <Gold.PLP.Fitness>
41.3583

> <Gold.PLP.PLP>
-24.1061

> <Gold.PLP.part.hbond>
-2.9487

> <Gold.PLP.part.metal>
0.0000

> <Gold.PLP.part.buried>
-3.5227

> <Gold.PLP.part.nonpolar>
-19.5623

> <Gold.PLP.part.repulsive>
0.0774

> <Gold.PLP.ligand.clash>
0.0000

> <Gold.PLP.ligand.torsion>
0.1108

> <Gold.PLP.Chemscore.Hbond>
3.8070

> <Gold.PLP.Chemscore.CHOScore>
1.9953

> <Gold.PLP.Chemscore.Metal>
0.0000

> <Gold.Chemscore.Hbonds>
donor molecule, donor type, donor heavy atom, donor atom, acceptor molecule, acceptor atom, score
      L1  H     3    18       P1  7948  0.82
      L1  H     7    24       P1  7948  0.88
      L1  H    16    36       P1 10186  2.00
      L1  C    14    33       P1  7948  0.95
      L1  C    17    35       P1 10957  1.00

> <Gold.PLP.Chemscore.Internal.Correction>
0.0669

> <Gold.Rescore>
     Score         DG    S(hbond)    S(metal)    S(lipo)     H(rot)  DE(clash)    DE(int)     intcor
     15.40     -16.49       2.81        0.00      49.21       1.61       0.06       1.03       ----

> <Gold.Chemscore.Fitness>
15.3953

> <Gold.Chemscore.DG>
-16.4886

> <Gold.Chemscore.ZeroCoef>
-5.4800

> <Gold.Chemscore.Hbond>
2.8054

> <Gold.Chemscore.Metal>
0.0000

> <Gold.Chemscore.Lipo>
49.2070

> <Gold.Chemscore.Internal_Hbond>
0.0000

> <Gold.Chemscore.DEClash>
0.0609

> <Gold.Chemscore.DEInternal>
1.0324

> <Gold.Chemscore.Rot>
1.6088

> <Gold.Chemscore.Internal.Correction>
   9.000000E+99

> <Gold.Chemscore.Hbonds>
donor molecule, donor type, donor heavy atom, donor atom, acceptor molecule, acceptor atom, score
      L1  H     3    18       P1  7948  0.78
      L1  H     7    24       P1  7948  0.86
      L1  H    16    36       P1 10186  0.28

> <Gold.Chemscore.Hbond.Weighted>
-9.3700

> <Gold.Chemscore.Metal.Weighted>
-0.0000

> <Gold.Chemscore.Lipo.Weighted>
-5.7572

> <Gold.Chemscore.Internal_Hbond.Weighted>
0.0000

> <Gold.Chemscore.DEClash.Weighted>
0.0609

> <Gold.Chemscore.DEInternal.Weighted>
1.0324

> <Gold.Chemscore.Rot.Weighted>
4.1186

> <Gold.Chemscore.Internal.Correction.Weighted>
   9.000000E+99

> <Gold.Protein.RotatedTorsions>
[ 6907 6896 6895 6894 ] final  152.76 input  -60.11 | X-H torsion
[ 7974 7965 7964 7962 ] final  -89.80 input  175.53 | X-H torsion
[ 8008 7997 7996 7995 ] final   14.86 input   59.86 | X-H torsion
[ 10167 10162 10161 10158 ] final   69.89 input  -65.29 | X-H torsion
[ 10718 10713 10712 10709 ] final  -14.47 input   66.30 | X-H torsion
[ 10763 10752 10751 10750 ] final  -50.19 input  -60.55 | X-H torsion
[ 11005 11000 10999 10996 ] final  125.02 input  -57.11 | X-H torsion

> <Gold.Protein.ActiveResidues>
 VAL166  LYS551  ARG553  GLY616  TRP617  ASP618  TYR619  PRO620  LYS621  CYS622 
 ASP623  PHE694  ASN695  SER759  ASP760  ASP761  ALA762  ILE779  LEU786  VAL792 
 PHE793  MET794  SER795  GLU796  ALA797  LYS798  CYS799  TRP800  GLU811  SER814 

> <Gold.Protein.RotatedAtoms>
  152.0823  133.4158  159.4506 H   0  0  0  0  0  0  0  0  0  0  0  0  # atno 6907 bound_to 6896
  150.6862  134.2968  159.4699 H   0  0  0  0  0  0  0  0  0  0  0  0  # atno 6908 bound_to 6896
  152.0811  134.9470  160.0624 H   0  0  0  0  0  0  0  0  0  0  0  0  # atno 6909 bound_to 6896
  145.4350  140.9557  143.2107 H   0  0  0  0  0  0  0  0  0  0  0  0  # atno 7974 bound_to 7965
  154.8545  140.2935  155.5577 H   0  0  0  0  0  0  0  0  0  0  0  0  # atno 8008 bound_to 7997
  156.3018  140.2489  156.3441 H   0  0  0  0  0  0  0  0  0  0  0  0  # atno 8009 bound_to 7997
  154.8985  140.0392  157.1869 H   0  0  0  0  0  0  0  0  0  0  0  0  # atno 8010 bound_to 7997
  140.0629  144.5218  150.7281 H   0  0  0  0  0  0  0  0  0  0  0  0  # atno 10167 bound_to 10162
  156.6155  130.4861  149.6184 H   0  0  0  0  0  0  0  0  0  0  0  0  # atno 10718 bound_to 10713
  154.1063  135.6556  153.4877 H   0  0  0  0  0  0  0  0  0  0  0  0  # atno 10763 bound_to 10752
  153.0271  135.5237  154.7236 H   0  0  0  0  0  0  0  0  0  0  0  0  # atno 10764 bound_to 10752
  154.6403  135.2987  155.0081 H   0  0  0  0  0  0  0  0  0  0  0  0  # atno 10765 bound_to 10752
  139.9386  134.9637  156.8495 H   0  0  0  0  0  0  0  0  0  0  0  0  # atno 11005 bound_to 11000
  144.8158  139.5879  143.7009 LP  0  0  0  0  0  0  0  0  0  0  0  0  # atno 17320 bound_to 7965
  146.2587  139.6360  142.9377 LP  0  0  0  0  0  0  0  0  0  0  0  0  # atno 17321 bound_to 7965
  140.7163  143.2547  151.4423 LP  0  0  0  0  0  0  0  0  0  0  0  0  # atno 17342 bound_to 10162
  139.5883  144.1556  152.2056 LP  0  0  0  0  0  0  0  0  0  0  0  0  # atno 17343 bound_to 10162
  156.2354  130.6819  151.1504 LP  0  0  0  0  0  0  0  0  0  0  0  0  # atno 17370 bound_to 10713
  157.7242  131.0661  150.6004 LP  0  0  0  0  0  0  0  0  0  0  0  0  # atno 17371 bound_to 10713
  140.6010  134.0172  155.7537 LP  0  0  0  0  0  0  0  0  0  0  0  0  # atno 17394 bound_to 11000
  141.1011  133.9767  157.3077 LP  0  0  0  0  0  0  0  0  0  0  0  0  # atno 17395 bound_to 11000

$$$$
