AV-unprocessed.smi:1845|AV-procd|sdf|7513|dock10
  -GOLD-   22720 9223D 1   1.00000     0.00000
 Structure written by MMmdl.
 44 45  0  0  0  0  0  0  0  0  2 V2000
  151.4856  130.5844  155.6317 C   0  0  0  0  0  0  0  0  0  0  0  0
  150.6387  131.7697  156.7626 S   0  0  0  0  0  0  0  0  0  0  0  0
  149.7962  130.9323  157.6296 O   0  0  0  0  0  0  0  0  0  0  0  0
  151.7040  132.5427  157.4233 O   0  0  0  0  0  0  0  0  0  0  0  0
  149.7295  132.6453  155.7359 N   0  5  0  0  0  0  0  0  0  0  0  0
  150.2984  133.7345  154.9533 C   0  0  0  0  0  0  0  0  0  0  0  0
  149.6716  135.0756  155.3934 C   0  0  0  0  0  0  0  0  0  0  0  0
  150.5865  136.2877  155.1607 C   0  0  0  0  0  0  0  0  0  0  0  0
  151.6363  136.4137  155.7955 O   0  0  0  0  0  0  0  0  0  0  0  0
  150.1950  137.1568  154.2132 N   0  0  0  0  0  0  0  0  0  0  0  0
  150.8981  138.3801  153.8374 C   0  0  0  0  0  0  0  0  0  0  0  0
  151.1698  139.3389  154.9887 C   0  0  0  0  0  0  0  0  0  0  0  0
  150.3910  140.4928  155.2211 C   0  0  0  0  0  0  0  0  0  0  0  0
  150.7173  141.3328  156.3033 C   0  0  0  0  0  0  0  0  0  0  0  0
  151.8165  141.0009  157.1309 C   0  0  0  0  0  0  0  0  0  0  0  0
  152.1606  141.8248  158.2257 N   0  0  0  0  0  0  0  0  0  0  0  0
  151.5917  143.1707  158.2138 C   0  0  0  0  0  0  0  0  0  0  0  0
  152.2761  144.0526  159.2725 C   0  0  0  0  0  0  0  0  0  0  0  0
  152.1908  143.4287  160.5492 O   0  0  0  0  0  0  0  0  0  0  0  0
  152.8539  142.1692  160.5665 C   0  0  0  0  0  0  0  0  0  0  0  0
  152.1880  141.2194  159.5566 C   0  0  0  0  0  0  0  0  0  0  0  0
  152.5702  139.8985  156.8950 N   0  0  0  0  0  0  0  0  0  0  0  0
  152.2540  139.0982  155.8557 C   0  0  0  0  0  0  0  0  0  0  0  0
  152.0630  129.8760  156.2248 H   0  0  0  0  0  0  0  0  0  0  0  0
  152.1582  131.1205  154.9630 H   0  0  0  0  0  0  0  0  0  0  0  0
  150.7420  130.0430  155.0476 H   0  0  0  0  0  0  0  0  0  0  0  0
  151.3802  133.8023  155.0729 H   0  0  0  0  0  0  0  0  0  0  0  0
  150.1306  133.5835  153.8865 H   0  0  0  0  0  0  0  0  0  0  0  0
  148.7407  135.2445  154.8501 H   0  0  0  0  0  0  0  0  0  0  0  0
  149.4026  135.0290  156.4502 H   0  0  0  0  0  0  0  0  0  0  0  0
  149.3271  136.9675  153.7331 H   0  0  0  0  0  0  0  0  0  0  0  0
  151.8507  138.0837  153.3971 H   0  0  0  0  0  0  0  0  0  0  0  0
  150.3581  138.9163  153.0554 H   0  0  0  0  0  0  0  0  0  0  0  0
  149.5580  140.7464  154.5830 H   0  0  0  0  0  0  0  0  0  0  0  0
  150.1328  142.2247  156.4725 H   0  0  0  0  0  0  0  0  0  0  0  0
  151.6950  143.6466  157.2400 H   0  0  0  0  0  0  0  0  0  0  0  0
  150.5231  143.1015  158.4209 H   0  0  0  0  0  0  0  0  0  0  0  0
  153.3205  144.2321  159.0123 H   0  0  0  0  0  0  0  0  0  0  0  0
  151.7890  145.0265  159.3211 H   0  0  0  0  0  0  0  0  0  0  0  0
  153.9130  142.3000  160.3384 H   0  0  0  0  0  0  0  0  0  0  0  0
  152.7942  141.7500  161.5710 H   0  0  0  0  0  0  0  0  0  0  0  0
  151.1682  140.9950  159.8721 H   0  0  0  0  0  0  0  0  0  0  0  0
  152.7381  140.2778  159.5332 H   0  0  0  0  0  0  0  0  0  0  0  0
  152.8885  138.2357  155.7141 H   0  0  0  0  0  0  0  0  0  0  0  0
  1  2  1  0  0  0  0
  1 24  1  0  0  0  0
  1 25  1  0  0  0  0
  1 26  1  0  0  0  0
  2  3  2  0  0  0  0
  2  4  2  0  0  0  0
  2  5  1  0  0  0  0
  5  6  1  0  0  0  0
  6  7  1  0  0  0  0
  6 27  1  0  0  0  0
  6 28  1  0  0  0  0
  7  8  1  0  0  0  0
  7 29  1  0  0  0  0
  7 30  1  0  0  0  0
  8  9  2  0  0  0  0
  8 10  1  0  0  0  0
 10 11  1  0  0  0  0
 10 31  1  0  0  0  0
 11 12  1  0  0  0  0
 11 32  1  0  0  0  0
 11 33  1  0  0  0  0
 12 23  1  0  0  0  0
 12 13  2  0  0  0  0
 13 14  1  0  0  0  0
 13 34  1  0  0  0  0
 14 15  2  0  0  0  0
 14 35  1  0  0  0  0
 15 16  1  0  0  0  0
 15 22  1  0  0  0  0
 16 21  1  0  0  0  0
 16 17  1  0  0  0  0
 17 18  1  0  0  0  0
 17 36  1  0  0  0  0
 17 37  1  0  0  0  0
 18 19  1  0  0  0  0
 18 38  1  0  0  0  0
 18 39  1  0  0  0  0
 19 20  1  0  0  0  0
 20 21  1  0  0  0  0
 20 40  1  0  0  0  0
 20 41  1  0  0  0  0
 21 42  1  0  0  0  0
 21 43  1  0  0  0  0
 22 23  2  0  0  0  0
 23 44  1  0  0  0  0
M  CHG  1   5  -1
M  END
> <s_m_source_file>
AV-unprocessed.smi

> <i_m_source_file_index>
1845

> <i_lp_mmshare_version>
43012

> <i_f3d_flags>
0

> <s_epik_input>
W0NIM11TKD1PKSg9TylbTkhdW0NIMl1bQ0gyXUMoPU8pW05IXVtDSDJdYzFbY0hdW2NIXWMobltjSF0xKU4yW0NIMl1bQ0gyXU9bQ0gyXVtDSDJdMg==

> <s_epik_cmdline>
J2VwaWtfcHl0aG9uJywgJy1waCcsICc3LjAnLCAnLXRuJywgJzgnLCAnLW1hJywgJzIwMCcsICctbWV0YWxfYmluZGluZycsICctaW1hZScsICc8aW5maWxlLm1hZT4nLCAnLW9tYWUnLCAnPG91dGZpbGUubWFlPic=

> <r_lp_tautomer_probability>
1

> <r_epik_Ionization_Penalty>
6.31253

> <r_epik_Ionization_Penalty_Charging>
6.30704

> <r_epik_Ionization_Penalty_Neutral>
0.00548995

> <r_epik_State_Penalty>
6.31049

> <r_epik_Charging_Adjusted_Penalty>
12.6175

> <i_epik_Tot_Q>
-1

> <i_epik_Tot_abs_Q>
1

> <r_epik_Metal_State_Penalty>
2.24651

> <b_epik_Metal_Only>
1

> <s_lp_Force_Field>
OPLS_2005

> <r_lp_Energy>
11.4109

> <b_lp_Chiralities_Consistent>
1

> <s_lp_Variant>
AV-unprocessed.smi:1845-2

> <Gold.Version>
5.8.1

> <Gold.Id.Protein>
6NUR|6NUR_protein|mol2

> <Gold.PLP.Fitness>
51.3883

> <Gold.PLP.PLP>
-41.7324

> <Gold.PLP.part.hbond>
-4.6853

> <Gold.PLP.part.metal>
0.0000

> <Gold.PLP.part.buried>
-4.5457

> <Gold.PLP.part.nonpolar>
-31.4321

> <Gold.PLP.part.repulsive>
0.1481

> <Gold.PLP.ligand.clash>
0.0000

> <Gold.PLP.ligand.torsion>
1.2358

> <Gold.PLP.Chemscore.Hbond>
3.5772

> <Gold.PLP.Chemscore.CHOScore>
0.0000

> <Gold.PLP.Chemscore.Metal>
0.0000

> <Gold.Chemscore.Hbonds>
donor molecule, donor type, donor heavy atom, donor atom, acceptor molecule, acceptor atom, score
      L1  H    10    31       P1  7948  0.59
      P1  H  6896  6907       L1     4  1.00
      P1  H  7997  8008       L1    22  0.95
      P1  H 10752 10765       L1     9  1.00

> <Gold.PLP.Chemscore.Internal.Correction>
1.3959

> <Gold.Rescore>
     Score         DG    S(hbond)    S(metal)    S(lipo)     H(rot)  DE(clash)    DE(int)     intcor
     17.81     -20.54       3.03        0.00      96.20       2.46       0.16       2.57       ----

> <Gold.Chemscore.Fitness>
17.8098

> <Gold.Chemscore.DG>
-20.5430

> <Gold.Chemscore.ZeroCoef>
-5.4800

> <Gold.Chemscore.Hbond>
3.0274

> <Gold.Chemscore.Metal>
0.0000

> <Gold.Chemscore.Lipo>
96.2017

> <Gold.Chemscore.Internal_Hbond>
0.0000

> <Gold.Chemscore.DEClash>
0.1628

> <Gold.Chemscore.DEInternal>
2.5704

> <Gold.Chemscore.Rot>
2.4625

> <Gold.Chemscore.Internal.Correction>
   9.000000E+99

> <Gold.Chemscore.Hbonds>
donor molecule, donor type, donor heavy atom, donor atom, acceptor molecule, acceptor atom, score
      L1  H    10    31       P1  7948  0.55
      P1  H  6896  6907       L1     4  0.94
      P1  H  7997  8008       L1    22  0.21
      P1  H 10752 10765       L1     9  0.65

> <Gold.Chemscore.Hbond.Weighted>
-10.1114

> <Gold.Chemscore.Metal.Weighted>
-0.0000

> <Gold.Chemscore.Lipo.Weighted>
-11.2556

> <Gold.Chemscore.Internal_Hbond.Weighted>
0.0000

> <Gold.Chemscore.DEClash.Weighted>
0.1628

> <Gold.Chemscore.DEInternal.Weighted>
2.5704

> <Gold.Chemscore.Rot.Weighted>
6.3040

> <Gold.Chemscore.Internal.Correction.Weighted>
   9.000000E+99

> <Gold.Protein.RotatedTorsions>
[ 6907 6896 6895 6894 ] final -179.56 input  -60.11 | X-H torsion
[ 7974 7965 7964 7962 ] final -169.18 input  175.53 | X-H torsion
[ 8008 7997 7996 7995 ] final  -56.59 input   59.86 | X-H torsion
[ 10167 10162 10161 10158 ] final  -49.35 input  -65.29 | X-H torsion
[ 10718 10713 10712 10709 ] final  -43.94 input   66.30 | X-H torsion
[ 10763 10752 10751 10750 ] final -166.18 input  -60.55 | X-H torsion
[ 11005 11000 10999 10996 ] final   88.22 input  -57.11 | X-H torsion

> <Gold.Protein.ActiveResidues>
 VAL166  LYS551  ARG553  GLY616  TRP617  ASP618  TYR619  PRO620  LYS621  CYS622 
 ASP623  PHE694  ASN695  SER759  ASP760  ASP761  ALA762  ILE779  LEU786  VAL792 
 PHE793  MET794  SER795  GLU796  ALA797  LYS798  CYS799  TRP800  GLU811  SER814 

> <Gold.Protein.RotatedAtoms>
  151.6554  133.3319  159.3161 H   0  0  0  0  0  0  0  0  0  0  0  0  # atno 6907 bound_to 6896
  150.7939  134.6988  159.6548 H   0  0  0  0  0  0  0  0  0  0  0  0  # atno 6908 bound_to 6896
  152.4023  134.6269  160.0117 H   0  0  0  0  0  0  0  0  0  0  0  0  # atno 6909 bound_to 6896
  144.7190  140.2260  143.6310 H   0  0  0  0  0  0  0  0  0  0  0  0  # atno 7974 bound_to 7965
  154.4236  140.1126  156.5661 H   0  0  0  0  0  0  0  0  0  0  0  0  # atno 8008 bound_to 7997
  155.6260  140.3495  155.4648 H   0  0  0  0  0  0  0  0  0  0  0  0  # atno 8009 bound_to 7997
  155.9986  140.1194  157.0559 H   0  0  0  0  0  0  0  0  0  0  0  0  # atno 8010 bound_to 7997
  140.6689  143.2701  151.4202 H   0  0  0  0  0  0  0  0  0  0  0  0  # atno 10167 bound_to 10162
  156.2438  130.4182  149.8730 H   0  0  0  0  0  0  0  0  0  0  0  0  # atno 10718 bound_to 10713
  154.6858  135.2962  154.9549 H   0  0  0  0  0  0  0  0  0  0  0  0  # atno 10763 bound_to 10752
  154.0529  135.6642  153.4806 H   0  0  0  0  0  0  0  0  0  0  0  0  # atno 10764 bound_to 10752
  153.0578  135.5134  154.7925 H   0  0  0  0  0  0  0  0  0  0  0  0  # atno 10765 bound_to 10752
  139.8901  134.8473  156.2969 H   0  0  0  0  0  0  0  0  0  0  0  0  # atno 11005 bound_to 11000
  145.8456  139.2151  143.1802 LP  0  0  0  0  0  0  0  0  0  0  0  0  # atno 17320 bound_to 7965
  146.0307  140.8261  142.9877 LP  0  0  0  0  0  0  0  0  0  0  0  0  # atno 17321 bound_to 7965
  139.5949  144.1419  152.2132 LP  0  0  0  0  0  0  0  0  0  0  0  0  # atno 17342 bound_to 10162
  140.0785  144.5720  150.7139 LP  0  0  0  0  0  0  0  0  0  0  0  0  # atno 17343 bound_to 10162
  156.6302  130.8662  151.3494 LP  0  0  0  0  0  0  0  0  0  0  0  0  # atno 17370 bound_to 10713
  157.7186  130.9529  150.1351 LP  0  0  0  0  0  0  0  0  0  0  0  0  # atno 17371 bound_to 10713
  140.9939  133.7192  156.0856 LP  0  0  0  0  0  0  0  0  0  0  0  0  # atno 17394 bound_to 11000
  140.7588  134.3962  157.5529 LP  0  0  0  0  0  0  0  0  0  0  0  0  # atno 17395 bound_to 11000

$$$$
