AV-unprocessed.smi:1287|AV-procd|sdf|5380|dock3
  -GOLD-   22720 4523D 1   1.00000     0.00000
 Structure written by MMmdl.
 44 45  0  0  0  0  0  0  0  0  1 V2000
  145.8205  135.8774  151.4416 C   0  0  0  0  0  0  0  0  0  0  0  0
  146.4951  137.2271  151.6603 C   0  0  0  0  0  0  0  0  0  0  0  0
  146.7884  137.9356  150.6975 O   0  0  0  0  0  0  0  0  0  0  0  0
  146.7357  137.5706  152.9355 N   0  0  0  0  0  0  0  0  0  0  0  0
  147.3870  138.8064  153.3682 C   0  0  1  0  0  0  0  0  0  0  0  0
  146.4489  139.5186  154.3570 C   0  0  0  0  0  0  0  0  0  0  0  0
  148.7025  138.5012  154.1026 C   0  0  0  0  0  0  0  0  0  0  0  0
  148.6944  137.9603  155.2097 O   0  0  0  0  0  0  0  0  0  0  0  0
  149.8287  138.8800  153.4795 N   0  0  0  0  0  0  0  0  0  0  0  0
  151.1758  138.7105  154.0138 C   0  0  0  0  0  0  0  0  0  0  0  0
  151.4682  139.5540  155.2467 C   0  0  0  0  0  0  0  0  0  0  0  0
  150.5489  140.5047  155.7372 C   0  0  0  0  0  0  0  0  0  0  0  0
  150.8841  141.2527  156.8819 C   0  0  0  0  0  0  0  0  0  0  0  0
  152.1353  141.0362  157.5070 C   0  0  0  0  0  0  0  0  0  0  0  0
  152.4920  141.7731  158.6574 N   0  0  0  0  0  0  0  0  0  0  0  0
  153.0947  141.0031  159.7430 C   0  0  0  0  0  0  0  0  0  0  0  0
  153.7146  141.9460  160.7889 C   0  0  0  0  0  0  0  0  0  0  0  0
  152.7347  142.8726  161.2454 O   0  0  0  0  0  0  0  0  0  0  0  0
  152.2446  143.6886  160.1868 C   0  0  0  0  0  0  0  0  0  0  0  0
  151.5692  142.8066  159.1233 C   0  0  0  0  0  0  0  0  0  0  0  0
  153.0164  140.1220  157.0304 N   0  0  0  0  0  0  0  0  0  0  0  0
  152.6903  139.4083  155.9326 C   0  0  0  0  0  0  0  0  0  0  0  0
  146.3715  135.0871  151.9522 H   0  0  0  0  0  0  0  0  0  0  0  0
  145.7793  135.6320  150.3798 H   0  0  0  0  0  0  0  0  0  0  0  0
  144.8012  135.8948  151.8288 H   0  0  0  0  0  0  0  0  0  0  0  0
  146.4670  136.9207  153.6602 H   0  0  0  0  0  0  0  0  0  0  0  0
  147.5736  139.4529  152.5085 H   0  0  0  0  0  0  0  0  0  0  0  0
  146.8842  140.4536  154.7127 H   0  0  0  0  0  0  0  0  0  0  0  0
  146.2311  138.9003  155.2294 H   0  0  0  0  0  0  0  0  0  0  0  0
  145.4984  139.7647  153.8823 H   0  0  0  0  0  0  0  0  0  0  0  0
  149.7467  139.3180  152.5733 H   0  0  0  0  0  0  0  0  0  0  0  0
  151.3518  137.6561  154.2340 H   0  0  0  0  0  0  0  0  0  0  0  0
  151.8876  138.9858  153.2355 H   0  0  0  0  0  0  0  0  0  0  0  0
  149.5972  140.6620  155.2512 H   0  0  0  0  0  0  0  0  0  0  0  0
  150.1753  141.9672  157.2723 H   0  0  0  0  0  0  0  0  0  0  0  0
  152.3227  140.3880  160.2071 H   0  0  0  0  0  0  0  0  0  0  0  0
  153.8646  140.3242  159.3796 H   0  0  0  0  0  0  0  0  0  0  0  0
  154.0828  141.3719  161.6393 H   0  0  0  0  0  0  0  0  0  0  0  0
  154.5697  142.4802  160.3718 H   0  0  0  0  0  0  0  0  0  0  0  0
  151.5279  144.4031  160.5915 H   0  0  0  0  0  0  0  0  0  0  0  0
  153.0604  144.2676  159.7512 H   0  0  0  0  0  0  0  0  0  0  0  0
  151.2472  143.4306  158.2887 H   0  0  0  0  0  0  0  0  0  0  0  0
  150.6789  142.3344  159.5411 H   0  0  0  0  0  0  0  0  0  0  0  0
  153.4289  138.6963  155.5946 H   0  0  0  0  0  0  0  0  0  0  0  0
  1  2  1  0  0  0  0
  1 23  1  0  0  0  0
  1 24  1  0  0  0  0
  1 25  1  0  0  0  0
  2  3  2  0  0  0  0
  2  4  1  0  0  0  0
  4  5  1  0  0  0  0
  4 26  1  0  0  0  0
  5  6  1  0  0  0  0
  5  7  1  0  0  0  0
  5 27  1  0  0  0  0
  6 28  1  0  0  0  0
  6 29  1  0  0  0  0
  6 30  1  0  0  0  0
  7  8  2  0  0  0  0
  7  9  1  0  0  0  0
  9 10  1  0  0  0  0
  9 31  1  0  0  0  0
 10 11  1  0  0  0  0
 10 32  1  0  0  0  0
 10 33  1  0  0  0  0
 11 22  1  0  0  0  0
 11 12  2  0  0  0  0
 12 13  1  0  0  0  0
 12 34  1  0  0  0  0
 13 14  2  0  0  0  0
 13 35  1  0  0  0  0
 14 15  1  0  0  0  0
 14 21  1  0  0  0  0
 15 20  1  0  0  0  0
 15 16  1  0  0  0  0
 16 17  1  0  0  0  0
 16 36  1  0  0  0  0
 16 37  1  0  0  0  0
 17 18  1  0  0  0  0
 17 38  1  0  0  0  0
 17 39  1  0  0  0  0
 18 19  1  0  0  0  0
 19 20  1  0  0  0  0
 19 40  1  0  0  0  0
 19 41  1  0  0  0  0
 20 42  1  0  0  0  0
 20 43  1  0  0  0  0
 21 22  2  0  0  0  0
 22 44  1  0  0  0  0
M  END
> <s_m_source_file>
AV-unprocessed.smi

> <i_m_source_file_index>
1287

> <i_lp_mmshare_version>
43012

> <i_f3d_flags>
0

> <s_epik_input>
W0NIM11DKD1PKVtOSF1bQ0BIXShbQ0gzXSlDKD1PKVtOSF1bQ0gyXWMxW2NIXVtjSF1jKG5bY0hdMSlOMltDSDJdW0NIMl1PW0NIMl1bQ0gyXTI=

> <s_epik_cmdline>
J2VwaWtfcHl0aG9uJywgJy1waCcsICc3LjAnLCAnLXRuJywgJzgnLCAnLW1hJywgJzIwMCcsICctbWV0YWxfYmluZGluZycsICctaW1hZScsICc8aW5maWxlLm1hZT4nLCAnLW9tYWUnLCAnPG91dGZpbGUubWFlPic=

> <r_lp_tautomer_probability>
1

> <r_epik_Ionization_Penalty>
0.00481935

> <r_epik_Ionization_Penalty_Charging>
0

> <r_epik_Ionization_Penalty_Neutral>
0.00481935

> <r_epik_State_Penalty>
0.00349439

> <r_epik_Charging_Adjusted_Penalty>
0.00349439

> <i_epik_Tot_Q>
0

> <i_epik_Tot_abs_Q>
0

> <r_epik_Metal_State_Penalty>
-0

> <b_epik_Metal_Only>
0

> <s_lp_Force_Field>
OPLS_2005

> <r_lp_Energy>
13.9902

> <b_lp_Chiralities_Consistent>
1

> <s_lp_Variant>
AV-unprocessed.smi:1287-2

> <Gold.Version>
5.8.1

> <Gold.Id.Protein>
6NUR|6NUR_protein|mol2

> <Gold.PLP.Fitness>
48.1572

> <Gold.PLP.PLP>
-39.6619

> <Gold.PLP.part.hbond>
-4.3578

> <Gold.PLP.part.metal>
0.0000

> <Gold.PLP.part.buried>
-0.7379

> <Gold.PLP.part.nonpolar>
-34.7560

> <Gold.PLP.part.repulsive>
1.5211

> <Gold.PLP.ligand.clash>
0.0000

> <Gold.PLP.ligand.torsion>
0.4396

> <Gold.PLP.Chemscore.Hbond>
3.0000

> <Gold.PLP.Chemscore.CHOScore>
0.0000

> <Gold.PLP.Chemscore.Metal>
0.0000

> <Gold.Chemscore.Hbonds>
donor molecule, donor type, donor heavy atom, donor atom, acceptor molecule, acceptor atom, score
      L1  H     9    31       P1  7957  1.00
      P1  H  7954  7966       L1     3  1.00
      P1  H  7997  8009       L1    21  0.61

> <Gold.PLP.Chemscore.Internal.Correction>
0.3745

> <Gold.Rescore>
     Score         DG    S(hbond)    S(metal)    S(lipo)     H(rot)  DE(clash)    DE(int)     intcor
     17.20     -19.26       2.56        0.00      92.06       2.16       1.57       0.49       ----

> <Gold.Chemscore.Fitness>
17.2011

> <Gold.Chemscore.DG>
-19.2644

> <Gold.Chemscore.ZeroCoef>
-5.4800

> <Gold.Chemscore.Hbond>
2.5591

> <Gold.Chemscore.Metal>
0.0000

> <Gold.Chemscore.Lipo>
92.0575

> <Gold.Chemscore.Internal_Hbond>
0.0000

> <Gold.Chemscore.DEClash>
1.5697

> <Gold.Chemscore.DEInternal>
0.4937

> <Gold.Chemscore.Rot>
2.1616

> <Gold.Chemscore.Internal.Correction>
   9.000000E+99

> <Gold.Chemscore.Hbonds>
donor molecule, donor type, donor heavy atom, donor atom, acceptor molecule, acceptor atom, score
      L1  H     9    31       P1  7957  0.95
      P1  H  7954  7966       L1     3  0.97
      P1  H  7997  8009       L1    21  0.08

> <Gold.Chemscore.Hbond.Weighted>
-8.5474

> <Gold.Chemscore.Metal.Weighted>
-0.0000

> <Gold.Chemscore.Lipo.Weighted>
-10.7707

> <Gold.Chemscore.Internal_Hbond.Weighted>
0.0000

> <Gold.Chemscore.DEClash.Weighted>
1.5697

> <Gold.Chemscore.DEInternal.Weighted>
0.4937

> <Gold.Chemscore.Rot.Weighted>
5.5336

> <Gold.Chemscore.Internal.Correction.Weighted>
   9.000000E+99

> <Gold.Protein.RotatedTorsions>
[ 6907 6896 6895 6894 ] final   88.72 input  -60.11 | X-H torsion
[ 7974 7965 7964 7962 ] final  -45.99 input  175.53 | X-H torsion
[ 8008 7997 7996 7995 ] final  169.00 input   59.86 | X-H torsion
[ 10167 10162 10161 10158 ] final  -32.18 input  -65.29 | X-H torsion
[ 10718 10713 10712 10709 ] final  166.21 input   66.30 | X-H torsion
[ 10763 10752 10751 10750 ] final   94.34 input  -60.55 | X-H torsion
[ 11005 11000 10999 10996 ] final   82.52 input  -57.11 | X-H torsion

> <Gold.Protein.ActiveResidues>
 VAL166  LYS551  ARG553  GLY616  TRP617  ASP618  TYR619  PRO620  LYS621  CYS622 
 ASP623  PHE694  ASN695  SER759  ASP760  ASP761  ALA762  ILE779  LEU786  VAL792 
 PHE793  MET794  SER795  GLU796  ALA797  LYS798  CYS799  TRP800  GLU811  SER814 

> <Gold.Protein.RotatedAtoms>
  152.5428  134.2077  159.8737 H   0  0  0  0  0  0  0  0  0  0  0  0  # atno 6907 bound_to 6896
  151.2062  133.4575  159.2605 H   0  0  0  0  0  0  0  0  0  0  0  0  # atno 6908 bound_to 6896
  151.0941  134.9946  159.8473 H   0  0  0  0  0  0  0  0  0  0  0  0  # atno 6909 bound_to 6896
  145.9764  140.7329  142.9385 H   0  0  0  0  0  0  0  0  0  0  0  0  # atno 7974 bound_to 7965
  156.1497  140.1576  156.8790 H   0  0  0  0  0  0  0  0  0  0  0  0  # atno 8008 bound_to 7997
  154.5060  140.0813  156.7932 H   0  0  0  0  0  0  0  0  0  0  0  0  # atno 8009 bound_to 7997
  155.3920  140.3410  155.4254 H   0  0  0  0  0  0  0  0  0  0  0  0  # atno 8010 bound_to 7997
  140.7225  143.3714  151.1770 H   0  0  0  0  0  0  0  0  0  0  0  0  # atno 10167 bound_to 10162
  157.0691  131.0361  151.2618 H   0  0  0  0  0  0  0  0  0  0  0  0  # atno 10718 bound_to 10713
  153.2405  135.4293  155.0692 H   0  0  0  0  0  0  0  0  0  0  0  0  # atno 10763 bound_to 10752
  154.8338  135.3401  154.6656 H   0  0  0  0  0  0  0  0  0  0  0  0  # atno 10764 bound_to 10752
  153.7080  135.7024  153.5101 H   0  0  0  0  0  0  0  0  0  0  0  0  # atno 10765 bound_to 10752
  139.9061  134.8077  156.2185 H   0  0  0  0  0  0  0  0  0  0  0  0  # atno 11005 bound_to 11000
  144.6850  140.2835  143.7288 LP  0  0  0  0  0  0  0  0  0  0  0  0  # atno 17320 bound_to 7965
  145.7832  139.1899  143.2145 LP  0  0  0  0  0  0  0  0  0  0  0  0  # atno 17321 bound_to 7965
  139.7286  143.9108  152.3011 LP  0  0  0  0  0  0  0  0  0  0  0  0  # atno 17342 bound_to 10162
  139.8889  144.6976  150.8792 LP  0  0  0  0  0  0  0  0  0  0  0  0  # atno 17343 bound_to 10162
  157.4892  130.7812  149.7491 LP  0  0  0  0  0  0  0  0  0  0  0  0  # atno 17370 bound_to 10713
  155.9955  130.3911  150.2814 LP  0  0  0  0  0  0  0  0  0  0  0  0  # atno 17371 bound_to 10713
  141.0420  133.6933  156.1615 LP  0  0  0  0  0  0  0  0  0  0  0  0  # atno 17394 bound_to 11000
  140.6940  134.4635  157.5588 LP  0  0  0  0  0  0  0  0  0  0  0  0  # atno 17395 bound_to 11000

$$$$
