AV-unprocessed.smi:246|AV-procd|sdf|1886|dock10
  -GOLD-   2262020543D 1   1.00000     0.00000
 Structure written by MMmdl.
 57 60  0  0  0  0  0  0  0  0  1 V2000
  144.0241  132.4931  149.3807 C   0  0  0  0  0  0  0  0  0  0  0  0
  144.2251  133.0682  150.7891 C   0  0  0  0  0  0  0  0  0  0  0  0
  145.4251  132.5905  151.3799 O   0  0  0  0  0  0  0  0  0  0  0  0
  145.7260  133.1724  152.6398 C   0  0  0  0  0  0  0  0  0  0  0  0
  147.1825  132.8562  152.9896 C   0  0  0  0  0  0  0  0  0  0  0  0
  147.5509  133.6210  154.1269 O   0  0  0  0  0  0  0  0  0  0  0  0
  148.2978  132.8950  155.0935 C   0  0  1  0  0  0  0  0  0  0  0  0
  149.7527  132.7278  154.6410 C   0  0  0  0  0  0  0  0  0  0  0  0
  150.4087  134.0312  155.0869 C   0  0  0  0  0  0  0  0  0  0  0  0
  149.7218  134.3861  156.3202 N   0  0  0  0  0  0  0  0  0  0  0  0
  149.9362  135.5844  156.9244 C   0  0  0  0  0  0  0  0  0  0  0  0
  149.3737  135.8149  158.1409 N   0  0  0  0  0  0  0  0  0  0  0  0
  149.5644  136.9782  158.7689 C   0  0  0  0  0  0  0  0  0  0  0  0
  150.2685  138.0371  158.3672 N   0  0  0  0  0  0  0  0  0  0  0  0
  150.8287  137.8212  157.1430 C   0  0  0  0  0  0  0  0  0  0  0  0
  150.7084  136.6402  156.3545 C   0  0  0  0  0  0  0  0  0  0  0  0
  151.3951  136.8087  155.1564 N   0  0  0  0  0  0  0  0  0  0  0  0
  151.8994  138.0087  155.2384 C   0  0  0  0  0  0  0  0  0  0  0  0
  151.6224  138.6827  156.4055 N   0  0  0  0  0  0  0  0  0  0  0  0
  152.0589  140.0238  156.7607 C   0  0  0  0  0  0  0  0  0  0  0  0
  152.5318  140.1785  158.2250 C   0  0  1  0  0  0  0  0  0  0  0  0
  153.5987  139.2965  158.5160 O   0  0  0  0  0  0  0  0  0  0  0  0
  152.8906  141.6196  158.6554 C   0  0  1  0  0  0  0  0  0  0  0  0
  151.7602  142.6480  158.5515 C   0  0  0  0  0  0  0  0  0  0  0  0
  152.2143  143.6967  159.5421 C   0  0  0  0  0  0  0  0  0  0  0  0
  152.8104  142.8337  160.6499 C   0  0  0  0  0  0  0  0  0  0  0  0
  153.3716  141.7004  159.9953 O   0  0  0  0  0  0  0  0  0  0  0  0
  148.4013  133.7695  156.3510 C   0  0  0  0  0  0  0  0  0  0  0  0
  147.8157  131.9422  155.3198 H   0  0  0  0  0  0  0  0  0  0  0  0
  143.0603  132.7996  148.9742 H   0  0  0  0  0  0  0  0  0  0  0  0
  144.0462  131.4032  149.3987 H   0  0  0  0  0  0  0  0  0  0  0  0
  144.7939  132.8326  148.6884 H   0  0  0  0  0  0  0  0  0  0  0  0
  144.1984  134.1589  150.7781 H   0  0  0  0  0  0  0  0  0  0  0  0
  143.3977  132.7450  151.4212 H   0  0  0  0  0  0  0  0  0  0  0  0
  145.5649  134.2507  152.6392 H   0  0  0  0  0  0  0  0  0  0  0  0
  145.0682  132.7430  153.3967 H   0  0  0  0  0  0  0  0  0  0  0  0
  147.2807  131.7970  153.2311 H   0  0  0  0  0  0  0  0  0  0  0  0
  147.8296  133.0578  152.1352 H   0  0  0  0  0  0  0  0  0  0  0  0
  150.2055  131.8925  155.1768 H   0  0  0  0  0  0  0  0  0  0  0  0
  149.8684  132.5403  153.5738 H   0  0  0  0  0  0  0  0  0  0  0  0
  151.4813  133.9102  155.2423 H   0  0  0  0  0  0  0  0  0  0  0  0
  150.2515  134.8100  154.3391 H   0  0  0  0  0  0  0  0  0  0  0  0
  149.0852  137.0730  159.7321 H   0  0  0  0  0  0  0  0  0  0  0  0
  152.5032  138.4334  154.4497 H   0  0  0  0  0  0  0  0  0  0  0  0
  152.8609  140.3148  156.0812 H   0  0  0  0  0  0  0  0  0  0  0  0
  151.2337  140.7095  156.5643 H   0  0  0  0  0  0  0  0  0  0  0  0
  151.7035  139.8561  158.8569 H   0  0  0  0  0  0  0  0  0  0  0  0
  153.6352  139.1665  159.4514 H   0  0  0  0  0  0  0  0  0  0  0  0
  153.7106  141.9678  158.0251 H   0  0  0  0  0  0  0  0  0  0  0  0
  151.6332  143.0394  157.5419 H   0  0  0  0  0  0  0  0  0  0  0  0
  150.8071  142.2290  158.8763 H   0  0  0  0  0  0  0  0  0  0  0  0
  152.9858  144.3259  159.0965 H   0  0  0  0  0  0  0  0  0  0  0  0
  151.4050  144.3392  159.8902 H   0  0  0  0  0  0  0  0  0  0  0  0
  153.5569  143.3652  161.2404 H   0  0  0  0  0  0  0  0  0  0  0  0
  152.0265  142.4890  161.3254 H   0  0  0  0  0  0  0  0  0  0  0  0
  147.5998  134.5085  156.3865 H   0  0  0  0  0  0  0  0  0  0  0  0
  148.3317  133.1515  157.2466 H   0  0  0  0  0  0  0  0  0  0  0  0
  1  2  1  0  0  0  0
  1 30  1  0  0  0  0
  1 31  1  0  0  0  0
  1 32  1  0  0  0  0
  2  3  1  0  0  0  0
  2 33  1  0  0  0  0
  2 34  1  0  0  0  0
  3  4  1  0  0  0  0
  4  5  1  0  0  0  0
  4 35  1  0  0  0  0
  4 36  1  0  0  0  0
  5  6  1  0  0  0  0
  5 37  1  0  0  0  0
  5 38  1  0  0  0  0
  6  7  1  0  0  0  0
  7 29  1  0  0  0  0
  7 28  1  0  0  0  0
  7  8  1  0  0  0  0
  8  9  1  0  0  0  0
  8 39  1  0  0  0  0
  8 40  1  0  0  0  0
  9 10  1  0  0  0  0
  9 41  1  0  0  0  0
  9 42  1  0  0  0  0
 10 11  1  0  0  0  0
 10 28  1  0  0  0  0
 11 16  1  0  0  0  0
 11 12  2  0  0  0  0
 12 13  1  0  0  0  0
 13 14  2  0  0  0  0
 13 43  1  0  0  0  0
 14 15  1  0  0  0  0
 15 19  1  0  0  0  0
 15 16  2  0  0  0  0
 16 17  1  0  0  0  0
 17 18  2  0  0  0  0
 18 19  1  0  0  0  0
 18 44  1  0  0  0  0
 19 20  1  0  0  0  0
 20 21  1  0  0  0  0
 20 45  1  0  0  0  0
 20 46  1  0  0  0  0
 21 22  1  0  0  0  0
 21 23  1  0  0  0  0
 21 47  1  0  0  0  0
 22 48  1  0  0  0  0
 23 27  1  0  0  0  0
 23 24  1  0  0  0  0
 23 49  1  0  0  0  0
 24 25  1  0  0  0  0
 24 50  1  0  0  0  0
 24 51  1  0  0  0  0
 25 26  1  0  0  0  0
 25 52  1  0  0  0  0
 25 53  1  0  0  0  0
 26 27  1  0  0  0  0
 26 54  1  0  0  0  0
 26 55  1  0  0  0  0
 28 56  1  0  0  0  0
 28 57  1  0  0  0  0
M  END
> <s_m_source_file>
AV-unprocessed.smi

> <i_m_source_file_index>
246

> <i_lp_mmshare_version>
43012

> <i_f3d_flags>
0

> <s_epik_input>
W0NIM11bQ0gyXU9bQ0gyXVtDSDJdT1tDQEhdMVtDSDJdW0NIMl1OKFtDSDJdMSljKG5bY0hdbjIpYyhjMjMpbltjSF1uM1tDSDJdW0NASF0oW09IXSlbQ0BASF00W0NIMl1bQ0gyXVtDSDJdTzQ=

> <s_epik_cmdline>
J2VwaWtfcHl0aG9uJywgJy1waCcsICc3LjAnLCAnLXRuJywgJzgnLCAnLW1hJywgJzIwMCcsICctbWV0YWxfYmluZGluZycsICctaW1hZScsICc8aW5maWxlLm1hZT4nLCAnLW9tYWUnLCAnPG91dGZpbGUubWFlPic=

> <r_lp_tautomer_probability>
1

> <r_epik_Ionization_Penalty>
0.0024631

> <r_epik_Ionization_Penalty_Charging>
0

> <r_epik_Ionization_Penalty_Neutral>
0.0024631

> <r_epik_State_Penalty>
0.00162428

> <r_epik_Charging_Adjusted_Penalty>
0.00162428

> <i_epik_Tot_Q>
0

> <i_epik_Tot_abs_Q>
0

> <r_epik_Metal_State_Penalty>
-0

> <b_epik_Metal_Only>
0

> <s_lp_Force_Field>
OPLS_2005

> <r_lp_Energy>
53.5717

> <b_lp_Chiralities_Consistent>
1

> <s_lp_Variant>
AV-unprocessed.smi:246-7

> <Gold.Version>
5.8.1

> <Gold.Id.Protein>
6NUR|6NUR_protein|mol2

> <Gold.PLP.Fitness>
46.6149

> <Gold.PLP.PLP>
-40.4087

> <Gold.PLP.part.hbond>
-2.7962

> <Gold.PLP.part.metal>
0.0000

> <Gold.PLP.part.buried>
-8.5408

> <Gold.PLP.part.nonpolar>
-30.3571

> <Gold.PLP.part.repulsive>
0.2900

> <Gold.PLP.ligand.clash>
0.0000

> <Gold.PLP.ligand.torsion>
1.1077

> <Gold.PLP.Chemscore.Hbond>
2.5373

> <Gold.PLP.Chemscore.CHOScore>
0.0000

> <Gold.PLP.Chemscore.Metal>
0.0000

> <Gold.Chemscore.Hbonds>
donor molecule, donor type, donor heavy atom, donor atom, acceptor molecule, acceptor atom, score
      P1  H  6896  6908       L1    12  0.29
      P1  H  7997  8010       L1    22  0.85
      P1  H 10752 10764       L1    17  0.91

> <Gold.PLP.Chemscore.Internal.Correction>
0.8099

> <Gold.Rescore>
     Score         DG    S(hbond)    S(metal)    S(lipo)     H(rot)  DE(clash)    DE(int)     intcor
     13.27     -15.97       1.68        0.00     109.65       3.10       0.56       2.14       ----

> <Gold.Chemscore.Fitness>
13.2707

> <Gold.Chemscore.DG>
-15.9659

> <Gold.Chemscore.ZeroCoef>
-5.4800

> <Gold.Chemscore.Hbond>
1.6765

> <Gold.Chemscore.Metal>
0.0000

> <Gold.Chemscore.Lipo>
109.6484

> <Gold.Chemscore.Internal_Hbond>
0.0000

> <Gold.Chemscore.DEClash>
0.5564

> <Gold.Chemscore.DEInternal>
2.1387

> <Gold.Chemscore.Rot>
3.1026

> <Gold.Chemscore.Internal.Correction>
   9.000000E+99

> <Gold.Chemscore.Hbonds>
donor molecule, donor type, donor heavy atom, donor atom, acceptor molecule, acceptor atom, score
      P1  H  6896  6908       L1    12  0.02
      P1  H  7997  8010       L1    22  0.15
      P1  H 10752 10764       L1    17  0.44

> <Gold.Chemscore.Hbond.Weighted>
-5.5996

> <Gold.Chemscore.Metal.Weighted>
-0.0000

> <Gold.Chemscore.Lipo.Weighted>
-12.8289

> <Gold.Chemscore.Internal_Hbond.Weighted>
0.0000

> <Gold.Chemscore.DEClash.Weighted>
0.5564

> <Gold.Chemscore.DEInternal.Weighted>
2.1387

> <Gold.Chemscore.Rot.Weighted>
7.9426

> <Gold.Chemscore.Internal.Correction.Weighted>
   9.000000E+99

> <Gold.Protein.RotatedTorsions>
[ 6907 6896 6895 6894 ] final  156.39 input  -60.11 | X-H torsion
[ 7974 7965 7964 7962 ] final -147.74 input  175.53 | X-H torsion
[ 8008 7997 7996 7995 ] final   15.91 input   59.86 | X-H torsion
[ 10167 10162 10161 10158 ] final  -88.91 input  -65.29 | X-H torsion
[ 10718 10713 10712 10709 ] final  -40.51 input   66.30 | X-H torsion
[ 10763 10752 10751 10750 ] final  -70.42 input  -60.55 | X-H torsion
[ 11005 11000 10999 10996 ] final   47.28 input  -57.11 | X-H torsion

> <Gold.Protein.ActiveResidues>
 VAL166  LYS551  ARG553  GLY616  TRP617  ASP618  TYR619  PRO620  LYS621  CYS622 
 ASP623  PHE694  ASN695  SER759  ASP760  ASP761  ALA762  ILE779  LEU786  VAL792 
 PHE793  MET794  SER795  GLU796  ALA797  LYS798  CYS799  TRP800  GLU811  SER814 

> <Gold.Protein.RotatedAtoms>
  152.0304  133.3935  159.4294 H   0  0  0  0  0  0  0  0  0  0  0  0  # atno 6907 bound_to 6896
  150.6883  134.3527  159.4925 H   0  0  0  0  0  0  0  0  0  0  0  0  # atno 6908 bound_to 6896
  152.1312  134.9133  160.0609 H   0  0  0  0  0  0  0  0  0  0  0  0  # atno 6909 bound_to 6896
  144.8074  140.5287  143.5666 H   0  0  0  0  0  0  0  0  0  0  0  0  # atno 7974 bound_to 7965
  154.8695  140.2956  155.5490 H   0  0  0  0  0  0  0  0  0  0  0  0  # atno 8008 bound_to 7997
  156.3021  140.2463  156.3614 H   0  0  0  0  0  0  0  0  0  0  0  0  # atno 8009 bound_to 7997
  154.8833  140.0397  157.1784 H   0  0  0  0  0  0  0  0  0  0  0  0  # atno 8010 bound_to 7997
  140.3700  143.2799  151.9511 H   0  0  0  0  0  0  0  0  0  0  0  0  # atno 10167 bound_to 10162
  156.2805  130.4216  149.8342 H   0  0  0  0  0  0  0  0  0  0  0  0  # atno 10718 bound_to 10713
  154.4174  135.5994  153.5989 H   0  0  0  0  0  0  0  0  0  0  0  0  # atno 10763 bound_to 10752
  152.9792  135.5944  154.3996 H   0  0  0  0  0  0  0  0  0  0  0  0  # atno 10764 bound_to 10752
  154.3817  135.2841  155.2186 H   0  0  0  0  0  0  0  0  0  0  0  0  # atno 10765 bound_to 10752
  140.1293  134.4726  155.8534 H   0  0  0  0  0  0  0  0  0  0  0  0  # atno 11005 bound_to 11000
  145.5406  139.1475  143.3449 LP  0  0  0  0  0  0  0  0  0  0  0  0  # atno 17320 bound_to 7965
  146.2367  140.5545  142.8951 LP  0  0  0  0  0  0  0  0  0  0  0  0  # atno 17321 bound_to 7965
  139.4805  144.5915  151.7763 LP  0  0  0  0  0  0  0  0  0  0  0  0  # atno 17342 bound_to 10162
  140.5042  144.1123  150.5978 LP  0  0  0  0  0  0  0  0  0  0  0  0  # atno 17343 bound_to 10162
  156.5791  130.8458  151.3378 LP  0  0  0  0  0  0  0  0  0  0  0  0  # atno 17370 bound_to 10713
  157.7313  130.9698  150.1872 LP  0  0  0  0  0  0  0  0  0  0  0  0  # atno 17371 bound_to 10713
  141.2167  133.6790  156.7039 LP  0  0  0  0  0  0  0  0  0  0  0  0  # atno 17394 bound_to 11000
  140.2863  134.8277  157.3977 LP  0  0  0  0  0  0  0  0  0  0  0  0  # atno 17395 bound_to 11000

$$$$
