AV-unprocessed.smi:642|AV-procd|sdf|3152|dock8
  -GOLD-   22720 0 73D 1   1.00000     0.00000
 Structure written by MMmdl.
 49 51  0  0  0  0  0  0  0  0  1 V2000
  145.0267  137.9164  153.0320 O   0  0  0  0  0  0  0  0  0  0  0  0
  146.1066  137.5652  152.5564 C   0  0  0  0  0  0  0  0  0  0  0  0
  147.2604  138.2399  152.6844 N   0  0  0  0  0  0  0  0  0  0  0  0
  147.4829  139.4472  153.4033 C   0  0  0  0  0  0  0  0  0  0  0  0
  146.5238  140.4877  153.4340 C   0  0  0  0  0  0  0  0  0  0  0  0
  146.8252  141.6775  154.1202 C   0  0  0  0  0  0  0  0  0  0  0  0
  148.0813  141.7894  154.7419 C   0  0  0  0  0  0  0  0  0  0  0  0
  149.0098  140.8119  154.7113 N   0  0  0  0  0  0  0  0  0  0  0  0
  148.7267  139.6592  154.0563 C   0  0  0  0  0  0  0  0  0  0  0  0
  149.7065  138.6462  154.0701 N   0  0  0  0  0  0  0  0  0  0  0  0
  149.2789  137.4337  154.7595 C   0  0  0  0  0  0  0  0  0  0  0  0
  150.2896  136.3015  154.5090 C   0  0  0  0  0  0  0  0  0  0  0  0
  151.5920  136.7246  154.9031 O   0  0  0  0  0  0  0  0  0  0  0  0
  152.0310  137.8644  154.1695 C   0  0  0  0  0  0  0  0  0  0  0  0
  151.0690  139.0393  154.4164 C   0  0  0  0  0  0  0  0  0  0  0  0
  146.2837  136.4318  151.8622 N   0  0  0  0  0  0  0  0  0  0  0  0
  145.2550  135.4304  151.5879 C   0  0  0  0  0  0  0  0  0  0  0  0
  145.6333  134.0802  152.2381 C   0  0  0  0  0  0  0  0  0  0  0  0
  146.5444  133.1695  151.3973 C   0  0  0  0  0  0  0  0  0  0  0  0
  145.7534  132.2618  150.4382 C   0  0  0  0  0  0  0  0  0  0  0  0
  145.1395  132.9777  149.2244 C   0  0  0  0  0  0  0  0  0  0  0  0
  144.2182  134.1624  149.5657 C   0  0  0  0  0  0  0  0  0  0  0  0
  144.9956  135.3903  150.0676 C   0  0  0  0  0  0  0  0  0  0  0  0
  148.0896  137.7817  152.3351 H   0  0  0  0  0  0  0  0  0  0  0  0
  145.5744  140.3966  152.9283 H   0  0  0  0  0  0  0  0  0  0  0  0
  146.1132  142.4885  154.1613 H   0  0  0  0  0  0  0  0  0  0  0  0
  148.3499  142.6893  155.2749 H   0  0  0  0  0  0  0  0  0  0  0  0
  149.2062  137.6394  155.8283 H   0  0  0  0  0  0  0  0  0  0  0  0
  148.2875  137.1245  154.4281 H   0  0  0  0  0  0  0  0  0  0  0  0
  150.0138  135.4177  155.0846 H   0  0  0  0  0  0  0  0  0  0  0  0
  150.2921  136.0095  153.4575 H   0  0  0  0  0  0  0  0  0  0  0  0
  153.0380  138.1291  154.4924 H   0  0  0  0  0  0  0  0  0  0  0  0
  152.0888  137.6253  153.1063 H   0  0  0  0  0  0  0  0  0  0  0  0
  151.3700  139.9021  153.8207 H   0  0  0  0  0  0  0  0  0  0  0  0
  151.1126  139.3354  155.4655 H   0  0  0  0  0  0  0  0  0  0  0  0
  147.2097  136.2323  151.5134 H   0  0  0  0  0  0  0  0  0  0  0  0
  144.3251  135.7557  152.0581 H   0  0  0  0  0  0  0  0  0  0  0  0
  146.1124  134.2697  153.1998 H   0  0  0  0  0  0  0  0  0  0  0  0
  144.7221  133.5365  152.4901 H   0  0  0  0  0  0  0  0  0  0  0  0
  147.2981  133.7494  150.8634 H   0  0  0  0  0  0  0  0  0  0  0  0
  147.0966  132.5236  152.0809 H   0  0  0  0  0  0  0  0  0  0  0  0
  146.4201  131.4815  150.0695 H   0  0  0  0  0  0  0  0  0  0  0  0
  144.9700  131.7403  150.9893 H   0  0  0  0  0  0  0  0  0  0  0  0
  145.9348  133.3120  148.5569 H   0  0  0  0  0  0  0  0  0  0  0  0
  144.5672  132.2458  148.6536 H   0  0  0  0  0  0  0  0  0  0  0  0
  143.6939  134.4461  148.6525 H   0  0  0  0  0  0  0  0  0  0  0  0
  143.4430  133.8697  150.2747 H   0  0  0  0  0  0  0  0  0  0  0  0
  144.4377  136.2889  149.8011 H   0  0  0  0  0  0  0  0  0  0  0  0
  145.9359  135.4659  149.5193 H   0  0  0  0  0  0  0  0  0  0  0  0
  1  2  2  0  0  0  0
  2  3  1  0  0  0  0
  2 16  1  0  0  0  0
  3  4  1  0  0  0  0
  3 24  1  0  0  0  0
  4  9  1  0  0  0  0
  4  5  2  0  0  0  0
  5  6  1  0  0  0  0
  5 25  1  0  0  0  0
  6  7  2  0  0  0  0
  6 26  1  0  0  0  0
  7  8  1  0  0  0  0
  7 27  1  0  0  0  0
  8  9  2  0  0  0  0
  9 10  1  0  0  0  0
 10 15  1  0  0  0  0
 10 11  1  0  0  0  0
 11 12  1  0  0  0  0
 11 28  1  0  0  0  0
 11 29  1  0  0  0  0
 12 13  1  0  0  0  0
 12 30  1  0  0  0  0
 12 31  1  0  0  0  0
 13 14  1  0  0  0  0
 14 15  1  0  0  0  0
 14 32  1  0  0  0  0
 14 33  1  0  0  0  0
 15 34  1  0  0  0  0
 15 35  1  0  0  0  0
 16 17  1  0  0  0  0
 16 36  1  0  0  0  0
 17 23  1  0  0  0  0
 17 18  1  0  0  0  0
 17 37  1  0  0  0  0
 18 19  1  0  0  0  0
 18 38  1  0  0  0  0
 18 39  1  0  0  0  0
 19 20  1  0  0  0  0
 19 40  1  0  0  0  0
 19 41  1  0  0  0  0
 20 21  1  0  0  0  0
 20 42  1  0  0  0  0
 20 43  1  0  0  0  0
 21 22  1  0  0  0  0
 21 44  1  0  0  0  0
 21 45  1  0  0  0  0
 22 23  1  0  0  0  0
 22 46  1  0  0  0  0
 22 47  1  0  0  0  0
 23 48  1  0  0  0  0
 23 49  1  0  0  0  0
M  END
> <s_m_source_file>
AV-unprocessed.smi

> <i_m_source_file_index>
642

> <i_lp_mmshare_version>
43012

> <i_f3d_flags>
0

> <s_epik_input>
W0NIMl0xW0NIMl1bQ0gyXVtDSDJdW0NIMl1bQ0gyXVtDSF0xW05IXUMoPU8pW05IXWMyW2NIXVtjSF1bY0hdbmMyTjNbQ0gyXVtDSDJdT1tDSDJdW0NIMl0z

> <s_epik_cmdline>
J2VwaWtfcHl0aG9uJywgJy1waCcsICc3LjAnLCAnLXRuJywgJzgnLCAnLW1hJywgJzIwMCcsICctbWV0YWxfYmluZGluZycsICctaW1hZScsICc8aW5maWxlLm1hZT4nLCAnLW9tYWUnLCAnPG91dGZpbGUubWFlPic=

> <r_lp_tautomer_probability>
1

> <r_epik_Ionization_Penalty>
0.00218327

> <r_epik_Ionization_Penalty_Charging>
0

> <r_epik_Ionization_Penalty_Neutral>
0.00218327

> <r_epik_State_Penalty>
0.00146969

> <r_epik_Charging_Adjusted_Penalty>
0.00146969

> <i_epik_Tot_Q>
0

> <i_epik_Tot_abs_Q>
0

> <r_epik_Metal_State_Penalty>
-0

> <b_epik_Metal_Only>
0

> <s_lp_Force_Field>
OPLS_2005

> <r_lp_Energy>
33.5624

> <b_lp_Chiralities_Consistent>
1

> <s_lp_Variant>
AV-unprocessed.smi:642-1

> <Gold.Version>
5.8.1

> <Gold.Id.Protein>
6NUR|6NUR_protein|mol2

> <Gold.PLP.Fitness>
47.7703

> <Gold.PLP.PLP>
-36.6129

> <Gold.PLP.part.hbond>
-3.0000

> <Gold.PLP.part.metal>
0.0000

> <Gold.PLP.part.buried>
-1.1851

> <Gold.PLP.part.nonpolar>
-33.9811

> <Gold.PLP.part.repulsive>
0.6745

> <Gold.PLP.ligand.clash>
0.0000

> <Gold.PLP.ligand.torsion>
0.5249

> <Gold.PLP.Chemscore.Hbond>
2.9920

> <Gold.PLP.Chemscore.CHOScore>
1.0000

> <Gold.PLP.Chemscore.Metal>
0.0000

> <Gold.Chemscore.Hbonds>
donor molecule, donor type, donor heavy atom, donor atom, acceptor molecule, acceptor atom, score
      L1  H     3    24       P1  7948  1.00
      L1  H    16    36       P1  7948  0.96
      P1  H 10752 10763       L1    13  1.00
      L1  C     7    27       P1  8028  1.00

> <Gold.PLP.Chemscore.Internal.Correction>
0.2313

> <Gold.Rescore>
     Score         DG    S(hbond)    S(metal)    S(lipo)     H(rot)  DE(clash)    DE(int)     intcor
     19.88     -22.33       2.52        0.00      97.92       1.18       0.52       1.94       ----

> <Gold.Chemscore.Fitness>
19.8829

> <Gold.Chemscore.DG>
-22.3346

> <Gold.Chemscore.ZeroCoef>
-5.4800

> <Gold.Chemscore.Hbond>
2.5199

> <Gold.Chemscore.Metal>
0.0000

> <Gold.Chemscore.Lipo>
97.9182

> <Gold.Chemscore.Internal_Hbond>
0.0000

> <Gold.Chemscore.DEClash>
0.5158

> <Gold.Chemscore.DEInternal>
1.9359

> <Gold.Chemscore.Rot>
1.1791

> <Gold.Chemscore.Internal.Correction>
   9.000000E+99

> <Gold.Chemscore.Hbonds>
donor molecule, donor type, donor heavy atom, donor atom, acceptor molecule, acceptor atom, score
      L1  H     3    24       P1  7948  0.94
      L1  H    16    36       P1  7948  0.92
      P1  H 10752 10763       L1    13  0.38

> <Gold.Chemscore.Hbond.Weighted>
-8.4166

> <Gold.Chemscore.Metal.Weighted>
-0.0000

> <Gold.Chemscore.Lipo.Weighted>
-11.4564

> <Gold.Chemscore.Internal_Hbond.Weighted>
0.0000

> <Gold.Chemscore.DEClash.Weighted>
0.5158

> <Gold.Chemscore.DEInternal.Weighted>
1.9359

> <Gold.Chemscore.Rot.Weighted>
3.0184

> <Gold.Chemscore.Internal.Correction.Weighted>
   9.000000E+99

> <Gold.Protein.RotatedTorsions>
[ 6907 6896 6895 6894 ] final   94.63 input  -60.11 | X-H torsion
[ 7974 7965 7964 7962 ] final  -78.72 input  175.53 | X-H torsion
[ 8008 7997 7996 7995 ] final  172.57 input   59.86 | X-H torsion
[ 10167 10162 10161 10158 ] final -134.56 input  -65.29 | X-H torsion
[ 10718 10713 10712 10709 ] final  -89.09 input   66.30 | X-H torsion
[ 10763 10752 10751 10750 ] final   69.85 input  -60.55 | X-H torsion
[ 11005 11000 10999 10996 ] final  -31.01 input  -57.11 | X-H torsion

> <Gold.Protein.ActiveResidues>
 VAL166  LYS551  ARG553  GLY616  TRP617  ASP618  TYR619  PRO620  LYS621  CYS622 
 ASP623  PHE694  ASN695  SER759  ASP760  ASP761  ALA762  ILE779  LEU786  VAL792 
 PHE793  MET794  SER795  GLU796  ALA797  LYS798  CYS799  TRP800  GLU811  SER814 

> <Gold.Protein.RotatedAtoms>
  152.5448  134.1164  159.8380 H   0  0  0  0  0  0  0  0  0  0  0  0  # atno 6907 bound_to 6896
  151.1225  133.5086  159.2609 H   0  0  0  0  0  0  0  0  0  0  0  0  # atno 6908 bound_to 6896
  151.1763  135.0350  159.8828 H   0  0  0  0  0  0  0  0  0  0  0  0  # atno 6909 bound_to 6896
  145.5827  140.9445  143.1335 H   0  0  0  0  0  0  0  0  0  0  0  0  # atno 7974 bound_to 7965
  156.1161  140.1482  156.9270 H   0  0  0  0  0  0  0  0  0  0  0  0  # atno 8008 bound_to 7997
  154.4802  140.0882  156.7401 H   0  0  0  0  0  0  0  0  0  0  0  0  # atno 8009 bound_to 7997
  155.4510  140.3435  155.4303 H   0  0  0  0  0  0  0  0  0  0  0  0  # atno 8010 bound_to 7997
  139.8868  143.6771  152.2618 H   0  0  0  0  0  0  0  0  0  0  0  0  # atno 10167 bound_to 10162
  155.9984  130.4859  150.5118 H   0  0  0  0  0  0  0  0  0  0  0  0  # atno 10718 bound_to 10713
  153.0309  135.5195  154.7351 H   0  0  0  0  0  0  0  0  0  0  0  0  # atno 10763 bound_to 10752
  154.6367  135.2907  155.0155 H   0  0  0  0  0  0  0  0  0  0  0  0  # atno 10764 bound_to 10752
  154.1087  135.6625  153.4933 H   0  0  0  0  0  0  0  0  0  0  0  0  # atno 10765 bound_to 10752
  140.9431  133.7266  156.1106 H   0  0  0  0  0  0  0  0  0  0  0  0  # atno 11005 bound_to 11000
  144.7386  139.7512  143.7319 LP  0  0  0  0  0  0  0  0  0  0  0  0  # atno 17320 bound_to 7965
  146.1704  139.4853  142.9931 LP  0  0  0  0  0  0  0  0  0  0  0  0  # atno 17321 bound_to 7965
  139.7145  144.7614  151.1056 LP  0  0  0  0  0  0  0  0  0  0  0  0  # atno 17342 bound_to 10162
  140.7734  143.5287  150.9449 LP  0  0  0  0  0  0  0  0  0  0  0  0  # atno 17343 bound_to 10162
  157.3090  131.0660  151.2014 LP  0  0  0  0  0  0  0  0  0  0  0  0  # atno 17370 bound_to 10713
  157.2967  130.6823  149.6142 LP  0  0  0  0  0  0  0  0  0  0  0  0  # atno 17371 bound_to 10713
  140.7706  134.3837  157.5508 LP  0  0  0  0  0  0  0  0  0  0  0  0  # atno 17394 bound_to 11000
  139.8826  134.9019  156.2822 LP  0  0  0  0  0  0  0  0  0  0  0  0  # atno 17395 bound_to 11000

$$$$
