AV-unprocessed.smi:210|AV-procd|sdf|1612|dock1
  -GOLD-   2262019533D 1   1.00000     0.00000
 Structure written by MMmdl.
 57 61  0  0  0  0  0  0  0  0  1 V2000
  151.1262  142.0335  156.6687 C   0  0  0  0  0  0  0  0  0  0  0  0
  151.3389  140.7025  156.2321 O   0  0  0  0  0  0  0  0  0  0  0  0
  150.3728  139.7967  156.7414 C   0  0  1  0  0  0  0  0  0  0  0  0
  148.9436  140.3111  156.5514 C   0  0  0  0  0  0  0  0  0  0  0  0
  148.5399  138.8484  156.3012 C   0  0  1  0  0  0  0  0  0  0  0  0
  147.4985  138.6747  155.2836 N   0  0  0  0  0  0  0  0  0  0  0  0
  147.5352  139.5832  154.1433 C   0  0  0  0  0  0  0  0  0  0  0  0
  147.2427  137.4062  154.8795 C   0  0  0  0  0  0  0  0  0  0  0  0
  147.9941  136.3734  155.3476 N   0  0  0  0  0  0  0  0  0  0  0  0
  147.7540  135.1265  154.9311 C   0  0  0  0  0  0  0  0  0  0  0  0
  146.8321  134.6979  154.0663 N   0  0  0  0  0  0  0  0  0  0  0  0
  146.0768  135.7312  153.5941 C   0  0  0  0  0  0  0  0  0  0  0  0
  146.2193  137.1040  153.9405 C   0  0  0  0  0  0  0  0  0  0  0  0
  145.2858  137.8682  153.2511 N   0  0  0  0  0  0  0  0  0  0  0  0
  144.6338  136.9965  152.5306 C   0  0  0  0  0  0  0  0  0  0  0  0
  145.0254  135.6864  152.6952 N   0  0  0  0  0  0  0  0  0  0  0  0
  144.5121  134.5403  152.0034 C   0  0  0  0  0  0  0  0  0  0  0  0
  145.1753  133.1646  152.1337 C   0  0  0  0  0  0  0  0  0  0  0  0
  144.7685  132.8463  150.6760 C   0  0  0  0  0  0  0  0  0  0  0  0
  145.7964  132.0753  149.8242 C   0  0  0  0  0  0  0  0  0  0  0  0
  147.0949  132.6279  149.9062 O   0  0  0  0  0  0  0  0  0  0  0  0
  143.4232  132.1064  150.5455 C   0  0  0  0  0  0  0  0  0  0  0  0
  142.9425  132.1323  149.2167 O   0  0  0  0  0  0  0  0  0  0  0  0
  144.7019  134.3804  150.4921 C   0  0  0  0  0  0  0  0  0  0  0  0
  149.9908  138.6231  155.8108 C   0  0  0  0  0  0  0  0  0  0  0  0
  150.6834  137.2614  155.9458 C   0  0  0  0  0  0  0  0  0  0  0  0
  151.3344  137.4750  154.5746 C   0  0  0  0  0  0  0  0  0  0  0  0
  150.3798  138.6452  154.3175 C   0  0  0  0  0  0  0  0  0  0  0  0
  151.9142  142.6771  156.2784 H   0  0  0  0  0  0  0  0  0  0  0  0
  151.1393  142.1072  157.7556 H   0  0  0  0  0  0  0  0  0  0  0  0
  150.1708  142.4154  156.3071 H   0  0  0  0  0  0  0  0  0  0  0  0
  150.5498  139.4914  157.7755 H   0  0  0  0  0  0  0  0  0  0  0  0
  148.5007  140.7636  157.4388 H   0  0  0  0  0  0  0  0  0  0  0  0
  148.8342  140.9510  155.6733 H   0  0  0  0  0  0  0  0  0  0  0  0
  148.3411  138.3162  157.2335 H   0  0  0  0  0  0  0  0  0  0  0  0
  146.6269  139.5083  153.5445 H   0  0  0  0  0  0  0  0  0  0  0  0
  148.3874  139.3562  153.5016 H   0  0  0  0  0  0  0  0  0  0  0  0
  147.6255  140.6187  154.4674 H   0  0  0  0  0  0  0  0  0  0  0  0
  148.3926  134.3628  155.3500 H   0  0  0  0  0  0  0  0  0  0  0  0
  143.8400  137.2893  151.8587 H   0  0  0  0  0  0  0  0  0  0  0  0
  143.4540  134.4846  152.2643 H   0  0  0  0  0  0  0  0  0  0  0  0
  146.2537  133.2377  152.2832 H   0  0  0  0  0  0  0  0  0  0  0  0
  144.7244  132.5174  152.8869 H   0  0  0  0  0  0  0  0  0  0  0  0
  145.8568  131.0328  150.1388 H   0  0  0  0  0  0  0  0  0  0  0  0
  145.5095  132.0701  148.7723 H   0  0  0  0  0  0  0  0  0  0  0  0
  147.7148  131.9229  150.0157 H   0  0  0  0  0  0  0  0  0  0  0  0
  143.5146  131.0677  150.8649 H   0  0  0  0  0  0  0  0  0  0  0  0
  142.6602  132.5539  151.1830 H   0  0  0  0  0  0  0  0  0  0  0  0
  142.4111  132.9057  149.1038 H   0  0  0  0  0  0  0  0  0  0  0  0
  143.8629  134.7393  149.8953 H   0  0  0  0  0  0  0  0  0  0  0  0
  145.6383  134.8208  150.1450 H   0  0  0  0  0  0  0  0  0  0  0  0
  151.3929  137.1984  156.7715 H   0  0  0  0  0  0  0  0  0  0  0  0
  149.9838  136.4252  155.9565 H   0  0  0  0  0  0  0  0  0  0  0  0
  152.3776  137.7847  154.6405 H   0  0  0  0  0  0  0  0  0  0  0  0
  151.2088  136.6383  153.8867 H   0  0  0  0  0  0  0  0  0  0  0  0
  149.5732  138.3728  153.6376 H   0  0  0  0  0  0  0  0  0  0  0  0
  150.8767  139.5564  153.9847 H   0  0  0  0  0  0  0  0  0  0  0  0
  1  2  1  0  0  0  0
  1 29  1  0  0  0  0
  1 30  1  0  0  0  0
  1 31  1  0  0  0  0
  2  3  1  0  0  0  0
  3 25  1  0  0  0  0
  3  4  1  0  0  0  0
  3 32  1  0  0  0  0
  4  5  1  0  0  0  0
  4 33  1  0  0  0  0
  4 34  1  0  0  0  0
  5  6  1  0  0  0  0
  5 25  1  0  0  0  0
  5 35  1  0  0  0  0
  6  7  1  0  0  0  0
  6  8  1  0  0  0  0
  7 36  1  0  0  0  0
  7 37  1  0  0  0  0
  7 38  1  0  0  0  0
  8 13  1  0  0  0  0
  8  9  2  0  0  0  0
  9 10  1  0  0  0  0
 10 11  2  0  0  0  0
 10 39  1  0  0  0  0
 11 12  1  0  0  0  0
 12 16  1  0  0  0  0
 12 13  2  0  0  0  0
 13 14  1  0  0  0  0
 14 15  2  0  0  0  0
 15 16  1  0  0  0  0
 15 40  1  0  0  0  0
 16 17  1  0  0  0  0
 17 24  1  0  0  0  0
 17 18  1  0  0  0  0
 17 41  1  0  0  0  0
 18 19  1  0  0  0  0
 18 42  1  0  0  0  0
 18 43  1  0  0  0  0
 19 20  1  0  0  0  0
 19 22  1  0  0  0  0
 19 24  1  0  0  0  0
 20 21  1  0  0  0  0
 20 44  1  0  0  0  0
 20 45  1  0  0  0  0
 21 46  1  0  0  0  0
 22 23  1  0  0  0  0
 22 47  1  0  0  0  0
 22 48  1  0  0  0  0
 23 49  1  0  0  0  0
 24 50  1  0  0  0  0
 24 51  1  0  0  0  0
 25 28  1  0  0  0  0
 25 26  1  0  0  0  0
 26 27  1  0  0  0  0
 26 52  1  0  0  0  0
 26 53  1  0  0  0  0
 27 28  1  0  0  0  0
 27 54  1  0  0  0  0
 27 55  1  0  0  0  0
 28 56  1  0  0  0  0
 28 57  1  0  0  0  0
M  END
> <s_m_source_file>
AV-unprocessed.smi

> <i_m_source_file_index>
210

> <i_lp_mmshare_version>
43012

> <i_f3d_flags>
0

> <s_epik_input>
W0NIMl0xW0NIMl1bQ0gyXUMxMltDQEhdKE9bQ0gzXSlbQ0gyXVtDQEhdMk4oW0NIM10pYyhuW2NIXW4zKWMoYzM0KW5bY0hdbjRbQ0hdKFtDSDJdNSlbQ0gyXUM1KFtDSDJdW09IXSlbQ0gyXVtPSF0=

> <s_epik_cmdline>
J2VwaWtfcHl0aG9uJywgJy1waCcsICc3LjAnLCAnLXRuJywgJzgnLCAnLW1hJywgJzIwMCcsICctbWV0YWxfYmluZGluZycsICctaW1hZScsICc8aW5maWxlLm1hZT4nLCAnLW9tYWUnLCAnPG91dGZpbGUubWFlPic=

> <r_lp_tautomer_probability>
1

> <r_epik_Ionization_Penalty>
0.00313676

> <r_epik_Ionization_Penalty_Charging>
0

> <r_epik_Ionization_Penalty_Neutral>
0.00313676

> <r_epik_State_Penalty>
0.00199132

> <r_epik_Charging_Adjusted_Penalty>
0.00199132

> <i_epik_Tot_Q>
0

> <i_epik_Tot_abs_Q>
0

> <r_epik_Metal_State_Penalty>
-0

> <b_epik_Metal_Only>
0

> <s_lp_Force_Field>
OPLS_2005

> <r_lp_Energy>
61.2051

> <b_lp_Chiralities_Consistent>
1

> <s_lp_Variant>
AV-unprocessed.smi:210-2

> <Gold.Version>
5.8.1

> <Gold.Id.Protein>
6NUR|6NUR_protein|mol2

> <Gold.PLP.Fitness>
48.2447

> <Gold.PLP.PLP>
-37.2532

> <Gold.PLP.part.hbond>
-5.5449

> <Gold.PLP.part.metal>
0.0000

> <Gold.PLP.part.buried>
-5.9114

> <Gold.PLP.part.nonpolar>
-26.9376

> <Gold.PLP.part.repulsive>
0.6488

> <Gold.PLP.ligand.clash>
0.0000

> <Gold.PLP.ligand.torsion>
0.8485

> <Gold.PLP.Chemscore.Hbond>
2.8363

> <Gold.PLP.Chemscore.CHOScore>
0.9729

> <Gold.PLP.Chemscore.Metal>
0.0000

> <Gold.Chemscore.Hbonds>
donor molecule, donor type, donor heavy atom, donor atom, acceptor molecule, acceptor atom, score
      L1  H    21    46       P1 10747  1.00
      L1  H    23    49       P1 10186  0.81
      P1  H 10785 10796       L1    23  0.88
      L1  C    15    40       P1 10171  1.00

> <Gold.PLP.Chemscore.Internal.Correction>
1.2609

> <Gold.Rescore>
     Score         DG    S(hbond)    S(metal)    S(lipo)     H(rot)  DE(clash)    DE(int)     intcor
     12.35     -15.71       2.55        0.00      92.72       3.57       0.09       3.27       ----

> <Gold.Chemscore.Fitness>
12.3521

> <Gold.Chemscore.DG>
-15.7104

> <Gold.Chemscore.ZeroCoef>
-5.4800

> <Gold.Chemscore.Hbond>
2.5523

> <Gold.Chemscore.Metal>
0.0000

> <Gold.Chemscore.Lipo>
92.7195

> <Gold.Chemscore.Internal_Hbond>
0.0000

> <Gold.Chemscore.DEClash>
0.0926

> <Gold.Chemscore.DEInternal>
3.2656

> <Gold.Chemscore.Rot>
3.5712

> <Gold.Chemscore.Internal.Correction>
   9.000000E+99

> <Gold.Chemscore.Hbonds>
donor molecule, donor type, donor heavy atom, donor atom, acceptor molecule, acceptor atom, score
      L1  H    21    46       P1 10747  1.00
      L1  H    23    49       P1 10186  0.80
      P1  H 10785 10796       L1    23  0.19

> <Gold.Chemscore.Hbond.Weighted>
-8.5245

> <Gold.Chemscore.Metal.Weighted>
-0.0000

> <Gold.Chemscore.Lipo.Weighted>
-10.8482

> <Gold.Chemscore.Internal_Hbond.Weighted>
0.0000

> <Gold.Chemscore.DEClash.Weighted>
0.0926

> <Gold.Chemscore.DEInternal.Weighted>
3.2656

> <Gold.Chemscore.Rot.Weighted>
9.1423

> <Gold.Chemscore.Internal.Correction.Weighted>
   9.000000E+99

> <Gold.Protein.RotatedTorsions>
[ 6907 6896 6895 6894 ] final   40.93 input  -60.11 | X-H torsion
[ 7974 7965 7964 7962 ] final -144.42 input  175.53 | X-H torsion
[ 8008 7997 7996 7995 ] final   79.41 input   59.86 | X-H torsion
[ 10167 10162 10161 10158 ] final  -21.91 input  -65.29 | X-H torsion
[ 10718 10713 10712 10709 ] final   39.24 input   66.30 | X-H torsion
[ 10763 10752 10751 10750 ] final   16.83 input  -60.55 | X-H torsion
[ 11005 11000 10999 10996 ] final  169.92 input  -57.11 | X-H torsion

> <Gold.Protein.ActiveResidues>
 VAL166  LYS551  ARG553  GLY616  TRP617  ASP618  TYR619  PRO620  LYS621  CYS622 
 ASP623  PHE694  ASN695  SER759  ASP760  ASP761  ALA762  ILE779  LEU786  VAL792 
 PHE793  MET794  SER795  GLU796  ALA797  LYS798  CYS799  TRP800  GLU811  SER814 

> <Gold.Protein.RotatedAtoms>
  152.1888  134.8690  160.0519 H   0  0  0  0  0  0  0  0  0  0  0  0  # atno 6907 bound_to 6896
  151.9587  133.3683  159.4035 H   0  0  0  0  0  0  0  0  0  0  0  0  # atno 6908 bound_to 6896
  150.6931  134.4187  159.5239 H   0  0  0  0  0  0  0  0  0  0  0  0  # atno 6909 bound_to 6896
  144.8299  140.5712  143.5522 H   0  0  0  0  0  0  0  0  0  0  0  0  # atno 7974 bound_to 7965
  155.8693  140.3450  155.5810 H   0  0  0  0  0  0  0  0  0  0  0  0  # atno 8008 bound_to 7997
  155.7845  140.0863  157.2061 H   0  0  0  0  0  0  0  0  0  0  0  0  # atno 8009 bound_to 7997
  154.4016  140.1494  156.3078 H   0  0  0  0  0  0  0  0  0  0  0  0  # atno 8010 bound_to 7997
  140.7284  143.4584  151.0415 H   0  0  0  0  0  0  0  0  0  0  0  0  # atno 10167 bound_to 10162
  157.3683  130.7687  149.7099 H   0  0  0  0  0  0  0  0  0  0  0  0  # atno 10718 bound_to 10713
  153.1394  135.6757  153.9051 H   0  0  0  0  0  0  0  0  0  0  0  0  # atno 10763 bound_to 10752
  153.8512  135.3093  155.3434 H   0  0  0  0  0  0  0  0  0  0  0  0  # atno 10764 bound_to 10752
  154.7775  135.4906  153.9858 H   0  0  0  0  0  0  0  0  0  0  0  0  # atno 10765 bound_to 10752
  140.3028  134.7581  157.3930 H   0  0  0  0  0  0  0  0  0  0  0  0  # atno 11005 bound_to 11000
  145.4919  139.1488  143.3705 LP  0  0  0  0  0  0  0  0  0  0  0  0  # atno 17320 bound_to 7965
  146.2602  140.5057  142.8856 LP  0  0  0  0  0  0  0  0  0  0  0  0  # atno 17321 bound_to 7965
  139.8266  143.7747  152.3179 LP  0  0  0  0  0  0  0  0  0  0  0  0  # atno 17342 bound_to 10162
  139.7849  144.7431  151.0037 LP  0  0  0  0  0  0  0  0  0  0  0  0  # atno 17343 bound_to 10162
  155.9750  130.4094  150.3879 LP  0  0  0  0  0  0  0  0  0  0  0  0  # atno 17370 bound_to 10713
  157.1966  131.0428  151.2672 LP  0  0  0  0  0  0  0  0  0  0  0  0  # atno 17371 bound_to 10713
  140.1094  134.5366  155.8280 LP  0  0  0  0  0  0  0  0  0  0  0  0  # atno 17394 bound_to 11000
  141.2124  133.6719  156.6660 LP  0  0  0  0  0  0  0  0  0  0  0  0  # atno 17395 bound_to 11000

$$$$
