AV-unprocessed.smi:1469|AV-procd|sdf|5958|dock7
  -GOLD-   22720 6 43D 1   1.00000     0.00000
 Structure written by MMmdl.
 41 42  0  0  0  0  0  0  0  0  2 V2000
  149.2810  132.1293  154.6178 C   0  0  0  0  0  0  0  0  0  0  0  0
  149.3023  133.5358  153.9761 C   0  0  2  0  0  0  0  0  0  0  0  0
  149.6937  134.6222  155.0117 C   0  0  0  0  0  0  0  0  0  0  0  0
  150.2022  135.8436  154.3921 N   0  0  0  0  0  0  0  0  0  0  0  0
  151.1487  136.6454  154.9046 C   0  0  0  0  0  0  0  0  0  0  0  0
  151.7279  136.4105  155.9661 O   0  0  0  0  0  0  0  0  0  0  0  0
  151.4960  137.8858  154.0681 C   0  0  0  0  0  0  0  0  0  0  0  0
  151.2367  139.1599  154.7599 N   0  0  0  0  0  0  0  0  0  0  0  0
  150.1220  139.9072  154.3297 C   0  0  0  0  0  0  0  0  0  0  0  0
  149.7923  141.0796  154.8945 C   0  0  0  0  0  0  0  0  0  0  0  0
  150.6158  141.5735  155.9729 C   0  0  0  0  0  0  0  0  0  0  0  0
  151.6867  140.8687  156.3895 C   0  0  0  0  0  0  0  0  0  0  0  0
  152.0518  139.5876  155.7736 C   0  0  0  0  0  0  0  0  0  0  0  0
  153.0301  138.9386  156.1452 O   0  0  0  0  0  0  0  0  0  0  0  0
  147.9869  133.8617  153.3500 N   0  3  0  0  0  0  0  0  0  0  0  0
  147.5579  132.9446  152.2624 C   0  0  0  0  0  0  0  0  0  0  0  0
  146.0407  132.7534  152.3956 C   0  0  0  0  0  0  0  0  0  0  0  0
  145.6029  133.8064  153.4061 C   0  0  0  0  0  0  0  0  0  0  0  0
  146.8406  133.9781  154.2787 C   0  0  0  0  0  0  0  0  0  0  0  0
  150.2460  131.8696  155.0517 H   0  0  0  0  0  0  0  0  0  0  0  0
  149.0625  131.3469  153.8916 H   0  0  0  0  0  0  0  0  0  0  0  0
  148.5352  132.0686  155.4112 H   0  0  0  0  0  0  0  0  0  0  0  0
  150.0529  133.5279  153.1837 H   0  0  0  0  0  0  0  0  0  0  0  0
  148.8291  134.9233  155.6021 H   0  0  0  0  0  0  0  0  0  0  0  0
  150.4138  134.2180  155.7256 H   0  0  0  0  0  0  0  0  0  0  0  0
  149.7876  136.1121  153.5111 H   0  0  0  0  0  0  0  0  0  0  0  0
  152.5455  137.8176  153.7774 H   0  0  0  0  0  0  0  0  0  0  0  0
  150.9384  137.8500  153.1302 H   0  0  0  0  0  0  0  0  0  0  0  0
  149.5612  139.4715  153.5155 H   0  0  0  0  0  0  0  0  0  0  0  0
  148.9356  141.6398  154.5499 H   0  0  0  0  0  0  0  0  0  0  0  0
  150.3726  142.5131  156.4469 H   0  0  0  0  0  0  0  0  0  0  0  0
  152.2920  141.2545  157.1967 H   0  0  0  0  0  0  0  0  0  0  0  0
  147.8188  133.3852  151.2995 H   0  0  0  0  0  0  0  0  0  0  0  0
  148.0539  131.9752  152.3298 H   0  0  0  0  0  0  0  0  0  0  0  0
  145.5195  132.8489  151.4425 H   0  0  0  0  0  0  0  0  0  0  0  0
  145.8301  131.7583  152.7897 H   0  0  0  0  0  0  0  0  0  0  0  0
  145.3773  134.7423  152.8931 H   0  0  0  0  0  0  0  0  0  0  0  0
  144.7201  133.5106  153.9738 H   0  0  0  0  0  0  0  0  0  0  0  0
  146.8821  133.1776  155.0196 H   0  0  0  0  0  0  0  0  0  0  0  0
  146.8355  134.9332  154.8053 H   0  0  0  0  0  0  0  0  0  0  0  0
  148.0829  134.7721  152.9229 H   0  0  0  0  0  0  0  0  0  0  0  0
  1  2  1  0  0  0  0
  1 20  1  0  0  0  0
  1 21  1  0  0  0  0
  1 22  1  0  0  0  0
  2  3  1  0  0  0  0
  2 15  1  0  0  0  0
  2 23  1  0  0  0  0
  3  4  1  0  0  0  0
  3 24  1  0  0  0  0
  3 25  1  0  0  0  0
  4  5  1  0  0  0  0
  4 26  1  0  0  0  0
  5  6  2  0  0  0  0
  5  7  1  0  0  0  0
  7  8  1  0  0  0  0
  7 27  1  0  0  0  0
  7 28  1  0  0  0  0
  8 13  1  0  0  0  0
  8  9  1  0  0  0  0
  9 10  2  0  0  0  0
  9 29  1  0  0  0  0
 10 11  1  0  0  0  0
 10 30  1  0  0  0  0
 11 12  2  0  0  0  0
 11 31  1  0  0  0  0
 12 13  1  0  0  0  0
 12 32  1  0  0  0  0
 13 14  2  0  0  0  0
 15 19  1  0  0  0  0
 15 16  1  0  0  0  0
 15 41  1  0  0  0  0
 16 17  1  0  0  0  0
 16 33  1  0  0  0  0
 16 34  1  0  0  0  0
 17 18  1  0  0  0  0
 17 35  1  0  0  0  0
 17 36  1  0  0  0  0
 18 19  1  0  0  0  0
 18 37  1  0  0  0  0
 18 38  1  0  0  0  0
 19 39  1  0  0  0  0
 19 40  1  0  0  0  0
M  CHG  1  15   1
M  END
> <s_m_source_file>
AV-unprocessed.smi

> <i_m_source_file_index>
1469

> <i_lp_mmshare_version>
43012

> <i_f3d_flags>
0

> <s_epik_input>
W0NIMl0xW0NIMl1bQ0gyXVtDSDJdTjFbQ0BIXShbQ0gzXSlbQ0gyXVtOSF1DKD1PKVtDSDJdbjJbY0hdW2NIXVtjSF1bY0hdYzI9Tw==

> <s_epik_cmdline>
J2VwaWtfcHl0aG9uJywgJy1waCcsICc3LjAnLCAnLXRuJywgJzgnLCAnLW1hJywgJzIwMCcsICctbWV0YWxfYmluZGluZycsICctaW1hZScsICc8aW5maWxlLm1hZT4nLCAnLW9tYWUnLCAnPG91dGZpbGUubWFlPic=

> <r_lp_tautomer_probability>
1

> <r_epik_Ionization_Penalty>
0.00497231

> <r_epik_Ionization_Penalty_Charging>
0.00497223

> <r_epik_Ionization_Penalty_Neutral>
8.2288e-08

> <r_epik_State_Penalty>
0.0036131

> <r_epik_Charging_Adjusted_Penalty>
0.00858533

> <i_epik_Tot_Q>
1

> <i_epik_Tot_abs_Q>
1

> <r_epik_Metal_State_Penalty>
-0

> <b_epik_Metal_Only>
0

> <s_lp_Force_Field>
OPLS_2005

> <r_lp_Energy>
39.8185

> <b_lp_Chiralities_Consistent>
1

> <s_lp_Variant>
AV-unprocessed.smi:1469-1

> <Gold.Version>
5.8.1

> <Gold.Id.Protein>
6NUR|6NUR_protein|mol2

> <Gold.PLP.Fitness>
52.1149

> <Gold.PLP.PLP>
-38.2872

> <Gold.PLP.part.hbond>
-4.8927

> <Gold.PLP.part.metal>
0.0000

> <Gold.PLP.part.buried>
-0.5503

> <Gold.PLP.part.nonpolar>
-32.4163

> <Gold.PLP.part.repulsive>
0.0913

> <Gold.PLP.ligand.clash>
0.0000

> <Gold.PLP.ligand.torsion>
0.5273

> <Gold.PLP.Chemscore.Hbond>
4.0000

> <Gold.PLP.Chemscore.CHOScore>
0.9492

> <Gold.PLP.Chemscore.Metal>
0.0000

> <Gold.Chemscore.Hbonds>
donor molecule, donor type, donor heavy atom, donor atom, acceptor molecule, acceptor atom, score
      L1  H     4    26       P1  7948  0.85
      L1  H    15    41       P1  7948  2.00
      P1  H  7997  8009       L1    14  1.00
      L1  C     9    29       P1  7957  0.98

> <Gold.PLP.Chemscore.Internal.Correction>
0.0346

> <Gold.Rescore>
     Score         DG    S(hbond)    S(metal)    S(lipo)     H(rot)  DE(clash)    DE(int)     intcor
     16.49     -17.35       2.63        0.00      67.82       1.89       0.02       0.84       ----

> <Gold.Chemscore.Fitness>
16.4907

> <Gold.Chemscore.DG>
-17.3535

> <Gold.Chemscore.ZeroCoef>
-5.4800

> <Gold.Chemscore.Hbond>
2.6263

> <Gold.Chemscore.Metal>
0.0000

> <Gold.Chemscore.Lipo>
67.8243

> <Gold.Chemscore.Internal_Hbond>
0.0000

> <Gold.Chemscore.DEClash>
0.0243

> <Gold.Chemscore.DEInternal>
0.8385

> <Gold.Chemscore.Rot>
1.8882

> <Gold.Chemscore.Internal.Correction>
   9.000000E+99

> <Gold.Chemscore.Hbonds>
donor molecule, donor type, donor heavy atom, donor atom, acceptor molecule, acceptor atom, score
      L1  H     4    26       P1  7948  0.15
      L1  H    15    41       P1  7948  0.79
      P1  H  7997  8009       L1    14  0.65

> <Gold.Chemscore.Hbond.Weighted>
-8.7719

> <Gold.Chemscore.Metal.Weighted>
-0.0000

> <Gold.Chemscore.Lipo.Weighted>
-7.9354

> <Gold.Chemscore.Internal_Hbond.Weighted>
0.0000

> <Gold.Chemscore.DEClash.Weighted>
0.0243

> <Gold.Chemscore.DEInternal.Weighted>
0.8385

> <Gold.Chemscore.Rot.Weighted>
4.8338

> <Gold.Chemscore.Internal.Correction.Weighted>
   9.000000E+99

> <Gold.Protein.RotatedTorsions>
[ 6907 6896 6895 6894 ] final -146.99 input  -60.11 | X-H torsion
[ 7974 7965 7964 7962 ] final   38.40 input  175.53 | X-H torsion
[ 8008 7997 7996 7995 ] final -171.15 input   59.86 | X-H torsion
[ 10167 10162 10161 10158 ] final  -30.26 input  -65.29 | X-H torsion
[ 10718 10713 10712 10709 ] final -143.75 input   66.30 | X-H torsion
[ 10763 10752 10751 10750 ] final  158.98 input  -60.55 | X-H torsion
[ 11005 11000 10999 10996 ] final   85.28 input  -57.11 | X-H torsion

> <Gold.Protein.ActiveResidues>
 VAL166  LYS551  ARG553  GLY616  TRP617  ASP618  TYR619  PRO620  LYS621  CYS622 
 ASP623  PHE694  ASN695  SER759  ASP760  ASP761  ALA762  ILE779  LEU786  VAL792 
 PHE793  MET794  SER795  GLU796  ALA797  LYS798  CYS799  TRP800  GLU811  SER814 

> <Gold.Protein.RotatedAtoms>
  151.1494  133.4917  159.2595 H   0  0  0  0  0  0  0  0  0  0  0  0  # atno 6907 bound_to 6896
  151.1570  135.0255  159.8703 H   0  0  0  0  0  0  0  0  0  0  0  0  # atno 6908 bound_to 6896
  152.5463  134.1372  159.8517 H   0  0  0  0  0  0  0  0  0  0  0  0  # atno 6909 bound_to 6896
  146.1064  139.5776  142.9380 H   0  0  0  0  0  0  0  0  0  0  0  0  # atno 7974 bound_to 7965
  155.9278  140.1086  157.1156 H   0  0  0  0  0  0  0  0  0  0  0  0  # atno 8008 bound_to 7997
  154.4065  140.1243  156.4829 H   0  0  0  0  0  0  0  0  0  0  0  0  # atno 8009 bound_to 7997
  155.7117  140.3471  155.4979 H   0  0  0  0  0  0  0  0  0  0  0  0  # atno 8010 bound_to 7997
  140.7251  143.3862  151.1510 H   0  0  0  0  0  0  0  0  0  0  0  0  # atno 10167 bound_to 10162
  156.3617  130.7742  151.1910 H   0  0  0  0  0  0  0  0  0  0  0  0  # atno 10718 bound_to 10713
  154.2246  135.2780  155.2912 H   0  0  0  0  0  0  0  0  0  0  0  0  # atno 10763 bound_to 10752
  154.5673  135.5629  153.7066 H   0  0  0  0  0  0  0  0  0  0  0  0  # atno 10764 bound_to 10752
  153.0034  135.6312  154.2387 H   0  0  0  0  0  0  0  0  0  0  0  0  # atno 10765 bound_to 10752
  139.8976  134.8275  156.2560 H   0  0  0  0  0  0  0  0  0  0  0  0  # atno 11005 bound_to 11000
  145.5751  141.0389  143.2153 LP  0  0  0  0  0  0  0  0  0  0  0  0  # atno 17320 bound_to 7965
  144.7475  139.7282  143.7286 LP  0  0  0  0  0  0  0  0  0  0  0  0  # atno 17321 bound_to 7965
  139.7460  143.8851  152.3063 LP  0  0  0  0  0  0  0  0  0  0  0  0  # atno 17342 bound_to 10162
  139.8689  144.7079  150.9011 LP  0  0  0  0  0  0  0  0  0  0  0  0  # atno 17343 bound_to 10162
  157.7474  131.0398  150.4567 LP  0  0  0  0  0  0  0  0  0  0  0  0  # atno 17370 bound_to 10713
  156.4779  130.4067  149.6479 LP  0  0  0  0  0  0  0  0  0  0  0  0  # atno 17371 bound_to 10713
  141.0193  133.7050  156.1241 LP  0  0  0  0  0  0  0  0  0  0  0  0  # atno 17394 bound_to 11000
  140.7257  134.4310  157.5571 LP  0  0  0  0  0  0  0  0  0  0  0  0  # atno 17395 bound_to 11000

$$$$
