AV-unprocessed.smi:3273|AV-procd|sdf|12520|dock2
  -GOLD-   2272018433D 1   1.00000     0.00000
 Structure written by MMmdl.
 41 42  0  0  0  0  0  0  0  0  1 V2000
  145.4213  137.5032  152.7251 C   0  0  0  0  0  0  0  0  0  0  0  0
  146.4170  138.6543  152.9601 C   0  0  0  0  0  0  0  0  0  0  0  0
  146.6039  139.4376  151.6448 C   0  0  0  0  0  0  0  0  0  0  0  0
  147.7672  138.1672  153.5584 C   0  0  2  0  0  0  0  0  0  0  0  0
  147.5762  137.1242  154.6837 C   0  0  0  0  0  0  0  0  0  0  0  0
  148.3130  135.8951  154.4086 N   0  0  0  0  0  0  0  0  0  0  0  0
  148.5405  134.9227  155.3024 C   0  0  0  0  0  0  0  0  0  0  0  0
  148.1359  134.9671  156.4648 O   0  0  0  0  0  0  0  0  0  0  0  0
  149.3547  133.7264  154.8015 C   0  0  0  0  0  0  0  0  0  0  0  0
  148.8389  133.1559  153.4906 C   0  0  0  0  0  0  0  0  0  0  0  0
  147.3683  132.8649  153.2940 C   0  0  0  0  0  0  0  0  0  0  0  0
  148.3515  131.7263  153.4053 C   0  0  0  0  0  0  0  0  0  0  0  0
  148.6409  139.3059  154.0191 C   0  0  0  0  0  0  0  0  0  0  0  0
  148.3442  140.6340  154.1593 C   0  0  0  0  0  0  0  0  0  0  0  0
  149.5489  141.2122  154.6438 C   0  0  0  0  0  0  0  0  0  0  0  0
  150.5118  140.3208  154.7977 N   0  0  0  0  0  0  0  0  0  0  0  0
  149.9582  139.1496  154.4181 N   0  0  0  0  0  0  0  0  0  0  0  0
  150.7606  137.9425  154.4729 C   0  0  0  0  0  0  0  0  0  0  0  0
  145.8441  136.7394  152.0719 H   0  0  0  0  0  0  0  0  0  0  0  0
  144.5062  137.8671  152.2572 H   0  0  0  0  0  0  0  0  0  0  0  0
  145.1243  137.0232  153.6568 H   0  0  0  0  0  0  0  0  0  0  0  0
  145.9618  139.3422  153.6738 H   0  0  0  0  0  0  0  0  0  0  0  0
  147.1155  138.8328  150.8954 H   0  0  0  0  0  0  0  0  0  0  0  0
  147.1819  140.3506  151.7875 H   0  0  0  0  0  0  0  0  0  0  0  0
  145.6429  139.7382  151.2264 H   0  0  0  0  0  0  0  0  0  0  0  0
  148.2844  137.6500  152.7501 H   0  0  0  0  0  0  0  0  0  0  0  0
  147.9180  137.5453  155.6311 H   0  0  0  0  0  0  0  0  0  0  0  0
  146.5252  136.8650  154.8084 H   0  0  0  0  0  0  0  0  0  0  0  0
  148.6841  135.7817  153.4763 H   0  0  0  0  0  0  0  0  0  0  0  0
  150.3951  134.0298  154.6739 H   0  0  0  0  0  0  0  0  0  0  0  0
  149.3428  132.9424  155.5592 H   0  0  0  0  0  0  0  0  0  0  0  0
  149.3710  133.5246  152.6152 H   0  0  0  0  0  0  0  0  0  0  0  0
  146.6982  133.0317  154.1350 H   0  0  0  0  0  0  0  0  0  0  0  0
  146.9434  133.0680  152.3131 H   0  0  0  0  0  0  0  0  0  0  0  0
  148.5860  131.1711  152.4994 H   0  0  0  0  0  0  0  0  0  0  0  0
  148.3369  131.1391  154.3216 H   0  0  0  0  0  0  0  0  0  0  0  0
  147.4030  141.1190  153.9472 H   0  0  0  0  0  0  0  0  0  0  0  0
  149.7493  142.2447  154.8890 H   0  0  0  0  0  0  0  0  0  0  0  0
  150.2881  137.2181  155.1366 H   0  0  0  0  0  0  0  0  0  0  0  0
  151.7619  138.1607  154.8467 H   0  0  0  0  0  0  0  0  0  0  0  0
  150.8444  137.5131  153.4744 H   0  0  0  0  0  0  0  0  0  0  0  0
  1  2  1  0  0  0  0
  1 19  1  0  0  0  0
  1 20  1  0  0  0  0
  1 21  1  0  0  0  0
  2  3  1  0  0  0  0
  2  4  1  0  0  0  0
  2 22  1  0  0  0  0
  3 23  1  0  0  0  0
  3 24  1  0  0  0  0
  3 25  1  0  0  0  0
  4  5  1  0  0  0  0
  4 13  1  0  0  0  0
  4 26  1  0  0  0  0
  5  6  1  0  0  0  0
  5 27  1  0  0  0  0
  5 28  1  0  0  0  0
  6  7  1  0  0  0  0
  6 29  1  0  0  0  0
  7  8  2  0  0  0  0
  7  9  1  0  0  0  0
  9 10  1  0  0  0  0
  9 30  1  0  0  0  0
  9 31  1  0  0  0  0
 10 12  1  0  0  0  0
 10 11  1  0  0  0  0
 10 32  1  0  0  0  0
 11 12  1  0  0  0  0
 11 33  1  0  0  0  0
 11 34  1  0  0  0  0
 12 35  1  0  0  0  0
 12 36  1  0  0  0  0
 13 17  1  0  0  0  0
 13 14  2  0  0  0  0
 14 15  1  0  0  0  0
 14 37  1  0  0  0  0
 15 16  2  0  0  0  0
 15 38  1  0  0  0  0
 16 17  1  0  0  0  0
 17 18  1  0  0  0  0
 18 39  1  0  0  0  0
 18 40  1  0  0  0  0
 18 41  1  0  0  0  0
M  END
> <s_m_source_file>
AV-unprocessed.smi

> <i_m_source_file_index>
3273

> <i_lp_mmshare_version>
43012

> <i_f3d_flags>
0

> <s_epik_input>
W0NIM11uMW5bY0hdW2NIXWMxW0NASF0oW0NIXShbQ0gzXSlbQ0gzXSlbQ0gyXVtOSF1DKD1PKVtDSDJdW0NIXTJbQ0gyXVtDSDJdMg==

> <s_epik_cmdline>
J2VwaWtfcHl0aG9uJywgJy1waCcsICc3LjAnLCAnLXRuJywgJzgnLCAnLW1hJywgJzIwMCcsICctbWV0YWxfYmluZGluZycsICctaW1hZScsICc8aW5maWxlLm1hZT4nLCAnLW9tYWUnLCAnPG91dGZpbGUubWFlPic=

> <r_lp_tautomer_probability>
1

> <r_epik_Ionization_Penalty>
0.00116261

> <r_epik_Ionization_Penalty_Charging>
0

> <r_epik_Ionization_Penalty_Neutral>
0.00116261

> <r_epik_State_Penalty>
-0

> <r_epik_Charging_Adjusted_Penalty>
0

> <i_epik_Tot_Q>
0

> <i_epik_Tot_abs_Q>
0

> <r_epik_Metal_State_Penalty>
-0

> <b_epik_Metal_Only>
0

> <s_lp_Force_Field>
OPLS_2005

> <r_lp_Energy>
13.9008

> <b_lp_Chiralities_Consistent>
1

> <s_lp_Variant>
AV-unprocessed.smi:3273-1

> <Gold.Version>
5.8.1

> <Gold.Id.Protein>
6NUR|6NUR_protein|mol2

> <Gold.PLP.Fitness>
39.3763

> <Gold.PLP.PLP>
-32.7346

> <Gold.PLP.part.hbond>
-2.0000

> <Gold.PLP.part.metal>
0.0000

> <Gold.PLP.part.buried>
3.2303

> <Gold.PLP.part.nonpolar>
-33.7960

> <Gold.PLP.part.repulsive>
0.0846

> <Gold.PLP.ligand.clash>
0.0000

> <Gold.PLP.ligand.torsion>
1.5401

> <Gold.PLP.Chemscore.Hbond>
2.0000

> <Gold.PLP.Chemscore.CHOScore>
1.0000

> <Gold.PLP.Chemscore.Metal>
0.0000

> <Gold.Chemscore.Hbonds>
donor molecule, donor type, donor heavy atom, donor atom, acceptor molecule, acceptor atom, score
      L1  H     6    29       P1  7948  1.00
      P1  H  7989  7998       L1    16  0.95
      L1  C    15    38       P1  8028  0.52

> <Gold.PLP.Chemscore.Internal.Correction>
0.7220

> <Gold.Rescore>
     Score         DG    S(hbond)    S(metal)    S(lipo)     H(rot)  DE(clash)    DE(int)     intcor
     11.80     -14.50       1.24        0.00      77.65       1.64       0.95       1.75       ----

> <Gold.Chemscore.Fitness>
11.8005

> <Gold.Chemscore.DG>
-14.5026

> <Gold.Chemscore.ZeroCoef>
-5.4800

> <Gold.Chemscore.Hbond>
1.2407

> <Gold.Chemscore.Metal>
0.0000

> <Gold.Chemscore.Lipo>
77.6482

> <Gold.Chemscore.Internal_Hbond>
0.0000

> <Gold.Chemscore.DEClash>
0.9528

> <Gold.Chemscore.DEInternal>
1.7492

> <Gold.Chemscore.Rot>
1.6430

> <Gold.Chemscore.Internal.Correction>
   9.000000E+99

> <Gold.Chemscore.Hbonds>
donor molecule, donor type, donor heavy atom, donor atom, acceptor molecule, acceptor atom, score
      L1  H     6    29       P1  7948  0.98
      P1  H  7989  7998       L1    16  0.15

> <Gold.Chemscore.Hbond.Weighted>
-4.1439

> <Gold.Chemscore.Metal.Weighted>
-0.0000

> <Gold.Chemscore.Lipo.Weighted>
-9.0848

> <Gold.Chemscore.Internal_Hbond.Weighted>
0.0000

> <Gold.Chemscore.DEClash.Weighted>
0.9528

> <Gold.Chemscore.DEInternal.Weighted>
1.7492

> <Gold.Chemscore.Rot.Weighted>
4.2062

> <Gold.Chemscore.Internal.Correction.Weighted>
   9.000000E+99

> <Gold.Protein.RotatedTorsions>
[ 6907 6896 6895 6894 ] final  122.83 input  -60.11 | X-H torsion
[ 7974 7965 7964 7962 ] final   60.19 input  175.53 | X-H torsion
[ 8008 7997 7996 7995 ] final   97.08 input   59.86 | X-H torsion
[ 10167 10162 10161 10158 ] final   57.78 input  -65.29 | X-H torsion
[ 10718 10713 10712 10709 ] final -178.15 input   66.30 | X-H torsion
[ 10763 10752 10751 10750 ] final  141.62 input  -60.55 | X-H torsion
[ 11005 11000 10999 10996 ] final -102.67 input  -57.11 | X-H torsion

> <Gold.Protein.ActiveResidues>
 VAL166  LYS551  ARG553  GLY616  TRP617  ASP618  TYR619  PRO620  LYS621  CYS622 
 ASP623  PHE694  ASN695  SER759  ASP760  ASP761  ALA762  ILE779  LEU786  VAL792 
 PHE793  MET794  SER795  GLU796  ALA797  LYS798  CYS799  TRP800  GLU811  SER814 

> <Gold.Protein.RotatedAtoms>
  152.4211  133.7118  159.6482 H   0  0  0  0  0  0  0  0  0  0  0  0  # atno 6907 bound_to 6896
  150.8087  133.8451  159.3198 H   0  0  0  0  0  0  0  0  0  0  0  0  # atno 6908 bound_to 6896
  151.6167  135.1037  160.0144 H   0  0  0  0  0  0  0  0  0  0  0  0  # atno 6909 bound_to 6896
  145.8988  139.3565  143.0605 H   0  0  0  0  0  0  0  0  0  0  0  0  # atno 7974 bound_to 7965
  156.0864  140.3263  155.7759 H   0  0  0  0  0  0  0  0  0  0  0  0  # atno 8008 bound_to 7997
  155.5068  140.0574  157.2947 H   0  0  0  0  0  0  0  0  0  0  0  0  # atno 8009 bound_to 7997
  154.4612  140.1967  156.0257 H   0  0  0  0  0  0  0  0  0  0  0  0  # atno 8010 bound_to 7997
  140.1942  144.4054  150.6557 H   0  0  0  0  0  0  0  0  0  0  0  0  # atno 10167 bound_to 10162
  156.8400  130.9683  151.3100 H   0  0  0  0  0  0  0  0  0  0  0  0  # atno 10718 bound_to 10713
  153.9423  135.2978  155.3442 H   0  0  0  0  0  0  0  0  0  0  0  0  # atno 10763 bound_to 10752
  154.7470  135.4998  153.9225 H   0  0  0  0  0  0  0  0  0  0  0  0  # atno 10764 bound_to 10752
  153.1036  135.6741  153.9734 H   0  0  0  0  0  0  0  0  0  0  0  0  # atno 10765 bound_to 10752
  141.1179  133.8577  157.1389 H   0  0  0  0  0  0  0  0  0  0  0  0  # atno 11005 bound_to 11000
  145.8817  140.9358  143.0598 LP  0  0  0  0  0  0  0  0  0  0  0  0  # atno 17320 bound_to 7965
  144.6734  140.0789  143.7470 LP  0  0  0  0  0  0  0  0  0  0  0  0  # atno 17321 bound_to 7965
  140.6435  143.2208  151.6238 LP  0  0  0  0  0  0  0  0  0  0  0  0  # atno 17342 bound_to 10162
  139.5243  144.3107  152.0995 LP  0  0  0  0  0  0  0  0  0  0  0  0  # atno 17343 bound_to 10162
  157.6361  130.8767  149.9361 LP  0  0  0  0  0  0  0  0  0  0  0  0  # atno 17370 bound_to 10713
  156.0886  130.3665  150.0439 LP  0  0  0  0  0  0  0  0  0  0  0  0  # atno 17371 bound_to 10713
  140.0114  134.9986  157.0403 LP  0  0  0  0  0  0  0  0  0  0  0  0  # atno 17394 bound_to 11000
  140.4593  134.1501  155.7189 LP  0  0  0  0  0  0  0  0  0  0  0  0  # atno 17395 bound_to 11000

$$$$
