AV-unprocessed.smi:2093|AV-procd|sdf|8549|dock2
  -GOLD-   2272011273D 1   1.00000     0.00000
 Structure written by MMmdl.
 30 31  0  0  0  0  0  0  0  0  2 V2000
  150.7211  141.5420  158.6159 C   0  0  0  0  0  0  0  0  0  0  0  0
  151.2199  142.4600  157.4901 C   0  0  1  0  0  0  0  0  0  0  0  0
  150.2521  142.4228  156.3937 N   0  0  0  0  0  0  0  0  0  0  0  0
  150.1033  141.4474  155.4849 C   0  0  0  0  0  0  0  0  0  0  0  0
  150.8285  140.4507  155.5218 O   0  0  0  0  0  0  0  0  0  0  0  0
  149.1261  141.6925  154.5824 N   0  5  0  0  0  0  0  0  0  0  0  0
  148.3775  140.6818  154.1119 C   0  0  0  0  0  0  0  0  0  0  0  0
  147.2771  140.8695  153.3740 N   0  0  0  0  0  0  0  0  0  0  0  0
  146.6570  139.6794  152.9892 C   0  0  0  0  0  0  0  0  0  0  0  0
  147.3063  138.5590  153.4353 C   0  0  0  0  0  0  0  0  0  0  0  0
  148.7239  138.9679  154.3588 S   0  0  0  0  0  0  0  0  0  0  0  0
  151.4250  143.9077  157.9835 C   0  0  2  0  0  0  0  0  0  0  0  0
  152.4843  144.0818  159.0711 C   0  0  0  0  0  0  0  0  0  0  0  0
  152.1101  145.4213  159.6702 C   0  0  0  0  0  0  0  0  0  0  0  0
  150.5935  145.4854  159.4731 C   0  0  0  0  0  0  0  0  0  0  0  0
  150.2525  144.3928  158.6243 O   0  0  0  0  0  0  0  0  0  0  0  0
  151.4318  141.5085  159.4420 H   0  0  0  0  0  0  0  0  0  0  0  0
  150.5874  140.5205  158.2585 H   0  0  0  0  0  0  0  0  0  0  0  0
  149.7648  141.8840  159.0131 H   0  0  0  0  0  0  0  0  0  0  0  0
  152.1796  142.0672  157.1504 H   0  0  0  0  0  0  0  0  0  0  0  0
  149.6323  143.2155  156.3147 H   0  0  0  0  0  0  0  0  0  0  0  0
  145.7559  139.7237  152.3960 H   0  0  0  0  0  0  0  0  0  0  0  0
  147.0401  137.5248  153.2782 H   0  0  0  0  0  0  0  0  0  0  0  0
  151.6560  144.5645  157.1425 H   0  0  0  0  0  0  0  0  0  0  0  0
  152.3878  143.2983  159.8241 H   0  0  0  0  0  0  0  0  0  0  0  0
  153.5036  144.0600  158.6844 H   0  0  0  0  0  0  0  0  0  0  0  0
  152.4053  145.5091  160.7163 H   0  0  0  0  0  0  0  0  0  0  0  0
  152.5925  146.2257  159.1136 H   0  0  0  0  0  0  0  0  0  0  0  0
  150.0592  145.3887  160.4186 H   0  0  0  0  0  0  0  0  0  0  0  0
  150.2986  146.4286  159.0124 H   0  0  0  0  0  0  0  0  0  0  0  0
  1  2  1  0  0  0  0
  1 17  1  0  0  0  0
  1 18  1  0  0  0  0
  1 19  1  0  0  0  0
  2  3  1  0  0  0  0
  2 12  1  0  0  0  0
  2 20  1  0  0  0  0
  3  4  1  0  0  0  0
  3 21  1  0  0  0  0
  4  5  2  0  0  0  0
  4  6  1  0  0  0  0
  6  7  1  0  0  0  0
  7 11  1  0  0  0  0
  7  8  2  0  0  0  0
  8  9  1  0  0  0  0
  9 10  2  0  0  0  0
  9 22  1  0  0  0  0
 10 11  1  0  0  0  0
 10 23  1  0  0  0  0
 12 16  1  0  0  0  0
 12 13  1  0  0  0  0
 12 24  1  0  0  0  0
 13 14  1  0  0  0  0
 13 25  1  0  0  0  0
 13 26  1  0  0  0  0
 14 15  1  0  0  0  0
 14 27  1  0  0  0  0
 14 28  1  0  0  0  0
 15 16  1  0  0  0  0
 15 29  1  0  0  0  0
 15 30  1  0  0  0  0
M  CHG  1   6  -1
M  END
> <s_m_source_file>
AV-unprocessed.smi

> <i_m_source_file_index>
2093

> <i_lp_mmshare_version>
43012

> <i_f3d_flags>
0

> <s_epik_input>
TzFbQ0gyXVtDSDJdW0NIMl1bQ0BIXTFbQ0BIXShbQ0gzXSlbTkhdQyg9TylbTkhdYzJuW2NIXVtjSF1zMg==

> <s_epik_cmdline>
J2VwaWtfcHl0aG9uJywgJy1waCcsICc3LjAnLCAnLXRuJywgJzgnLCAnLW1hJywgJzIwMCcsICctbWV0YWxfYmluZGluZycsICctaW1hZScsICc8aW5maWxlLm1hZT4nLCAnLW9tYWUnLCAnPG91dGZpbGUubWFlPic=

> <r_lp_tautomer_probability>
0.999

> <r_epik_Ionization_Penalty>
8.26346

> <r_epik_Ionization_Penalty_Charging>
6.6559

> <r_epik_Ionization_Penalty_Neutral>
1.60756

> <r_epik_State_Penalty>
6.65607

> <r_epik_Charging_Adjusted_Penalty>
13.312

> <i_epik_Tot_Q>
-1

> <i_epik_Tot_abs_Q>
1

> <r_epik_Metal_State_Penalty>
2.5789

> <b_epik_Metal_Only>
1

> <s_lp_Force_Field>
OPLS_2005

> <r_lp_Energy>
13.6903

> <b_lp_Chiralities_Consistent>
1

> <s_lp_Variant>
AV-unprocessed.smi:2093-6

> <Gold.Version>
5.8.1

> <Gold.Id.Protein>
6NUR|6NUR_protein|mol2

> <Gold.PLP.Fitness>
42.5943

> <Gold.PLP.PLP>
-32.3622

> <Gold.PLP.part.hbond>
-2.9612

> <Gold.PLP.part.metal>
0.0000

> <Gold.PLP.part.buried>
-0.4734

> <Gold.PLP.part.nonpolar>
-28.4797

> <Gold.PLP.part.repulsive>
0.6649

> <Gold.PLP.ligand.clash>
0.0000

> <Gold.PLP.ligand.torsion>
0.5762

> <Gold.PLP.Chemscore.Hbond>
1.9459

> <Gold.PLP.Chemscore.CHOScore>
1.8304

> <Gold.PLP.Chemscore.Metal>
0.0000

> <Gold.Chemscore.Hbonds>
donor molecule, donor type, donor heavy atom, donor atom, acceptor molecule, acceptor atom, score
      L1  H     3    21       P1  8028  1.00
      P1  H  7989  7998       L1     5  0.32
      L1  C     9    22       P1 10175  1.00
      L1  C    10    23       P1  7948  0.35

> <Gold.PLP.Chemscore.Internal.Correction>
0.0554

> <Gold.Rescore>
     Score         DG    S(hbond)    S(metal)    S(lipo)     H(rot)  DE(clash)    DE(int)     intcor
     13.30     -15.17       1.00        0.00      82.20       1.28       0.11       1.76       ----

> <Gold.Chemscore.Fitness>
13.3033

> <Gold.Chemscore.DG>
-15.1686

> <Gold.Chemscore.ZeroCoef>
-5.4800

> <Gold.Chemscore.Hbond>
1.0007

> <Gold.Chemscore.Metal>
0.0000

> <Gold.Chemscore.Lipo>
82.1992

> <Gold.Chemscore.Internal_Hbond>
0.0000

> <Gold.Chemscore.DEClash>
0.1052

> <Gold.Chemscore.DEInternal>
1.7601

> <Gold.Chemscore.Rot>
1.2778

> <Gold.Chemscore.Internal.Correction>
   9.000000E+99

> <Gold.Chemscore.Hbonds>
donor molecule, donor type, donor heavy atom, donor atom, acceptor molecule, acceptor atom, score
      L1  H     3    21       P1  8028  1.00
      P1  H  7989  7998       L1     5  0.02

> <Gold.Chemscore.Hbond.Weighted>
-3.3424

> <Gold.Chemscore.Metal.Weighted>
-0.0000

> <Gold.Chemscore.Lipo.Weighted>
-9.6173

> <Gold.Chemscore.Internal_Hbond.Weighted>
0.0000

> <Gold.Chemscore.DEClash.Weighted>
0.1052

> <Gold.Chemscore.DEInternal.Weighted>
1.7601

> <Gold.Chemscore.Rot.Weighted>
3.2711

> <Gold.Chemscore.Internal.Correction.Weighted>
   9.000000E+99

> <Gold.Protein.RotatedTorsions>
[ 6907 6896 6895 6894 ] final  120.09 input  -60.11 | X-H torsion
[ 7974 7965 7964 7962 ] final  -32.17 input  175.53 | X-H torsion
[ 8008 7997 7996 7995 ] final  -92.52 input   59.86 | X-H torsion
[ 10167 10162 10161 10158 ] final  -19.49 input  -65.29 | X-H torsion
[ 10718 10713 10712 10709 ] final  -26.85 input   66.30 | X-H torsion
[ 10763 10752 10751 10750 ] final   25.26 input  -60.55 | X-H torsion
[ 11005 11000 10999 10996 ] final  131.16 input  -57.11 | X-H torsion

> <Gold.Protein.ActiveResidues>
 VAL166  LYS551  ARG553  GLY616  TRP617  ASP618  TYR619  PRO620  LYS621  CYS622 
 ASP623  PHE694  ASN695  SER759  ASP760  ASP761  ALA762  ILE779  LEU786  VAL792 
 PHE793  MET794  SER795  GLU796  ALA797  LYS798  CYS799  TRP800  GLU811  SER814 

> <Gold.Protein.RotatedAtoms>
  152.4424  133.7473  159.6673 H   0  0  0  0  0  0  0  0  0  0  0  0  # atno 6907 bound_to 6896
  150.8317  133.8069  159.3102 H   0  0  0  0  0  0  0  0  0  0  0  0  # atno 6908 bound_to 6896
  151.5721  135.1064  160.0049 H   0  0  0  0  0  0  0  0  0  0  0  0  # atno 6909 bound_to 6896
  146.1011  140.5758  142.8820 H   0  0  0  0  0  0  0  0  0  0  0  0  # atno 7974 bound_to 7965
  154.7242  140.0508  157.0667 H   0  0  0  0  0  0  0  0  0  0  0  0  # atno 8008 bound_to 7997
  155.0387  140.3166  155.4713 H   0  0  0  0  0  0  0  0  0  0  0  0  # atno 8009 bound_to 7997
  156.2824  140.2136  156.5511 H   0  0  0  0  0  0  0  0  0  0  0  0  # atno 8010 bound_to 7997
  140.7269  143.4813  151.0113 H   0  0  0  0  0  0  0  0  0  0  0  0  # atno 10167 bound_to 10162
  156.4459  130.4474  149.7022 H   0  0  0  0  0  0  0  0  0  0  0  0  # atno 10718 bound_to 10713
  153.0704  135.6587  154.0260 H   0  0  0  0  0  0  0  0  0  0  0  0  # atno 10763 bound_to 10752
  153.9907  135.2946  155.3413 H   0  0  0  0  0  0  0  0  0  0  0  0  # atno 10764 bound_to 10752
  154.7077  135.5218  153.8689 H   0  0  0  0  0  0  0  0  0  0  0  0  # atno 10765 bound_to 10752
  139.9714  134.9576  156.9398 H   0  0  0  0  0  0  0  0  0  0  0  0  # atno 11005 bound_to 11000
  144.7433  140.5002  143.6853 LP  0  0  0  0  0  0  0  0  0  0  0  0  # atno 17320 bound_to 7965
  145.5852  139.1491  143.3213 LP  0  0  0  0  0  0  0  0  0  0  0  0  # atno 17321 bound_to 7965
  139.8512  143.7436  152.3178 LP  0  0  0  0  0  0  0  0  0  0  0  0  # atno 17342 bound_to 10162
  139.7618  144.7504  151.0352 LP  0  0  0  0  0  0  0  0  0  0  0  0  # atno 17343 bound_to 10162
  156.3868  130.7607  151.2604 LP  0  0  0  0  0  0  0  0  0  0  0  0  # atno 17370 bound_to 10713
  157.7505  131.0279  150.4027 LP  0  0  0  0  0  0  0  0  0  0  0  0  # atno 17371 bound_to 10713
  140.5286  134.0836  155.7310 LP  0  0  0  0  0  0  0  0  0  0  0  0  # atno 17394 bound_to 11000
  141.1393  133.9166  157.2362 LP  0  0  0  0  0  0  0  0  0  0  0  0  # atno 17395 bound_to 11000

$$$$
