AV-unprocessed.smi:1897|AV-procd|sdf|7693|dock10
  -GOLD-   22720 9433D 1   1.00000     0.00000
 Structure written by MMmdl.
 38 40  0  0  0  0  0  0  0  0  3 V2000
  152.9511  142.8352  161.9178 C   0  0  0  0  0  0  0  0  0  0  0  0
  152.5964  142.2051  160.6147 C   0  0  0  0  0  0  0  0  0  0  0  0
  151.4112  142.3820  160.0256 N   0  0  0  0  0  0  0  0  0  0  0  0
  151.3168  141.6947  158.8247 N   0  0  0  0  0  0  0  0  0  0  0  0
  152.4232  140.9965  158.5300 C   0  0  0  0  0  0  0  0  0  0  0  0
  152.5308  140.2478  157.4164 N   0  5  0  0  0  0  0  0  0  0  0  0
  151.4478  139.7611  156.7566 C   0  0  0  0  0  0  0  0  0  0  0  0
  150.2970  139.8544  157.1815 O   0  0  0  0  0  0  0  0  0  0  0  0
  151.6581  139.1353  155.5828 N   0  0  0  0  0  0  0  0  0  0  0  0
  150.6401  138.4776  154.7705 C   0  0  1  0  0  0  0  0  0  0  0  0
  149.6239  137.6848  155.6028 C   0  0  0  0  0  0  0  0  0  0  0  0
  148.2991  137.7938  154.8274 C   0  0  0  0  0  0  0  0  0  0  0  0
  148.5846  138.6295  153.6398 N   0  3  1  0  0  0  0  0  0  0  0  0
  147.4312  139.3534  153.0471 C   0  0  0  0  0  0  0  0  0  0  0  0
  147.0561  140.6201  153.8345 C   0  0  0  0  0  0  0  0  0  0  0  0
  148.2779  141.5264  154.0148 C   0  0  0  0  0  0  0  0  0  0  0  0
  149.3924  140.7511  154.7250 C   0  0  0  0  0  0  0  0  0  0  0  0
  149.7696  139.4541  153.9623 C   0  0  1  0  0  0  0  0  0  0  0  0
  153.6998  141.1613  159.7339 S   0  0  0  0  0  0  0  0  0  0  0  0
  152.5467  142.2433  162.7388 H   0  0  0  0  0  0  0  0  0  0  0  0
  152.5410  143.8439  161.9750 H   0  0  0  0  0  0  0  0  0  0  0  0
  154.0341  142.8932  162.0274 H   0  0  0  0  0  0  0  0  0  0  0  0
  152.6112  139.0762  155.2548 H   0  0  0  0  0  0  0  0  0  0  0  0
  151.1221  137.7818  154.0806 H   0  0  0  0  0  0  0  0  0  0  0  0
  149.9380  136.6493  155.7380 H   0  0  0  0  0  0  0  0  0  0  0  0
  149.5047  138.1232  156.5950 H   0  0  0  0  0  0  0  0  0  0  0  0
  147.9253  136.8177  154.5168 H   0  0  0  0  0  0  0  0  0  0  0  0
  147.5382  138.2564  155.4572 H   0  0  0  0  0  0  0  0  0  0  0  0
  147.7018  139.6337  152.0282 H   0  0  0  0  0  0  0  0  0  0  0  0
  146.5762  138.6815  152.9665 H   0  0  0  0  0  0  0  0  0  0  0  0
  146.2669  141.1606  153.3109 H   0  0  0  0  0  0  0  0  0  0  0  0
  146.6479  140.3515  154.8094 H   0  0  0  0  0  0  0  0  0  0  0  0
  148.6295  141.8797  153.0447 H   0  0  0  0  0  0  0  0  0  0  0  0
  148.0085  142.4107  154.5928 H   0  0  0  0  0  0  0  0  0  0  0  0
  150.2681  141.3925  154.8306 H   0  0  0  0  0  0  0  0  0  0  0  0
  149.0670  140.5128  155.7384 H   0  0  0  0  0  0  0  0  0  0  0  0
  150.2711  139.7281  153.0328 H   0  0  0  0  0  0  0  0  0  0  0  0
  148.9002  137.9766  152.9368 H   0  0  0  0  0  0  0  0  0  0  0  0
  1  2  1  0  0  0  0
  1 20  1  0  0  0  0
  1 21  1  0  0  0  0
  1 22  1  0  0  0  0
  2 19  1  0  0  0  0
  2  3  2  0  0  0  0
  3  4  1  0  0  0  0
  4  5  2  0  0  0  0
  5  6  1  0  0  0  0
  5 19  1  0  0  0  0
  6  7  1  0  0  0  0
  7  8  2  0  0  0  0
  7  9  1  0  0  0  0
  9 10  1  0  0  0  0
  9 23  1  0  0  0  0
 10 18  1  0  0  0  0
 10 11  1  0  0  0  0
 10 24  1  0  0  0  0
 11 12  1  0  0  0  0
 11 25  1  0  0  0  0
 11 26  1  0  0  0  0
 12 13  1  0  0  0  0
 12 27  1  0  0  0  0
 12 28  1  0  0  0  0
 13 18  1  0  0  0  0
 13 14  1  0  0  0  0
 13 38  1  0  0  0  0
 14 15  1  0  0  0  0
 14 29  1  0  0  0  0
 14 30  1  0  0  0  0
 15 16  1  0  0  0  0
 15 31  1  0  0  0  0
 15 32  1  0  0  0  0
 16 17  1  0  0  0  0
 16 33  1  0  0  0  0
 16 34  1  0  0  0  0
 17 18  1  0  0  0  0
 17 35  1  0  0  0  0
 17 36  1  0  0  0  0
 18 37  1  0  0  0  0
M  CHG  1   6  -1
M  CHG  1  13   1
M  END
> <s_m_source_file>
AV-unprocessed.smi

> <i_m_source_file_index>
1897

> <i_lp_mmshare_version>
43012

> <i_f3d_flags>
0

> <s_epik_input>
W0NIM11jMW5uYyhzMSlbTkhdQyg9TylbTkhdW0NASF0oW0NIMl1bQ0gyXTIpW0NAQEhdKE4yMylbQ0gyXVtDSDJdW0NIMl1bQ0gyXTM=

> <s_epik_cmdline>
J2VwaWtfcHl0aG9uJywgJy1waCcsICc3LjAnLCAnLXRuJywgJzgnLCAnLW1hJywgJzIwMCcsICctbWV0YWxfYmluZGluZycsICctaW1hZScsICc8aW5maWxlLm1hZT4nLCAnLW9tYWUnLCAnPG91dGZpbGUubWFlPic=

> <r_lp_tautomer_probability>
1

> <r_epik_Ionization_Penalty>
3.77712

> <r_epik_Ionization_Penalty_Charging>
3.67739

> <r_epik_Ionization_Penalty_Neutral>
0.0997294

> <r_epik_State_Penalty>
3.67514

> <r_epik_Charging_Adjusted_Penalty>
7.35254

> <i_epik_Tot_Q>
0

> <i_epik_Tot_abs_Q>
2

> <r_epik_Metal_State_Penalty>
0.540795

> <b_epik_Metal_Only>
1

> <s_lp_Force_Field>
OPLS_2005

> <r_lp_Energy>
30.11

> <b_lp_Chiralities_Consistent>
1

> <s_lp_Variant>
AV-unprocessed.smi:1897-10

> <Gold.Version>
5.8.1

> <Gold.Id.Protein>
6NUR|6NUR_protein|mol2

> <Gold.PLP.Fitness>
44.7390

> <Gold.PLP.PLP>
-33.5466

> <Gold.PLP.part.hbond>
-4.0000

> <Gold.PLP.part.metal>
0.0000

> <Gold.PLP.part.buried>
-0.4272

> <Gold.PLP.part.nonpolar>
-29.5106

> <Gold.PLP.part.repulsive>
0.1985

> <Gold.PLP.ligand.clash>
0.0000

> <Gold.PLP.ligand.torsion>
0.3812

> <Gold.PLP.Chemscore.Hbond>
3.9840

> <Gold.PLP.Chemscore.CHOScore>
0.0000

> <Gold.PLP.Chemscore.Metal>
0.0000

> <Gold.Chemscore.Hbonds>
donor molecule, donor type, donor heavy atom, donor atom, acceptor molecule, acceptor atom, score
      L1  H    13    38       P1  7948  2.00
      P1  H  7997  8009       L1     6  1.95

> <Gold.PLP.Chemscore.Internal.Correction>
0.0029

> <Gold.Rescore>
     Score         DG    S(hbond)    S(metal)    S(lipo)     H(rot)  DE(clash)    DE(int)     intcor
     13.38     -18.19       1.87        0.00      77.04       1.00       0.15       4.66       ----

> <Gold.Chemscore.Fitness>
13.3774

> <Gold.Chemscore.DG>
-18.1910

> <Gold.Chemscore.ZeroCoef>
-5.4800

> <Gold.Chemscore.Hbond>
1.8735

> <Gold.Chemscore.Metal>
0.0000

> <Gold.Chemscore.Lipo>
77.0384

> <Gold.Chemscore.Internal_Hbond>
0.0000

> <Gold.Chemscore.DEClash>
0.1531

> <Gold.Chemscore.DEInternal>
4.6606

> <Gold.Chemscore.Rot>
1.0000

> <Gold.Chemscore.Internal.Correction>
   9.000000E+99

> <Gold.Chemscore.Hbonds>
donor molecule, donor type, donor heavy atom, donor atom, acceptor molecule, acceptor atom, score
      L1  H    13    38       P1  7948  0.93
      P1  H  7997  8009       L1     6  0.81

> <Gold.Chemscore.Hbond.Weighted>
-6.2575

> <Gold.Chemscore.Metal.Weighted>
-0.0000

> <Gold.Chemscore.Lipo.Weighted>
-9.0135

> <Gold.Chemscore.Internal_Hbond.Weighted>
0.0000

> <Gold.Chemscore.DEClash.Weighted>
0.1531

> <Gold.Chemscore.DEInternal.Weighted>
4.6606

> <Gold.Chemscore.Rot.Weighted>
2.5600

> <Gold.Chemscore.Internal.Correction.Weighted>
   9.000000E+99

> <Gold.Protein.RotatedTorsions>
[ 6907 6896 6895 6894 ] final  -90.82 input  -60.11 | X-H torsion
[ 7974 7965 7964 7962 ] final  166.69 input  175.53 | X-H torsion
[ 8008 7997 7996 7995 ] final -176.59 input   59.86 | X-H torsion
[ 10167 10162 10161 10158 ] final -141.60 input  -65.29 | X-H torsion
[ 10718 10713 10712 10709 ] final -143.65 input   66.30 | X-H torsion
[ 10763 10752 10751 10750 ] final  -40.92 input  -60.55 | X-H torsion
[ 11005 11000 10999 10996 ] final   -7.84 input  -57.11 | X-H torsion

> <Gold.Protein.ActiveResidues>
 VAL166  LYS551  ARG553  GLY616  TRP617  ASP618  TYR619  PRO620  LYS621  CYS622 
 ASP623  PHE694  ASN695  SER759  ASP760  ASP761  ALA762  ILE779  LEU786  VAL792 
 PHE793  MET794  SER795  GLU796  ALA797  LYS798  CYS799  TRP800  GLU811  SER814 

> <Gold.Protein.RotatedAtoms>
  150.6885  134.2373  159.4458 H   0  0  0  0  0  0  0  0  0  0  0  0  # atno 6907 bound_to 6896
  152.0320  134.9760  160.0582 H   0  0  0  0  0  0  0  0  0  0  0  0  # atno 6908 bound_to 6896
  152.1295  133.4365  159.4751 H   0  0  0  0  0  0  0  0  0  0  0  0  # atno 6909 bound_to 6896
  144.7453  139.8652  143.6384 H   0  0  0  0  0  0  0  0  0  0  0  0  # atno 7974 bound_to 7965
  155.9967  140.1212  157.0586 H   0  0  0  0  0  0  0  0  0  0  0  0  # atno 8008 bound_to 7997
  154.4229  140.1115  156.5709 H   0  0  0  0  0  0  0  0  0  0  0  0  # atno 8009 bound_to 7997
  155.6268  140.3472  155.4672 H   0  0  0  0  0  0  0  0  0  0  0  0  # atno 8010 bound_to 7997
  139.8169  143.7627  152.2665 H   0  0  0  0  0  0  0  0  0  0  0  0  # atno 10167 bound_to 10162
  156.3605  130.7736  151.1902 H   0  0  0  0  0  0  0  0  0  0  0  0  # atno 10718 bound_to 10713
  153.9539  135.6747  153.4744 H   0  0  0  0  0  0  0  0  0  0  0  0  # atno 10763 bound_to 10752
  153.0871  135.4893  154.8614 H   0  0  0  0  0  0  0  0  0  0  0  0  # atno 10764 bound_to 10752
  154.7310  135.3138  154.8851 H   0  0  0  0  0  0  0  0  0  0  0  0  # atno 10765 bound_to 10752
  140.7170  133.8860  155.8793 H   0  0  0  0  0  0  0  0  0  0  0  0  # atno 11005 bound_to 11000
  146.1320  139.4357  143.0163 LP  0  0  0  0  0  0  0  0  0  0  0  0  # atno 17320 bound_to 7965
  145.7149  141.0094  143.1433 LP  0  0  0  0  0  0  0  0  0  0  0  0  # atno 17321 bound_to 7965
  139.7793  144.7450  151.0111 LP  0  0  0  0  0  0  0  0  0  0  0  0  # atno 17342 bound_to 10162
  140.7815  143.4560  151.0346 LP  0  0  0  0  0  0  0  0  0  0  0  0  # atno 17343 bound_to 10162
  157.7473  131.0401  150.4583 LP  0  0  0  0  0  0  0  0  0  0  0  0  # atno 17370 bound_to 10713
  156.4793  130.4070  149.6471 LP  0  0  0  0  0  0  0  0  0  0  0  0  # atno 17371 bound_to 10713
  141.0036  134.1117  157.4293 LP  0  0  0  0  0  0  0  0  0  0  0  0  # atno 17394 bound_to 11000
  139.8857  135.0075  156.6453 LP  0  0  0  0  0  0  0  0  0  0  0  0  # atno 17395 bound_to 11000

$$$$
