AV-unprocessed.smi:419|AV-procd|sdf|2531|dock5
  -GOLD-   2262022493D 1   1.00000     0.00000
 Structure written by MMmdl.
 44 46  0  0  0  0  0  0  0  0  1 V2000
  142.8889  145.8787  154.3001 C   0  0  0  0  0  0  0  0  0  0  0  0
  142.9793  144.8158  155.2378 O   0  0  0  0  0  0  0  0  0  0  0  0
  143.9690  143.8737  155.0566 C   0  0  0  0  0  0  0  0  0  0  0  0
  144.9298  143.9157  154.0166 C   0  0  0  0  0  0  0  0  0  0  0  0
  145.9056  142.9062  153.9069 C   0  0  0  0  0  0  0  0  0  0  0  0
  145.9501  141.8376  154.8238 C   0  0  0  0  0  0  0  0  0  0  0  0
  146.9378  140.8936  154.6400 O   0  0  0  0  0  0  0  0  0  0  0  0
  148.1639  141.3082  154.0519 C   0  0  0  0  0  0  0  0  0  0  0  0
  149.3324  140.7021  154.8474 C   0  0  1  0  0  0  0  0  0  0  0  0
  150.1382  139.9861  153.9319 O   0  0  0  0  0  0  0  0  0  0  0  0
  150.2111  141.7940  155.4922 C   0  0  0  0  0  0  0  0  0  0  0  0
  150.9063  141.3009  156.6804 N   0  0  0  0  0  0  0  0  0  0  0  0
  151.2849  140.0228  156.9199 C   0  0  0  0  0  0  0  0  0  0  0  0
  151.1072  139.0651  156.1671 O   0  0  0  0  0  0  0  0  0  0  0  0
  151.8948  139.9852  158.1275 N   0  0  0  0  0  0  0  0  0  0  0  0
  152.4627  138.8158  158.7869 C   0  0  0  0  0  0  0  0  0  0  0  0
  151.9197  141.2763  158.6701 C   0  0  0  0  0  0  0  0  0  0  0  0
  152.4454  141.7578  159.8813 C   0  0  0  0  0  0  0  0  0  0  0  0
  152.3115  143.1424  160.1384 C   0  0  0  0  0  0  0  0  0  0  0  0
  151.6719  143.9968  159.2029 C   0  0  0  0  0  0  0  0  0  0  0  0
  151.1525  143.4849  157.9906 C   0  0  0  0  0  0  0  0  0  0  0  0
  151.2974  142.1054  157.7607 C   0  0  0  0  0  0  0  0  0  0  0  0
  144.9901  141.7964  155.8645 C   0  0  0  0  0  0  0  0  0  0  0  0
  144.0138  142.8052  155.9736 C   0  0  0  0  0  0  0  0  0  0  0  0
  142.0608  146.5318  154.5753 H   0  0  0  0  0  0  0  0  0  0  0  0
  142.6943  145.5067  153.2933 H   0  0  0  0  0  0  0  0  0  0  0  0
  143.7973  146.4824  154.2940 H   0  0  0  0  0  0  0  0  0  0  0  0
  144.9399  144.7125  153.2886 H   0  0  0  0  0  0  0  0  0  0  0  0
  146.6302  142.9531  153.1072 H   0  0  0  0  0  0  0  0  0  0  0  0
  148.2216  141.0260  152.9987 H   0  0  0  0  0  0  0  0  0  0  0  0
  148.2162  142.3967  154.1090 H   0  0  0  0  0  0  0  0  0  0  0  0
  148.9428  140.0283  155.6119 H   0  0  0  0  0  0  0  0  0  0  0  0
  149.6984  139.9663  153.0960 H   0  0  0  0  0  0  0  0  0  0  0  0
  150.9152  142.2126  154.7722 H   0  0  0  0  0  0  0  0  0  0  0  0
  149.5855  142.6314  155.8054 H   0  0  0  0  0  0  0  0  0  0  0  0
  152.1467  138.7764  159.8296 H   0  0  0  0  0  0  0  0  0  0  0  0
  153.5515  138.8622  158.7604 H   0  0  0  0  0  0  0  0  0  0  0  0
  152.1496  137.8859  158.3100 H   0  0  0  0  0  0  0  0  0  0  0  0
  152.9324  141.1012  160.5872 H   0  0  0  0  0  0  0  0  0  0  0  0
  152.7024  143.5542  161.0572 H   0  0  0  0  0  0  0  0  0  0  0  0
  151.5818  145.0514  159.4180 H   0  0  0  0  0  0  0  0  0  0  0  0
  150.6688  144.1319  157.2742 H   0  0  0  0  0  0  0  0  0  0  0  0
  144.9783  141.0004  156.5931 H   0  0  0  0  0  0  0  0  0  0  0  0
  143.2883  142.7565  156.7724 H   0  0  0  0  0  0  0  0  0  0  0  0
  1  2  1  0  0  0  0
  1 25  1  0  0  0  0
  1 26  1  0  0  0  0
  1 27  1  0  0  0  0
  2  3  1  0  0  0  0
  3 24  1  0  0  0  0
  3  4  2  0  0  0  0
  4  5  1  0  0  0  0
  4 28  1  0  0  0  0
  5  6  2  0  0  0  0
  5 29  1  0  0  0  0
  6  7  1  0  0  0  0
  6 23  1  0  0  0  0
  7  8  1  0  0  0  0
  8  9  1  0  0  0  0
  8 30  1  0  0  0  0
  8 31  1  0  0  0  0
  9 10  1  0  0  0  0
  9 11  1  0  0  0  0
  9 32  1  0  0  0  0
 10 33  1  0  0  0  0
 11 12  1  0  0  0  0
 11 34  1  0  0  0  0
 11 35  1  0  0  0  0
 12 22  1  0  0  0  0
 12 13  1  0  0  0  0
 13 14  2  0  0  0  0
 13 15  1  0  0  0  0
 15 16  1  0  0  0  0
 15 17  1  0  0  0  0
 16 36  1  0  0  0  0
 16 37  1  0  0  0  0
 16 38  1  0  0  0  0
 17 22  2  0  0  0  0
 17 18  1  0  0  0  0
 18 19  2  0  0  0  0
 18 39  1  0  0  0  0
 19 20  1  0  0  0  0
 19 40  1  0  0  0  0
 20 21  2  0  0  0  0
 20 41  1  0  0  0  0
 21 22  1  0  0  0  0
 21 42  1  0  0  0  0
 23 24  2  0  0  0  0
 23 43  1  0  0  0  0
 24 44  1  0  0  0  0
M  END
> <s_m_source_file>
AV-unprocessed.smi

> <i_m_source_file_index>
419

> <i_lp_mmshare_version>
43012

> <i_f3d_flags>
0

> <s_epik_input>
W0NIM11PYzFbY0hdW2NIXWMoW2NIXVtjSF0xKU9bQ0gyXVtDQEhdKFtPSF0pW0NIMl1uKGMoPU8pbjJbQ0gzXSljKGMyMylbY0hdW2NIXVtjSF1bY0hdMw==

> <s_epik_cmdline>
J2VwaWtfcHl0aG9uJywgJy1waCcsICc3LjAnLCAnLXRuJywgJzgnLCAnLW1hJywgJzIwMCcsICctbWV0YWxfYmluZGluZycsICctaW1hZScsICc8aW5maWxlLm1hZT4nLCAnLW9tYWUnLCAnPG91dGZpbGUubWFlPic=

> <r_lp_tautomer_probability>
1

> <r_epik_Ionization_Penalty>
2.40131e-06

> <r_epik_Ionization_Penalty_Charging>
2.01037e-09

> <r_epik_Ionization_Penalty_Neutral>
2.3993e-06

> <r_epik_State_Penalty>
-0

> <r_epik_Charging_Adjusted_Penalty>
2.01037e-09

> <i_epik_Tot_Q>
0

> <i_epik_Tot_abs_Q>
0

> <r_epik_Metal_State_Penalty>
-0

> <b_epik_Metal_Only>
0

> <s_lp_Force_Field>
OPLS_2005

> <r_lp_Energy>
50.9462

> <b_lp_Chiralities_Consistent>
1

> <s_lp_Variant>
AV-unprocessed.smi:419-2

> <Gold.Version>
5.8.1

> <Gold.Id.Protein>
6NUR|6NUR_protein|mol2

> <Gold.PLP.Fitness>
53.1672

> <Gold.PLP.PLP>
-51.4895

> <Gold.PLP.part.hbond>
-2.0000

> <Gold.PLP.part.metal>
0.0000

> <Gold.PLP.part.buried>
-6.4836

> <Gold.PLP.part.nonpolar>
-43.7626

> <Gold.PLP.part.repulsive>
0.1654

> <Gold.PLP.ligand.clash>
0.0000

> <Gold.PLP.ligand.torsion>
2.1277

> <Gold.PLP.Chemscore.Hbond>
1.9440

> <Gold.PLP.Chemscore.CHOScore>
0.0000

> <Gold.PLP.Chemscore.Metal>
0.0000

> <Gold.Chemscore.Hbonds>
donor molecule, donor type, donor heavy atom, donor atom, acceptor molecule, acceptor atom, score
      L1  H    10    33       P1  7957  1.00
      P1  H  7989  7998       L1    10  0.88

> <Gold.PLP.Chemscore.Internal.Correction>
0.1011

> <Gold.Rescore>
     Score         DG    S(hbond)    S(metal)    S(lipo)     H(rot)  DE(clash)    DE(int)     intcor
     12.42     -18.09       1.23        0.00     125.07       2.40       0.57       5.10       ----

> <Gold.Chemscore.Fitness>
12.4214

> <Gold.Chemscore.DG>
-18.0944

> <Gold.Chemscore.ZeroCoef>
-5.4800

> <Gold.Chemscore.Hbond>
1.2313

> <Gold.Chemscore.Metal>
0.0000

> <Gold.Chemscore.Lipo>
125.0714

> <Gold.Chemscore.Internal_Hbond>
0.0000

> <Gold.Chemscore.DEClash>
0.5725

> <Gold.Chemscore.DEInternal>
5.1005

> <Gold.Chemscore.Rot>
2.3952

> <Gold.Chemscore.Internal.Correction>
   9.000000E+99

> <Gold.Chemscore.Hbonds>
donor molecule, donor type, donor heavy atom, donor atom, acceptor molecule, acceptor atom, score
      L1  H    10    33       P1  7957  0.97
      P1  H  7989  7998       L1    10  0.16

> <Gold.Chemscore.Hbond.Weighted>
-4.1127

> <Gold.Chemscore.Metal.Weighted>
-0.0000

> <Gold.Chemscore.Lipo.Weighted>
-14.6334

> <Gold.Chemscore.Internal_Hbond.Weighted>
0.0000

> <Gold.Chemscore.DEClash.Weighted>
0.5725

> <Gold.Chemscore.DEInternal.Weighted>
5.1005

> <Gold.Chemscore.Rot.Weighted>
6.1316

> <Gold.Chemscore.Internal.Correction.Weighted>
   9.000000E+99

> <Gold.Protein.RotatedTorsions>
[ 6907 6896 6895 6894 ] final   74.37 input  -60.11 | X-H torsion
[ 7974 7965 7964 7962 ] final  141.11 input  175.53 | X-H torsion
[ 8008 7997 7996 7995 ] final  -22.00 input   59.86 | X-H torsion
[ 10167 10162 10161 10158 ] final  -44.71 input  -65.29 | X-H torsion
[ 10718 10713 10712 10709 ] final   72.56 input   66.30 | X-H torsion
[ 10763 10752 10751 10750 ] final   73.21 input  -60.55 | X-H torsion
[ 11005 11000 10999 10996 ] final -139.51 input  -57.11 | X-H torsion

> <Gold.Protein.ActiveResidues>
 VAL166  LYS551  ARG553  GLY616  TRP617  ASP618  TYR619  PRO620  LYS621  CYS622 
 ASP623  PHE694  ASN695  SER759  ASP760  ASP761  ALA762  ILE779  LEU786  VAL792 
 PHE793  MET794  SER795  GLU796  ALA797  LYS798  CYS799  TRP800  GLU811  SER814 

> <Gold.Protein.RotatedAtoms>
  152.4972  134.4281  159.9502 H   0  0  0  0  0  0  0  0  0  0  0  0  # atno 6907 bound_to 6896
  151.4258  133.3678  159.2770 H   0  0  0  0  0  0  0  0  0  0  0  0  # atno 6908 bound_to 6896
  150.9190  134.8630  159.7536 H   0  0  0  0  0  0  0  0  0  0  0  0  # atno 6909 bound_to 6896
  144.9125  139.5273  143.5701 H   0  0  0  0  0  0  0  0  0  0  0  0  # atno 7974 bound_to 7965
  154.4670  140.2019  156.0091 H   0  0  0  0  0  0  0  0  0  0  0  0  # atno 8008 bound_to 7997
  156.0945  140.3253  155.7830 H   0  0  0  0  0  0  0  0  0  0  0  0  # atno 8009 bound_to 7997
  155.4901  140.0545  157.2945 H   0  0  0  0  0  0  0  0  0  0  0  0  # atno 8010 bound_to 7997
  140.6886  143.2916  151.3535 H   0  0  0  0  0  0  0  0  0  0  0  0  # atno 10167 bound_to 10162
  157.6507  130.9585  150.0946 H   0  0  0  0  0  0  0  0  0  0  0  0  # atno 10718 bound_to 10713
  153.0507  135.5071  154.7859 H   0  0  0  0  0  0  0  0  0  0  0  0  # atno 10763 bound_to 10752
  154.6724  135.2955  154.9727 H   0  0  0  0  0  0  0  0  0  0  0  0  # atno 10764 bound_to 10752
  154.0541  135.6700  153.4856 H   0  0  0  0  0  0  0  0  0  0  0  0  # atno 10765 bound_to 10752
  140.8512  134.2283  157.4759 H   0  0  0  0  0  0  0  0  0  0  0  0  # atno 11005 bound_to 11000
  146.3166  139.7943  142.8979 LP  0  0  0  0  0  0  0  0  0  0  0  0  # atno 17320 bound_to 7965
  145.3430  141.0291  143.3382 LP  0  0  0  0  0  0  0  0  0  0  0  0  # atno 17321 bound_to 7965
  139.6267  144.0800  152.2440 LP  0  0  0  0  0  0  0  0  0  0  0  0  # atno 17342 bound_to 10162
  140.0262  144.6116  150.7526 LP  0  0  0  0  0  0  0  0  0  0  0  0  # atno 17343 bound_to 10162
  156.1886  130.3653  149.8940 LP  0  0  0  0  0  0  0  0  0  0  0  0  # atno 17370 bound_to 10713
  156.6874  130.8882  151.3584 LP  0  0  0  0  0  0  0  0  0  0  0  0  # atno 17371 bound_to 10713
  139.8704  134.9684  156.4631 LP  0  0  0  0  0  0  0  0  0  0  0  0  # atno 17394 bound_to 11000
  140.8787  133.7934  155.9443 LP  0  0  0  0  0  0  0  0  0  0  0  0  # atno 17395 bound_to 11000

$$$$
