AV-unprocessed.smi:1830|AV-procd|sdf|7451|dock4
  -GOLD-   22720 9143D 1   1.00000     0.00000
 Structure written by MMmdl.
 54 57  0  0  0  0  0  0  0  0  3 V2000
  149.7853  135.7685  156.2079 O   0  0  0  0  0  0  0  0  0  0  0  0
  149.4191  135.8531  155.0363 C   0  0  0  0  0  0  0  0  0  0  0  0
  150.0003  136.6595  154.1374 N   0  0  0  0  0  0  0  0  0  0  0  0
  151.0911  137.5847  154.4291 C   0  0  0  0  0  0  0  0  0  0  0  0
  150.6699  138.7403  155.3568 C   0  0  1  0  0  0  0  0  0  0  0  0
  151.7589  139.1148  156.3937 C   0  0  0  0  0  0  0  0  0  0  0  0
  151.3161  140.3196  157.1197 N   0  3  1  0  0  0  0  0  0  0  0  0
  152.1926  140.8646  158.1707 C   0  0  0  0  0  0  0  0  0  0  0  0
  151.7894  142.3483  158.2895 C   0  0  0  0  0  0  0  0  0  0  0  0
  150.8007  142.6067  157.1377 C   0  0  0  0  0  0  0  0  0  0  0  0
  151.0462  141.4278  156.2012 C   0  0  2  0  0  0  0  0  0  0  0  0
  149.9224  141.0173  155.2420 C   0  0  0  0  0  0  0  0  0  0  0  0
  150.3718  139.8666  154.5246 O   0  0  0  0  0  0  0  0  0  0  0  0
  148.3895  135.1797  154.4957 N   0  0  0  0  0  0  0  0  0  0  0  0
  147.4796  134.2971  155.1455 C   0  0  0  0  0  0  0  0  0  0  0  0
  147.7042  133.8558  156.4752 C   0  0  0  0  0  0  0  0  0  0  0  0
  146.7750  133.0038  157.1009 C   0  0  0  0  0  0  0  0  0  0  0  0
  145.6345  132.6004  156.3865 C   0  0  0  0  0  0  0  0  0  0  0  0
  145.4590  133.0197  155.1166 N   0  3  0  0  0  0  0  0  0  0  0  0
  146.3242  133.8276  154.4538 C   0  0  0  0  0  0  0  0  0  0  0  0
  146.0110  134.1714  153.1186 N   0  0  0  0  0  0  0  0  0  0  0  0
  145.9115  135.5709  152.7194 C   0  0  0  0  0  0  0  0  0  0  0  0
  145.2264  135.5470  151.3559 C   0  0  0  0  0  0  0  0  0  0  0  0
  144.2607  134.3742  151.4948 C   0  0  0  0  0  0  0  0  0  0  0  0
  145.0120  133.3894  152.3971 C   0  0  0  0  0  0  0  0  0  0  0  0
  149.6369  136.6682  153.1954 H   0  0  0  0  0  0  0  0  0  0  0  0
  151.9013  137.0181  154.8893 H   0  0  0  0  0  0  0  0  0  0  0  0
  151.4902  137.9818  153.4941 H   0  0  0  0  0  0  0  0  0  0  0  0
  149.7552  138.4608  155.8827 H   0  0  0  0  0  0  0  0  0  0  0  0
  151.9169  138.3020  157.1033 H   0  0  0  0  0  0  0  0  0  0  0  0
  152.7125  139.3078  155.8996 H   0  0  0  0  0  0  0  0  0  0  0  0
  152.0688  140.3199  159.1068 H   0  0  0  0  0  0  0  0  0  0  0  0
  153.2367  140.7839  157.8643 H   0  0  0  0  0  0  0  0  0  0  0  0
  151.3278  142.5648  159.2534 H   0  0  0  0  0  0  0  0  0  0  0  0
  152.6696  142.9854  158.1968 H   0  0  0  0  0  0  0  0  0  0  0  0
  149.7771  142.5824  157.5144 H   0  0  0  0  0  0  0  0  0  0  0  0
  150.9584  143.5703  156.6524 H   0  0  0  0  0  0  0  0  0  0  0  0
  151.9503  141.6320  155.6232 H   0  0  0  0  0  0  0  0  0  0  0  0
  148.9975  140.7965  155.7772 H   0  0  0  0  0  0  0  0  0  0  0  0
  149.7085  141.8197  154.5359 H   0  0  0  0  0  0  0  0  0  0  0  0
  148.1536  135.4231  153.5450 H   0  0  0  0  0  0  0  0  0  0  0  0
  148.5818  134.1547  157.0281 H   0  0  0  0  0  0  0  0  0  0  0  0
  146.9348  132.6671  158.1148 H   0  0  0  0  0  0  0  0  0  0  0  0
  144.8666  131.9530  156.7850 H   0  0  0  0  0  0  0  0  0  0  0  0
  145.2964  136.1274  153.4275 H   0  0  0  0  0  0  0  0  0  0  0  0
  146.8935  136.0427  152.6700 H   0  0  0  0  0  0  0  0  0  0  0  0
  144.7285  136.4860  151.1133 H   0  0  0  0  0  0  0  0  0  0  0  0
  145.9569  135.3372  150.5730 H   0  0  0  0  0  0  0  0  0  0  0  0
  143.3498  134.7083  151.9933 H   0  0  0  0  0  0  0  0  0  0  0  0
  143.9774  133.9392  150.5360 H   0  0  0  0  0  0  0  0  0  0  0  0
  145.5240  132.6440  151.7880 H   0  0  0  0  0  0  0  0  0  0  0  0
  144.3293  132.8700  153.0712 H   0  0  0  0  0  0  0  0  0  0  0  0
  150.4371  140.0985  157.5656 H   0  0  0  0  0  0  0  0  0  0  0  0
  144.6258  132.7013  154.6215 H   0  0  0  0  0  0  0  0  0  0  0  0
  1  2  2  0  0  0  0
  2  3  1  0  0  0  0
  2 14  1  0  0  0  0
  3  4  1  0  0  0  0
  3 26  1  0  0  0  0
  4  5  1  0  0  0  0
  4 27  1  0  0  0  0
  4 28  1  0  0  0  0
  5 13  1  0  0  0  0
  5  6  1  0  0  0  0
  5 29  1  0  0  0  0
  6  7  1  0  0  0  0
  6 30  1  0  0  0  0
  6 31  1  0  0  0  0
  7 11  1  0  0  0  0
  7  8  1  0  0  0  0
  7 53  1  0  0  0  0
  8  9  1  0  0  0  0
  8 32  1  0  0  0  0
  8 33  1  0  0  0  0
  9 10  1  0  0  0  0
  9 34  1  0  0  0  0
  9 35  1  0  0  0  0
 10 11  1  0  0  0  0
 10 36  1  0  0  0  0
 10 37  1  0  0  0  0
 11 12  1  0  0  0  0
 11 38  1  0  0  0  0
 12 13  1  0  0  0  0
 12 39  1  0  0  0  0
 12 40  1  0  0  0  0
 14 15  1  0  0  0  0
 14 41  1  0  0  0  0
 15 20  1  0  0  0  0
 15 16  2  0  0  0  0
 16 17  1  0  0  0  0
 16 42  1  0  0  0  0
 17 18  2  0  0  0  0
 17 43  1  0  0  0  0
 18 19  1  0  0  0  0
 18 44  1  0  0  0  0
 19 20  2  0  0  0  0
 19 54  1  0  0  0  0
 20 21  1  0  0  0  0
 21 25  1  0  0  0  0
 21 22  1  0  0  0  0
 22 23  1  0  0  0  0
 22 45  1  0  0  0  0
 22 46  1  0  0  0  0
 23 24  1  0  0  0  0
 23 47  1  0  0  0  0
 23 48  1  0  0  0  0
 24 25  1  0  0  0  0
 24 49  1  0  0  0  0
 24 50  1  0  0  0  0
 25 51  1  0  0  0  0
 25 52  1  0  0  0  0
M  CHG  1   7   1
M  CHG  1  19   1
M  END
> <s_m_source_file>
AV-unprocessed.smi

> <i_m_source_file_index>
1830

> <i_lp_mmshare_version>
43012

> <i_f3d_flags>
0

> <s_epik_input>
W0NIMl0xW0NIMl1bQ0gyXVtDQEhdKE4xMilbQ0gyXU9bQ0BASF0oW0NIMl0yKVtDSDJdW05IXUMoPU8pW05IXWMzW2NIXVtjSF1bY0hdbmMzTjRbQ0gyXVtDSDJdW0NIMl1bQ0gyXTQ=

> <s_epik_cmdline>
J2VwaWtfcHl0aG9uJywgJy1waCcsICc3LjAnLCAnLXRuJywgJzgnLCAnLW1hJywgJzIwMCcsICctbWV0YWxfYmluZGluZycsICctaW1hZScsICc8aW5maWxlLm1hZT4nLCAnLW9tYWUnLCAnPG91dGZpbGUubWFlPic=

> <r_lp_tautomer_probability>
0.999994

> <r_epik_Ionization_Penalty>
1.29113

> <r_epik_Ionization_Penalty_Charging>
1.29111

> <r_epik_Ionization_Penalty_Neutral>
1.88144e-05

> <r_epik_State_Penalty>
1.32676

> <r_epik_Charging_Adjusted_Penalty>
2.61787

> <i_epik_Tot_Q>
2

> <i_epik_Tot_abs_Q>
2

> <r_epik_Metal_State_Penalty>
1.40425

> <b_epik_Metal_Only>
0

> <s_lp_Force_Field>
OPLS_2005

> <r_lp_Energy>
72.9797

> <b_lp_Chiralities_Consistent>
1

> <s_lp_Variant>
AV-unprocessed.smi:1830-20

> <Gold.Version>
5.8.1

> <Gold.Id.Protein>
6NUR|6NUR_protein|mol2

> <Gold.PLP.Fitness>
41.5715

> <Gold.PLP.PLP>
-31.2744

> <Gold.PLP.part.hbond>
-4.9058

> <Gold.PLP.part.metal>
0.0000

> <Gold.PLP.part.buried>
-3.5297

> <Gold.PLP.part.nonpolar>
-24.2735

> <Gold.PLP.part.repulsive>
0.3315

> <Gold.PLP.ligand.clash>
0.0000

> <Gold.PLP.ligand.torsion>
0.8033

> <Gold.PLP.Chemscore.Hbond>
3.8362

> <Gold.PLP.Chemscore.CHOScore>
0.0000

> <Gold.PLP.Chemscore.Metal>
0.0000

> <Gold.Chemscore.Hbonds>
donor molecule, donor type, donor heavy atom, donor atom, acceptor molecule, acceptor atom, score
      L1  H     3    26       P1  7948  0.98
      L1  H    14    41       P1  7948  0.83
      L1  H    19    54       P1 10957  1.22
      P1  H  7989  7998       L1    13  0.65

> <Gold.PLP.Chemscore.Internal.Correction>
0.3951

> <Gold.Rescore>
     Score         DG    S(hbond)    S(metal)    S(lipo)     H(rot)  DE(clash)    DE(int)     intcor
     15.64     -17.87       1.94        0.00      81.75       1.43       0.24       1.99       ----

> <Gold.Chemscore.Fitness>
15.6429

> <Gold.Chemscore.DG>
-17.8728

> <Gold.Chemscore.ZeroCoef>
-5.4800

> <Gold.Chemscore.Hbond>
1.9410

> <Gold.Chemscore.Metal>
0.0000

> <Gold.Chemscore.Lipo>
81.7525

> <Gold.Chemscore.Internal_Hbond>
0.0000

> <Gold.Chemscore.DEClash>
0.2391

> <Gold.Chemscore.DEInternal>
1.9908

> <Gold.Chemscore.Rot>
1.4278

> <Gold.Chemscore.Internal.Correction>
   9.000000E+99

> <Gold.Chemscore.Hbonds>
donor molecule, donor type, donor heavy atom, donor atom, acceptor molecule, acceptor atom, score
      L1  H     3    26       P1  7948  0.41
      L1  H    14    41       P1  7948  0.77
      L1  H    19    54       P1 10957  0.56
      P1  H  7989  7998       L1    13  0.06

> <Gold.Chemscore.Hbond.Weighted>
-6.4829

> <Gold.Chemscore.Metal.Weighted>
-0.0000

> <Gold.Chemscore.Lipo.Weighted>
-9.5650

> <Gold.Chemscore.Internal_Hbond.Weighted>
0.0000

> <Gold.Chemscore.DEClash.Weighted>
0.2391

> <Gold.Chemscore.DEInternal.Weighted>
1.9908

> <Gold.Chemscore.Rot.Weighted>
3.6551

> <Gold.Chemscore.Internal.Correction.Weighted>
   9.000000E+99

> <Gold.Protein.RotatedTorsions>
[ 6907 6896 6895 6894 ] final   -5.94 input  -60.11 | X-H torsion
[ 7974 7965 7964 7962 ] final  157.51 input  175.53 | X-H torsion
[ 8008 7997 7996 7995 ] final -164.78 input   59.86 | X-H torsion
[ 10167 10162 10161 10158 ] final  -73.51 input  -65.29 | X-H torsion
[ 10718 10713 10712 10709 ] final  151.20 input   66.30 | X-H torsion
[ 10763 10752 10751 10750 ] final   62.28 input  -60.55 | X-H torsion
[ 11005 11000 10999 10996 ] final   76.84 input  -57.11 | X-H torsion

> <Gold.Protein.ActiveResidues>
 VAL166  LYS551  ARG553  GLY616  TRP617  ASP618  TYR619  PRO620  LYS621  CYS622 
 ASP623  PHE694  ASN695  SER759  ASP760  ASP761  ALA762  ILE779  LEU786  VAL792 
 PHE793  MET794  SER795  GLU796  ALA797  LYS798  CYS799  TRP800  GLU811  SER814 

> <Gold.Protein.RotatedAtoms>
  151.4736  135.1047  159.9758 H   0  0  0  0  0  0  0  0  0  0  0  0  # atno 6907 bound_to 6896
  152.4807  133.8243  159.7080 H   0  0  0  0  0  0  0  0  0  0  0  0  # atno 6908 bound_to 6896
  150.8876  133.7225  159.2940 H   0  0  0  0  0  0  0  0  0  0  0  0  # atno 6909 bound_to 6896
  144.7899  139.7351  143.6225 H   0  0  0  0  0  0  0  0  0  0  0  0  # atno 7974 bound_to 7965
  155.8405  140.0947  157.1737 H   0  0  0  0  0  0  0  0  0  0  0  0  # atno 8008 bound_to 7997
  154.3982  140.1402  156.3784 H   0  0  0  0  0  0  0  0  0  0  0  0  # atno 8009 bound_to 7997
  155.8070  140.3451  155.5438 H   0  0  0  0  0  0  0  0  0  0  0  0  # atno 8010 bound_to 7997
  140.5104  143.2346  151.7603 H   0  0  0  0  0  0  0  0  0  0  0  0  # atno 10167 bound_to 10162
  157.2737  131.0822  151.1581 H   0  0  0  0  0  0  0  0  0  0  0  0  # atno 10718 bound_to 10713
  152.9977  135.5471  154.6167 H   0  0  0  0  0  0  0  0  0  0  0  0  # atno 10763 bound_to 10752
  154.5476  135.2824  155.1041 H   0  0  0  0  0  0  0  0  0  0  0  0  # atno 10764 bound_to 10752
  154.2293  135.6436  153.5223 H   0  0  0  0  0  0  0  0  0  0  0  0  # atno 10765 bound_to 10752
  139.9280  134.7634  156.1446 H   0  0  0  0  0  0  0  0  0  0  0  0  # atno 11005 bound_to 11000
  146.2147  139.5527  142.9658 LP  0  0  0  0  0  0  0  0  0  0  0  0  # atno 17320 bound_to 7965
  145.5822  141.0381  143.2116 LP  0  0  0  0  0  0  0  0  0  0  0  0  # atno 17321 bound_to 7965
  139.4894  144.4399  151.9777 LP  0  0  0  0  0  0  0  0  0  0  0  0  # atno 17342 bound_to 10162
  140.3491  144.3111  150.5952 LP  0  0  0  0  0  0  0  0  0  0  0  0  # atno 17343 bound_to 10162
  157.3043  130.6858  149.6181 LP  0  0  0  0  0  0  0  0  0  0  0  0  # atno 17370 bound_to 10713
  155.9663  130.4382  150.5209 LP  0  0  0  0  0  0  0  0  0  0  0  0  # atno 17371 bound_to 10713
  141.0851  133.6737  156.2419 LP  0  0  0  0  0  0  0  0  0  0  0  0  # atno 17394 bound_to 11000
  140.6280  134.5293  157.5556 LP  0  0  0  0  0  0  0  0  0  0  0  0  # atno 17395 bound_to 11000

$$$$
