AV-unprocessed.smi:527|AV-procd|sdf|2827|dock5
  -GOLD-   2262023313D 1   1.00000     0.00000
 Structure written by MMmdl.
 43 44  0  0  0  0  0  0  0  0  2 V2000
  149.4479  141.2061  156.0340 C   0  0  0  0  0  0  0  0  0  0  0  0
  149.1980  141.1393  154.5132 C   0  0  2  0  0  0  0  0  0  0  0  0
  147.9790  141.9887  154.0991 C   0  0  0  0  0  0  0  0  0  0  0  0
  146.6497  141.3421  154.5189 C   0  0  0  0  0  0  0  0  0  0  0  0
  146.5274  139.9147  153.9680 C   0  0  0  0  0  0  0  0  0  0  0  0
  147.7296  139.0363  154.3730 C   0  0  1  0  0  0  0  0  0  0  0  0
  147.5994  137.7146  153.7622 N   0  0  0  0  0  0  0  0  0  0  0  0
  146.6076  136.8432  153.9989 C   0  0  0  0  0  0  0  0  0  0  0  0
  145.6748  137.0711  154.7721 O   0  0  0  0  0  0  0  0  0  0  0  0
  146.7782  135.7131  153.2859 N   0  0  0  0  0  0  0  0  0  0  0  0
  145.9868  134.6213  153.2740 C   0  0  0  0  0  0  0  0  0  0  0  0
  144.9526  134.4905  153.9342 O   0  0  0  0  0  0  0  0  0  0  0  0
  146.4651  133.4916  152.3528 C   0  0  0  0  0  0  0  0  0  0  0  0
  145.5289  133.2045  151.2585 N   0  0  0  0  0  0  0  0  0  0  0  0
  145.7094  132.3294  150.2175 C   0  0  0  0  0  0  0  0  0  0  0  0
  144.5783  132.4017  149.4458 C   0  0  0  0  0  0  0  0  0  0  0  0
  143.7566  133.3176  150.0464 N   0  3  0  0  0  0  0  0  0  0  0  0
  144.3363  133.8051  151.1482 C   0  0  0  0  0  0  0  0  0  0  0  0
  149.0683  139.6974  153.9534 C   0  0  2  0  0  0  0  0  0  0  0  0
  150.2988  138.8275  154.2793 C   0  0  0  0  0  0  0  0  0  0  0  0
  148.6537  140.7259  156.6045 H   0  0  0  0  0  0  0  0  0  0  0  0
  149.5127  142.2408  156.3711 H   0  0  0  0  0  0  0  0  0  0  0  0
  150.3872  140.7258  156.3069 H   0  0  0  0  0  0  0  0  0  0  0  0
  150.0705  141.5939  154.0422 H   0  0  0  0  0  0  0  0  0  0  0  0
  148.0546  142.9917  154.5207 H   0  0  0  0  0  0  0  0  0  0  0  0
  147.9836  142.1173  153.0158 H   0  0  0  0  0  0  0  0  0  0  0  0
  146.5678  141.3252  155.6060 H   0  0  0  0  0  0  0  0  0  0  0  0
  145.8168  141.9473  154.1602 H   0  0  0  0  0  0  0  0  0  0  0  0
  145.5974  139.4683  154.3220 H   0  0  0  0  0  0  0  0  0  0  0  0
  146.4528  139.9561  152.8804 H   0  0  0  0  0  0  0  0  0  0  0  0
  147.7295  138.9197  155.4581 H   0  0  0  0  0  0  0  0  0  0  0  0
  148.3279  137.4437  153.1181 H   0  0  0  0  0  0  0  0  0  0  0  0
  147.5942  135.6796  152.6928 H   0  0  0  0  0  0  0  0  0  0  0  0
  147.4266  133.7570  151.9109 H   0  0  0  0  0  0  0  0  0  0  0  0
  146.6104  132.5782  152.9312 H   0  0  0  0  0  0  0  0  0  0  0  0
  146.6064  131.7377  150.1046 H   0  0  0  0  0  0  0  0  0  0  0  0
  144.3045  131.8845  148.5377 H   0  0  0  0  0  0  0  0  0  0  0  0
  143.9239  134.5422  151.8142 H   0  0  0  0  0  0  0  0  0  0  0  0
  149.0481  139.7934  152.8664 H   0  0  0  0  0  0  0  0  0  0  0  0
  150.3366  138.5640  155.3363 H   0  0  0  0  0  0  0  0  0  0  0  0
  151.2241  139.3473  154.0295 H   0  0  0  0  0  0  0  0  0  0  0  0
  150.2921  137.8967  153.7118 H   0  0  0  0  0  0  0  0  0  0  0  0
  142.8432  133.5912  149.7060 H   0  0  0  0  0  0  0  0  0  0  0  0
  1  2  1  0  0  0  0
  1 21  1  0  0  0  0
  1 22  1  0  0  0  0
  1 23  1  0  0  0  0
  2 19  1  0  0  0  0
  2  3  1  0  0  0  0
  2 24  1  0  0  0  0
  3  4  1  0  0  0  0
  3 25  1  0  0  0  0
  3 26  1  0  0  0  0
  4  5  1  0  0  0  0
  4 27  1  0  0  0  0
  4 28  1  0  0  0  0
  5  6  1  0  0  0  0
  5 29  1  0  0  0  0
  5 30  1  0  0  0  0
  6  7  1  0  0  0  0
  6 19  1  0  0  0  0
  6 31  1  0  0  0  0
  7  8  1  0  0  0  0
  7 32  1  0  0  0  0
  8  9  2  0  0  0  0
  8 10  1  0  0  0  0
 10 11  1  0  0  0  0
 10 33  1  0  0  0  0
 11 12  2  0  0  0  0
 11 13  1  0  0  0  0
 13 14  1  0  0  0  0
 13 34  1  0  0  0  0
 13 35  1  0  0  0  0
 14 18  1  0  0  0  0
 14 15  1  0  0  0  0
 15 16  2  0  0  0  0
 15 36  1  0  0  0  0
 16 17  1  0  0  0  0
 16 37  1  0  0  0  0
 17 18  2  0  0  0  0
 17 43  1  0  0  0  0
 18 38  1  0  0  0  0
 19 20  1  0  0  0  0
 19 39  1  0  0  0  0
 20 40  1  0  0  0  0
 20 41  1  0  0  0  0
 20 42  1  0  0  0  0
M  CHG  1  17   1
M  END
> <s_m_source_file>
AV-unprocessed.smi

> <i_m_source_file_index>
527

> <i_lp_mmshare_version>
43012

> <i_f3d_flags>
0

> <s_epik_input>
W0NIM11bQ0BASF0xW0NIMl1bQ0gyXVtDSDJdW0NASF0oW0NASF0xW0NIM10pW05IXUMoPU8pW05IXUMoPU8pW0NIMl1uMltjSF1bY0hdbltjSF0y

> <s_epik_cmdline>
J2VwaWtfcHl0aG9uJywgJy1waCcsICc3LjAnLCAnLXRuJywgJzgnLCAnLW1hJywgJzIwMCcsICctbWV0YWxfYmluZGluZycsICctaW1hZScsICc8aW5maWxlLm1hZT4nLCAnLW9tYWUnLCAnPG91dGZpbGUubWFlPic=

> <r_lp_tautomer_probability>
1

> <r_epik_Ionization_Penalty>
0.816441

> <r_epik_Ionization_Penalty_Charging>
0

> <r_epik_Ionization_Penalty_Neutral>
0.816441

> <r_epik_State_Penalty>
0.849034

> <r_epik_Charging_Adjusted_Penalty>
0.849034

> <i_epik_Tot_Q>
1

> <i_epik_Tot_abs_Q>
1

> <r_epik_Metal_State_Penalty>
0.984327

> <b_epik_Metal_Only>
0

> <s_lp_Force_Field>
OPLS_2005

> <r_lp_Energy>
18.5197

> <b_lp_Chiralities_Consistent>
1

> <s_lp_Variant>
AV-unprocessed.smi:527-13

> <Gold.Version>
5.8.1

> <Gold.Id.Protein>
6NUR|6NUR_protein|mol2

> <Gold.PLP.Fitness>
47.8832

> <Gold.PLP.PLP>
-33.0003

> <Gold.PLP.part.hbond>
-3.0000

> <Gold.PLP.part.metal>
0.0000

> <Gold.PLP.part.buried>
-1.6738

> <Gold.PLP.part.nonpolar>
-28.1010

> <Gold.PLP.part.repulsive>
0.1795

> <Gold.PLP.ligand.clash>
0.0000

> <Gold.PLP.ligand.torsion>
0.0535

> <Gold.PLP.Chemscore.Hbond>
3.9920

> <Gold.PLP.Chemscore.CHOScore>
1.0000

> <Gold.PLP.Chemscore.Metal>
0.0000

> <Gold.Chemscore.Hbonds>
donor molecule, donor type, donor heavy atom, donor atom, acceptor molecule, acceptor atom, score
      L1  H     7    32       P1  7948  0.99
      L1  H    10    33       P1  7948  1.00
      L1  H    17    43       P1 10186  2.00
      L1  C    15    36       P1 10747  1.00

> <Gold.PLP.Chemscore.Internal.Correction>
0.0138

> <Gold.Rescore>
     Score         DG    S(hbond)    S(metal)    S(lipo)     H(rot)  DE(clash)    DE(int)     intcor
     17.10     -19.84       2.95        0.00      75.87       1.71       0.18       2.56       ----

> <Gold.Chemscore.Fitness>
17.0973

> <Gold.Chemscore.DG>
-19.8358

> <Gold.Chemscore.ZeroCoef>
-5.4800

> <Gold.Chemscore.Hbond>
2.9472

> <Gold.Chemscore.Metal>
0.0000

> <Gold.Chemscore.Lipo>
75.8746

> <Gold.Chemscore.Internal_Hbond>
0.0000

> <Gold.Chemscore.DEClash>
0.1750

> <Gold.Chemscore.DEInternal>
2.5634

> <Gold.Chemscore.Rot>
1.7052

> <Gold.Chemscore.Internal.Correction>
   9.000000E+99

> <Gold.Chemscore.Hbonds>
donor molecule, donor type, donor heavy atom, donor atom, acceptor molecule, acceptor atom, score
      L1  H     7    32       P1  7948  0.93
      L1  H    10    33       P1  7948  0.99
      L1  H    17    43       P1 10186  0.94

> <Gold.Chemscore.Hbond.Weighted>
-9.8438

> <Gold.Chemscore.Metal.Weighted>
-0.0000

> <Gold.Chemscore.Lipo.Weighted>
-8.8773

> <Gold.Chemscore.Internal_Hbond.Weighted>
0.0000

> <Gold.Chemscore.DEClash.Weighted>
0.1750

> <Gold.Chemscore.DEInternal.Weighted>
2.5634

> <Gold.Chemscore.Rot.Weighted>
4.3653

> <Gold.Chemscore.Internal.Correction.Weighted>
   9.000000E+99

> <Gold.Protein.RotatedTorsions>
[ 6907 6896 6895 6894 ] final  -75.44 input  -60.11 | X-H torsion
[ 7974 7965 7964 7962 ] final -148.96 input  175.53 | X-H torsion
[ 8008 7997 7996 7995 ] final -111.80 input   59.86 | X-H torsion
[ 10167 10162 10161 10158 ] final  -54.55 input  -65.29 | X-H torsion
[ 10718 10713 10712 10709 ] final   39.11 input   66.30 | X-H torsion
[ 10763 10752 10751 10750 ] final  177.50 input  -60.55 | X-H torsion
[ 11005 11000 10999 10996 ] final  -10.59 input  -57.11 | X-H torsion

> <Gold.Protein.ActiveResidues>
 VAL166  LYS551  ARG553  GLY616  TRP617  ASP618  TYR619  PRO620  LYS621  CYS622 
 ASP623  PHE694  ASN695  SER759  ASP760  ASP761  ALA762  ILE779  LEU786  VAL792 
 PHE793  MET794  SER795  GLU796  ALA797  LYS798  CYS799  TRP800  GLU811  SER814 

> <Gold.Protein.RotatedAtoms>
  150.7059  134.4721  159.5429 H   0  0  0  0  0  0  0  0  0  0  0  0  # atno 6907 bound_to 6896
  152.2375  134.8258  160.0474 H   0  0  0  0  0  0  0  0  0  0  0  0  # atno 6908 bound_to 6896
  151.9052  133.3512  159.3881 H   0  0  0  0  0  0  0  0  0  0  0  0  # atno 6909 bound_to 6896
  144.7996  140.5127  143.5716 H   0  0  0  0  0  0  0  0  0  0  0  0  # atno 7974 bound_to 7965
  154.9954  140.0395  157.2337 H   0  0  0  0  0  0  0  0  0  0  0  0  # atno 8008 bound_to 7997
  154.7591  140.2781  155.6206 H   0  0  0  0  0  0  0  0  0  0  0  0  # atno 8009 bound_to 7997
  156.2900  140.2632  156.2365 H   0  0  0  0  0  0  0  0  0  0  0  0  # atno 8010 bound_to 7997
  140.6424  143.2515  151.4952 H   0  0  0  0  0  0  0  0  0  0  0  0  # atno 10167 bound_to 10162
  157.3667  130.7679  149.7088 H   0  0  0  0  0  0  0  0  0  0  0  0  # atno 10718 bound_to 10713
  154.4953  135.2781  155.1464 H   0  0  0  0  0  0  0  0  0  0  0  0  # atno 10763 bound_to 10752
  154.3119  135.6227  153.5473 H   0  0  0  0  0  0  0  0  0  0  0  0  # atno 10764 bound_to 10752
  152.9894  135.5722  154.5383 H   0  0  0  0  0  0  0  0  0  0  0  0  # atno 10765 bound_to 10752
  140.7464  133.8628  155.9009 H   0  0  0  0  0  0  0  0  0  0  0  0  # atno 11005 bound_to 11000
  145.5585  139.1478  143.3354 LP  0  0  0  0  0  0  0  0  0  0  0  0  # atno 17320 bound_to 7965
  146.2274  140.5722  142.8990 LP  0  0  0  0  0  0  0  0  0  0  0  0  # atno 17321 bound_to 7965
  139.5634  144.2101  152.1727 LP  0  0  0  0  0  0  0  0  0  0  0  0  # atno 17342 bound_to 10162
  140.1376  144.5232  150.6764 LP  0  0  0  0  0  0  0  0  0  0  0  0  # atno 17343 bound_to 10162
  155.9747  130.4099  150.3900 LP  0  0  0  0  0  0  0  0  0  0  0  0  # atno 17370 bound_to 10713
  157.1985  131.0432  151.2663 LP  0  0  0  0  0  0  0  0  0  0  0  0  # atno 17371 bound_to 10713
  140.9790  134.1430  157.4510 LP  0  0  0  0  0  0  0  0  0  0  0  0  # atno 17394 bound_to 11000
  139.8796  135.0004  156.6010 LP  0  0  0  0  0  0  0  0  0  0  0  0  # atno 17395 bound_to 11000

$$$$
