AV-unprocessed.smi:1252|AV-procd|sdf|5266|dock9
  -GOLD-   22720 4383D 1   1.00000     0.00000
 Structure written by MMmdl.
 44 45  0  0  0  0  0  0  0  0  2 V2000
  147.5751  133.0783  153.2255 C   0  0  0  0  0  0  0  0  0  0  0  0
  146.8987  134.1371  152.3349 C   0  0  2  0  0  0  0  0  0  0  0  0
  146.1394  135.2059  153.1352 C   0  0  0  0  0  0  0  0  0  0  0  0
  145.1083  134.9301  153.7486 O   0  0  0  0  0  0  0  0  0  0  0  0
  146.6514  136.4446  153.0764 N   0  0  0  0  0  0  0  0  0  0  0  0
  146.0209  137.6621  153.5810 C   0  0  0  0  0  0  0  0  0  0  0  0
  146.8222  138.9529  153.2295 C   0  0  0  0  0  0  0  0  0  0  0  0
  148.2571  138.7842  153.7886 C   0  0  0  0  0  0  0  0  0  0  0  0
  146.9274  139.0582  151.6907 C   0  0  0  0  0  0  0  0  0  0  0  0
  146.1651  140.1709  153.8305 N   0  3  0  0  0  0  0  0  0  0  0  0
  145.8051  140.0768  155.2733 C   0  0  0  0  0  0  0  0  0  0  0  0
  145.0005  141.3118  155.7146 C   0  0  0  0  0  0  0  0  0  0  0  0
  145.7378  142.4953  155.4435 O   0  0  0  0  0  0  0  0  0  0  0  0
  146.0040  142.6425  154.0563 C   0  0  0  0  0  0  0  0  0  0  0  0
  146.8613  141.4625  153.5727 C   0  0  0  0  0  0  0  0  0  0  0  0
  145.9944  133.5173  151.3740 N   0  0  0  0  0  0  0  0  0  0  0  0
  146.2246  132.6275  150.4044 C   0  0  0  0  0  0  0  0  0  0  0  0
  145.1334  132.2470  149.7554 N   0  0  0  0  0  0  0  0  0  0  0  0
  144.2024  132.9997  150.4127 C   0  0  0  0  0  0  0  0  0  0  0  0
  144.6625  133.7632  151.4035 N   0  0  0  0  0  0  0  0  0  0  0  0
  148.2897  133.5377  153.9096 H   0  0  0  0  0  0  0  0  0  0  0  0
  148.1228  132.3550  152.6207 H   0  0  0  0  0  0  0  0  0  0  0  0
  146.8494  132.5254  153.8233 H   0  0  0  0  0  0  0  0  0  0  0  0
  147.6849  134.6501  151.7779 H   0  0  0  0  0  0  0  0  0  0  0  0
  147.5183  136.5626  152.5718 H   0  0  0  0  0  0  0  0  0  0  0  0
  144.9899  137.7352  153.2300 H   0  0  0  0  0  0  0  0  0  0  0  0
  145.9363  137.5505  154.6619 H   0  0  0  0  0  0  0  0  0  0  0  0
  148.6751  137.8123  153.5240 H   0  0  0  0  0  0  0  0  0  0  0  0
  148.2813  138.8639  154.8757 H   0  0  0  0  0  0  0  0  0  0  0  0
  148.9463  139.5278  153.3881 H   0  0  0  0  0  0  0  0  0  0  0  0
  147.4358  138.1863  151.2772 H   0  0  0  0  0  0  0  0  0  0  0  0
  147.4946  139.9340  151.3766 H   0  0  0  0  0  0  0  0  0  0  0  0
  145.9499  139.1066  151.2116 H   0  0  0  0  0  0  0  0  0  0  0  0
  145.1927  139.2006  155.4772 H   0  0  0  0  0  0  0  0  0  0  0  0
  146.7066  139.9910  155.8804 H   0  0  0  0  0  0  0  0  0  0  0  0
  144.0348  141.3480  155.2098 H   0  0  0  0  0  0  0  0  0  0  0  0
  144.7959  141.2627  156.7842 H   0  0  0  0  0  0  0  0  0  0  0  0
  145.0710  142.7053  153.4941 H   0  0  0  0  0  0  0  0  0  0  0  0
  146.5346  143.5815  153.8981 H   0  0  0  0  0  0  0  0  0  0  0  0
  147.8218  141.4821  154.0884 H   0  0  0  0  0  0  0  0  0  0  0  0
  147.0642  141.6016  152.5125 H   0  0  0  0  0  0  0  0  0  0  0  0
  147.2075  132.2398  150.1794 H   0  0  0  0  0  0  0  0  0  0  0  0
  143.1512  132.9694  150.1668 H   0  0  0  0  0  0  0  0  0  0  0  0
  145.2810  140.2443  153.3475 H   0  0  0  0  0  0  0  0  0  0  0  0
  1  2  1  0  0  0  0
  1 21  1  0  0  0  0
  1 22  1  0  0  0  0
  1 23  1  0  0  0  0
  2  3  1  0  0  0  0
  2 16  1  0  0  0  0
  2 24  1  0  0  0  0
  3  4  2  0  0  0  0
  3  5  1  0  0  0  0
  5  6  1  0  0  0  0
  5 25  1  0  0  0  0
  6  7  1  0  0  0  0
  6 26  1  0  0  0  0
  6 27  1  0  0  0  0
  7  8  1  0  0  0  0
  7  9  1  0  0  0  0
  7 10  1  0  0  0  0
  8 28  1  0  0  0  0
  8 29  1  0  0  0  0
  8 30  1  0  0  0  0
  9 31  1  0  0  0  0
  9 32  1  0  0  0  0
  9 33  1  0  0  0  0
 10 15  1  0  0  0  0
 10 11  1  0  0  0  0
 10 44  1  0  0  0  0
 11 12  1  0  0  0  0
 11 34  1  0  0  0  0
 11 35  1  0  0  0  0
 12 13  1  0  0  0  0
 12 36  1  0  0  0  0
 12 37  1  0  0  0  0
 13 14  1  0  0  0  0
 14 15  1  0  0  0  0
 14 38  1  0  0  0  0
 14 39  1  0  0  0  0
 15 40  1  0  0  0  0
 15 41  1  0  0  0  0
 16 20  1  0  0  0  0
 16 17  1  0  0  0  0
 17 18  2  0  0  0  0
 17 42  1  0  0  0  0
 18 19  1  0  0  0  0
 19 20  2  0  0  0  0
 19 43  1  0  0  0  0
M  CHG  1  10   1
M  END
> <s_m_source_file>
AV-unprocessed.smi

> <i_m_source_file_index>
1252

> <i_lp_mmshare_version>
43012

> <i_f3d_flags>
0

> <s_epik_input>
bjFbY0hdbltjSF1uMVtDQEhdKFtDSDNdKUMoPU8pW05IXVtDSDJdQyhbQ0gzXSkoW0NIM10pTjJbQ0gyXVtDSDJdT1tDSDJdW0NIMl0y

> <s_epik_cmdline>
J2VwaWtfcHl0aG9uJywgJy1waCcsICc3LjAnLCAnLXRuJywgJzgnLCAnLW1hJywgJzIwMCcsICctbWV0YWxfYmluZGluZycsICctaW1hZScsICc8aW5maWxlLm1hZT4nLCAnLW9tYWUnLCAnPG91dGZpbGUubWFlPic=

> <r_lp_tautomer_probability>
1

> <r_epik_Ionization_Penalty>
0.71326

> <r_epik_Ionization_Penalty_Charging>
0.713252

> <r_epik_Ionization_Penalty_Neutral>
8.22342e-06

> <r_epik_State_Penalty>
0.737017

> <r_epik_Charging_Adjusted_Penalty>
1.45027

> <i_epik_Tot_Q>
1

> <i_epik_Tot_abs_Q>
1

> <r_epik_Metal_State_Penalty>
0.73702

> <b_epik_Metal_Only>
0

> <s_lp_Force_Field>
OPLS_2005

> <r_lp_Energy>
34.1677

> <b_lp_Chiralities_Consistent>
1

> <s_lp_Variant>
AV-unprocessed.smi:1252-3

> <Gold.Version>
5.8.1

> <Gold.Id.Protein>
6NUR|6NUR_protein|mol2

> <Gold.PLP.Fitness>
44.0510

> <Gold.PLP.PLP>
-29.3605

> <Gold.PLP.part.hbond>
-2.0000

> <Gold.PLP.part.metal>
0.0000

> <Gold.PLP.part.buried>
-1.6959

> <Gold.PLP.part.nonpolar>
-26.1929

> <Gold.PLP.part.repulsive>
0.5187

> <Gold.PLP.ligand.clash>
0.0000

> <Gold.PLP.ligand.torsion>
0.2463

> <Gold.PLP.Chemscore.Hbond>
3.0000

> <Gold.PLP.Chemscore.CHOScore>
2.0000

> <Gold.PLP.Chemscore.Metal>
0.0000

> <Gold.Chemscore.Hbonds>
donor molecule, donor type, donor heavy atom, donor atom, acceptor molecule, acceptor atom, score
      L1  H     5    25       P1  7948  1.00
      L1  H    10    44       P1 10175  2.00
      L1  C    17    42       P1 10747  1.00
      L1  C    19    43       P1 10186  0.67

> <Gold.PLP.Chemscore.Internal.Correction>
0.1832

> <Gold.Rescore>
     Score         DG    S(hbond)    S(metal)    S(lipo)     H(rot)  DE(clash)    DE(int)     intcor
      9.99     -11.49       1.99        0.00      51.00       2.59       0.01       1.49       ----

> <Gold.Chemscore.Fitness>
9.9888

> <Gold.Chemscore.DG>
-11.4854

> <Gold.Chemscore.ZeroCoef>
-5.4800

> <Gold.Chemscore.Hbond>
1.9937

> <Gold.Chemscore.Metal>
0.0000

> <Gold.Chemscore.Lipo>
51.0040

> <Gold.Chemscore.Internal_Hbond>
0.0000

> <Gold.Chemscore.DEClash>
0.0098

> <Gold.Chemscore.DEInternal>
1.4868

> <Gold.Chemscore.Rot>
2.5864

> <Gold.Chemscore.Internal.Correction>
   9.000000E+99

> <Gold.Chemscore.Hbonds>
donor molecule, donor type, donor heavy atom, donor atom, acceptor molecule, acceptor atom, score
      L1  H     5    25       P1  7948  0.99
      L1  H    10    44       P1 10175  1.00

> <Gold.Chemscore.Hbond.Weighted>
-6.6590

> <Gold.Chemscore.Metal.Weighted>
-0.0000

> <Gold.Chemscore.Lipo.Weighted>
-5.9675

> <Gold.Chemscore.Internal_Hbond.Weighted>
0.0000

> <Gold.Chemscore.DEClash.Weighted>
0.0098

> <Gold.Chemscore.DEInternal.Weighted>
1.4868

> <Gold.Chemscore.Rot.Weighted>
6.6211

> <Gold.Chemscore.Internal.Correction.Weighted>
   9.000000E+99

> <Gold.Protein.RotatedTorsions>
[ 6907 6896 6895 6894 ] final  -53.71 input  -60.11 | X-H torsion
[ 7974 7965 7964 7962 ] final -150.35 input  175.53 | X-H torsion
[ 8008 7997 7996 7995 ] final  118.88 input   59.86 | X-H torsion
[ 10167 10162 10161 10158 ] final  -16.16 input  -65.29 | X-H torsion
[ 10718 10713 10712 10709 ] final -113.03 input   66.30 | X-H torsion
[ 10763 10752 10751 10750 ] final  170.42 input  -60.55 | X-H torsion
[ 11005 11000 10999 10996 ] final  106.81 input  -57.11 | X-H torsion

> <Gold.Protein.ActiveResidues>
 VAL166  LYS551  ARG553  GLY616  TRP617  ASP618  TYR619  PRO620  LYS621  CYS622 
 ASP623  PHE694  ASN695  SER759  ASP760  ASP761  ALA762  ILE779  LEU786  VAL792 
 PHE793  MET794  SER795  GLU796  ALA797  LYS798  CYS799  TRP800  GLU811  SER814 

> <Gold.Protein.RotatedAtoms>
  150.8403  134.7692  159.6926 H   0  0  0  0  0  0  0  0  0  0  0  0  # atno 6907 bound_to 6896
  152.4491  134.5428  159.9854 H   0  0  0  0  0  0  0  0  0  0  0  0  # atno 6908 bound_to 6896
  151.5569  133.3371  159.2999 H   0  0  0  0  0  0  0  0  0  0  0  0  # atno 6909 bound_to 6896
  144.7913  140.4943  143.5771 H   0  0  0  0  0  0  0  0  0  0  0  0  # atno 7974 bound_to 7965
  156.2568  140.2865  156.0904 H   0  0  0  0  0  0  0  0  0  0  0  0  # atno 8008 bound_to 7997
  155.1470  140.0396  157.2829 H   0  0  0  0  0  0  0  0  0  0  0  0  # atno 8009 bound_to 7997
  154.6488  140.2540  155.7243 H   0  0  0  0  0  0  0  0  0  0  0  0  # atno 8010 bound_to 7997
  140.7229  143.5144  150.9710 H   0  0  0  0  0  0  0  0  0  0  0  0  # atno 10167 bound_to 10162
  156.0742  130.5951  150.8588 H   0  0  0  0  0  0  0  0  0  0  0  0  # atno 10718 bound_to 10713
  154.3973  135.2754  155.2118 H   0  0  0  0  0  0  0  0  0  0  0  0  # atno 10763 bound_to 10752
  154.4159  135.6011  153.5984 H   0  0  0  0  0  0  0  0  0  0  0  0  # atno 10764 bound_to 10752
  152.9831  135.5961  154.4236 H   0  0  0  0  0  0  0  0  0  0  0  0  # atno 10765 bound_to 10752
  139.8819  134.9381  156.5724 H   0  0  0  0  0  0  0  0  0  0  0  0  # atno 11005 bound_to 11000
  145.5788  139.1487  143.3247 LP  0  0  0  0  0  0  0  0  0  0  0  0  # atno 17320 bound_to 7965
  146.2165  140.5919  142.9036 LP  0  0  0  0  0  0  0  0  0  0  0  0  # atno 17321 bound_to 7965
  139.8859  143.7013  152.3151 LP  0  0  0  0  0  0  0  0  0  0  0  0  # atno 17342 bound_to 10162
  139.7312  144.7582  151.0799 LP  0  0  0  0  0  0  0  0  0  0  0  0  # atno 17343 bound_to 10162
  157.5828  131.0946  150.9243 LP  0  0  0  0  0  0  0  0  0  0  0  0  # atno 17370 bound_to 10713
  156.9436  130.5393  149.5280 LP  0  0  0  0  0  0  0  0  0  0  0  0  # atno 17371 bound_to 10713
  140.8088  133.8445  155.8792 LP  0  0  0  0  0  0  0  0  0  0  0  0  # atno 17394 bound_to 11000
  140.9525  134.1760  157.4717 LP  0  0  0  0  0  0  0  0  0  0  0  0  # atno 17395 bound_to 11000

$$$$
