AV-unprocessed.smi:546|AV-procd|sdf|2883|dock8
  -GOLD-   2262023373D 1   1.00000     0.00000
 Structure written by MMmdl.
 52 54  0  0  0  0  0  0  0  0  1 V2000
  154.3563  137.7702  158.0244 C   0  0  0  0  0  0  0  0  0  0  0  0
  153.5636  136.5198  157.6380 C   0  0  0  0  0  0  0  0  0  0  0  0
  152.7576  136.8095  156.5085 O   0  0  0  0  0  0  0  0  0  0  0  0
  151.6915  137.6949  156.8127 C   0  0  0  0  0  0  0  0  0  0  0  0
  152.1109  139.1384  156.5032 C   0  0  0  0  0  0  0  0  0  0  0  0
  150.9605  139.9827  156.1850 N   0  0  0  0  0  0  0  0  0  0  0  0
  150.5509  141.1482  156.7624 C   0  0  0  0  0  0  0  0  0  0  0  0
  151.1942  141.7182  157.8640 N   0  0  0  0  0  0  0  0  0  0  0  0
  151.0190  143.1145  158.2617 C   0  0  0  0  0  0  0  0  0  0  0  0
  152.3719  143.8135  158.4990 C   0  0  1  0  0  0  0  0  0  0  0  0
  152.1850  145.2899  158.8717 C   0  0  0  0  0  0  0  0  0  0  0  0
  153.1785  143.0567  159.5677 C   0  0  0  0  0  0  0  0  0  0  0  0
  153.2838  141.5661  159.2051 C   0  0  1  0  0  0  0  0  0  0  0  0
  154.0159  140.7692  160.2925 C   0  0  0  0  0  0  0  0  0  0  0  0
  151.8747  140.9987  158.9410 C   0  0  0  0  0  0  0  0  0  0  0  0
  149.5022  141.7220  156.1642 N   0  0  0  0  0  0  0  0  0  0  0  0
  149.1950  140.8383  155.1428 C   0  0  0  0  0  0  0  0  0  0  0  0
  150.0564  139.7904  155.1381 C   0  0  0  0  0  0  0  0  0  0  0  0
  149.9793  138.7138  154.1406 C   0  0  0  0  0  0  0  0  0  0  0  0
  150.7518  137.7583  154.1117 O   0  0  0  0  0  0  0  0  0  0  0  0
  148.9707  138.8833  153.2516 N   0  0  0  0  0  0  0  0  0  0  0  0
  148.0707  139.9122  153.2015 C   0  0  0  0  0  0  0  0  0  0  0  0
  147.2081  139.9323  152.3237 O   0  0  0  0  0  0  0  0  0  0  0  0
  148.1746  140.8961  154.1510 N   0  0  0  0  0  0  0  0  0  0  0  0
  147.2407  142.0239  154.1422 C   0  0  0  0  0  0  0  0  0  0  0  0
  148.8733  138.1700  152.5438 H   0  0  0  0  0  0  0  0  0  0  0  0
  155.0120  137.5690  158.8717 H   0  0  0  0  0  0  0  0  0  0  0  0
  153.6882  138.5839  158.3072 H   0  0  0  0  0  0  0  0  0  0  0  0
  154.9751  138.1142  157.1953 H   0  0  0  0  0  0  0  0  0  0  0  0
  154.2489  135.7029  157.4072 H   0  0  0  0  0  0  0  0  0  0  0  0
  152.9408  136.2029  158.4760 H   0  0  0  0  0  0  0  0  0  0  0  0
  150.8076  137.4305  156.2306 H   0  0  0  0  0  0  0  0  0  0  0  0
  151.4246  137.6056  157.8665 H   0  0  0  0  0  0  0  0  0  0  0  0
  152.6453  139.5700  157.3487 H   0  0  0  0  0  0  0  0  0  0  0  0
  152.8266  139.1357  155.6894 H   0  0  0  0  0  0  0  0  0  0  0  0
  150.4705  143.6458  157.4828 H   0  0  0  0  0  0  0  0  0  0  0  0
  150.4020  143.1597  159.1601 H   0  0  0  0  0  0  0  0  0  0  0  0
  152.9334  143.7775  157.5655 H   0  0  0  0  0  0  0  0  0  0  0  0
  151.6227  145.3961  159.8000 H   0  0  0  0  0  0  0  0  0  0  0  0
  151.6441  145.8253  158.0909 H   0  0  0  0  0  0  0  0  0  0  0  0
  153.1470  145.7853  159.0055 H   0  0  0  0  0  0  0  0  0  0  0  0
  154.1742  143.4909  159.6648 H   0  0  0  0  0  0  0  0  0  0  0  0
  152.6930  143.1659  160.5387 H   0  0  0  0  0  0  0  0  0  0  0  0
  153.8677  141.4839  158.2874 H   0  0  0  0  0  0  0  0  0  0  0  0
  153.4806  140.8090  161.2417 H   0  0  0  0  0  0  0  0  0  0  0  0
  155.0191  141.1626  160.4585 H   0  0  0  0  0  0  0  0  0  0  0  0
  154.1151  139.7210  160.0092 H   0  0  0  0  0  0  0  0  0  0  0  0
  151.2714  141.0768  159.8466 H   0  0  0  0  0  0  0  0  0  0  0  0
  151.9172  139.9336  158.7163 H   0  0  0  0  0  0  0  0  0  0  0  0
  146.2081  141.6718  154.1449 H   0  0  0  0  0  0  0  0  0  0  0  0
  147.3906  142.6331  153.2499 H   0  0  0  0  0  0  0  0  0  0  0  0
  147.3605  142.6740  155.0086 H   0  0  0  0  0  0  0  0  0  0  0  0
  1  2  1  0  0  0  0
  1 27  1  0  0  0  0
  1 28  1  0  0  0  0
  1 29  1  0  0  0  0
  2  3  1  0  0  0  0
  2 30  1  0  0  0  0
  2 31  1  0  0  0  0
  3  4  1  0  0  0  0
  4  5  1  0  0  0  0
  4 32  1  0  0  0  0
  4 33  1  0  0  0  0
  5  6  1  0  0  0  0
  5 34  1  0  0  0  0
  5 35  1  0  0  0  0
  6 18  1  0  0  0  0
  6  7  1  0  0  0  0
  7  8  1  0  0  0  0
  7 16  2  0  0  0  0
  8 15  1  0  0  0  0
  8  9  1  0  0  0  0
  9 10  1  0  0  0  0
  9 36  1  0  0  0  0
  9 37  1  0  0  0  0
 10 11  1  0  0  0  0
 10 12  1  0  0  0  0
 10 38  1  0  0  0  0
 11 39  1  0  0  0  0
 11 40  1  0  0  0  0
 11 41  1  0  0  0  0
 12 13  1  0  0  0  0
 12 42  1  0  0  0  0
 12 43  1  0  0  0  0
 13 14  1  0  0  0  0
 13 15  1  0  0  0  0
 13 44  1  0  0  0  0
 14 45  1  0  0  0  0
 14 46  1  0  0  0  0
 14 47  1  0  0  0  0
 15 48  1  0  0  0  0
 15 49  1  0  0  0  0
 16 17  1  0  0  0  0
 17 24  1  0  0  0  0
 17 18  2  0  0  0  0
 18 19  1  0  0  0  0
 19 20  2  0  0  0  0
 19 21  1  0  0  0  0
 21 26  1  0  0  0  0
 21 22  1  0  0  0  0
 22 23  2  0  0  0  0
 22 24  1  0  0  0  0
 24 25  1  0  0  0  0
 25 50  1  0  0  0  0
 25 51  1  0  0  0  0
 25 52  1  0  0  0  0
M  END
> <s_m_source_file>
AV-unprocessed.smi

> <i_m_source_file_index>
546

> <i_lp_mmshare_version>
43012

> <i_f3d_flags>
0

> <s_epik_input>
W0NIM11uMWMoPU8pW25IXWMoPU8pYyhjMTIpbihbQ0gyXVtDSDJdT1tDSDJdW0NIM10pYyhuMilOM1tDSDJdW0NAQEhdKFtDSDNdKVtDSDJdW0NAQEhdKFtDSDNdKVtDSDJdMw==

> <s_epik_cmdline>
J2VwaWtfcHl0aG9uJywgJy1waCcsICc3LjAnLCAnLXRuJywgJzgnLCAnLW1hJywgJzIwMCcsICctbWV0YWxfYmluZGluZycsICctaW1hZScsICc8aW5maWxlLm1hZT4nLCAnLW9tYWUnLCAnPG91dGZpbGUubWFlPic=

> <r_lp_tautomer_probability>
1

> <r_epik_Ionization_Penalty>
0.000576472

> <r_epik_Ionization_Penalty_Charging>
0.000118943

> <r_epik_Ionization_Penalty_Neutral>
0.000457529

> <r_epik_State_Penalty>
-0

> <r_epik_Charging_Adjusted_Penalty>
0.000118943

> <i_epik_Tot_Q>
0

> <i_epik_Tot_abs_Q>
0

> <r_epik_Metal_State_Penalty>
0.0916165

> <b_epik_Metal_Only>
0

> <s_lp_Force_Field>
OPLS_2005

> <r_lp_Energy>
35.568

> <b_lp_Chiralities_Consistent>
1

> <s_lp_Variant>
AV-unprocessed.smi:546-1

> <Gold.Version>
5.8.1

> <Gold.Id.Protein>
6NUR|6NUR_protein|mol2

> <Gold.PLP.Fitness>
51.8183

> <Gold.PLP.PLP>
-46.9567

> <Gold.PLP.part.hbond>
-2.7868

> <Gold.PLP.part.metal>
0.0000

> <Gold.PLP.part.buried>
-4.6138

> <Gold.PLP.part.nonpolar>
-43.0756

> <Gold.PLP.part.repulsive>
3.9067

> <Gold.PLP.ligand.clash>
0.0000

> <Gold.PLP.ligand.torsion>
0.6838

> <Gold.PLP.Chemscore.Hbond>
1.9760

> <Gold.PLP.Chemscore.CHOScore>
0.0000

> <Gold.PLP.Chemscore.Metal>
0.0000

> <Gold.Chemscore.Hbonds>
donor molecule, donor type, donor heavy atom, donor atom, acceptor molecule, acceptor atom, score
      L1  H    21    26       P1  7948  1.00
      P1  H 10752 10765       L1     3  0.98

> <Gold.PLP.Chemscore.Internal.Correction>
0.3012

> <Gold.Rescore>
     Score         DG    S(hbond)    S(metal)    S(lipo)     H(rot)  DE(clash)    DE(int)     intcor
     17.42     -19.73       1.78        0.00     104.91       1.55       0.14       2.18       ----

> <Gold.Chemscore.Fitness>
17.4172

> <Gold.Chemscore.DG>
-19.7346

> <Gold.Chemscore.ZeroCoef>
-5.4800

> <Gold.Chemscore.Hbond>
1.7784

> <Gold.Chemscore.Metal>
0.0000

> <Gold.Chemscore.Lipo>
104.9058

> <Gold.Chemscore.Internal_Hbond>
0.0000

> <Gold.Chemscore.DEClash>
0.1350

> <Gold.Chemscore.DEInternal>
2.1824

> <Gold.Chemscore.Rot>
1.5465

> <Gold.Chemscore.Internal.Correction>
   9.000000E+99

> <Gold.Chemscore.Hbonds>
donor molecule, donor type, donor heavy atom, donor atom, acceptor molecule, acceptor atom, score
      L1  H    21    26       P1  7948  0.92
      P1  H 10752 10765       L1     3  0.28

> <Gold.Chemscore.Hbond.Weighted>
-5.9397

> <Gold.Chemscore.Metal.Weighted>
-0.0000

> <Gold.Chemscore.Lipo.Weighted>
-12.2740

> <Gold.Chemscore.Internal_Hbond.Weighted>
0.0000

> <Gold.Chemscore.DEClash.Weighted>
0.1350

> <Gold.Chemscore.DEInternal.Weighted>
2.1824

> <Gold.Chemscore.Rot.Weighted>
3.9591

> <Gold.Chemscore.Internal.Correction.Weighted>
   9.000000E+99

> <Gold.Protein.RotatedTorsions>
[ 6907 6896 6895 6894 ] final   88.58 input  -60.11 | X-H torsion
[ 7974 7965 7964 7962 ] final   71.13 input  175.53 | X-H torsion
[ 8008 7997 7996 7995 ] final  101.14 input   59.86 | X-H torsion
[ 10167 10162 10161 10158 ] final   33.50 input  -65.29 | X-H torsion
[ 10718 10713 10712 10709 ] final  -17.01 input   66.30 | X-H torsion
[ 10763 10752 10751 10750 ] final -132.36 input  -60.55 | X-H torsion
[ 11005 11000 10999 10996 ] final  -94.29 input  -57.11 | X-H torsion

> <Gold.Protein.ActiveResidues>
 VAL166  LYS551  ARG553  GLY616  TRP617  ASP618  TYR619  PRO620  LYS621  CYS622 
 ASP623  PHE694  ASN695  SER759  ASP760  ASP761  ALA762  ILE779  LEU786  VAL792 
 PHE793  MET794  SER795  GLU796  ALA797  LYS798  CYS799  TRP800  GLU811  SER814 

> <Gold.Protein.RotatedAtoms>
  152.5426  134.2100  159.8745 H   0  0  0  0  0  0  0  0  0  0  0  0  # atno 6907 bound_to 6896
  151.2083  133.4564  159.2605 H   0  0  0  0  0  0  0  0  0  0  0  0  # atno 6908 bound_to 6896
  151.0921  134.9935  159.8463 H   0  0  0  0  0  0  0  0  0  0  0  0  # atno 6909 bound_to 6896
  145.7696  139.2837  143.1329 H   0  0  0  0  0  0  0  0  0  0  0  0  # atno 7974 bound_to 7965
  156.1271  140.3202  155.8293 H   0  0  0  0  0  0  0  0  0  0  0  0  # atno 8008 bound_to 7997
  155.4400  140.0525  157.3028 H   0  0  0  0  0  0  0  0  0  0  0  0  # atno 8009 bound_to 7997
  154.4870  140.2077  155.9645 H   0  0  0  0  0  0  0  0  0  0  0  0  # atno 8010 bound_to 7997
  140.4402  144.1199  150.6173 H   0  0  0  0  0  0  0  0  0  0  0  0  # atno 10167 bound_to 10162
  156.5795  130.4770  149.6327 H   0  0  0  0  0  0  0  0  0  0  0  0  # atno 10718 bound_to 10713
  154.8744  135.3800  154.4397 H   0  0  0  0  0  0  0  0  0  0  0  0  # atno 10763 bound_to 10752
  153.5083  135.7030  153.5800 H   0  0  0  0  0  0  0  0  0  0  0  0  # atno 10764 bound_to 10752
  153.4100  135.3927  155.2010 H   0  0  0  0  0  0  0  0  0  0  0  0  # atno 10765 bound_to 10752
  141.1474  133.7946  157.0277 H   0  0  0  0  0  0  0  0  0  0  0  0  # atno 11005 bound_to 11000
  146.0183  140.8371  142.9936 LP  0  0  0  0  0  0  0  0  0  0  0  0  # atno 17320 bound_to 7965
  144.6815  140.2592  143.7321 LP  0  0  0  0  0  0  0  0  0  0  0  0  # atno 17321 bound_to 7965
  140.4327  143.2561  151.9574 LP  0  0  0  0  0  0  0  0  0  0  0  0  # atno 17342 bound_to 10162
  139.4789  144.5728  151.8060 LP  0  0  0  0  0  0  0  0  0  0  0  0  # atno 17343 bound_to 10162
  156.2644  130.6981  151.1759 LP  0  0  0  0  0  0  0  0  0  0  0  0  # atno 17370 bound_to 10713
  157.7330  131.0595  150.5601 LP  0  0  0  0  0  0  0  0  0  0  0  0  # atno 17371 bound_to 10713
  140.0774  134.9667  157.1569 LP  0  0  0  0  0  0  0  0  0  0  0  0  # atno 17394 bound_to 11000
  140.3624  134.2479  155.7186 LP  0  0  0  0  0  0  0  0  0  0  0  0  # atno 17395 bound_to 11000

$$$$
