AV-unprocessed.smi:72|AV-procd|sdf|742|dock6
  -GOLD-   2262017 73D 1   1.00000     0.00000
 Structure written by MMmdl.
 28 29  0  0  0  0  0  0  0  0  2 V2000
  152.4309  135.6163  157.8536 N   0  0  0  0  0  0  0  0  0  0  0  0
  152.1263  136.7556  157.4074 C   0  0  0  0  0  0  0  0  0  0  0  0
  151.3639  137.6732  158.2259 N   0  0  0  0  0  0  0  0  0  0  0  0
  151.0554  138.8258  157.7156 C   0  0  0  0  0  0  0  0  0  0  0  0
  151.4425  139.1944  156.3605 N   0  0  0  0  0  0  0  0  0  0  0  0
  151.0926  140.5477  155.7796 C   0  0  1  0  0  0  0  0  0  0  0  0
  150.3286  140.3728  154.6203 O   0  0  0  0  0  0  0  0  0  0  0  0
  149.1860  141.2225  154.6531 C   0  0  1  0  0  0  0  0  0  0  0  0
  148.0556  140.6064  153.8146 C   0  0  0  0  0  0  0  0  0  0  0  0
  148.4733  139.3774  153.2597 O   0  0  0  0  0  0  0  0  0  0  0  0
  148.8702  141.2926  156.1472 C   0  0  2  0  0  0  0  0  0  0  0  0
  148.0437  142.3877  156.4949 O   0  0  0  0  0  0  0  0  0  0  0  0
  150.2544  141.3569  156.7821 C   0  0  2  0  0  0  0  0  0  0  0  0
  150.7458  142.6795  156.8982 O   0  0  0  0  0  0  0  0  0  0  0  0
  152.2220  138.2892  155.5930 C   0  0  0  0  0  0  0  0  0  0  0  0
  152.5826  138.6408  154.4692 O   0  0  0  0  0  0  0  0  0  0  0  0
  152.5447  137.0820  156.1359 N   0  5  0  0  0  0  0  0  0  0  0  0
  152.0391  141.0172  155.5063 H   0  0  0  0  0  0  0  0  0  0  0  0
  149.4607  142.2141  154.2877 H   0  0  0  0  0  0  0  0  0  0  0  0
  148.3809  140.3687  156.4596 H   0  0  0  0  0  0  0  0  0  0  0  0
  150.2653  140.8975  157.7717 H   0  0  0  0  0  0  0  0  0  0  0  0
  152.9639  135.0680  157.1945 H   0  0  0  0  0  0  0  0  0  0  0  0
  150.4979  139.5839  158.2663 H   0  0  0  0  0  0  0  0  0  0  0  0
  147.1518  140.4680  154.4089 H   0  0  0  0  0  0  0  0  0  0  0  0
  147.8001  141.2674  152.9861 H   0  0  0  0  0  0  0  0  0  0  0  0
  149.1430  139.5507  152.6160 H   0  0  0  0  0  0  0  0  0  0  0  0
  148.2805  143.1234  155.9514 H   0  0  0  0  0  0  0  0  0  0  0  0
  150.1761  143.2518  156.4065 H   0  0  0  0  0  0  0  0  0  0  0  0
  1  2  2  0  0  0  0
  1 22  1  0  0  0  0
  2 17  1  0  0  0  0
  2  3  1  0  0  0  0
  3  4  2  0  0  0  0
  4  5  1  0  0  0  0
  4 23  1  0  0  0  0
  5  6  1  0  0  0  0
  5 15  1  0  0  0  0
  6 18  1  0  0  0  0
  6 13  1  0  0  0  0
  6  7  1  0  0  0  0
  7  8  1  0  0  0  0
  8 19  1  0  0  0  0
  8  9  1  0  0  0  0
  8 11  1  0  0  0  0
  9 10  1  0  0  0  0
  9 24  1  0  0  0  0
  9 25  1  0  0  0  0
 10 26  1  0  0  0  0
 11 20  1  0  0  0  0
 11 12  1  0  0  0  0
 11 13  1  0  0  0  0
 12 27  1  0  0  0  0
 13 21  1  0  0  0  0
 13 14  1  0  0  0  0
 14 28  1  0  0  0  0
 15 16  2  0  0  0  0
 15 17  1  0  0  0  0
M  CHG  1  17  -1
M  END
> <s_m_source_file>
AV-unprocessed.smi

> <i_m_source_file_index>
72

> <i_lp_mmshare_version>
43012

> <i_f3d_flags>
0

> <s_epik_input>
W05IMl1jMW5bY0hdbihjKD1PKW4xKVtDQEBIXTJPW0NASF0oW0NIMl1bT0hdKVtDQEBIXShbT0hdKVtDQEhdMltPSF0=

> <s_epik_cmdline>
J2VwaWtfcHl0aG9uJywgJy1waCcsICc3LjAnLCAnLXRuJywgJzgnLCAnLW1hJywgJzIwMCcsICctbWV0YWxfYmluZGluZycsICctaW1hZScsICc8aW5maWxlLm1hZT4nLCAnLW9tYWUnLCAnPG91dGZpbGUubWFlPic=

> <r_lp_tautomer_probability>
7.17554e-07

> <r_epik_Ionization_Penalty>
12.8705

> <r_epik_Ionization_Penalty_Charging>
5.64144

> <r_epik_Ionization_Penalty_Neutral>
7.22905

> <r_epik_State_Penalty>
3.30104

> <r_epik_Charging_Adjusted_Penalty>
8.94249

> <i_epik_Tot_Q>
-1

> <i_epik_Tot_abs_Q>
1

> <r_epik_Metal_State_Penalty>
0.529074

> <b_epik_Metal_Only>
1

> <s_epik_Chemistry_Notes>
This compound contains an acetal/aminal-like group ( X-CH(R)-Y where X, Y are N, S, or O) that may be acid/base labile, releasing an aldehyde.

> <s_lp_Force_Field>
OPLS_2005

> <r_lp_Energy>
36.1714

> <b_lp_Chiralities_Consistent>
1

> <s_lp_Variant>
AV-unprocessed.smi:72-80

> <Gold.Version>
5.8.1

> <Gold.Id.Protein>
6NUR|6NUR_protein|mol2

> <Gold.PLP.Fitness>
39.3817

> <Gold.PLP.PLP>
-24.8253

> <Gold.PLP.part.hbond>
-6.0241

> <Gold.PLP.part.metal>
0.0000

> <Gold.PLP.part.buried>
-3.3067

> <Gold.PLP.part.nonpolar>
-16.1987

> <Gold.PLP.part.repulsive>
0.1613

> <Gold.PLP.ligand.clash>
0.0000

> <Gold.PLP.ligand.torsion>
0.7471

> <Gold.PLP.Chemscore.Hbond>
5.3430

> <Gold.PLP.Chemscore.CHOScore>
0.0000

> <Gold.PLP.Chemscore.Metal>
0.0000

> <Gold.Chemscore.Hbonds>
donor molecule, donor type, donor heavy atom, donor atom, acceptor molecule, acceptor atom, score
      L1  H    10    26       P1  7957  1.00
      L1  H    12    27       P1  8028  1.00
      L1  H    14    28       P1  8028  0.86
      P1  H  7989  7998       L1     7  0.75
      P1  H 10752 10765       L1    17  1.73

> <Gold.PLP.Chemscore.Internal.Correction>
0.0217

> <Gold.Rescore>
     Score         DG    S(hbond)    S(metal)    S(lipo)     H(rot)  DE(clash)    DE(int)     intcor
      8.11     -10.34       3.61        0.00      26.78       4.04       0.12       2.11       ----

> <Gold.Chemscore.Fitness>
8.1061

> <Gold.Chemscore.DG>
-10.3365

> <Gold.Chemscore.ZeroCoef>
-5.4800

> <Gold.Chemscore.Hbond>
3.6125

> <Gold.Chemscore.Metal>
0.0000

> <Gold.Chemscore.Lipo>
26.7843

> <Gold.Chemscore.Internal_Hbond>
0.0000

> <Gold.Chemscore.DEClash>
0.1181

> <Gold.Chemscore.DEInternal>
2.1123

> <Gold.Chemscore.Rot>
4.0403

> <Gold.Chemscore.Internal.Correction>
   9.000000E+99

> <Gold.Chemscore.Hbonds>
donor molecule, donor type, donor heavy atom, donor atom, acceptor molecule, acceptor atom, score
      L1  H    10    26       P1  7957  0.94
      L1  H    12    27       P1  8028  0.84
      L1  H    14    28       P1  8028  0.84
      P1  H  7989  7998       L1     7  0.08
      P1  H 10752 10765       L1    17  0.71

> <Gold.Chemscore.Hbond.Weighted>
-12.0658

> <Gold.Chemscore.Metal.Weighted>
-0.0000

> <Gold.Chemscore.Lipo.Weighted>
-3.1338

> <Gold.Chemscore.Internal_Hbond.Weighted>
0.0000

> <Gold.Chemscore.DEClash.Weighted>
0.1181

> <Gold.Chemscore.DEInternal.Weighted>
2.1123

> <Gold.Chemscore.Rot.Weighted>
10.3431

> <Gold.Chemscore.Internal.Correction.Weighted>
   9.000000E+99

> <Gold.Protein.RotatedTorsions>
[ 6907 6896 6895 6894 ] final  -28.95 input  -60.11 | X-H torsion
[ 7974 7965 7964 7962 ] final -105.71 input  175.53 | X-H torsion
[ 8008 7997 7996 7995 ] final  142.47 input   59.86 | X-H torsion
[ 10167 10162 10161 10158 ] final   -1.12 input  -65.29 | X-H torsion
[ 10718 10713 10712 10709 ] final -151.42 input   66.30 | X-H torsion
[ 10763 10752 10751 10750 ] final -149.91 input  -60.55 | X-H torsion
[ 11005 11000 10999 10996 ] final -135.64 input  -57.11 | X-H torsion

> <Gold.Protein.ActiveResidues>
 VAL166  LYS551  ARG553  GLY616  TRP617  ASP618  TYR619  PRO620  LYS621  CYS622 
 ASP623  PHE694  ASN695  SER759  ASP760  ASP761  ALA762  ILE779  LEU786  VAL792 
 PHE793  MET794  SER795  GLU796  ALA797  LYS798  CYS799  TRP800  GLU811  SER814 

> <Gold.Protein.RotatedAtoms>
  151.1259  135.0104  159.8559 H   0  0  0  0  0  0  0  0  0  0  0  0  # atno 6907 bound_to 6896
  152.5449  134.1667  159.8590 H   0  0  0  0  0  0  0  0  0  0  0  0  # atno 6908 bound_to 6896
  151.1729  133.4728  159.2627 H   0  0  0  0  0  0  0  0  0  0  0  0  # atno 6909 bound_to 6896
  145.2270  140.9156  143.3227 H   0  0  0  0  0  0  0  0  0  0  0  0  # atno 7974 bound_to 7965
  156.2948  140.2288  156.4734 H   0  0  0  0  0  0  0  0  0  0  0  0  # atno 8008 bound_to 7997
  154.7916  140.0454  157.1226 H   0  0  0  0  0  0  0  0  0  0  0  0  # atno 8009 bound_to 7997
  154.9639  140.3058  155.5022 H   0  0  0  0  0  0  0  0  0  0  0  0  # atno 8010 bound_to 7997
  140.6797  143.6813  150.8103 H   0  0  0  0  0  0  0  0  0  0  0  0  # atno 10167 bound_to 10162
  156.4590  130.8204  151.2435 H   0  0  0  0  0  0  0  0  0  0  0  0  # atno 10718 bound_to 10713
  154.8150  135.3297  154.7201 H   0  0  0  0  0  0  0  0  0  0  0  0  # atno 10763 bound_to 10752
  153.7844  135.6916  153.4887 H   0  0  0  0  0  0  0  0  0  0  0  0  # atno 10764 bound_to 10752
  153.1959  135.4534  155.0154 H   0  0  0  0  0  0  0  0  0  0  0  0  # atno 10765 bound_to 10752
  140.8879  134.1849  157.4548 H   0  0  0  0  0  0  0  0  0  0  0  0  # atno 11005 bound_to 11000
  144.9712  139.3878  143.6308 LP  0  0  0  0  0  0  0  0  0  0  0  0  # atno 17320 bound_to 7965
  146.3362  139.8811  142.8824 LP  0  0  0  0  0  0  0  0  0  0  0  0  # atno 17321 bound_to 7965
  140.0511  143.5248  152.2673 LP  0  0  0  0  0  0  0  0  0  0  0  0  # atno 17342 bound_to 10162
  139.6111  144.7609  151.2951 LP  0  0  0  0  0  0  0  0  0  0  0  0  # atno 17343 bound_to 10162
  157.7499  131.0113  150.3340 LP  0  0  0  0  0  0  0  0  0  0  0  0  # atno 17370 bound_to 10713
  156.3736  130.3868  149.7156 LP  0  0  0  0  0  0  0  0  0  0  0  0  # atno 17371 bound_to 10713
  139.8726  134.9846  156.5245 LP  0  0  0  0  0  0  0  0  0  0  0  0  # atno 17394 bound_to 11000
  140.8382  133.8225  155.9050 LP  0  0  0  0  0  0  0  0  0  0  0  0  # atno 17395 bound_to 11000

$$$$
