AV-unprocessed.smi:3250|AV-procd|sdf|12430|dock7
  -GOLD-   2272018323D 1   1.00000     0.00000
 Structure written by MMmdl.
 38 39  0  0  0  0  0  0  0  0  1 V2000
  148.5589  141.7161  154.3831 C   0  0  0  0  0  0  0  0  0  0  0  0
  148.8630  140.2335  154.1250 C   0  0  0  0  0  0  0  0  0  0  0  0
  150.2440  139.8328  154.3878 N   0  0  0  0  0  0  0  0  0  0  0  0
  150.4915  138.4294  154.0658 C   0  0  0  0  0  0  0  0  0  0  0  0
  151.9384  138.0160  154.3831 C   0  0  0  0  0  0  0  0  0  0  0  0
  152.2213  138.2881  155.7513 O   0  0  0  0  0  0  0  0  0  0  0  0
  152.0541  139.6627  156.0913 C   0  0  2  0  0  0  0  0  0  0  0  0
  152.3884  139.8389  157.5782 C   0  0  0  0  0  0  0  0  0  0  0  0
  152.2885  141.2310  157.9898 N   0  0  0  0  0  0  0  0  0  0  0  0
  152.6902  141.7031  159.2249 C   0  0  0  0  0  0  0  0  0  0  0  0
  153.4234  140.8586  159.9535 N   0  0  0  0  0  0  0  0  0  0  0  0
  153.8280  141.2887  161.1682 C   0  0  0  0  0  0  0  0  0  0  0  0
  153.4961  142.5700  161.6515 C   0  0  0  0  0  0  0  0  0  0  0  0
  152.7206  143.3816  160.7989 C   0  0  0  0  0  0  0  0  0  0  0  0
  152.3637  144.6495  161.2088 O   0  0  0  0  0  0  0  0  0  0  0  0
  151.7979  145.5309  160.2450 C   0  0  0  0  0  0  0  0  0  0  0  0
  152.3193  142.9384  159.5812 N   0  0  0  0  0  0  0  0  0  0  0  0
  150.5989  140.0676  155.7836 C   0  0  0  0  0  0  0  0  0  0  0  0
  147.4938  141.9142  154.2626 H   0  0  0  0  0  0  0  0  0  0  0  0
  149.0885  142.3679  153.6889 H   0  0  0  0  0  0  0  0  0  0  0  0
  148.8359  142.0037  155.3977 H   0  0  0  0  0  0  0  0  0  0  0  0
  148.2001  139.6490  154.7642 H   0  0  0  0  0  0  0  0  0  0  0  0
  148.5911  139.9788  153.0998 H   0  0  0  0  0  0  0  0  0  0  0  0
  149.8039  137.7939  154.6258 H   0  0  0  0  0  0  0  0  0  0  0  0
  150.3004  138.2436  153.0095 H   0  0  0  0  0  0  0  0  0  0  0  0
  152.0790  136.9516  154.1941 H   0  0  0  0  0  0  0  0  0  0  0  0
  152.6430  138.5515  153.7448 H   0  0  0  0  0  0  0  0  0  0  0  0
  152.7330  140.2723  155.4915 H   0  0  0  0  0  0  0  0  0  0  0  0
  151.6949  139.2519  158.1812 H   0  0  0  0  0  0  0  0  0  0  0  0
  153.3920  139.4666  157.7873 H   0  0  0  0  0  0  0  0  0  0  0  0
  151.9976  141.9130  157.3043 H   0  0  0  0  0  0  0  0  0  0  0  0
  154.4208  140.6063  161.7589 H   0  0  0  0  0  0  0  0  0  0  0  0
  153.8200  142.9118  162.6233 H   0  0  0  0  0  0  0  0  0  0  0  0
  151.5771  146.4882  160.7166 H   0  0  0  0  0  0  0  0  0  0  0  0
  150.8637  145.1364  159.8428 H   0  0  0  0  0  0  0  0  0  0  0  0
  152.4897  145.7192  159.4224 H   0  0  0  0  0  0  0  0  0  0  0  0
  150.4623  141.1226  156.0242 H   0  0  0  0  0  0  0  0  0  0  0  0
  149.9226  139.5104  156.4342 H   0  0  0  0  0  0  0  0  0  0  0  0
  1  2  1  0  0  0  0
  1 19  1  0  0  0  0
  1 20  1  0  0  0  0
  1 21  1  0  0  0  0
  2  3  1  0  0  0  0
  2 22  1  0  0  0  0
  2 23  1  0  0  0  0
  3 18  1  0  0  0  0
  3  4  1  0  0  0  0
  4  5  1  0  0  0  0
  4 24  1  0  0  0  0
  4 25  1  0  0  0  0
  5  6  1  0  0  0  0
  5 26  1  0  0  0  0
  5 27  1  0  0  0  0
  6  7  1  0  0  0  0
  7  8  1  0  0  0  0
  7 18  1  0  0  0  0
  7 28  1  0  0  0  0
  8  9  1  0  0  0  0
  8 29  1  0  0  0  0
  8 30  1  0  0  0  0
  9 10  1  0  0  0  0
  9 31  1  0  0  0  0
 10 17  1  0  0  0  0
 10 11  2  0  0  0  0
 11 12  1  0  0  0  0
 12 13  2  0  0  0  0
 12 32  1  0  0  0  0
 13 14  1  0  0  0  0
 13 33  1  0  0  0  0
 14 15  1  0  0  0  0
 14 17  2  0  0  0  0
 15 16  1  0  0  0  0
 16 34  1  0  0  0  0
 16 35  1  0  0  0  0
 16 36  1  0  0  0  0
 18 37  1  0  0  0  0
 18 38  1  0  0  0  0
M  END
> <s_m_source_file>
AV-unprocessed.smi

> <i_m_source_file_index>
3250

> <i_lp_mmshare_version>
43012

> <i_f3d_flags>
0

> <s_epik_input>
W0NIM11bQ0gyXU4xW0NIMl1bQ0gyXU9bQ0BIXShbQ0gyXTEpW0NIMl1bTkhdYzJuW2NIXVtjSF1jKG4yKU9bQ0gzXQ==

> <s_epik_cmdline>
J2VwaWtfcHl0aG9uJywgJy1waCcsICc3LjAnLCAnLXRuJywgJzgnLCAnLW1hJywgJzIwMCcsICctbWV0YWxfYmluZGluZycsICctaW1hZScsICc8aW5maWxlLm1hZT4nLCAnLW9tYWUnLCAnPG91dGZpbGUubWFlPic=

> <r_lp_tautomer_probability>
1

> <r_epik_Ionization_Penalty>
0.832605

> <r_epik_Ionization_Penalty_Charging>
0

> <r_epik_Ionization_Penalty_Neutral>
0.832605

> <r_epik_State_Penalty>
0.927194

> <r_epik_Charging_Adjusted_Penalty>
0.927194

> <i_epik_Tot_Q>
0

> <i_epik_Tot_abs_Q>
0

> <r_epik_Metal_State_Penalty>
0.908632

> <b_epik_Metal_Only>
0

> <s_lp_Force_Field>
OPLS_2005

> <r_lp_Energy>
15.3414

> <b_lp_Chiralities_Consistent>
1

> <s_lp_Variant>
AV-unprocessed.smi:3250-6

> <Gold.Version>
5.8.1

> <Gold.Id.Protein>
6NUR|6NUR_protein|mol2

> <Gold.PLP.Fitness>
40.3019

> <Gold.PLP.PLP>
-37.6647

> <Gold.PLP.part.hbond>
-1.0000

> <Gold.PLP.part.metal>
0.0000

> <Gold.PLP.part.buried>
-3.5576

> <Gold.PLP.part.nonpolar>
-33.3032

> <Gold.PLP.part.repulsive>
0.3864

> <Gold.PLP.ligand.clash>
0.0000

> <Gold.PLP.ligand.torsion>
0.1898

> <Gold.PLP.Chemscore.Hbond>
1.0000

> <Gold.PLP.Chemscore.CHOScore>
0.0000

> <Gold.PLP.Chemscore.Metal>
0.0000

> <Gold.Chemscore.Hbonds>
donor molecule, donor type, donor heavy atom, donor atom, acceptor molecule, acceptor atom, score
      P1  H  7989  7998       L1     3  1.00

> <Gold.PLP.Chemscore.Internal.Correction>
0.0167

> <Gold.Rescore>
     Score         DG    S(hbond)    S(metal)    S(lipo)     H(rot)  DE(clash)    DE(int)     intcor
     10.86     -11.30       0.09        0.00      83.50       1.67       0.13       0.31       ----

> <Gold.Chemscore.Fitness>
10.8558

> <Gold.Chemscore.DG>
-11.3000

> <Gold.Chemscore.ZeroCoef>
-5.4800

> <Gold.Chemscore.Hbond>
0.0941

> <Gold.Chemscore.Metal>
0.0000

> <Gold.Chemscore.Lipo>
83.5042

> <Gold.Chemscore.Internal_Hbond>
0.0000

> <Gold.Chemscore.DEClash>
0.1309

> <Gold.Chemscore.DEInternal>
0.3133

> <Gold.Chemscore.Rot>
1.6657

> <Gold.Chemscore.Internal.Correction>
   9.000000E+99

> <Gold.Chemscore.Hbonds>
donor molecule, donor type, donor heavy atom, donor atom, acceptor molecule, acceptor atom, score
      P1  H  7989  7998       L1     3  0.17

> <Gold.Chemscore.Hbond.Weighted>
-0.3142

> <Gold.Chemscore.Metal.Weighted>
-0.0000

> <Gold.Chemscore.Lipo.Weighted>
-9.7700

> <Gold.Chemscore.Internal_Hbond.Weighted>
0.0000

> <Gold.Chemscore.DEClash.Weighted>
0.1309

> <Gold.Chemscore.DEInternal.Weighted>
0.3133

> <Gold.Chemscore.Rot.Weighted>
4.2642

> <Gold.Chemscore.Internal.Correction.Weighted>
   9.000000E+99

> <Gold.Protein.RotatedTorsions>
[ 6907 6896 6895 6894 ] final  -50.37 input  -60.11 | X-H torsion
[ 7974 7965 7964 7962 ] final  101.88 input  175.53 | X-H torsion
[ 8008 7997 7996 7995 ] final  119.40 input   59.86 | X-H torsion
[ 10167 10162 10161 10158 ] final  173.84 input  -65.29 | X-H torsion
[ 10718 10713 10712 10709 ] final   91.38 input   66.30 | X-H torsion
[ 10763 10752 10751 10750 ] final    9.24 input  -60.55 | X-H torsion
[ 11005 11000 10999 10996 ] final  104.32 input  -57.11 | X-H torsion

> <Gold.Protein.ActiveResidues>
 VAL166  LYS551  ARG553  GLY616  TRP617  ASP618  TYR619  PRO620  LYS621  CYS622 
 ASP623  PHE694  ASN695  SER759  ASP760  ASP761  ALA762  ILE779  LEU786  VAL792 
 PHE793  MET794  SER795  GLU796  ALA797  LYS798  CYS799  TRP800  GLU811  SER814 

> <Gold.Protein.RotatedAtoms>
  150.8713  134.8088  159.7156 H   0  0  0  0  0  0  0  0  0  0  0  0  # atno 6907 bound_to 6896
  152.4717  134.4942  159.9714 H   0  0  0  0  0  0  0  0  0  0  0  0  # atno 6908 bound_to 6896
  151.5030  133.3462  159.2907 H   0  0  0  0  0  0  0  0  0  0  0  0  # atno 6909 bound_to 6896
  145.3664  139.2407  143.3479 H   0  0  0  0  0  0  0  0  0  0  0  0  # atno 7974 bound_to 7965
  156.2594  140.2853  156.0986 H   0  0  0  0  0  0  0  0  0  0  0  0  # atno 8008 bound_to 7997
  155.1384  140.0395  157.2810 H   0  0  0  0  0  0  0  0  0  0  0  0  # atno 8009 bound_to 7997
  154.6548  140.2553  155.7180 H   0  0  0  0  0  0  0  0  0  0  0  0  # atno 8010 bound_to 7997
  139.5121  144.3215  152.0198 H   0  0  0  0  0  0  0  0  0  0  0  0  # atno 10167 bound_to 10162
  157.6960  131.0405  150.3721 H   0  0  0  0  0  0  0  0  0  0  0  0  # atno 10718 bound_to 10713
  153.2162  135.6875  153.8055 H   0  0  0  0  0  0  0  0  0  0  0  0  # atno 10763 bound_to 10752
  153.7270  135.3258  155.3279 H   0  0  0  0  0  0  0  0  0  0  0  0  # atno 10764 bound_to 10752
  154.8247  135.4626  154.0990 H   0  0  0  0  0  0  0  0  0  0  0  0  # atno 10765 bound_to 10752
  139.8791  134.9296  156.5344 H   0  0  0  0  0  0  0  0  0  0  0  0  # atno 11005 bound_to 11000
  146.2904  140.4308  142.8741 LP  0  0  0  0  0  0  0  0  0  0  0  0  # atno 17320 bound_to 7965
  144.8608  140.7137  143.6108 LP  0  0  0  0  0  0  0  0  0  0  0  0  # atno 17321 bound_to 7965
  140.2657  144.4019  150.6169 LP  0  0  0  0  0  0  0  0  0  0  0  0  # atno 17342 bound_to 10162
  140.6125  143.2170  151.6858 LP  0  0  0  0  0  0  0  0  0  0  0  0  # atno 17343 bound_to 10162
  156.4144  130.3940  149.6868 LP  0  0  0  0  0  0  0  0  0  0  0  0  # atno 17370 bound_to 10713
  156.4141  130.7736  151.2751 LP  0  0  0  0  0  0  0  0  0  0  0  0  # atno 17371 bound_to 10713
  140.8357  133.8244  155.9026 LP  0  0  0  0  0  0  0  0  0  0  0  0  # atno 17394 bound_to 11000
  140.9286  134.2050  157.4879 LP  0  0  0  0  0  0  0  0  0  0  0  0  # atno 17395 bound_to 11000

$$$$
