AV-unprocessed.smi:1005|AV-procd|sdf|4380|dock3
  -GOLD-   22720 2303D 1   1.00000     0.00000
 Structure written by MMmdl.
 58 60  0  0  0  0  0  0  0  0  4 V2000
  153.2369  142.5193  161.4154 C   0  0  0  0  0  0  0  0  0  0  0  0
  152.5275  142.2749  160.0943 C   0  0  0  0  0  0  0  0  0  0  0  0
  152.7523  141.0518  159.4234 C   0  0  0  0  0  0  0  0  0  0  0  0
  152.0918  140.8595  158.2157 C   0  0  0  0  0  0  0  0  0  0  0  0
  152.1051  139.7812  157.3287 N   0  3  0  0  0  0  0  0  0  0  0  0
  151.2965  140.0549  156.2680 C   0  0  0  0  0  0  0  0  0  0  0  0
  150.7597  141.2895  156.4678 N   0  0  0  0  0  0  0  0  0  0  0  0
  149.8429  142.0578  155.6133 C   0  0  0  0  0  0  0  0  0  0  0  0
  148.9036  141.1684  154.7739 C   0  0  2  0  0  0  0  0  0  0  0  0
  149.4868  141.0440  153.4928 O   0  0  0  0  0  0  0  0  0  0  0  0
  147.4787  141.7456  154.6240 C   0  0  0  0  0  0  0  0  0  0  0  0
  146.5002  141.1171  155.5526 N   0  3  2  0  0  0  0  0  0  0  0  0
  145.0905  141.4711  155.2590 C   0  0  0  0  0  0  0  0  0  0  0  0
  144.7520  142.8781  155.7799 C   0  0  0  0  0  0  0  0  0  0  0  0
  145.0130  142.9356  157.1769 O   0  0  0  0  0  0  0  0  0  0  0  0
  146.3852  142.7178  157.4893 C   0  0  1  0  0  0  0  0  0  0  0  0
  146.5484  142.8517  159.0156 C   0  0  0  0  0  0  0  0  0  0  0  0
  146.3951  144.2498  159.4953 N   0  3  0  0  0  0  0  0  0  0  0  0
  146.7715  144.4319  160.9166 C   0  0  0  0  0  0  0  0  0  0  0  0
  145.0428  144.7853  159.2219 C   0  0  0  0  0  0  0  0  0  0  0  0
  146.7950  141.3100  156.9963 C   0  0  0  0  0  0  0  0  0  0  0  0
  151.2332  141.8333  157.6688 C   0  0  0  0  0  0  0  0  0  0  0  0
  151.0019  143.0446  158.3173 C   0  0  0  0  0  0  0  0  0  0  0  0
  151.6622  143.2580  159.5483 C   0  0  0  0  0  0  0  0  0  0  0  0
  151.4277  144.5697  160.2782 C   0  0  0  0  0  0  0  0  0  0  0  0
  153.8534  141.6669  161.7022 H   0  0  0  0  0  0  0  0  0  0  0  0
  152.5144  142.6903  162.2137 H   0  0  0  0  0  0  0  0  0  0  0  0
  153.8878  143.3911  161.3444 H   0  0  0  0  0  0  0  0  0  0  0  0
  153.4134  140.3008  159.8312 H   0  0  0  0  0  0  0  0  0  0  0  0
  151.1199  139.4117  155.4175 H   0  0  0  0  0  0  0  0  0  0  0  0
  149.2802  142.7631  156.2252 H   0  0  0  0  0  0  0  0  0  0  0  0
  150.4657  142.6633  154.9530 H   0  0  0  0  0  0  0  0  0  0  0  0
  148.8726  140.1780  155.2272 H   0  0  0  0  0  0  0  0  0  0  0  0
  149.0709  140.3336  153.0290 H   0  0  0  0  0  0  0  0  0  0  0  0
  147.4811  142.8234  154.7775 H   0  0  0  0  0  0  0  0  0  0  0  0
  147.1576  141.5912  153.5926 H   0  0  0  0  0  0  0  0  0  0  0  0
  144.8846  141.3903  154.1910 H   0  0  0  0  0  0  0  0  0  0  0  0
  144.4443  140.7419  155.7497 H   0  0  0  0  0  0  0  0  0  0  0  0
  145.3215  143.6456  155.2535 H   0  0  0  0  0  0  0  0  0  0  0  0
  143.6970  143.0948  155.6108 H   0  0  0  0  0  0  0  0  0  0  0  0
  146.9955  143.4681  156.9879 H   0  0  0  0  0  0  0  0  0  0  0  0
  145.7973  142.2218  159.4953 H   0  0  0  0  0  0  0  0  0  0  0  0
  147.5181  142.4656  159.3334 H   0  0  0  0  0  0  0  0  0  0  0  0
  146.1456  143.8210  161.5682 H   0  0  0  0  0  0  0  0  0  0  0  0
  146.6511  145.4743  161.2138 H   0  0  0  0  0  0  0  0  0  0  0  0
  147.8128  144.1673  161.0955 H   0  0  0  0  0  0  0  0  0  0  0  0
  144.2817  144.2215  159.7629 H   0  0  0  0  0  0  0  0  0  0  0  0
  144.8134  144.7365  158.1568 H   0  0  0  0  0  0  0  0  0  0  0  0
  144.9729  145.8310  159.5241 H   0  0  0  0  0  0  0  0  0  0  0  0
  146.2352  140.5562  157.5522 H   0  0  0  0  0  0  0  0  0  0  0  0
  147.8468  141.1208  157.2076 H   0  0  0  0  0  0  0  0  0  0  0  0
  150.3475  143.7976  157.9042 H   0  0  0  0  0  0  0  0  0  0  0  0
  150.7325  145.2109  159.7354 H   0  0  0  0  0  0  0  0  0  0  0  0
  152.3641  145.1161  160.3931 H   0  0  0  0  0  0  0  0  0  0  0  0
  151.0086  144.3883  161.2684 H   0  0  0  0  0  0  0  0  0  0  0  0
  147.0292  144.8148  158.9477 H   0  0  0  0  0  0  0  0  0  0  0  0
  146.5717  140.1257  155.3715 H   0  0  0  0  0  0  0  0  0  0  0  0
  152.6372  138.9259  157.4305 H   0  0  0  0  0  0  0  0  0  0  0  0
  1  2  1  0  0  0  0
  1 26  1  0  0  0  0
  1 27  1  0  0  0  0
  1 28  1  0  0  0  0
  2 24  1  0  0  0  0
  2  3  2  0  0  0  0
  3  4  1  0  0  0  0
  3 29  1  0  0  0  0
  4 22  2  0  0  0  0
  4  5  1  0  0  0  0
  5  6  2  0  0  0  0
  5 58  1  0  0  0  0
  6  7  1  0  0  0  0
  6 30  1  0  0  0  0
  7  8  1  0  0  0  0
  7 22  1  0  0  0  0
  8  9  1  0  0  0  0
  8 31  1  0  0  0  0
  8 32  1  0  0  0  0
  9 10  1  0  0  0  0
  9 11  1  0  0  0  0
  9 33  1  0  0  0  0
 10 34  1  0  0  0  0
 11 12  1  0  0  0  0
 11 35  1  0  0  0  0
 11 36  1  0  0  0  0
 12 21  1  0  0  0  0
 12 13  1  0  0  0  0
 12 57  1  0  0  0  0
 13 14  1  0  0  0  0
 13 37  1  0  0  0  0
 13 38  1  0  0  0  0
 14 15  1  0  0  0  0
 14 39  1  0  0  0  0
 14 40  1  0  0  0  0
 15 16  1  0  0  0  0
 16 17  1  0  0  0  0
 16 21  1  0  0  0  0
 16 41  1  0  0  0  0
 17 18  1  0  0  0  0
 17 42  1  0  0  0  0
 17 43  1  0  0  0  0
 18 19  1  0  0  0  0
 18 20  1  0  0  0  0
 18 56  1  0  0  0  0
 19 44  1  0  0  0  0
 19 45  1  0  0  0  0
 19 46  1  0  0  0  0
 20 47  1  0  0  0  0
 20 48  1  0  0  0  0
 20 49  1  0  0  0  0
 21 50  1  0  0  0  0
 21 51  1  0  0  0  0
 22 23  1  0  0  0  0
 23 24  2  0  0  0  0
 23 52  1  0  0  0  0
 24 25  1  0  0  0  0
 25 53  1  0  0  0  0
 25 54  1  0  0  0  0
 25 55  1  0  0  0  0
M  CHG  1   5   1
M  CHG  1  12   1
M  CHG  1  18   1
M  END
> <s_m_source_file>
AV-unprocessed.smi

> <i_m_source_file_index>
1005

> <i_lp_mmshare_version>
43012

> <i_f3d_flags>
0

> <s_epik_input>
W0NIM11jKFtjSF0xKWMoW0NIM10pW2NIXWMoYzEyKW4oW2NIXW4yKVtDSDJdW0NASF0oW09IXSlbQ0gyXU4zW0NIMl1bQ0gyXU9bQ0BIXShbQ0gyXTMpW0NIMl1OKFtDSDNdKVtDSDNd

> <s_epik_cmdline>
J2VwaWtfcHl0aG9uJywgJy1waCcsICc3LjAnLCAnLXRuJywgJzgnLCAnLW1hJywgJzIwMCcsICctbWV0YWxfYmluZGluZycsICctaW1hZScsICc8aW5maWxlLm1hZT4nLCAnLW9tYWUnLCAnPG91dGZpbGUubWFlPic=

> <r_epik_Ionization_Penalty>
2.30802

> <r_epik_Ionization_Penalty_Charging>
2.30798

> <r_epik_Ionization_Penalty_Neutral>
3.4851e-05

> <r_epik_State_Penalty>
2.52618

> <r_epik_Charging_Adjusted_Penalty>
4.83416

> <i_epik_Tot_Q>
3

> <i_epik_Tot_abs_Q>
3

> <r_epik_Metal_State_Penalty>
6.53149

> <b_epik_Metal_Only>
0

> <s_lp_Force_Field>
OPLS_2005

> <r_lp_Energy>
52.3538

> <b_lp_Chiralities_Consistent>
1

> <s_lp_Variant>
AV-unprocessed.smi:1005-19

> <Gold.Version>
5.8.1

> <Gold.Id.Protein>
6NUR|6NUR_protein|mol2

> <Gold.PLP.Fitness>
55.7584

> <Gold.PLP.PLP>
-48.0325

> <Gold.PLP.part.hbond>
-4.0000

> <Gold.PLP.part.metal>
0.0000

> <Gold.PLP.part.buried>
-3.7176

> <Gold.PLP.part.nonpolar>
-39.5189

> <Gold.PLP.part.repulsive>
0.2362

> <Gold.PLP.ligand.clash>
0.0000

> <Gold.PLP.ligand.torsion>
1.5527

> <Gold.PLP.Chemscore.Hbond>
3.5189

> <Gold.PLP.Chemscore.CHOScore>
0.0000

> <Gold.PLP.Chemscore.Metal>
0.0000

> <Gold.Chemscore.Hbonds>
donor molecule, donor type, donor heavy atom, donor atom, acceptor molecule, acceptor atom, score
      L1  H    10    34       P1  7957  0.34
      L1  H    18    56       P1  8029  1.24
      P1  H  7989  7998       L1    10  0.19
      P1  H  8011  8017       L1    10  1.00

> <Gold.PLP.Chemscore.Internal.Correction>
0.2746

> <Gold.Rescore>
     Score         DG    S(hbond)    S(metal)    S(lipo)     H(rot)  DE(clash)    DE(int)     intcor
     16.47     -20.50       2.27        0.00     119.40       2.56       1.03       2.99       ----

> <Gold.Chemscore.Fitness>
16.4739

> <Gold.Chemscore.DG>
-20.5003

> <Gold.Chemscore.ZeroCoef>
-5.4800

> <Gold.Chemscore.Hbond>
2.2740

> <Gold.Chemscore.Metal>
0.0000

> <Gold.Chemscore.Lipo>
119.4040

> <Gold.Chemscore.Internal_Hbond>
0.0000

> <Gold.Chemscore.DEClash>
1.0336

> <Gold.Chemscore.DEInternal>
2.9928

> <Gold.Chemscore.Rot>
2.5566

> <Gold.Chemscore.Internal.Correction>
   9.000000E+99

> <Gold.Chemscore.Hbonds>
donor molecule, donor type, donor heavy atom, donor atom, acceptor molecule, acceptor atom, score
      L1  H    10    34       P1  7957  0.33
      L1  H    18    56       P1  8029  0.62
      P1  H  7989  7998       L1    10  0.14
      P1  H  8011  8017       L1    10  0.68

> <Gold.Chemscore.Hbond.Weighted>
-7.5950

> <Gold.Chemscore.Metal.Weighted>
-0.0000

> <Gold.Chemscore.Lipo.Weighted>
-13.9703

> <Gold.Chemscore.Internal_Hbond.Weighted>
0.0000

> <Gold.Chemscore.DEClash.Weighted>
1.0336

> <Gold.Chemscore.DEInternal.Weighted>
2.9928

> <Gold.Chemscore.Rot.Weighted>
6.5450

> <Gold.Chemscore.Internal.Correction.Weighted>
   9.000000E+99

> <Gold.Protein.RotatedTorsions>
[ 6907 6896 6895 6894 ] final  -40.32 input  -60.11 | X-H torsion
[ 7974 7965 7964 7962 ] final   99.41 input  175.53 | X-H torsion
[ 8008 7997 7996 7995 ] final   79.97 input   59.86 | X-H torsion
[ 10167 10162 10161 10158 ] final  -95.01 input  -65.29 | X-H torsion
[ 10718 10713 10712 10709 ] final  172.90 input   66.30 | X-H torsion
[ 10763 10752 10751 10750 ] final  113.97 input  -60.55 | X-H torsion
[ 11005 11000 10999 10996 ] final -114.04 input  -57.11 | X-H torsion

> <Gold.Protein.ActiveResidues>
 VAL166  LYS551  ARG553  GLY616  TRP617  ASP618  TYR619  PRO620  LYS621  CYS622 
 ASP623  PHE694  ASN695  SER759  ASP760  ASP761  ALA762  ILE779  LEU786  VAL792 
 PHE793  MET794  SER795  GLU796  ALA797  LYS798  CYS799  TRP800  GLU811  SER814 

> <Gold.Protein.RotatedAtoms>
  150.9799  134.9156  159.7837 H   0  0  0  0  0  0  0  0  0  0  0  0  # atno 6907 bound_to 6896
  152.5218  134.3425  159.9232 H   0  0  0  0  0  0  0  0  0  0  0  0  # atno 6908 bound_to 6896
  151.3432  133.3913  159.2707 H   0  0  0  0  0  0  0  0  0  0  0  0  # atno 6909 bound_to 6896
  145.3993  139.2350  143.3309 H   0  0  0  0  0  0  0  0  0  0  0  0  # atno 7974 bound_to 7965
  155.8770  140.3446  155.5861 H   0  0  0  0  0  0  0  0  0  0  0  0  # atno 8008 bound_to 7997
  155.7763  140.0852  157.2101 H   0  0  0  0  0  0  0  0  0  0  0  0  # atno 8009 bound_to 7997
  154.4021  140.1509  156.2987 H   0  0  0  0  0  0  0  0  0  0  0  0  # atno 8010 bound_to 7997
  140.3086  143.3119  152.0173 H   0  0  0  0  0  0  0  0  0  0  0  0  # atno 10167 bound_to 10162
  156.9722  131.0093  151.2902 H   0  0  0  0  0  0  0  0  0  0  0  0  # atno 10718 bound_to 10713
  153.5004  135.3639  155.2537 H   0  0  0  0  0  0  0  0  0  0  0  0  # atno 10763 bound_to 10752
  154.8748  135.3998  154.3485 H   0  0  0  0  0  0  0  0  0  0  0  0  # atno 10764 bound_to 10752
  153.4120  135.7078  153.6418 H   0  0  0  0  0  0  0  0  0  0  0  0  # atno 10765 bound_to 10752
  141.0577  133.9586  157.2724 H   0  0  0  0  0  0  0  0  0  0  0  0  # atno 11005 bound_to 11000
  146.2760  140.4688  142.8795 LP  0  0  0  0  0  0  0  0  0  0  0  0  # atno 17320 bound_to 7965
  144.8385  140.6820  143.6244 LP  0  0  0  0  0  0  0  0  0  0  0  0  # atno 17321 bound_to 7965
  139.4899  144.6402  151.6893 LP  0  0  0  0  0  0  0  0  0  0  0  0  # atno 17342 bound_to 10162
  140.5588  144.0303  150.6160 LP  0  0  0  0  0  0  0  0  0  0  0  0  # atno 17343 bound_to 10162
  157.5584  130.8229  149.8234 LP  0  0  0  0  0  0  0  0  0  0  0  0  # atno 17370 bound_to 10713
  156.0278  130.3774  150.1773 LP  0  0  0  0  0  0  0  0  0  0  0  0  # atno 17371 bound_to 10713
  139.9404  135.0191  156.8691 LP  0  0  0  0  0  0  0  0  0  0  0  0  # atno 17394 bound_to 11000
  140.5932  134.0242  155.7507 LP  0  0  0  0  0  0  0  0  0  0  0  0  # atno 17395 bound_to 11000

$$$$
