AV-unprocessed.smi:278|AV-procd|sdf|2094|dock10
  -GOLD-   2262021373D 1   1.00000     0.00000
 Structure written by MMmdl.
 50 54  0  0  0  0  0  0  0  0  1 V2000
  146.8396  140.2414  156.5677 O   0  0  0  0  0  0  0  0  0  0  0  0
  148.2459  140.0475  156.9523 S   0  0  0  0  0  0  0  0  0  0  0  0
  148.6004  139.6231  158.3157 O   0  0  0  0  0  0  0  0  0  0  0  0
  149.0425  138.9152  155.7477 C   0  0  0  0  0  0  0  0  0  0  0  0
  149.8802  139.7990  154.8142 C   0  0  0  0  0  0  0  0  0  0  0  0
  150.3334  141.0556  155.5798 C   0  0  2  0  0  0  0  0  0  0  0  0
  151.4737  140.8034  156.5722 C   0  0  0  0  0  0  0  0  0  0  0  0
  151.2844  141.7892  157.6268 N   0  0  0  0  0  0  0  0  0  0  0  0
  152.0487  141.7768  158.7504 C   0  0  0  0  0  0  0  0  0  0  0  0
  151.8711  142.7612  159.6717 N   0  0  0  0  0  0  0  0  0  0  0  0
  152.5991  142.7848  160.7916 C   0  0  0  0  0  0  0  0  0  0  0  0
  153.5425  141.9310  161.1909 N   0  0  0  0  0  0  0  0  0  0  0  0
  153.7198  140.9326  160.2798 C   0  0  0  0  0  0  0  0  0  0  0  0
  153.0238  140.7780  159.0460 C   0  0  0  0  0  0  0  0  0  0  0  0
  153.4740  139.6310  158.3995 N   0  0  0  0  0  0  0  0  0  0  0  0
  154.3834  139.1435  159.1979 C   0  0  0  0  0  0  0  0  0  0  0  0
  154.5925  139.8620  160.3517 N   0  0  0  0  0  0  0  0  0  0  0  0
  155.5305  139.5503  161.4152 C   0  0  0  0  0  0  0  0  0  0  0  0
  155.7775  138.0350  161.5517 C   0  0  1  0  0  0  0  0  0  0  0  0
  156.9256  137.7829  162.3405 O   0  0  0  0  0  0  0  0  0  0  0  0
  154.5627  137.2767  162.1227 C   0  0  1  0  0  0  0  0  0  0  0  0
  154.6791  135.7425  162.1392 C   0  0  0  0  0  0  0  0  0  0  0  0
  154.5067  135.3838  163.6044 C   0  0  0  0  0  0  0  0  0  0  0  0
  153.7300  136.5741  164.1514 C   0  0  0  0  0  0  0  0  0  0  0  0
  154.3072  137.6738  163.4673 O   0  0  0  0  0  0  0  0  0  0  0  0
  149.8956  142.2270  157.6702 C   0  0  0  0  0  0  0  0  0  0  0  0
  149.1999  141.5522  156.4790 C   0  0  2  0  0  0  0  0  0  0  0  0
  150.6335  141.8450  154.8892 H   0  0  0  0  0  0  0  0  0  0  0  0
  148.5249  142.2285  155.9542 H   0  0  0  0  0  0  0  0  0  0  0  0
  149.6789  138.2271  156.3044 H   0  0  0  0  0  0  0  0  0  0  0  0
  148.2862  138.3352  155.2188 H   0  0  0  0  0  0  0  0  0  0  0  0
  150.7233  139.2531  154.3897 H   0  0  0  0  0  0  0  0  0  0  0  0
  149.2540  140.1117  153.9780 H   0  0  0  0  0  0  0  0  0  0  0  0
  151.4097  139.8024  157.0009 H   0  0  0  0  0  0  0  0  0  0  0  0
  152.4487  140.9088  156.0955 H   0  0  0  0  0  0  0  0  0  0  0  0
  152.3948  143.6043  161.4647 H   0  0  0  0  0  0  0  0  0  0  0  0
  154.9256  138.2377  158.9685 H   0  0  0  0  0  0  0  0  0  0  0  0
  156.4652  140.0776  161.2199 H   0  0  0  0  0  0  0  0  0  0  0  0
  155.1337  139.9531  162.3478 H   0  0  0  0  0  0  0  0  0  0  0  0
  155.9876  137.6297  160.5610 H   0  0  0  0  0  0  0  0  0  0  0  0
  157.3950  138.5959  162.4498 H   0  0  0  0  0  0  0  0  0  0  0  0
  153.6797  137.5448  161.5402 H   0  0  0  0  0  0  0  0  0  0  0  0
  153.8760  135.3038  161.5457 H   0  0  0  0  0  0  0  0  0  0  0  0
  155.6222  135.3697  161.7384 H   0  0  0  0  0  0  0  0  0  0  0  0
  153.9945  134.4333  163.7554 H   0  0  0  0  0  0  0  0  0  0  0  0
  155.4823  135.3265  164.0887 H   0  0  0  0  0  0  0  0  0  0  0  0
  152.6711  136.4996  163.8987 H   0  0  0  0  0  0  0  0  0  0  0  0
  153.8221  136.6786  165.2326 H   0  0  0  0  0  0  0  0  0  0  0  0
  149.4117  141.9864  158.6170 H   0  0  0  0  0  0  0  0  0  0  0  0
  149.8731  143.3105  157.5513 H   0  0  0  0  0  0  0  0  0  0  0  0
  1  2  2  0  0  0  0
  2 27  1  0  0  0  0
  2  3  2  0  0  0  0
  2  4  1  0  0  0  0
  4  5  1  0  0  0  0
  4 30  1  0  0  0  0
  4 31  1  0  0  0  0
  5  6  1  0  0  0  0
  5 32  1  0  0  0  0
  5 33  1  0  0  0  0
  6 28  1  0  0  0  0
  6 27  1  0  0  0  0
  6  7  1  0  0  0  0
  7  8  1  0  0  0  0
  7 34  1  0  0  0  0
  7 35  1  0  0  0  0
  8  9  1  0  0  0  0
  8 26  1  0  0  0  0
  9 14  1  0  0  0  0
  9 10  2  0  0  0  0
 10 11  1  0  0  0  0
 11 12  2  0  0  0  0
 11 36  1  0  0  0  0
 12 13  1  0  0  0  0
 13 17  1  0  0  0  0
 13 14  2  0  0  0  0
 14 15  1  0  0  0  0
 15 16  2  0  0  0  0
 16 17  1  0  0  0  0
 16 37  1  0  0  0  0
 17 18  1  0  0  0  0
 18 19  1  0  0  0  0
 18 38  1  0  0  0  0
 18 39  1  0  0  0  0
 19 20  1  0  0  0  0
 19 21  1  0  0  0  0
 19 40  1  0  0  0  0
 20 41  1  0  0  0  0
 21 25  1  0  0  0  0
 21 22  1  0  0  0  0
 21 42  1  0  0  0  0
 22 23  1  0  0  0  0
 22 43  1  0  0  0  0
 22 44  1  0  0  0  0
 23 24  1  0  0  0  0
 23 45  1  0  0  0  0
 23 46  1  0  0  0  0
 24 25  1  0  0  0  0
 24 47  1  0  0  0  0
 24 48  1  0  0  0  0
 26 27  1  0  0  0  0
 26 49  1  0  0  0  0
 26 50  1  0  0  0  0
 27 29  1  0  0  0  0
M  END
> <s_m_source_file>
AV-unprocessed.smi

> <i_m_source_file_index>
278

> <i_lp_mmshare_version>
43012

> <i_f3d_flags>
0

> <s_epik_input>
W0NIMl0xW0NIMl1TKD1PKSg9TylbQ0BASF0oW0NAQEhdMTIpW0NIMl1OKFtDSDJdMiljKG5bY0hdbjMpYyhjMzQpbltjSF1uNFtDSDJdW0NASF0oW09IXSlbQ0BASF01W0NIMl1bQ0gyXVtDSDJdTzU=

> <s_epik_cmdline>
J2VwaWtfcHl0aG9uJywgJy1waCcsICc3LjAnLCAnLXRuJywgJzgnLCAnLW1hJywgJzIwMCcsICctbWV0YWxfYmluZGluZycsICctaW1hZScsICc8aW5maWxlLm1hZT4nLCAnLW9tYWUnLCAnPG91dGZpbGUubWFlPic=

> <r_lp_tautomer_probability>
1

> <r_epik_Ionization_Penalty>
0.000636766

> <r_epik_Ionization_Penalty_Charging>
0

> <r_epik_Ionization_Penalty_Neutral>
0.000636766

> <r_epik_State_Penalty>
0.000329976

> <r_epik_Charging_Adjusted_Penalty>
0.000329976

> <i_epik_Tot_Q>
0

> <i_epik_Tot_abs_Q>
0

> <r_epik_Metal_State_Penalty>
-0

> <b_epik_Metal_Only>
0

> <s_lp_Force_Field>
OPLS_2005

> <r_lp_Energy>
51.0774

> <b_lp_Chiralities_Consistent>
1

> <s_lp_Variant>
AV-unprocessed.smi:278-8

> <Gold.Version>
5.8.1

> <Gold.Id.Protein>
6NUR|6NUR_protein|mol2

> <Gold.PLP.Fitness>
44.2345

> <Gold.PLP.PLP>
-42.4745

> <Gold.PLP.part.hbond>
-2.0000

> <Gold.PLP.part.metal>
0.0000

> <Gold.PLP.part.buried>
-4.9082

> <Gold.PLP.part.nonpolar>
-35.4396

> <Gold.PLP.part.repulsive>
0.0330

> <Gold.PLP.ligand.clash>
0.0000

> <Gold.PLP.ligand.torsion>
0.7476

> <Gold.PLP.Chemscore.Hbond>
1.0000

> <Gold.PLP.Chemscore.CHOScore>
0.0000

> <Gold.PLP.Chemscore.Metal>
0.0000

> <Gold.Chemscore.Hbonds>
donor molecule, donor type, donor heavy atom, donor atom, acceptor molecule, acceptor atom, score
      P1  H  7997  8010       L1    15  0.75

> <Gold.PLP.Chemscore.Internal.Correction>
0.2552

> <Gold.Rescore>
     Score         DG    S(hbond)    S(metal)    S(lipo)     H(rot)  DE(clash)    DE(int)     intcor
      9.89     -11.80       0.66        0.00      82.03       2.13       0.03       1.88       ----

> <Gold.Chemscore.Fitness>
9.8896

> <Gold.Chemscore.DG>
-11.8011

> <Gold.Chemscore.ZeroCoef>
-5.4800

> <Gold.Chemscore.Hbond>
0.6550

> <Gold.Chemscore.Metal>
0.0000

> <Gold.Chemscore.Lipo>
82.0342

> <Gold.Chemscore.Internal_Hbond>
0.0000

> <Gold.Chemscore.DEClash>
0.0299

> <Gold.Chemscore.DEInternal>
1.8817

> <Gold.Chemscore.Rot>
2.1346

> <Gold.Chemscore.Internal.Correction>
   9.000000E+99

> <Gold.Chemscore.Hbonds>
donor molecule, donor type, donor heavy atom, donor atom, acceptor molecule, acceptor atom, score
      P1  H  7997  8010       L1    15  0.07

> <Gold.Chemscore.Hbond.Weighted>
-2.1877

> <Gold.Chemscore.Metal.Weighted>
-0.0000

> <Gold.Chemscore.Lipo.Weighted>
-9.5980

> <Gold.Chemscore.Internal_Hbond.Weighted>
0.0000

> <Gold.Chemscore.DEClash.Weighted>
0.0299

> <Gold.Chemscore.DEInternal.Weighted>
1.8817

> <Gold.Chemscore.Rot.Weighted>
5.4646

> <Gold.Chemscore.Internal.Correction.Weighted>
   9.000000E+99

> <Gold.Protein.RotatedTorsions>
[ 6907 6896 6895 6894 ] final  -92.54 input  -60.11 | X-H torsion
[ 7974 7965 7964 7962 ] final   35.71 input  175.53 | X-H torsion
[ 8008 7997 7996 7995 ] final   32.69 input   59.86 | X-H torsion
[ 10167 10162 10161 10158 ] final  -30.68 input  -65.29 | X-H torsion
[ 10718 10713 10712 10709 ] final -116.93 input   66.30 | X-H torsion
[ 10763 10752 10751 10750 ] final   47.15 input  -60.55 | X-H torsion
[ 11005 11000 10999 10996 ] final  -75.23 input  -57.11 | X-H torsion

> <Gold.Protein.ActiveResidues>
 VAL166  LYS551  ARG553  GLY616  TRP617  ASP618  TYR619  PRO620  LYS621  CYS622 
 ASP623  PHE694  ASN695  SER759  ASP760  ASP761  ALA762  ILE779  LEU786  VAL792 
 PHE793  MET794  SER795  GLU796  ALA797  LYS798  CYS799  TRP800  GLU811  SER814 

> <Gold.Protein.RotatedAtoms>
  150.6908  134.2106  159.4357 H   0  0  0  0  0  0  0  0  0  0  0  0  # atno 6907 bound_to 6896
  152.0068  134.9896  160.0576 H   0  0  0  0  0  0  0  0  0  0  0  0  # atno 6908 bound_to 6896
  152.1526  133.4497  159.4858 H   0  0  0  0  0  0  0  0  0  0  0  0  # atno 6909 bound_to 6896
  146.1263  139.6108  142.9256 H   0  0  0  0  0  0  0  0  0  0  0  0  # atno 7974 bound_to 7965
  155.1266  140.3253  155.4484 H   0  0  0  0  0  0  0  0  0  0  0  0  # atno 8008 bound_to 7997
  156.2647  140.2018  156.6335 H   0  0  0  0  0  0  0  0  0  0  0  0  # atno 8009 bound_to 7997
  154.6644  140.0543  157.0084 H   0  0  0  0  0  0  0  0  0  0  0  0  # atno 8010 bound_to 7997
  140.7246  143.3829  151.1567 H   0  0  0  0  0  0  0  0  0  0  0  0  # atno 10167 bound_to 10162
  156.0998  130.6162  150.9099 H   0  0  0  0  0  0  0  0  0  0  0  0  # atno 10718 bound_to 10713
  152.9803  135.5985  154.3715 H   0  0  0  0  0  0  0  0  0  0  0  0  # atno 10763 bound_to 10752
  154.3388  135.2768  155.2435 H   0  0  0  0  0  0  0  0  0  0  0  0  # atno 10764 bound_to 10752
  154.4526  135.5986  153.6257 H   0  0  0  0  0  0  0  0  0  0  0  0  # atno 10765 bound_to 10752
  141.1643  133.6939  156.7485 H   0  0  0  0  0  0  0  0  0  0  0  0  # atno 11005 bound_to 11000
  145.5357  141.0424  143.2358 LP  0  0  0  0  0  0  0  0  0  0  0  0  # atno 17320 bound_to 7965
  144.7646  139.6876  143.7220 LP  0  0  0  0  0  0  0  0  0  0  0  0  # atno 17321 bound_to 7965
  139.7422  143.8907  152.3053 LP  0  0  0  0  0  0  0  0  0  0  0  0  # atno 17342 bound_to 10162
  139.8732  144.7057  150.8963 LP  0  0  0  0  0  0  0  0  0  0  0  0  # atno 17343 bound_to 10162
  157.6166  131.0933  150.8699 LP  0  0  0  0  0  0  0  0  0  0  0  0  # atno 17370 bound_to 10713
  156.8830  130.5186  149.5290 LP  0  0  0  0  0  0  0  0  0  0  0  0  # atno 17371 bound_to 10713
  140.2621  134.8458  157.3769 LP  0  0  0  0  0  0  0  0  0  0  0  0  # atno 17394 bound_to 11000
  140.1601  134.4740  155.7901 LP  0  0  0  0  0  0  0  0  0  0  0  0  # atno 17395 bound_to 11000

$$$$
