AV-unprocessed.smi:3346|AV-procd|sdf|12907|dock5
  -GOLD-   2272019323D 1   1.00000     0.00000
 Structure written by MMmdl.
 48 49  0  0  0  0  0  0  0  0  2 V2000
  144.0815  135.2915  150.0193 C   0  0  0  0  0  0  0  0  0  0  0  0
  144.8449  134.0885  150.5981 C   0  0  0  0  0  0  0  0  0  0  0  0
  143.8597  133.0096  151.0738 C   0  0  0  0  0  0  0  0  0  0  0  0
  145.7923  134.4878  151.7497 C   0  0  0  0  0  0  0  0  0  0  0  0
  146.8352  133.4296  152.1805 C   0  0  2  0  0  0  0  0  0  0  0  0
  146.1809  132.1758  152.7814 C   0  0  0  0  0  0  0  0  0  0  0  0
  147.7566  134.0172  153.1762 N   0  3  0  0  0  0  0  0  0  0  0  0
  148.7441  133.0785  153.7485 C   0  0  0  0  0  0  0  0  0  0  0  0
  149.4762  133.7316  154.9086 C   0  0  0  0  0  0  0  0  0  0  0  0
  149.3714  135.1245  155.1080 C   0  0  0  0  0  0  0  0  0  0  0  0
  150.0730  135.7187  156.1725 C   0  0  0  0  0  0  0  0  0  0  0  0
  150.8570  134.8929  156.9991 C   0  0  0  0  0  0  0  0  0  0  0  0
  150.9672  133.5600  156.8196 N   0  0  0  0  0  0  0  0  0  0  0  0
  150.2926  132.9825  155.7964 C   0  0  0  0  0  0  0  0  0  0  0  0
  150.4116  131.5897  155.6431 N   0  0  0  0  0  0  0  0  0  0  0  0
  151.4778  130.9560  156.4115 C   0  0  0  0  0  0  0  0  0  0  0  0
  151.5843  129.4690  156.0312 C   0  0  0  0  0  0  0  0  0  0  0  0
  150.3254  128.8351  156.2376 O   0  0  0  0  0  0  0  0  0  0  0  0
  149.2961  129.4081  155.4363 C   0  0  0  0  0  0  0  0  0  0  0  0
  149.1353  130.8992  155.7828 C   0  0  0  0  0  0  0  0  0  0  0  0
  143.5109  135.8087  150.7915 H   0  0  0  0  0  0  0  0  0  0  0  0
  143.3804  134.9745  149.2468 H   0  0  0  0  0  0  0  0  0  0  0  0
  144.7558  136.0131  149.5589 H   0  0  0  0  0  0  0  0  0  0  0  0
  145.4332  133.6453  149.7948 H   0  0  0  0  0  0  0  0  0  0  0  0
  143.2286  133.3771  151.8838 H   0  0  0  0  0  0  0  0  0  0  0  0
  144.3866  132.1271  151.4387 H   0  0  0  0  0  0  0  0  0  0  0  0
  143.2057  132.6871  150.2628 H   0  0  0  0  0  0  0  0  0  0  0  0
  146.3037  135.4042  151.4581 H   0  0  0  0  0  0  0  0  0  0  0  0
  145.1940  134.7554  152.6219 H   0  0  0  0  0  0  0  0  0  0  0  0
  147.4325  133.1176  151.3233 H   0  0  0  0  0  0  0  0  0  0  0  0
  145.5743  131.6483  152.0456 H   0  0  0  0  0  0  0  0  0  0  0  0
  145.5394  132.4269  153.6268 H   0  0  0  0  0  0  0  0  0  0  0  0
  146.9353  131.4719  153.1347 H   0  0  0  0  0  0  0  0  0  0  0  0
  148.2487  134.7798  152.7333 H   0  0  0  0  0  0  0  0  0  0  0  0
  148.2277  132.1785  154.0837 H   0  0  0  0  0  0  0  0  0  0  0  0
  149.4638  132.7538  152.9978 H   0  0  0  0  0  0  0  0  0  0  0  0
  148.7650  135.7326  154.4526 H   0  0  0  0  0  0  0  0  0  0  0  0
  150.0136  136.7822  156.3507 H   0  0  0  0  0  0  0  0  0  0  0  0
  151.4105  135.3132  157.8256 H   0  0  0  0  0  0  0  0  0  0  0  0
  152.4240  131.4625  156.2182 H   0  0  0  0  0  0  0  0  0  0  0  0
  151.2723  131.0463  157.4791 H   0  0  0  0  0  0  0  0  0  0  0  0
  151.8969  129.3510  154.9927 H   0  0  0  0  0  0  0  0  0  0  0  0
  152.3356  128.9761  156.6481 H   0  0  0  0  0  0  0  0  0  0  0  0
  149.5287  129.2740  154.3792 H   0  0  0  0  0  0  0  0  0  0  0  0
  148.3630  128.8768  155.6244 H   0  0  0  0  0  0  0  0  0  0  0  0
  148.7771  131.0058  156.8079 H   0  0  0  0  0  0  0  0  0  0  0  0
  148.3870  131.3546  155.1331 H   0  0  0  0  0  0  0  0  0  0  0  0
  147.2122  134.3900  153.9409 H   0  0  0  0  0  0  0  0  0  0  0  0
  1  2  1  0  0  0  0
  1 21  1  0  0  0  0
  1 22  1  0  0  0  0
  1 23  1  0  0  0  0
  2  3  1  0  0  0  0
  2  4  1  0  0  0  0
  2 24  1  0  0  0  0
  3 25  1  0  0  0  0
  3 26  1  0  0  0  0
  3 27  1  0  0  0  0
  4  5  1  0  0  0  0
  4 28  1  0  0  0  0
  4 29  1  0  0  0  0
  5  6  1  0  0  0  0
  5  7  1  0  0  0  0
  5 30  1  0  0  0  0
  6 31  1  0  0  0  0
  6 32  1  0  0  0  0
  6 33  1  0  0  0  0
  7  8  1  0  0  0  0
  7 34  1  0  0  0  0
  7 48  1  0  0  0  0
  8  9  1  0  0  0  0
  8 35  1  0  0  0  0
  8 36  1  0  0  0  0
  9 14  1  0  0  0  0
  9 10  2  0  0  0  0
 10 11  1  0  0  0  0
 10 37  1  0  0  0  0
 11 12  2  0  0  0  0
 11 38  1  0  0  0  0
 12 13  1  0  0  0  0
 12 39  1  0  0  0  0
 13 14  2  0  0  0  0
 14 15  1  0  0  0  0
 15 20  1  0  0  0  0
 15 16  1  0  0  0  0
 16 17  1  0  0  0  0
 16 40  1  0  0  0  0
 16 41  1  0  0  0  0
 17 18  1  0  0  0  0
 17 42  1  0  0  0  0
 17 43  1  0  0  0  0
 18 19  1  0  0  0  0
 19 20  1  0  0  0  0
 19 44  1  0  0  0  0
 19 45  1  0  0  0  0
 20 46  1  0  0  0  0
 20 47  1  0  0  0  0
M  CHG  1   7   1
M  END
> <s_m_source_file>
AV-unprocessed.smi

> <i_m_source_file_index>
3346

> <i_lp_mmshare_version>
43012

> <i_f3d_flags>
0

> <s_epik_input>
W0NIM11bQ0hdKFtDSDNdKVtDSDJdW0NASF0oW0NIM10pW05IXVtDSDJdYzFbY0hdW2NIXVtjSF1uYzFOMltDSDJdW0NIMl1PW0NIMl1bQ0gyXTI=

> <s_epik_cmdline>
J2VwaWtfcHl0aG9uJywgJy1waCcsICc3LjAnLCAnLXRuJywgJzgnLCAnLW1hJywgJzIwMCcsICctbWV0YWxfYmluZGluZycsICctaW1hZScsICc8aW5maWxlLm1hZT4nLCAnLW9tYWUnLCAnPG91dGZpbGUubWFlPic=

> <r_lp_tautomer_probability>
1

> <r_epik_Ionization_Penalty>
0.0185938

> <r_epik_Ionization_Penalty_Charging>
0.0176519

> <r_epik_Ionization_Penalty_Neutral>
0.000941891

> <r_epik_State_Penalty>
0.0140027

> <r_epik_Charging_Adjusted_Penalty>
0.0316546

> <i_epik_Tot_Q>
1

> <i_epik_Tot_abs_Q>
1

> <r_epik_Metal_State_Penalty>
0.0141454

> <b_epik_Metal_Only>
0

> <s_lp_Force_Field>
OPLS_2005

> <r_lp_Energy>
22.6913

> <b_lp_Chiralities_Consistent>
1

> <s_lp_Variant>
AV-unprocessed.smi:3346-1

> <Gold.Version>
5.8.1

> <Gold.Id.Protein>
6NUR|6NUR_protein|mol2

> <Gold.PLP.Fitness>
38.3642

> <Gold.PLP.PLP>
-33.0476

> <Gold.PLP.part.hbond>
-1.0000

> <Gold.PLP.part.metal>
0.0000

> <Gold.PLP.part.buried>
-0.9982

> <Gold.PLP.part.nonpolar>
-30.6208

> <Gold.PLP.part.repulsive>
0.0792

> <Gold.PLP.ligand.clash>
0.0045

> <Gold.PLP.ligand.torsion>
0.4188

> <Gold.PLP.Chemscore.Hbond>
2.0000

> <Gold.PLP.Chemscore.CHOScore>
0.0000

> <Gold.PLP.Chemscore.Metal>
0.0000

> <Gold.Chemscore.Hbonds>
donor molecule, donor type, donor heavy atom, donor atom, acceptor molecule, acceptor atom, score
      L1  H     7    34       P1  7948  2.00

> <Gold.PLP.Chemscore.Internal.Correction>
0.1587

> <Gold.Rescore>
     Score         DG    S(hbond)    S(metal)    S(lipo)     H(rot)  DE(clash)    DE(int)     intcor
     12.73     -13.79       0.90        0.00      80.92       1.62       0.30       0.77       ----

> <Gold.Chemscore.Fitness>
12.7259

> <Gold.Chemscore.DG>
-13.7873

> <Gold.Chemscore.ZeroCoef>
-5.4800

> <Gold.Chemscore.Hbond>
0.8981

> <Gold.Chemscore.Metal>
0.0000

> <Gold.Chemscore.Lipo>
80.9179

> <Gold.Chemscore.Internal_Hbond>
0.0000

> <Gold.Chemscore.DEClash>
0.2951

> <Gold.Chemscore.DEInternal>
0.7662

> <Gold.Chemscore.Rot>
1.6248

> <Gold.Chemscore.Internal.Correction>
   9.000000E+99

> <Gold.Chemscore.Hbonds>
donor molecule, donor type, donor heavy atom, donor atom, acceptor molecule, acceptor atom, score
      L1  H     7    34       P1  7948  0.60

> <Gold.Chemscore.Hbond.Weighted>
-2.9995

> <Gold.Chemscore.Metal.Weighted>
-0.0000

> <Gold.Chemscore.Lipo.Weighted>
-9.4674

> <Gold.Chemscore.Internal_Hbond.Weighted>
0.0000

> <Gold.Chemscore.DEClash.Weighted>
0.2951

> <Gold.Chemscore.DEInternal.Weighted>
0.7662

> <Gold.Chemscore.Rot.Weighted>
4.1596

> <Gold.Chemscore.Internal.Correction.Weighted>
   9.000000E+99

> <Gold.Protein.RotatedTorsions>
[ 6907 6896 6895 6894 ] final  130.44 input  -60.11 | X-H torsion
[ 7974 7965 7964 7962 ] final  -39.37 input  175.53 | X-H torsion
[ 8008 7997 7996 7995 ] final -125.93 input   59.86 | X-H torsion
[ 10167 10162 10161 10158 ] final   64.01 input  -65.29 | X-H torsion
[ 10718 10713 10712 10709 ] final  174.49 input   66.30 | X-H torsion
[ 10763 10752 10751 10750 ] final   98.32 input  -60.55 | X-H torsion
[ 11005 11000 10999 10996 ] final  103.05 input  -57.11 | X-H torsion

> <Gold.Protein.ActiveResidues>
 VAL166  LYS551  ARG553  GLY616  TRP617  ASP618  TYR619  PRO620  LYS621  CYS622 
 ASP623  PHE694  ASN695  SER759  ASP760  ASP761  ALA762  ILE779  LEU786  VAL792 
 PHE793  MET794  SER795  GLU796  ALA797  LYS798  CYS799  TRP800  GLU811  SER814 

> <Gold.Protein.RotatedAtoms>
  152.3526  133.6198  159.5955 H   0  0  0  0  0  0  0  0  0  0  0  0  # atno 6907 bound_to 6896
  150.7547  133.9551  159.3506 H   0  0  0  0  0  0  0  0  0  0  0  0  # atno 6908 bound_to 6896
  151.7400  135.0857  160.0365 H   0  0  0  0  0  0  0  0  0  0  0  0  # atno 6909 bound_to 6896
  146.0402  140.6619  142.9091 H   0  0  0  0  0  0  0  0  0  0  0  0  # atno 7974 bound_to 7965
  155.2214  140.0422  157.2949 H   0  0  0  0  0  0  0  0  0  0  0  0  # atno 8008 bound_to 7997
  154.5947  140.2436  155.7843 H   0  0  0  0  0  0  0  0  0  0  0  0  # atno 8009 bound_to 7997
  156.2282  140.2947  156.0130 H   0  0  0  0  0  0  0  0  0  0  0  0  # atno 8010 bound_to 7997
  140.1268  144.4680  150.6888 H   0  0  0  0  0  0  0  0  0  0  0  0  # atno 10167 bound_to 10162
  156.9488  131.0024  151.2953 H   0  0  0  0  0  0  0  0  0  0  0  0  # atno 10718 bound_to 10713
  153.2876  135.4152  155.1137 H   0  0  0  0  0  0  0  0  0  0  0  0  # atno 10763 bound_to 10752
  154.8510  135.3510  154.6026 H   0  0  0  0  0  0  0  0  0  0  0  0  # atno 10764 bound_to 10752
  153.6448  135.7055  153.5287 H   0  0  0  0  0  0  0  0  0  0  0  0  # atno 10765 bound_to 10752
  139.8781  134.9248  156.5150 H   0  0  0  0  0  0  0  0  0  0  0  0  # atno 11005 bound_to 11000
  144.7071  140.3894  143.7110 LP  0  0  0  0  0  0  0  0  0  0  0  0  # atno 17320 bound_to 7965
  145.6897  139.1636  143.2654 LP  0  0  0  0  0  0  0  0  0  0  0  0  # atno 17321 bound_to 7965
  140.6840  143.2341  151.5308 LP  0  0  0  0  0  0  0  0  0  0  0  0  # atno 17342 bound_to 10162
  139.5540  144.2322  152.1580 LP  0  0  0  0  0  0  0  0  0  0  0  0  # atno 17343 bound_to 10162
  157.5736  130.8327  149.8425 LP  0  0  0  0  0  0  0  0  0  0  0  0  # atno 17370 bound_to 10713
  156.0372  130.3748  150.1530 LP  0  0  0  0  0  0  0  0  0  0  0  0  # atno 17371 bound_to 10713
  140.8492  133.8145  155.9152 LP  0  0  0  0  0  0  0  0  0  0  0  0  # atno 17394 bound_to 11000
  140.9161  134.2200  157.4956 LP  0  0  0  0  0  0  0  0  0  0  0  0  # atno 17395 bound_to 11000

$$$$
