AV-unprocessed.smi:87|AV-procd|sdf|820|dock5
  -GOLD-   2262017223D 1   1.00000     0.00000
 Structure written by MMmdl.
 58 60  0  0  0  0  0  0  0  0  1 V2000
  147.2691  133.8689  162.3725 C   0  0  0  0  0  0  0  0  0  0  0  0
  146.2359  134.3256  161.3321 C   0  0  0  0  0  0  0  0  0  0  0  0
  146.7148  135.4806  160.4203 C   0  0  0  0  0  0  0  0  0  0  0  0
  147.4525  136.5708  161.2322 C   0  0  0  0  0  0  0  0  0  0  0  0
  146.6942  137.0474  162.4801 C   0  0  0  0  0  0  0  0  0  0  0  0
  145.5354  136.0991  159.6255 C   0  0  0  0  0  0  0  0  0  0  0  0
  145.9137  136.6484  158.3201 N   0  0  0  0  0  0  0  0  0  0  0  0
  147.0018  137.6220  158.2369 C   0  0  0  0  0  0  0  0  0  0  0  0
  148.2537  137.0510  157.5537 C   0  0  0  0  0  0  0  0  0  0  0  0
  149.3824  136.9069  158.4841 C   0  0  0  0  0  0  0  0  0  0  0  0
  150.2708  136.7938  159.2164 N   0  0  0  0  0  0  0  0  0  0  0  0
  145.0748  136.4489  157.2663 C   0  0  0  0  0  0  0  0  0  0  0  0
  143.7487  136.3084  157.5307 N   0  0  0  0  0  0  0  0  0  0  0  0
  142.8729  136.1136  156.5416 C   0  0  0  0  0  0  0  0  0  0  0  0
  143.1020  136.0270  155.2312 N   0  0  0  0  0  0  0  0  0  0  0  0
  144.4281  136.1753  154.9523 C   0  0  0  0  0  0  0  0  0  0  0  0
  145.4740  136.3901  155.8965 C   0  0  0  0  0  0  0  0  0  0  0  0
  146.6859  136.5105  155.2233 N   0  0  0  0  0  0  0  0  0  0  0  0
  146.3773  136.3648  153.9645 C   0  0  0  0  0  0  0  0  0  0  0  0
  145.0417  136.1593  153.7123 N   0  0  0  0  0  0  0  0  0  0  0  0
  144.4234  135.9727  152.4103 C   0  0  0  0  0  0  0  0  0  0  0  0
  145.3445  135.2332  151.4126 C   0  0  2  0  0  0  0  0  0  0  0  0
  144.7336  135.2850  150.1363 O   0  0  0  0  0  0  0  0  0  0  0  0
  145.5747  133.7393  151.7463 C   0  0  2  0  0  0  0  0  0  0  0  0
  146.4560  132.9648  150.7508 C   0  0  0  0  0  0  0  0  0  0  0  0
  145.4573  132.3910  149.7732 C   0  0  0  0  0  0  0  0  0  0  0  0
  144.3091  132.0442  150.7068 C   0  0  0  0  0  0  0  0  0  0  0  0
  144.3016  133.0898  151.6710 O   0  0  0  0  0  0  0  0  0  0  0  0
  146.9052  132.9960  162.9149 H   0  0  0  0  0  0  0  0  0  0  0  0
  147.4787  134.6414  163.1112 H   0  0  0  0  0  0  0  0  0  0  0  0
  148.2101  133.5915  161.8968 H   0  0  0  0  0  0  0  0  0  0  0  0
  145.9997  133.4532  160.7249 H   0  0  0  0  0  0  0  0  0  0  0  0
  145.3066  134.6043  161.8300 H   0  0  0  0  0  0  0  0  0  0  0  0
  147.4305  135.0645  159.7103 H   0  0  0  0  0  0  0  0  0  0  0  0
  148.4428  136.2144  161.5182 H   0  0  0  0  0  0  0  0  0  0  0  0
  147.6204  137.4479  160.6094 H   0  0  0  0  0  0  0  0  0  0  0  0
  147.2185  137.8780  162.9529 H   0  0  0  0  0  0  0  0  0  0  0  0
  146.5979  136.2608  163.2274 H   0  0  0  0  0  0  0  0  0  0  0  0
  145.6926  137.3932  162.2231 H   0  0  0  0  0  0  0  0  0  0  0  0
  144.7589  135.3452  159.4925 H   0  0  0  0  0  0  0  0  0  0  0  0
  145.0607  136.8954  160.1967 H   0  0  0  0  0  0  0  0  0  0  0  0
  146.6623  138.5208  157.7241 H   0  0  0  0  0  0  0  0  0  0  0  0
  147.2734  137.9450  159.2421 H   0  0  0  0  0  0  0  0  0  0  0  0
  148.0403  136.0677  157.1346 H   0  0  0  0  0  0  0  0  0  0  0  0
  148.5889  137.6838  156.7330 H   0  0  0  0  0  0  0  0  0  0  0  0
  141.8410  136.0136  156.8440 H   0  0  0  0  0  0  0  0  0  0  0  0
  147.1190  136.4085  153.1802 H   0  0  0  0  0  0  0  0  0  0  0  0
  143.4987  135.4197  152.5707 H   0  0  0  0  0  0  0  0  0  0  0  0
  144.1397  136.9487  152.0147 H   0  0  0  0  0  0  0  0  0  0  0  0
  146.3019  135.7531  151.3586 H   0  0  0  0  0  0  0  0  0  0  0  0
  145.4086  135.2298  149.4771 H   0  0  0  0  0  0  0  0  0  0  0  0
  145.9878  133.6392  152.7513 H   0  0  0  0  0  0  0  0  0  0  0  0
  147.2355  133.5497  150.2672 H   0  0  0  0  0  0  0  0  0  0  0  0
  146.9523  132.1456  151.2732 H   0  0  0  0  0  0  0  0  0  0  0  0
  145.1491  133.1508  149.0540 H   0  0  0  0  0  0  0  0  0  0  0  0
  145.8374  131.5285  149.2253 H   0  0  0  0  0  0  0  0  0  0  0  0
  143.3525  131.9675  150.1896 H   0  0  0  0  0  0  0  0  0  0  0  0
  144.5009  131.0978  151.2140 H   0  0  0  0  0  0  0  0  0  0  0  0
  1  2  1  0  0  0  0
  1 29  1  0  0  0  0
  1 30  1  0  0  0  0
  1 31  1  0  0  0  0
  2  3  1  0  0  0  0
  2 32  1  0  0  0  0
  2 33  1  0  0  0  0
  3  4  1  0  0  0  0
  3  6  1  0  0  0  0
  3 34  1  0  0  0  0
  4  5  1  0  0  0  0
  4 35  1  0  0  0  0
  4 36  1  0  0  0  0
  5 37  1  0  0  0  0
  5 38  1  0  0  0  0
  5 39  1  0  0  0  0
  6  7  1  0  0  0  0
  6 40  1  0  0  0  0
  6 41  1  0  0  0  0
  7  8  1  0  0  0  0
  7 12  1  0  0  0  0
  8  9  1  0  0  0  0
  8 42  1  0  0  0  0
  8 43  1  0  0  0  0
  9 10  1  0  0  0  0
  9 44  1  0  0  0  0
  9 45  1  0  0  0  0
 10 11  3  0  0  0  0
 12 17  1  0  0  0  0
 12 13  2  0  0  0  0
 13 14  1  0  0  0  0
 14 15  2  0  0  0  0
 14 46  1  0  0  0  0
 15 16  1  0  0  0  0
 16 20  1  0  0  0  0
 16 17  2  0  0  0  0
 17 18  1  0  0  0  0
 18 19  2  0  0  0  0
 19 20  1  0  0  0  0
 19 47  1  0  0  0  0
 20 21  1  0  0  0  0
 21 22  1  0  0  0  0
 21 48  1  0  0  0  0
 21 49  1  0  0  0  0
 22 23  1  0  0  0  0
 22 24  1  0  0  0  0
 22 50  1  0  0  0  0
 23 51  1  0  0  0  0
 24 28  1  0  0  0  0
 24 25  1  0  0  0  0
 24 52  1  0  0  0  0
 25 26  1  0  0  0  0
 25 53  1  0  0  0  0
 25 54  1  0  0  0  0
 26 27  1  0  0  0  0
 26 55  1  0  0  0  0
 26 56  1  0  0  0  0
 27 28  1  0  0  0  0
 27 57  1  0  0  0  0
 27 58  1  0  0  0  0
M  END
> <s_m_source_file>
AV-unprocessed.smi

> <i_m_source_file_index>
87

> <i_lp_mmshare_version>
43012

> <i_f3d_flags>
0

> <s_epik_input>
W0NIM11bQ0gyXVtDSF0oW0NIMl1bQ0gzXSlbQ0gyXU4oW0NIMl1bQ0gyXUMjTiljKG5bY0hdbjEpYyhjMTIpbltjSF1uMltDSDJdW0NASF0oW09IXSlbQ0BASF0zW0NIMl1bQ0gyXVtDSDJdTzM=

> <s_epik_cmdline>
J2VwaWtfcHl0aG9uJywgJy1waCcsICc3LjAnLCAnLXRuJywgJzgnLCAnLW1hJywgJzIwMCcsICctbWV0YWxfYmluZGluZycsICctaW1hZScsICc8aW5maWxlLm1hZT4nLCAnLW9tYWUnLCAnPG91dGZpbGUubWFlPic=

> <r_lp_tautomer_probability>
1

> <r_epik_Ionization_Penalty>
0.000348566

> <r_epik_Ionization_Penalty_Charging>
0

> <r_epik_Ionization_Penalty_Neutral>
0.000348566

> <r_epik_State_Penalty>
-0

> <r_epik_Charging_Adjusted_Penalty>
0

> <i_epik_Tot_Q>
0

> <i_epik_Tot_abs_Q>
0

> <r_epik_Metal_State_Penalty>
-0

> <b_epik_Metal_Only>
0

> <s_lp_Force_Field>
OPLS_2005

> <r_lp_Energy>
36.7846

> <b_lp_Chiralities_Consistent>
1

> <s_lp_Variant>
AV-unprocessed.smi:87-1

> <Gold.Version>
5.8.1

> <Gold.Id.Protein>
6NUR|6NUR_protein|mol2

> <Gold.PLP.Fitness>
40.3611

> <Gold.PLP.PLP>
-33.7178

> <Gold.PLP.part.hbond>
-2.0000

> <Gold.PLP.part.metal>
0.0000

> <Gold.PLP.part.buried>
-5.2351

> <Gold.PLP.part.nonpolar>
-26.9546

> <Gold.PLP.part.repulsive>
0.2061

> <Gold.PLP.ligand.clash>
0.0000

> <Gold.PLP.ligand.torsion>
2.1599

> <Gold.PLP.Chemscore.Hbond>
2.0000

> <Gold.PLP.Chemscore.CHOScore>
1.4100

> <Gold.PLP.Chemscore.Metal>
0.0000

> <Gold.Chemscore.Hbonds>
donor molecule, donor type, donor heavy atom, donor atom, acceptor molecule, acceptor atom, score
      L1  H    23    51       P1  7921  1.00
      P1  H  6896  6907       L1    11  1.00
      L1  C    14    46       P1 11000  0.39
      L1  C    19    47       P1  7948  1.00

> <Gold.PLP.Chemscore.Internal.Correction>
0.7331

> <Gold.Rescore>
     Score         DG    S(hbond)    S(metal)    S(lipo)     H(rot)  DE(clash)    DE(int)     intcor
      9.57     -12.90       1.97        0.00      80.96       3.37       0.00       3.32       ----

> <Gold.Chemscore.Fitness>
9.5723

> <Gold.Chemscore.DG>
-12.8983

> <Gold.Chemscore.ZeroCoef>
-5.4800

> <Gold.Chemscore.Hbond>
1.9658

> <Gold.Chemscore.Metal>
0.0000

> <Gold.Chemscore.Lipo>
80.9622

> <Gold.Chemscore.Internal_Hbond>
0.0000

> <Gold.Chemscore.DEClash>
0.0038

> <Gold.Chemscore.DEInternal>
3.3223

> <Gold.Chemscore.Rot>
3.3672

> <Gold.Chemscore.Internal.Correction>
   9.000000E+99

> <Gold.Chemscore.Hbonds>
donor molecule, donor type, donor heavy atom, donor atom, acceptor molecule, acceptor atom, score
      L1  H    23    51       P1  7921  0.93
      P1  H  6896  6907       L1    11  0.95

> <Gold.Chemscore.Hbond.Weighted>
-6.5658

> <Gold.Chemscore.Metal.Weighted>
-0.0000

> <Gold.Chemscore.Lipo.Weighted>
-9.4726

> <Gold.Chemscore.Internal_Hbond.Weighted>
0.0000

> <Gold.Chemscore.DEClash.Weighted>
0.0038

> <Gold.Chemscore.DEInternal.Weighted>
3.3223

> <Gold.Chemscore.Rot.Weighted>
8.6201

> <Gold.Chemscore.Internal.Correction.Weighted>
   9.000000E+99

> <Gold.Protein.RotatedTorsions>
[ 6907 6896 6895 6894 ] final  -28.83 input  -60.11 | X-H torsion
[ 7974 7965 7964 7962 ] final  -81.69 input  175.53 | X-H torsion
[ 8008 7997 7996 7995 ] final -143.66 input   59.86 | X-H torsion
[ 10167 10162 10161 10158 ] final -133.27 input  -65.29 | X-H torsion
[ 10718 10713 10712 10709 ] final  -65.96 input   66.30 | X-H torsion
[ 10763 10752 10751 10750 ] final   15.38 input  -60.55 | X-H torsion
[ 11005 11000 10999 10996 ] final   -3.64 input  -57.11 | X-H torsion

> <Gold.Protein.ActiveResidues>
 VAL166  LYS551  ARG553  GLY616  TRP617  ASP618  TYR619  PRO620  LYS621  CYS622 
 ASP623  PHE694  ASN695  SER759  ASP760  ASP761  ALA762  ILE779  LEU786  VAL792 
 PHE793  MET794  SER795  GLU796  ALA797  LYS798  CYS799  TRP800  GLU811  SER814 

> <Gold.Protein.RotatedAtoms>
  151.1275  135.0113  159.8566 H   0  0  0  0  0  0  0  0  0  0  0  0  # atno 6907 bound_to 6896
  152.5450  134.1649  159.8583 H   0  0  0  0  0  0  0  0  0  0  0  0  # atno 6908 bound_to 6896
  151.1713  133.4738  159.2627 H   0  0  0  0  0  0  0  0  0  0  0  0  # atno 6909 bound_to 6896
  145.5433  140.9507  143.1539 H   0  0  0  0  0  0  0  0  0  0  0  0  # atno 7974 bound_to 7965
  155.5142  140.0586  157.2918 H   0  0  0  0  0  0  0  0  0  0  0  0  # atno 8008 bound_to 7997
  154.4541  140.1964  156.0379 H   0  0  0  0  0  0  0  0  0  0  0  0  # atno 8009 bound_to 7997
  156.0763  140.3253  155.7642 H   0  0  0  0  0  0  0  0  0  0  0  0  # atno 8010 bound_to 7997
  139.9000  143.6619  152.2596 H   0  0  0  0  0  0  0  0  0  0  0  0  # atno 10167 bound_to 10162
  156.0639  130.4255  150.1640 H   0  0  0  0  0  0  0  0  0  0  0  0  # atno 10718 bound_to 10713
  153.1531  135.6782  153.8852 H   0  0  0  0  0  0  0  0  0  0  0  0  # atno 10763 bound_to 10752
  153.8272  135.3122  155.3417 H   0  0  0  0  0  0  0  0  0  0  0  0  # atno 10764 bound_to 10752
  154.7877  135.4852  154.0070 H   0  0  0  0  0  0  0  0  0  0  0  0  # atno 10765 bound_to 10752
  140.6715  133.9232  155.8498 H   0  0  0  0  0  0  0  0  0  0  0  0  # atno 11005 bound_to 11000
  144.7566  139.7060  143.7251 LP  0  0  0  0  0  0  0  0  0  0  0  0  # atno 17320 bound_to 7965
  146.1966  139.5236  142.9770 LP  0  0  0  0  0  0  0  0  0  0  0  0  # atno 17321 bound_to 7965
  139.7034  144.7632  151.1235 LP  0  0  0  0  0  0  0  0  0  0  0  0  # atno 17342 bound_to 10162
  140.7709  143.5427  150.9294 LP  0  0  0  0  0  0  0  0  0  0  0  0  # atno 17343 bound_to 10162
  156.9703  130.9832  151.3460 LP  0  0  0  0  0  0  0  0  0  0  0  0  # atno 17370 bound_to 10713
  157.5668  130.8283  149.8338 LP  0  0  0  0  0  0  0  0  0  0  0  0  # atno 17371 bound_to 10713
  141.0388  134.0651  157.3927 LP  0  0  0  0  0  0  0  0  0  0  0  0  # atno 17394 bound_to 11000
  139.8980  135.0153  156.7127 LP  0  0  0  0  0  0  0  0  0  0  0  0  # atno 17395 bound_to 11000

$$$$
