AV-unprocessed.smi:3303|AV-procd|sdf|12678|dock10
  -GOLD-   2272019 13D 1   1.00000     0.00000
 Structure written by MMmdl.
 44 45  0  0  0  0  0  0  0  0  2 V2000
  152.0459  140.6796  157.6927 C   0  0  0  0  0  0  0  0  0  0  0  0
  151.3189  141.6840  158.6027 C   0  0  1  0  0  0  0  0  0  0  0  0
  152.2962  142.2346  159.6620 C   0  0  0  0  0  0  0  0  0  0  0  0
  151.6258  143.1949  160.5384 N   0  0  0  0  0  0  0  0  0  0  0  0
  152.4938  143.5624  161.6503 C   0  0  0  0  0  0  0  0  0  0  0  0
  151.0996  144.3627  159.8162 C   0  0  1  0  0  0  0  0  0  0  0  0
  152.1805  145.2828  159.2038 C   0  0  0  0  0  0  0  0  0  0  0  0
  150.0779  143.8726  158.7702 C   0  0  0  0  0  0  0  0  0  0  0  0
  150.6741  142.8355  157.8010 C   0  0  2  0  0  0  0  0  0  0  0  0
  149.6096  142.3213  156.9106 N   0  3  0  0  0  0  0  0  0  0  0  0
  148.5072  141.6225  157.6002 C   0  0  0  0  0  0  0  0  0  0  0  0
  147.5860  140.9207  156.5933 C   0  0  0  0  0  0  0  0  0  0  0  0
  146.7373  141.9044  155.8106 C   0  0  0  0  0  0  0  0  0  0  0  0
  146.8911  142.0373  154.4140 C   0  0  0  0  0  0  0  0  0  0  0  0
  146.0834  142.9712  153.7365 C   0  0  0  0  0  0  0  0  0  0  0  0
  145.1583  143.7313  154.4777 C   0  0  0  0  0  0  0  0  0  0  0  0
  145.0831  143.5252  155.8697 C   0  0  0  0  0  0  0  0  0  0  0  0
  145.8547  142.6338  156.5296 N   0  0  0  0  0  0  0  0  0  0  0  0
  152.8405  141.1642  157.1244 H   0  0  0  0  0  0  0  0  0  0  0  0
  151.3643  140.2129  156.9814 H   0  0  0  0  0  0  0  0  0  0  0  0
  152.4994  139.8796  158.2788 H   0  0  0  0  0  0  0  0  0  0  0  0
  150.5282  141.1464  159.1291 H   0  0  0  0  0  0  0  0  0  0  0  0
  152.6685  141.4058  160.2659 H   0  0  0  0  0  0  0  0  0  0  0  0
  153.1674  142.6890  159.1896 H   0  0  0  0  0  0  0  0  0  0  0  0
  151.9973  144.2767  162.3076 H   0  0  0  0  0  0  0  0  0  0  0  0
  153.4306  144.0009  161.3059 H   0  0  0  0  0  0  0  0  0  0  0  0
  152.7378  142.6814  162.2447 H   0  0  0  0  0  0  0  0  0  0  0  0
  150.5495  144.9616  160.5435 H   0  0  0  0  0  0  0  0  0  0  0  0
  151.7159  146.1198  158.6821 H   0  0  0  0  0  0  0  0  0  0  0  0
  152.8154  144.7692  158.4828 H   0  0  0  0  0  0  0  0  0  0  0  0
  152.8264  145.7144  159.9678 H   0  0  0  0  0  0  0  0  0  0  0  0
  149.2272  143.4317  159.2926 H   0  0  0  0  0  0  0  0  0  0  0  0
  149.6807  144.7218  158.2125 H   0  0  0  0  0  0  0  0  0  0  0  0
  151.4475  143.3197  157.2027 H   0  0  0  0  0  0  0  0  0  0  0  0
  149.2190  143.1051  156.4074 H   0  0  0  0  0  0  0  0  0  0  0  0
  148.9256  140.8980  158.3005 H   0  0  0  0  0  0  0  0  0  0  0  0
  147.9337  142.3445  158.1832 H   0  0  0  0  0  0  0  0  0  0  0  0
  148.1787  140.3263  155.8964 H   0  0  0  0  0  0  0  0  0  0  0  0
  146.9285  140.2204  157.1112 H   0  0  0  0  0  0  0  0  0  0  0  0
  147.6100  141.4402  153.8721 H   0  0  0  0  0  0  0  0  0  0  0  0
  146.1723  143.1029  152.6681 H   0  0  0  0  0  0  0  0  0  0  0  0
  144.5219  144.4555  153.9909 H   0  0  0  0  0  0  0  0  0  0  0  0
  144.3860  144.0921  156.4691 H   0  0  0  0  0  0  0  0  0  0  0  0
  150.0271  141.6890  156.2425 H   0  0  0  0  0  0  0  0  0  0  0  0
  1  2  1  0  0  0  0
  1 19  1  0  0  0  0
  1 20  1  0  0  0  0
  1 21  1  0  0  0  0
  2  9  1  0  0  0  0
  2  3  1  0  0  0  0
  2 22  1  0  0  0  0
  3  4  1  0  0  0  0
  3 23  1  0  0  0  0
  3 24  1  0  0  0  0
  4  5  1  0  0  0  0
  4  6  1  0  0  0  0
  5 25  1  0  0  0  0
  5 26  1  0  0  0  0
  5 27  1  0  0  0  0
  6  7  1  0  0  0  0
  6  8  1  0  0  0  0
  6 28  1  0  0  0  0
  7 29  1  0  0  0  0
  7 30  1  0  0  0  0
  7 31  1  0  0  0  0
  8  9  1  0  0  0  0
  8 32  1  0  0  0  0
  8 33  1  0  0  0  0
  9 10  1  0  0  0  0
  9 34  1  0  0  0  0
 10 11  1  0  0  0  0
 10 35  1  0  0  0  0
 10 44  1  0  0  0  0
 11 12  1  0  0  0  0
 11 36  1  0  0  0  0
 11 37  1  0  0  0  0
 12 13  1  0  0  0  0
 12 38  1  0  0  0  0
 12 39  1  0  0  0  0
 13 18  1  0  0  0  0
 13 14  2  0  0  0  0
 14 15  1  0  0  0  0
 14 40  1  0  0  0  0
 15 16  2  0  0  0  0
 15 41  1  0  0  0  0
 16 17  1  0  0  0  0
 16 42  1  0  0  0  0
 17 18  2  0  0  0  0
 17 43  1  0  0  0  0
M  CHG  1  10   1
M  END
> <s_m_source_file>
AV-unprocessed.smi

> <i_m_source_file_index>
3303

> <i_lp_mmshare_version>
43012

> <i_f3d_flags>
0

> <s_epik_input>
W0NIM11bQ0BASF0xW0NIMl1OKFtDSDNdKVtDQEBIXShbQ0gzXSlbQ0gyXVtDQEhdMVtOSF1bQ0gyXVtDSDJdYzJbY0hdW2NIXVtjSF1bY0hdbjI=

> <s_epik_cmdline>
J2VwaWtfcHl0aG9uJywgJy1waCcsICc3LjAnLCAnLXRuJywgJzgnLCAnLW1hJywgJzIwMCcsICctbWV0YWxfYmluZGluZycsICctaW1hZScsICc8aW5maWxlLm1hZT4nLCAnLW9tYWUnLCAnPG91dGZpbGUubWFlPic=

> <r_epik_Ionization_Penalty>
1.37325

> <r_epik_Ionization_Penalty_Charging>
0.000251572

> <r_epik_Ionization_Penalty_Neutral>
1.373

> <r_epik_State_Penalty>
1.46343

> <r_epik_Charging_Adjusted_Penalty>
1.46368

> <i_epik_Tot_Q>
1

> <i_epik_Tot_abs_Q>
1

> <r_epik_Metal_State_Penalty>
1.46331

> <b_epik_Metal_Only>
0

> <s_lp_Force_Field>
OPLS_2005

> <r_lp_Energy>
23.1884

> <b_lp_Chiralities_Consistent>
1

> <s_lp_Variant>
AV-unprocessed.smi:3303-22

> <Gold.Version>
5.8.1

> <Gold.Id.Protein>
6NUR|6NUR_protein|mol2

> <Gold.PLP.Fitness>
45.9080

> <Gold.PLP.PLP>
-40.0484

> <Gold.PLP.part.hbond>
-1.4814

> <Gold.PLP.part.metal>
0.0000

> <Gold.PLP.part.buried>
-7.6560

> <Gold.PLP.part.nonpolar>
-30.6807

> <Gold.PLP.part.repulsive>
0.2152

> <Gold.PLP.ligand.clash>
0.0000

> <Gold.PLP.ligand.torsion>
0.0769

> <Gold.PLP.Chemscore.Hbond>
2.0000

> <Gold.PLP.Chemscore.CHOScore>
0.0000

> <Gold.PLP.Chemscore.Metal>
0.0000

> <Gold.Chemscore.Hbonds>
donor molecule, donor type, donor heavy atom, donor atom, acceptor molecule, acceptor atom, score
      L1  H    10    35       P1  8028  2.00

> <Gold.PLP.Chemscore.Internal.Correction>
0.0135

> <Gold.Rescore>
     Score         DG    S(hbond)    S(metal)    S(lipo)     H(rot)  DE(clash)    DE(int)     intcor
     18.13     -18.23       1.00        0.00     109.56       1.33       0.01       0.08       ----

> <Gold.Chemscore.Fitness>
18.1298

> <Gold.Chemscore.DG>
-18.2281

> <Gold.Chemscore.ZeroCoef>
-5.4800

> <Gold.Chemscore.Hbond>
0.9981

> <Gold.Chemscore.Metal>
0.0000

> <Gold.Chemscore.Lipo>
109.5612

> <Gold.Chemscore.Internal_Hbond>
0.0000

> <Gold.Chemscore.DEClash>
0.0136

> <Gold.Chemscore.DEInternal>
0.0847

> <Gold.Chemscore.Rot>
1.3298

> <Gold.Chemscore.Internal.Correction>
   9.000000E+99

> <Gold.Chemscore.Hbonds>
donor molecule, donor type, donor heavy atom, donor atom, acceptor molecule, acceptor atom, score
      L1  H    10    35       P1  8028  1.00

> <Gold.Chemscore.Hbond.Weighted>
-3.3337

> <Gold.Chemscore.Metal.Weighted>
-0.0000

> <Gold.Chemscore.Lipo.Weighted>
-12.8187

> <Gold.Chemscore.Internal_Hbond.Weighted>
0.0000

> <Gold.Chemscore.DEClash.Weighted>
0.0136

> <Gold.Chemscore.DEInternal.Weighted>
0.0847

> <Gold.Chemscore.Rot.Weighted>
3.4043

> <Gold.Chemscore.Internal.Correction.Weighted>
   9.000000E+99

> <Gold.Protein.RotatedTorsions>
[ 6907 6896 6895 6894 ] final   69.83 input  -60.11 | X-H torsion
[ 7974 7965 7964 7962 ] final  142.19 input  175.53 | X-H torsion
[ 8008 7997 7996 7995 ] final  170.59 input   59.86 | X-H torsion
[ 10167 10162 10161 10158 ] final -154.81 input  -65.29 | X-H torsion
[ 10718 10713 10712 10709 ] final  171.65 input   66.30 | X-H torsion
[ 10763 10752 10751 10750 ] final -116.02 input  -60.55 | X-H torsion
[ 11005 11000 10999 10996 ] final -122.48 input  -57.11 | X-H torsion

> <Gold.Protein.ActiveResidues>
 VAL166  LYS551  ARG553  GLY616  TRP617  ASP618  TYR619  PRO620  LYS621  CYS622 
 ASP623  PHE694  ASN695  SER759  ASP760  ASP761  ALA762  ILE779  LEU786  VAL792 
 PHE793  MET794  SER795  GLU796  ALA797  LYS798  CYS799  TRP800  GLU811  SER814 

> <Gold.Protein.RotatedAtoms>
  152.4711  134.4958  159.9709 H   0  0  0  0  0  0  0  0  0  0  0  0  # atno 6907 bound_to 6896
  151.4985  133.3503  159.2873 H   0  0  0  0  0  0  0  0  0  0  0  0  # atno 6908 bound_to 6896
  150.8721  134.8125  159.7224 H   0  0  0  0  0  0  0  0  0  0  0  0  # atno 6909 bound_to 6896
  144.9029  139.5398  143.5745 H   0  0  0  0  0  0  0  0  0  0  0  0  # atno 7974 bound_to 7965
  156.1351  140.1534  156.9007 H   0  0  0  0  0  0  0  0  0  0  0  0  # atno 8008 bound_to 7997
  154.4940  140.0843  156.7697 H   0  0  0  0  0  0  0  0  0  0  0  0  # atno 8009 bound_to 7997
  155.4184  140.3422  155.4271 H   0  0  0  0  0  0  0  0  0  0  0  0  # atno 8010 bound_to 7997
  139.6983  143.9306  152.2417 H   0  0  0  0  0  0  0  0  0  0  0  0  # atno 10167 bound_to 10162
  156.9904  131.0146  151.2858 H   0  0  0  0  0  0  0  0  0  0  0  0  # atno 10718 bound_to 10713
  154.8504  135.4360  154.1755 H   0  0  0  0  0  0  0  0  0  0  0  0  # atno 10763 bound_to 10752
  153.2858  135.6957  153.7347 H   0  0  0  0  0  0  0  0  0  0  0  0  # atno 10764 bound_to 10752
  153.6533  135.3447  155.3081 H   0  0  0  0  0  0  0  0  0  0  0  0  # atno 10765 bound_to 10752
  140.9992  134.0428  157.3559 H   0  0  0  0  0  0  0  0  0  0  0  0  # atno 11005 bound_to 11000
  146.3118  139.7774  142.9014 LP  0  0  0  0  0  0  0  0  0  0  0  0  # atno 17320 bound_to 7965
  145.3585  141.0321  143.3298 LP  0  0  0  0  0  0  0  0  0  0  0  0  # atno 17321 bound_to 7965
  139.9141  144.6839  150.8531 LP  0  0  0  0  0  0  0  0  0  0  0  0  # atno 17342 bound_to 10162
  140.7702  143.3422  151.2185 LP  0  0  0  0  0  0  0  0  0  0  0  0  # atno 17343 bound_to 10162
  157.5463  130.8152  149.8089 LP  0  0  0  0  0  0  0  0  0  0  0  0  # atno 17370 bound_to 10713
  156.0209  130.3796  150.1964 LP  0  0  0  0  0  0  0  0  0  0  0  0  # atno 17371 bound_to 10713
  139.9030  135.0171  156.7357 LP  0  0  0  0  0  0  0  0  0  0  0  0  # atno 17394 bound_to 11000
  140.6917  133.9384  155.7970 LP  0  0  0  0  0  0  0  0  0  0  0  0  # atno 17395 bound_to 11000

$$$$
