AV-unprocessed.smi:27|AV-procd|sdf|188|dock2
  -GOLD-   2262015453D 1   1.00000     0.00000
 Structure written by MMmdl.
 53 56  0  0  0  0  0  0  0  0  1 V2000
  151.5969  136.2729  158.2242 O   0  0  0  0  0  0  0  0  0  0  0  0
  151.3096  136.6068  157.0735 C   0  0  0  0  0  0  0  0  0  0  0  0
  152.1301  137.6683  156.3254 C   0  0  0  0  0  0  0  0  0  0  0  0
  151.6805  139.0531  156.5857 N   0  0  0  0  0  0  0  0  0  0  0  0
  151.1147  139.7962  155.5202 C   0  0  0  0  0  0  0  0  0  0  0  0
  150.9863  139.3061  154.3972 O   0  0  0  0  0  0  0  0  0  0  0  0
  150.7106  141.1587  155.8481 C   0  0  0  0  0  0  0  0  0  0  0  0
  150.1524  141.9324  154.9017 F   0  0  0  0  0  0  0  0  0  0  0  0
  150.8859  141.6567  157.0896 C   0  0  0  0  0  0  0  0  0  0  0  0
  151.4548  140.9244  158.1165 N   0  0  0  0  0  0  0  0  0  0  0  0
  151.6474  141.4982  159.5047 C   0  0  1  0  0  0  0  0  0  0  0  0
  153.1423  141.5330  159.8754 C   0  0  0  0  0  0  0  0  0  0  0  0
  153.3410  142.9653  160.3296 C   0  0  0  0  0  0  0  0  0  0  0  0
  152.2970  143.7038  159.5058 C   0  0  0  0  0  0  0  0  0  0  0  0
  151.1852  142.8185  159.5428 O   0  0  0  0  0  0  0  0  0  0  0  0
  151.8637  139.5940  157.8802 C   0  0  0  0  0  0  0  0  0  0  0  0
  152.3741  138.9252  158.7818 O   0  0  0  0  0  0  0  0  0  0  0  0
  150.2842  136.0780  156.3894 N   0  0  0  0  0  0  0  0  0  0  0  0
  149.3706  135.0492  156.8874 C   0  0  0  0  0  0  0  0  0  0  0  0
  148.9143  134.0869  155.7947 C   0  0  0  0  0  0  0  0  0  0  0  0
  149.1486  132.6964  155.8988 C   0  0  0  0  0  0  0  0  0  0  0  0
  148.7265  131.8253  154.8760 C   0  0  0  0  0  0  0  0  0  0  0  0
  148.0701  132.3370  153.7405 C   0  0  0  0  0  0  0  0  0  0  0  0
  147.8385  133.7211  153.6272 C   0  0  0  0  0  0  0  0  0  0  0  0
  148.2612  134.5926  154.6496 C   0  0  0  0  0  0  0  0  0  0  0  0
  148.1728  135.6588  157.6053 C   0  0  0  0  0  0  0  0  0  0  0  0
  146.8540  135.2566  157.2927 C   0  0  0  0  0  0  0  0  0  0  0  0
  145.7576  135.8257  157.9691 C   0  0  0  0  0  0  0  0  0  0  0  0
  145.9708  136.7981  158.9644 C   0  0  0  0  0  0  0  0  0  0  0  0
  147.2817  137.1977  159.2864 C   0  0  0  0  0  0  0  0  0  0  0  0
  148.3785  136.6281  158.6112 C   0  0  0  0  0  0  0  0  0  0  0  0
  153.1807  137.5402  156.5912 H   0  0  0  0  0  0  0  0  0  0  0  0
  152.0999  137.4436  155.2579 H   0  0  0  0  0  0  0  0  0  0  0  0
  150.5620  142.6707  157.2665 H   0  0  0  0  0  0  0  0  0  0  0  0
  151.0364  140.8819  160.1664 H   0  0  0  0  0  0  0  0  0  0  0  0
  153.3712  140.8000  160.6495 H   0  0  0  0  0  0  0  0  0  0  0  0
  153.7548  141.3241  158.9966 H   0  0  0  0  0  0  0  0  0  0  0  0
  153.1125  143.0578  161.3923 H   0  0  0  0  0  0  0  0  0  0  0  0
  154.3546  143.3305  160.1627 H   0  0  0  0  0  0  0  0  0  0  0  0
  152.0463  144.6812  159.9181 H   0  0  0  0  0  0  0  0  0  0  0  0
  152.6377  143.8388  158.4783 H   0  0  0  0  0  0  0  0  0  0  0  0
  150.1211  136.4114  155.4506 H   0  0  0  0  0  0  0  0  0  0  0  0
  149.9158  134.4651  157.6318 H   0  0  0  0  0  0  0  0  0  0  0  0
  149.6559  132.2894  156.7610 H   0  0  0  0  0  0  0  0  0  0  0  0
  148.9076  130.7641  154.9622 H   0  0  0  0  0  0  0  0  0  0  0  0
  147.7461  131.6685  152.9566 H   0  0  0  0  0  0  0  0  0  0  0  0
  147.3375  134.1151  152.7554 H   0  0  0  0  0  0  0  0  0  0  0  0
  148.0815  135.6532  154.5518 H   0  0  0  0  0  0  0  0  0  0  0  0
  146.6754  134.5057  156.5373 H   0  0  0  0  0  0  0  0  0  0  0  0
  144.7527  135.5140  157.7252 H   0  0  0  0  0  0  0  0  0  0  0  0
  145.1296  137.2345  159.4828 H   0  0  0  0  0  0  0  0  0  0  0  0
  147.4467  137.9410  160.0524 H   0  0  0  0  0  0  0  0  0  0  0  0
  149.3804  136.9397  158.8685 H   0  0  0  0  0  0  0  0  0  0  0  0
  1  2  2  0  0  0  0
  2  3  1  0  0  0  0
  2 18  1  0  0  0  0
  3  4  1  0  0  0  0
  3 32  1  0  0  0  0
  3 33  1  0  0  0  0
  4 16  1  0  0  0  0
  4  5  1  0  0  0  0
  5  6  2  0  0  0  0
  5  7  1  0  0  0  0
  7  8  1  0  0  0  0
  7  9  2  0  0  0  0
  9 10  1  0  0  0  0
  9 34  1  0  0  0  0
 10 11  1  0  0  0  0
 10 16  1  0  0  0  0
 11 15  1  0  0  0  0
 11 12  1  0  0  0  0
 11 35  1  0  0  0  0
 12 13  1  0  0  0  0
 12 36  1  0  0  0  0
 12 37  1  0  0  0  0
 13 14  1  0  0  0  0
 13 38  1  0  0  0  0
 13 39  1  0  0  0  0
 14 15  1  0  0  0  0
 14 40  1  0  0  0  0
 14 41  1  0  0  0  0
 16 17  2  0  0  0  0
 18 19  1  0  0  0  0
 18 42  1  0  0  0  0
 19 20  1  0  0  0  0
 19 26  1  0  0  0  0
 19 43  1  0  0  0  0
 20 25  1  0  0  0  0
 20 21  2  0  0  0  0
 21 22  1  0  0  0  0
 21 44  1  0  0  0  0
 22 23  2  0  0  0  0
 22 45  1  0  0  0  0
 23 24  1  0  0  0  0
 23 46  1  0  0  0  0
 24 25  2  0  0  0  0
 24 47  1  0  0  0  0
 25 48  1  0  0  0  0
 26 31  1  0  0  0  0
 26 27  2  0  0  0  0
 27 28  1  0  0  0  0
 27 49  1  0  0  0  0
 28 29  2  0  0  0  0
 28 50  1  0  0  0  0
 29 30  1  0  0  0  0
 29 51  1  0  0  0  0
 30 31  2  0  0  0  0
 30 52  1  0  0  0  0
 31 53  1  0  0  0  0
M  END
> <s_m_source_file>
AV-unprocessed.smi

> <i_m_source_file_index>
27

> <i_lp_mmshare_version>
43012

> <i_f3d_flags>
0

> <s_epik_input>
W2NIXTFbY0hdW2NIXVtjSF1bY0hdYzFbQ0hdKGMyW2NIXVtjSF1bY0hdW2NIXVtjSF0yKVtOSF1DKD1PKVtDSDJdbjNjKD1PKWMoRilbY0hdbihjMz1PKVtDQEBIXTRbQ0gyXVtDSDJdW0NIMl1PNA==

> <s_epik_cmdline>
J2VwaWtfcHl0aG9uJywgJy1waCcsICc3LjAnLCAnLXRuJywgJzgnLCAnLW1hJywgJzIwMCcsICctbWV0YWxfYmluZGluZycsICctaW1hZScsICc8aW5maWxlLm1hZT4nLCAnLW9tYWUnLCAnPG91dGZpbGUubWFlPic=

> <r_lp_tautomer_probability>
1

> <r_epik_Ionization_Penalty>
5.29953e-08

> <r_epik_Ionization_Penalty_Charging>
3.6115e-09

> <r_epik_Ionization_Penalty_Neutral>
4.93838e-08

> <r_epik_State_Penalty>
-0

> <r_epik_Charging_Adjusted_Penalty>
3.6115e-09

> <i_epik_Tot_Q>
0

> <i_epik_Tot_abs_Q>
0

> <r_epik_Metal_State_Penalty>
-0

> <b_epik_Metal_Only>
0

> <s_epik_Chemistry_Notes>
This compound contains an acetal/aminal-like group ( X-CH(R)-Y where X, Y are N, S, or O) that may be acid/base labile, releasing an aldehyde.

> <s_lp_Force_Field>
OPLS_2005

> <r_lp_Energy>
31.2801

> <b_lp_Chiralities_Consistent>
1

> <s_lp_Variant>
AV-unprocessed.smi:27-2

> <Gold.Version>
5.8.1

> <Gold.Id.Protein>
6NUR|6NUR_protein|mol2

> <Gold.PLP.Fitness>
50.4288

> <Gold.PLP.PLP>
-49.5765

> <Gold.PLP.part.hbond>
-2.9145

> <Gold.PLP.part.metal>
0.0000

> <Gold.PLP.part.buried>
-4.9701

> <Gold.PLP.part.nonpolar>
-43.3472

> <Gold.PLP.part.repulsive>
0.2703

> <Gold.PLP.ligand.clash>
0.0000

> <Gold.PLP.ligand.torsion>
0.9508

> <Gold.PLP.Chemscore.Hbond>
0.8553

> <Gold.PLP.Chemscore.CHOScore>
0.0000

> <Gold.PLP.Chemscore.Metal>
0.0000

> <Gold.Chemscore.Hbonds>
donor molecule, donor type, donor heavy atom, donor atom, acceptor molecule, acceptor atom, score
      P1  H  6896  6907       L1     1  0.29
      P1  H  7989  7998       L1     6  0.75

> <Gold.PLP.Chemscore.Internal.Correction>
0.1880

> <Gold.Rescore>
     Score         DG    S(hbond)    S(metal)    S(lipo)     H(rot)  DE(clash)    DE(int)     intcor
     12.20     -15.98       1.18        0.00     103.54       2.16       0.26       3.53       ----

> <Gold.Chemscore.Fitness>
12.1951

> <Gold.Chemscore.DG>
-15.9832

> <Gold.Chemscore.ZeroCoef>
-5.4800

> <Gold.Chemscore.Hbond>
1.1764

> <Gold.Chemscore.Metal>
0.0000

> <Gold.Chemscore.Lipo>
103.5414

> <Gold.Chemscore.Internal_Hbond>
0.0000

> <Gold.Chemscore.DEClash>
0.2603

> <Gold.Chemscore.DEInternal>
3.5278

> <Gold.Chemscore.Rot>
2.1642

> <Gold.Chemscore.Internal.Correction>
   9.000000E+99

> <Gold.Chemscore.Hbonds>
donor molecule, donor type, donor heavy atom, donor atom, acceptor molecule, acceptor atom, score
      P1  H  6896  6907       L1     1  0.27
      P1  H  7989  7998       L1     6  0.09

> <Gold.Chemscore.Hbond.Weighted>
-3.9292

> <Gold.Chemscore.Metal.Weighted>
-0.0000

> <Gold.Chemscore.Lipo.Weighted>
-12.1143

> <Gold.Chemscore.Internal_Hbond.Weighted>
0.0000

> <Gold.Chemscore.DEClash.Weighted>
0.2603

> <Gold.Chemscore.DEInternal.Weighted>
3.5278

> <Gold.Chemscore.Rot.Weighted>
5.5404

> <Gold.Chemscore.Internal.Correction.Weighted>
   9.000000E+99

> <Gold.Protein.RotatedTorsions>
[ 6907 6896 6895 6894 ] final   11.88 input  -60.11 | X-H torsion
[ 7974 7965 7964 7962 ] final   92.19 input  175.53 | X-H torsion
[ 8008 7997 7996 7995 ] final  104.73 input   59.86 | X-H torsion
[ 10167 10162 10161 10158 ] final  -72.17 input  -65.29 | X-H torsion
[ 10718 10713 10712 10709 ] final  -28.37 input   66.30 | X-H torsion
[ 10763 10752 10751 10750 ] final    5.20 input  -60.55 | X-H torsion
[ 11005 11000 10999 10996 ] final  100.84 input  -57.11 | X-H torsion

> <Gold.Protein.ActiveResidues>
 VAL166  LYS551  ARG553  GLY616  TRP617  ASP618  TYR619  PRO620  LYS621  CYS622 
 ASP623  PHE694  ASN695  SER759  ASP760  ASP761  ALA762  ILE779  LEU786  VAL792 
 PHE793  MET794  SER795  GLU796  ALA797  LYS798  CYS799  TRP800  GLU811  SER814 

> <Gold.Protein.RotatedAtoms>
  151.7613  135.0809  160.0345 H   0  0  0  0  0  0  0  0  0  0  0  0  # atno 6907 bound_to 6896
  152.3351  133.5998  159.5845 H   0  0  0  0  0  0  0  0  0  0  0  0  # atno 6908 bound_to 6896
  150.7445  133.9725  159.3592 H   0  0  0  0  0  0  0  0  0  0  0  0  # atno 6909 bound_to 6896
  145.4955  139.2276  143.2806 H   0  0  0  0  0  0  0  0  0  0  0  0  # atno 7974 bound_to 7965
  156.1598  140.3143  155.8788 H   0  0  0  0  0  0  0  0  0  0  0  0  # atno 8008 bound_to 7997
  155.3805  140.0487  157.3061 H   0  0  0  0  0  0  0  0  0  0  0  0  # atno 8009 bound_to 7997
  154.5136  140.2173  155.9120 H   0  0  0  0  0  0  0  0  0  0  0  0  # atno 8010 bound_to 7997
  140.5214  143.2331  151.7424 H   0  0  0  0  0  0  0  0  0  0  0  0  # atno 10167 bound_to 10162
  156.4261  130.4436  149.7150 H   0  0  0  0  0  0  0  0  0  0  0  0  # atno 10718 bound_to 10713
  153.2622  135.6924  153.7566 H   0  0  0  0  0  0  0  0  0  0  0  0  # atno 10763 bound_to 10752
  153.6621  135.3358  155.3131 H   0  0  0  0  0  0  0  0  0  0  0  0  # atno 10764 bound_to 10752
  154.8434  135.4479  154.1617 H   0  0  0  0  0  0  0  0  0  0  0  0  # atno 10765 bound_to 10752
  139.8772  134.9157  156.4816 H   0  0  0  0  0  0  0  0  0  0  0  0  # atno 11005 bound_to 11000
  146.2258  140.5753  142.8997 LP  0  0  0  0  0  0  0  0  0  0  0  0  # atno 17320 bound_to 7965
  144.7809  140.5838  143.6606 LP  0  0  0  0  0  0  0  0  0  0  0  0  # atno 17321 bound_to 7965
  139.4924  144.4249  151.9936 LP  0  0  0  0  0  0  0  0  0  0  0  0  # atno 17342 bound_to 10162
  140.3346  144.3275  150.5980 LP  0  0  0  0  0  0  0  0  0  0  0  0  # atno 17343 bound_to 10162
  156.4071  130.7703  151.2715 LP  0  0  0  0  0  0  0  0  0  0  0  0  # atno 17370 bound_to 10713
  157.7508  131.0222  150.3784 LP  0  0  0  0  0  0  0  0  0  0  0  0  # atno 17371 bound_to 10713
  140.8723  133.7979  155.9377 LP  0  0  0  0  0  0  0  0  0  0  0  0  # atno 17394 bound_to 11000
  140.8940  134.2460  157.5079 LP  0  0  0  0  0  0  0  0  0  0  0  0  # atno 17395 bound_to 11000

$$$$
