AV-unprocessed.smi:1669|AV-procd|sdf|6690|dock9
  -GOLD-   22720 7423D 1   1.00000     0.00000
 Structure written by MMmdl.
 49 51  0  0  0  0  0  0  0  0  3 V2000
  143.2827  137.1612  152.9529 C   0  0  0  0  0  0  0  0  0  0  0  0
  144.5959  137.6286  152.4430 N   0  3  2  0  0  0  0  0  0  0  0  0
  144.8990  137.1113  151.0841 C   0  0  0  0  0  0  0  0  0  0  0  0
  144.9777  135.5951  151.0497 C   0  0  0  0  0  0  0  0  0  0  0  0
  143.8054  134.8158  151.1509 C   0  0  0  0  0  0  0  0  0  0  0  0
  143.8856  133.4101  151.1169 C   0  0  0  0  0  0  0  0  0  0  0  0
  145.1372  132.7786  150.9836 C   0  0  0  0  0  0  0  0  0  0  0  0
  146.3094  133.5526  150.8846 C   0  0  0  0  0  0  0  0  0  0  0  0
  146.2301  134.9584  150.9185 C   0  0  0  0  0  0  0  0  0  0  0  0
  145.7073  137.3833  153.4000 C   0  0  0  0  0  0  0  0  0  0  0  0
  146.1739  138.6708  154.1088 C   0  0  2  0  0  0  0  0  0  0  0  0
  145.0587  139.2703  154.7396 O   0  0  0  0  0  0  0  0  0  0  0  0
  146.8121  139.6713  153.1236 C   0  0  0  0  0  0  0  0  0  0  0  0
  147.7031  140.6373  153.7879 N   0  0  0  0  0  0  0  0  0  0  0  0
  147.4824  141.9402  154.1302 C   0  0  0  0  0  0  0  0  0  0  0  0
  146.2277  142.7246  153.9119 C   0  0  0  0  0  0  0  0  0  0  0  0
  145.1170  142.1900  154.5998 O   0  0  0  0  0  0  0  0  0  0  0  0
  148.6209  142.3992  154.7231 N   0  3  0  0  0  0  0  0  0  0  0  0
  149.5786  141.3861  154.7602 C   0  0  0  0  0  0  0  0  0  0  0  0
  150.8777  141.3803  155.2582 C   0  0  0  0  0  0  0  0  0  0  0  0
  151.5957  140.1726  155.1388 C   0  0  0  0  0  0  0  0  0  0  0  0
  151.0185  139.0319  154.5446 C   0  0  0  0  0  0  0  0  0  0  0  0
  149.6997  139.0497  154.0446 C   0  0  0  0  0  0  0  0  0  0  0  0
  148.9959  140.2486  154.1641 C   0  0  0  0  0  0  0  0  0  0  0  0
  143.2680  136.0753  153.0541 H   0  0  0  0  0  0  0  0  0  0  0  0
  142.4735  137.4491  152.2822 H   0  0  0  0  0  0  0  0  0  0  0  0
  143.0513  137.5939  153.9250 H   0  0  0  0  0  0  0  0  0  0  0  0
  144.1152  137.4073  150.3854 H   0  0  0  0  0  0  0  0  0  0  0  0
  145.8264  137.5519  150.7145 H   0  0  0  0  0  0  0  0  0  0  0  0
  142.8413  135.2925  151.2529 H   0  0  0  0  0  0  0  0  0  0  0  0
  142.9869  132.8158  151.1939 H   0  0  0  0  0  0  0  0  0  0  0  0
  145.1983  131.7005  150.9586 H   0  0  0  0  0  0  0  0  0  0  0  0
  147.2692  133.0677  150.7834 H   0  0  0  0  0  0  0  0  0  0  0  0
  147.1333  135.5464  150.8424 H   0  0  0  0  0  0  0  0  0  0  0  0
  145.3934  136.6344  154.1290 H   0  0  0  0  0  0  0  0  0  0  0  0
  146.5650  136.9549  152.8792 H   0  0  0  0  0  0  0  0  0  0  0  0
  146.9064  138.4337  154.8795 H   0  0  0  0  0  0  0  0  0  0  0  0
  144.3821  139.4082  154.0943 H   0  0  0  0  0  0  0  0  0  0  0  0
  147.4135  139.1350  152.3886 H   0  0  0  0  0  0  0  0  0  0  0  0
  146.0540  140.2098  152.5546 H   0  0  0  0  0  0  0  0  0  0  0  0
  146.3759  143.7539  154.2382 H   0  0  0  0  0  0  0  0  0  0  0  0
  146.0064  142.7510  152.8448 H   0  0  0  0  0  0  0  0  0  0  0  0
  144.7590  141.4794  154.0894 H   0  0  0  0  0  0  0  0  0  0  0  0
  151.3216  142.2534  155.7138 H   0  0  0  0  0  0  0  0  0  0  0  0
  152.6089  140.1203  155.5106 H   0  0  0  0  0  0  0  0  0  0  0  0
  151.5997  138.1242  154.4703 H   0  0  0  0  0  0  0  0  0  0  0  0
  149.2729  138.1686  153.5903 H   0  0  0  0  0  0  0  0  0  0  0  0
  144.5337  138.6324  152.3455 H   0  0  0  0  0  0  0  0  0  0  0  0
  148.7301  143.3427  155.0728 H   0  0  0  0  0  0  0  0  0  0  0  0
  1  2  1  0  0  0  0
  1 25  1  0  0  0  0
  1 26  1  0  0  0  0
  1 27  1  0  0  0  0
  2  3  1  0  0  0  0
  2 10  1  0  0  0  0
  2 48  1  0  0  0  0
  3  4  1  0  0  0  0
  3 28  1  0  0  0  0
  3 29  1  0  0  0  0
  4  9  1  0  0  0  0
  4  5  2  0  0  0  0
  5  6  1  0  0  0  0
  5 30  1  0  0  0  0
  6  7  2  0  0  0  0
  6 31  1  0  0  0  0
  7  8  1  0  0  0  0
  7 32  1  0  0  0  0
  8  9  2  0  0  0  0
  8 33  1  0  0  0  0
  9 34  1  0  0  0  0
 10 11  1  0  0  0  0
 10 35  1  0  0  0  0
 10 36  1  0  0  0  0
 11 12  1  0  0  0  0
 11 13  1  0  0  0  0
 11 37  1  0  0  0  0
 12 38  1  0  0  0  0
 13 14  1  0  0  0  0
 13 39  1  0  0  0  0
 13 40  1  0  0  0  0
 14 24  1  0  0  0  0
 14 15  1  0  0  0  0
 15 16  1  0  0  0  0
 15 18  2  0  0  0  0
 16 17  1  0  0  0  0
 16 41  1  0  0  0  0
 16 42  1  0  0  0  0
 17 43  1  0  0  0  0
 18 19  1  0  0  0  0
 18 49  1  0  0  0  0
 19 24  2  0  0  0  0
 19 20  1  0  0  0  0
 20 21  2  0  0  0  0
 20 44  1  0  0  0  0
 21 22  1  0  0  0  0
 21 45  1  0  0  0  0
 22 23  2  0  0  0  0
 22 46  1  0  0  0  0
 23 24  1  0  0  0  0
 23 47  1  0  0  0  0
M  CHG  1   2   1
M  CHG  1  18   1
M  END
> <s_m_source_file>
AV-unprocessed.smi

> <i_m_source_file_index>
1669

> <i_lp_mmshare_version>
43012

> <i_f3d_flags>
0

> <s_epik_input>
W2NIXTFbY0hdW2NIXVtjSF1bY0hdYzFbQ0gyXU4oW0NIM10pW0NIMl1bQ0BIXShbT0hdKVtDSDJdbihjKG4yKVtDSDJdW09IXSljKGMyMylbY0hdW2NIXVtjSF1bY0hdMw==

> <s_epik_cmdline>
J2VwaWtfcHl0aG9uJywgJy1waCcsICc3LjAnLCAnLXRuJywgJzgnLCAnLW1hJywgJzIwMCcsICctbWV0YWxfYmluZGluZycsICctaW1hZScsICc8aW5maWxlLm1hZT4nLCAnLW9tYWUnLCAnPG91dGZpbGUubWFlPic=

> <r_epik_Ionization_Penalty>
1.57484

> <r_epik_Ionization_Penalty_Charging>
1.57398

> <r_epik_Ionization_Penalty_Neutral>
0.000858917

> <r_epik_State_Penalty>
1.64997

> <r_epik_Charging_Adjusted_Penalty>
3.22395

> <i_epik_Tot_Q>
2

> <i_epik_Tot_abs_Q>
2

> <r_epik_Metal_State_Penalty>
5.70481

> <b_epik_Metal_Only>
0

> <s_lp_Force_Field>
OPLS_2005

> <r_lp_Energy>
22.9184

> <b_lp_Chiralities_Consistent>
1

> <s_lp_Variant>
AV-unprocessed.smi:1669-8

> <Gold.Version>
5.8.1

> <Gold.Id.Protein>
6NUR|6NUR_protein|mol2

> <Gold.PLP.Fitness>
61.8298

> <Gold.PLP.PLP>
-46.4992

> <Gold.PLP.part.hbond>
-5.0000

> <Gold.PLP.part.metal>
0.0000

> <Gold.PLP.part.buried>
0.9063

> <Gold.PLP.part.nonpolar>
-42.7800

> <Gold.PLP.part.repulsive>
0.2219

> <Gold.PLP.ligand.clash>
0.0000

> <Gold.PLP.ligand.torsion>
1.3295

> <Gold.PLP.Chemscore.Hbond>
5.9250

> <Gold.PLP.Chemscore.CHOScore>
0.0000

> <Gold.PLP.Chemscore.Metal>
0.0000

> <Gold.Chemscore.Hbonds>
donor molecule, donor type, donor heavy atom, donor atom, acceptor molecule, acceptor atom, score
      L1  H     2    48       P1 10175  2.00
      L1  H    12    38       P1 10175  0.93
      L1  H    17    43       P1 10175  0.68
      L1  H    18    49       P1  8028  1.79

> <Gold.PLP.Chemscore.Internal.Correction>
0.2146

> <Gold.Rescore>
     Score         DG    S(hbond)    S(metal)    S(lipo)     H(rot)  DE(clash)    DE(int)     intcor
     16.07     -20.01       2.99        0.00     110.39       3.27       2.44       1.51       ----

> <Gold.Chemscore.Fitness>
16.0688

> <Gold.Chemscore.DG>
-20.0099

> <Gold.Chemscore.ZeroCoef>
-5.4800

> <Gold.Chemscore.Hbond>
2.9911

> <Gold.Chemscore.Metal>
0.0000

> <Gold.Chemscore.Lipo>
110.3888

> <Gold.Chemscore.Internal_Hbond>
0.0000

> <Gold.Chemscore.DEClash>
2.4354

> <Gold.Chemscore.DEInternal>
1.5057

> <Gold.Chemscore.Rot>
3.2718

> <Gold.Chemscore.Internal.Correction>
   9.000000E+99

> <Gold.Chemscore.Hbonds>
donor molecule, donor type, donor heavy atom, donor atom, acceptor molecule, acceptor atom, score
      L1  H     2    48       P1 10175  0.94
      L1  H    12    38       P1 10175  0.85
      L1  H    17    43       P1 10175  0.24
      L1  H    18    49       P1  8028  0.86

> <Gold.Chemscore.Hbond.Weighted>
-9.9903

> <Gold.Chemscore.Metal.Weighted>
-0.0000

> <Gold.Chemscore.Lipo.Weighted>
-12.9155

> <Gold.Chemscore.Internal_Hbond.Weighted>
0.0000

> <Gold.Chemscore.DEClash.Weighted>
2.4354

> <Gold.Chemscore.DEInternal.Weighted>
1.5057

> <Gold.Chemscore.Rot.Weighted>
8.3759

> <Gold.Chemscore.Internal.Correction.Weighted>
   9.000000E+99

> <Gold.Protein.RotatedTorsions>
[ 6907 6896 6895 6894 ] final  -52.40 input  -60.11 | X-H torsion
[ 7974 7965 7964 7962 ] final  139.73 input  175.53 | X-H torsion
[ 8008 7997 7996 7995 ] final   88.20 input   59.86 | X-H torsion
[ 10167 10162 10161 10158 ] final  116.69 input  -65.29 | X-H torsion
[ 10718 10713 10712 10709 ] final -110.15 input   66.30 | X-H torsion
[ 10763 10752 10751 10750 ] final   20.79 input  -60.55 | X-H torsion
[ 11005 11000 10999 10996 ] final  -98.14 input  -57.11 | X-H torsion

> <Gold.Protein.ActiveResidues>
 VAL166  LYS551  ARG553  GLY616  TRP617  ASP618  TYR619  PRO620  LYS621  CYS622 
 ASP623  PHE694  ASN695  SER759  ASP760  ASP761  ALA762  ILE779  LEU786  VAL792 
 PHE793  MET794  SER795  GLU796  ALA797  LYS798  CYS799  TRP800  GLU811  SER814 

> <Gold.Protein.RotatedAtoms>
  150.8521  134.7849  159.7016 H   0  0  0  0  0  0  0  0  0  0  0  0  # atno 6907 bound_to 6896
  152.4583  134.5239  159.9800 H   0  0  0  0  0  0  0  0  0  0  0  0  # atno 6908 bound_to 6896
  151.5358  133.3403  159.2962 H   0  0  0  0  0  0  0  0  0  0  0  0  # atno 6909 bound_to 6896
  144.9252  139.5117  143.5644 H   0  0  0  0  0  0  0  0  0  0  0  0  # atno 7974 bound_to 7965
  155.9848  140.3374  155.6697 H   0  0  0  0  0  0  0  0  0  0  0  0  # atno 8008 bound_to 7997
  155.6500  140.0704  157.2608 H   0  0  0  0  0  0  0  0  0  0  0  0  # atno 8009 bound_to 7997
  154.4202  140.1727  156.1651 H   0  0  0  0  0  0  0  0  0  0  0  0  # atno 8010 bound_to 7997
  139.6230  144.7104  151.2594 H   0  0  0  0  0  0  0  0  0  0  0  0  # atno 10167 bound_to 10162
  156.0575  130.5800  150.8198 H   0  0  0  0  0  0  0  0  0  0  0  0  # atno 10718 bound_to 10713
  153.1048  135.6682  153.9606 H   0  0  0  0  0  0  0  0  0  0  0  0  # atno 10763 bound_to 10752
  153.9167  135.3019  155.3449 H   0  0  0  0  0  0  0  0  0  0  0  0  # atno 10764 bound_to 10752
  154.7469  135.5053  153.9296 H   0  0  0  0  0  0  0  0  0  0  0  0  # atno 10765 bound_to 10752
  141.1355  133.8223  157.0799 H   0  0  0  0  0  0  0  0  0  0  0  0  # atno 11005 bound_to 11000
  146.3223  139.8161  142.8936 LP  0  0  0  0  0  0  0  0  0  0  0  0  # atno 17320 bound_to 7965
  145.3231  141.0249  143.3489 LP  0  0  0  0  0  0  0  0  0  0  0  0  # atno 17321 bound_to 7965
  140.7393  143.6621  150.8155 LP  0  0  0  0  0  0  0  0  0  0  0  0  # atno 17342 bound_to 10162
  140.0234  143.5518  152.2791 LP  0  0  0  0  0  0  0  0  0  0  0  0  # atno 17343 bound_to 10162
  157.5557  131.0945  150.9632 LP  0  0  0  0  0  0  0  0  0  0  0  0  # atno 17370 bound_to 10713
  156.9881  130.5552  149.5301 LP  0  0  0  0  0  0  0  0  0  0  0  0  # atno 17371 bound_to 10713
  140.0458  134.9831  157.1046 LP  0  0  0  0  0  0  0  0  0  0  0  0  # atno 17394 bound_to 11000
  140.4065  134.2026  155.7163 LP  0  0  0  0  0  0  0  0  0  0  0  0  # atno 17395 bound_to 11000

$$$$
