AV-unprocessed.smi:1019|AV-procd|sdf|4449|dock6
  -GOLD-   22720 2413D 1   1.00000     0.00000
 Structure written by MMmdl.
 45 47  0  0  0  0  0  0  0  0  3 V2000
  145.8532  139.2998  154.9271 C   0  0  0  0  0  0  0  0  0  0  0  0
  146.2927  139.9645  153.6786 N   0  3  1  0  0  0  0  0  0  0  0  0
  146.9045  141.2902  153.9453 C   0  0  0  0  0  0  0  0  0  0  0  0
  148.0923  141.1844  154.8863 C   0  0  0  0  0  0  0  0  0  0  0  0
  149.2715  140.5368  154.4611 C   0  0  0  0  0  0  0  0  0  0  0  0
  150.3717  140.4257  155.3332 C   0  0  0  0  0  0  0  0  0  0  0  0
  150.2987  140.9644  156.6321 C   0  0  0  0  0  0  0  0  0  0  0  0
  149.1254  141.6158  157.0589 C   0  0  0  0  0  0  0  0  0  0  0  0
  148.0245  141.7270  156.1875 C   0  0  0  0  0  0  0  0  0  0  0  0
  147.1335  139.0831  152.8251 C   0  0  0  0  0  0  0  0  0  0  0  0
  146.2873  138.1295  151.9591 C   0  0  1  0  0  0  0  0  0  0  0  0
  147.0253  137.7816  150.8019 O   0  0  0  0  0  0  0  0  0  0  0  0
  145.9241  136.8411  152.7239 C   0  0  0  0  0  0  0  0  0  0  0  0
  145.2126  135.8622  151.8911 N   0  0  0  0  0  0  0  0  0  0  0  0
  144.1384  136.0281  151.0715 C   0  0  0  0  0  0  0  0  0  0  0  0
  143.8495  134.8159  150.5221 N   0  3  0  0  0  0  0  0  0  0  0  0
  144.7525  133.8618  150.9956 C   0  0  0  0  0  0  0  0  0  0  0  0
  144.8644  132.5006  150.7293 C   0  0  0  0  0  0  0  0  0  0  0  0
  145.9057  131.8110  151.3845 C   0  0  0  0  0  0  0  0  0  0  0  0
  146.7872  132.4741  152.2634 C   0  0  0  0  0  0  0  0  0  0  0  0
  146.6647  133.8547  152.5263 C   0  0  0  0  0  0  0  0  0  0  0  0
  145.6321  134.5281  151.8751 C   0  0  0  0  0  0  0  0  0  0  0  0
  146.7032  139.0881  155.5772 H   0  0  0  0  0  0  0  0  0  0  0  0
  145.3422  138.3603  154.7181 H   0  0  0  0  0  0  0  0  0  0  0  0
  145.1554  139.9335  155.4756 H   0  0  0  0  0  0  0  0  0  0  0  0
  147.2651  141.7272  153.0128 H   0  0  0  0  0  0  0  0  0  0  0  0
  146.1545  141.9766  154.3417 H   0  0  0  0  0  0  0  0  0  0  0  0
  149.3347  140.1198  153.4666 H   0  0  0  0  0  0  0  0  0  0  0  0
  151.2724  139.9274  155.0061 H   0  0  0  0  0  0  0  0  0  0  0  0
  151.1430  140.8790  157.3004 H   0  0  0  0  0  0  0  0  0  0  0  0
  149.0697  142.0296  158.0551 H   0  0  0  0  0  0  0  0  0  0  0  0
  147.1277  142.2267  156.5239 H   0  0  0  0  0  0  0  0  0  0  0  0
  147.7698  139.6711  152.1635 H   0  0  0  0  0  0  0  0  0  0  0  0
  147.8166  138.5180  153.4614 H   0  0  0  0  0  0  0  0  0  0  0  0
  145.3677  138.6211  151.6418 H   0  0  0  0  0  0  0  0  0  0  0  0
  147.7051  137.1702  151.0404 H   0  0  0  0  0  0  0  0  0  0  0  0
  146.8269  136.3552  153.0973 H   0  0  0  0  0  0  0  0  0  0  0  0
  145.3094  137.0631  153.5972 H   0  0  0  0  0  0  0  0  0  0  0  0
  143.6081  136.9526  150.8931 H   0  0  0  0  0  0  0  0  0  0  0  0
  144.1914  131.9902  150.0560 H   0  0  0  0  0  0  0  0  0  0  0  0
  146.0310  130.7523  151.2090 H   0  0  0  0  0  0  0  0  0  0  0  0
  147.5737  131.9115  152.7454 H   0  0  0  0  0  0  0  0  0  0  0  0
  147.3450  134.3531  153.2005 H   0  0  0  0  0  0  0  0  0  0  0  0
  145.4556  140.1598  153.1489 H   0  0  0  0  0  0  0  0  0  0  0  0
  143.0905  134.6548  149.8723 H   0  0  0  0  0  0  0  0  0  0  0  0
  1  2  1  0  0  0  0
  1 23  1  0  0  0  0
  1 24  1  0  0  0  0
  1 25  1  0  0  0  0
  2  3  1  0  0  0  0
  2 10  1  0  0  0  0
  2 44  1  0  0  0  0
  3  4  1  0  0  0  0
  3 26  1  0  0  0  0
  3 27  1  0  0  0  0
  4  9  1  0  0  0  0
  4  5  2  0  0  0  0
  5  6  1  0  0  0  0
  5 28  1  0  0  0  0
  6  7  2  0  0  0  0
  6 29  1  0  0  0  0
  7  8  1  0  0  0  0
  7 30  1  0  0  0  0
  8  9  2  0  0  0  0
  8 31  1  0  0  0  0
  9 32  1  0  0  0  0
 10 11  1  0  0  0  0
 10 33  1  0  0  0  0
 10 34  1  0  0  0  0
 11 12  1  0  0  0  0
 11 13  1  0  0  0  0
 11 35  1  0  0  0  0
 12 36  1  0  0  0  0
 13 14  1  0  0  0  0
 13 37  1  0  0  0  0
 13 38  1  0  0  0  0
 14 22  1  0  0  0  0
 14 15  1  0  0  0  0
 15 16  2  0  0  0  0
 15 39  1  0  0  0  0
 16 17  1  0  0  0  0
 16 45  1  0  0  0  0
 17 22  2  0  0  0  0
 17 18  1  0  0  0  0
 18 19  2  0  0  0  0
 18 40  1  0  0  0  0
 19 20  1  0  0  0  0
 19 41  1  0  0  0  0
 20 21  2  0  0  0  0
 20 42  1  0  0  0  0
 21 22  1  0  0  0  0
 21 43  1  0  0  0  0
M  CHG  1   2   1
M  CHG  1  16   1
M  END
> <s_m_source_file>
AV-unprocessed.smi

> <i_m_source_file_index>
1019

> <i_lp_mmshare_version>
43012

> <i_f3d_flags>
0

> <s_epik_input>
W2NIXTFbY0hdW2NIXVtjSF1bY0hdYzFbQ0gyXU4oW0NIM10pW0NIMl1bQ0BIXShbT0hdKVtDSDJdbihbY0hdbjIpYyhjMjMpW2NIXVtjSF1bY0hdW2NIXTM=

> <s_epik_cmdline>
J2VwaWtfcHl0aG9uJywgJy1waCcsICc3LjAnLCAnLXRuJywgJzgnLCAnLW1hJywgJzIwMCcsICctbWV0YWxfYmluZGluZycsICctaW1hZScsICc8aW5maWxlLm1hZT4nLCAnLW9tYWUnLCAnPG91dGZpbGUubWFlPic=

> <r_epik_Ionization_Penalty>
1.5198

> <r_epik_Ionization_Penalty_Charging>
1.5198

> <r_epik_Ionization_Penalty_Neutral>
3.13312e-06

> <r_epik_State_Penalty>
1.624

> <r_epik_Charging_Adjusted_Penalty>
3.1438

> <i_epik_Tot_Q>
2

> <i_epik_Tot_abs_Q>
2

> <r_epik_Metal_State_Penalty>
5.67392

> <b_epik_Metal_Only>
0

> <s_lp_Force_Field>
OPLS_2005

> <r_lp_Energy>
24.7474

> <b_lp_Chiralities_Consistent>
1

> <s_lp_Variant>
AV-unprocessed.smi:1019-7

> <Gold.Version>
5.8.1

> <Gold.Id.Protein>
6NUR|6NUR_protein|mol2

> <Gold.PLP.Fitness>
56.4048

> <Gold.PLP.PLP>
-39.9110

> <Gold.PLP.part.hbond>
-4.2616

> <Gold.PLP.part.metal>
0.0000

> <Gold.PLP.part.buried>
-3.1786

> <Gold.PLP.part.nonpolar>
-33.5783

> <Gold.PLP.part.repulsive>
0.0182

> <Gold.PLP.ligand.clash>
0.0000

> <Gold.PLP.ligand.torsion>
0.8246

> <Gold.PLP.Chemscore.Hbond>
4.9825

> <Gold.PLP.Chemscore.CHOScore>
1.0000

> <Gold.PLP.Chemscore.Metal>
0.0000

> <Gold.Chemscore.Hbonds>
donor molecule, donor type, donor heavy atom, donor atom, acceptor molecule, acceptor atom, score
      L1  H     2    44       P1 10175  2.00
      L1  H    12    36       P1  7948  1.00
      L1  H    16    45       P1 10186  1.53
      L1  C    15    39       P1 10171  0.83

> <Gold.PLP.Chemscore.Internal.Correction>
0.1955

> <Gold.Rescore>
     Score         DG    S(hbond)    S(metal)    S(lipo)     H(rot)  DE(clash)    DE(int)     intcor
     18.32     -19.58       2.90        0.00      91.41       2.46       0.29       0.97       ----

> <Gold.Chemscore.Fitness>
18.3241

> <Gold.Chemscore.DG>
-19.5823

> <Gold.Chemscore.ZeroCoef>
-5.4800

> <Gold.Chemscore.Hbond>
2.9021

> <Gold.Chemscore.Metal>
0.0000

> <Gold.Chemscore.Lipo>
91.4085

> <Gold.Chemscore.Internal_Hbond>
0.0000

> <Gold.Chemscore.DEClash>
0.2921

> <Gold.Chemscore.DEInternal>
0.9661

> <Gold.Chemscore.Rot>
2.4552

> <Gold.Chemscore.Internal.Correction>
   9.000000E+99

> <Gold.Chemscore.Hbonds>
donor molecule, donor type, donor heavy atom, donor atom, acceptor molecule, acceptor atom, score
      L1  H     2    44       P1 10175  0.99
      L1  H    12    36       P1  7948  0.99
      L1  H    16    45       P1 10186  0.62

> <Gold.Chemscore.Hbond.Weighted>
-9.6929

> <Gold.Chemscore.Metal.Weighted>
-0.0000

> <Gold.Chemscore.Lipo.Weighted>
-10.6948

> <Gold.Chemscore.Internal_Hbond.Weighted>
0.0000

> <Gold.Chemscore.DEClash.Weighted>
0.2921

> <Gold.Chemscore.DEInternal.Weighted>
0.9661

> <Gold.Chemscore.Rot.Weighted>
6.2854

> <Gold.Chemscore.Internal.Correction.Weighted>
   9.000000E+99

> <Gold.Protein.RotatedTorsions>
[ 6907 6896 6895 6894 ] final  -21.78 input  -60.11 | X-H torsion
[ 7974 7965 7964 7962 ] final   88.81 input  175.53 | X-H torsion
[ 8008 7997 7996 7995 ] final   89.11 input   59.86 | X-H torsion
[ 10167 10162 10161 10158 ] final  146.60 input  -65.29 | X-H torsion
[ 10718 10713 10712 10709 ] final   -4.93 input   66.30 | X-H torsion
[ 10763 10752 10751 10750 ] final   27.20 input  -60.55 | X-H torsion
[ 11005 11000 10999 10996 ] final   68.40 input  -57.11 | X-H torsion

> <Gold.Protein.ActiveResidues>
 VAL166  LYS551  ARG553  GLY616  TRP617  ASP618  TYR619  PRO620  LYS621  CYS622 
 ASP623  PHE694  ASN695  SER759  ASP760  ASP761  ALA762  ILE779  LEU786  VAL792 
 PHE793  MET794  SER795  GLU796  ALA797  LYS798  CYS799  TRP800  GLU811  SER814 

> <Gold.Protein.RotatedAtoms>
  151.2283  135.0544  159.8976 H   0  0  0  0  0  0  0  0  0  0  0  0  # atno 6907 bound_to 6896
  152.5408  134.0565  159.8143 H   0  0  0  0  0  0  0  0  0  0  0  0  # atno 6908 bound_to 6896
  151.0741  133.5394  159.2656 H   0  0  0  0  0  0  0  0  0  0  0  0  # atno 6909 bound_to 6896
  145.5407  139.2288  143.2567 H   0  0  0  0  0  0  0  0  0  0  0  0  # atno 7974 bound_to 7965
  155.9960  140.3364  155.6799 H   0  0  0  0  0  0  0  0  0  0  0  0  # atno 8008 bound_to 7997
  155.6355  140.0689  157.2653 H   0  0  0  0  0  0  0  0  0  0  0  0  # atno 8009 bound_to 7997
  154.4234  140.1752  156.1505 H   0  0  0  0  0  0  0  0  0  0  0  0  # atno 8010 bound_to 7997
  139.4904  144.5817  151.6858 H   0  0  0  0  0  0  0  0  0  0  0  0  # atno 10167 bound_to 10162
  156.7541  130.5249  149.5798 H   0  0  0  0  0  0  0  0  0  0  0  0  # atno 10718 bound_to 10713
  153.0571  135.6542  154.0550 H   0  0  0  0  0  0  0  0  0  0  0  0  # atno 10763 bound_to 10752
  154.0226  135.2918  155.3380 H   0  0  0  0  0  0  0  0  0  0  0  0  # atno 10764 bound_to 10752
  154.6892  135.5289  153.8436 H   0  0  0  0  0  0  0  0  0  0  0  0  # atno 10765 bound_to 10752
  139.9714  134.6894  156.0440 H   0  0  0  0  0  0  0  0  0  0  0  0  # atno 11005 bound_to 11000
  146.1983  140.6227  142.9114 LP  0  0  0  0  0  0  0  0  0  0  0  0  # atno 17320 bound_to 7965
  144.7578  140.5350  143.6756 LP  0  0  0  0  0  0  0  0  0  0  0  0  # atno 17321 bound_to 7965
  140.5425  144.0556  150.6094 LP  0  0  0  0  0  0  0  0  0  0  0  0  # atno 17342 bound_to 10162
  140.3583  143.2923  152.0412 LP  0  0  0  0  0  0  0  0  0  0  0  0  # atno 17343 bound_to 10162
  156.1382  130.6226  151.0430 LP  0  0  0  0  0  0  0  0  0  0  0  0  # atno 17370 bound_to 10713
  157.6764  131.0849  150.7484 LP  0  0  0  0  0  0  0  0  0  0  0  0  # atno 17371 bound_to 10713
  141.1393  133.6568  156.3684 LP  0  0  0  0  0  0  0  0  0  0  0  0  # atno 17394 bound_to 11000
  140.5286  134.6235  157.5342 LP  0  0  0  0  0  0  0  0  0  0  0  0  # atno 17395 bound_to 11000

$$$$
