AV-unprocessed.smi:2406|AV-procd|sdf|9517|dock4
  -GOLD-   2272013153D 1   1.00000     0.00000
 Structure written by MMmdl.
 36 37  0  0  0  0  0  0  0  0  1 V2000
  151.9713  137.0411  156.5265 C   0  0  0  0  0  0  0  0  0  0  0  0
  152.3019  135.6897  156.8268 O   0  0  0  0  0  0  0  0  0  0  0  0
  151.4507  134.6978  156.3859 C   0  0  0  0  0  0  0  0  0  0  0  0
  150.5413  134.9794  155.3458 C   0  0  0  0  0  0  0  0  0  0  0  0
  149.6927  133.9333  154.9188 C   0  0  0  0  0  0  0  0  0  0  0  0
  148.8000  134.2554  153.8628 N   0  0  0  0  0  0  0  0  0  0  0  0
  147.7214  133.5672  153.4499 C   0  0  0  0  0  0  0  0  0  0  0  0
  147.2967  132.5332  153.9663 O   0  0  0  0  0  0  0  0  0  0  0  0
  147.1582  134.1510  152.3818 N   0  0  0  0  0  0  0  0  0  0  0  0
  146.0073  133.6456  151.6356 C   0  0  1  0  0  0  0  0  0  0  0  0
  145.0541  134.8054  151.3140 C   0  0  0  0  0  0  0  0  0  0  0  0
  146.4797  132.9234  150.3598 C   0  0  0  0  0  0  0  0  0  0  0  0
  145.3868  132.1058  149.6928 C   0  0  0  0  0  0  0  0  0  0  0  0
  144.0765  132.7334  149.2759 C   0  0  0  0  0  0  0  0  0  0  0  0
  144.1163  131.7642  150.4340 C   0  0  0  0  0  0  0  0  0  0  0  0
  149.7695  132.7159  155.5109 N   0  0  0  0  0  0  0  0  0  0  0  0
  150.6618  132.5512  156.4891 C   0  0  0  0  0  0  0  0  0  0  0  0
  151.5058  133.4709  156.9584 N   0  0  0  0  0  0  0  0  0  0  0  0
  152.7304  137.7001  156.9472 H   0  0  0  0  0  0  0  0  0  0  0  0
  151.0113  137.3226  156.9616 H   0  0  0  0  0  0  0  0  0  0  0  0
  151.9412  137.2154  155.4501 H   0  0  0  0  0  0  0  0  0  0  0  0
  150.5041  135.9600  154.8938 H   0  0  0  0  0  0  0  0  0  0  0  0
  149.0251  135.0909  153.3435 H   0  0  0  0  0  0  0  0  0  0  0  0
  147.5777  135.0009  152.0344 H   0  0  0  0  0  0  0  0  0  0  0  0
  145.4578  132.9216  152.2399 H   0  0  0  0  0  0  0  0  0  0  0  0
  144.1767  134.4527  150.7712 H   0  0  0  0  0  0  0  0  0  0  0  0
  145.5422  135.5633  150.7006 H   0  0  0  0  0  0  0  0  0  0  0  0
  144.7028  135.2892  152.2259 H   0  0  0  0  0  0  0  0  0  0  0  0
  146.8381  133.6567  149.6367 H   0  0  0  0  0  0  0  0  0  0  0  0
  147.3270  132.2744  150.5862 H   0  0  0  0  0  0  0  0  0  0  0  0
  145.7690  131.3276  149.0346 H   0  0  0  0  0  0  0  0  0  0  0  0
  143.9206  133.7854  149.5069 H   0  0  0  0  0  0  0  0  0  0  0  0
  143.6311  132.3899  148.3445 H   0  0  0  0  0  0  0  0  0  0  0  0
  143.6939  130.7741  150.2757 H   0  0  0  0  0  0  0  0  0  0  0  0
  143.9845  132.1734  151.4339 H   0  0  0  0  0  0  0  0  0  0  0  0
  150.7059  131.5739  156.9462 H   0  0  0  0  0  0  0  0  0  0  0  0
  1  2  1  0  0  0  0
  1 19  1  0  0  0  0
  1 20  1  0  0  0  0
  1 21  1  0  0  0  0
  2  3  1  0  0  0  0
  3 18  1  0  0  0  0
  3  4  2  0  0  0  0
  4  5  1  0  0  0  0
  4 22  1  0  0  0  0
  5  6  1  0  0  0  0
  5 16  2  0  0  0  0
  6  7  1  0  0  0  0
  6 23  1  0  0  0  0
  7  8  2  0  0  0  0
  7  9  1  0  0  0  0
  9 10  1  0  0  0  0
  9 24  1  0  0  0  0
 10 11  1  0  0  0  0
 10 12  1  0  0  0  0
 10 25  1  0  0  0  0
 11 26  1  0  0  0  0
 11 27  1  0  0  0  0
 11 28  1  0  0  0  0
 12 13  1  0  0  0  0
 12 29  1  0  0  0  0
 12 30  1  0  0  0  0
 13 15  1  0  0  0  0
 13 14  1  0  0  0  0
 13 31  1  0  0  0  0
 14 15  1  0  0  0  0
 14 32  1  0  0  0  0
 14 33  1  0  0  0  0
 15 34  1  0  0  0  0
 15 35  1  0  0  0  0
 16 17  1  0  0  0  0
 17 18  2  0  0  0  0
 17 36  1  0  0  0  0
M  END
> <s_m_source_file>
AV-unprocessed.smi

> <i_m_source_file_index>
2406

> <i_lp_mmshare_version>
43012

> <i_f3d_flags>
0

> <s_epik_input>
W0NIM11PYzFbY0hdYyhuW2NIXW4xKVtOSF1DKD1PKVtOSF1bQ0BIXShbQ0gzXSlbQ0gyXVtDSF0yW0NIMl1bQ0gyXTI=

> <s_epik_cmdline>
J2VwaWtfcHl0aG9uJywgJy1waCcsICc3LjAnLCAnLXRuJywgJzgnLCAnLW1hJywgJzIwMCcsICctbWV0YWxfYmluZGluZycsICctaW1hZScsICc8aW5maWxlLm1hZT4nLCAnLW9tYWUnLCAnPG91dGZpbGUubWFlPic=

> <r_lp_tautomer_probability>
1

> <r_epik_Ionization_Penalty>
2.82876e-05

> <r_epik_Ionization_Penalty_Charging>
0

> <r_epik_Ionization_Penalty_Neutral>
2.82876e-05

> <r_epik_State_Penalty>
-0

> <r_epik_Charging_Adjusted_Penalty>
0

> <i_epik_Tot_Q>
0

> <i_epik_Tot_abs_Q>
0

> <r_epik_Metal_State_Penalty>
-0

> <b_epik_Metal_Only>
0

> <s_lp_Force_Field>
OPLS_2005

> <r_lp_Energy>
10.7025

> <b_lp_Chiralities_Consistent>
1

> <s_lp_Variant>
AV-unprocessed.smi:2406-2

> <Gold.Version>
5.8.1

> <Gold.Id.Protein>
6NUR|6NUR_protein|mol2

> <Gold.PLP.Fitness>
39.9199

> <Gold.PLP.PLP>
-32.7518

> <Gold.PLP.part.hbond>
-3.8659

> <Gold.PLP.part.metal>
0.0000

> <Gold.PLP.part.buried>
-5.2743

> <Gold.PLP.part.nonpolar>
-24.5438

> <Gold.PLP.part.repulsive>
0.0791

> <Gold.PLP.ligand.clash>
0.0000

> <Gold.PLP.ligand.torsion>
0.9660

> <Gold.PLP.Chemscore.Hbond>
2.8280

> <Gold.PLP.Chemscore.CHOScore>
0.0000

> <Gold.PLP.Chemscore.Metal>
0.0000

> <Gold.Chemscore.Hbonds>
donor molecule, donor type, donor heavy atom, donor atom, acceptor molecule, acceptor atom, score
      L1  H     6    23       P1  7948  1.00
      L1  H     9    24       P1  7948  1.00
      P1  H  6896  6909       L1    18  0.28
      P1  H 10752 10764       L1     2  0.36

> <Gold.PLP.Chemscore.Internal.Correction>
0.6161

> <Gold.Rescore>
     Score         DG    S(hbond)    S(metal)    S(lipo)     H(rot)  DE(clash)    DE(int)     intcor
     12.82     -14.85       2.09        0.00      60.95       1.85       0.01       2.02       ----

> <Gold.Chemscore.Fitness>
12.8246

> <Gold.Chemscore.DG>
-14.8516

> <Gold.Chemscore.ZeroCoef>
-5.4800

> <Gold.Chemscore.Hbond>
2.0857

> <Gold.Chemscore.Metal>
0.0000

> <Gold.Chemscore.Lipo>
60.9477

> <Gold.Chemscore.Internal_Hbond>
0.0000

> <Gold.Chemscore.DEClash>
0.0082

> <Gold.Chemscore.DEInternal>
2.0187

> <Gold.Chemscore.Rot>
1.8458

> <Gold.Chemscore.Internal.Correction>
   9.000000E+99

> <Gold.Chemscore.Hbonds>
donor molecule, donor type, donor heavy atom, donor atom, acceptor molecule, acceptor atom, score
      L1  H     6    23       P1  7948  0.29
      L1  H     9    24       P1  7948  0.86
      P1  H  6896  6909       L1    18  0.14

> <Gold.Chemscore.Hbond.Weighted>
-6.9661

> <Gold.Chemscore.Metal.Weighted>
-0.0000

> <Gold.Chemscore.Lipo.Weighted>
-7.1309

> <Gold.Chemscore.Internal_Hbond.Weighted>
0.0000

> <Gold.Chemscore.DEClash.Weighted>
0.0082

> <Gold.Chemscore.DEInternal.Weighted>
2.0187

> <Gold.Chemscore.Rot.Weighted>
4.7254

> <Gold.Chemscore.Internal.Correction.Weighted>
   9.000000E+99

> <Gold.Protein.RotatedTorsions>
[ 6907 6896 6895 6894 ] final  -35.99 input  -60.11 | X-H torsion
[ 7974 7965 7964 7962 ] final -162.94 input  175.53 | X-H torsion
[ 8008 7997 7996 7995 ] final  -21.43 input   59.86 | X-H torsion
[ 10167 10162 10161 10158 ] final  126.62 input  -65.29 | X-H torsion
[ 10718 10713 10712 10709 ] final   20.51 input   66.30 | X-H torsion
[ 10763 10752 10751 10750 ] final  -11.04 input  -60.55 | X-H torsion
[ 11005 11000 10999 10996 ] final  -69.55 input  -57.11 | X-H torsion

> <Gold.Protein.ActiveResidues>
 VAL166  LYS551  ARG553  GLY616  TRP617  ASP618  TYR619  PRO620  LYS621  CYS622 
 ASP623  PHE694  ASN695  SER759  ASP760  ASP761  ALA762  ILE779  LEU786  VAL792 
 PHE793  MET794  SER795  GLU796  ALA797  LYS798  CYS799  TRP800  GLU811  SER814 

> <Gold.Protein.RotatedAtoms>
  151.0328  134.9551  159.8119 H   0  0  0  0  0  0  0  0  0  0  0  0  # atno 6907 bound_to 6896
  152.5349  134.2758  159.8999 H   0  0  0  0  0  0  0  0  0  0  0  0  # atno 6908 bound_to 6896
  151.2768  133.4186  159.2658 H   0  0  0  0  0  0  0  0  0  0  0  0  # atno 6909 bound_to 6896
  144.7341  140.3180  143.6176 H   0  0  0  0  0  0  0  0  0  0  0  0  # atno 7974 bound_to 7965
  154.4706  140.2035  156.0004 H   0  0  0  0  0  0  0  0  0  0  0  0  # atno 8008 bound_to 7997
  156.1004  140.3244  155.7905 H   0  0  0  0  0  0  0  0  0  0  0  0  # atno 8009 bound_to 7997
  155.4807  140.0538  157.2958 H   0  0  0  0  0  0  0  0  0  0  0  0  # atno 8010 bound_to 7997
  139.5621  144.6888  151.4012 H   0  0  0  0  0  0  0  0  0  0  0  0  # atno 10167 bound_to 10162
  157.1255  130.6568  149.5936 H   0  0  0  0  0  0  0  0  0  0  0  0  # atno 10718 bound_to 10713
  153.4779  135.7017  153.5955 H   0  0  0  0  0  0  0  0  0  0  0  0  # atno 10763 bound_to 10752
  153.4181  135.3832  155.2094 H   0  0  0  0  0  0  0  0  0  0  0  0  # atno 10764 bound_to 10752
  154.8723  135.3921  154.4225 H   0  0  0  0  0  0  0  0  0  0  0  0  # atno 10765 bound_to 10752
  141.1556  133.6767  156.6616 H   0  0  0  0  0  0  0  0  0  0  0  0  # atno 11005 bound_to 11000
  145.7598  139.1821  143.2273 LP  0  0  0  0  0  0  0  0  0  0  0  0  # atno 17320 bound_to 7965
  146.0995  140.7560  142.9556 LP  0  0  0  0  0  0  0  0  0  0  0  0  # atno 17321 bound_to 7965
  140.6902  143.7879  150.7244 LP  0  0  0  0  0  0  0  0  0  0  0  0  # atno 17342 bound_to 10162
  140.1359  143.4484  152.2225 LP  0  0  0  0  0  0  0  0  0  0  0  0  # atno 17343 bound_to 10162
  155.9819  130.4829  150.6853 LP  0  0  0  0  0  0  0  0  0  0  0  0  # atno 17370 bound_to 10713
  157.4438  131.0864  151.0916 LP  0  0  0  0  0  0  0  0  0  0  0  0  # atno 17371 bound_to 10713
  140.3243  134.7982  157.4277 LP  0  0  0  0  0  0  0  0  0  0  0  0  # atno 17394 bound_to 11000
  140.1070  134.5396  155.8300 LP  0  0  0  0  0  0  0  0  0  0  0  0  # atno 17395 bound_to 11000

$$$$
