AV-unprocessed.smi:1815|AV-procd|sdf|7356|dock4
  -GOLD-   22720 9 13D 1   1.00000     0.00000
 Structure written by MMmdl.
 40 41  0  0  0  0  0  0  0  0  2 V2000
  146.9640  128.5359  151.3561 C   0  0  0  0  0  0  0  0  0  0  0  0
  146.3332  129.3823  152.4761 C   0  0  1  0  0  0  0  0  0  0  0  0
  147.3675  130.1370  153.3340 C   0  0  0  0  0  0  0  0  0  0  0  0
  147.9400  131.2889  152.5973 N   0  3  2  0  0  0  0  0  0  0  0  0
  148.9887  131.9903  153.3786 C   0  0  0  0  0  0  0  0  0  0  0  0
  148.4119  133.0924  154.2878 C   0  0  0  0  0  0  0  0  0  0  0  0
  149.0736  134.3719  154.0606 N   0  0  0  0  0  0  0  0  0  0  0  0
  150.0162  134.8946  154.8584 C   0  0  0  0  0  0  0  0  0  0  0  0
  150.4186  134.3388  155.8811 O   0  0  0  0  0  0  0  0  0  0  0  0
  150.4449  136.0828  154.3977 N   0  0  0  0  0  0  0  0  0  0  0  0
  151.4284  136.9379  154.9610 C   0  0  0  0  0  0  0  0  0  0  0  0
  152.3109  136.5611  155.8937 N   0  0  0  0  0  0  0  0  0  0  0  0
  153.1610  137.6063  156.2642 C   0  0  0  0  0  0  0  0  0  0  0  0
  152.9086  138.7807  155.5998 C   0  0  0  0  0  0  0  0  0  0  0  0
  151.5868  138.6192  154.4742 S   0  0  0  0  0  0  0  0  0  0  0  0
  146.8566  132.1785  152.1142 C   0  0  0  0  0  0  0  0  0  0  0  0
  145.8668  131.3894  151.2385 C   0  0  2  0  0  0  0  0  0  0  0  0
  144.6839  132.2531  150.7865 C   0  0  0  0  0  0  0  0  0  0  0  0
  145.3481  130.2888  151.9806 O   0  0  0  0  0  0  0  0  0  0  0  0
  147.6065  127.7604  151.7742 H   0  0  0  0  0  0  0  0  0  0  0  0
  147.5759  129.1319  150.6796 H   0  0  0  0  0  0  0  0  0  0  0  0
  146.1948  128.0403  150.7636 H   0  0  0  0  0  0  0  0  0  0  0  0
  145.8026  128.6901  153.1308 H   0  0  0  0  0  0  0  0  0  0  0  0
  146.8918  130.5011  154.2461 H   0  0  0  0  0  0  0  0  0  0  0  0
  148.1599  129.4541  153.6437 H   0  0  0  0  0  0  0  0  0  0  0  0
  149.5620  131.2683  153.9622 H   0  0  0  0  0  0  0  0  0  0  0  0
  149.6908  132.4495  152.6812 H   0  0  0  0  0  0  0  0  0  0  0  0
  147.3366  133.1953  154.1316 H   0  0  0  0  0  0  0  0  0  0  0  0
  148.5508  132.8409  155.3386 H   0  0  0  0  0  0  0  0  0  0  0  0
  148.7996  134.8908  153.2389 H   0  0  0  0  0  0  0  0  0  0  0  0
  150.0201  136.4152  153.5447 H   0  0  0  0  0  0  0  0  0  0  0  0
  153.9201  137.4258  157.0109 H   0  0  0  0  0  0  0  0  0  0  0  0
  153.4187  139.7268  155.7038 H   0  0  0  0  0  0  0  0  0  0  0  0
  146.3395  132.6211  152.9673 H   0  0  0  0  0  0  0  0  0  0  0  0
  147.2704  132.9999  151.5306 H   0  0  0  0  0  0  0  0  0  0  0  0
  146.3775  131.0250  150.3468 H   0  0  0  0  0  0  0  0  0  0  0  0
  145.0232  133.1119  150.2068 H   0  0  0  0  0  0  0  0  0  0  0  0
  144.1183  132.6275  151.6402 H   0  0  0  0  0  0  0  0  0  0  0  0
  144.0003  131.6795  150.1601 H   0  0  0  0  0  0  0  0  0  0  0  0
  148.3970  130.9057  151.7820 H   0  0  0  0  0  0  0  0  0  0  0  0
  1  2  1  0  0  0  0
  1 20  1  0  0  0  0
  1 21  1  0  0  0  0
  1 22  1  0  0  0  0
  2 19  1  0  0  0  0
  2  3  1  0  0  0  0
  2 23  1  0  0  0  0
  3  4  1  0  0  0  0
  3 24  1  0  0  0  0
  3 25  1  0  0  0  0
  4  5  1  0  0  0  0
  4 16  1  0  0  0  0
  4 40  1  0  0  0  0
  5  6  1  0  0  0  0
  5 26  1  0  0  0  0
  5 27  1  0  0  0  0
  6  7  1  0  0  0  0
  6 28  1  0  0  0  0
  6 29  1  0  0  0  0
  7  8  1  0  0  0  0
  7 30  1  0  0  0  0
  8  9  2  0  0  0  0
  8 10  1  0  0  0  0
 10 11  1  0  0  0  0
 10 31  1  0  0  0  0
 11 15  1  0  0  0  0
 11 12  2  0  0  0  0
 12 13  1  0  0  0  0
 13 14  2  0  0  0  0
 13 32  1  0  0  0  0
 14 15  1  0  0  0  0
 14 33  1  0  0  0  0
 16 17  1  0  0  0  0
 16 34  1  0  0  0  0
 16 35  1  0  0  0  0
 17 18  1  0  0  0  0
 17 19  1  0  0  0  0
 17 36  1  0  0  0  0
 18 37  1  0  0  0  0
 18 38  1  0  0  0  0
 18 39  1  0  0  0  0
M  CHG  1   4   1
M  END
> <s_m_source_file>
AV-unprocessed.smi

> <i_m_source_file_index>
1815

> <i_lp_mmshare_version>
43012

> <i_f3d_flags>
0

> <s_epik_input>
W0NIM11bQ0BASF0xW0NIMl1OKFtDSDJdW0NASF0oTzEpW0NIM10pW0NIMl1bQ0gyXVtOSF1DKD1PKVtOSF1jMm5bY0hdW2NIXXMy

> <s_epik_cmdline>
J2VwaWtfcHl0aG9uJywgJy1waCcsICc3LjAnLCAnLXRuJywgJzgnLCAnLW1hJywgJzIwMCcsICctbWV0YWxfYmluZGluZycsICctaW1hZScsICc8aW5maWxlLm1hZT4nLCAnLW9tYWUnLCAnPG91dGZpbGUubWFlPic=

> <r_lp_tautomer_probability>
0.999

> <r_epik_Ionization_Penalty>
0.695838

> <r_epik_Ionization_Penalty_Charging>
0.695697

> <r_epik_Ionization_Penalty_Neutral>
0.000141198

> <r_epik_State_Penalty>
0.717972

> <r_epik_Charging_Adjusted_Penalty>
1.41367

> <i_epik_Tot_Q>
1

> <i_epik_Tot_abs_Q>
1

> <r_epik_Metal_State_Penalty>
0.756405

> <b_epik_Metal_Only>
0

> <s_lp_Force_Field>
OPLS_2005

> <r_lp_Energy>
15.0285

> <b_lp_Chiralities_Consistent>
1

> <s_lp_Variant>
AV-unprocessed.smi:1815-7

> <Gold.Version>
5.8.1

> <Gold.Id.Protein>
6NUR|6NUR_protein|mol2

> <Gold.PLP.Fitness>
46.2458

> <Gold.PLP.PLP>
-35.9336

> <Gold.PLP.part.hbond>
-4.8583

> <Gold.PLP.part.metal>
0.0000

> <Gold.PLP.part.buried>
-2.8069

> <Gold.PLP.part.nonpolar>
-28.2248

> <Gold.PLP.part.repulsive>
0.3021

> <Gold.PLP.ligand.clash>
0.0000

> <Gold.PLP.ligand.torsion>
0.8224

> <Gold.PLP.Chemscore.Hbond>
3.9760

> <Gold.PLP.Chemscore.CHOScore>
0.0000

> <Gold.PLP.Chemscore.Metal>
0.0000

> <Gold.Chemscore.Hbonds>
donor molecule, donor type, donor heavy atom, donor atom, acceptor molecule, acceptor atom, score
      L1  H     4    40       P1 10747  1.00
      L1  H     7    30       P1  7948  1.00
      L1  H    10    31       P1  7948  0.75
      P1  H 10752 10764       L1    12  1.00

> <Gold.PLP.Chemscore.Internal.Correction>
0.0291

> <Gold.Rescore>
     Score         DG    S(hbond)    S(metal)    S(lipo)     H(rot)  DE(clash)    DE(int)     intcor
     17.50     -19.42       2.60        0.00      80.73       1.64       0.00       1.92       ----

> <Gold.Chemscore.Fitness>
17.4989

> <Gold.Chemscore.DG>
-19.4184

> <Gold.Chemscore.ZeroCoef>
-5.4800

> <Gold.Chemscore.Hbond>
2.6010

> <Gold.Chemscore.Metal>
0.0000

> <Gold.Chemscore.Lipo>
80.7316

> <Gold.Chemscore.Internal_Hbond>
0.0000

> <Gold.Chemscore.DEClash>
0.0024

> <Gold.Chemscore.DEInternal>
1.9172

> <Gold.Chemscore.Rot>
1.6385

> <Gold.Chemscore.Internal.Correction>
   9.000000E+99

> <Gold.Chemscore.Hbonds>
donor molecule, donor type, donor heavy atom, donor atom, acceptor molecule, acceptor atom, score
      L1  H     4    40       P1 10747  0.97
      L1  H     7    30       P1  7948  0.34
      L1  H    10    31       P1  7948  0.09
      P1  H 10752 10764       L1    12  0.19

> <Gold.Chemscore.Hbond.Weighted>
-8.6873

> <Gold.Chemscore.Metal.Weighted>
-0.0000

> <Gold.Chemscore.Lipo.Weighted>
-9.4456

> <Gold.Chemscore.Internal_Hbond.Weighted>
0.0000

> <Gold.Chemscore.DEClash.Weighted>
0.0024

> <Gold.Chemscore.DEInternal.Weighted>
1.9172

> <Gold.Chemscore.Rot.Weighted>
4.1945

> <Gold.Chemscore.Internal.Correction.Weighted>
   9.000000E+99

> <Gold.Protein.RotatedTorsions>
[ 6907 6896 6895 6894 ] final  -26.76 input  -60.11 | X-H torsion
[ 7974 7965 7964 7962 ] final   82.97 input  175.53 | X-H torsion
[ 8008 7997 7996 7995 ] final -172.37 input   59.86 | X-H torsion
[ 10167 10162 10161 10158 ] final -128.94 input  -65.29 | X-H torsion
[ 10718 10713 10712 10709 ] final   67.05 input   66.30 | X-H torsion
[ 10763 10752 10751 10750 ] final  -27.96 input  -60.55 | X-H torsion
[ 11005 11000 10999 10996 ] final  164.32 input  -57.11 | X-H torsion

> <Gold.Protein.ActiveResidues>
 VAL166  LYS551  ARG553  GLY616  TRP617  ASP618  TYR619  PRO620  LYS621  CYS622 
 ASP623  PHE694  ASN695  SER759  ASP760  ASP761  ALA762  ILE779  LEU786  VAL792 
 PHE793  MET794  SER795  GLU796  ALA797  LYS798  CYS799  TRP800  GLU811  SER814 

> <Gold.Protein.RotatedAtoms>
  151.1564  135.0252  159.8690 H   0  0  0  0  0  0  0  0  0  0  0  0  # atno 6907 bound_to 6896
  152.5452  134.1329  159.8457 H   0  0  0  0  0  0  0  0  0  0  0  0  # atno 6908 bound_to 6896
  151.1420  133.4919  159.2629 H   0  0  0  0  0  0  0  0  0  0  0  0  # atno 6909 bound_to 6896
  145.6181  139.2380  143.2154 H   0  0  0  0  0  0  0  0  0  0  0  0  # atno 7974 bound_to 7965
  155.9437  140.1113  157.1035 H   0  0  0  0  0  0  0  0  0  0  0  0  # atno 8008 bound_to 7997
  154.4094  140.1214  156.5026 H   0  0  0  0  0  0  0  0  0  0  0  0  # atno 8009 bound_to 7997
  155.6930  140.3472  155.4903 H   0  0  0  0  0  0  0  0  0  0  0  0  # atno 8010 bound_to 7997
  139.9450  143.6120  152.2492 H   0  0  0  0  0  0  0  0  0  0  0  0  # atno 10167 bound_to 10162
  157.6207  130.9300  150.0190 H   0  0  0  0  0  0  0  0  0  0  0  0  # atno 10718 bound_to 10713
  153.7406  135.6933  153.4968 H   0  0  0  0  0  0  0  0  0  0  0  0  # atno 10763 bound_to 10752
  153.2071  135.4416  155.0335 H   0  0  0  0  0  0  0  0  0  0  0  0  # atno 10764 bound_to 10752
  154.8222  135.3427  154.6932 H   0  0  0  0  0  0  0  0  0  0  0  0  # atno 10765 bound_to 10752
  140.2447  134.8024  157.3444 H   0  0  0  0  0  0  0  0  0  0  0  0  # atno 11005 bound_to 11000
  146.1453  140.7002  142.9348 LP  0  0  0  0  0  0  0  0  0  0  0  0  # atno 17320 bound_to 7965
  144.7242  140.4472  143.6985 LP  0  0  0  0  0  0  0  0  0  0  0  0  # atno 17321 bound_to 7965
  139.6674  144.7662  151.1847 LP  0  0  0  0  0  0  0  0  0  0  0  0  # atno 17342 bound_to 10162
  140.7600  143.5917  150.8789 LP  0  0  0  0  0  0  0  0  0  0  0  0  # atno 17343 bound_to 10162
  156.1350  130.3643  149.9671 LP  0  0  0  0  0  0  0  0  0  0  0  0  # atno 17370 bound_to 10713
  156.7724  130.9191  151.3644 LP  0  0  0  0  0  0  0  0  0  0  0  0  # atno 17371 bound_to 10713
  140.1618  134.4719  155.7890 LP  0  0  0  0  0  0  0  0  0  0  0  0  # atno 17394 bound_to 11000
  141.2207  133.6904  156.7557 LP  0  0  0  0  0  0  0  0  0  0  0  0  # atno 17395 bound_to 11000

$$$$
