AV-unprocessed.smi:458|AV-procd|sdf|2620|dock7
  -GOLD-   2262023 23D 1   1.00000     0.00000
 Structure written by MMmdl.
 36 38  0  0  0  0  0  0  0  0  1 V2000
  153.1817  139.5572  154.6742 O   0  0  0  0  0  0  0  0  0  0  0  0
  152.1407  139.0114  155.4547 C   0  0  0  0  0  0  0  0  0  0  0  0
  150.8696  139.8023  155.3740 C   0  0  0  0  0  0  0  0  0  0  0  0
  150.3151  140.1141  154.2018 N   0  0  0  0  0  0  0  0  0  0  0  0
  149.1795  140.8047  154.5753 C   0  0  0  0  0  0  0  0  0  0  0  0
  148.1647  141.3961  153.7892 C   0  0  0  0  0  0  0  0  0  0  0  0
  147.0783  142.0533  154.4028 C   0  0  0  0  0  0  0  0  0  0  0  0
  146.9899  142.1264  155.8081 C   0  0  0  0  0  0  0  0  0  0  0  0
  147.9906  141.5442  156.6096 C   0  0  0  0  0  0  0  0  0  0  0  0
  149.0757  140.8930  155.9922 C   0  0  0  0  0  0  0  0  0  0  0  0
  150.2043  140.2375  156.4757 N   0  0  0  0  0  0  0  0  0  0  0  0
  150.5524  140.0618  157.8812 C   0  0  0  0  0  0  0  0  0  0  0  0
  151.9852  140.5317  158.2090 C   0  0  2  0  0  0  0  0  0  0  0  0
  152.5874  139.6523  159.1379 O   0  0  0  0  0  0  0  0  0  0  0  0
  151.9948  141.9730  158.6937 C   0  0  0  0  0  0  0  0  0  0  0  0
  151.4286  142.9899  157.8950 C   0  0  0  0  0  0  0  0  0  0  0  0
  151.4276  144.3256  158.3424 C   0  0  0  0  0  0  0  0  0  0  0  0
  151.9905  144.6515  159.5913 C   0  0  0  0  0  0  0  0  0  0  0  0
  151.9886  145.9356  160.0208 F   0  0  0  0  0  0  0  0  0  0  0  0
  152.5532  143.6408  160.3940 C   0  0  0  0  0  0  0  0  0  0  0  0
  152.5545  142.3052  159.9474 C   0  0  0  0  0  0  0  0  0  0  0  0
  152.8712  139.6590  153.7878 H   0  0  0  0  0  0  0  0  0  0  0  0
  151.9527  137.9936  155.1113 H   0  0  0  0  0  0  0  0  0  0  0  0
  152.4608  138.9330  156.4936 H   0  0  0  0  0  0  0  0  0  0  0  0
  148.2218  141.3429  152.7121 H   0  0  0  0  0  0  0  0  0  0  0  0
  146.3082  142.5019  153.7926 H   0  0  0  0  0  0  0  0  0  0  0  0
  146.1532  142.6297  156.2700 H   0  0  0  0  0  0  0  0  0  0  0  0
  147.9242  141.5979  157.6859 H   0  0  0  0  0  0  0  0  0  0  0  0
  149.8336  140.6275  158.4749 H   0  0  0  0  0  0  0  0  0  0  0  0
  150.4252  139.0187  158.1670 H   0  0  0  0  0  0  0  0  0  0  0  0
  152.5907  140.4777  157.3039 H   0  0  0  0  0  0  0  0  0  0  0  0
  152.1992  139.8005  159.9864 H   0  0  0  0  0  0  0  0  0  0  0  0
  150.9914  142.7498  156.9368 H   0  0  0  0  0  0  0  0  0  0  0  0
  150.9935  145.1005  157.7277 H   0  0  0  0  0  0  0  0  0  0  0  0
  152.9827  143.8895  161.3534 H   0  0  0  0  0  0  0  0  0  0  0  0
  152.9849  141.5356  160.5716 H   0  0  0  0  0  0  0  0  0  0  0  0
  1  2  1  0  0  0  0
  1 22  1  0  0  0  0
  2  3  1  0  0  0  0
  2 23  1  0  0  0  0
  2 24  1  0  0  0  0
  3 11  1  0  0  0  0
  3  4  2  0  0  0  0
  4  5  1  0  0  0  0
  5 10  2  0  0  0  0
  5  6  1  0  0  0  0
  6  7  2  0  0  0  0
  6 25  1  0  0  0  0
  7  8  1  0  0  0  0
  7 26  1  0  0  0  0
  8  9  2  0  0  0  0
  8 27  1  0  0  0  0
  9 10  1  0  0  0  0
  9 28  1  0  0  0  0
 10 11  1  0  0  0  0
 11 12  1  0  0  0  0
 12 13  1  0  0  0  0
 12 29  1  0  0  0  0
 12 30  1  0  0  0  0
 13 14  1  0  0  0  0
 13 15  1  0  0  0  0
 13 31  1  0  0  0  0
 14 32  1  0  0  0  0
 15 21  1  0  0  0  0
 15 16  2  0  0  0  0
 16 17  1  0  0  0  0
 16 33  1  0  0  0  0
 17 18  2  0  0  0  0
 17 34  1  0  0  0  0
 18 19  1  0  0  0  0
 18 20  1  0  0  0  0
 20 21  2  0  0  0  0
 20 35  1  0  0  0  0
 21 36  1  0  0  0  0
M  END
> <s_m_source_file>
AV-unprocessed.smi

> <i_m_source_file_index>
458

> <i_lp_mmshare_version>
43012

> <i_f3d_flags>
0

> <s_epik_input>
W2NIXTFbY0hdW2NIXVtjSF1jKGMxMiluKGMobjIpW0NIMl1bT0hdKVtDSDJdW0NASF0oW09IXSljM1tjSF1bY0hdYyhGKVtjSF1bY0hdMw==

> <s_epik_cmdline>
J2VwaWtfcHl0aG9uJywgJy1waCcsICc3LjAnLCAnLXRuJywgJzgnLCAnLW1hJywgJzIwMCcsICctbWV0YWxfYmluZGluZycsICctaW1hZScsICc8aW5maWxlLm1hZT4nLCAnLW9tYWUnLCAnPG91dGZpbGUubWFlPic=

> <r_epik_Ionization_Penalty>
0.0634724

> <r_epik_Ionization_Penalty_Charging>
0

> <r_epik_Ionization_Penalty_Neutral>
0.0634724

> <r_epik_State_Penalty>
0.0551572

> <r_epik_Charging_Adjusted_Penalty>
0.0551572

> <i_epik_Tot_Q>
0

> <i_epik_Tot_abs_Q>
0

> <r_epik_Metal_State_Penalty>
5.78034e-05

> <b_epik_Metal_Only>
0

> <s_lp_Force_Field>
OPLS_2005

> <r_lp_Energy>
12.4444

> <b_lp_Chiralities_Consistent>
1

> <s_lp_Variant>
AV-unprocessed.smi:458-1

> <Gold.Version>
5.8.1

> <Gold.Id.Protein>
6NUR|6NUR_protein|mol2

> <Gold.PLP.Fitness>
55.6771

> <Gold.PLP.PLP>
-50.8541

> <Gold.PLP.part.hbond>
-3.0000

> <Gold.PLP.part.metal>
0.0000

> <Gold.PLP.part.buried>
-4.8883

> <Gold.PLP.part.nonpolar>
-42.8467

> <Gold.PLP.part.repulsive>
0.1538

> <Gold.PLP.ligand.clash>
0.0000

> <Gold.PLP.ligand.torsion>
0.6101

> <Gold.PLP.Chemscore.Hbond>
2.0000

> <Gold.PLP.Chemscore.CHOScore>
0.0000

> <Gold.PLP.Chemscore.Metal>
0.0000

> <Gold.Chemscore.Hbonds>
donor molecule, donor type, donor heavy atom, donor atom, acceptor molecule, acceptor atom, score
      P1  H  7989  7998       L1     4  1.00
      P1  H  7997  8009       L1     1  1.00

> <Gold.PLP.Chemscore.Internal.Correction>
0.0433

> <Gold.Rescore>
     Score         DG    S(hbond)    S(metal)    S(lipo)     H(rot)  DE(clash)    DE(int)     intcor
     16.77     -17.44       1.70        0.00     113.97       2.75       0.03       0.64       ----

> <Gold.Chemscore.Fitness>
16.7718

> <Gold.Chemscore.DG>
-17.4422

> <Gold.Chemscore.ZeroCoef>
-5.4800

> <Gold.Chemscore.Hbond>
1.6971

> <Gold.Chemscore.Metal>
0.0000

> <Gold.Chemscore.Lipo>
113.9651

> <Gold.Chemscore.Internal_Hbond>
0.0000

> <Gold.Chemscore.DEClash>
0.0305

> <Gold.Chemscore.DEInternal>
0.6400

> <Gold.Chemscore.Rot>
2.7500

> <Gold.Chemscore.Internal.Correction>
   9.000000E+99

> <Gold.Chemscore.Hbonds>
donor molecule, donor type, donor heavy atom, donor atom, acceptor molecule, acceptor atom, score
      P1  H  7989  7998       L1     4  0.25
      P1  H  7997  8009       L1     1  0.74

> <Gold.Chemscore.Hbond.Weighted>
-5.6682

> <Gold.Chemscore.Metal.Weighted>
-0.0000

> <Gold.Chemscore.Lipo.Weighted>
-13.3339

> <Gold.Chemscore.Internal_Hbond.Weighted>
0.0000

> <Gold.Chemscore.DEClash.Weighted>
0.0305

> <Gold.Chemscore.DEInternal.Weighted>
0.6400

> <Gold.Chemscore.Rot.Weighted>
7.0399

> <Gold.Chemscore.Internal.Correction.Weighted>
   9.000000E+99

> <Gold.Protein.RotatedTorsions>
[ 6907 6896 6895 6894 ] final -111.19 input  -60.11 | X-H torsion
[ 7974 7965 7964 7962 ] final  -88.02 input  175.53 | X-H torsion
[ 8008 7997 7996 7995 ] final -128.06 input   59.86 | X-H torsion
[ 10167 10162 10161 10158 ] final  -70.14 input  -65.29 | X-H torsion
[ 10718 10713 10712 10709 ] final -149.40 input   66.30 | X-H torsion
[ 10763 10752 10751 10750 ] final  133.56 input  -60.55 | X-H torsion
[ 11005 11000 10999 10996 ] final  -40.83 input  -57.11 | X-H torsion

> <Gold.Protein.ActiveResidues>
 VAL166  LYS551  ARG553  GLY616  TRP617  ASP618  TYR619  PRO620  LYS621  CYS622 
 ASP623  PHE694  ASN695  SER759  ASP760  ASP761  ALA762  ILE779  LEU786  VAL792 
 PHE793  MET794  SER795  GLU796  ALA797  LYS798  CYS799  TRP800  GLU811  SER814 

> <Gold.Protein.RotatedAtoms>
  150.7674  133.9272  159.3415 H   0  0  0  0  0  0  0  0  0  0  0  0  # atno 6907 bound_to 6896
  151.7167  135.0900  160.0286 H   0  0  0  0  0  0  0  0  0  0  0  0  # atno 6908 bound_to 6896
  152.3676  133.6338  159.6098 H   0  0  0  0  0  0  0  0  0  0  0  0  # atno 6909 bound_to 6896
  145.4588  140.9561  143.1981 H   0  0  0  0  0  0  0  0  0  0  0  0  # atno 7974 bound_to 7965
  155.2564  140.0434  157.2992 H   0  0  0  0  0  0  0  0  0  0  0  0  # atno 8008 bound_to 7997
  154.5737  140.2381  155.8123 H   0  0  0  0  0  0  0  0  0  0  0  0  # atno 8009 bound_to 7997
  156.2142  140.2990  155.9809 H   0  0  0  0  0  0  0  0  0  0  0  0  # atno 8010 bound_to 7997
  140.5376  143.2317  151.7148 H   0  0  0  0  0  0  0  0  0  0  0  0  # atno 10167 bound_to 10162
  156.4327  130.8083  151.2311 H   0  0  0  0  0  0  0  0  0  0  0  0  # atno 10718 bound_to 10713
  153.8091  135.3131  155.3399 H   0  0  0  0  0  0  0  0  0  0  0  0  # atno 10763 bound_to 10752
  154.8058  135.4698  154.0393 H   0  0  0  0  0  0  0  0  0  0  0  0  # atno 10764 bound_to 10752
  153.1765  135.6886  153.8624 H   0  0  0  0  0  0  0  0  0  0  0  0  # atno 10765 bound_to 10752
  141.0203  133.6866  156.2375 H   0  0  0  0  0  0  0  0  0  0  0  0  # atno 11005 bound_to 11000
  144.8016  139.6131  143.7069 LP  0  0  0  0  0  0  0  0  0  0  0  0  # atno 17320 bound_to 7965
  146.2463  139.6105  142.9457 LP  0  0  0  0  0  0  0  0  0  0  0  0  # atno 17321 bound_to 7965
  139.4976  144.4019  152.0173 LP  0  0  0  0  0  0  0  0  0  0  0  0  # atno 17342 bound_to 10162
  140.3125  144.3521  150.6030 LP  0  0  0  0  0  0  0  0  0  0  0  0  # atno 17343 bound_to 10162
  157.7508  131.0193  150.3662 LP  0  0  0  0  0  0  0  0  0  0  0  0  # atno 17370 bound_to 10713
  156.4003  130.3914  149.6965 LP  0  0  0  0  0  0  0  0  0  0  0  0  # atno 17371 bound_to 10713
  140.6584  134.4993  157.5582 LP  0  0  0  0  0  0  0  0  0  0  0  0  # atno 17394 bound_to 11000
  139.9142  134.8281  156.1423 LP  0  0  0  0  0  0  0  0  0  0  0  0  # atno 17395 bound_to 11000

$$$$
