AV-unprocessed.smi:2776|AV-procd|sdf|10704|dock4
  -GOLD-   2272015143D 1   1.00000     0.00000
 Structure written by MMmdl.
 25 26  0  0  0  0  0  0  0  0  1 V2000
  150.3996  142.4349  155.4849 O   0  0  0  0  0  0  0  0  0  0  0  0
  150.1925  141.2992  156.3036 C   0  0  2  0  0  0  0  0  0  0  0  0
  151.3826  141.1341  157.2699 C   0  0  0  0  0  0  0  0  0  0  0  0
  151.3708  142.1159  158.3399 N   0  0  0  0  0  0  0  0  0  0  0  0
  150.6608  143.2595  158.3809 C   0  0  0  0  0  0  0  0  0  0  0  0
  150.7953  144.0220  159.4623 N   0  0  0  0  0  0  0  0  0  0  0  0
  151.6971  143.2868  160.2125 C   0  0  0  0  0  0  0  0  0  0  0  0
  152.2622  143.5474  161.4812 C   0  0  0  0  0  0  0  0  0  0  0  0
  153.1764  142.6403  162.0567 C   0  0  0  0  0  0  0  0  0  0  0  0
  153.7092  142.9062  163.2729 F   0  0  0  0  0  0  0  0  0  0  0  0
  153.5387  141.4607  161.3729 C   0  0  0  0  0  0  0  0  0  0  0  0
  154.4172  140.5953  161.9320 F   0  0  0  0  0  0  0  0  0  0  0  0
  152.9892  141.1801  160.1072 C   0  0  0  0  0  0  0  0  0  0  0  0
  152.0771  142.0875  159.5376 C   0  0  0  0  0  0  0  0  0  0  0  0
  149.9700  140.0633  155.4108 C   0  0  0  0  0  0  0  0  0  0  0  0
  151.1279  139.6608  154.8866 F   0  0  0  0  0  0  0  0  0  0  0  0
  149.4222  139.0647  156.1042 F   0  0  0  0  0  0  0  0  0  0  0  0
  149.1531  140.3828  154.4070 F   0  0  0  0  0  0  0  0  0  0  0  0
  149.6506  143.0049  155.5675 H   0  0  0  0  0  0  0  0  0  0  0  0
  149.2868  141.4767  156.8852 H   0  0  0  0  0  0  0  0  0  0  0  0
  151.3671  140.1411  157.7204 H   0  0  0  0  0  0  0  0  0  0  0  0
  152.3280  141.2164  156.7325 H   0  0  0  0  0  0  0  0  0  0  0  0
  150.0088  143.5491  157.5698 H   0  0  0  0  0  0  0  0  0  0  0  0
  151.9927  144.4476  162.0130 H   0  0  0  0  0  0  0  0  0  0  0  0
  153.2677  140.2794  159.5804 H   0  0  0  0  0  0  0  0  0  0  0  0
  1  2  1  0  0  0  0
  1 19  1  0  0  0  0
  2  3  1  0  0  0  0
  2 15  1  0  0  0  0
  2 20  1  0  0  0  0
  3  4  1  0  0  0  0
  3 21  1  0  0  0  0
  3 22  1  0  0  0  0
  4 14  1  0  0  0  0
  4  5  1  0  0  0  0
  5  6  2  0  0  0  0
  5 23  1  0  0  0  0
  6  7  1  0  0  0  0
  7 14  2  0  0  0  0
  7  8  1  0  0  0  0
  8  9  2  0  0  0  0
  8 24  1  0  0  0  0
  9 10  1  0  0  0  0
  9 11  1  0  0  0  0
 11 12  1  0  0  0  0
 11 13  2  0  0  0  0
 13 14  1  0  0  0  0
 13 25  1  0  0  0  0
 15 16  1  0  0  0  0
 15 17  1  0  0  0  0
 15 18  1  0  0  0  0
M  END
> <s_m_source_file>
AV-unprocessed.smi

> <i_m_source_file_index>
2776

> <i_lp_mmshare_version>
43012

> <i_f3d_flags>
0

> <s_epik_input>
RkMoRikoRilbQ0BIXShbT0hdKVtDSDJdbihbY0hdbjEpYyhjMTIpW2NIXWMoRiljKEYpW2NIXTI=

> <s_epik_cmdline>
J2VwaWtfcHl0aG9uJywgJy1waCcsICc3LjAnLCAnLXRuJywgJzgnLCAnLW1hJywgJzIwMCcsICctbWV0YWxfYmluZGluZycsICctaW1hZScsICc8aW5maWxlLm1hZT4nLCAnLW9tYWUnLCAnPG91dGZpbGUubWFlPic=

> <r_epik_Ionization_Penalty>
0.0162713

> <r_epik_Ionization_Penalty_Charging>
0

> <r_epik_Ionization_Penalty_Neutral>
0.0162713

> <r_epik_State_Penalty>
0.00836517

> <r_epik_Charging_Adjusted_Penalty>
0.00836517

> <i_epik_Tot_Q>
0

> <i_epik_Tot_abs_Q>
0

> <r_epik_Metal_State_Penalty>
8.42444e-06

> <b_epik_Metal_Only>
0

> <s_lp_Force_Field>
OPLS_2005

> <r_lp_Energy>
8.8272

> <b_lp_Chiralities_Consistent>
1

> <s_lp_Variant>
AV-unprocessed.smi:2776-1

> <Gold.Version>
5.8.1

> <Gold.Id.Protein>
6NUR|6NUR_protein|mol2

> <Gold.PLP.Fitness>
45.3877

> <Gold.PLP.PLP>
-40.6768

> <Gold.PLP.part.hbond>
-1.4382

> <Gold.PLP.part.metal>
0.0000

> <Gold.PLP.part.buried>
-0.2837

> <Gold.PLP.part.nonpolar>
-38.8175

> <Gold.PLP.part.repulsive>
0.1016

> <Gold.PLP.ligand.clash>
0.0000

> <Gold.PLP.ligand.torsion>
0.6535

> <Gold.PLP.Chemscore.Hbond>
1.0000

> <Gold.PLP.Chemscore.CHOScore>
1.0000

> <Gold.PLP.Chemscore.Metal>
0.0000

> <Gold.Chemscore.Hbonds>
donor molecule, donor type, donor heavy atom, donor atom, acceptor molecule, acceptor atom, score
      L1  H     1    19       P1  8028  1.00
      L1  C     5    23       P1  8028  1.00

> <Gold.PLP.Chemscore.Internal.Correction>
0.0180

> <Gold.Rescore>
     Score         DG    S(hbond)    S(metal)    S(lipo)     H(rot)  DE(clash)    DE(int)     intcor
     12.40     -13.44       1.00        0.00      85.17       2.08       0.33       0.71       ----

> <Gold.Chemscore.Fitness>
12.3966

> <Gold.Chemscore.DG>
-13.4423

> <Gold.Chemscore.ZeroCoef>
-5.4800

> <Gold.Chemscore.Hbond>
0.9977

> <Gold.Chemscore.Metal>
0.0000

> <Gold.Chemscore.Lipo>
85.1734

> <Gold.Chemscore.Internal_Hbond>
0.0000

> <Gold.Chemscore.DEClash>
0.3323

> <Gold.Chemscore.DEInternal>
0.7134

> <Gold.Chemscore.Rot>
2.0841

> <Gold.Chemscore.Internal.Correction>
   9.000000E+99

> <Gold.Chemscore.Hbonds>
donor molecule, donor type, donor heavy atom, donor atom, acceptor molecule, acceptor atom, score
      L1  H     1    19       P1  8028  0.95

> <Gold.Chemscore.Hbond.Weighted>
-3.3324

> <Gold.Chemscore.Metal.Weighted>
-0.0000

> <Gold.Chemscore.Lipo.Weighted>
-9.9653

> <Gold.Chemscore.Internal_Hbond.Weighted>
0.0000

> <Gold.Chemscore.DEClash.Weighted>
0.3323

> <Gold.Chemscore.DEInternal.Weighted>
0.7134

> <Gold.Chemscore.Rot.Weighted>
5.3353

> <Gold.Chemscore.Internal.Correction.Weighted>
   9.000000E+99

> <Gold.Protein.RotatedTorsions>
[ 6907 6896 6895 6894 ] final   40.15 input  -60.11 | X-H torsion
[ 7974 7965 7964 7962 ] final  117.60 input  175.53 | X-H torsion
[ 8008 7997 7996 7995 ] final  141.90 input   59.86 | X-H torsion
[ 10167 10162 10161 10158 ] final  -33.24 input  -65.29 | X-H torsion
[ 10718 10713 10712 10709 ] final  -40.38 input   66.30 | X-H torsion
[ 10763 10752 10751 10750 ] final  -58.78 input  -60.55 | X-H torsion
[ 11005 11000 10999 10996 ] final   48.13 input  -57.11 | X-H torsion

> <Gold.Protein.ActiveResidues>
 VAL166  LYS551  ARG553  GLY616  TRP617  ASP618  TYR619  PRO620  LYS621  CYS622 
 ASP623  PHE694  ASN695  SER759  ASP760  ASP761  ALA762  ILE779  LEU786  VAL792 
 PHE793  MET794  SER795  GLU796  ALA797  LYS798  CYS799  TRP800  GLU811  SER814 

> <Gold.Protein.RotatedAtoms>
  152.1788  134.8771  160.0527 H   0  0  0  0  0  0  0  0  0  0  0  0  # atno 6907 bound_to 6896
  151.9703  133.3719  159.4077 H   0  0  0  0  0  0  0  0  0  0  0  0  # atno 6908 bound_to 6896
  150.6914  134.4070  159.5188 H   0  0  0  0  0  0  0  0  0  0  0  0  # atno 6909 bound_to 6896
  145.1654  139.3131  143.4495 H   0  0  0  0  0  0  0  0  0  0  0  0  # atno 7974 bound_to 7965
  156.2958  140.2303  156.4639 H   0  0  0  0  0  0  0  0  0  0  0  0  # atno 8008 bound_to 7997
  154.7994  140.0449  157.1282 H   0  0  0  0  0  0  0  0  0  0  0  0  # atno 8009 bound_to 7997
  154.9551  140.3047  155.5060 H   0  0  0  0  0  0  0  0  0  0  0  0  # atno 8010 bound_to 7997
  140.7208  143.3635  151.1917 H   0  0  0  0  0  0  0  0  0  0  0  0  # atno 10167 bound_to 10162
  156.2819  130.4218  149.8327 H   0  0  0  0  0  0  0  0  0  0  0  0  # atno 10718 bound_to 10713
  154.2434  135.6339  153.5215 H   0  0  0  0  0  0  0  0  0  0  0  0  # atno 10763 bound_to 10752
  152.9926  135.5547  154.5886 H   0  0  0  0  0  0  0  0  0  0  0  0  # atno 10764 bound_to 10752
  154.5396  135.2894  155.1082 H   0  0  0  0  0  0  0  0  0  0  0  0  # atno 10765 bound_to 10752
  140.1218  134.4820  155.8591 H   0  0  0  0  0  0  0  0  0  0  0  0  # atno 11005 bound_to 11000
  146.3476  140.1780  142.8589 LP  0  0  0  0  0  0  0  0  0  0  0  0  # atno 17320 bound_to 7965
  145.0287  140.8853  143.5122 LP  0  0  0  0  0  0  0  0  0  0  0  0  # atno 17321 bound_to 7965
  139.7191  143.9252  152.2978 LP  0  0  0  0  0  0  0  0  0  0  0  0  # atno 17342 bound_to 10162
  139.9003  144.6916  150.8673 LP  0  0  0  0  0  0  0  0  0  0  0  0  # atno 17343 bound_to 10162
  156.5771  130.8450  151.3373 LP  0  0  0  0  0  0  0  0  0  0  0  0  # atno 17370 bound_to 10713
  157.7317  130.9704  150.1893 LP  0  0  0  0  0  0  0  0  0  0  0  0  # atno 17371 bound_to 10713
  141.2153  133.6763  156.6902 LP  0  0  0  0  0  0  0  0  0  0  0  0  # atno 17394 bound_to 11000
  140.2956  134.8205  157.4054 LP  0  0  0  0  0  0  0  0  0  0  0  0  # atno 17395 bound_to 11000

$$$$
