AV-unprocessed.smi:3161|AV-procd|sdf|12055|dock5
  -GOLD-   2272017483D 1   1.00000     0.00000
 Structure written by MMmdl.
 41 42  0  0  0  0  0  0  0  0  2 V2000
  143.5018  132.3269  151.0379 C   0  0  0  0  0  0  0  0  0  0  0  0
  144.1175  133.6227  151.4812 C   0  0  0  0  0  0  0  0  0  0  0  0
  144.1244  134.1821  152.7905 C   0  0  0  0  0  0  0  0  0  0  0  0
  144.7535  135.3447  152.8492 N   0  0  0  0  0  0  0  0  0  0  0  0
  145.1720  135.5664  151.5847 N   0  0  0  0  0  0  0  0  0  0  0  0
  145.9116  136.7760  151.2685 C   0  0  0  0  0  0  0  0  0  0  0  0
  146.1792  137.6442  152.5135 C   0  0  2  0  0  0  0  0  0  0  0  0
  146.7475  139.0147  152.1091 C   0  0  0  0  0  0  0  0  0  0  0  0
  147.0997  136.9433  153.4378 N   0  3  0  0  0  0  0  0  0  0  0  0
  147.5093  137.7134  154.6304 C   0  0  0  0  0  0  0  0  0  0  0  0
  148.7383  138.5808  154.3255 C   0  0  2  0  0  0  0  0  0  0  0  0
  150.0546  137.8357  154.6212 C   0  0  0  0  0  0  0  0  0  0  0  0
  151.2590  138.7572  154.3977 C   0  0  0  0  0  0  0  0  0  0  0  0
  151.0766  140.0500  155.1999 C   0  0  0  0  0  0  0  0  0  0  0  0
  149.7112  140.6830  154.8886 C   0  0  0  0  0  0  0  0  0  0  0  0
  148.6707  139.7448  155.1473 O   0  0  0  0  0  0  0  0  0  0  0  0
  144.8004  134.5436  150.7381 C   0  0  0  0  0  0  0  0  0  0  0  0
  143.5091  131.5833  151.8351 H   0  0  0  0  0  0  0  0  0  0  0  0
  144.0354  131.8933  150.1918 H   0  0  0  0  0  0  0  0  0  0  0  0
  142.4645  132.4598  150.7307 H   0  0  0  0  0  0  0  0  0  0  0  0
  143.6917  133.7798  153.6947 H   0  0  0  0  0  0  0  0  0  0  0  0
  146.8471  136.5033  150.7766 H   0  0  0  0  0  0  0  0  0  0  0  0
  145.3304  137.3395  150.5373 H   0  0  0  0  0  0  0  0  0  0  0  0
  145.2271  137.8007  153.0233 H   0  0  0  0  0  0  0  0  0  0  0  0
  146.0793  139.5244  151.4145 H   0  0  0  0  0  0  0  0  0  0  0  0
  147.7169  138.9132  151.6196 H   0  0  0  0  0  0  0  0  0  0  0  0
  146.8753  139.6711  152.9696 H   0  0  0  0  0  0  0  0  0  0  0  0
  146.6232  136.1138  153.7643 H   0  0  0  0  0  0  0  0  0  0  0  0
  146.6873  138.3387  154.9790 H   0  0  0  0  0  0  0  0  0  0  0  0
  147.7462  137.0141  155.4332 H   0  0  0  0  0  0  0  0  0  0  0  0
  148.7164  138.8744  153.2741 H   0  0  0  0  0  0  0  0  0  0  0  0
  150.0540  137.4824  155.6535 H   0  0  0  0  0  0  0  0  0  0  0  0
  150.1412  136.9518  153.9885 H   0  0  0  0  0  0  0  0  0  0  0  0
  152.1822  138.2556  154.6889 H   0  0  0  0  0  0  0  0  0  0  0  0
  151.3501  138.9925  153.3365 H   0  0  0  0  0  0  0  0  0  0  0  0
  151.1429  139.8329  156.2668 H   0  0  0  0  0  0  0  0  0  0  0  0
  151.8795  140.7519  154.9726 H   0  0  0  0  0  0  0  0  0  0  0  0
  149.5555  141.5626  155.5134 H   0  0  0  0  0  0  0  0  0  0  0  0
  149.6645  141.0176  153.8510 H   0  0  0  0  0  0  0  0  0  0  0  0
  145.0500  134.5546  149.6870 H   0  0  0  0  0  0  0  0  0  0  0  0
  147.9230  136.6546  152.9283 H   0  0  0  0  0  0  0  0  0  0  0  0
  1  2  1  0  0  0  0
  1 18  1  0  0  0  0
  1 19  1  0  0  0  0
  1 20  1  0  0  0  0
  2 17  2  0  0  0  0
  2  3  1  0  0  0  0
  3  4  2  0  0  0  0
  3 21  1  0  0  0  0
  4  5  1  0  0  0  0
  5  6  1  0  0  0  0
  5 17  1  0  0  0  0
  6  7  1  0  0  0  0
  6 22  1  0  0  0  0
  6 23  1  0  0  0  0
  7  8  1  0  0  0  0
  7  9  1  0  0  0  0
  7 24  1  0  0  0  0
  8 25  1  0  0  0  0
  8 26  1  0  0  0  0
  8 27  1  0  0  0  0
  9 10  1  0  0  0  0
  9 28  1  0  0  0  0
  9 41  1  0  0  0  0
 10 11  1  0  0  0  0
 10 29  1  0  0  0  0
 10 30  1  0  0  0  0
 11 16  1  0  0  0  0
 11 12  1  0  0  0  0
 11 31  1  0  0  0  0
 12 13  1  0  0  0  0
 12 32  1  0  0  0  0
 12 33  1  0  0  0  0
 13 14  1  0  0  0  0
 13 34  1  0  0  0  0
 13 35  1  0  0  0  0
 14 15  1  0  0  0  0
 14 36  1  0  0  0  0
 14 37  1  0  0  0  0
 15 16  1  0  0  0  0
 15 38  1  0  0  0  0
 15 39  1  0  0  0  0
 17 40  1  0  0  0  0
M  CHG  1   9   1
M  END
> <s_m_source_file>
AV-unprocessed.smi

> <i_m_source_file_index>
3161

> <i_lp_mmshare_version>
43012

> <i_f3d_flags>
0

> <s_epik_input>
W0NIM11jMVtjSF1ubihbY0hdMSlbQ0gyXVtDQEhdKFtDSDNdKVtOSF1bQ0gyXVtDQEBIXTJbQ0gyXVtDSDJdW0NIMl1bQ0gyXU8y

> <s_epik_cmdline>
J2VwaWtfcHl0aG9uJywgJy1waCcsICc3LjAnLCAnLXRuJywgJzgnLCAnLW1hJywgJzIwMCcsICctbWV0YWxfYmluZGluZycsICctaW1hZScsICc8aW5maWxlLm1hZT4nLCAnLW9tYWUnLCAnPG91dGZpbGUubWFlPic=

> <r_lp_tautomer_probability>
1

> <r_epik_Ionization_Penalty>
0.00849661

> <r_epik_Ionization_Penalty_Charging>
0.00848754

> <r_epik_Ionization_Penalty_Neutral>
9.06711e-06

> <r_epik_State_Penalty>
0.00639836

> <r_epik_Charging_Adjusted_Penalty>
0.0148859

> <i_epik_Tot_Q>
1

> <i_epik_Tot_abs_Q>
1

> <r_epik_Metal_State_Penalty>
0.00639921

> <b_epik_Metal_Only>
0

> <s_lp_Force_Field>
OPLS_2005

> <r_lp_Energy>
12.4461

> <b_lp_Chiralities_Consistent>
1

> <s_lp_Variant>
AV-unprocessed.smi:3161-1

> <Gold.Version>
5.8.1

> <Gold.Id.Protein>
6NUR|6NUR_protein|mol2

> <Gold.PLP.Fitness>
42.2040

> <Gold.PLP.PLP>
-31.4989

> <Gold.PLP.part.hbond>
-0.9946

> <Gold.PLP.part.metal>
0.0000

> <Gold.PLP.part.buried>
0.5698

> <Gold.PLP.part.nonpolar>
-31.7820

> <Gold.PLP.part.repulsive>
0.1305

> <Gold.PLP.ligand.clash>
0.0000

> <Gold.PLP.ligand.torsion>
0.5978

> <Gold.PLP.Chemscore.Hbond>
2.0000

> <Gold.PLP.Chemscore.CHOScore>
1.9481

> <Gold.PLP.Chemscore.Metal>
0.0000

> <Gold.Chemscore.Hbonds>
donor molecule, donor type, donor heavy atom, donor atom, acceptor molecule, acceptor atom, score
      L1  H     9    41       P1  7948  2.00
      L1  C     3    21       P1 10957  1.00
      L1  C    17    40       P1  7921  1.00

> <Gold.PLP.Chemscore.Internal.Correction>
0.0564

> <Gold.Rescore>
     Score         DG    S(hbond)    S(metal)    S(lipo)     H(rot)  DE(clash)    DE(int)     intcor
     13.49     -14.23       1.00        0.00      80.70       1.57       0.29       0.45       ----

> <Gold.Chemscore.Fitness>
13.4870

> <Gold.Chemscore.DG>
-14.2304

> <Gold.Chemscore.ZeroCoef>
-5.4800

> <Gold.Chemscore.Hbond>
0.9975

> <Gold.Chemscore.Metal>
0.0000

> <Gold.Chemscore.Lipo>
80.6965

> <Gold.Chemscore.Internal_Hbond>
0.0000

> <Gold.Chemscore.DEClash>
0.2945

> <Gold.Chemscore.DEInternal>
0.4489

> <Gold.Chemscore.Rot>
1.5714

> <Gold.Chemscore.Internal.Correction>
   9.000000E+99

> <Gold.Chemscore.Hbonds>
donor molecule, donor type, donor heavy atom, donor atom, acceptor molecule, acceptor atom, score
      L1  H     9    41       P1  7948  0.94

> <Gold.Chemscore.Hbond.Weighted>
-3.3318

> <Gold.Chemscore.Metal.Weighted>
-0.0000

> <Gold.Chemscore.Lipo.Weighted>
-9.4415

> <Gold.Chemscore.Internal_Hbond.Weighted>
0.0000

> <Gold.Chemscore.DEClash.Weighted>
0.2945

> <Gold.Chemscore.DEInternal.Weighted>
0.4489

> <Gold.Chemscore.Rot.Weighted>
4.0228

> <Gold.Chemscore.Internal.Correction.Weighted>
   9.000000E+99

> <Gold.Protein.RotatedTorsions>
[ 6907 6896 6895 6894 ] final  147.79 input  -60.11 | X-H torsion
[ 7974 7965 7964 7962 ] final -178.32 input  175.53 | X-H torsion
[ 8008 7997 7996 7995 ] final  -86.51 input   59.86 | X-H torsion
[ 10167 10162 10161 10158 ] final   45.80 input  -65.29 | X-H torsion
[ 10718 10713 10712 10709 ] final   88.73 input   66.30 | X-H torsion
[ 10763 10752 10751 10750 ] final  -24.59 input  -60.55 | X-H torsion
[ 11005 11000 10999 10996 ] final   81.88 input  -57.11 | X-H torsion

> <Gold.Protein.ActiveResidues>
 VAL166  LYS551  ARG553  GLY616  TRP617  ASP618  TYR619  PRO620  LYS621  CYS622 
 ASP623  PHE694  ASN695  SER759  ASP760  ASP761  ALA762  ILE779  LEU786  VAL792 
 PHE793  MET794  SER795  GLU796  ALA797  LYS798  CYS799  TRP800  GLU811  SER814 

> <Gold.Protein.RotatedAtoms>
  152.1501  133.4516  159.4808 H   0  0  0  0  0  0  0  0  0  0  0  0  # atno 6907 bound_to 6896
  150.6894  134.2200  159.4402 H   0  0  0  0  0  0  0  0  0  0  0  0  # atno 6908 bound_to 6896
  152.0096  134.9883  160.0618 H   0  0  0  0  0  0  0  0  0  0  0  0  # atno 6909 bound_to 6896
  144.7130  140.0886  143.6422 H   0  0  0  0  0  0  0  0  0  0  0  0  # atno 7974 bound_to 7965
  154.6526  140.0577  156.9973 H   0  0  0  0  0  0  0  0  0  0  0  0  # atno 8008 bound_to 7997
  155.1348  140.3260  155.4447 H   0  0  0  0  0  0  0  0  0  0  0  0  # atno 8009 bound_to 7997
  156.2583  140.1974  156.6465 H   0  0  0  0  0  0  0  0  0  0  0  0  # atno 8010 bound_to 7997
  140.3204  144.2712  150.6184 H   0  0  0  0  0  0  0  0  0  0  0  0  # atno 10167 bound_to 10162
  157.6951  131.0306  150.3319 H   0  0  0  0  0  0  0  0  0  0  0  0  # atno 10718 bound_to 10713
  153.6863  135.6964  153.5103 H   0  0  0  0  0  0  0  0  0  0  0  0  # atno 10763 bound_to 10752
  153.2447  135.4294  155.0734 H   0  0  0  0  0  0  0  0  0  0  0  0  # atno 10764 bound_to 10752
  154.8386  135.3516  154.6405 H   0  0  0  0  0  0  0  0  0  0  0  0  # atno 10765 bound_to 10752
  139.9082  134.8030  156.2101 H   0  0  0  0  0  0  0  0  0  0  0  0  # atno 11005 bound_to 11000
  145.9640  139.2821  143.1139 LP  0  0  0  0  0  0  0  0  0  0  0  0  # atno 17320 bound_to 7965
  145.9190  140.9128  143.0415 LP  0  0  0  0  0  0  0  0  0  0  0  0  # atno 17321 bound_to 7965
  140.5488  143.2210  151.7961 LP  0  0  0  0  0  0  0  0  0  0  0  0  # atno 17342 bound_to 10162
  139.4875  144.4503  151.9661 LP  0  0  0  0  0  0  0  0  0  0  0  0  # atno 17343 bound_to 10162
  156.3792  130.3877  149.7115 LP  0  0  0  0  0  0  0  0  0  0  0  0  # atno 17370 bound_to 10713
  156.4503  130.7903  151.2925 LP  0  0  0  0  0  0  0  0  0  0  0  0  # atno 17371 bound_to 10713
  141.0471  133.6908  156.1703 LP  0  0  0  0  0  0  0  0  0  0  0  0  # atno 17394 bound_to 11000
  140.6867  134.4709  157.5589 LP  0  0  0  0  0  0  0  0  0  0  0  0  # atno 17395 bound_to 11000

$$$$
