AV-unprocessed.smi:2119|AV-procd|sdf|8637|dock3
  -GOLD-   2272011383D 1   1.00000     0.00000
 Structure written by MMmdl.
 48 50  0  0  0  0  0  0  0  0  2 V2000
  150.6210  140.5353  156.4828 O   0  0  0  0  0  0  0  0  0  0  0  0
  150.2575  141.7024  156.3426 C   0  0  0  0  0  0  0  0  0  0  0  0
  149.4513  142.1074  155.3511 N   0  0  0  0  0  0  0  0  0  0  0  0
  148.8626  141.2279  154.3460 C   0  0  0  0  0  0  0  0  0  0  0  0
  147.6218  140.4324  154.8430 C   0  0  1  0  0  0  0  0  0  0  0  0
  146.4353  141.3775  155.1501 C   0  0  1  0  0  0  0  0  0  0  0  0
  146.6267  142.2462  156.3815 C   0  0  0  0  0  0  0  0  0  0  0  0
  145.5911  143.3426  156.1625 C   0  0  0  0  0  0  0  0  0  0  0  0
  145.5317  143.5317  154.7538 O   0  0  0  0  0  0  0  0  0  0  0  0
  146.1816  142.4533  154.0878 C   0  0  0  0  0  0  0  0  0  0  0  0
  147.1704  139.3448  153.9210 N   0  3  0  0  0  0  0  0  0  0  0  0
  146.1194  138.4350  154.4408 C   0  0  0  0  0  0  0  0  0  0  0  0
  145.9370  137.2465  153.4820 C   0  0  0  0  0  0  0  0  0  0  0  0
  145.6199  137.7284  152.1810 O   0  0  0  0  0  0  0  0  0  0  0  0
  146.6561  138.5408  151.6407 C   0  0  0  0  0  0  0  0  0  0  0  0
  146.8658  139.7745  152.5343 C   0  0  0  0  0  0  0  0  0  0  0  0
  150.6258  142.7324  157.1232 N   0  0  0  0  0  0  0  0  0  0  0  0
  151.4349  142.7099  158.2913 C   0  0  0  0  0  0  0  0  0  0  0  0
  151.9771  141.4729  158.6971 C   0  0  0  0  0  0  0  0  0  0  0  0
  152.7995  141.4246  159.8386 C   0  0  0  0  0  0  0  0  0  0  0  0
  153.0574  142.6246  160.5290 C   0  0  0  0  0  0  0  0  0  0  0  0
  152.5595  143.8192  160.1468 N   0  0  0  0  0  0  0  0  0  0  0  0
  151.7699  143.8582  159.0519 C   0  0  0  0  0  0  0  0  0  0  0  0
  149.2051  143.0856  155.3054 H   0  0  0  0  0  0  0  0  0  0  0  0
  148.5974  141.8369  153.4806 H   0  0  0  0  0  0  0  0  0  0  0  0
  149.6377  140.5475  153.9927 H   0  0  0  0  0  0  0  0  0  0  0  0
  147.8872  139.9616  155.7907 H   0  0  0  0  0  0  0  0  0  0  0  0
  145.5197  140.7978  155.2754 H   0  0  0  0  0  0  0  0  0  0  0  0
  146.4728  141.7080  157.3173 H   0  0  0  0  0  0  0  0  0  0  0  0
  147.6291  142.6773  156.3958 H   0  0  0  0  0  0  0  0  0  0  0  0
  144.6107  143.0152  156.5106 H   0  0  0  0  0  0  0  0  0  0  0  0
  145.8446  144.2679  156.6802 H   0  0  0  0  0  0  0  0  0  0  0  0
  147.1218  142.8249  153.6778 H   0  0  0  0  0  0  0  0  0  0  0  0
  145.5758  142.0857  153.2592 H   0  0  0  0  0  0  0  0  0  0  0  0
  146.3912  138.0695  155.4310 H   0  0  0  0  0  0  0  0  0  0  0  0
  145.1729  138.9676  154.5397 H   0  0  0  0  0  0  0  0  0  0  0  0
  146.8380  136.6319  153.4466 H   0  0  0  0  0  0  0  0  0  0  0  0
  145.1271  136.6045  153.8287 H   0  0  0  0  0  0  0  0  0  0  0  0
  147.5776  137.9632  151.5512 H   0  0  0  0  0  0  0  0  0  0  0  0
  146.3751  138.8497  150.6337 H   0  0  0  0  0  0  0  0  0  0  0  0
  145.9691  140.3922  152.5122 H   0  0  0  0  0  0  0  0  0  0  0  0
  147.6840  140.3773  152.1386 H   0  0  0  0  0  0  0  0  0  0  0  0
  150.3188  143.6478  156.8288 H   0  0  0  0  0  0  0  0  0  0  0  0
  151.7646  140.5692  158.1444 H   0  0  0  0  0  0  0  0  0  0  0  0
  153.2238  140.4905  160.1763 H   0  0  0  0  0  0  0  0  0  0  0  0
  153.6848  142.6254  161.4080 H   0  0  0  0  0  0  0  0  0  0  0  0
  151.4259  144.8442  158.7817 H   0  0  0  0  0  0  0  0  0  0  0  0
  147.9908  138.7650  153.8172 H   0  0  0  0  0  0  0  0  0  0  0  0
  1  2  2  0  0  0  0
  2  3  1  0  0  0  0
  2 17  1  0  0  0  0
  3  4  1  0  0  0  0
  3 24  1  0  0  0  0
  4  5  1  0  0  0  0
  4 25  1  0  0  0  0
  4 26  1  0  0  0  0
  5  6  1  0  0  0  0
  5 11  1  0  0  0  0
  5 27  1  0  0  0  0
  6 10  1  0  0  0  0
  6  7  1  0  0  0  0
  6 28  1  0  0  0  0
  7  8  1  0  0  0  0
  7 29  1  0  0  0  0
  7 30  1  0  0  0  0
  8  9  1  0  0  0  0
  8 31  1  0  0  0  0
  8 32  1  0  0  0  0
  9 10  1  0  0  0  0
 10 33  1  0  0  0  0
 10 34  1  0  0  0  0
 11 16  1  0  0  0  0
 11 12  1  0  0  0  0
 11 48  1  0  0  0  0
 12 13  1  0  0  0  0
 12 35  1  0  0  0  0
 12 36  1  0  0  0  0
 13 14  1  0  0  0  0
 13 37  1  0  0  0  0
 13 38  1  0  0  0  0
 14 15  1  0  0  0  0
 15 16  1  0  0  0  0
 15 39  1  0  0  0  0
 15 40  1  0  0  0  0
 16 41  1  0  0  0  0
 16 42  1  0  0  0  0
 17 18  1  0  0  0  0
 17 43  1  0  0  0  0
 18 23  1  0  0  0  0
 18 19  2  0  0  0  0
 19 20  1  0  0  0  0
 19 44  1  0  0  0  0
 20 21  2  0  0  0  0
 20 45  1  0  0  0  0
 21 22  1  0  0  0  0
 21 46  1  0  0  0  0
 22 23  2  0  0  0  0
 23 47  1  0  0  0  0
M  CHG  1  11   1
M  END
> <s_m_source_file>
AV-unprocessed.smi

> <i_m_source_file_index>
2119

> <i_lp_mmshare_version>
43012

> <i_f3d_flags>
0

> <s_epik_input>
W2NIXTFuW2NIXVtjSF1bY0hdYzFbTkhdQyg9TylbTkhdW0NIMl1bQ0BIXShbQ0BASF0yW0NIMl1bQ0gyXU9bQ0gyXTIpTjNbQ0gyXVtDSDJdT1tDSDJdW0NIMl0z

> <s_epik_cmdline>
J2VwaWtfcHl0aG9uJywgJy1waCcsICc3LjAnLCAnLXRuJywgJzgnLCAnLW1hJywgJzIwMCcsICctbWV0YWxfYmluZGluZycsICctaW1hZScsICc8aW5maWxlLm1hZT4nLCAnLW9tYWUnLCAnPG91dGZpbGUubWFlPic=

> <r_epik_Ionization_Penalty>
0.987463

> <r_epik_Ionization_Penalty_Charging>
0.98326

> <r_epik_Ionization_Penalty_Neutral>
0.00420251

> <r_epik_State_Penalty>
1.01721

> <r_epik_Charging_Adjusted_Penalty>
2.00047

> <i_epik_Tot_Q>
1

> <i_epik_Tot_abs_Q>
1

> <r_epik_Metal_State_Penalty>
1.01439

> <b_epik_Metal_Only>
0

> <s_lp_Force_Field>
OPLS_2005

> <r_lp_Energy>
47.2413

> <b_lp_Chiralities_Consistent>
1

> <s_lp_Variant>
AV-unprocessed.smi:2119-8

> <Gold.Version>
5.8.1

> <Gold.Id.Protein>
6NUR|6NUR_protein|mol2

> <Gold.PLP.Fitness>
44.2662

> <Gold.PLP.PLP>
-39.2833

> <Gold.PLP.part.hbond>
-2.0000

> <Gold.PLP.part.metal>
0.0000

> <Gold.PLP.part.buried>
-5.7225

> <Gold.PLP.part.nonpolar>
-34.6594

> <Gold.PLP.part.repulsive>
0.7395

> <Gold.PLP.ligand.clash>
0.0000

> <Gold.PLP.ligand.torsion>
0.5047

> <Gold.PLP.Chemscore.Hbond>
1.9120

> <Gold.PLP.Chemscore.CHOScore>
0.0000

> <Gold.PLP.Chemscore.Metal>
0.0000

> <Gold.Chemscore.Hbonds>
donor molecule, donor type, donor heavy atom, donor atom, acceptor molecule, acceptor atom, score
      L1  H     3    24       P1  8028  1.00
      L1  H    17    43       P1  8028  0.70

> <Gold.PLP.Chemscore.Internal.Correction>
0.2563

> <Gold.Rescore>
     Score         DG    S(hbond)    S(metal)    S(lipo)     H(rot)  DE(clash)    DE(int)     intcor
     16.72     -19.73       1.91        0.00     104.52       1.70       0.04       2.96       ----

> <Gold.Chemscore.Fitness>
16.7234

> <Gold.Chemscore.DG>
-19.7307

> <Gold.Chemscore.ZeroCoef>
-5.4800

> <Gold.Chemscore.Hbond>
1.9100

> <Gold.Chemscore.Metal>
0.0000

> <Gold.Chemscore.Lipo>
104.5197

> <Gold.Chemscore.Internal_Hbond>
0.0000

> <Gold.Chemscore.DEClash>
0.0444

> <Gold.Chemscore.DEInternal>
2.9629

> <Gold.Chemscore.Rot>
1.7021

> <Gold.Chemscore.Internal.Correction>
   9.000000E+99

> <Gold.Chemscore.Hbonds>
donor molecule, donor type, donor heavy atom, donor atom, acceptor molecule, acceptor atom, score
      L1  H     3    24       P1  8028  1.00
      L1  H    17    43       P1  8028  0.67

> <Gold.Chemscore.Hbond.Weighted>
-6.3794

> <Gold.Chemscore.Metal.Weighted>
-0.0000

> <Gold.Chemscore.Lipo.Weighted>
-12.2288

> <Gold.Chemscore.Internal_Hbond.Weighted>
0.0000

> <Gold.Chemscore.DEClash.Weighted>
0.0444

> <Gold.Chemscore.DEInternal.Weighted>
2.9629

> <Gold.Chemscore.Rot.Weighted>
4.3575

> <Gold.Chemscore.Internal.Correction.Weighted>
   9.000000E+99

> <Gold.Protein.RotatedTorsions>
[ 6907 6896 6895 6894 ] final  -82.08 input  -60.11 | X-H torsion
[ 7974 7965 7964 7962 ] final   -6.56 input  175.53 | X-H torsion
[ 8008 7997 7996 7995 ] final -134.60 input   59.86 | X-H torsion
[ 10167 10162 10161 10158 ] final  -12.90 input  -65.29 | X-H torsion
[ 10718 10713 10712 10709 ] final -145.69 input   66.30 | X-H torsion
[ 10763 10752 10751 10750 ] final -108.51 input  -60.55 | X-H torsion
[ 11005 11000 10999 10996 ] final   73.26 input  -57.11 | X-H torsion

> <Gold.Protein.ActiveResidues>
 VAL166  LYS551  ARG553  GLY616  TRP617  ASP618  TYR619  PRO620  LYS621  CYS622 
 ASP623  PHE694  ASN695  SER759  ASP760  ASP761  ALA762  ILE779  LEU786  VAL792 
 PHE793  MET794  SER795  GLU796  ALA797  LYS798  CYS799  TRP800  GLU811  SER814 

> <Gold.Protein.RotatedAtoms>
  150.6902  134.3719  159.4995 H   0  0  0  0  0  0  0  0  0  0  0  0  # atno 6907 bound_to 6896
  152.1533  134.8968  160.0556 H   0  0  0  0  0  0  0  0  0  0  0  0  # atno 6908 bound_to 6896
  152.0057  133.3807  159.4236 H   0  0  0  0  0  0  0  0  0  0  0  0  # atno 6909 bound_to 6896
  146.2328  140.2188  142.8337 H   0  0  0  0  0  0  0  0  0  0  0  0  # atno 7974 bound_to 7965
  155.3648  140.0485  157.3046 H   0  0  0  0  0  0  0  0  0  0  0  0  # atno 8008 bound_to 7997
  154.5160  140.2208  155.9029 H   0  0  0  0  0  0  0  0  0  0  0  0  # atno 8009 bound_to 7997
  156.1636  140.3111  155.8856 H   0  0  0  0  0  0  0  0  0  0  0  0  # atno 8010 bound_to 7997
  140.7171  143.5483  150.9330 H   0  0  0  0  0  0  0  0  0  0  0  0  # atno 10167 bound_to 10162
  156.3856  130.7859  151.2056 H   0  0  0  0  0  0  0  0  0  0  0  0  # atno 10718 bound_to 10713
  154.8140  135.4635  154.0592 H   0  0  0  0  0  0  0  0  0  0  0  0  # atno 10763 bound_to 10752
  153.2000  135.6867  153.8249 H   0  0  0  0  0  0  0  0  0  0  0  0  # atno 10764 bound_to 10752
  153.7737  135.3266  155.3333 H   0  0  0  0  0  0  0  0  0  0  0  0  # atno 10765 bound_to 10752
  139.9449  134.7331  156.1005 H   0  0  0  0  0  0  0  0  0  0  0  0  # atno 11005 bound_to 11000
  144.9648  140.8311  143.5491 LP  0  0  0  0  0  0  0  0  0  0  0  0  # atno 17320 bound_to 7965
  145.2163  139.2180  143.5116 LP  0  0  0  0  0  0  0  0  0  0  0  0  # atno 17321 bound_to 7965
  139.9207  143.6609  152.3097 LP  0  0  0  0  0  0  0  0  0  0  0  0  # atno 17342 bound_to 10162
  139.7025  144.7633  151.1249 LP  0  0  0  0  0  0  0  0  0  0  0  0  # atno 17343 bound_to 10162
  157.7495  131.0331  150.4256 LP  0  0  0  0  0  0  0  0  0  0  0  0  # atno 17370 bound_to 10713
  156.4508  130.4011  149.6637 LP  0  0  0  0  0  0  0  0  0  0  0  0  # atno 17371 bound_to 10713
  141.1096  133.6648  156.2946 LP  0  0  0  0  0  0  0  0  0  0  0  0  # atno 17394 bound_to 11000
  140.5860  134.5698  157.5489 LP  0  0  0  0  0  0  0  0  0  0  0  0  # atno 17395 bound_to 11000

$$$$
