AV-unprocessed.smi:1283|AV-procd|sdf|5361|dock6
  -GOLD-   22720 4503D 1   1.00000     0.00000
 Structure written by MMmdl.
 30 31  0  0  0  0  0  0  0  0  1 V2000
  152.3814  138.4209  154.1415 C   0  0  0  0  0  0  0  0  0  0  0  0
  151.9654  139.1922  155.3122 N   0  0  0  0  0  0  0  0  0  0  0  0
  151.0367  140.1771  155.0498 N   0  0  0  0  0  0  0  0  0  0  0  0
  150.6047  140.9132  156.0150 C   0  0  0  0  0  0  0  0  0  0  0  0
  151.0592  140.7593  157.3893 C   0  0  0  0  0  0  0  0  0  0  0  0
  150.5953  141.5522  158.4318 N   0  0  0  0  0  0  0  0  0  0  0  0
  149.6236  142.6349  158.3927 C   0  0  0  0  0  0  0  0  0  0  0  0
  150.2335  143.9441  158.9094 C   0  0  2  0  0  0  0  0  0  0  0  0
  151.4694  144.3954  158.1329 C   0  0  0  0  0  0  0  0  0  0  0  0
  152.2451  145.2275  159.1433 C   0  0  0  0  0  0  0  0  0  0  0  0
  151.5895  144.8920  160.4860 C   0  0  0  0  0  0  0  0  0  0  0  0
  150.7535  143.7755  160.2184 O   0  0  0  0  0  0  0  0  0  0  0  0
  151.9685  139.7732  157.6187 C   0  0  0  0  0  0  0  0  0  0  0  0
  152.5732  139.4962  159.2184 Cl  0  0  0  0  0  0  0  0  0  0  0  0
  152.4822  138.9126  156.5430 C   0  0  0  0  0  0  0  0  0  0  0  0
  153.3063  138.0149  156.7218 O   0  0  0  0  0  0  0  0  0  0  0  0
  152.1314  137.3666  154.2679 H   0  0  0  0  0  0  0  0  0  0  0  0
  153.4587  138.5017  153.9903 H   0  0  0  0  0  0  0  0  0  0  0  0
  151.8953  138.7671  153.2278 H   0  0  0  0  0  0  0  0  0  0  0  0
  149.8632  141.6905  155.8361 H   0  0  0  0  0  0  0  0  0  0  0  0
  151.1205  141.5008  159.2933 H   0  0  0  0  0  0  0  0  0  0  0  0
  149.2392  142.7910  157.3855 H   0  0  0  0  0  0  0  0  0  0  0  0
  148.7769  142.3485  159.0170 H   0  0  0  0  0  0  0  0  0  0  0  0
  149.4885  144.7426  158.9142 H   0  0  0  0  0  0  0  0  0  0  0  0
  152.0668  143.5312  157.8392 H   0  0  0  0  0  0  0  0  0  0  0  0
  151.2171  144.9509  157.2294 H   0  0  0  0  0  0  0  0  0  0  0  0
  153.3024  144.9603  159.1343 H   0  0  0  0  0  0  0  0  0  0  0  0
  152.1667  146.2943  158.9315 H   0  0  0  0  0  0  0  0  0  0  0  0
  152.3179  144.6615  161.2635 H   0  0  0  0  0  0  0  0  0  0  0  0
  150.9749  145.7245  160.8314 H   0  0  0  0  0  0  0  0  0  0  0  0
  1  2  1  0  0  0  0
  1 17  1  0  0  0  0
  1 18  1  0  0  0  0
  1 19  1  0  0  0  0
  2 15  1  0  0  0  0
  2  3  1  0  0  0  0
  3  4  2  0  0  0  0
  4  5  1  0  0  0  0
  4 20  1  0  0  0  0
  5  6  1  0  0  0  0
  5 13  2  0  0  0  0
  6  7  1  0  0  0  0
  6 21  1  0  0  0  0
  7  8  1  0  0  0  0
  7 22  1  0  0  0  0
  7 23  1  0  0  0  0
  8 12  1  0  0  0  0
  8  9  1  0  0  0  0
  8 24  1  0  0  0  0
  9 10  1  0  0  0  0
  9 25  1  0  0  0  0
  9 26  1  0  0  0  0
 10 11  1  0  0  0  0
 10 27  1  0  0  0  0
 10 28  1  0  0  0  0
 11 12  1  0  0  0  0
 11 29  1  0  0  0  0
 11 30  1  0  0  0  0
 13 14  1  0  0  0  0
 13 15  1  0  0  0  0
 15 16  2  0  0  0  0
M  END
> <s_m_source_file>
AV-unprocessed.smi

> <i_m_source_file_index>
1283

> <i_lp_mmshare_version>
43012

> <i_f3d_flags>
0

> <s_epik_input>
W0NIM11uMW5bY0hdYyhjKENsKWMxPU8pW05IXVtDSDJdW0NAQEhdMltDSDJdW0NIMl1bQ0gyXU8y

> <s_epik_cmdline>
J2VwaWtfcHl0aG9uJywgJy1waCcsICc3LjAnLCAnLXRuJywgJzgnLCAnLW1hJywgJzIwMCcsICctbWV0YWxfYmluZGluZycsICctaW1hZScsICc8aW5maWxlLm1hZT4nLCAnLW9tYWUnLCAnPG91dGZpbGUubWFlPic=

> <r_lp_tautomer_probability>
1

> <r_epik_Ionization_Penalty>
2.40876e-05

> <r_epik_Ionization_Penalty_Charging>
4.17655e-09

> <r_epik_Ionization_Penalty_Neutral>
2.40834e-05

> <r_epik_State_Penalty>
-0

> <r_epik_Charging_Adjusted_Penalty>
4.17655e-09

> <i_epik_Tot_Q>
0

> <i_epik_Tot_abs_Q>
0

> <r_epik_Metal_State_Penalty>
-0

> <b_epik_Metal_Only>
0

> <s_lp_Force_Field>
OPLS_2005

> <r_lp_Energy>
38.2243

> <b_lp_Chiralities_Consistent>
1

> <s_lp_Variant>
AV-unprocessed.smi:1283-1

> <Gold.Version>
5.8.1

> <Gold.Id.Protein>
6NUR|6NUR_protein|mol2

> <Gold.PLP.Fitness>
36.8871

> <Gold.PLP.PLP>
-33.8908

> <Gold.PLP.part.hbond>
-1.9424

> <Gold.PLP.part.metal>
0.0000

> <Gold.PLP.part.buried>
-5.7425

> <Gold.PLP.part.nonpolar>
-26.3429

> <Gold.PLP.part.repulsive>
0.2864

> <Gold.PLP.ligand.clash>
0.0000

> <Gold.PLP.ligand.torsion>
0.0062

> <Gold.PLP.Chemscore.Hbond>
1.0000

> <Gold.PLP.Chemscore.CHOScore>
0.0000

> <Gold.PLP.Chemscore.Metal>
0.0000

> <Gold.Chemscore.Hbonds>
donor molecule, donor type, donor heavy atom, donor atom, acceptor molecule, acceptor atom, score
      P1  H  7989  7998       L1     3  1.00

> <Gold.PLP.Chemscore.Internal.Correction>
0.0088

> <Gold.Rescore>
     Score         DG    S(hbond)    S(metal)    S(lipo)     H(rot)  DE(clash)    DE(int)     intcor
     15.04     -15.06       0.84        0.00      84.54       1.22       0.01       0.01       ----

> <Gold.Chemscore.Fitness>
15.0420

> <Gold.Chemscore.DG>
-15.0572

> <Gold.Chemscore.ZeroCoef>
-5.4800

> <Gold.Chemscore.Hbond>
0.8416

> <Gold.Chemscore.Metal>
0.0000

> <Gold.Chemscore.Lipo>
84.5444

> <Gold.Chemscore.Internal_Hbond>
0.0000

> <Gold.Chemscore.DEClash>
0.0093

> <Gold.Chemscore.DEInternal>
0.0059

> <Gold.Chemscore.Rot>
1.2208

> <Gold.Chemscore.Internal.Correction>
   9.000000E+99

> <Gold.Chemscore.Hbonds>
donor molecule, donor type, donor heavy atom, donor atom, acceptor molecule, acceptor atom, score
      P1  H  7989  7998       L1     3  0.34

> <Gold.Chemscore.Hbond.Weighted>
-2.8108

> <Gold.Chemscore.Metal.Weighted>
-0.0000

> <Gold.Chemscore.Lipo.Weighted>
-9.8917

> <Gold.Chemscore.Internal_Hbond.Weighted>
0.0000

> <Gold.Chemscore.DEClash.Weighted>
0.0093

> <Gold.Chemscore.DEInternal.Weighted>
0.0059

> <Gold.Chemscore.Rot.Weighted>
3.1253

> <Gold.Chemscore.Internal.Correction.Weighted>
   9.000000E+99

> <Gold.Protein.RotatedTorsions>
[ 6907 6896 6895 6894 ] final  -75.76 input  -60.11 | X-H torsion
[ 7974 7965 7964 7962 ] final  -94.48 input  175.53 | X-H torsion
[ 8008 7997 7996 7995 ] final  -63.95 input   59.86 | X-H torsion
[ 10167 10162 10161 10158 ] final -166.12 input  -65.29 | X-H torsion
[ 10718 10713 10712 10709 ] final -133.72 input   66.30 | X-H torsion
[ 10763 10752 10751 10750 ] final  -56.21 input  -60.55 | X-H torsion
[ 11005 11000 10999 10996 ] final   72.30 input  -57.11 | X-H torsion

> <Gold.Protein.ActiveResidues>
 VAL166  LYS551  ARG553  GLY616  TRP617  ASP618  TYR619  PRO620  LYS621  CYS622 
 ASP623  PHE694  ASN695  SER759  ASP760  ASP761  ALA762  ILE779  LEU786  VAL792 
 PHE793  MET794  SER795  GLU796  ALA797  LYS798  CYS799  TRP800  GLU811  SER814 

> <Gold.Protein.RotatedAtoms>
  150.7048  134.4673  159.5408 H   0  0  0  0  0  0  0  0  0  0  0  0  # atno 6907 bound_to 6896
  152.2336  134.8295  160.0479 H   0  0  0  0  0  0  0  0  0  0  0  0  # atno 6908 bound_to 6896
  151.9102  133.3524  159.3897 H   0  0  0  0  0  0  0  0  0  0  0  0  # atno 6909 bound_to 6896
  145.3727  140.9507  143.2438 H   0  0  0  0  0  0  0  0  0  0  0  0  # atno 7974 bound_to 7965
  154.4583  140.0964  156.6822 H   0  0  0  0  0  0  0  0  0  0  0  0  # atno 8008 bound_to 7997
  155.5070  140.3475  155.4363 H   0  0  0  0  0  0  0  0  0  0  0  0  # atno 8009 bound_to 7997
  156.0822  140.1376  156.9687 H   0  0  0  0  0  0  0  0  0  0  0  0  # atno 8010 bound_to 7997
  139.6136  144.0764  152.1866 H   0  0  0  0  0  0  0  0  0  0  0  0  # atno 10167 bound_to 10162
  156.2479  130.7135  151.1022 H   0  0  0  0  0  0  0  0  0  0  0  0  # atno 10718 bound_to 10713
  154.2030  135.6408  153.5092 H   0  0  0  0  0  0  0  0  0  0  0  0  # atno 10763 bound_to 10752
  153.0007  135.5456  154.6295 H   0  0  0  0  0  0  0  0  0  0  0  0  # atno 10764 bound_to 10752
  154.5713  135.2917  155.0798 H   0  0  0  0  0  0  0  0  0  0  0  0  # atno 10765 bound_to 10752
  139.9498  134.7248  156.0891 H   0  0  0  0  0  0  0  0  0  0  0  0  # atno 11005 bound_to 11000
  144.8564  139.5242  143.6832 LP  0  0  0  0  0  0  0  0  0  0  0  0  # atno 17320 bound_to 7965
  146.2878  139.7053  142.9183 LP  0  0  0  0  0  0  0  0  0  0  0  0  # atno 17321 bound_to 7965
  140.0389  144.6023  150.7427 LP  0  0  0  0  0  0  0  0  0  0  0  0  # atno 17342 bound_to 10162
  140.7336  143.2719  151.3862 LP  0  0  0  0  0  0  0  0  0  0  0  0  # atno 17343 bound_to 10162
  157.7202  131.0686  150.6165 LP  0  0  0  0  0  0  0  0  0  0  0  0  # atno 17370 bound_to 10713
  156.6243  130.4414  149.5810 LP  0  0  0  0  0  0  0  0  0  0  0  0  # atno 17371 bound_to 10713
  141.1158  133.6628  156.3090 LP  0  0  0  0  0  0  0  0  0  0  0  0  # atno 17394 bound_to 11000
  140.5747  134.5805  157.5466 LP  0  0  0  0  0  0  0  0  0  0  0  0  # atno 17395 bound_to 11000

$$$$
