AV-unprocessed.smi:1867|AV-procd|sdf|7576|dock3
  -GOLD-   22720 9283D 1   1.00000     0.00000
 Structure written by MMmdl.
 52 55  0  0  0  0  0  0  0  0  4 V2000
  146.1736  140.2827  155.7596 O   0  0  0  0  0  0  0  0  0  0  0  0
  146.8282  139.3644  155.2693 C   0  0  0  0  0  0  0  0  0  0  0  0
  148.1638  139.3148  155.4994 N   0  0  0  0  0  0  0  0  0  0  0  0
  148.9954  140.2517  156.1688 C   0  0  0  0  0  0  0  0  0  0  0  0
  150.0651  139.7504  156.9389 C   0  0  0  0  0  0  0  0  0  0  0  0
  150.9330  140.6449  157.5976 C   0  0  0  0  0  0  0  0  0  0  0  0
  150.7280  142.0392  157.4730 C   0  0  0  0  0  0  0  0  0  0  0  0
  151.5588  142.9899  158.0952 N   0  0  0  0  0  0  0  0  0  0  0  0
  151.2642  144.4127  158.0367 C   0  0  0  0  0  0  0  0  0  0  0  0
  152.2953  145.0573  158.9618 C   0  0  0  0  0  0  0  0  0  0  0  0
  152.5140  143.9904  160.0348 C   0  0  0  0  0  0  0  0  0  0  0  0
  152.3233  142.6634  159.2906 C   0  0  0  0  0  0  0  0  0  0  0  0
  149.6999  142.4759  156.7069 N   0  3  0  0  0  0  0  0  0  0  0  0
  148.8449  141.6542  156.0605 C   0  0  0  0  0  0  0  0  0  0  0  0
  146.2293  138.3857  154.5246 N   0  5  0  0  0  0  0  0  0  0  0  0
  146.6824  137.7708  153.2688 C   0  0  2  0  0  0  0  0  0  0  0  0
  146.4699  138.7076  152.0642 C   0  0  0  0  0  0  0  0  0  0  0  0
  146.0767  137.7885  150.8915 C   0  0  0  0  0  0  0  0  0  0  0  0
  146.0574  136.4220  151.4486 N   0  3  2  0  0  0  0  0  0  0  0  0
  145.1557  135.4404  150.8068 C   0  0  0  0  0  0  0  0  0  0  0  0
  145.3645  134.0572  151.4562 C   0  0  0  0  0  0  0  0  0  0  0  0
  145.2213  134.1157  152.9913 C   0  0  0  0  0  0  0  0  0  0  0  0
  146.1216  135.2123  153.5943 C   0  0  0  0  0  0  0  0  0  0  0  0
  145.8248  136.5558  152.8957 C   0  0  1  0  0  0  0  0  0  0  0  0
  148.6263  138.4767  155.1793 H   0  0  0  0  0  0  0  0  0  0  0  0
  150.2214  138.6852  157.0279 H   0  0  0  0  0  0  0  0  0  0  0  0
  151.7499  140.2498  158.1828 H   0  0  0  0  0  0  0  0  0  0  0  0
  151.3381  144.7989  157.0195 H   0  0  0  0  0  0  0  0  0  0  0  0
  150.2525  144.5913  158.4035 H   0  0  0  0  0  0  0  0  0  0  0  0
  153.2254  145.2286  158.4178 H   0  0  0  0  0  0  0  0  0  0  0  0
  151.9616  146.0118  159.3701 H   0  0  0  0  0  0  0  0  0  0  0  0
  153.4877  144.0675  160.5191 H   0  0  0  0  0  0  0  0  0  0  0  0
  151.7489  144.0902  160.8058 H   0  0  0  0  0  0  0  0  0  0  0  0
  151.8141  141.9333  159.9207 H   0  0  0  0  0  0  0  0  0  0  0  0
  153.2852  142.2467  158.9906 H   0  0  0  0  0  0  0  0  0  0  0  0
  148.0880  142.1530  155.4737 H   0  0  0  0  0  0  0  0  0  0  0  0
  147.7294  137.4634  153.2991 H   0  0  0  0  0  0  0  0  0  0  0  0
  145.6632  139.4191  152.2495 H   0  0  0  0  0  0  0  0  0  0  0  0
  147.3691  139.2855  151.8482 H   0  0  0  0  0  0  0  0  0  0  0  0
  145.0890  138.0611  150.5152 H   0  0  0  0  0  0  0  0  0  0  0  0
  146.7815  137.8500  150.0613 H   0  0  0  0  0  0  0  0  0  0  0  0
  144.1188  135.7629  150.9157 H   0  0  0  0  0  0  0  0  0  0  0  0
  145.3692  135.3909  149.7386 H   0  0  0  0  0  0  0  0  0  0  0  0
  144.6562  133.3391  151.0421 H   0  0  0  0  0  0  0  0  0  0  0  0
  146.3593  133.6879  151.2042 H   0  0  0  0  0  0  0  0  0  0  0  0
  144.1814  134.3185  153.2502 H   0  0  0  0  0  0  0  0  0  0  0  0
  145.4653  133.1472  153.4285 H   0  0  0  0  0  0  0  0  0  0  0  0
  145.9416  135.2845  154.6685 H   0  0  0  0  0  0  0  0  0  0  0  0
  147.1686  134.9285  153.4698 H   0  0  0  0  0  0  0  0  0  0  0  0
  144.7719  136.8085  153.0454 H   0  0  0  0  0  0  0  0  0  0  0  0
  146.9993  136.0697  151.3553 H   0  0  0  0  0  0  0  0  0  0  0  0
  149.5628  143.4817  156.6088 H   0  0  0  0  0  0  0  0  0  0  0  0
  1  2  2  0  0  0  0
  2  3  1  0  0  0  0
  2 15  1  0  0  0  0
  3  4  1  0  0  0  0
  3 25  1  0  0  0  0
  4 14  1  0  0  0  0
  4  5  2  0  0  0  0
  5  6  1  0  0  0  0
  5 26  1  0  0  0  0
  6  7  2  0  0  0  0
  6 27  1  0  0  0  0
  7  8  1  0  0  0  0
  7 13  1  0  0  0  0
  8 12  1  0  0  0  0
  8  9  1  0  0  0  0
  9 10  1  0  0  0  0
  9 28  1  0  0  0  0
  9 29  1  0  0  0  0
 10 11  1  0  0  0  0
 10 30  1  0  0  0  0
 10 31  1  0  0  0  0
 11 12  1  0  0  0  0
 11 32  1  0  0  0  0
 11 33  1  0  0  0  0
 12 34  1  0  0  0  0
 12 35  1  0  0  0  0
 13 14  2  0  0  0  0
 13 52  1  0  0  0  0
 14 36  1  0  0  0  0
 15 16  1  0  0  0  0
 16 24  1  0  0  0  0
 16 17  1  0  0  0  0
 16 37  1  0  0  0  0
 17 18  1  0  0  0  0
 17 38  1  0  0  0  0
 17 39  1  0  0  0  0
 18 19  1  0  0  0  0
 18 40  1  0  0  0  0
 18 41  1  0  0  0  0
 19 24  1  0  0  0  0
 19 20  1  0  0  0  0
 19 51  1  0  0  0  0
 20 21  1  0  0  0  0
 20 42  1  0  0  0  0
 20 43  1  0  0  0  0
 21 22  1  0  0  0  0
 21 44  1  0  0  0  0
 21 45  1  0  0  0  0
 22 23  1  0  0  0  0
 22 46  1  0  0  0  0
 22 47  1  0  0  0  0
 23 24  1  0  0  0  0
 23 48  1  0  0  0  0
 23 49  1  0  0  0  0
 24 50  1  0  0  0  0
M  CHG  1  13   1
M  CHG  1  15  -1
M  CHG  1  19   1
M  END
> <s_m_source_file>
AV-unprocessed.smi

> <i_m_source_file_index>
1867

> <i_lp_mmshare_version>
43012

> <i_f3d_flags>
0

> <s_epik_input>
W0NIMl0xW0NIMl1bQ0gyXVtDSDJdW0NASF0oTjEyKVtDQEBIXShbQ0gyXVtDSDJdMilbTkhdQyg9TylbTkhdYzNbY0hdW2NIXWMobltjSF0zKU40W0NIMl1bQ0gyXVtDSDJdW0NIMl00

> <s_epik_cmdline>
J2VwaWtfcHl0aG9uJywgJy1waCcsICc3LjAnLCAnLXRuJywgJzgnLCAnLW1hJywgJzIwMCcsICctbWV0YWxfYmluZGluZycsICctaW1hZScsICc8aW5maWxlLm1hZT4nLCAnLW9tYWUnLCAnPG91dGZpbGUubWFlPic=

> <r_lp_tautomer_probability>
0.999994

> <r_epik_Ionization_Penalty>
8.56137

> <r_epik_Ionization_Penalty_Charging>
8.56136

> <r_epik_Ionization_Penalty_Neutral>
3.91889e-06

> <r_epik_State_Penalty>
8.16255

> <r_epik_Charging_Adjusted_Penalty>
16.7239

> <i_epik_Tot_Q>
1

> <i_epik_Tot_abs_Q>
3

> <r_epik_Metal_State_Penalty>
4.14279

> <b_epik_Metal_Only>
1

> <s_lp_Force_Field>
OPLS_2005

> <r_lp_Energy>
66.0689

> <b_lp_Chiralities_Consistent>
1

> <s_lp_Variant>
AV-unprocessed.smi:1867-17

> <Gold.Version>
5.8.1

> <Gold.Id.Protein>
6NUR|6NUR_protein|mol2

> <Gold.PLP.Fitness>
48.3592

> <Gold.PLP.PLP>
-38.4024

> <Gold.PLP.part.hbond>
-2.0000

> <Gold.PLP.part.metal>
0.0000

> <Gold.PLP.part.buried>
1.0217

> <Gold.PLP.part.nonpolar>
-38.6864

> <Gold.PLP.part.repulsive>
0.2583

> <Gold.PLP.ligand.clash>
0.0000

> <Gold.PLP.ligand.torsion>
0.8950

> <Gold.PLP.Chemscore.Hbond>
3.8400

> <Gold.PLP.Chemscore.CHOScore>
0.0000

> <Gold.PLP.Chemscore.Metal>
0.0000

> <Gold.Chemscore.Hbonds>
donor molecule, donor type, donor heavy atom, donor atom, acceptor molecule, acceptor atom, score
      L1  H    13    52       P1  8028  1.86
      L1  H    19    51       P1  7948  1.98

> <Gold.PLP.Chemscore.Internal.Correction>
0.2268

> <Gold.Rescore>
     Score         DG    S(hbond)    S(metal)    S(lipo)     H(rot)  DE(clash)    DE(int)     intcor
     18.56     -21.92       1.84        0.00     109.88       1.00       1.47       1.89       ----

> <Gold.Chemscore.Fitness>
18.5559

> <Gold.Chemscore.DG>
-21.9163

> <Gold.Chemscore.ZeroCoef>
-5.4800

> <Gold.Chemscore.Hbond>
1.8386

> <Gold.Chemscore.Metal>
0.0000

> <Gold.Chemscore.Lipo>
109.8758

> <Gold.Chemscore.Internal_Hbond>
0.0000

> <Gold.Chemscore.DEClash>
1.4703

> <Gold.Chemscore.DEInternal>
1.8901

> <Gold.Chemscore.Rot>
1.0000

> <Gold.Chemscore.Internal.Correction>
   9.000000E+99

> <Gold.Chemscore.Hbonds>
donor molecule, donor type, donor heavy atom, donor atom, acceptor molecule, acceptor atom, score
      L1  H    13    52       P1  8028  0.89
      L1  H    19    51       P1  7948  0.92

> <Gold.Chemscore.Hbond.Weighted>
-6.1408

> <Gold.Chemscore.Metal.Weighted>
-0.0000

> <Gold.Chemscore.Lipo.Weighted>
-12.8555

> <Gold.Chemscore.Internal_Hbond.Weighted>
0.0000

> <Gold.Chemscore.DEClash.Weighted>
1.4703

> <Gold.Chemscore.DEInternal.Weighted>
1.8901

> <Gold.Chemscore.Rot.Weighted>
2.5600

> <Gold.Chemscore.Internal.Correction.Weighted>
   9.000000E+99

> <Gold.Protein.RotatedTorsions>
[ 6907 6896 6895 6894 ] final    6.75 input  -60.11 | X-H torsion
[ 7974 7965 7964 7962 ] final  -66.89 input  175.53 | X-H torsion
[ 8008 7997 7996 7995 ] final  -14.47 input   59.86 | X-H torsion
[ 10167 10162 10161 10158 ] final  156.26 input  -65.29 | X-H torsion
[ 10718 10713 10712 10709 ] final   40.40 input   66.30 | X-H torsion
[ 10763 10752 10751 10750 ] final -122.69 input  -60.55 | X-H torsion
[ 11005 11000 10999 10996 ] final  -68.93 input  -57.11 | X-H torsion

> <Gold.Protein.ActiveResidues>
 VAL166  LYS551  ARG553  GLY616  TRP617  ASP618  TYR619  PRO620  LYS621  CYS622 
 ASP623  PHE694  ASN695  SER759  ASP760  ASP761  ALA762  ILE779  LEU786  VAL792 
 PHE793  MET794  SER795  GLU796  ALA797  LYS798  CYS799  TRP800  GLU811  SER814 

> <Gold.Protein.RotatedAtoms>
  151.6788  135.0965  160.0211 H   0  0  0  0  0  0  0  0  0  0  0  0  # atno 6907 bound_to 6896
  152.3848  133.6591  159.6198 H   0  0  0  0  0  0  0  0  0  0  0  0  # atno 6908 bound_to 6896
  150.7776  133.8970  159.3371 H   0  0  0  0  0  0  0  0  0  0  0  0  # atno 6909 bound_to 6896
  145.7361  140.8975  143.0554 H   0  0  0  0  0  0  0  0  0  0  0  0  # atno 7974 bound_to 7965
  154.5208  140.2222  155.8980 H   0  0  0  0  0  0  0  0  0  0  0  0  # atno 8008 bound_to 7997
  156.1659  140.3132  155.8853 H   0  0  0  0  0  0  0  0  0  0  0  0  # atno 8009 bound_to 7997
  155.3657  140.0463  157.3036 H   0  0  0  0  0  0  0  0  0  0  0  0  # atno 8010 bound_to 7997
  139.4821  144.5025  151.8147 H   0  0  0  0  0  0  0  0  0  0  0  0  # atno 10167 bound_to 10162
  157.3817  130.7757  149.7198 H   0  0  0  0  0  0  0  0  0  0  0  0  # atno 10718 bound_to 10713
  154.8694  135.4124  154.2823 H   0  0  0  0  0  0  0  0  0  0  0  0  # atno 10763 bound_to 10752
  153.3713  135.7007  153.6641 H   0  0  0  0  0  0  0  0  0  0  0  0  # atno 10764 bound_to 10752
  153.5501  135.3630  155.2728 H   0  0  0  0  0  0  0  0  0  0  0  0  # atno 10765 bound_to 10752
  141.1543  133.6752  156.6521 H   0  0  0  0  0  0  0  0  0  0  0  0  # atno 11005 bound_to 11000
  144.6881  139.9397  143.7474 LP  0  0  0  0  0  0  0  0  0  0  0  0  # atno 17320 bound_to 7965
  146.0492  139.3495  143.0650 LP  0  0  0  0  0  0  0  0  0  0  0  0  # atno 17321 bound_to 7965
  140.4520  144.1842  150.5898 LP  0  0  0  0  0  0  0  0  0  0  0  0  # atno 17342 bound_to 10162
  140.4575  143.2462  151.9265 LP  0  0  0  0  0  0  0  0  0  0  0  0  # atno 17343 bound_to 10162
  155.9777  130.4059  150.3693 LP  0  0  0  0  0  0  0  0  0  0  0  0  # atno 17370 bound_to 10713
  157.1798  131.0389  151.2754 LP  0  0  0  0  0  0  0  0  0  0  0  0  # atno 17371 bound_to 10713
  140.3312  134.7927  157.4328 LP  0  0  0  0  0  0  0  0  0  0  0  0  # atno 17394 bound_to 11000
  140.1015  134.5466  155.8348 LP  0  0  0  0  0  0  0  0  0  0  0  0  # atno 17395 bound_to 11000

$$$$
