AV-unprocessed.smi:3100|AV-procd|sdf|11807|dock4
  -GOLD-   2272017183D 1   1.00000     0.00000
 Structure written by MMmdl.
 28 29  0  0  0  0  0  0  0  0  1 V2000
  149.7748  144.7435  160.4229 C   0  0  0  0  0  0  0  0  0  0  0  0
  150.5368  144.1945  159.2126 C   0  0  1  0  0  0  0  0  0  0  0  0
  151.8344  144.9304  158.9023 C   0  0  0  0  0  0  0  0  0  0  0  0
  152.6089  143.9094  158.0872 C   0  0  0  0  0  0  0  0  0  0  0  0
  152.0259  142.5507  158.5294 C   0  0  2  0  0  0  0  0  0  0  0  0
  151.4546  141.7168  157.3678 C   0  0  0  0  0  0  0  0  0  0  0  0
  150.5179  142.1644  156.7056 O   0  0  0  0  0  0  0  0  0  0  0  0
  152.0508  140.5327  157.1304 N   0  0  0  0  0  0  0  0  0  0  0  0
  151.7260  139.5661  156.1433 C   0  0  0  0  0  0  0  0  0  0  0  0
  152.3126  138.2902  156.3172 C   0  0  0  0  0  0  0  0  0  0  0  0
  152.0972  137.2657  155.4625 N   0  0  0  0  0  0  0  0  0  0  0  0
  151.2832  137.5147  154.4147 C   0  0  0  0  0  0  0  0  0  0  0  0
  150.6904  138.7791  154.2253 C   0  0  0  0  0  0  0  0  0  0  0  0
  150.9097  139.7988  155.0838 N   0  0  0  0  0  0  0  0  0  0  0  0
  150.9924  142.8737  159.4636 O   0  0  0  0  0  0  0  0  0  0  0  0
  149.4545  145.7711  160.2501 H   0  0  0  0  0  0  0  0  0  0  0  0
  150.3944  144.7318  161.3200 H   0  0  0  0  0  0  0  0  0  0  0  0
  148.8852  144.1468  160.6251 H   0  0  0  0  0  0  0  0  0  0  0  0
  149.8910  144.1869  158.3328 H   0  0  0  0  0  0  0  0  0  0  0  0
  151.6747  145.8687  158.3701 H   0  0  0  0  0  0  0  0  0  0  0  0
  152.3745  145.1503  159.8243 H   0  0  0  0  0  0  0  0  0  0  0  0
  152.4530  144.0983  157.0238 H   0  0  0  0  0  0  0  0  0  0  0  0
  153.6808  143.9763  158.2765 H   0  0  0  0  0  0  0  0  0  0  0  0
  152.7808  141.9547  159.0433 H   0  0  0  0  0  0  0  0  0  0  0  0
  152.8195  140.2943  157.7404 H   0  0  0  0  0  0  0  0  0  0  0  0
  152.9643  138.0857  157.1541 H   0  0  0  0  0  0  0  0  0  0  0  0
  151.1042  136.7032  153.7251 H   0  0  0  0  0  0  0  0  0  0  0  0
  150.0399  138.9727  153.3853 H   0  0  0  0  0  0  0  0  0  0  0  0
  1  2  1  0  0  0  0
  1 16  1  0  0  0  0
  1 17  1  0  0  0  0
  1 18  1  0  0  0  0
  2 15  1  0  0  0  0
  2  3  1  0  0  0  0
  2 19  1  0  0  0  0
  3  4  1  0  0  0  0
  3 20  1  0  0  0  0
  3 21  1  0  0  0  0
  4  5  1  0  0  0  0
  4 22  1  0  0  0  0
  4 23  1  0  0  0  0
  5  6  1  0  0  0  0
  5 15  1  0  0  0  0
  5 24  1  0  0  0  0
  6  7  2  0  0  0  0
  6  8  1  0  0  0  0
  8  9  1  0  0  0  0
  8 25  1  0  0  0  0
  9 14  1  0  0  0  0
  9 10  2  0  0  0  0
 10 11  1  0  0  0  0
 10 26  1  0  0  0  0
 11 12  2  0  0  0  0
 12 13  1  0  0  0  0
 12 27  1  0  0  0  0
 13 14  2  0  0  0  0
 13 28  1  0  0  0  0
M  END
> <s_m_source_file>
AV-unprocessed.smi

> <i_m_source_file_index>
3100

> <i_lp_mmshare_version>
43012

> <i_f3d_flags>
0

> <s_epik_input>
W0NIM11bQ0BASF0xW0NIMl1bQ0gyXVtDQEhdKE8xKUMoPU8pW05IXWMyW2NIXW5bY0hdW2NIXW4y

> <s_epik_cmdline>
J2VwaWtfcHl0aG9uJywgJy1waCcsICc3LjAnLCAnLXRuJywgJzgnLCAnLW1hJywgJzIwMCcsICctbWV0YWxfYmluZGluZycsICctaW1hZScsICc8aW5maWxlLm1hZT4nLCAnLW9tYWUnLCAnPG91dGZpbGUubWFlPic=

> <r_lp_tautomer_probability>
1

> <r_epik_Ionization_Penalty>
2.81186e-06

> <r_epik_Ionization_Penalty_Charging>
0

> <r_epik_Ionization_Penalty_Neutral>
2.81186e-06

> <r_epik_State_Penalty>
-0

> <r_epik_Charging_Adjusted_Penalty>
0

> <i_epik_Tot_Q>
0

> <i_epik_Tot_abs_Q>
0

> <r_epik_Metal_State_Penalty>
-0

> <b_epik_Metal_Only>
0

> <s_lp_Force_Field>
OPLS_2005

> <r_lp_Energy>
25.84

> <b_lp_Chiralities_Consistent>
1

> <s_lp_Variant>
AV-unprocessed.smi:3100-4

> <Gold.Version>
5.8.1

> <Gold.Id.Protein>
6NUR|6NUR_protein|mol2

> <Gold.PLP.Fitness>
39.6365

> <Gold.PLP.PLP>
-29.9208

> <Gold.PLP.part.hbond>
-2.3954

> <Gold.PLP.part.metal>
0.0000

> <Gold.PLP.part.buried>
-5.8418

> <Gold.PLP.part.nonpolar>
-22.3405

> <Gold.PLP.part.repulsive>
0.3403

> <Gold.PLP.ligand.clash>
0.0000

> <Gold.PLP.ligand.torsion>
0.0669

> <Gold.PLP.Chemscore.Hbond>
1.2723

> <Gold.PLP.Chemscore.CHOScore>
2.0086

> <Gold.PLP.Chemscore.Metal>
0.0000

> <Gold.Chemscore.Hbonds>
donor molecule, donor type, donor heavy atom, donor atom, acceptor molecule, acceptor atom, score
      P1  H  7989  7998       L1    14  0.38
      P1  H 10752 10765       L1    11  0.83
      L1  C    12    27       P1  7948  0.01
      L1  C    12    27       P1  7949  1.00
      L1  C    13    28       P1  7957  1.00

> <Gold.PLP.Chemscore.Internal.Correction>
0.0069

> <Gold.Rescore>
     Score         DG    S(hbond)    S(metal)    S(lipo)     H(rot)  DE(clash)    DE(int)     intcor
     12.78     -14.45       0.77        0.00      76.57       1.00       0.35       1.32       ----

> <Gold.Chemscore.Fitness>
12.7783

> <Gold.Chemscore.DG>
-14.4469

> <Gold.Chemscore.ZeroCoef>
-5.4800

> <Gold.Chemscore.Hbond>
0.7689

> <Gold.Chemscore.Metal>
0.0000

> <Gold.Chemscore.Lipo>
76.5711

> <Gold.Chemscore.Internal_Hbond>
0.0000

> <Gold.Chemscore.DEClash>
0.3506

> <Gold.Chemscore.DEInternal>
1.3180

> <Gold.Chemscore.Rot>
1.0000

> <Gold.Chemscore.Internal.Correction>
   9.000000E+99

> <Gold.Chemscore.Hbonds>
donor molecule, donor type, donor heavy atom, donor atom, acceptor molecule, acceptor atom, score
      P1  H  7989  7998       L1    14  0.01
      P1  H 10752 10765       L1    11  0.17

> <Gold.Chemscore.Hbond.Weighted>
-2.5681

> <Gold.Chemscore.Metal.Weighted>
-0.0000

> <Gold.Chemscore.Lipo.Weighted>
-8.9588

> <Gold.Chemscore.Internal_Hbond.Weighted>
0.0000

> <Gold.Chemscore.DEClash.Weighted>
0.3506

> <Gold.Chemscore.DEInternal.Weighted>
1.3180

> <Gold.Chemscore.Rot.Weighted>
2.5600

> <Gold.Chemscore.Internal.Correction.Weighted>
   9.000000E+99

> <Gold.Protein.RotatedTorsions>
[ 6907 6896 6895 6894 ] final -122.23 input  -60.11 | X-H torsion
[ 7974 7965 7964 7962 ] final  -30.35 input  175.53 | X-H torsion
[ 8008 7997 7996 7995 ] final  176.79 input   59.86 | X-H torsion
[ 10167 10162 10161 10158 ] final -105.37 input  -65.29 | X-H torsion
[ 10718 10713 10712 10709 ] final  105.55 input   66.30 | X-H torsion
[ 10763 10752 10751 10750 ] final -168.57 input  -60.55 | X-H torsion
[ 11005 11000 10999 10996 ] final  147.76 input  -57.11 | X-H torsion

> <Gold.Protein.ActiveResidues>
 VAL166  LYS551  ARG553  GLY616  TRP617  ASP618  TYR619  PRO620  LYS621  CYS622 
 ASP623  PHE694  ASN695  SER759  ASP760  ASP761  ALA762  ILE779  LEU786  VAL792 
 PHE793  MET794  SER795  GLU796  ALA797  LYS798  CYS799  TRP800  GLU811  SER814 

> <Gold.Protein.RotatedAtoms>
  150.8557  133.7719  159.3009 H   0  0  0  0  0  0  0  0  0  0  0  0  # atno 6907 bound_to 6896
  151.5377  135.1067  159.9928 H   0  0  0  0  0  0  0  0  0  0  0  0  # atno 6908 bound_to 6896
  152.4587  133.7734  159.6867 H   0  0  0  0  0  0  0  0  0  0  0  0  # atno 6909 bound_to 6896
  146.1150  140.5528  142.8761 H   0  0  0  0  0  0  0  0  0  0  0  0  # atno 7974 bound_to 7965
  156.0726  140.1374  156.9810 H   0  0  0  0  0  0  0  0  0  0  0  0  # atno 8008 bound_to 7997
  154.4540  140.0968  156.6754 H   0  0  0  0  0  0  0  0  0  0  0  0  # atno 8009 bound_to 7997
  155.5203  140.3456  155.4408 H   0  0  0  0  0  0  0  0  0  0  0  0  # atno 8010 bound_to 7997
  140.1993  143.3831  152.1143 H   0  0  0  0  0  0  0  0  0  0  0  0  # atno 10167 bound_to 10162
  157.6701  131.0830  150.5873 H   0  0  0  0  0  0  0  0  0  0  0  0  # atno 10718 bound_to 10713
  154.6615  135.2925  154.9861 H   0  0  0  0  0  0  0  0  0  0  0  0  # atno 10763 bound_to 10752
  154.0919  135.6589  153.4858 H   0  0  0  0  0  0  0  0  0  0  0  0  # atno 10764 bound_to 10752
  153.0432  135.5222  154.7568 H   0  0  0  0  0  0  0  0  0  0  0  0  # atno 10765 bound_to 10752
  140.0903  134.9045  157.1640 H   0  0  0  0  0  0  0  0  0  0  0  0  # atno 11005 bound_to 11000
  144.7545  140.5272  143.6779 LP  0  0  0  0  0  0  0  0  0  0  0  0  # atno 17320 bound_to 7965
  145.5586  139.1478  143.3354 LP  0  0  0  0  0  0  0  0  0  0  0  0  # atno 17321 bound_to 7965
  139.5224  144.7058  151.5359 LP  0  0  0  0  0  0  0  0  0  0  0  0  # atno 17342 bound_to 10162
  140.6402  143.8905  150.6684 LP  0  0  0  0  0  0  0  0  0  0  0  0  # atno 17343 bound_to 10162
  156.6173  130.4396  149.5835 LP  0  0  0  0  0  0  0  0  0  0  0  0  # atno 17370 bound_to 10713
  156.2383  130.6836  151.1531 LP  0  0  0  0  0  0  0  0  0  0  0  0  # atno 17371 bound_to 10713
  140.3362  134.2755  155.7219 LP  0  0  0  0  0  0  0  0  0  0  0  0  # atno 17394 bound_to 11000
  141.2076  133.7802  157.0111 LP  0  0  0  0  0  0  0  0  0  0  0  0  # atno 17395 bound_to 11000

$$$$
