AV-unprocessed.smi:1152|AV-procd|sdf|4898|dock7
  -GOLD-   22720 3473D 1   1.00000     0.00000
 Structure written by MMmdl.
 31 32  0  0  0  0  0  0  0  0  2 V2000
  145.8694  138.0676  152.7533 C   0  0  0  0  0  0  0  0  0  0  0  0
  147.2389  138.1303  153.2427 N   0  0  0  0  0  0  0  0  0  0  0  0
  147.6628  138.9085  154.2477 C   0  0  0  0  0  0  0  0  0  0  0  0
  146.8564  139.6409  154.8245 O   0  0  0  0  0  0  0  0  0  0  0  0
  148.9896  138.7747  154.5035 N   0  5  0  0  0  0  0  0  0  0  0  0
  149.7331  139.6156  155.2576 C   0  0  0  0  0  0  0  0  0  0  0  0
  150.9923  140.0157  155.0015 N   0  0  0  0  0  0  0  0  0  0  0  0
  151.5042  140.8835  155.9528 N   0  0  0  0  0  0  0  0  0  0  0  0
  150.6271  141.1367  156.9266 C   0  0  0  0  0  0  0  0  0  0  0  0
  150.9230  142.0428  158.0808 C   0  0  0  0  0  0  0  0  0  0  0  0
  151.0056  143.5241  157.6634 C   0  0  0  0  0  0  0  0  0  0  0  0
  151.2679  144.4339  158.8748 C   0  0  0  0  0  0  0  0  0  0  0  0
  152.5221  143.9914  159.6457 C   0  0  0  0  0  0  0  0  0  0  0  0
  152.4171  142.5211  160.0822 C   0  0  0  0  0  0  0  0  0  0  0  0
  152.1632  141.5973  158.8796 C   0  0  0  0  0  0  0  0  0  0  0  0
  149.0876  140.3148  156.7423 S   0  0  0  0  0  0  0  0  0  0  0  0
  145.8016  137.3558  151.9310 H   0  0  0  0  0  0  0  0  0  0  0  0
  145.5428  139.0425  152.3891 H   0  0  0  0  0  0  0  0  0  0  0  0
  145.1901  137.7437  153.5427 H   0  0  0  0  0  0  0  0  0  0  0  0
  147.9198  137.5404  152.7873 H   0  0  0  0  0  0  0  0  0  0  0  0
  150.0708  141.9576  158.7568 H   0  0  0  0  0  0  0  0  0  0  0  0
  151.8035  143.6577  156.9316 H   0  0  0  0  0  0  0  0  0  0  0  0
  150.0804  143.8261  157.1714 H   0  0  0  0  0  0  0  0  0  0  0  0
  151.3789  145.4672  158.5452 H   0  0  0  0  0  0  0  0  0  0  0  0
  150.4043  144.4135  159.5409 H   0  0  0  0  0  0  0  0  0  0  0  0
  153.4036  144.1243  159.0172 H   0  0  0  0  0  0  0  0  0  0  0  0
  152.6655  144.6286  160.5188 H   0  0  0  0  0  0  0  0  0  0  0  0
  153.3304  142.2191  160.5954 H   0  0  0  0  0  0  0  0  0  0  0  0
  151.6067  142.4120  160.8042 H   0  0  0  0  0  0  0  0  0  0  0  0
  152.0361  140.5710  159.2260 H   0  0  0  0  0  0  0  0  0  0  0  0
  153.0405  141.5988  158.2311 H   0  0  0  0  0  0  0  0  0  0  0  0
  1  2  1  0  0  0  0
  1 17  1  0  0  0  0
  1 18  1  0  0  0  0
  1 19  1  0  0  0  0
  2  3  1  0  0  0  0
  2 20  1  0  0  0  0
  3  4  2  0  0  0  0
  3  5  1  0  0  0  0
  5  6  1  0  0  0  0
  6 16  1  0  0  0  0
  6  7  2  0  0  0  0
  7  8  1  0  0  0  0
  8  9  2  0  0  0  0
  9 10  1  0  0  0  0
  9 16  1  0  0  0  0
 10 15  1  0  0  0  0
 10 11  1  0  0  0  0
 10 21  1  0  0  0  0
 11 12  1  0  0  0  0
 11 22  1  0  0  0  0
 11 23  1  0  0  0  0
 12 13  1  0  0  0  0
 12 24  1  0  0  0  0
 12 25  1  0  0  0  0
 13 14  1  0  0  0  0
 13 26  1  0  0  0  0
 13 27  1  0  0  0  0
 14 15  1  0  0  0  0
 14 28  1  0  0  0  0
 14 29  1  0  0  0  0
 15 30  1  0  0  0  0
 15 31  1  0  0  0  0
M  CHG  1   5  -1
M  END
> <s_m_source_file>
AV-unprocessed.smi

> <i_m_source_file_index>
1152

> <i_lp_mmshare_version>
43012

> <i_f3d_flags>
0

> <s_epik_input>
W0NIM11bTkhdQyg9TylbTkhdYzFubmMoczEpW0NIXTJbQ0gyXVtDSDJdW0NIMl1bQ0gyXVtDSDJdMg==

> <s_epik_cmdline>
J2VwaWtfcHl0aG9uJywgJy1waCcsICc3LjAnLCAnLXRuJywgJzgnLCAnLW1hJywgJzIwMCcsICctbWV0YWxfYmluZGluZycsICctaW1hZScsICc8aW5maWxlLm1hZT4nLCAnLW9tYWUnLCAnPG91dGZpbGUubWFlPic=

> <r_lp_tautomer_probability>
1

> <r_epik_Ionization_Penalty>
4.62071

> <r_epik_Ionization_Penalty_Charging>
4.36597

> <r_epik_Ionization_Penalty_Neutral>
0.254736

> <r_epik_State_Penalty>
4.3656

> <r_epik_Charging_Adjusted_Penalty>
8.73157

> <i_epik_Tot_Q>
-1

> <i_epik_Tot_abs_Q>
1

> <r_epik_Metal_State_Penalty>
0.756176

> <b_epik_Metal_Only>
1

> <s_lp_Force_Field>
OPLS_2005

> <r_lp_Energy>
5.71757

> <b_lp_Chiralities_Consistent>
1

> <s_lp_Variant>
AV-unprocessed.smi:1152-2

> <Gold.Version>
5.8.1

> <Gold.Id.Protein>
6NUR|6NUR_protein|mol2

> <Gold.PLP.Fitness>
38.2929

> <Gold.PLP.PLP>
-33.1444

> <Gold.PLP.part.hbond>
-3.5139

> <Gold.PLP.part.metal>
0.0000

> <Gold.PLP.part.buried>
-2.1765

> <Gold.PLP.part.nonpolar>
-28.4766

> <Gold.PLP.part.repulsive>
0.4431

> <Gold.PLP.ligand.clash>
0.0000

> <Gold.PLP.ligand.torsion>
0.4566

> <Gold.PLP.Chemscore.Hbond>
2.0000

> <Gold.PLP.Chemscore.CHOScore>
0.0000

> <Gold.PLP.Chemscore.Metal>
0.0000

> <Gold.Chemscore.Hbonds>
donor molecule, donor type, donor heavy atom, donor atom, acceptor molecule, acceptor atom, score
      L1  H     2    20       P1  7948  1.00
      P1  H  7989  7998       L1     7  0.90

> <Gold.PLP.Chemscore.Internal.Correction>
0.0617

> <Gold.Rescore>
     Score         DG    S(hbond)    S(metal)    S(lipo)     H(rot)  DE(clash)    DE(int)     intcor
     15.96     -16.76       1.12        0.00      86.43       1.00       0.25       0.54       ----

> <Gold.Chemscore.Fitness>
15.9642

> <Gold.Chemscore.DG>
-16.7582

> <Gold.Chemscore.ZeroCoef>
-5.4800

> <Gold.Chemscore.Hbond>
1.1156

> <Gold.Chemscore.Metal>
0.0000

> <Gold.Chemscore.Lipo>
86.4276

> <Gold.Chemscore.Internal_Hbond>
0.0000

> <Gold.Chemscore.DEClash>
0.2539

> <Gold.Chemscore.DEInternal>
0.5401

> <Gold.Chemscore.Rot>
1.0000

> <Gold.Chemscore.Internal.Correction>
   9.000000E+99

> <Gold.Chemscore.Hbonds>
donor molecule, donor type, donor heavy atom, donor atom, acceptor molecule, acceptor atom, score
      L1  H     2    20       P1  7948  1.00
      P1  H  7989  7998       L1     7  0.18

> <Gold.Chemscore.Hbond.Weighted>
-3.7262

> <Gold.Chemscore.Metal.Weighted>
-0.0000

> <Gold.Chemscore.Lipo.Weighted>
-10.1120

> <Gold.Chemscore.Internal_Hbond.Weighted>
0.0000

> <Gold.Chemscore.DEClash.Weighted>
0.2539

> <Gold.Chemscore.DEInternal.Weighted>
0.5401

> <Gold.Chemscore.Rot.Weighted>
2.5600

> <Gold.Chemscore.Internal.Correction.Weighted>
   9.000000E+99

> <Gold.Protein.RotatedTorsions>
[ 6907 6896 6895 6894 ] final -147.16 input  -60.11 | X-H torsion
[ 7974 7965 7964 7962 ] final  104.46 input  175.53 | X-H torsion
[ 8008 7997 7996 7995 ] final -117.02 input   59.86 | X-H torsion
[ 10167 10162 10161 10158 ] final  112.79 input  -65.29 | X-H torsion
[ 10718 10713 10712 10709 ] final   -3.66 input   66.30 | X-H torsion
[ 10763 10752 10751 10750 ] final   69.18 input  -60.55 | X-H torsion
[ 11005 11000 10999 10996 ] final   40.48 input  -57.11 | X-H torsion

> <Gold.Protein.ActiveResidues>
 VAL166  LYS551  ARG553  GLY616  TRP617  ASP618  TYR619  PRO620  LYS621  CYS622 
 ASP623  PHE694  ASN695  SER759  ASP760  ASP761  ALA762  ILE779  LEU786  VAL792 
 PHE793  MET794  SER795  GLU796  ALA797  LYS798  CYS799  TRP800  GLU811  SER814 

> <Gold.Protein.RotatedAtoms>
  151.1518  133.4902  159.2594 H   0  0  0  0  0  0  0  0  0  0  0  0  # atno 6907 bound_to 6896
  151.1546  135.0243  159.8693 H   0  0  0  0  0  0  0  0  0  0  0  0  # atno 6908 bound_to 6896
  152.5463  134.1399  159.8527 H   0  0  0  0  0  0  0  0  0  0  0  0  # atno 6909 bound_to 6896
  145.3325  139.2483  143.3653 H   0  0  0  0  0  0  0  0  0  0  0  0  # atno 7974 bound_to 7965
  155.0771  140.0394  157.2627 H   0  0  0  0  0  0  0  0  0  0  0  0  # atno 8008 bound_to 7997
  154.6936  140.2658  155.6763 H   0  0  0  0  0  0  0  0  0  0  0  0  # atno 8009 bound_to 7997
  156.2737  140.2754  156.1523 H   0  0  0  0  0  0  0  0  0  0  0  0  # atno 8010 bound_to 7997
  139.6509  144.7128  151.2049 H   0  0  0  0  0  0  0  0  0  0  0  0  # atno 10167 bound_to 10162
  156.7727  130.5305  149.5764 H   0  0  0  0  0  0  0  0  0  0  0  0  # atno 10718 bound_to 10713
  153.0273  135.5220  154.7249 H   0  0  0  0  0  0  0  0  0  0  0  0  # atno 10763 bound_to 10752
  154.6293  135.2898  155.0237 H   0  0  0  0  0  0  0  0  0  0  0  0  # atno 10764 bound_to 10752
  154.1195  135.6610  153.4953 H   0  0  0  0  0  0  0  0  0  0  0  0  # atno 10765 bound_to 10752
  140.1927  134.3967  155.8138 H   0  0  0  0  0  0  0  0  0  0  0  0  # atno 11005 bound_to 11000
  146.3040  140.3905  142.8694 LP  0  0  0  0  0  0  0  0  0  0  0  0  # atno 17320 bound_to 7965
  144.8853  140.7454  143.5961 LP  0  0  0  0  0  0  0  0  0  0  0  0  # atno 17321 bound_to 7965
  140.7537  143.6151  150.8567 LP  0  0  0  0  0  0  0  0  0  0  0  0  # atno 17342 bound_to 10162
  139.9799  143.5963  152.2946 LP  0  0  0  0  0  0  0  0  0  0  0  0  # atno 17343 bound_to 10162
  156.1267  130.6149  151.0274 LP  0  0  0  0  0  0  0  0  0  0  0  0  # atno 17370 bound_to 10713
  157.6683  131.0867  150.7674 LP  0  0  0  0  0  0  0  0  0  0  0  0  # atno 17371 bound_to 10713
  141.2226  133.7054  156.8122 LP  0  0  0  0  0  0  0  0  0  0  0  0  # atno 17394 bound_to 11000
  140.2142  134.8805  157.3307 LP  0  0  0  0  0  0  0  0  0  0  0  0  # atno 17395 bound_to 11000

$$$$
