AV-unprocessed.smi:2970|AV-procd|sdf|11331|dock10
  -GOLD-   2272016243D 1   1.00000     0.00000
 Structure written by MMmdl.
 38 39  0  0  0  0  0  0  0  0  1 V2000
  152.7397  138.6044  155.0388 C   0  0  0  0  0  0  0  0  0  0  0  0
  151.2214  138.5627  155.0573 C   0  0  0  0  0  0  0  0  0  0  0  0
  150.4272  138.6539  153.9855 C   0  0  0  0  0  0  0  0  0  0  0  0
  148.7302  138.6055  154.3961 S   0  0  0  0  0  0  0  0  0  0  0  0
  149.1475  138.4573  156.1410 C   0  0  0  0  0  0  0  0  0  0  0  0
  148.2969  138.3779  157.0258 O   0  0  0  0  0  0  0  0  0  0  0  0
  150.5357  138.4477  156.2749 N   0  0  0  0  0  0  0  0  0  0  0  0
  151.2078  138.3254  157.5754 C   0  0  0  0  0  0  0  0  0  0  0  0
  152.1032  139.5251  157.9130 C   0  0  0  0  0  0  0  0  0  0  0  0
  153.2890  139.5484  157.5792 O   0  0  0  0  0  0  0  0  0  0  0  0
  151.5123  140.5190  158.5942 N   0  0  0  0  0  0  0  0  0  0  0  0
  152.1602  141.7549  159.0274 C   0  0  0  0  0  0  0  0  0  0  0  0
  152.4192  141.6908  160.5476 C   0  0  0  0  0  0  0  0  0  0  0  0
  153.0663  142.9464  161.1570 C   0  0  0  0  0  0  0  0  0  0  0  0
  152.0835  144.1212  161.2833 C   0  0  0  0  0  0  0  0  0  0  0  0
  151.9526  145.0103  160.0343 C   0  0  0  0  0  0  0  0  0  0  0  0
  152.0246  144.2994  158.6717 C   0  0  0  0  0  0  0  0  0  0  0  0
  151.2906  142.9504  158.5857 C   0  0  0  0  0  0  0  0  0  0  0  0
  153.0955  139.0089  154.0909 H   0  0  0  0  0  0  0  0  0  0  0  0
  153.1479  137.6002  155.1532 H   0  0  0  0  0  0  0  0  0  0  0  0
  153.1361  139.2380  155.8323 H   0  0  0  0  0  0  0  0  0  0  0  0
  150.7466  138.7594  152.9593 H   0  0  0  0  0  0  0  0  0  0  0  0
  150.4587  138.2268  158.3628 H   0  0  0  0  0  0  0  0  0  0  0  0
  151.7955  137.4086  157.6221 H   0  0  0  0  0  0  0  0  0  0  0  0
  150.5355  140.4141  158.8282 H   0  0  0  0  0  0  0  0  0  0  0  0
  153.1204  141.8322  158.5136 H   0  0  0  0  0  0  0  0  0  0  0  0
  151.4900  141.4688  161.0741 H   0  0  0  0  0  0  0  0  0  0  0  0
  153.0774  140.8449  160.7504 H   0  0  0  0  0  0  0  0  0  0  0  0
  153.4057  142.6860  162.1602 H   0  0  0  0  0  0  0  0  0  0  0  0
  153.9623  143.2367  160.6071 H   0  0  0  0  0  0  0  0  0  0  0  0
  151.1009  143.7413  161.5659 H   0  0  0  0  0  0  0  0  0  0  0  0
  152.3935  144.7554  162.1146 H   0  0  0  0  0  0  0  0  0  0  0  0
  151.0115  145.5571  160.1038 H   0  0  0  0  0  0  0  0  0  0  0  0
  152.7333  145.7715  160.0569 H   0  0  0  0  0  0  0  0  0  0  0  0
  151.6089  144.9748  157.9231 H   0  0  0  0  0  0  0  0  0  0  0  0
  153.0677  144.1643  158.3835 H   0  0  0  0  0  0  0  0  0  0  0  0
  151.0122  142.7988  157.5416 H   0  0  0  0  0  0  0  0  0  0  0  0
  150.3523  142.9832  159.1413 H   0  0  0  0  0  0  0  0  0  0  0  0
  1  2  1  0  0  0  0
  1 19  1  0  0  0  0
  1 20  1  0  0  0  0
  1 21  1  0  0  0  0
  2  7  1  0  0  0  0
  2  3  2  0  0  0  0
  3  4  1  0  0  0  0
  3 22  1  0  0  0  0
  4  5  1  0  0  0  0
  5  6  2  0  0  0  0
  5  7  1  0  0  0  0
  7  8  1  0  0  0  0
  8  9  1  0  0  0  0
  8 23  1  0  0  0  0
  8 24  1  0  0  0  0
  9 10  2  0  0  0  0
  9 11  1  0  0  0  0
 11 12  1  0  0  0  0
 11 25  1  0  0  0  0
 12 18  1  0  0  0  0
 12 13  1  0  0  0  0
 12 26  1  0  0  0  0
 13 14  1  0  0  0  0
 13 27  1  0  0  0  0
 13 28  1  0  0  0  0
 14 15  1  0  0  0  0
 14 29  1  0  0  0  0
 14 30  1  0  0  0  0
 15 16  1  0  0  0  0
 15 31  1  0  0  0  0
 15 32  1  0  0  0  0
 16 17  1  0  0  0  0
 16 33  1  0  0  0  0
 16 34  1  0  0  0  0
 17 18  1  0  0  0  0
 17 35  1  0  0  0  0
 17 36  1  0  0  0  0
 18 37  1  0  0  0  0
 18 38  1  0  0  0  0
M  END
> <s_m_source_file>
AV-unprocessed.smi

> <i_m_source_file_index>
2970

> <i_lp_mmshare_version>
43012

> <i_f3d_flags>
0

> <s_epik_input>
W0NIM11jMVtjSF1zYyg9TyluMVtDSDJdQyg9TylbTkhdW0NIXTJbQ0gyXVtDSDJdW0NIMl1bQ0gyXVtDSDJdW0NIMl0y

> <s_epik_cmdline>
J2VwaWtfcHl0aG9uJywgJy1waCcsICc3LjAnLCAnLXRuJywgJzgnLCAnLW1hJywgJzIwMCcsICctbWV0YWxfYmluZGluZycsICctaW1hZScsICc8aW5maWxlLm1hZT4nLCAnLW9tYWUnLCAnPG91dGZpbGUubWFlPic=

> <r_lp_tautomer_probability>
1

> <r_epik_Ionization_Penalty>
1.32564e-06

> <r_epik_Ionization_Penalty_Charging>
1.22505e-06

> <r_epik_Ionization_Penalty_Neutral>
1.00582e-07

> <r_epik_State_Penalty>
-0

> <r_epik_Charging_Adjusted_Penalty>
1.22505e-06

> <i_epik_Tot_Q>
0

> <i_epik_Tot_abs_Q>
0

> <r_epik_Metal_State_Penalty>
-0

> <b_epik_Metal_Only>
0

> <s_lp_Force_Field>
OPLS_2005

> <r_lp_Energy>
18.3304

> <b_lp_Chiralities_Consistent>
1

> <s_lp_Variant>
AV-unprocessed.smi:2970-1

> <Gold.Version>
5.8.1

> <Gold.Id.Protein>
6NUR|6NUR_protein|mol2

> <Gold.PLP.Fitness>
40.7039

> <Gold.PLP.PLP>
-35.7031

> <Gold.PLP.part.hbond>
-0.7622

> <Gold.PLP.part.metal>
0.0000

> <Gold.PLP.part.buried>
-4.1912

> <Gold.PLP.part.nonpolar>
-31.1217

> <Gold.PLP.part.repulsive>
0.1410

> <Gold.PLP.ligand.clash>
0.0000

> <Gold.PLP.ligand.torsion>
0.5077

> <Gold.PLP.Chemscore.Hbond>
1.0000

> <Gold.PLP.Chemscore.CHOScore>
1.0000

> <Gold.PLP.Chemscore.Metal>
0.0000

> <Gold.Chemscore.Hbonds>
donor molecule, donor type, donor heavy atom, donor atom, acceptor molecule, acceptor atom, score
      P1  H  7997  8009       L1    10  0.98
      L1  C     3    22       P1  7957  0.91

> <Gold.PLP.Chemscore.Internal.Correction>
0.0161

> <Gold.Rescore>
     Score         DG    S(hbond)    S(metal)    S(lipo)     H(rot)  DE(clash)    DE(int)     intcor
     16.46     -18.09       0.95        0.00     111.07       1.40       0.00       1.63       ----

> <Gold.Chemscore.Fitness>
16.4613

> <Gold.Chemscore.DG>
-18.0874

> <Gold.Chemscore.ZeroCoef>
-5.4800

> <Gold.Chemscore.Hbond>
0.9544

> <Gold.Chemscore.Metal>
0.0000

> <Gold.Chemscore.Lipo>
111.0738

> <Gold.Chemscore.Internal_Hbond>
0.0000

> <Gold.Chemscore.DEClash>
0.0008

> <Gold.Chemscore.DEInternal>
1.6252

> <Gold.Chemscore.Rot>
1.3969

> <Gold.Chemscore.Internal.Correction>
   9.000000E+99

> <Gold.Chemscore.Hbonds>
donor molecule, donor type, donor heavy atom, donor atom, acceptor molecule, acceptor atom, score
      P1  H  7997  8009       L1    10  0.90

> <Gold.Chemscore.Hbond.Weighted>
-3.1878

> <Gold.Chemscore.Metal.Weighted>
-0.0000

> <Gold.Chemscore.Lipo.Weighted>
-12.9956

> <Gold.Chemscore.Internal_Hbond.Weighted>
0.0000

> <Gold.Chemscore.DEClash.Weighted>
0.0008

> <Gold.Chemscore.DEInternal.Weighted>
1.6252

> <Gold.Chemscore.Rot.Weighted>
3.5761

> <Gold.Chemscore.Internal.Correction.Weighted>
   9.000000E+99

> <Gold.Protein.RotatedTorsions>
[ 6907 6896 6895 6894 ] final -148.42 input  -60.11 | X-H torsion
[ 7974 7965 7964 7962 ] final -135.04 input  175.53 | X-H torsion
[ 8008 7997 7996 7995 ] final -175.69 input   59.86 | X-H torsion
[ 10167 10162 10161 10158 ] final -149.16 input  -65.29 | X-H torsion
[ 10718 10713 10712 10709 ] final   36.73 input   66.30 | X-H torsion
[ 10763 10752 10751 10750 ] final -168.11 input  -60.55 | X-H torsion
[ 11005 11000 10999 10996 ] final   95.68 input  -57.11 | X-H torsion

> <Gold.Protein.ActiveResidues>
 VAL166  LYS551  ARG553  GLY616  TRP617  ASP618  TYR619  PRO620  LYS621  CYS622 
 ASP623  PHE694  ASN695  SER759  ASP760  ASP761  ALA762  ILE779  LEU786  VAL792 
 PHE793  MET794  SER795  GLU796  ALA797  LYS798  CYS799  TRP800  GLU811  SER814 

> <Gold.Protein.RotatedAtoms>
  151.1695  133.4793  159.2593 H   0  0  0  0  0  0  0  0  0  0  0  0  # atno 6907 bound_to 6896
  151.1370  135.0160  159.8618 H   0  0  0  0  0  0  0  0  0  0  0  0  # atno 6908 bound_to 6896
  152.5461  134.1593  159.8604 H   0  0  0  0  0  0  0  0  0  0  0  0  # atno 6909 bound_to 6896
  144.9049  140.6819  143.5062 H   0  0  0  0  0  0  0  0  0  0  0  0  # atno 7974 bound_to 7965
  155.9857  140.1190  157.0685 H   0  0  0  0  0  0  0  0  0  0  0  0  # atno 8008 bound_to 7997
  154.4196  140.1135  156.5564 H   0  0  0  0  0  0  0  0  0  0  0  0  # atno 8009 bound_to 7997
  155.6411  140.3473  155.4717 H   0  0  0  0  0  0  0  0  0  0  0  0  # atno 8010 bound_to 7997
  139.7467  143.8579  152.2576 H   0  0  0  0  0  0  0  0  0  0  0  0  # atno 10167 bound_to 10162
  157.3384  130.7535  149.6895 H   0  0  0  0  0  0  0  0  0  0  0  0  # atno 10718 bound_to 10713
  154.6662  135.2932  154.9802 H   0  0  0  0  0  0  0  0  0  0  0  0  # atno 10763 bound_to 10752
  154.0845  135.6600  153.4847 H   0  0  0  0  0  0  0  0  0  0  0  0  # atno 10764 bound_to 10752
  153.0459  135.5205  154.7636 H   0  0  0  0  0  0  0  0  0  0  0  0  # atno 10765 bound_to 10752
  139.8787  134.8911  156.4046 H   0  0  0  0  0  0  0  0  0  0  0  0  # atno 11005 bound_to 11000
  145.3553  139.1695  143.4412 LP  0  0  0  0  0  0  0  0  0  0  0  0  # atno 17320 bound_to 7965
  146.3128  140.3610  142.8665 LP  0  0  0  0  0  0  0  0  0  0  0  0  # atno 17321 bound_to 7965
  139.8546  144.7148  150.9173 LP  0  0  0  0  0  0  0  0  0  0  0  0  # atno 17342 bound_to 10162
  140.7793  143.3870  151.1376 LP  0  0  0  0  0  0  0  0  0  0  0  0  # atno 17343 bound_to 10162
  155.9704  130.4175  150.4281 LP  0  0  0  0  0  0  0  0  0  0  0  0  # atno 17370 bound_to 10713
  157.2325  131.0507  151.2484 LP  0  0  0  0  0  0  0  0  0  0  0  0  # atno 17371 bound_to 10713
  140.9243  133.7623  155.9945 LP  0  0  0  0  0  0  0  0  0  0  0  0  # atno 17394 bound_to 11000
  140.8404  134.3073  157.5315 LP  0  0  0  0  0  0  0  0  0  0  0  0  # atno 17395 bound_to 11000

$$$$
