AV-unprocessed.smi:2156|AV-procd|sdf|8782|dock1
  -GOLD-   2272011563D 1   1.00000     0.00000
 Structure written by MMmdl.
 33 33  0  0  0  0  0  0  0  0  2 V2000
  153.6200  142.1849  162.0595 C   0  0  0  0  0  0  0  0  0  0  0  0
  152.7382  143.1802  161.2980 C   0  0  0  0  0  0  0  0  0  0  0  0
  152.4742  142.7427  159.8459 C   0  0  0  0  0  0  0  0  0  0  0  0
  151.5896  143.7225  159.0511 C   0  0  1  0  0  0  0  0  0  0  0  0
  152.2215  145.1216  158.9776 C   0  0  0  0  0  0  0  0  0  0  0  0
  151.3566  143.2021  157.7079 N   0  0  0  0  0  0  0  0  0  0  0  0
  150.5666  142.1643  157.3850 C   0  0  0  0  0  0  0  0  0  0  0  0
  149.8930  141.5540  158.2147 O   0  0  0  0  0  0  0  0  0  0  0  0
  150.5146  141.7292  155.9099 C   0  0  0  0  0  0  0  0  0  0  0  0
  150.7611  140.2931  155.6812 N   0  0  0  0  0  0  0  0  0  0  0  0
  149.9217  139.6252  154.7721 C   0  0  0  0  0  0  0  0  0  0  0  0
  150.0824  138.3196  154.4840 C   0  0  0  0  0  0  0  0  0  0  0  0
  151.1623  137.5951  155.1425 C   0  0  0  0  0  0  0  0  0  0  0  0
  151.3254  136.4032  154.8894 O   0  0  0  0  0  0  0  0  0  0  0  0
  151.9495  138.2869  156.0175 N   0  5  0  0  0  0  0  0  0  0  0  0
  151.7751  139.6149  156.3004 C   0  0  0  0  0  0  0  0  0  0  0  0
  152.5037  140.2227  157.0849 O   0  0  0  0  0  0  0  0  0  0  0  0
  153.7891  142.5206  163.0830 H   0  0  0  0  0  0  0  0  0  0  0  0
  154.5930  142.0733  161.5804 H   0  0  0  0  0  0  0  0  0  0  0  0
  153.1526  141.2009  162.1058 H   0  0  0  0  0  0  0  0  0  0  0  0
  151.7954  143.2941  161.8342 H   0  0  0  0  0  0  0  0  0  0  0  0
  153.2156  144.1608  161.3034 H   0  0  0  0  0  0  0  0  0  0  0  0
  153.4298  142.6326  159.3319 H   0  0  0  0  0  0  0  0  0  0  0  0
  152.0143  141.7534  159.8458 H   0  0  0  0  0  0  0  0  0  0  0  0
  150.6320  143.8050  159.5684 H   0  0  0  0  0  0  0  0  0  0  0  0
  152.3785  145.5325  159.9751 H   0  0  0  0  0  0  0  0  0  0  0  0
  151.5817  145.8180  158.4348 H   0  0  0  0  0  0  0  0  0  0  0  0
  153.1878  145.0949  158.4730 H   0  0  0  0  0  0  0  0  0  0  0  0
  151.8748  143.6388  156.9589 H   0  0  0  0  0  0  0  0  0  0  0  0
  149.5448  142.0138  155.4983 H   0  0  0  0  0  0  0  0  0  0  0  0
  151.2411  142.3264  155.3572 H   0  0  0  0  0  0  0  0  0  0  0  0
  149.1516  140.2352  154.3233 H   0  0  0  0  0  0  0  0  0  0  0  0
  149.4306  137.8218  153.7812 H   0  0  0  0  0  0  0  0  0  0  0  0
  1  2  1  0  0  0  0
  1 18  1  0  0  0  0
  1 19  1  0  0  0  0
  1 20  1  0  0  0  0
  2  3  1  0  0  0  0
  2 21  1  0  0  0  0
  2 22  1  0  0  0  0
  3  4  1  0  0  0  0
  3 23  1  0  0  0  0
  3 24  1  0  0  0  0
  4  5  1  0  0  0  0
  4  6  1  0  0  0  0
  4 25  1  0  0  0  0
  5 26  1  0  0  0  0
  5 27  1  0  0  0  0
  5 28  1  0  0  0  0
  6  7  1  0  0  0  0
  6 29  1  0  0  0  0
  7  8  2  0  0  0  0
  7  9  1  0  0  0  0
  9 10  1  0  0  0  0
  9 30  1  0  0  0  0
  9 31  1  0  0  0  0
 10 16  1  0  0  0  0
 10 11  1  0  0  0  0
 11 12  2  0  0  0  0
 11 32  1  0  0  0  0
 12 13  1  0  0  0  0
 12 33  1  0  0  0  0
 13 14  2  0  0  0  0
 13 15  1  0  0  0  0
 15 16  1  0  0  0  0
 16 17  2  0  0  0  0
M  CHG  1  15  -1
M  END
> <s_m_source_file>
AV-unprocessed.smi

> <i_m_source_file_index>
2156

> <i_lp_mmshare_version>
43012

> <i_f3d_flags>
0

> <s_epik_input>
W0NIM11bQ0gyXVtDSDJdW0NASF0oW0NIM10pW05IXUMoPU8pW0NIMl1uMVtjSF1bY0hdYyg9TylbbkhdYzE9Tw==

> <s_epik_cmdline>
J2VwaWtfcHl0aG9uJywgJy1waCcsICc3LjAnLCAnLXRuJywgJzgnLCAnLW1hJywgJzIwMCcsICctbWV0YWxfYmluZGluZycsICctaW1hZScsICc8aW5maWxlLm1hZT4nLCAnLW9tYWUnLCAnPG91dGZpbGUubWFlPic=

> <r_lp_tautomer_probability>
0.999537

> <r_epik_Ionization_Penalty>
3.08607

> <r_epik_Ionization_Penalty_Charging>
2.78879e-08

> <r_epik_Ionization_Penalty_Neutral>
3.08607

> <r_epik_State_Penalty>
3.08511

> <r_epik_Charging_Adjusted_Penalty>
3.08511

> <i_epik_Tot_Q>
-1

> <i_epik_Tot_abs_Q>
1

> <r_epik_Metal_State_Penalty>
0.460479

> <b_epik_Metal_Only>
1

> <s_lp_Force_Field>
OPLS_2005

> <r_lp_Energy>
11.6756

> <b_lp_Chiralities_Consistent>
1

> <s_lp_Variant>
AV-unprocessed.smi:2156-4

> <Gold.Version>
5.8.1

> <Gold.Id.Protein>
6NUR|6NUR_protein|mol2

> <Gold.PLP.Fitness>
45.6974

> <Gold.PLP.PLP>
-40.4799

> <Gold.PLP.part.hbond>
-2.0000

> <Gold.PLP.part.metal>
0.0000

> <Gold.PLP.part.buried>
-4.2204

> <Gold.PLP.part.nonpolar>
-34.4267

> <Gold.PLP.part.repulsive>
0.2029

> <Gold.PLP.ligand.clash>
0.0000

> <Gold.PLP.ligand.torsion>
0.4350

> <Gold.PLP.Chemscore.Hbond>
2.0000

> <Gold.PLP.Chemscore.CHOScore>
0.0000

> <Gold.PLP.Chemscore.Metal>
0.0000

> <Gold.Chemscore.Hbonds>
donor molecule, donor type, donor heavy atom, donor atom, acceptor molecule, acceptor atom, score
      P1  H  7997  8009       L1    17  1.00
      P1  H 10752 10765       L1    14  1.00

> <Gold.PLP.Chemscore.Internal.Correction>
0.0875

> <Gold.Rescore>
     Score         DG    S(hbond)    S(metal)    S(lipo)     H(rot)  DE(clash)    DE(int)     intcor
     14.15     -15.84       1.95        0.00      79.76       2.14       0.02       1.67       ----

> <Gold.Chemscore.Fitness>
14.1526

> <Gold.Chemscore.DG>
-15.8424

> <Gold.Chemscore.ZeroCoef>
-5.4800

> <Gold.Chemscore.Hbond>
1.9466

> <Gold.Chemscore.Metal>
0.0000

> <Gold.Chemscore.Lipo>
79.7611

> <Gold.Chemscore.Internal_Hbond>
0.0000

> <Gold.Chemscore.DEClash>
0.0195

> <Gold.Chemscore.DEInternal>
1.6703

> <Gold.Chemscore.Rot>
2.1372

> <Gold.Chemscore.Internal.Correction>
   9.000000E+99

> <Gold.Chemscore.Hbonds>
donor molecule, donor type, donor heavy atom, donor atom, acceptor molecule, acceptor atom, score
      P1  H  7997  8009       L1    17  0.86
      P1  H 10752 10765       L1    14  1.00

> <Gold.Chemscore.Hbond.Weighted>
-6.5017

> <Gold.Chemscore.Metal.Weighted>
-0.0000

> <Gold.Chemscore.Lipo.Weighted>
-9.3320

> <Gold.Chemscore.Internal_Hbond.Weighted>
0.0000

> <Gold.Chemscore.DEClash.Weighted>
0.0195

> <Gold.Chemscore.DEInternal.Weighted>
1.6703

> <Gold.Chemscore.Rot.Weighted>
5.4713

> <Gold.Chemscore.Internal.Correction.Weighted>
   9.000000E+99

> <Gold.Protein.RotatedTorsions>
[ 6907 6896 6895 6894 ] final  -74.38 input  -60.11 | X-H torsion
[ 7974 7965 7964 7962 ] final   14.68 input  175.53 | X-H torsion
[ 8008 7997 7996 7995 ] final  176.65 input   59.86 | X-H torsion
[ 10167 10162 10161 10158 ] final  -92.43 input  -65.29 | X-H torsion
[ 10718 10713 10712 10709 ] final  -72.89 input   66.30 | X-H torsion
[ 10763 10752 10751 10750 ] final  177.21 input  -60.55 | X-H torsion
[ 11005 11000 10999 10996 ] final -137.39 input  -57.11 | X-H torsion

> <Gold.Protein.ActiveResidues>
 VAL166  LYS551  ARG553  GLY616  TRP617  ASP618  TYR619  PRO620  LYS621  CYS622 
 ASP623  PHE694  ASN695  SER759  ASP760  ASP761  ALA762  ILE779  LEU786  VAL792 
 PHE793  MET794  SER795  GLU796  ALA797  LYS798  CYS799  TRP800  GLU811  SER814 

> <Gold.Protein.RotatedAtoms>
  150.7095  134.4878  159.5500 H   0  0  0  0  0  0  0  0  0  0  0  0  # atno 6907 bound_to 6896
  152.2502  134.8137  160.0456 H   0  0  0  0  0  0  0  0  0  0  0  0  # atno 6908 bound_to 6896
  151.8888  133.3476  159.3828 H   0  0  0  0  0  0  0  0  0  0  0  0  # atno 6909 bound_to 6896
  146.2299  139.9006  142.8540 H   0  0  0  0  0  0  0  0  0  0  0  0  # atno 7974 bound_to 7965
  156.0742  140.1378  156.9792 H   0  0  0  0  0  0  0  0  0  0  0  0  # atno 8008 bound_to 7997
  154.4548  140.0965  156.6776 H   0  0  0  0  0  0  0  0  0  0  0  0  # atno 8009 bound_to 7997
  155.5180  140.3455  155.4403 H   0  0  0  0  0  0  0  0  0  0  0  0  # atno 8010 bound_to 7997
  140.3349  143.2974  151.9901 H   0  0  0  0  0  0  0  0  0  0  0  0  # atno 10167 bound_to 10162
  156.0302  130.4382  150.2660 H   0  0  0  0  0  0  0  0  0  0  0  0  # atno 10718 bound_to 10713
  154.4915  135.2779  155.1493 H   0  0  0  0  0  0  0  0  0  0  0  0  # atno 10763 bound_to 10752
  154.3163  135.6219  153.5491 H   0  0  0  0  0  0  0  0  0  0  0  0  # atno 10764 bound_to 10752
  152.9888  135.5732  154.5337 H   0  0  0  0  0  0  0  0  0  0  0  0  # atno 10765 bound_to 10752
  140.8716  134.2044  157.4647 H   0  0  0  0  0  0  0  0  0  0  0  0  # atno 11005 bound_to 11000
  145.2327  140.9979  143.3981 LP  0  0  0  0  0  0  0  0  0  0  0  0  # atno 17320 bound_to 7965
  144.9517  139.4076  143.6399 LP  0  0  0  0  0  0  0  0  0  0  0  0  # atno 17321 bound_to 7965
  139.4850  144.6205  151.7265 LP  0  0  0  0  0  0  0  0  0  0  0  0  # atno 17342 bound_to 10162
  140.5363  144.0650  150.6071 LP  0  0  0  0  0  0  0  0  0  0  0  0  # atno 17343 bound_to 10162
  157.0762  131.0131  151.3173 LP  0  0  0  0  0  0  0  0  0  0  0  0  # atno 17370 bound_to 10713
  157.4962  130.7852  149.7557 LP  0  0  0  0  0  0  0  0  0  0  0  0  # atno 17371 bound_to 10713
  139.8712  134.9777  156.4968 LP  0  0  0  0  0  0  0  0  0  0  0  0  # atno 17394 bound_to 11000
  140.8567  133.8091  155.9223 LP  0  0  0  0  0  0  0  0  0  0  0  0  # atno 17395 bound_to 11000

$$$$
