AV-unprocessed.smi:2597|AV-procd|sdf|10174|dock8
  -GOLD-   2272014183D 1   1.00000     0.00000
 Structure written by MMmdl.
 30 31  0  0  0  0  0  0  0  0  1 V2000
  148.6851  138.6511  153.1195 N   0  0  0  0  0  0  0  0  0  0  0  0
  147.7619  139.7084  153.4930 C   0  0  1  0  0  0  0  0  0  0  0  0
  146.8195  139.2236  154.6146 C   0  0  0  0  0  0  0  0  0  0  0  0
  145.8504  140.3370  155.0438 C   0  0  0  0  0  0  0  0  0  0  0  0
  146.5966  141.6207  155.4412 C   0  0  0  0  0  0  0  0  0  0  0  0
  147.5119  142.1088  154.3034 C   0  0  0  0  0  0  0  0  0  0  0  0
  148.5095  141.0312  153.8241 C   0  0  1  0  0  0  0  0  0  0  0  0
  149.6466  140.9004  154.7390 N   0  0  0  0  0  0  0  0  0  0  0  0
  149.8559  141.5983  155.9116 C   0  0  0  0  0  0  0  0  0  0  0  0
  151.0244  141.0821  156.3994 C   0  0  0  0  0  0  0  0  0  0  0  0
  151.7910  141.4138  157.6476 C   0  0  0  0  0  0  0  0  0  0  0  0
  152.8097  140.4469  157.8009 O   0  0  0  0  0  0  0  0  0  0  0  0
  151.4662  140.0930  155.5239 N   0  0  0  0  0  0  0  0  0  0  0  0
  150.6305  139.9882  154.5399 N   0  0  0  0  0  0  0  0  0  0  0  0
  147.1438  139.8983  152.6147 H   0  0  0  0  0  0  0  0  0  0  0  0
  148.9327  141.3926  152.8856 H   0  0  0  0  0  0  0  0  0  0  0  0
  148.1722  137.8639  152.7491 H   0  0  0  0  0  0  0  0  0  0  0  0
  149.2955  138.9735  152.3822 H   0  0  0  0  0  0  0  0  0  0  0  0
  146.2460  138.3633  154.2677 H   0  0  0  0  0  0  0  0  0  0  0  0
  147.3822  138.8735  155.4792 H   0  0  0  0  0  0  0  0  0  0  0  0
  145.1663  140.5564  154.2232 H   0  0  0  0  0  0  0  0  0  0  0  0
  145.2342  139.9923  155.8746 H   0  0  0  0  0  0  0  0  0  0  0  0
  145.8761  142.4003  155.6901 H   0  0  0  0  0  0  0  0  0  0  0  0
  147.1768  141.4477  156.3473 H   0  0  0  0  0  0  0  0  0  0  0  0
  146.8873  142.4084  153.4610 H   0  0  0  0  0  0  0  0  0  0  0  0
  148.0473  143.0072  154.6129 H   0  0  0  0  0  0  0  0  0  0  0  0
  149.1890  142.3641  156.2790 H   0  0  0  0  0  0  0  0  0  0  0  0
  152.2369  142.4063  157.5822 H   0  0  0  0  0  0  0  0  0  0  0  0
  151.1441  141.3971  158.5251 H   0  0  0  0  0  0  0  0  0  0  0  0
  153.0801  140.4386  158.7064 H   0  0  0  0  0  0  0  0  0  0  0  0
  1  2  1  0  0  0  0
  1 17  1  0  0  0  0
  1 18  1  0  0  0  0
  2 15  1  0  0  0  0
  2  7  1  0  0  0  0
  2  3  1  0  0  0  0
  3  4  1  0  0  0  0
  3 19  1  0  0  0  0
  3 20  1  0  0  0  0
  4  5  1  0  0  0  0
  4 21  1  0  0  0  0
  4 22  1  0  0  0  0
  5  6  1  0  0  0  0
  5 23  1  0  0  0  0
  5 24  1  0  0  0  0
  6  7  1  0  0  0  0
  6 25  1  0  0  0  0
  6 26  1  0  0  0  0
  7 16  1  0  0  0  0
  7  8  1  0  0  0  0
  8 14  1  0  0  0  0
  8  9  1  0  0  0  0
  9 10  2  0  0  0  0
  9 27  1  0  0  0  0
 10 11  1  0  0  0  0
 10 13  1  0  0  0  0
 11 12  1  0  0  0  0
 11 28  1  0  0  0  0
 11 29  1  0  0  0  0
 12 30  1  0  0  0  0
 13 14  2  0  0  0  0
M  END
> <s_m_source_file>
AV-unprocessed.smi

> <i_m_source_file_index>
2597

> <i_lp_mmshare_version>
43012

> <i_f3d_flags>
0

> <s_epik_input>
W05IMl1bQ0BIXTFbQ0gyXVtDSDJdW0NIMl1bQ0gyXVtDQEhdMW4yW2NIXWMobm4yKVtDSDJdW09IXQ==

> <s_epik_cmdline>
J2VwaWtfcHl0aG9uJywgJy1waCcsICc3LjAnLCAnLXRuJywgJzgnLCAnLW1hJywgJzIwMCcsICctbWV0YWxfYmluZGluZycsICctaW1hZScsICc8aW5maWxlLm1hZT4nLCAnLW9tYWUnLCAnPG91dGZpbGUubWFlPic=

> <r_lp_tautomer_probability>
1

> <r_epik_Ionization_Penalty>
2.21303

> <r_epik_Ionization_Penalty_Charging>
0

> <r_epik_Ionization_Penalty_Neutral>
2.21303

> <r_epik_State_Penalty>
2.3573

> <r_epik_Charging_Adjusted_Penalty>
2.3573

> <i_epik_Tot_Q>
0

> <i_epik_Tot_abs_Q>
0

> <r_epik_Metal_State_Penalty>
2.35724

> <b_epik_Metal_Only>
0

> <s_lp_Force_Field>
OPLS_2005

> <r_lp_Energy>
16.8416

> <b_lp_Chiralities_Consistent>
1

> <s_lp_Variant>
AV-unprocessed.smi:2597-5

> <Gold.Version>
5.8.1

> <Gold.Id.Protein>
6NUR|6NUR_protein|mol2

> <Gold.PLP.Fitness>
36.0432

> <Gold.PLP.PLP>
-23.5950

> <Gold.PLP.part.hbond>
-4.5728

> <Gold.PLP.part.metal>
0.0000

> <Gold.PLP.part.buried>
1.5620

> <Gold.PLP.part.nonpolar>
-19.7775

> <Gold.PLP.part.repulsive>
0.0992

> <Gold.PLP.ligand.clash>
0.0000

> <Gold.PLP.ligand.torsion>
0.1405

> <Gold.PLP.Chemscore.Hbond>
3.2220

> <Gold.PLP.Chemscore.CHOScore>
1.0000

> <Gold.PLP.Chemscore.Metal>
0.0000

> <Gold.Chemscore.Hbonds>
donor molecule, donor type, donor heavy atom, donor atom, acceptor molecule, acceptor atom, score
      L1  H     1    17       P1  7948  0.51
      L1  H     1    18       P1  7957  1.00
      P1  H  7989  7998       L1    14  0.65
      P1  H  7997  8008       L1    12  0.86
      L1  C     9    27       P1  8028  1.00

> <Gold.PLP.Chemscore.Internal.Correction>
0.0631

> <Gold.Rescore>
     Score         DG    S(hbond)    S(metal)    S(lipo)     H(rot)  DE(clash)    DE(int)     intcor
     15.36     -17.00       3.39        0.00      41.71       1.82       0.11       1.54       ----

> <Gold.Chemscore.Fitness>
15.3610

> <Gold.Chemscore.DG>
-17.0030

> <Gold.Chemscore.ZeroCoef>
-5.4800

> <Gold.Chemscore.Hbond>
3.3856

> <Gold.Chemscore.Metal>
0.0000

> <Gold.Chemscore.Lipo>
41.7109

> <Gold.Chemscore.Internal_Hbond>
0.0000

> <Gold.Chemscore.DEClash>
0.1058

> <Gold.Chemscore.DEInternal>
1.5362

> <Gold.Chemscore.Rot>
1.8222

> <Gold.Chemscore.Internal.Correction>
   9.000000E+99

> <Gold.Chemscore.Hbonds>
donor molecule, donor type, donor heavy atom, donor atom, acceptor molecule, acceptor atom, score
      L1  H     1    17       P1  7948  0.50
      L1  H     1    18       P1  7957  0.87
      P1  H  7989  7998       L1    14  0.01
      P1  H  7997  8008       L1    12  0.38

> <Gold.Chemscore.Hbond.Weighted>
-11.3078

> <Gold.Chemscore.Metal.Weighted>
-0.0000

> <Gold.Chemscore.Lipo.Weighted>
-4.8802

> <Gold.Chemscore.Internal_Hbond.Weighted>
0.0000

> <Gold.Chemscore.DEClash.Weighted>
0.1058

> <Gold.Chemscore.DEInternal.Weighted>
1.5362

> <Gold.Chemscore.Rot.Weighted>
4.6649

> <Gold.Chemscore.Internal.Correction.Weighted>
   9.000000E+99

> <Gold.Protein.RotatedTorsions>
[ 6907 6896 6895 6894 ] final   36.75 input  -60.11 | X-H torsion
[ 7974 7965 7964 7962 ] final   92.40 input  175.53 | X-H torsion
[ 8008 7997 7996 7995 ] final  -70.02 input   59.86 | X-H torsion
[ 10167 10162 10161 10158 ] final  138.73 input  -65.29 | X-H torsion
[ 10718 10713 10712 10709 ] final   64.22 input   66.30 | X-H torsion
[ 10763 10752 10751 10750 ] final   72.69 input  -60.55 | X-H torsion
[ 11005 11000 10999 10996 ] final   62.44 input  -57.11 | X-H torsion

> <Gold.Protein.ActiveResidues>
 VAL166  LYS551  ARG553  GLY616  TRP617  ASP618  TYR619  PRO620  LYS621  CYS622 
 ASP623  PHE694  ASN695  SER759  ASP760  ASP761  ALA762  ILE779  LEU786  VAL792 
 PHE793  MET794  SER795  GLU796  ALA797  LYS798  CYS799  TRP800  GLU811  SER814 

> <Gold.Protein.RotatedAtoms>
  152.1339  134.9114  160.0557 H   0  0  0  0  0  0  0  0  0  0  0  0  # atno 6907 bound_to 6896
  152.0208  133.3893  159.4265 H   0  0  0  0  0  0  0  0  0  0  0  0  # atno 6908 bound_to 6896
  150.6859  134.3549  159.4969 H   0  0  0  0  0  0  0  0  0  0  0  0  # atno 6909 bound_to 6896
  145.4928  139.2276  143.2820 H   0  0  0  0  0  0  0  0  0  0  0  0  # atno 7974 bound_to 7965
  154.4981  140.0842  156.7740 H   0  0  0  0  0  0  0  0  0  0  0  0  # atno 8008 bound_to 7997
  155.4067  140.3439  155.4242 H   0  0  0  0  0  0  0  0  0  0  0  0  # atno 8009 bound_to 7997
  156.1421  140.1532  156.8892 H   0  0  0  0  0  0  0  0  0  0  0  0  # atno 8010 bound_to 7997
  139.5101  144.6336  151.5754 H   0  0  0  0  0  0  0  0  0  0  0  0  # atno 10167 bound_to 10162
  157.6025  130.9148  149.9817 H   0  0  0  0  0  0  0  0  0  0  0  0  # atno 10718 bound_to 10713
  153.0474  135.5090  154.7781 H   0  0  0  0  0  0  0  0  0  0  0  0  # atno 10763 bound_to 10752
  154.6670  135.2947  154.9794 H   0  0  0  0  0  0  0  0  0  0  0  0  # atno 10764 bound_to 10752
  154.0625  135.6689  153.4866 H   0  0  0  0  0  0  0  0  0  0  0  0  # atno 10765 bound_to 10752
  140.0092  134.6323  155.9808 H   0  0  0  0  0  0  0  0  0  0  0  0  # atno 11005 bound_to 11000
  146.2274  140.5723  142.8990 LP  0  0  0  0  0  0  0  0  0  0  0  0  # atno 17320 bound_to 7965
  144.7824  140.5867  143.6596 LP  0  0  0  0  0  0  0  0  0  0  0  0  # atno 17321 bound_to 7965
  140.6078  143.9493  150.6431 LP  0  0  0  0  0  0  0  0  0  0  0  0  # atno 17342 bound_to 10162
  140.2725  143.3446  152.1225 LP  0  0  0  0  0  0  0  0  0  0  0  0  # atno 17343 bound_to 10162
  156.1102  130.3650  150.0063 LP  0  0  0  0  0  0  0  0  0  0  0  0  # atno 17370 bound_to 10713
  156.8163  130.9343  151.3642 LP  0  0  0  0  0  0  0  0  0  0  0  0  # atno 17371 bound_to 10713
  141.1698  133.6537  156.4612 LP  0  0  0  0  0  0  0  0  0  0  0  0  # atno 17394 bound_to 11000
  140.4586  134.6862  157.5074 LP  0  0  0  0  0  0  0  0  0  0  0  0  # atno 17395 bound_to 11000

$$$$
