AV-unprocessed.smi:283|AV-procd|sdf|2127|dock5
  -GOLD-   2262021433D 1   1.00000     0.00000
 Structure written by MMmdl.
 48 51  0  0  0  0  0  0  0  0  1 V2000
  147.7668  130.6489  160.6364 C   0  0  0  0  0  0  0  0  0  0  0  0
  147.4094  131.9718  159.9343 C   0  0  2  0  0  0  0  0  0  0  0  0
  148.6071  132.6416  159.4279 N   0  0  0  0  0  0  0  0  0  0  0  0
  148.9082  132.6624  158.1105 C   0  0  0  0  0  0  0  0  0  0  0  0
  150.1812  132.8575  157.6788 N   0  0  0  0  0  0  0  0  0  0  0  0
  150.4481  132.8693  156.3698 C   0  0  0  0  0  0  0  0  0  0  0  0
  149.6075  132.7071  155.3462 N   0  0  0  0  0  0  0  0  0  0  0  0
  148.3268  132.5060  155.7721 C   0  0  0  0  0  0  0  0  0  0  0  0
  147.9015  132.4677  157.1298 C   0  0  0  0  0  0  0  0  0  0  0  0
  146.5334  132.2383  157.1889 N   0  0  0  0  0  0  0  0  0  0  0  0
  146.1748  132.1475  155.9369 C   0  0  0  0  0  0  0  0  0  0  0  0
  147.1888  132.2951  155.0163 N   0  0  0  0  0  0  0  0  0  0  0  0
  147.0667  132.2398  153.5224 C   0  0  1  0  0  0  0  0  0  0  0  0
  145.7286  132.0399  153.1701 O   0  0  0  0  0  0  0  0  0  0  0  0
  145.2510  133.1254  152.3754 C   0  0  2  0  0  0  0  0  0  0  0  0
  144.1920  132.6138  151.3877 C   0  0  0  0  0  0  0  0  0  0  0  0
  143.7781  133.6643  150.5408 O   0  0  0  0  0  0  0  0  0  0  0  0
  146.5254  133.6368  151.7016 C   0  0  1  0  0  0  0  0  0  0  0  0
  146.4057  134.9522  151.1946 O   0  0  0  0  0  0  0  0  0  0  0  0
  147.5500  133.5239  152.8209 C   0  0  1  0  0  0  0  0  0  0  0  0
  147.5617  134.6649  153.6662 O   0  0  0  0  0  0  0  0  0  0  0  0
  146.5948  132.8566  160.8768 C   0  0  0  0  0  0  0  0  0  0  0  0
  147.2536  133.7448  161.7600 C   0  0  0  0  0  0  0  0  0  0  0  0
  146.5181  134.5591  162.6414 C   0  0  0  0  0  0  0  0  0  0  0  0
  145.1136  134.4908  162.6551 C   0  0  0  0  0  0  0  0  0  0  0  0
  144.4476  133.6033  161.7903 C   0  0  0  0  0  0  0  0  0  0  0  0
  145.1784  132.7847  160.9058 C   0  0  0  0  0  0  0  0  0  0  0  0
  144.3047  131.7006  159.8800 Cl  0  0  0  0  0  0  0  0  0  0  0  0
  147.6401  131.3587  153.2313 H   0  0  0  0  0  0  0  0  0  0  0  0
  144.8428  133.9063  153.0193 H   0  0  0  0  0  0  0  0  0  0  0  0
  146.8036  132.9653  150.8877 H   0  0  0  0  0  0  0  0  0  0  0  0
  148.5582  133.3727  152.4337 H   0  0  0  0  0  0  0  0  0  0  0  0
  146.8681  130.1299  160.9710 H   0  0  0  0  0  0  0  0  0  0  0  0
  148.3932  130.8232  161.5118 H   0  0  0  0  0  0  0  0  0  0  0  0
  148.3046  129.9690  159.9760 H   0  0  0  0  0  0  0  0  0  0  0  0
  146.7827  131.7507  159.0711 H   0  0  0  0  0  0  0  0  0  0  0  0
  149.2298  133.0084  160.1330 H   0  0  0  0  0  0  0  0  0  0  0  0
  151.4822  133.0316  156.1044 H   0  0  0  0  0  0  0  0  0  0  0  0
  145.1498  131.9673  155.6472 H   0  0  0  0  0  0  0  0  0  0  0  0
  144.6131  131.8309  150.7564 H   0  0  0  0  0  0  0  0  0  0  0  0
  143.3357  132.1847  151.9089 H   0  0  0  0  0  0  0  0  0  0  0  0
  142.8493  133.5768  150.3886 H   0  0  0  0  0  0  0  0  0  0  0  0
  147.2663  135.3440  151.1859 H   0  0  0  0  0  0  0  0  0  0  0  0
  147.9252  135.3915  153.1835 H   0  0  0  0  0  0  0  0  0  0  0  0
  148.3318  133.8059  161.7734 H   0  0  0  0  0  0  0  0  0  0  0  0
  147.0325  135.2347  163.3088 H   0  0  0  0  0  0  0  0  0  0  0  0
  144.5476  135.1138  163.3316 H   0  0  0  0  0  0  0  0  0  0  0  0
  143.3689  133.5484  161.8087 H   0  0  0  0  0  0  0  0  0  0  0  0
  1  2  1  0  0  0  0
  1 33  1  0  0  0  0
  1 34  1  0  0  0  0
  1 35  1  0  0  0  0
  2  3  1  0  0  0  0
  2 22  1  0  0  0  0
  2 36  1  0  0  0  0
  3  4  1  0  0  0  0
  3 37  1  0  0  0  0
  4  9  1  0  0  0  0
  4  5  2  0  0  0  0
  5  6  1  0  0  0  0
  6  7  2  0  0  0  0
  6 38  1  0  0  0  0
  7  8  1  0  0  0  0
  8 12  1  0  0  0  0
  8  9  2  0  0  0  0
  9 10  1  0  0  0  0
 10 11  2  0  0  0  0
 11 12  1  0  0  0  0
 11 39  1  0  0  0  0
 12 13  1  0  0  0  0
 13 29  1  0  0  0  0
 13 20  1  0  0  0  0
 13 14  1  0  0  0  0
 14 15  1  0  0  0  0
 15 30  1  0  0  0  0
 15 16  1  0  0  0  0
 15 18  1  0  0  0  0
 16 17  1  0  0  0  0
 16 40  1  0  0  0  0
 16 41  1  0  0  0  0
 17 42  1  0  0  0  0
 18 31  1  0  0  0  0
 18 19  1  0  0  0  0
 18 20  1  0  0  0  0
 19 43  1  0  0  0  0
 20 32  1  0  0  0  0
 20 21  1  0  0  0  0
 21 44  1  0  0  0  0
 22 27  1  0  0  0  0
 22 23  2  0  0  0  0
 23 24  1  0  0  0  0
 23 45  1  0  0  0  0
 24 25  2  0  0  0  0
 24 46  1  0  0  0  0
 25 26  1  0  0  0  0
 25 47  1  0  0  0  0
 26 27  2  0  0  0  0
 26 48  1  0  0  0  0
 27 28  1  0  0  0  0
M  END
> <s_m_source_file>
AV-unprocessed.smi

> <i_m_source_file_index>
283

> <i_lp_mmshare_version>
43012

> <i_f3d_flags>
0

> <s_epik_input>
Q2xjMVtjSF1bY0hdW2NIXVtjSF1jMVtDQEhdKFtDSDNdKVtOSF1jKG5bY0hdbjIpYyhjMjMpbltjSF1uM1tDQEBIXTRPW0NASF0oW0NIMl1bT0hdKVtDQEBIXShbT0hdKVtDQEhdNFtPSF0=

> <s_epik_cmdline>
J2VwaWtfcHl0aG9uJywgJy1waCcsICc3LjAnLCAnLXRuJywgJzgnLCAnLW1hJywgJzIwMCcsICctbWV0YWxfYmluZGluZycsICctaW1hZScsICc8aW5maWxlLm1hZT4nLCAnLW9tYWUnLCAnPG91dGZpbGUubWFlPic=

> <r_lp_tautomer_probability>
1

> <r_epik_Ionization_Penalty>
0.000266407

> <r_epik_Ionization_Penalty_Charging>
0

> <r_epik_Ionization_Penalty_Neutral>
0.000266407

> <r_epik_State_Penalty>
-0

> <r_epik_Charging_Adjusted_Penalty>
0

> <i_epik_Tot_Q>
0

> <i_epik_Tot_abs_Q>
0

> <r_epik_Metal_State_Penalty>
-0

> <b_epik_Metal_Only>
0

> <s_epik_Chemistry_Notes>
This compound contains an acetal/aminal-like group ( X-CH(R)-Y where X, Y are N, S, or O) that may be acid/base labile, releasing an aldehyde.

> <s_lp_Force_Field>
OPLS_2005

> <r_lp_Energy>
51.5446

> <b_lp_Chiralities_Consistent>
1

> <s_lp_Variant>
AV-unprocessed.smi:283-3

> <Gold.Version>
5.8.1

> <Gold.Id.Protein>
6NUR|6NUR_protein|mol2

> <Gold.PLP.Fitness>
45.3121

> <Gold.PLP.PLP>
-32.3496

> <Gold.PLP.part.hbond>
-4.0000

> <Gold.PLP.part.metal>
0.0000

> <Gold.PLP.part.buried>
-4.2431

> <Gold.PLP.part.nonpolar>
-24.1822

> <Gold.PLP.part.repulsive>
0.2880

> <Gold.PLP.ligand.clash>
0.0000

> <Gold.PLP.ligand.torsion>
0.9725

> <Gold.PLP.Chemscore.Hbond>
3.9920

> <Gold.PLP.Chemscore.CHOScore>
0.9537

> <Gold.PLP.Chemscore.Metal>
0.0000

> <Gold.Chemscore.Hbonds>
donor molecule, donor type, donor heavy atom, donor atom, acceptor molecule, acceptor atom, score
      L1  H    17    42       P1 10186  0.59
      L1  H    19    43       P1  7948  1.00
      L1  H    21    44       P1  7948  1.00
      P1  H  6896  6907       L1     5  1.00
      L1  C    11    39       P1 10957  0.83

> <Gold.PLP.Chemscore.Internal.Correction>
0.0703

> <Gold.Rescore>
     Score         DG    S(hbond)    S(metal)    S(lipo)     H(rot)  DE(clash)    DE(int)     intcor
     13.11     -15.19       3.63        0.00      69.07       4.10       0.00       2.08       ----

> <Gold.Chemscore.Fitness>
13.1060

> <Gold.Chemscore.DG>
-15.1850

> <Gold.Chemscore.ZeroCoef>
-5.4800

> <Gold.Chemscore.Hbond>
3.6262

> <Gold.Chemscore.Metal>
0.0000

> <Gold.Chemscore.Lipo>
69.0733

> <Gold.Chemscore.Internal_Hbond>
0.0000

> <Gold.Chemscore.DEClash>
0.0015

> <Gold.Chemscore.DEInternal>
2.0776

> <Gold.Chemscore.Rot>
4.0968

> <Gold.Chemscore.Internal.Correction>
   9.000000E+99

> <Gold.Chemscore.Hbonds>
donor molecule, donor type, donor heavy atom, donor atom, acceptor molecule, acceptor atom, score
      L1  H    17    42       P1 10186  0.55
      L1  H    19    43       P1  7948  0.73
      L1  H    21    44       P1  7948  0.98
      P1  H  6896  6907       L1     5  0.45

> <Gold.Chemscore.Hbond.Weighted>
-12.1114

> <Gold.Chemscore.Metal.Weighted>
-0.0000

> <Gold.Chemscore.Lipo.Weighted>
-8.0816

> <Gold.Chemscore.Internal_Hbond.Weighted>
0.0000

> <Gold.Chemscore.DEClash.Weighted>
0.0015

> <Gold.Chemscore.DEInternal.Weighted>
2.0776

> <Gold.Chemscore.Rot.Weighted>
10.4879

> <Gold.Chemscore.Internal.Correction.Weighted>
   9.000000E+99

> <Gold.Protein.RotatedTorsions>
[ 6907 6896 6895 6894 ] final -145.69 input  -60.11 | X-H torsion
[ 7974 7965 7964 7962 ] final  136.90 input  175.53 | X-H torsion
[ 8008 7997 7996 7995 ] final  118.85 input   59.86 | X-H torsion
[ 10167 10162 10161 10158 ] final  139.55 input  -65.29 | X-H torsion
[ 10718 10713 10712 10709 ] final   -1.62 input   66.30 | X-H torsion
[ 10763 10752 10751 10750 ] final   -3.98 input  -60.55 | X-H torsion
[ 11005 11000 10999 10996 ] final  163.74 input  -57.11 | X-H torsion

> <Gold.Protein.ActiveResidues>
 VAL166  LYS551  ARG553  GLY616  TRP617  ASP618  TYR619  PRO620  LYS621  CYS622 
 ASP623  PHE694  ASN695  SER759  ASP760  ASP761  ALA762  ILE779  LEU786  VAL792 
 PHE793  MET794  SER795  GLU796  ALA797  LYS798  CYS799  TRP800  GLU811  SER814 

> <Gold.Protein.RotatedAtoms>
  151.1313  133.5035  159.2598 H   0  0  0  0  0  0  0  0  0  0  0  0  # atno 6907 bound_to 6896
  151.1755  135.0337  159.8780 H   0  0  0  0  0  0  0  0  0  0  0  0  # atno 6908 bound_to 6896
  152.5460  134.1171  159.8436 H   0  0  0  0  0  0  0  0  0  0  0  0  # atno 6909 bound_to 6896
  144.9520  139.4808  143.5521 H   0  0  0  0  0  0  0  0  0  0  0  0  # atno 7974 bound_to 7965
  156.2567  140.2866  156.0899 H   0  0  0  0  0  0  0  0  0  0  0  0  # atno 8008 bound_to 7997
  155.1474  140.0397  157.2830 H   0  0  0  0  0  0  0  0  0  0  0  0  # atno 8009 bound_to 7997
  154.6485  140.2539  155.7247 H   0  0  0  0  0  0  0  0  0  0  0  0  # atno 8010 bound_to 7997
  139.5075  144.6287  151.5871 H   0  0  0  0  0  0  0  0  0  0  0  0  # atno 10167 bound_to 10162
  156.8030  130.5399  149.5719 H   0  0  0  0  0  0  0  0  0  0  0  0  # atno 10718 bound_to 10713
  153.3786  135.6997  153.6582 H   0  0  0  0  0  0  0  0  0  0  0  0  # atno 10763 bound_to 10752
  153.5203  135.3613  155.2629 H   0  0  0  0  0  0  0  0  0  0  0  0  # atno 10764 bound_to 10752
  154.8690  135.4156  154.3079 H   0  0  0  0  0  0  0  0  0  0  0  0  # atno 10765 bound_to 10752
  140.2388  134.8067  157.3390 H   0  0  0  0  0  0  0  0  0  0  0  0  # atno 11005 bound_to 11000
  146.3324  139.8611  142.8856 LP  0  0  0  0  0  0  0  0  0  0  0  0  # atno 17320 bound_to 7965
  145.2830  141.0144  143.3706 LP  0  0  0  0  0  0  0  0  0  0  0  0  # atno 17321 bound_to 7965
  140.6013  143.9604  150.6388 LP  0  0  0  0  0  0  0  0  0  0  0  0  # atno 17342 bound_to 10162
  140.2817  143.3385  152.1145 LP  0  0  0  0  0  0  0  0  0  0  0  0  # atno 17343 bound_to 10162
  156.1090  130.6026  151.0017 LP  0  0  0  0  0  0  0  0  0  0  0  0  # atno 17370 bound_to 10713
  157.6544  131.0892  150.7979 LP  0  0  0  0  0  0  0  0  0  0  0  0  # atno 17371 bound_to 10713
  140.1674  134.4651  155.7854 LP  0  0  0  0  0  0  0  0  0  0  0  0  # atno 17394 bound_to 11000
  141.2212  133.6927  156.7650 LP  0  0  0  0  0  0  0  0  0  0  0  0  # atno 17395 bound_to 11000

$$$$
