AV-unprocessed.smi:1408|AV-procd|sdf|5726|dock4
  -GOLD-   22720 5363D 1   1.00000     0.00000
 Structure written by MMmdl.
 41 42  0  0  0  0  0  0  0  0  1 V2000
  151.0714  145.1854  158.7317 C   0  0  0  0  0  0  0  0  0  0  0  0
  151.6618  144.1678  159.6947 C   0  0  0  0  0  0  0  0  0  0  0  0
  151.9876  144.5685  161.0080 C   0  0  0  0  0  0  0  0  0  0  0  0
  152.5337  143.6271  161.8970 C   0  0  0  0  0  0  0  0  0  0  0  0
  152.7319  142.3158  161.4319 C   0  0  0  0  0  0  0  0  0  0  0  0
  152.4232  141.9243  160.1789 N   0  0  0  0  0  0  0  0  0  0  0  0
  151.8954  142.8207  159.3078 C   0  0  0  0  0  0  0  0  0  0  0  0
  151.5469  142.4786  157.9701 N   0  0  0  0  0  0  0  0  0  0  0  0
  151.3394  141.2581  157.4444 C   0  0  0  0  0  0  0  0  0  0  0  0
  151.4058  140.1943  158.0608 O   0  0  0  0  0  0  0  0  0  0  0  0
  151.0445  141.3368  156.1384 N   0  0  0  0  0  0  0  0  0  0  0  0
  150.7819  140.1964  155.2647 C   0  0  0  0  0  0  0  0  0  0  0  0
  149.5969  139.3847  155.8073 C   0  0  0  0  0  0  0  0  0  0  0  0
  149.3227  138.1443  154.9386 C   0  0  0  0  0  0  0  0  0  0  0  0
  150.5317  137.3115  154.7770 N   0  0  0  0  0  0  0  0  0  0  0  0
  150.7195  135.8590  155.7174 S   0  0  0  0  0  0  0  0  0  0  0  0
  150.2626  134.5106  154.5528 C   0  0  0  0  0  0  0  0  0  0  0  0
  152.1460  135.7171  156.0468 O   0  0  0  0  0  0  0  0  0  0  0  0
  149.7213  135.8901  156.7974 O   0  0  0  0  0  0  0  0  0  0  0  0
  151.7241  138.0418  154.3010 C   0  0  0  0  0  0  0  0  0  0  0  0
  152.0154  139.2836  155.1627 C   0  0  0  0  0  0  0  0  0  0  0  0
  150.9683  146.1640  159.2017 H   0  0  0  0  0  0  0  0  0  0  0  0
  150.0829  144.8675  158.3993 H   0  0  0  0  0  0  0  0  0  0  0  0
  151.7122  145.2998  157.8569 H   0  0  0  0  0  0  0  0  0  0  0  0
  151.8222  145.5851  161.3334 H   0  0  0  0  0  0  0  0  0  0  0  0
  152.7938  143.9026  162.9082 H   0  0  0  0  0  0  0  0  0  0  0  0
  153.1488  141.5608  162.0821 H   0  0  0  0  0  0  0  0  0  0  0  0
  151.4524  143.2588  157.3374 H   0  0  0  0  0  0  0  0  0  0  0  0
  151.0092  142.2516  155.7133 H   0  0  0  0  0  0  0  0  0  0  0  0
  150.5218  140.5610  154.2689 H   0  0  0  0  0  0  0  0  0  0  0  0
  149.7926  139.0821  156.8356 H   0  0  0  0  0  0  0  0  0  0  0  0
  148.7028  140.0084  155.8389 H   0  0  0  0  0  0  0  0  0  0  0  0
  148.5095  137.5561  155.3631 H   0  0  0  0  0  0  0  0  0  0  0  0
  148.9890  138.4601  153.9496 H   0  0  0  0  0  0  0  0  0  0  0  0
  150.3515  133.5530  155.0652 H   0  0  0  0  0  0  0  0  0  0  0  0
  150.9341  134.5168  153.6961 H   0  0  0  0  0  0  0  0  0  0  0  0
  149.2336  134.6395  154.2213 H   0  0  0  0  0  0  0  0  0  0  0  0
  152.5912  137.3823  154.2815 H   0  0  0  0  0  0  0  0  0  0  0  0
  151.5492  138.3487  153.2693 H   0  0  0  0  0  0  0  0  0  0  0  0
  152.8533  139.8319  154.7307 H   0  0  0  0  0  0  0  0  0  0  0  0
  152.3345  138.9788  156.1589 H   0  0  0  0  0  0  0  0  0  0  0  0
  1  2  1  0  0  0  0
  1 22  1  0  0  0  0
  1 23  1  0  0  0  0
  1 24  1  0  0  0  0
  2  7  1  0  0  0  0
  2  3  2  0  0  0  0
  3  4  1  0  0  0  0
  3 25  1  0  0  0  0
  4  5  2  0  0  0  0
  4 26  1  0  0  0  0
  5  6  1  0  0  0  0
  5 27  1  0  0  0  0
  6  7  2  0  0  0  0
  7  8  1  0  0  0  0
  8  9  1  0  0  0  0
  8 28  1  0  0  0  0
  9 10  2  0  0  0  0
  9 11  1  0  0  0  0
 11 12  1  0  0  0  0
 11 29  1  0  0  0  0
 12 21  1  0  0  0  0
 12 13  1  0  0  0  0
 12 30  1  0  0  0  0
 13 14  1  0  0  0  0
 13 31  1  0  0  0  0
 13 32  1  0  0  0  0
 14 15  1  0  0  0  0
 14 33  1  0  0  0  0
 14 34  1  0  0  0  0
 15 16  1  0  0  0  0
 15 20  1  0  0  0  0
 16 17  1  0  0  0  0
 16 18  2  0  0  0  0
 16 19  2  0  0  0  0
 17 35  1  0  0  0  0
 17 36  1  0  0  0  0
 17 37  1  0  0  0  0
 20 21  1  0  0  0  0
 20 38  1  0  0  0  0
 20 39  1  0  0  0  0
 21 40  1  0  0  0  0
 21 41  1  0  0  0  0
M  END
> <s_m_source_file>
AV-unprocessed.smi

> <i_m_source_file_index>
1408

> <i_lp_mmshare_version>
43012

> <i_f3d_flags>
0

> <s_epik_input>
W0NIM11jMVtjSF1bY0hdW2NIXW5jMVtOSF1DKD1PKVtOSF1bQ0hdMltDSDJdW0NIMl1OKFMoPU8pKD1PKVtDSDNdKVtDSDJdW0NIMl0y

> <s_epik_cmdline>
J2VwaWtfcHl0aG9uJywgJy1waCcsICc3LjAnLCAnLXRuJywgJzgnLCAnLW1hJywgJzIwMCcsICctbWV0YWxfYmluZGluZycsICctaW1hZScsICc8aW5maWxlLm1hZT4nLCAnLW9tYWUnLCAnPG91dGZpbGUubWFlPic=

> <r_lp_tautomer_probability>
1

> <r_epik_Ionization_Penalty>
5.70787e-05

> <r_epik_Ionization_Penalty_Charging>
0

> <r_epik_Ionization_Penalty_Neutral>
5.70787e-05

> <r_epik_State_Penalty>
-0

> <r_epik_Charging_Adjusted_Penalty>
0

> <i_epik_Tot_Q>
0

> <i_epik_Tot_abs_Q>
0

> <r_epik_Metal_State_Penalty>
-0

> <b_epik_Metal_Only>
0

> <s_lp_Force_Field>
OPLS_2005

> <r_lp_Energy>
5.75517

> <b_lp_Chiralities_Consistent>
1

> <s_lp_Variant>
AV-unprocessed.smi:1408-1

> <Gold.Version>
5.8.1

> <Gold.Id.Protein>
6NUR|6NUR_protein|mol2

> <Gold.PLP.Fitness>
45.2879

> <Gold.PLP.PLP>
-42.4472

> <Gold.PLP.part.hbond>
-1.0000

> <Gold.PLP.part.metal>
0.0000

> <Gold.PLP.part.buried>
-6.0749

> <Gold.PLP.part.nonpolar>
-36.2834

> <Gold.PLP.part.repulsive>
0.1961

> <Gold.PLP.ligand.clash>
0.0000

> <Gold.PLP.ligand.torsion>
1.1050

> <Gold.PLP.Chemscore.Hbond>
1.0000

> <Gold.PLP.Chemscore.CHOScore>
0.0000

> <Gold.PLP.Chemscore.Metal>
0.0000

> <Gold.Chemscore.Hbonds>
donor molecule, donor type, donor heavy atom, donor atom, acceptor molecule, acceptor atom, score
      P1  H 10752 10763       L1    18  0.73

> <Gold.PLP.Chemscore.Internal.Correction>
2.0506

> <Gold.Rescore>
     Score         DG    S(hbond)    S(metal)    S(lipo)     H(rot)  DE(clash)    DE(int)     intcor
     14.30     -17.79       1.00        0.00      98.60       1.00       0.09       3.41       ----

> <Gold.Chemscore.Fitness>
14.2951

> <Gold.Chemscore.DG>
-17.7935

> <Gold.Chemscore.ZeroCoef>
-5.4800

> <Gold.Chemscore.Hbond>
0.9992

> <Gold.Chemscore.Metal>
0.0000

> <Gold.Chemscore.Lipo>
98.6005

> <Gold.Chemscore.Internal_Hbond>
0.0000

> <Gold.Chemscore.DEClash>
0.0863

> <Gold.Chemscore.DEInternal>
3.4121

> <Gold.Chemscore.Rot>
1.0000

> <Gold.Chemscore.Internal.Correction>
   9.000000E+99

> <Gold.Chemscore.Hbonds>
donor molecule, donor type, donor heavy atom, donor atom, acceptor molecule, acceptor atom, score
      P1  H 10752 10763       L1    18  0.72

> <Gold.Chemscore.Hbond.Weighted>
-3.3372

> <Gold.Chemscore.Metal.Weighted>
-0.0000

> <Gold.Chemscore.Lipo.Weighted>
-11.5363

> <Gold.Chemscore.Internal_Hbond.Weighted>
0.0000

> <Gold.Chemscore.DEClash.Weighted>
0.0863

> <Gold.Chemscore.DEInternal.Weighted>
3.4121

> <Gold.Chemscore.Rot.Weighted>
2.5600

> <Gold.Chemscore.Internal.Correction.Weighted>
   9.000000E+99

> <Gold.Protein.RotatedTorsions>
[ 6907 6896 6895 6894 ] final  -21.50 input  -60.11 | X-H torsion
[ 7974 7965 7964 7962 ] final  -16.25 input  175.53 | X-H torsion
[ 8008 7997 7996 7995 ] final  120.59 input   59.86 | X-H torsion
[ 10167 10162 10161 10158 ] final   78.03 input  -65.29 | X-H torsion
[ 10718 10713 10712 10709 ] final  145.80 input   66.30 | X-H torsion
[ 10763 10752 10751 10750 ] final   91.74 input  -60.55 | X-H torsion
[ 11005 11000 10999 10996 ] final  -73.38 input  -57.11 | X-H torsion

> <Gold.Protein.ActiveResidues>
 VAL166  LYS551  ARG553  GLY616  TRP617  ASP618  TYR619  PRO620  LYS621  CYS622 
 ASP623  PHE694  ASN695  SER759  ASP760  ASP761  ALA762  ILE779  LEU786  VAL792 
 PHE793  MET794  SER795  GLU796  ALA797  LYS798  CYS799  TRP800  GLU811  SER814 

> <Gold.Protein.RotatedAtoms>
  151.2324  135.0559  159.8992 H   0  0  0  0  0  0  0  0  0  0  0  0  # atno 6907 bound_to 6896
  152.5403  134.0523  159.8125 H   0  0  0  0  0  0  0  0  0  0  0  0  # atno 6908 bound_to 6896
  151.0704  133.5422  159.2659 H   0  0  0  0  0  0  0  0  0  0  0  0  # atno 6909 bound_to 6896
  146.1996  140.3610  142.8428 H   0  0  0  0  0  0  0  0  0  0  0  0  # atno 7974 bound_to 7965
  156.2649  140.2827  156.1174 H   0  0  0  0  0  0  0  0  0  0  0  0  # atno 8008 bound_to 7997
  155.1192  140.0392  157.2763 H   0  0  0  0  0  0  0  0  0  0  0  0  # atno 8009 bound_to 7997
  154.6683  140.2582  155.7040 H   0  0  0  0  0  0  0  0  0  0  0  0  # atno 8010 bound_to 7997
  139.9753  144.5865  150.7949 H   0  0  0  0  0  0  0  0  0  0  0  0  # atno 10167 bound_to 10162
  157.3408  131.0935  151.1083 H   0  0  0  0  0  0  0  0  0  0  0  0  # atno 10718 bound_to 10713
  153.2115  135.4387  155.0385 H   0  0  0  0  0  0  0  0  0  0  0  0  # atno 10763 bound_to 10752
  154.8202  135.3334  154.7062 H   0  0  0  0  0  0  0  0  0  0  0  0  # atno 10764 bound_to 10752
  153.7499  135.6999  153.5004 H   0  0  0  0  0  0  0  0  0  0  0  0  # atno 10765 bound_to 10752
  141.1622  133.6876  156.7204 H   0  0  0  0  0  0  0  0  0  0  0  0  # atno 11005 bound_to 11000
  144.8654  140.7198  143.6081 LP  0  0  0  0  0  0  0  0  0  0  0  0  # atno 17320 bound_to 7965
  145.3529  139.1701  143.4425 LP  0  0  0  0  0  0  0  0  0  0  0  0  # atno 17321 bound_to 7965
  140.7508  143.2961  151.3201 LP  0  0  0  0  0  0  0  0  0  0  0  0  # atno 17342 bound_to 10162
  139.6450  144.0468  152.2584 LP  0  0  0  0  0  0  0  0  0  0  0  0  # atno 17343 bound_to 10162
  157.2296  130.6519  149.5844 LP  0  0  0  0  0  0  0  0  0  0  0  0  # atno 17370 bound_to 10713
  155.9707  130.4603  150.6067 LP  0  0  0  0  0  0  0  0  0  0  0  0  # atno 17371 bound_to 10713
  140.2820  134.8309  157.3942 LP  0  0  0  0  0  0  0  0  0  0  0  0  # atno 17394 bound_to 11000
  140.1424  134.4955  155.8021 LP  0  0  0  0  0  0  0  0  0  0  0  0  # atno 17395 bound_to 11000

$$$$
