AV-unprocessed.smi:1655|AV-procd|sdf|6645|dock3
  -GOLD-   22720 7343D 1   1.00000     0.00000
 Structure written by MMmdl.
 34 35  0  0  0  0  0  0  0  0  1 V2000
  143.8111  143.9408  162.7097 C   0  0  0  0  0  0  0  0  0  0  0  0
  144.9086  143.7971  161.7115 C   0  0  0  0  0  0  0  0  0  0  0  0
  145.9020  144.6381  161.2950 C   0  0  0  0  0  0  0  0  0  0  0  0
  146.5909  143.8636  160.3240 C   0  0  0  0  0  0  0  0  0  0  0  0
  147.7150  144.3897  159.6379 N   0  0  0  0  0  0  0  0  0  0  0  0
  148.9615  144.5540  160.1125 C   0  0  0  0  0  0  0  0  0  0  0  0
  149.3308  144.2682  161.2521 O   0  0  0  0  0  0  0  0  0  0  0  0
  149.7730  145.0739  159.1801 N   0  0  0  0  0  0  0  0  0  0  0  0
  151.1886  145.3678  159.3711 C   0  0  0  0  0  0  0  0  0  0  0  0
  151.8831  144.2849  160.2136 C   0  0  0  0  0  0  0  0  0  0  0  0
  152.0916  142.9752  159.4394 C   0  0  1  0  0  0  0  0  0  0  0  0
  153.0050  141.9742  160.1468 C   0  0  0  0  0  0  0  0  0  0  0  0
  152.5191  140.6205  159.6481 C   0  0  0  0  0  0  0  0  0  0  0  0
  151.2106  140.9348  158.9188 C   0  0  0  0  0  0  0  0  0  0  0  0
  150.8755  142.2534  159.3243 O   0  0  0  0  0  0  0  0  0  0  0  0
  146.0651  142.6591  160.1614 N   0  0  0  0  0  0  0  0  0  0  0  0
  144.9840  142.6105  161.0497 O   0  0  0  0  0  0  0  0  0  0  0  0
  144.0829  144.6575  163.4848 H   0  0  0  0  0  0  0  0  0  0  0  0
  143.5964  142.9875  163.1931 H   0  0  0  0  0  0  0  0  0  0  0  0
  142.8969  144.2908  162.2304 H   0  0  0  0  0  0  0  0  0  0  0  0
  146.1008  145.6443  161.6327 H   0  0  0  0  0  0  0  0  0  0  0  0
  147.5536  144.6683  158.6816 H   0  0  0  0  0  0  0  0  0  0  0  0
  149.3856  145.2793  158.2708 H   0  0  0  0  0  0  0  0  0  0  0  0
  151.6538  145.4290  158.3870 H   0  0  0  0  0  0  0  0  0  0  0  0
  151.3092  146.3494  159.8328 H   0  0  0  0  0  0  0  0  0  0  0  0
  152.8536  144.6542  160.5477 H   0  0  0  0  0  0  0  0  0  0  0  0
  151.3011  144.0892  161.1151 H   0  0  0  0  0  0  0  0  0  0  0  0
  152.4779  143.1817  158.4394 H   0  0  0  0  0  0  0  0  0  0  0  0
  154.0593  142.1511  159.9323 H   0  0  0  0  0  0  0  0  0  0  0  0
  152.8695  142.0325  161.2277 H   0  0  0  0  0  0  0  0  0  0  0  0
  153.2382  140.1529  158.9748 H   0  0  0  0  0  0  0  0  0  0  0  0
  152.3526  139.9423  160.4859 H   0  0  0  0  0  0  0  0  0  0  0  0
  151.3603  140.9203  157.8381 H   0  0  0  0  0  0  0  0  0  0  0  0
  150.4145  140.2309  159.1620 H   0  0  0  0  0  0  0  0  0  0  0  0
  1  2  1  0  0  0  0
  1 18  1  0  0  0  0
  1 19  1  0  0  0  0
  1 20  1  0  0  0  0
  2 17  1  0  0  0  0
  2  3  2  0  0  0  0
  3  4  1  0  0  0  0
  3 21  1  0  0  0  0
  4  5  1  0  0  0  0
  4 16  2  0  0  0  0
  5  6  1  0  0  0  0
  5 22  1  0  0  0  0
  6  7  2  0  0  0  0
  6  8  1  0  0  0  0
  8  9  1  0  0  0  0
  8 23  1  0  0  0  0
  9 10  1  0  0  0  0
  9 24  1  0  0  0  0
  9 25  1  0  0  0  0
 10 11  1  0  0  0  0
 10 26  1  0  0  0  0
 10 27  1  0  0  0  0
 11 15  1  0  0  0  0
 11 12  1  0  0  0  0
 11 28  1  0  0  0  0
 12 13  1  0  0  0  0
 12 29  1  0  0  0  0
 12 30  1  0  0  0  0
 13 14  1  0  0  0  0
 13 31  1  0  0  0  0
 13 32  1  0  0  0  0
 14 15  1  0  0  0  0
 14 33  1  0  0  0  0
 14 34  1  0  0  0  0
 16 17  1  0  0  0  0
M  END
> <s_m_source_file>
AV-unprocessed.smi

> <i_m_source_file_index>
1655

> <i_lp_mmshare_version>
43012

> <i_f3d_flags>
0

> <s_epik_input>
W0NIM11jMVtjSF1jKG5vMSlbTkhdQyg9TylbTkhdW0NIMl1bQ0gyXVtDQEBIXTJbQ0gyXVtDSDJdW0NIMl1PMg==

> <s_epik_cmdline>
J2VwaWtfcHl0aG9uJywgJy1waCcsICc3LjAnLCAnLXRuJywgJzgnLCAnLW1hJywgJzIwMCcsICctbWV0YWxfYmluZGluZycsICctaW1hZScsICc8aW5maWxlLm1hZT4nLCAnLW9tYWUnLCAnPG91dGZpbGUubWFlPic=

> <r_lp_tautomer_probability>
1

> <r_epik_Ionization_Penalty>
2.23964e-05

> <r_epik_Ionization_Penalty_Charging>
0

> <r_epik_Ionization_Penalty_Neutral>
2.23964e-05

> <r_epik_State_Penalty>
-0

> <r_epik_Charging_Adjusted_Penalty>
0

> <i_epik_Tot_Q>
0

> <i_epik_Tot_abs_Q>
0

> <r_epik_Metal_State_Penalty>
-0

> <b_epik_Metal_Only>
0

> <s_lp_Force_Field>
OPLS_2005

> <r_lp_Energy>
15.0992

> <b_lp_Chiralities_Consistent>
1

> <s_lp_Variant>
AV-unprocessed.smi:1655-2

> <Gold.Version>
5.8.1

> <Gold.Id.Protein>
6NUR|6NUR_protein|mol2

> <Gold.PLP.Fitness>
47.0903

> <Gold.PLP.PLP>
-40.2722

> <Gold.PLP.part.hbond>
-4.5424

> <Gold.PLP.part.metal>
0.0000

> <Gold.PLP.part.buried>
-6.6958

> <Gold.PLP.part.nonpolar>
-30.9173

> <Gold.PLP.part.repulsive>
0.5931

> <Gold.PLP.ligand.clash>
0.0000

> <Gold.PLP.ligand.torsion>
0.9862

> <Gold.PLP.Chemscore.Hbond>
2.9249

> <Gold.PLP.Chemscore.CHOScore>
0.0000

> <Gold.PLP.Chemscore.Metal>
0.0000

> <Gold.Chemscore.Hbonds>
donor molecule, donor type, donor heavy atom, donor atom, acceptor molecule, acceptor atom, score
      L1  H     5    22       P1  8029  0.96
      L1  H     8    23       P1  8029  0.96
      P1  H  6933  6944       L1     7  0.41
      P1  H  6934  6946       L1    16  0.74

> <Gold.PLP.Chemscore.Internal.Correction>
0.0158

> <Gold.Rescore>
     Score         DG    S(hbond)    S(metal)    S(lipo)     H(rot)  DE(clash)    DE(int)     intcor
     16.26     -18.69       2.31        0.00      80.83       1.55       0.08       2.35       ----

> <Gold.Chemscore.Fitness>
16.2551

> <Gold.Chemscore.DG>
-18.6858

> <Gold.Chemscore.ZeroCoef>
-5.4800

> <Gold.Chemscore.Hbond>
2.3106

> <Gold.Chemscore.Metal>
0.0000

> <Gold.Chemscore.Lipo>
80.8299

> <Gold.Chemscore.Internal_Hbond>
0.0000

> <Gold.Chemscore.DEClash>
0.0775

> <Gold.Chemscore.DEInternal>
2.3532

> <Gold.Chemscore.Rot>
1.5503

> <Gold.Chemscore.Internal.Correction>
   9.000000E+99

> <Gold.Chemscore.Hbonds>
donor molecule, donor type, donor heavy atom, donor atom, acceptor molecule, acceptor atom, score
      L1  H     5    22       P1  8029  0.91
      L1  H     8    23       P1  8029  0.56
      P1  H  6933  6944       L1     7  0.12
      P1  H  6934  6946       L1    16  0.10

> <Gold.Chemscore.Hbond.Weighted>
-7.7175

> <Gold.Chemscore.Metal.Weighted>
-0.0000

> <Gold.Chemscore.Lipo.Weighted>
-9.4571

> <Gold.Chemscore.Internal_Hbond.Weighted>
0.0000

> <Gold.Chemscore.DEClash.Weighted>
0.0775

> <Gold.Chemscore.DEInternal.Weighted>
2.3532

> <Gold.Chemscore.Rot.Weighted>
3.9687

> <Gold.Chemscore.Internal.Correction.Weighted>
   9.000000E+99

> <Gold.Protein.RotatedTorsions>
[ 6907 6896 6895 6894 ] final   52.85 input  -60.11 | X-H torsion
[ 7974 7965 7964 7962 ] final  -81.87 input  175.53 | X-H torsion
[ 8008 7997 7996 7995 ] final  -15.51 input   59.86 | X-H torsion
[ 10167 10162 10161 10158 ] final   11.30 input  -65.29 | X-H torsion
[ 10718 10713 10712 10709 ] final  -77.83 input   66.30 | X-H torsion
[ 10763 10752 10751 10750 ] final   -6.37 input  -60.55 | X-H torsion
[ 11005 11000 10999 10996 ] final  -42.13 input  -57.11 | X-H torsion

> <Gold.Protein.ActiveResidues>
 VAL166  LYS551  ARG553  GLY616  TRP617  ASP618  TYR619  PRO620  LYS621  CYS622 
 ASP623  PHE694  ASN695  SER759  ASP760  ASP761  ALA762  ILE779  LEU786  VAL792 
 PHE793  MET794  SER795  GLU796  ALA797  LYS798  CYS799  TRP800  GLU811  SER814 

> <Gold.Protein.RotatedAtoms>
  152.3275  134.7301  160.0297 H   0  0  0  0  0  0  0  0  0  0  0  0  # atno 6907 bound_to 6896
  151.7729  133.3337  159.3457 H   0  0  0  0  0  0  0  0  0  0  0  0  # atno 6908 bound_to 6896
  150.7404  134.5933  159.6043 H   0  0  0  0  0  0  0  0  0  0  0  0  # atno 6909 bound_to 6896
  145.5409  140.9509  143.1551 H   0  0  0  0  0  0  0  0  0  0  0  0  # atno 7974 bound_to 7965
  154.5125  140.2194  155.9130 H   0  0  0  0  0  0  0  0  0  0  0  0  # atno 8008 bound_to 7997
  156.1568  140.3150  155.8706 H   0  0  0  0  0  0  0  0  0  0  0  0  # atno 8009 bound_to 7997
  155.3830  140.0473  157.3034 H   0  0  0  0  0  0  0  0  0  0  0  0  # atno 8010 bound_to 7997
  140.6140  143.8347  150.7097 H   0  0  0  0  0  0  0  0  0  0  0  0  # atno 10167 bound_to 10162
  156.0134  130.4502  150.3404 H   0  0  0  0  0  0  0  0  0  0  0  0  # atno 10718 bound_to 10713
  153.4114  135.7007  153.6356 H   0  0  0  0  0  0  0  0  0  0  0  0  # atno 10763 bound_to 10752
  153.4849  135.3685  155.2462 H   0  0  0  0  0  0  0  0  0  0  0  0  # atno 10764 bound_to 10752
  154.8717  135.4075  154.3467 H   0  0  0  0  0  0  0  0  0  0  0  0  # atno 10765 bound_to 10752
  141.0294  133.6826  156.2553 H   0  0  0  0  0  0  0  0  0  0  0  0  # atno 11005 bound_to 11000
  144.7577  139.7033  143.7247 LP  0  0  0  0  0  0  0  0  0  0  0  0  # atno 17320 bound_to 7965
  146.1981  139.5260  142.9761 LP  0  0  0  0  0  0  0  0  0  0  0  0  # atno 17321 bound_to 7965
  140.1922  143.4027  152.1854 LP  0  0  0  0  0  0  0  0  0  0  0  0  # atno 17342 bound_to 10162
  139.5384  144.7232  151.4816 LP  0  0  0  0  0  0  0  0  0  0  0  0  # atno 17343 bound_to 10162
  157.1500  131.0318  151.2889 LP  0  0  0  0  0  0  0  0  0  0  0  0  # atno 17370 bound_to 10713
  157.4400  130.7539  149.7061 LP  0  0  0  0  0  0  0  0  0  0  0  0  # atno 17371 bound_to 10713
  140.6433  134.5143  157.5571 LP  0  0  0  0  0  0  0  0  0  0  0  0  # atno 17394 bound_to 11000
  139.9198  134.8172  156.1248 LP  0  0  0  0  0  0  0  0  0  0  0  0  # atno 17395 bound_to 11000

$$$$
