AV-unprocessed.smi:432|AV-procd|sdf|2549|dock8
  -GOLD-   2262022513D 1   1.00000     0.00000
 Structure written by MMmdl.
 31 32  0  0  0  0  0  0  0  0  1 V2000
  152.7423  140.2923  157.7241 O   0  0  0  0  0  0  0  0  0  0  0  0
  151.6019  140.7076  157.9364 C   0  0  0  0  0  0  0  0  0  0  0  0
  150.3722  139.8554  157.5877 C   0  0  0  0  0  0  0  0  0  0  0  0
  149.4390  140.5161  156.6622 N   0  0  0  0  0  0  0  0  0  0  0  0
  149.8865  140.5694  155.3537 N   0  0  0  0  0  0  0  0  0  0  0  0
  149.1459  141.1153  154.4518 C   0  0  0  0  0  0  0  0  0  0  0  0
  147.8511  141.6825  154.7574 C   0  0  0  0  0  0  0  0  0  0  0  0
  146.9009  142.3995  153.5041 Cl  0  0  0  0  0  0  0  0  0  0  0  0
  147.4244  141.6307  156.0443 C   0  0  0  0  0  0  0  0  0  0  0  0
  145.8864  142.2885  156.4874 Cl  0  0  0  0  0  0  0  0  0  0  0  0
  148.2438  141.0198  157.1002 C   0  0  0  0  0  0  0  0  0  0  0  0
  147.8954  140.9593  158.2802 O   0  0  0  0  0  0  0  0  0  0  0  0
  151.3461  141.9127  158.4672 N   0  0  0  0  0  0  0  0  0  0  0  0
  152.3574  142.8784  158.8895 C   0  0  0  0  0  0  0  0  0  0  0  0
  152.8432  142.5875  160.3234 C   0  0  0  0  0  0  0  0  0  0  0  0
  152.2556  143.6946  161.1990 C   0  0  0  0  0  0  0  0  0  0  0  0
  152.1711  144.8998  160.2681 C   0  0  0  0  0  0  0  0  0  0  0  0
  151.7771  144.3057  158.9147 C   0  0  0  0  0  0  0  0  0  0  0  0
  150.7001  138.9039  157.1646 H   0  0  0  0  0  0  0  0  0  0  0  0
  149.8639  139.6006  158.5194 H   0  0  0  0  0  0  0  0  0  0  0  0
  149.4562  141.1793  153.4088 H   0  0  0  0  0  0  0  0  0  0  0  0
  150.3808  142.1760  158.6031 H   0  0  0  0  0  0  0  0  0  0  0  0
  153.2076  142.8470  158.2054 H   0  0  0  0  0  0  0  0  0  0  0  0
  152.5697  141.5943  160.6829 H   0  0  0  0  0  0  0  0  0  0  0  0
  153.9320  142.6475  160.3518 H   0  0  0  0  0  0  0  0  0  0  0  0
  151.2539  143.4126  161.5263 H   0  0  0  0  0  0  0  0  0  0  0  0
  152.8554  143.8901  162.0883 H   0  0  0  0  0  0  0  0  0  0  0  0
  151.4648  145.6532  160.6176 H   0  0  0  0  0  0  0  0  0  0  0  0
  153.1514  145.3720  160.1908 H   0  0  0  0  0  0  0  0  0  0  0  0
  152.1404  144.9117  158.0840 H   0  0  0  0  0  0  0  0  0  0  0  0
  150.6886  144.2812  158.8418 H   0  0  0  0  0  0  0  0  0  0  0  0
  1  2  2  0  0  0  0
  2  3  1  0  0  0  0
  2 13  1  0  0  0  0
  3  4  1  0  0  0  0
  3 19  1  0  0  0  0
  3 20  1  0  0  0  0
  4 11  1  0  0  0  0
  4  5  1  0  0  0  0
  5  6  2  0  0  0  0
  6  7  1  0  0  0  0
  6 21  1  0  0  0  0
  7  8  1  0  0  0  0
  7  9  2  0  0  0  0
  9 10  1  0  0  0  0
  9 11  1  0  0  0  0
 11 12  2  0  0  0  0
 13 14  1  0  0  0  0
 13 22  1  0  0  0  0
 14 18  1  0  0  0  0
 14 15  1  0  0  0  0
 14 23  1  0  0  0  0
 15 16  1  0  0  0  0
 15 24  1  0  0  0  0
 15 25  1  0  0  0  0
 16 17  1  0  0  0  0
 16 26  1  0  0  0  0
 16 27  1  0  0  0  0
 17 18  1  0  0  0  0
 17 28  1  0  0  0  0
 17 29  1  0  0  0  0
 18 30  1  0  0  0  0
 18 31  1  0  0  0  0
M  END
> <s_m_source_file>
AV-unprocessed.smi

> <i_m_source_file_index>
432

> <i_lp_mmshare_version>
43012

> <i_f3d_flags>
0

> <s_epik_input>
W0NIMl0xW0NIMl1bQ0gyXVtDSDJdW0NIXTFbTkhdQyg9TylbQ0gyXW4ybltjSF1jKENsKWMoQ2wpYzI9Tw==

> <s_epik_cmdline>
J2VwaWtfcHl0aG9uJywgJy1waCcsICc3LjAnLCAnLXRuJywgJzgnLCAnLW1hJywgJzIwMCcsICctbWV0YWxfYmluZGluZycsICctaW1hZScsICc8aW5maWxlLm1hZT4nLCAnLW9tYWUnLCAnPG91dGZpbGUubWFlPic=

> <r_lp_tautomer_probability>
1

> <r_epik_Ionization_Penalty>
1.93318e-08

> <r_epik_Ionization_Penalty_Charging>
3.01013e-11

> <r_epik_Ionization_Penalty_Neutral>
1.93017e-08

> <r_epik_State_Penalty>
-0

> <r_epik_Charging_Adjusted_Penalty>
3.01013e-11

> <i_epik_Tot_Q>
0

> <i_epik_Tot_abs_Q>
0

> <r_epik_Metal_State_Penalty>
-0

> <b_epik_Metal_Only>
0

> <s_lp_Force_Field>
OPLS_2005

> <r_lp_Energy>
31.6968

> <b_lp_Chiralities_Consistent>
1

> <s_lp_Variant>
AV-unprocessed.smi:432-1

> <Gold.Version>
5.8.1

> <Gold.Id.Protein>
6NUR|6NUR_protein|mol2

> <Gold.PLP.Fitness>
40.9475

> <Gold.PLP.PLP>
-36.0893

> <Gold.PLP.part.hbond>
-2.0000

> <Gold.PLP.part.metal>
0.0000

> <Gold.PLP.part.buried>
-5.0554

> <Gold.PLP.part.nonpolar>
-28.3968

> <Gold.PLP.part.repulsive>
0.1709

> <Gold.PLP.ligand.clash>
0.0000

> <Gold.PLP.ligand.torsion>
0.5126

> <Gold.PLP.Chemscore.Hbond>
0.9600

> <Gold.PLP.Chemscore.CHOScore>
1.0000

> <Gold.PLP.Chemscore.Metal>
0.0000

> <Gold.Chemscore.Hbonds>
donor molecule, donor type, donor heavy atom, donor atom, acceptor molecule, acceptor atom, score
      P1  H  7997  8008       L1     1  0.96
      L1  C     6    21       P1  7957  1.00

> <Gold.PLP.Chemscore.Internal.Correction>
0.0035

> <Gold.Rescore>
     Score         DG    S(hbond)    S(metal)    S(lipo)     H(rot)  DE(clash)    DE(int)     intcor
     15.02     -15.63       0.98        0.00      92.39       1.53       0.04       0.56       ----

> <Gold.Chemscore.Fitness>
15.0240

> <Gold.Chemscore.DG>
-15.6300

> <Gold.Chemscore.ZeroCoef>
-5.4800

> <Gold.Chemscore.Hbond>
0.9755

> <Gold.Chemscore.Metal>
0.0000

> <Gold.Chemscore.Lipo>
92.3895

> <Gold.Chemscore.Internal_Hbond>
0.0000

> <Gold.Chemscore.DEClash>
0.0420

> <Gold.Chemscore.DEInternal>
0.5640

> <Gold.Chemscore.Rot>
1.5303

> <Gold.Chemscore.Internal.Correction>
   9.000000E+99

> <Gold.Chemscore.Hbonds>
donor molecule, donor type, donor heavy atom, donor atom, acceptor molecule, acceptor atom, score
      P1  H  7997  8008       L1     1  0.92

> <Gold.Chemscore.Hbond.Weighted>
-3.2581

> <Gold.Chemscore.Metal.Weighted>
-0.0000

> <Gold.Chemscore.Lipo.Weighted>
-10.8096

> <Gold.Chemscore.Internal_Hbond.Weighted>
0.0000

> <Gold.Chemscore.DEClash.Weighted>
0.0420

> <Gold.Chemscore.DEInternal.Weighted>
0.5640

> <Gold.Chemscore.Rot.Weighted>
3.9176

> <Gold.Chemscore.Internal.Correction.Weighted>
   9.000000E+99

> <Gold.Protein.RotatedTorsions>
[ 6907 6896 6895 6894 ] final  120.01 input  -60.11 | X-H torsion
[ 7974 7965 7964 7962 ] final -110.87 input  175.53 | X-H torsion
[ 8008 7997 7996 7995 ] final  -71.63 input   59.86 | X-H torsion
[ 10167 10162 10161 10158 ] final  -22.86 input  -65.29 | X-H torsion
[ 10718 10713 10712 10709 ] final -130.32 input   66.30 | X-H torsion
[ 10763 10752 10751 10750 ] final  -64.70 input  -60.55 | X-H torsion
[ 11005 11000 10999 10996 ] final   93.04 input  -57.11 | X-H torsion

> <Gold.Protein.ActiveResidues>
 VAL166  LYS551  ARG553  GLY616  TRP617  ASP618  TYR619  PRO620  LYS621  CYS622 
 ASP623  PHE694  ASN695  SER759  ASP760  ASP761  ALA762  ILE779  LEU786  VAL792 
 PHE793  MET794  SER795  GLU796  ALA797  LYS798  CYS799  TRP800  GLU811  SER814 

> <Gold.Protein.RotatedAtoms>
  152.4430  133.7483  159.6679 H   0  0  0  0  0  0  0  0  0  0  0  0  # atno 6907 bound_to 6896
  150.8324  133.8059  159.3099 H   0  0  0  0  0  0  0  0  0  0  0  0  # atno 6908 bound_to 6896
  151.5709  135.1065  160.0046 H   0  0  0  0  0  0  0  0  0  0  0  0  # atno 6909 bound_to 6896
  145.1630  140.8888  143.3580 H   0  0  0  0  0  0  0  0  0  0  0  0  # atno 7974 bound_to 7965
  154.5103  140.0812  156.7976 H   0  0  0  0  0  0  0  0  0  0  0  0  # atno 8008 bound_to 7997
  155.3800  140.3427  155.4228 H   0  0  0  0  0  0  0  0  0  0  0  0  # atno 8009 bound_to 7997
  156.1565  140.1575  156.8671 H   0  0  0  0  0  0  0  0  0  0  0  0  # atno 8010 bound_to 7997
  140.7287  143.4496  151.0536 H   0  0  0  0  0  0  0  0  0  0  0  0  # atno 10167 bound_to 10162
  156.2133  130.6932  151.0674 H   0  0  0  0  0  0  0  0  0  0  0  0  # atno 10718 bound_to 10713
  154.3340  135.6171  153.5564 H   0  0  0  0  0  0  0  0  0  0  0  0  # atno 10763 bound_to 10752
  152.9809  135.5753  154.4929 H   0  0  0  0  0  0  0  0  0  0  0  0  # atno 10764 bound_to 10752
  154.4621  135.2856  155.1682 H   0  0  0  0  0  0  0  0  0  0  0  0  # atno 10765 bound_to 10752
  139.8815  134.8767  156.3660 H   0  0  0  0  0  0  0  0  0  0  0  0  # atno 11005 bound_to 11000
  145.0311  139.3340  143.6024 LP  0  0  0  0  0  0  0  0  0  0  0  0  # atno 17320 bound_to 7965
  146.3480  139.9649  142.8713 LP  0  0  0  0  0  0  0  0  0  0  0  0  # atno 17321 bound_to 7965
  139.8171  143.7871  152.3175 LP  0  0  0  0  0  0  0  0  0  0  0  0  # atno 17342 bound_to 10162
  139.7941  144.7399  150.9915 LP  0  0  0  0  0  0  0  0  0  0  0  0  # atno 17343 bound_to 10162
  157.7050  131.0760  150.6697 LP  0  0  0  0  0  0  0  0  0  0  0  0  # atno 17370 bound_to 10713
  156.6758  130.4552  149.5643 LP  0  0  0  0  0  0  0  0  0  0  0  0  # atno 17371 bound_to 10713
  140.9497  133.7459  156.0255 LP  0  0  0  0  0  0  0  0  0  0  0  0  # atno 17394 bound_to 11000
  140.8121  134.3387  157.5408 LP  0  0  0  0  0  0  0  0  0  0  0  0  # atno 17395 bound_to 11000

$$$$
