AV-unprocessed.smi:72|AV-procd|sdf|710|dock8
  -GOLD-   2262017 33D 1   1.00000     0.00000
 Structure written by MMmdl.
 30 31  0  0  0  0  0  0  0  0  2 V2000
  144.6912  138.5136  153.5902 N   0  0  0  0  0  0  0  0  0  0  0  0
  144.7609  137.1657  153.3058 C   0  0  0  0  0  0  0  0  0  0  0  0
  144.3846  136.7560  152.0389 N   0  3  0  0  0  0  0  0  0  0  0  0
  144.3841  135.4868  151.6083 C   0  0  0  0  0  0  0  0  0  0  0  0
  144.7545  134.5312  152.4353 N   0  0  0  0  0  0  0  0  0  0  0  0
  144.7626  133.0942  151.9936 C   0  0  1  0  0  0  0  0  0  0  0  0
  143.9135  132.9865  150.8916 O   0  0  0  0  0  0  0  0  0  0  0  0
  144.5482  132.2419  149.8574 C   0  0  1  0  0  0  0  0  0  0  0  0
  143.9631  132.6368  148.4927 C   0  0  0  0  0  0  0  0  0  0  0  0
  142.6147  132.2290  148.4099 O   0  0  0  0  0  0  0  0  0  0  0  0
  146.0170  132.6298  150.0311 C   0  0  2  0  0  0  0  0  0  0  0  0
  146.9065  131.7228  149.4082 O   0  0  0  0  0  0  0  0  0  0  0  0
  146.1738  132.6832  151.5472 C   0  0  2  0  0  0  0  0  0  0  0  0
  146.5348  131.4319  152.1017 O   0  0  0  0  0  0  0  0  0  0  0  0
  145.1888  134.8556  153.7458 C   0  0  0  0  0  0  0  0  0  0  0  0
  145.5795  133.9749  154.5108 O   0  0  0  0  0  0  0  0  0  0  0  0
  145.1520  136.2112  154.1045 N   0  0  0  0  0  0  0  0  0  0  0  0
  144.3606  132.5054  152.8201 H   0  0  0  0  0  0  0  0  0  0  0  0
  144.4232  131.1743  150.0501 H   0  0  0  0  0  0  0  0  0  0  0  0
  146.1827  133.6268  149.6202 H   0  0  0  0  0  0  0  0  0  0  0  0
  146.9173  133.4214  151.8514 H   0  0  0  0  0  0  0  0  0  0  0  0
  144.9489  138.9044  154.4859 H   0  0  0  0  0  0  0  0  0  0  0  0
  144.3737  139.2133  152.9347 H   0  0  0  0  0  0  0  0  0  0  0  0
  144.0863  135.2659  150.5909 H   0  0  0  0  0  0  0  0  0  0  0  0
  144.0475  133.7095  148.3179 H   0  0  0  0  0  0  0  0  0  0  0  0
  144.5060  132.1337  147.6919 H   0  0  0  0  0  0  0  0  0  0  0  0
  142.0705  132.9080  148.7791 H   0  0  0  0  0  0  0  0  0  0  0  0
  147.6448  131.5803  149.9813 H   0  0  0  0  0  0  0  0  0  0  0  0
  147.3576  131.1601  151.7237 H   0  0  0  0  0  0  0  0  0  0  0  0
  144.0861  137.4720  151.3919 H   0  0  0  0  0  0  0  0  0  0  0  0
  1  2  1  0  0  0  0
  1 22  1  0  0  0  0
  1 23  1  0  0  0  0
  2 17  2  0  0  0  0
  2  3  1  0  0  0  0
  3  4  2  0  0  0  0
  3 30  1  0  0  0  0
  4  5  1  0  0  0  0
  4 24  1  0  0  0  0
  5  6  1  0  0  0  0
  5 15  1  0  0  0  0
  6 18  1  0  0  0  0
  6 13  1  0  0  0  0
  6  7  1  0  0  0  0
  7  8  1  0  0  0  0
  8 19  1  0  0  0  0
  8  9  1  0  0  0  0
  8 11  1  0  0  0  0
  9 10  1  0  0  0  0
  9 25  1  0  0  0  0
  9 26  1  0  0  0  0
 10 27  1  0  0  0  0
 11 20  1  0  0  0  0
 11 12  1  0  0  0  0
 11 13  1  0  0  0  0
 12 28  1  0  0  0  0
 13 21  1  0  0  0  0
 13 14  1  0  0  0  0
 14 29  1  0  0  0  0
 15 16  2  0  0  0  0
 15 17  1  0  0  0  0
M  CHG  1   3   1
M  END
> <s_m_source_file>
AV-unprocessed.smi

> <i_m_source_file_index>
72

> <i_lp_mmshare_version>
43012

> <i_f3d_flags>
0

> <s_epik_input>
W05IMl1jMW5bY0hdbihjKD1PKW4xKVtDQEBIXTJPW0NASF0oW0NIMl1bT0hdKVtDQEBIXShbT0hdKVtDQEhdMltPSF0=

> <s_epik_cmdline>
J2VwaWtfcHl0aG9uJywgJy1waCcsICc3LjAnLCAnLXRuJywgJzgnLCAnLW1hJywgJzIwMCcsICctbWV0YWxfYmluZGluZycsICctaW1hZScsICc8aW5maWxlLm1hZT4nLCAnLW9tYWUnLCAnPG91dGZpbGUubWFlPic=

> <r_lp_tautomer_probability>
4.77166e-05

> <r_epik_Ionization_Penalty>
0.104979

> <r_epik_Ionization_Penalty_Charging>
0.0999619

> <r_epik_Ionization_Penalty_Neutral>
0.00501745

> <r_epik_State_Penalty>
2.51541

> <r_epik_Charging_Adjusted_Penalty>
2.61537

> <i_epik_Tot_Q>
1

> <i_epik_Tot_abs_Q>
1

> <r_epik_Metal_State_Penalty>
3.53763

> <b_epik_Metal_Only>
0

> <s_epik_Chemistry_Notes>
This compound contains an acetal/aminal-like group ( X-CH(R)-Y where X, Y are N, S, or O) that may be acid/base labile, releasing an aldehyde.

> <s_lp_Force_Field>
OPLS_2005

> <r_lp_Energy>
34.5988

> <b_lp_Chiralities_Consistent>
1

> <s_lp_Variant>
AV-unprocessed.smi:72-48

> <Gold.Version>
5.8.1

> <Gold.Id.Protein>
6NUR|6NUR_protein|mol2

> <Gold.PLP.Fitness>
43.9155

> <Gold.PLP.PLP>
-29.3415

> <Gold.PLP.part.hbond>
-7.9361

> <Gold.PLP.part.metal>
0.0000

> <Gold.PLP.part.buried>
-5.7082

> <Gold.PLP.part.nonpolar>
-16.8247

> <Gold.PLP.part.repulsive>
0.3429

> <Gold.PLP.ligand.clash>
0.0000

> <Gold.PLP.ligand.torsion>
0.6100

> <Gold.PLP.Chemscore.Hbond>
5.2583

> <Gold.PLP.Chemscore.CHOScore>
0.0000

> <Gold.PLP.Chemscore.Metal>
0.0000

> <Gold.Chemscore.Hbonds>
donor molecule, donor type, donor heavy atom, donor atom, acceptor molecule, acceptor atom, score
      L1  H     1    23       P1 10175  0.93
      L1  H     3    30       P1 10171  1.00
      L1  H    10    27       P1 10186  1.00
      L1  H    12    28       P1 10747  0.95
      L1  H    14    29       P1 10747  0.60
      P1  H 10785 10796       L1    10  0.31

> <Gold.PLP.Chemscore.Internal.Correction>
0.0189

> <Gold.Rescore>
     Score         DG    S(hbond)    S(metal)    S(lipo)     H(rot)  DE(clash)    DE(int)     intcor
     16.06     -16.78       4.92        0.00      45.39       4.08       0.02       0.70       ----

> <Gold.Chemscore.Fitness>
16.0625

> <Gold.Chemscore.DG>
-16.7792

> <Gold.Chemscore.ZeroCoef>
-5.4800

> <Gold.Chemscore.Hbond>
4.9187

> <Gold.Chemscore.Metal>
0.0000

> <Gold.Chemscore.Lipo>
45.3931

> <Gold.Chemscore.Internal_Hbond>
0.0000

> <Gold.Chemscore.DEClash>
0.0158

> <Gold.Chemscore.DEInternal>
0.7009

> <Gold.Chemscore.Rot>
4.0783

> <Gold.Chemscore.Internal.Correction>
   9.000000E+99

> <Gold.Chemscore.Hbonds>
donor molecule, donor type, donor heavy atom, donor atom, acceptor molecule, acceptor atom, score
      L1  H     1    23       P1 10175  0.88
      L1  H     3    30       P1 10171  0.99
      L1  H    10    27       P1 10186  0.97
      L1  H    12    28       P1 10747  0.85
      L1  H    14    29       P1 10747  0.60
      P1  H 10785 10796       L1    10  0.02

> <Gold.Chemscore.Hbond.Weighted>
-16.4286

> <Gold.Chemscore.Metal.Weighted>
-0.0000

> <Gold.Chemscore.Lipo.Weighted>
-5.3110

> <Gold.Chemscore.Internal_Hbond.Weighted>
0.0000

> <Gold.Chemscore.DEClash.Weighted>
0.0158

> <Gold.Chemscore.DEInternal.Weighted>
0.7009

> <Gold.Chemscore.Rot.Weighted>
10.4404

> <Gold.Chemscore.Internal.Correction.Weighted>
   9.000000E+99

> <Gold.Protein.RotatedTorsions>
[ 6907 6896 6895 6894 ] final   56.82 input  -60.11 | X-H torsion
[ 7974 7965 7964 7962 ] final -115.75 input  175.53 | X-H torsion
[ 8008 7997 7996 7995 ] final  -51.16 input   59.86 | X-H torsion
[ 10167 10162 10161 10158 ] final  149.64 input  -65.29 | X-H torsion
[ 10718 10713 10712 10709 ] final   99.90 input   66.30 | X-H torsion
[ 10763 10752 10751 10750 ] final -149.49 input  -60.55 | X-H torsion
[ 11005 11000 10999 10996 ] final  -12.58 input  -57.11 | X-H torsion

> <Gold.Protein.ActiveResidues>
 VAL166  LYS551  ARG553  GLY616  TRP617  ASP618  TYR619  PRO620  LYS621  CYS622 
 ASP623  PHE694  ASN695  SER759  ASP760  ASP761  ALA762  ILE779  LEU786  VAL792 
 PHE793  MET794  SER795  GLU796  ALA797  LYS798  CYS799  TRP800  GLU811  SER814 

> <Gold.Protein.RotatedAtoms>
  152.3673  134.6785  160.0187 H   0  0  0  0  0  0  0  0  0  0  0  0  # atno 6907 bound_to 6896
  151.7089  133.3306  159.3294 H   0  0  0  0  0  0  0  0  0  0  0  0  # atno 6908 bound_to 6896
  150.7648  134.6484  159.6319 H   0  0  0  0  0  0  0  0  0  0  0  0  # atno 6909 bound_to 6896
  145.1047  140.8574  143.3905 H   0  0  0  0  0  0  0  0  0  0  0  0  # atno 7974 bound_to 7965
  154.4077  140.1254  156.4784 H   0  0  0  0  0  0  0  0  0  0  0  0  # atno 8008 bound_to 7997
  155.7109  140.3494  155.4954 H   0  0  0  0  0  0  0  0  0  0  0  0  # atno 8009 bound_to 7997
  155.9301  140.1068  157.1129 H   0  0  0  0  0  0  0  0  0  0  0  0  # atno 8010 bound_to 7997
  139.4859  144.5586  151.7272 H   0  0  0  0  0  0  0  0  0  0  0  0  # atno 10167 bound_to 10162
  157.6866  131.0683  150.5018 H   0  0  0  0  0  0  0  0  0  0  0  0  # atno 10718 bound_to 10713
  154.8174  135.3308  154.7136 H   0  0  0  0  0  0  0  0  0  0  0  0  # atno 10763 bound_to 10752
  153.7775  135.6921  153.4899 H   0  0  0  0  0  0  0  0  0  0  0  0  # atno 10764 bound_to 10752
  153.2003  135.4518  155.0206 H   0  0  0  0  0  0  0  0  0  0  0  0  # atno 10765 bound_to 10752
  140.7672  133.8467  155.9176 H   0  0  0  0  0  0  0  0  0  0  0  0  # atno 11005 bound_to 11000
  145.0915  139.2887  143.5732 LP  0  0  0  0  0  0  0  0  0  0  0  0  # atno 17320 bound_to 7965
  146.3528  140.0453  142.8640 LP  0  0  0  0  0  0  0  0  0  0  0  0  # atno 17321 bound_to 7965
  140.5152  144.0964  150.6006 LP  0  0  0  0  0  0  0  0  0  0  0  0  # atno 17342 bound_to 10162
  140.3903  143.2756  152.0067 LP  0  0  0  0  0  0  0  0  0  0  0  0  # atno 17343 bound_to 10162
  156.5339  130.4191  149.6187 LP  0  0  0  0  0  0  0  0  0  0  0  0  # atno 17370 bound_to 10713
  156.3045  130.7195  151.2074 LP  0  0  0  0  0  0  0  0  0  0  0  0  # atno 17371 bound_to 10713
  140.9607  134.1659  157.4656 LP  0  0  0  0  0  0  0  0  0  0  0  0  # atno 17394 bound_to 11000
  139.8761  134.9944  156.5690 LP  0  0  0  0  0  0  0  0  0  0  0  0  # atno 17395 bound_to 11000

$$$$
