AV-unprocessed.smi:3291|AV-procd|sdf|12619|dock5
  -GOLD-   2272018553D 1   1.00000     0.00000
 Structure written by MMmdl.
 43 45  0  0  0  0  0  0  0  0  2 V2000
  150.0660  130.7655  154.5040 C   0  0  0  0  0  0  0  0  0  0  0  0
  150.0514  131.8232  155.5706 C   0  0  0  0  0  0  0  0  0  0  0  0
  150.5003  131.5327  156.7790 N   0  0  0  0  0  0  0  0  0  0  0  0
  150.3605  132.7028  157.5290 O   0  0  0  0  0  0  0  0  0  0  0  0
  149.8274  133.6651  156.7347 C   0  0  0  0  0  0  0  0  0  0  0  0
  149.6066  134.9938  157.3784 C   0  0  0  0  0  0  0  0  0  0  0  0
  149.6013  133.1727  155.4746 C   0  0  0  0  0  0  0  0  0  0  0  0
  149.0248  133.8516  154.2520 C   0  0  2  0  0  0  0  0  0  0  0  0
  148.1805  135.0680  154.6707 C   0  0  0  0  0  0  0  0  0  0  0  0
  148.2258  132.8564  153.3889 C   0  0  0  0  0  0  0  0  0  0  0  0
  147.6666  133.5022  152.1825 N   0  3  0  0  0  0  0  0  0  0  0  0
  146.1898  133.5259  152.1101 C   0  0  0  0  0  0  0  0  0  0  0  0
  145.7458  132.7753  150.8676 C   0  0  0  0  0  0  0  0  0  0  0  0
  144.3078  132.3466  150.6852 C   0  0  0  0  0  0  0  0  0  0  0  0
  145.3790  131.3106  150.9292 C   0  0  0  0  0  0  0  0  0  0  0  0
  145.6748  134.9576  152.0919 C   0  0  0  0  0  0  0  0  0  0  0  0
  144.3888  135.3259  151.3860 C   0  0  0  0  0  0  0  0  0  0  0  0
  145.7124  135.7839  150.8259 C   0  0  0  0  0  0  0  0  0  0  0  0
  150.6877  131.0711  153.6624 H   0  0  0  0  0  0  0  0  0  0  0  0
  149.0607  130.5808  154.1250 H   0  0  0  0  0  0  0  0  0  0  0  0
  150.4570  129.8180  154.8771 H   0  0  0  0  0  0  0  0  0  0  0  0
  149.8851  135.8070  156.7091 H   0  0  0  0  0  0  0  0  0  0  0  0
  150.2023  135.0922  158.2864 H   0  0  0  0  0  0  0  0  0  0  0  0
  148.5588  135.1209  157.6505 H   0  0  0  0  0  0  0  0  0  0  0  0
  149.8414  134.2273  153.6341 H   0  0  0  0  0  0  0  0  0  0  0  0
  148.7732  135.7681  155.2607 H   0  0  0  0  0  0  0  0  0  0  0  0
  147.3208  134.7745  155.2727 H   0  0  0  0  0  0  0  0  0  0  0  0
  147.8052  135.6135  153.8047 H   0  0  0  0  0  0  0  0  0  0  0  0
  148.8753  132.0388  153.0725 H   0  0  0  0  0  0  0  0  0  0  0  0
  147.4185  132.4183  153.9736 H   0  0  0  0  0  0  0  0  0  0  0  0
  148.0097  134.4504  152.1263 H   0  0  0  0  0  0  0  0  0  0  0  0
  145.7830  133.0111  152.9824 H   0  0  0  0  0  0  0  0  0  0  0  0
  146.2524  133.0983  149.9596 H   0  0  0  0  0  0  0  0  0  0  0  0
  143.6073  132.5348  151.4963 H   0  0  0  0  0  0  0  0  0  0  0  0
  143.8886  132.4121  149.6833 H   0  0  0  0  0  0  0  0  0  0  0  0
  145.6711  130.6834  150.0894 H   0  0  0  0  0  0  0  0  0  0  0  0
  145.3908  130.8226  151.9018 H   0  0  0  0  0  0  0  0  0  0  0  0
  145.8918  135.5082  153.0059 H   0  0  0  0  0  0  0  0  0  0  0  0
  143.8613  134.5415  150.8465 H   0  0  0  0  0  0  0  0  0  0  0  0
  143.7544  136.0731  151.8587 H   0  0  0  0  0  0  0  0  0  0  0  0
  145.9619  136.8386  150.9224 H   0  0  0  0  0  0  0  0  0  0  0  0
  146.0532  135.3073  149.9093 H   0  0  0  0  0  0  0  0  0  0  0  0
  148.0067  132.9909  151.3807 H   0  0  0  0  0  0  0  0  0  0  0  0
  1  2  1  0  0  0  0
  1 19  1  0  0  0  0
  1 20  1  0  0  0  0
  1 21  1  0  0  0  0
  2  7  1  0  0  0  0
  2  3  2  0  0  0  0
  3  4  1  0  0  0  0
  4  5  1  0  0  0  0
  5  6  1  0  0  0  0
  5  7  2  0  0  0  0
  6 22  1  0  0  0  0
  6 23  1  0  0  0  0
  6 24  1  0  0  0  0
  7  8  1  0  0  0  0
  8  9  1  0  0  0  0
  8 10  1  0  0  0  0
  8 25  1  0  0  0  0
  9 26  1  0  0  0  0
  9 27  1  0  0  0  0
  9 28  1  0  0  0  0
 10 11  1  0  0  0  0
 10 29  1  0  0  0  0
 10 30  1  0  0  0  0
 11 12  1  0  0  0  0
 11 31  1  0  0  0  0
 11 43  1  0  0  0  0
 12 13  1  0  0  0  0
 12 16  1  0  0  0  0
 12 32  1  0  0  0  0
 13 15  1  0  0  0  0
 13 14  1  0  0  0  0
 13 33  1  0  0  0  0
 14 15  1  0  0  0  0
 14 34  1  0  0  0  0
 14 35  1  0  0  0  0
 15 36  1  0  0  0  0
 15 37  1  0  0  0  0
 16 18  1  0  0  0  0
 16 17  1  0  0  0  0
 16 38  1  0  0  0  0
 17 18  1  0  0  0  0
 17 39  1  0  0  0  0
 17 40  1  0  0  0  0
 18 41  1  0  0  0  0
 18 42  1  0  0  0  0
M  CHG  1  11   1
M  END
> <s_m_source_file>
AV-unprocessed.smi

> <i_m_source_file_index>
3291

> <i_lp_mmshare_version>
43012

> <i_f3d_flags>
0

> <s_epik_input>
W0NIM11jMW5vYyhbQ0gzXSljMVtDQEhdKFtDSDNdKVtDSDJdW05IXVtDSF0oW0NIXTJbQ0gyXVtDSDJdMilbQ0hdM1tDSDJdW0NIMl0z

> <s_epik_cmdline>
J2VwaWtfcHl0aG9uJywgJy1waCcsICc3LjAnLCAnLXRuJywgJzgnLCAnLW1hJywgJzIwMCcsICctbWV0YWxfYmluZGluZycsICctaW1hZScsICc8aW5maWxlLm1hZT4nLCAnLW9tYWUnLCAnPG91dGZpbGUubWFlPic=

> <r_lp_tautomer_probability>
1

> <r_epik_Ionization_Penalty>
0.000158108

> <r_epik_Ionization_Penalty_Charging>
0.000158108

> <r_epik_Ionization_Penalty_Neutral>
1.14678e-10

> <r_epik_State_Penalty>
-0

> <r_epik_Charging_Adjusted_Penalty>
0.000158108

> <i_epik_Tot_Q>
1

> <i_epik_Tot_abs_Q>
1

> <r_epik_Metal_State_Penalty>
-0

> <b_epik_Metal_Only>
0

> <s_lp_Force_Field>
OPLS_2005

> <r_lp_Energy>
25.2548

> <b_lp_Chiralities_Consistent>
1

> <s_lp_Variant>
AV-unprocessed.smi:3291-1

> <Gold.Version>
5.8.1

> <Gold.Id.Protein>
6NUR|6NUR_protein|mol2

> <Gold.PLP.Fitness>
38.2357

> <Gold.PLP.PLP>
-32.8195

> <Gold.PLP.part.hbond>
-2.0000

> <Gold.PLP.part.metal>
0.0000

> <Gold.PLP.part.buried>
-3.2761

> <Gold.PLP.part.nonpolar>
-26.3058

> <Gold.PLP.part.repulsive>
0.0313

> <Gold.PLP.ligand.clash>
0.0000

> <Gold.PLP.ligand.torsion>
2.9084

> <Gold.PLP.Chemscore.Hbond>
3.0000

> <Gold.PLP.Chemscore.CHOScore>
0.0000

> <Gold.PLP.Chemscore.Metal>
0.0000

> <Gold.Chemscore.Hbonds>
donor molecule, donor type, donor heavy atom, donor atom, acceptor molecule, acceptor atom, score
      L1  H    11    31       P1  7948  1.80
      P1  H  6896  6909       L1     4  1.00

> <Gold.PLP.Chemscore.Internal.Correction>
2.2329

> <Gold.Rescore>
     Score         DG    S(hbond)    S(metal)    S(lipo)     H(rot)  DE(clash)    DE(int)     intcor
     12.34     -16.45       1.72        0.00      77.52       1.50       0.00       4.10       ----

> <Gold.Chemscore.Fitness>
12.3407

> <Gold.Chemscore.DG>
-16.4460

> <Gold.Chemscore.ZeroCoef>
-5.4800

> <Gold.Chemscore.Hbond>
1.7186

> <Gold.Chemscore.Metal>
0.0000

> <Gold.Chemscore.Lipo>
77.5182

> <Gold.Chemscore.Internal_Hbond>
0.0000

> <Gold.Chemscore.DEClash>
0.0004

> <Gold.Chemscore.DEInternal>
4.1048

> <Gold.Chemscore.Rot>
1.5015

> <Gold.Chemscore.Internal.Correction>
   9.000000E+99

> <Gold.Chemscore.Hbonds>
donor molecule, donor type, donor heavy atom, donor atom, acceptor molecule, acceptor atom, score
      L1  H    11    31       P1  7948  0.17
      P1  H  6896  6909       L1     4  0.82

> <Gold.Chemscore.Hbond.Weighted>
-5.7402

> <Gold.Chemscore.Metal.Weighted>
-0.0000

> <Gold.Chemscore.Lipo.Weighted>
-9.0696

> <Gold.Chemscore.Internal_Hbond.Weighted>
0.0000

> <Gold.Chemscore.DEClash.Weighted>
0.0004

> <Gold.Chemscore.DEInternal.Weighted>
4.1048

> <Gold.Chemscore.Rot.Weighted>
3.8438

> <Gold.Chemscore.Internal.Correction.Weighted>
   9.000000E+99

> <Gold.Protein.RotatedTorsions>
[ 6907 6896 6895 6894 ] final  -29.94 input  -60.11 | X-H torsion
[ 7974 7965 7964 7962 ] final   43.55 input  175.53 | X-H torsion
[ 8008 7997 7996 7995 ] final  -85.73 input   59.86 | X-H torsion
[ 10167 10162 10161 10158 ] final  -93.27 input  -65.29 | X-H torsion
[ 10718 10713 10712 10709 ] final   20.23 input   66.30 | X-H torsion
[ 10763 10752 10751 10750 ] final   27.26 input  -60.55 | X-H torsion
[ 11005 11000 10999 10996 ] final -142.05 input  -57.11 | X-H torsion

> <Gold.Protein.ActiveResidues>
 VAL166  LYS551  ARG553  GLY616  TRP617  ASP618  TYR619  PRO620  LYS621  CYS622 
 ASP623  PHE694  ASN695  SER759  ASP760  ASP761  ALA762  ILE779  LEU786  VAL792 
 PHE793  MET794  SER795  GLU796  ALA797  LYS798  CYS799  TRP800  GLU811  SER814 

> <Gold.Protein.RotatedAtoms>
  151.1123  135.0033  159.8499 H   0  0  0  0  0  0  0  0  0  0  0  0  # atno 6907 bound_to 6896
  152.5444  134.1821  159.8650 H   0  0  0  0  0  0  0  0  0  0  0  0  # atno 6908 bound_to 6896
  151.1872  133.4644  159.2627 H   0  0  0  0  0  0  0  0  0  0  0  0  # atno 6909 bound_to 6896
  146.0645  139.5174  142.9637 H   0  0  0  0  0  0  0  0  0  0  0  0  # atno 7974 bound_to 7965
  154.6440  140.0587  156.9878 H   0  0  0  0  0  0  0  0  0  0  0  0  # atno 8008 bound_to 7997
  155.1473  140.3271  155.4420 H   0  0  0  0  0  0  0  0  0  0  0  0  # atno 8009 bound_to 7997
  156.2544  140.1953  156.6586 H   0  0  0  0  0  0  0  0  0  0  0  0  # atno 8010 bound_to 7997
  140.3263  143.3020  151.9991 H   0  0  0  0  0  0  0  0  0  0  0  0  # atno 10167 bound_to 10162
  157.1216  130.6552  149.5925 H   0  0  0  0  0  0  0  0  0  0  0  0  # atno 10718 bound_to 10713
  153.0567  135.6541  154.0560 H   0  0  0  0  0  0  0  0  0  0  0  0  # atno 10763 bound_to 10752
  154.0236  135.2917  155.3379 H   0  0  0  0  0  0  0  0  0  0  0  0  # atno 10764 bound_to 10752
  154.6886  135.5292  153.8428 H   0  0  0  0  0  0  0  0  0  0  0  0  # atno 10765 bound_to 10752
  140.8264  134.2570  157.4877 H   0  0  0  0  0  0  0  0  0  0  0  0  # atno 11005 bound_to 11000
  145.6501  141.0265  143.1765 LP  0  0  0  0  0  0  0  0  0  0  0  0  # atno 17320 bound_to 7965
  144.7194  139.8081  143.7387 LP  0  0  0  0  0  0  0  0  0  0  0  0  # atno 17321 bound_to 7965
  139.4864  144.6271  151.7143 LP  0  0  0  0  0  0  0  0  0  0  0  0  # atno 17342 bound_to 10162
  140.5438  144.0537  150.6099 LP  0  0  0  0  0  0  0  0  0  0  0  0  # atno 17343 bound_to 10162
  155.9827  130.4843  150.6896 LP  0  0  0  0  0  0  0  0  0  0  0  0  # atno 17370 bound_to 10713
  157.4472  131.0868  151.0884 LP  0  0  0  0  0  0  0  0  0  0  0  0  # atno 17371 bound_to 10713
  139.8706  134.9563  156.4232 LP  0  0  0  0  0  0  0  0  0  0  0  0  # atno 17394 bound_to 11000
  140.9045  133.7756  155.9718 LP  0  0  0  0  0  0  0  0  0  0  0  0  # atno 17395 bound_to 11000

$$$$
