AV-unprocessed.smi:651|AV-procd|sdf|3186|dock3
  -GOLD-   22720 0113D 1   1.00000     0.00000
 Structure written by MMmdl.
 38 39  0  0  0  0  0  0  0  0  1 V2000
  151.8683  145.7812  160.1266 C   0  0  0  0  0  0  0  0  0  0  0  0
  151.8683  144.4341  159.4346 C   0  0  0  0  0  0  0  0  0  0  0  0
  151.2243  144.2650  158.1909 C   0  0  0  0  0  0  0  0  0  0  0  0
  151.2641  142.9960  157.5823 C   0  0  0  0  0  0  0  0  0  0  0  0
  151.9434  141.9483  158.2376 C   0  0  0  0  0  0  0  0  0  0  0  0
  152.0259  140.5629  157.6173 C   0  0  0  0  0  0  0  0  0  0  0  0
  151.1180  140.4201  156.3895 C   0  0  0  0  0  0  0  0  0  0  0  0
  151.5840  140.1986  155.2705 O   0  0  0  0  0  0  0  0  0  0  0  0
  149.8021  140.5400  156.6214 N   0  0  0  0  0  0  0  0  0  0  0  0
  148.7575  140.4154  155.6033 C   0  0  2  0  0  0  0  0  0  0  0  0
  148.9017  141.4967  154.5160 C   0  0  0  0  0  0  0  0  0  0  0  0
  147.4845  141.9807  154.1803 C   0  0  0  0  0  0  0  0  0  0  0  0
  146.5305  141.0365  154.9178 C   0  0  0  0  0  0  0  0  0  0  0  0
  147.3065  140.5285  156.1419 C   0  0  2  0  0  0  0  0  0  0  0  0
  147.1271  141.4795  157.3455 C   0  0  0  0  0  0  0  0  0  0  0  0
  147.4892  142.7525  157.1685 N   0  0  0  0  0  0  0  0  0  0  0  0
  146.6642  141.0785  158.4121 O   0  0  0  0  0  0  0  0  0  0  0  0
  152.5530  142.2224  159.4806 C   0  0  0  0  0  0  0  0  0  0  0  0
  152.5207  143.4364  160.0714 N   0  0  0  0  0  0  0  0  0  0  0  0
  150.9987  146.3697  159.8325 H   0  0  0  0  0  0  0  0  0  0  0  0
  152.7660  146.3391  159.8593 H   0  0  0  0  0  0  0  0  0  0  0  0
  151.8459  145.6642  161.2106 H   0  0  0  0  0  0  0  0  0  0  0  0
  150.7149  145.0878  157.7111 H   0  0  0  0  0  0  0  0  0  0  0  0
  150.7860  142.8330  156.6275 H   0  0  0  0  0  0  0  0  0  0  0  0
  153.0574  140.3580  157.3275 H   0  0  0  0  0  0  0  0  0  0  0  0
  151.7489  139.8123  158.3587 H   0  0  0  0  0  0  0  0  0  0  0  0
  149.4988  140.7159  157.5683 H   0  0  0  0  0  0  0  0  0  0  0  0
  148.8611  139.4432  155.1169 H   0  0  0  0  0  0  0  0  0  0  0  0
  149.5038  142.3389  154.8601 H   0  0  0  0  0  0  0  0  0  0  0  0
  149.3976  141.0881  153.6347 H   0  0  0  0  0  0  0  0  0  0  0  0
  147.3492  143.0009  154.5413 H   0  0  0  0  0  0  0  0  0  0  0  0
  147.2956  141.9903  153.1065 H   0  0  0  0  0  0  0  0  0  0  0  0
  145.5892  141.5246  155.1743 H   0  0  0  0  0  0  0  0  0  0  0  0
  146.2854  140.1909  154.2736 H   0  0  0  0  0  0  0  0  0  0  0  0
  146.9419  139.5406  156.4293 H   0  0  0  0  0  0  0  0  0  0  0  0
  147.3951  143.4139  157.9255 H   0  0  0  0  0  0  0  0  0  0  0  0
  147.8597  143.0483  156.2771 H   0  0  0  0  0  0  0  0  0  0  0  0
  153.0866  141.4488  160.0130 H   0  0  0  0  0  0  0  0  0  0  0  0
  1  2  1  0  0  0  0
  1 20  1  0  0  0  0
  1 21  1  0  0  0  0
  1 22  1  0  0  0  0
  2 19  1  0  0  0  0
  2  3  2  0  0  0  0
  3  4  1  0  0  0  0
  3 23  1  0  0  0  0
  4  5  2  0  0  0  0
  4 24  1  0  0  0  0
  5  6  1  0  0  0  0
  5 18  1  0  0  0  0
  6  7  1  0  0  0  0
  6 25  1  0  0  0  0
  6 26  1  0  0  0  0
  7  8  2  0  0  0  0
  7  9  1  0  0  0  0
  9 10  1  0  0  0  0
  9 27  1  0  0  0  0
 10 14  1  0  0  0  0
 10 11  1  0  0  0  0
 10 28  1  0  0  0  0
 11 12  1  0  0  0  0
 11 29  1  0  0  0  0
 11 30  1  0  0  0  0
 12 13  1  0  0  0  0
 12 31  1  0  0  0  0
 12 32  1  0  0  0  0
 13 14  1  0  0  0  0
 13 33  1  0  0  0  0
 13 34  1  0  0  0  0
 14 15  1  0  0  0  0
 14 35  1  0  0  0  0
 15 16  1  0  0  0  0
 15 17  2  0  0  0  0
 16 36  1  0  0  0  0
 16 37  1  0  0  0  0
 18 19  2  0  0  0  0
 18 38  1  0  0  0  0
M  END
> <s_m_source_file>
AV-unprocessed.smi

> <i_m_source_file_index>
651

> <i_lp_mmshare_version>
43012

> <i_f3d_flags>
0

> <s_epik_input>
W0NIM11jMVtjSF1bY0hdYyhbY0hdbjEpW0NIMl1DKD1PKVtOSF1bQ0BASF0yW0NIMl1bQ0gyXVtDSDJdW0NASF0yQyg9TylbTkgyXQ==

> <s_epik_cmdline>
J2VwaWtfcHl0aG9uJywgJy1waCcsICc3LjAnLCAnLXRuJywgJzgnLCAnLW1hJywgJzIwMCcsICctbWV0YWxfYmluZGluZycsICctaW1hZScsICc8aW5maWxlLm1hZT4nLCAnLW9tYWUnLCAnPG91dGZpbGUubWFlPic=

> <r_epik_Ionization_Penalty>
0.0159502

> <r_epik_Ionization_Penalty_Charging>
0

> <r_epik_Ionization_Penalty_Neutral>
0.0159502

> <r_epik_State_Penalty>
0.012563

> <r_epik_Charging_Adjusted_Penalty>
0.012563

> <i_epik_Tot_Q>
0

> <i_epik_Tot_abs_Q>
0

> <r_epik_Metal_State_Penalty>
0.0122326

> <b_epik_Metal_Only>
0

> <s_lp_Force_Field>
OPLS_2005

> <r_lp_Energy>
13.1482

> <b_lp_Chiralities_Consistent>
1

> <s_lp_Variant>
AV-unprocessed.smi:651-3

> <Gold.Version>
5.8.1

> <Gold.Id.Protein>
6NUR|6NUR_protein|mol2

> <Gold.PLP.Fitness>
43.3271

> <Gold.PLP.PLP>
-38.2900

> <Gold.PLP.part.hbond>
-3.5366

> <Gold.PLP.part.metal>
0.0000

> <Gold.PLP.part.buried>
-4.9096

> <Gold.PLP.part.nonpolar>
-30.5696

> <Gold.PLP.part.repulsive>
0.0628

> <Gold.PLP.ligand.clash>
0.0000

> <Gold.PLP.ligand.torsion>
0.1074

> <Gold.PLP.Chemscore.Hbond>
1.7416

> <Gold.PLP.Chemscore.CHOScore>
0.0000

> <Gold.PLP.Chemscore.Metal>
0.0000

> <Gold.Chemscore.Hbonds>
donor molecule, donor type, donor heavy atom, donor atom, acceptor molecule, acceptor atom, score
      L1  H    16    37       P1  8028  0.65
      P1  H  6934  6946       L1    17  0.13
      P1  H  7989  7998       L1     8  0.94

> <Gold.PLP.Chemscore.Internal.Correction>
0.0271

> <Gold.Rescore>
     Score         DG    S(hbond)    S(metal)    S(lipo)     H(rot)  DE(clash)    DE(int)     intcor
     15.78     -16.08       1.30        0.00      96.72       1.97       0.05       0.25       ----

> <Gold.Chemscore.Fitness>
15.7805

> <Gold.Chemscore.DG>
-16.0805

> <Gold.Chemscore.ZeroCoef>
-5.4800

> <Gold.Chemscore.Hbond>
1.2960

> <Gold.Chemscore.Metal>
0.0000

> <Gold.Chemscore.Lipo>
96.7181

> <Gold.Chemscore.Internal_Hbond>
0.0000

> <Gold.Chemscore.DEClash>
0.0529

> <Gold.Chemscore.DEInternal>
0.2470

> <Gold.Chemscore.Rot>
1.9704

> <Gold.Chemscore.Internal.Correction>
   9.000000E+99

> <Gold.Chemscore.Hbonds>
donor molecule, donor type, donor heavy atom, donor atom, acceptor molecule, acceptor atom, score
      L1  H    16    37       P1  8028  0.16
      P1  H  6934  6946       L1    17  0.13
      P1  H  7989  7998       L1     8  0.92

> <Gold.Chemscore.Hbond.Weighted>
-4.3288

> <Gold.Chemscore.Metal.Weighted>
-0.0000

> <Gold.Chemscore.Lipo.Weighted>
-11.3160

> <Gold.Chemscore.Internal_Hbond.Weighted>
0.0000

> <Gold.Chemscore.DEClash.Weighted>
0.0529

> <Gold.Chemscore.DEInternal.Weighted>
0.2470

> <Gold.Chemscore.Rot.Weighted>
5.0443

> <Gold.Chemscore.Internal.Correction.Weighted>
   9.000000E+99

> <Gold.Protein.RotatedTorsions>
[ 6907 6896 6895 6894 ] final -128.42 input  -60.11 | X-H torsion
[ 7974 7965 7964 7962 ] final -112.59 input  175.53 | X-H torsion
[ 8008 7997 7996 7995 ] final   95.00 input   59.86 | X-H torsion
[ 10167 10162 10161 10158 ] final  112.65 input  -65.29 | X-H torsion
[ 10718 10713 10712 10709 ] final  -33.79 input   66.30 | X-H torsion
[ 10763 10752 10751 10750 ] final  -30.61 input  -60.55 | X-H torsion
[ 11005 11000 10999 10996 ] final   58.99 input  -57.11 | X-H torsion

> <Gold.Protein.ActiveResidues>
 VAL166  LYS551  ARG553  GLY616  TRP617  ASP618  TYR619  PRO620  LYS621  CYS622 
 ASP623  PHE694  ASN695  SER759  ASP760  ASP761  ALA762  ILE779  LEU786  VAL792 
 PHE793  MET794  SER795  GLU796  ALA797  LYS798  CYS799  TRP800  GLU811  SER814 

> <Gold.Protein.RotatedAtoms>
  150.9177  133.6919  159.2839 H   0  0  0  0  0  0  0  0  0  0  0  0  # atno 6907 bound_to 6896
  151.4384  135.1016  159.9672 H   0  0  0  0  0  0  0  0  0  0  0  0  # atno 6908 bound_to 6896
  152.4963  133.8591  159.7296 H   0  0  0  0  0  0  0  0  0  0  0  0  # atno 6909 bound_to 6896
  145.1421  140.8784  143.3696 H   0  0  0  0  0  0  0  0  0  0  0  0  # atno 7974 bound_to 7965
  156.0641  140.3292  155.7497 H   0  0  0  0  0  0  0  0  0  0  0  0  # atno 8008 bound_to 7997
  155.5409  140.0601  157.2887 H   0  0  0  0  0  0  0  0  0  0  0  0  # atno 8009 bound_to 7997
  154.4496  140.1911  156.0578 H   0  0  0  0  0  0  0  0  0  0  0  0  # atno 8010 bound_to 7997
  139.6520  144.7128  151.2030 H   0  0  0  0  0  0  0  0  0  0  0  0  # atno 10167 bound_to 10162
  156.3584  130.4319  149.7645 H   0  0  0  0  0  0  0  0  0  0  0  0  # atno 10718 bound_to 10713
  153.7838  135.6903  153.4883 H   0  0  0  0  0  0  0  0  0  0  0  0  # atno 10763 bound_to 10752
  153.1794  135.4512  155.0006 H   0  0  0  0  0  0  0  0  0  0  0  0  # atno 10764 bound_to 10752
  154.8071  135.3361  154.7339 H   0  0  0  0  0  0  0  0  0  0  0  0  # atno 10765 bound_to 10752
  140.0337  134.5975  155.9473 H   0  0  0  0  0  0  0  0  0  0  0  0  # atno 11005 bound_to 11000
  145.0521  139.3173  143.5923 LP  0  0  0  0  0  0  0  0  0  0  0  0  # atno 17320 bound_to 7965
  146.3504  139.9932  142.8683 LP  0  0  0  0  0  0  0  0  0  0  0  0  # atno 17321 bound_to 7965
  140.7542  143.6135  150.8582 LP  0  0  0  0  0  0  0  0  0  0  0  0  # atno 17342 bound_to 10162
  139.9784  143.5978  152.2951 LP  0  0  0  0  0  0  0  0  0  0  0  0  # atno 17343 bound_to 10162
  156.4818  130.8044  151.3058 LP  0  0  0  0  0  0  0  0  0  0  0  0  # atno 17370 bound_to 10713
  157.7470  131.0003  150.2921 LP  0  0  0  0  0  0  0  0  0  0  0  0  # atno 17371 bound_to 10713
  141.1845  133.6553  156.5160 LP  0  0  0  0  0  0  0  0  0  0  0  0  # atno 17394 bound_to 11000
  140.4183  134.7210  157.4875 LP  0  0  0  0  0  0  0  0  0  0  0  0  # atno 17395 bound_to 11000

$$$$
