AV-unprocessed.smi:746|AV-procd|sdf|3578|dock2
  -GOLD-   22720 0573D 1   1.00000     0.00000
 Structure written by MMmdl.
 48 50  0  0  0  0  0  0  0  0  1 V2000
  152.3768  132.1892  156.7937 C   0  0  0  0  0  0  0  0  0  0  0  0
  152.8531  132.7405  158.0089 O   0  0  0  0  0  0  0  0  0  0  0  0
  153.9690  132.0338  158.5242 C   0  0  0  0  0  0  0  0  0  0  0  0
  154.7541  132.9477  159.4694 C   0  0  0  0  0  0  0  0  0  0  0  0
  155.2233  134.0754  158.7359 O   0  0  0  0  0  0  0  0  0  0  0  0
  154.9108  135.3375  159.1979 C   0  0  0  0  0  0  0  0  0  0  0  0
  155.2538  136.4497  158.4040 C   0  0  0  0  0  0  0  0  0  0  0  0
  154.9249  137.7385  158.8641 C   0  0  0  0  0  0  0  0  0  0  0  0
  154.2556  137.8781  160.0962 C   0  0  0  0  0  0  0  0  0  0  0  0
  153.9440  139.1899  160.5435 N   0  0  0  0  0  0  0  0  0  0  0  0
  153.5034  140.2421  159.8234 C   0  0  0  0  0  0  0  0  0  0  0  0
  153.3547  140.1952  158.6012 O   0  0  0  0  0  0  0  0  0  0  0  0
  153.3122  141.3827  160.5447 N   0  0  0  0  0  0  0  0  0  0  0  0
  153.9442  141.6194  161.8660 C   0  0  0  0  0  0  0  0  0  0  0  0
  153.1291  142.5202  162.8018 C   0  0  0  0  0  0  0  0  0  0  0  0
  152.7581  143.8238  162.1103 C   0  0  0  0  0  0  0  0  0  0  0  0
  151.8871  143.5140  160.8911 C   0  0  1  0  0  0  0  0  0  0  0  0
  151.6490  144.7604  160.0172 C   0  0  0  0  0  0  0  0  0  0  0  0
  152.4871  144.5804  158.7405 C   0  0  0  0  0  0  0  0  0  0  0  0
  153.3525  143.3400  158.9699 C   0  0  0  0  0  0  0  0  0  0  0  0
  152.5280  142.4876  159.9378 C   0  0  1  0  0  0  0  0  0  0  0  0
  153.9726  136.7011  160.8306 C   0  0  0  0  0  0  0  0  0  0  0  0
  154.2869  135.4624  160.3954 N   0  0  0  0  0  0  0  0  0  0  0  0
  151.5234  132.7668  156.4390 H   0  0  0  0  0  0  0  0  0  0  0  0
  152.0507  131.1574  156.9306 H   0  0  0  0  0  0  0  0  0  0  0  0
  153.1455  132.2140  156.0202 H   0  0  0  0  0  0  0  0  0  0  0  0
  153.6535  131.1280  159.0445 H   0  0  0  0  0  0  0  0  0  0  0  0
  154.6122  131.7291  157.6973 H   0  0  0  0  0  0  0  0  0  0  0  0
  154.0910  133.2834  160.2682 H   0  0  0  0  0  0  0  0  0  0  0  0
  155.5809  132.4009  159.9261 H   0  0  0  0  0  0  0  0  0  0  0  0
  155.7574  136.3162  157.4579 H   0  0  0  0  0  0  0  0  0  0  0  0
  155.1768  138.6060  158.2717 H   0  0  0  0  0  0  0  0  0  0  0  0
  154.1397  139.3752  161.5164 H   0  0  0  0  0  0  0  0  0  0  0  0
  154.1186  140.6912  162.4119 H   0  0  0  0  0  0  0  0  0  0  0  0
  154.9244  142.0658  161.6927 H   0  0  0  0  0  0  0  0  0  0  0  0
  152.2257  142.0009  163.1243 H   0  0  0  0  0  0  0  0  0  0  0  0
  153.7047  142.7299  163.7038 H   0  0  0  0  0  0  0  0  0  0  0  0
  152.2217  144.4763  162.7998 H   0  0  0  0  0  0  0  0  0  0  0  0
  153.6633  144.3543  161.8127 H   0  0  0  0  0  0  0  0  0  0  0  0
  150.9318  143.1262  161.2485 H   0  0  0  0  0  0  0  0  0  0  0  0
  150.5934  144.8504  159.7582 H   0  0  0  0  0  0  0  0  0  0  0  0
  151.9239  145.6768  160.5414 H   0  0  0  0  0  0  0  0  0  0  0  0
  151.8242  144.4117  157.8908 H   0  0  0  0  0  0  0  0  0  0  0  0
  153.0901  145.4600  158.5142 H   0  0  0  0  0  0  0  0  0  0  0  0
  153.5828  142.8195  158.0397 H   0  0  0  0  0  0  0  0  0  0  0  0
  154.2974  143.6280  159.4330 H   0  0  0  0  0  0  0  0  0  0  0  0
  151.6933  142.0655  159.3732 H   0  0  0  0  0  0  0  0  0  0  0  0
  153.5006  136.7332  161.8002 H   0  0  0  0  0  0  0  0  0  0  0  0
  1  2  1  0  0  0  0
  1 24  1  0  0  0  0
  1 25  1  0  0  0  0
  1 26  1  0  0  0  0
  2  3  1  0  0  0  0
  3  4  1  0  0  0  0
  3 27  1  0  0  0  0
  3 28  1  0  0  0  0
  4  5  1  0  0  0  0
  4 29  1  0  0  0  0
  4 30  1  0  0  0  0
  5  6  1  0  0  0  0
  6 23  1  0  0  0  0
  6  7  2  0  0  0  0
  7  8  1  0  0  0  0
  7 31  1  0  0  0  0
  8  9  2  0  0  0  0
  8 32  1  0  0  0  0
  9 10  1  0  0  0  0
  9 22  1  0  0  0  0
 10 11  1  0  0  0  0
 10 33  1  0  0  0  0
 11 12  2  0  0  0  0
 11 13  1  0  0  0  0
 13 21  1  0  0  0  0
 13 14  1  0  0  0  0
 14 15  1  0  0  0  0
 14 34  1  0  0  0  0
 14 35  1  0  0  0  0
 15 16  1  0  0  0  0
 15 36  1  0  0  0  0
 15 37  1  0  0  0  0
 16 17  1  0  0  0  0
 16 38  1  0  0  0  0
 16 39  1  0  0  0  0
 17 21  1  0  0  0  0
 17 18  1  0  0  0  0
 17 40  1  0  0  0  0
 18 19  1  0  0  0  0
 18 41  1  0  0  0  0
 18 42  1  0  0  0  0
 19 20  1  0  0  0  0
 19 43  1  0  0  0  0
 19 44  1  0  0  0  0
 20 21  1  0  0  0  0
 20 45  1  0  0  0  0
 20 46  1  0  0  0  0
 21 47  1  0  0  0  0
 22 23  2  0  0  0  0
 22 48  1  0  0  0  0
M  END
> <s_m_source_file>
AV-unprocessed.smi

> <i_m_source_file_index>
746

> <i_lp_mmshare_version>
43012

> <i_f3d_flags>
0

> <s_epik_input>
W0NIM11PW0NIMl1bQ0gyXU9jMVtjSF1bY0hdYyhbY0hdbjEpW05IXUMoPU8pTihbQ0gyXVtDSDJdW0NIMl0yKVtDQEhdKFtDQEBIXTIzKVtDSDJdW0NIMl1bQ0gyXTM=

> <s_epik_cmdline>
J2VwaWtfcHl0aG9uJywgJy1waCcsICc3LjAnLCAnLXRuJywgJzgnLCAnLW1hJywgJzIwMCcsICctbWV0YWxfYmluZGluZycsICctaW1hZScsICc8aW5maWxlLm1hZT4nLCAnLW9tYWUnLCAnPG91dGZpbGUubWFlPic=

> <r_lp_tautomer_probability>
1

> <r_epik_Ionization_Penalty>
8.29966e-05

> <r_epik_Ionization_Penalty_Charging>
0

> <r_epik_Ionization_Penalty_Neutral>
8.29966e-05

> <r_epik_State_Penalty>
-0

> <r_epik_Charging_Adjusted_Penalty>
0

> <i_epik_Tot_Q>
0

> <i_epik_Tot_abs_Q>
0

> <r_epik_Metal_State_Penalty>
-0

> <b_epik_Metal_Only>
0

> <s_lp_Force_Field>
OPLS_2005

> <r_lp_Energy>
59.487

> <b_lp_Chiralities_Consistent>
1

> <s_lp_Variant>
AV-unprocessed.smi:746-3

> <Gold.Version>
5.8.1

> <Gold.Id.Protein>
6NUR|6NUR_protein|mol2

> <Gold.PLP.Fitness>
52.8458

> <Gold.PLP.PLP>
-46.3655

> <Gold.PLP.part.hbond>
-2.9877

> <Gold.PLP.part.metal>
0.0000

> <Gold.PLP.part.buried>
-4.4517

> <Gold.PLP.part.nonpolar>
-37.6157

> <Gold.PLP.part.repulsive>
0.0397

> <Gold.PLP.ligand.clash>
0.0000

> <Gold.PLP.ligand.torsion>
0.9851

> <Gold.PLP.Chemscore.Hbond>
2.7353

> <Gold.PLP.Chemscore.CHOScore>
0.0000

> <Gold.PLP.Chemscore.Metal>
0.0000

> <Gold.Chemscore.Hbonds>
donor molecule, donor type, donor heavy atom, donor atom, acceptor molecule, acceptor atom, score
      P1  H  6896  6908       L1    23  1.00
      P1  H  6896  6909       L1     2  0.78
      P1  H  7997  8008       L1    12  0.96

> <Gold.PLP.Chemscore.Internal.Correction>
0.2447

> <Gold.Rescore>
     Score         DG    S(hbond)    S(metal)    S(lipo)     H(rot)  DE(clash)    DE(int)     intcor
     20.38     -22.63       1.98        0.00     123.23       1.52       0.02       2.22       ----

> <Gold.Chemscore.Fitness>
20.3829

> <Gold.Chemscore.DG>
-22.6315

> <Gold.Chemscore.ZeroCoef>
-5.4800

> <Gold.Chemscore.Hbond>
1.9813

> <Gold.Chemscore.Metal>
0.0000

> <Gold.Chemscore.Lipo>
123.2313

> <Gold.Chemscore.Internal_Hbond>
0.0000

> <Gold.Chemscore.DEClash>
0.0243

> <Gold.Chemscore.DEInternal>
2.2244

> <Gold.Chemscore.Rot>
1.5172

> <Gold.Chemscore.Internal.Correction>
   9.000000E+99

> <Gold.Chemscore.Hbonds>
donor molecule, donor type, donor heavy atom, donor atom, acceptor molecule, acceptor atom, score
      P1  H  6896  6908       L1    23  0.13
      P1  H  6896  6909       L1     2  0.67
      P1  H  7997  8008       L1    12  0.89

> <Gold.Chemscore.Hbond.Weighted>
-6.6175

> <Gold.Chemscore.Metal.Weighted>
-0.0000

> <Gold.Chemscore.Lipo.Weighted>
-14.4181

> <Gold.Chemscore.Internal_Hbond.Weighted>
0.0000

> <Gold.Chemscore.DEClash.Weighted>
0.0243

> <Gold.Chemscore.DEInternal.Weighted>
2.2244

> <Gold.Chemscore.Rot.Weighted>
3.8841

> <Gold.Chemscore.Internal.Correction.Weighted>
   9.000000E+99

> <Gold.Protein.RotatedTorsions>
[ 6907 6896 6895 6894 ] final  -59.45 input  -60.11 | X-H torsion
[ 7974 7965 7964 7962 ] final -119.15 input  175.53 | X-H torsion
[ 8008 7997 7996 7995 ] final  -93.21 input   59.86 | X-H torsion
[ 10167 10162 10161 10158 ] final   34.59 input  -65.29 | X-H torsion
[ 10718 10713 10712 10709 ] final  -78.70 input   66.30 | X-H torsion
[ 10763 10752 10751 10750 ] final -176.07 input  -60.55 | X-H torsion
[ 11005 11000 10999 10996 ] final   56.46 input  -57.11 | X-H torsion

> <Gold.Protein.ActiveResidues>
 VAL166  LYS551  ARG553  GLY616  TRP617  ASP618  TYR619  PRO620  LYS621  CYS622 
 ASP623  PHE694  ASN695  SER759  ASP760  ASP761  ALA762  ILE779  LEU786  VAL792 
 PHE793  MET794  SER795  GLU796  ALA797  LYS798  CYS799  TRP800  GLU811  SER814 

> <Gold.Protein.RotatedAtoms>
  150.7929  134.6967  159.6526 H   0  0  0  0  0  0  0  0  0  0  0  0  # atno 6907 bound_to 6896
  152.4038  134.6239  160.0067 H   0  0  0  0  0  0  0  0  0  0  0  0  # atno 6908 bound_to 6896
  151.6502  133.3284  159.3186 H   0  0  0  0  0  0  0  0  0  0  0  0  # atno 6909 bound_to 6896
  145.0657  140.8323  143.4125 H   0  0  0  0  0  0  0  0  0  0  0  0  # atno 7974 bound_to 7965
  154.7328  140.0501  157.0742 H   0  0  0  0  0  0  0  0  0  0  0  0  # atno 8008 bound_to 7997
  155.0279  140.3154  155.4750 H   0  0  0  0  0  0  0  0  0  0  0  0  # atno 8009 bound_to 7997
  156.2845  140.2155  156.5400 H   0  0  0  0  0  0  0  0  0  0  0  0  # atno 8010 bound_to 7997
  140.4301  144.1337  150.6158 H   0  0  0  0  0  0  0  0  0  0  0  0  # atno 10167 bound_to 10162
  156.0111  130.4525  150.3535 H   0  0  0  0  0  0  0  0  0  0  0  0  # atno 10718 bound_to 10713
  154.5768  135.2832  155.0773 H   0  0  0  0  0  0  0  0  0  0  0  0  # atno 10763 bound_to 10752
  154.2124  135.6405  153.5123 H   0  0  0  0  0  0  0  0  0  0  0  0  # atno 10764 bound_to 10752
  153.0075  135.5495  154.6409 H   0  0  0  0  0  0  0  0  0  0  0  0  # atno 10765 bound_to 10752
  140.0527  134.5713  155.9244 H   0  0  0  0  0  0  0  0  0  0  0  0  # atno 11005 bound_to 11000
  145.1354  139.2606  143.5518 LP  0  0  0  0  0  0  0  0  0  0  0  0  # atno 17320 bound_to 7965
  146.3526  140.1016  142.8608 LP  0  0  0  0  0  0  0  0  0  0  0  0  # atno 17321 bound_to 7965
  140.4437  143.2515  151.9439 LP  0  0  0  0  0  0  0  0  0  0  0  0  # atno 17342 bound_to 10162
  139.4784  144.5630  151.8210 LP  0  0  0  0  0  0  0  0  0  0  0  0  # atno 17343 bound_to 10162
  157.1627  131.0349  151.2833 LP  0  0  0  0  0  0  0  0  0  0  0  0  # atno 17370 bound_to 10713
  157.4297  130.7484  149.6980 LP  0  0  0  0  0  0  0  0  0  0  0  0  # atno 17371 bound_to 10713
  141.1938  133.6580  156.5564 LP  0  0  0  0  0  0  0  0  0  0  0  0  # atno 17394 bound_to 11000
  140.3892  134.7455  157.4710 LP  0  0  0  0  0  0  0  0  0  0  0  0  # atno 17395 bound_to 11000

$$$$
