AV-unprocessed.smi:1997|AV-procd|sdf|8089|dock2
  -GOLD-   2272010303D 1   1.00000     0.00000
 Structure written by MMmdl.
 36 38  0  0  0  0  0  0  0  0  2 V2000
  146.0901  139.3365  154.1908 O   0  0  0  0  0  0  0  0  0  0  0  0
  146.7274  138.7830  153.2916 C   0  0  0  0  0  0  0  0  0  0  0  0
  146.2084  138.1473  152.2164 N   0  5  0  0  0  0  0  0  0  0  0  0
  145.9094  136.8399  152.2900 C   0  0  0  0  0  0  0  0  0  0  0  0
  146.0357  136.1360  153.4238 N   0  0  0  0  0  0  0  0  0  0  0  0
  145.6721  134.8048  153.2817 N   0  0  0  0  0  0  0  0  0  0  0  0
  145.2695  134.5224  152.0406 C   0  0  0  0  0  0  0  0  0  0  0  0
  144.8299  133.1561  151.6332 C   0  0  0  0  0  0  0  0  0  0  0  0
  144.4519  132.8602  150.2000 C   0  0  0  0  0  0  0  0  0  0  0  0
  143.3901  132.8653  151.2697 C   0  0  0  0  0  0  0  0  0  0  0  0
  145.2961  135.8892  150.9376 S   0  0  0  0  0  0  0  0  0  0  0  0
  148.0687  138.7730  153.3301 N   0  0  0  0  0  0  0  0  0  0  0  0
  148.9098  139.3703  154.3712 C   0  0  1  0  0  0  0  0  0  0  0  0
  150.3792  139.0184  154.0436 C   0  0  0  0  0  0  0  0  0  0  0  0
  151.3188  139.0799  155.2606 C   0  0  0  0  0  0  0  0  0  0  0  0
  151.4959  140.4767  155.8753 C   0  0  0  0  0  0  0  0  0  0  0  0
  150.1946  141.0759  156.4354 C   0  0  0  0  0  0  0  0  0  0  0  0
  149.3384  141.6045  155.3819 N   0  0  0  0  0  0  0  0  0  0  0  0
  148.7496  140.9085  154.3974 C   0  0  0  0  0  0  0  0  0  0  0  0
  148.0998  141.4912  153.5296 O   0  0  0  0  0  0  0  0  0  0  0  0
  145.3791  132.3953  152.1843 H   0  0  0  0  0  0  0  0  0  0  0  0
  144.4584  133.6891  149.4949 H   0  0  0  0  0  0  0  0  0  0  0  0
  144.7503  131.8969  149.7915 H   0  0  0  0  0  0  0  0  0  0  0  0
  142.9802  131.9052  151.5758 H   0  0  0  0  0  0  0  0  0  0  0  0
  142.6833  133.6924  151.2629 H   0  0  0  0  0  0  0  0  0  0  0  0
  148.5474  138.3170  152.5675 H   0  0  0  0  0  0  0  0  0  0  0  0
  148.6307  138.9474  155.3377 H   0  0  0  0  0  0  0  0  0  0  0  0
  150.4219  137.9976  153.6605 H   0  0  0  0  0  0  0  0  0  0  0  0
  150.7618  139.6475  153.2379 H   0  0  0  0  0  0  0  0  0  0  0  0
  150.9626  138.3897  156.0265 H   0  0  0  0  0  0  0  0  0  0  0  0
  152.2989  138.7082  154.9606 H   0  0  0  0  0  0  0  0  0  0  0  0
  152.2173  140.3984  156.6892 H   0  0  0  0  0  0  0  0  0  0  0  0
  151.9404  141.1559  155.1466 H   0  0  0  0  0  0  0  0  0  0  0  0
  149.6524  140.3493  157.0424 H   0  0  0  0  0  0  0  0  0  0  0  0
  150.4386  141.9070  157.0973 H   0  0  0  0  0  0  0  0  0  0  0  0
  149.2025  142.6048  155.3774 H   0  0  0  0  0  0  0  0  0  0  0  0
  1  2  2  0  0  0  0
  2  3  1  0  0  0  0
  2 12  1  0  0  0  0
  3  4  1  0  0  0  0
  4 11  1  0  0  0  0
  4  5  2  0  0  0  0
  5  6  1  0  0  0  0
  6  7  2  0  0  0  0
  7  8  1  0  0  0  0
  7 11  1  0  0  0  0
  8 10  1  0  0  0  0
  8  9  1  0  0  0  0
  8 21  1  0  0  0  0
  9 10  1  0  0  0  0
  9 22  1  0  0  0  0
  9 23  1  0  0  0  0
 10 24  1  0  0  0  0
 10 25  1  0  0  0  0
 12 13  1  0  0  0  0
 12 26  1  0  0  0  0
 13 19  1  0  0  0  0
 13 14  1  0  0  0  0
 13 27  1  0  0  0  0
 14 15  1  0  0  0  0
 14 28  1  0  0  0  0
 14 29  1  0  0  0  0
 15 16  1  0  0  0  0
 15 30  1  0  0  0  0
 15 31  1  0  0  0  0
 16 17  1  0  0  0  0
 16 32  1  0  0  0  0
 16 33  1  0  0  0  0
 17 18  1  0  0  0  0
 17 34  1  0  0  0  0
 17 35  1  0  0  0  0
 18 19  1  0  0  0  0
 18 36  1  0  0  0  0
 19 20  2  0  0  0  0
M  CHG  1   3  -1
M  END
> <s_m_source_file>
AV-unprocessed.smi

> <i_m_source_file_index>
1997

> <i_lp_mmshare_version>
43012

> <i_f3d_flags>
0

> <s_epik_input>
W0NIMl0xW0NIMl1bQ0hdMWMoczIpbm5jMltOSF1DKD1PKVtOSF1bQ0BASF0zW0NIMl1bQ0gyXVtDSDJdW0NIMl1bTkhdQzM9Tw==

> <s_epik_cmdline>
J2VwaWtfcHl0aG9uJywgJy1waCcsICc3LjAnLCAnLXRuJywgJzgnLCAnLW1hJywgJzIwMCcsICctbWV0YWxfYmluZGluZycsICctaW1hZScsICc8aW5maWxlLm1hZT4nLCAnLW9tYWUnLCAnPG91dGZpbGUubWFlPic=

> <r_lp_tautomer_probability>
1

> <r_epik_Ionization_Penalty>
4.47229

> <r_epik_Ionization_Penalty_Charging>
4.32584

> <r_epik_Ionization_Penalty_Neutral>
0.146443

> <r_epik_State_Penalty>
4.32544

> <r_epik_Charging_Adjusted_Penalty>
8.65129

> <i_epik_Tot_Q>
-1

> <i_epik_Tot_abs_Q>
1

> <r_epik_Metal_State_Penalty>
0.738743

> <b_epik_Metal_Only>
1

> <s_lp_Force_Field>
OPLS_2005

> <r_lp_Energy>
7.41149

> <b_lp_Chiralities_Consistent>
1

> <s_lp_Variant>
AV-unprocessed.smi:1997-4

> <Gold.Version>
5.8.1

> <Gold.Id.Protein>
6NUR|6NUR_protein|mol2

> <Gold.PLP.Fitness>
36.8001

> <Gold.PLP.PLP>
-32.4431

> <Gold.PLP.part.hbond>
-3.4766

> <Gold.PLP.part.metal>
0.0000

> <Gold.PLP.part.buried>
-3.6268

> <Gold.PLP.part.nonpolar>
-28.2209

> <Gold.PLP.part.repulsive>
2.3315

> <Gold.PLP.ligand.clash>
0.0000

> <Gold.PLP.ligand.torsion>
0.8434

> <Gold.PLP.Chemscore.Hbond>
1.9666

> <Gold.PLP.Chemscore.CHOScore>
0.0000

> <Gold.PLP.Chemscore.Metal>
0.0000

> <Gold.Chemscore.Hbonds>
donor molecule, donor type, donor heavy atom, donor atom, acceptor molecule, acceptor atom, score
      L1  H    12    26       P1  7948  0.43
      L1  H    18    36       P1  8028  0.70
      P1  H  8011  8017       L1    20  0.28

> <Gold.PLP.Chemscore.Internal.Correction>
0.1438

> <Gold.Rescore>
     Score         DG    S(hbond)    S(metal)    S(lipo)     H(rot)  DE(clash)    DE(int)     intcor
     13.24     -15.25       1.58        0.00      66.29       1.27       1.09       0.91       ----

> <Gold.Chemscore.Fitness>
13.2442

> <Gold.Chemscore.DG>
-15.2465

> <Gold.Chemscore.ZeroCoef>
-5.4800

> <Gold.Chemscore.Hbond>
1.5782

> <Gold.Chemscore.Metal>
0.0000

> <Gold.Chemscore.Lipo>
66.2922

> <Gold.Chemscore.Internal_Hbond>
0.0000

> <Gold.Chemscore.DEClash>
1.0880

> <Gold.Chemscore.DEInternal>
0.9143

> <Gold.Chemscore.Rot>
1.2738

> <Gold.Chemscore.Internal.Correction>
   9.000000E+99

> <Gold.Chemscore.Hbonds>
donor molecule, donor type, donor heavy atom, donor atom, acceptor molecule, acceptor atom, score
      L1  H    12    26       P1  7948  0.45
      L1  H    18    36       P1  8028  0.69
      P1  H  8011  8017       L1    20  0.08

> <Gold.Chemscore.Hbond.Weighted>
-5.2713

> <Gold.Chemscore.Metal.Weighted>
-0.0000

> <Gold.Chemscore.Lipo.Weighted>
-7.7562

> <Gold.Chemscore.Internal_Hbond.Weighted>
0.0000

> <Gold.Chemscore.DEClash.Weighted>
1.0880

> <Gold.Chemscore.DEInternal.Weighted>
0.9143

> <Gold.Chemscore.Rot.Weighted>
3.2610

> <Gold.Chemscore.Internal.Correction.Weighted>
   9.000000E+99

> <Gold.Protein.RotatedTorsions>
[ 6907 6896 6895 6894 ] final  -42.23 input  -60.11 | X-H torsion
[ 7974 7965 7964 7962 ] final   83.25 input  175.53 | X-H torsion
[ 8008 7997 7996 7995 ] final  -12.17 input   59.86 | X-H torsion
[ 10167 10162 10161 10158 ] final   90.81 input  -65.29 | X-H torsion
[ 10718 10713 10712 10709 ] final   49.56 input   66.30 | X-H torsion
[ 10763 10752 10751 10750 ] final  176.83 input  -60.55 | X-H torsion
[ 11005 11000 10999 10996 ] final  114.84 input  -57.11 | X-H torsion

> <Gold.Protein.ActiveResidues>
 VAL166  LYS551  ARG553  GLY616  TRP617  ASP618  TYR619  PRO620  LYS621  CYS622 
 ASP623  PHE694  ASN695  SER759  ASP760  ASP761  ALA762  ILE779  LEU786  VAL792 
 PHE793  MET794  SER795  GLU796  ALA797  LYS798  CYS799  TRP800  GLU811  SER814 

> <Gold.Protein.RotatedAtoms>
  150.9576  134.8968  159.7710 H   0  0  0  0  0  0  0  0  0  0  0  0  # atno 6907 bound_to 6896
  152.5144  134.3719  159.9331 H   0  0  0  0  0  0  0  0  0  0  0  0  # atno 6908 bound_to 6896
  151.3732  133.3807  159.2736 H   0  0  0  0  0  0  0  0  0  0  0  0  # atno 6909 bound_to 6896
  145.6144  139.2374  143.2174 H   0  0  0  0  0  0  0  0  0  0  0  0  # atno 7974 bound_to 7965
  154.5401  140.2283  155.8656 H   0  0  0  0  0  0  0  0  0  0  0  0  # atno 8008 bound_to 7997
  156.1850  140.3091  155.9183 H   0  0  0  0  0  0  0  0  0  0  0  0  # atno 8009 bound_to 7997
  155.3276  140.0443  157.3032 H   0  0  0  0  0  0  0  0  0  0  0  0  # atno 8010 bound_to 7997
  139.8436  144.6629  150.9253 H   0  0  0  0  0  0  0  0  0  0  0  0  # atno 10167 bound_to 10162
  157.4798  130.8308  149.8081 H   0  0  0  0  0  0  0  0  0  0  0  0  # atno 10718 bound_to 10713
  154.4863  135.2777  155.1531 H   0  0  0  0  0  0  0  0  0  0  0  0  # atno 10763 bound_to 10752
  154.3221  135.6207  153.5516 H   0  0  0  0  0  0  0  0  0  0  0  0  # atno 10764 bound_to 10752
  152.9882  135.5745  154.5275 H   0  0  0  0  0  0  0  0  0  0  0  0  # atno 10765 bound_to 10752
  139.8992  134.9574  156.6953 H   0  0  0  0  0  0  0  0  0  0  0  0  # atno 11005 bound_to 11000
  146.1479  140.6966  142.9336 LP  0  0  0  0  0  0  0  0  0  0  0  0  # atno 17320 bound_to 7965
  144.7256  140.4515  143.6975 LP  0  0  0  0  0  0  0  0  0  0  0  0  # atno 17321 bound_to 7965
  140.7795  143.3890  151.1343 LP  0  0  0  0  0  0  0  0  0  0  0  0  # atno 17342 bound_to 10162
  139.7534  143.8744  152.3082 LP  0  0  0  0  0  0  0  0  0  0  0  0  # atno 17343 bound_to 10162
  156.0116  130.3831  150.2247 LP  0  0  0  0  0  0  0  0  0  0  0  0  # atno 17370 bound_to 10713
  157.0432  131.0041  151.3277 LP  0  0  0  0  0  0  0  0  0  0  0  0  # atno 17371 bound_to 10713
  140.7193  133.9155  155.8136 LP  0  0  0  0  0  0  0  0  0  0  0  0  # atno 17394 bound_to 11000
  141.0240  134.0849  157.4089 LP  0  0  0  0  0  0  0  0  0  0  0  0  # atno 17395 bound_to 11000

$$$$
