AV-unprocessed.smi:1410|AV-procd|sdf|5732|dock6
  -GOLD-   22720 5363D 1   1.00000     0.00000
 Structure written by MMmdl.
 40 41  0  0  0  0  0  0  0  0  2 V2000
  142.1911  133.1362  148.2945 N   0  0  0  0  0  0  0  0  0  0  0  0
  143.4087  132.8052  148.7314 C   0  0  0  0  0  0  0  0  0  0  0  0
  144.3080  132.4569  147.9692 O   0  0  0  0  0  0  0  0  0  0  0  0
  143.6561  132.8821  150.2430 C   0  0  0  0  0  0  0  0  0  0  0  0
  144.6627  133.8890  150.6503 N   0  0  0  0  0  0  0  0  0  0  0  0
  144.6694  133.9986  152.1127 C   0  0  0  0  0  0  0  0  0  0  0  0
  145.7957  134.9361  152.5810 C   0  0  0  0  0  0  0  0  0  0  0  0
  145.6431  136.3334  151.9648 C   0  0  0  0  0  0  0  0  0  0  0  0
  146.7824  137.1673  152.3358 N   0  0  0  0  0  0  0  0  0  0  0  0
  146.6999  138.4066  152.8406 C   0  0  0  0  0  0  0  0  0  0  0  0
  145.6340  138.9887  153.0407 O   0  0  0  0  0  0  0  0  0  0  0  0
  147.9208  138.9197  153.0726 N   0  0  0  0  0  0  0  0  0  0  0  0
  148.2615  140.1887  153.6156 C   0  0  0  0  0  0  0  0  0  0  0  0
  147.2967  141.2169  153.5272 C   0  0  0  0  0  0  0  0  0  0  0  0
  147.5947  142.4971  154.0371 C   0  0  0  0  0  0  0  0  0  0  0  0
  148.8006  142.7340  154.5964 N   0  3  0  0  0  0  0  0  0  0  0  0
  149.7596  141.7882  154.6911 C   0  0  0  0  0  0  0  0  0  0  0  0
  149.5193  140.4891  154.1987 C   0  0  0  0  0  0  0  0  0  0  0  0
  145.5354  136.1947  150.4373 C   0  0  0  0  0  0  0  0  0  0  0  0
  144.4236  135.2065  150.0426 C   0  0  0  0  0  0  0  0  0  0  0  0
  141.9882  133.1012  147.3060 H   0  0  0  0  0  0  0  0  0  0  0  0
  141.4790  133.4221  148.9506 H   0  0  0  0  0  0  0  0  0  0  0  0
  142.7147  133.0723  150.7625 H   0  0  0  0  0  0  0  0  0  0  0  0
  143.9878  131.8921  150.5595 H   0  0  0  0  0  0  0  0  0  0  0  0
  143.7035  134.3591  152.4720 H   0  0  0  0  0  0  0  0  0  0  0  0
  144.8252  133.0144  152.5569 H   0  0  0  0  0  0  0  0  0  0  0  0
  145.7884  135.0047  153.6694 H   0  0  0  0  0  0  0  0  0  0  0  0
  146.7607  134.5079  152.3041 H   0  0  0  0  0  0  0  0  0  0  0  0
  144.7251  136.7813  152.3504 H   0  0  0  0  0  0  0  0  0  0  0  0
  147.6991  136.7676  152.1969 H   0  0  0  0  0  0  0  0  0  0  0  0
  148.7011  138.3513  152.7773 H   0  0  0  0  0  0  0  0  0  0  0  0
  146.3322  141.0284  153.0779 H   0  0  0  0  0  0  0  0  0  0  0  0
  146.9104  143.3326  154.0122 H   0  0  0  0  0  0  0  0  0  0  0  0
  150.6876  142.0975  155.1496 H   0  0  0  0  0  0  0  0  0  0  0  0
  150.3082  139.7558  154.2674 H   0  0  0  0  0  0  0  0  0  0  0  0
  145.3371  137.1666  149.9841 H   0  0  0  0  0  0  0  0  0  0  0  0
  146.4860  135.8511  150.0259 H   0  0  0  0  0  0  0  0  0  0  0  0
  144.4069  135.1379  148.9549 H   0  0  0  0  0  0  0  0  0  0  0  0
  143.4492  135.5912  150.3490 H   0  0  0  0  0  0  0  0  0  0  0  0
  148.9971  143.6676  154.9584 H   0  0  0  0  0  0  0  0  0  0  0  0
  1  2  1  0  0  0  0
  1 21  1  0  0  0  0
  1 22  1  0  0  0  0
  2  3  2  0  0  0  0
  2  4  1  0  0  0  0
  4  5  1  0  0  0  0
  4 23  1  0  0  0  0
  4 24  1  0  0  0  0
  5 20  1  0  0  0  0
  5  6  1  0  0  0  0
  6  7  1  0  0  0  0
  6 25  1  0  0  0  0
  6 26  1  0  0  0  0
  7  8  1  0  0  0  0
  7 27  1  0  0  0  0
  7 28  1  0  0  0  0
  8  9  1  0  0  0  0
  8 19  1  0  0  0  0
  8 29  1  0  0  0  0
  9 10  1  0  0  0  0
  9 30  1  0  0  0  0
 10 11  2  0  0  0  0
 10 12  1  0  0  0  0
 12 13  1  0  0  0  0
 12 31  1  0  0  0  0
 13 18  1  0  0  0  0
 13 14  2  0  0  0  0
 14 15  1  0  0  0  0
 14 32  1  0  0  0  0
 15 16  2  0  0  0  0
 15 33  1  0  0  0  0
 16 17  1  0  0  0  0
 16 40  1  0  0  0  0
 17 18  2  0  0  0  0
 17 34  1  0  0  0  0
 18 35  1  0  0  0  0
 19 20  1  0  0  0  0
 19 36  1  0  0  0  0
 19 37  1  0  0  0  0
 20 38  1  0  0  0  0
 20 39  1  0  0  0  0
M  CHG  1  16   1
M  END
> <s_m_source_file>
AV-unprocessed.smi

> <i_m_source_file_index>
1410

> <i_lp_mmshare_version>
43012

> <i_f3d_flags>
0

> <s_epik_input>
W05IMl1DKD1PKVtDSDJdTjFbQ0gyXVtDSDJdW0NIXShbQ0gyXVtDSDJdMSlbTkhdQyg9TylbTkhdYzJbY0hdW2NIXW5bY0hdW2NIXTI=

> <s_epik_cmdline>
J2VwaWtfcHl0aG9uJywgJy1waCcsICc3LjAnLCAnLXRuJywgJzgnLCAnLW1hJywgJzIwMCcsICctbWV0YWxfYmluZGluZycsICctaW1hZScsICc8aW5maWxlLm1hZT4nLCAnLW9tYWUnLCAnPG91dGZpbGUubWFlPic=

> <r_epik_Ionization_Penalty>
1.15133

> <r_epik_Ionization_Penalty_Charging>
0.995513

> <r_epik_Ionization_Penalty_Neutral>
0.155816

> <r_epik_State_Penalty>
1.22158

> <r_epik_Charging_Adjusted_Penalty>
2.2171

> <i_epik_Tot_Q>
1

> <i_epik_Tot_abs_Q>
1

> <r_epik_Metal_State_Penalty>
1.3359

> <b_epik_Metal_Only>
0

> <s_lp_Force_Field>
OPLS_2005

> <r_lp_Energy>
21.9587

> <b_lp_Chiralities_Consistent>
1

> <s_lp_Variant>
AV-unprocessed.smi:1410-4

> <Gold.Version>
5.8.1

> <Gold.Id.Protein>
6NUR|6NUR_protein|mol2

> <Gold.PLP.Fitness>
50.4569

> <Gold.PLP.PLP>
-34.6045

> <Gold.PLP.part.hbond>
-7.9611

> <Gold.PLP.part.metal>
0.0000

> <Gold.PLP.part.buried>
-0.7196

> <Gold.PLP.part.nonpolar>
-31.4174

> <Gold.PLP.part.repulsive>
4.1122

> <Gold.PLP.ligand.clash>
0.0000

> <Gold.PLP.ligand.torsion>
0.2706

> <Gold.PLP.Chemscore.Hbond>
5.4625

> <Gold.PLP.Chemscore.CHOScore>
0.0000

> <Gold.PLP.Chemscore.Metal>
0.0000

> <Gold.Chemscore.Hbonds>
donor molecule, donor type, donor heavy atom, donor atom, acceptor molecule, acceptor atom, score
      L1  H     1    21       P1 10195  1.00
      L1  H     1    22       P1 10186  0.21
      L1  H     9    30       P1  7948  0.65
      L1  H    12    31       P1  7948  0.25
      L1  H    16    40       P1  8028  0.59
      P1  H  7918  7932       L1     3  0.10

> <Gold.PLP.Chemscore.Internal.Correction>
0.0062

> <Gold.Rescore>
     Score         DG    S(hbond)    S(metal)    S(lipo)     H(rot)  DE(clash)    DE(int)     intcor
     18.73     -22.69       4.18        0.00      70.74       1.96       2.13       1.83       ----

> <Gold.Chemscore.Fitness>
18.7291

> <Gold.Chemscore.DG>
-22.6918

> <Gold.Chemscore.ZeroCoef>
-5.4800

> <Gold.Chemscore.Hbond>
4.1813

> <Gold.Chemscore.Metal>
0.0000

> <Gold.Chemscore.Lipo>
70.7384

> <Gold.Chemscore.Internal_Hbond>
0.0000

> <Gold.Chemscore.DEClash>
2.1310

> <Gold.Chemscore.DEInternal>
1.8318

> <Gold.Chemscore.Rot>
1.9650

> <Gold.Chemscore.Internal.Correction>
   9.000000E+99

> <Gold.Chemscore.Hbonds>
donor molecule, donor type, donor heavy atom, donor atom, acceptor molecule, acceptor atom, score
      L1  H     1    21       P1 10195  0.88
      L1  H     1    22       P1 10186  0.22
      L1  H     9    30       P1  7948  0.65
      L1  H    12    31       P1  7948  0.25
      L1  H    16    40       P1  8028  0.29
      P1  H  7918  7932       L1     3  0.11

> <Gold.Chemscore.Hbond.Weighted>
-13.9657

> <Gold.Chemscore.Metal.Weighted>
-0.0000

> <Gold.Chemscore.Lipo.Weighted>
-8.2764

> <Gold.Chemscore.Internal_Hbond.Weighted>
0.0000

> <Gold.Chemscore.DEClash.Weighted>
2.1310

> <Gold.Chemscore.DEInternal.Weighted>
1.8318

> <Gold.Chemscore.Rot.Weighted>
5.0303

> <Gold.Chemscore.Internal.Correction.Weighted>
   9.000000E+99

> <Gold.Protein.RotatedTorsions>
[ 6907 6896 6895 6894 ] final  131.09 input  -60.11 | X-H torsion
[ 7974 7965 7964 7962 ] final  -55.36 input  175.53 | X-H torsion
[ 8008 7997 7996 7995 ] final  123.20 input   59.86 | X-H torsion
[ 10167 10162 10161 10158 ] final  151.94 input  -65.29 | X-H torsion
[ 10718 10713 10712 10709 ] final   -2.65 input   66.30 | X-H torsion
[ 10763 10752 10751 10750 ] final -112.92 input  -60.55 | X-H torsion
[ 11005 11000 10999 10996 ] final   15.06 input  -57.11 | X-H torsion

> <Gold.Protein.ActiveResidues>
 VAL166  LYS551  ARG553  GLY616  TRP617  ASP618  TYR619  PRO620  LYS621  CYS622 
 ASP623  PHE694  ASN695  SER759  ASP760  ASP761  ALA762  ILE779  LEU786  VAL792 
 PHE793  MET794  SER795  GLU796  ALA797  LYS798  CYS799  TRP800  GLU811  SER814 

> <Gold.Protein.RotatedAtoms>
  152.3461  133.6124  159.5910 H   0  0  0  0  0  0  0  0  0  0  0  0  # atno 6907 bound_to 6896
  150.7508  133.9647  159.3535 H   0  0  0  0  0  0  0  0  0  0  0  0  # atno 6908 bound_to 6896
  151.7505  135.0834  160.0381 H   0  0  0  0  0  0  0  0  0  0  0  0  # atno 6909 bound_to 6896
  145.8751  140.8187  142.9868 H   0  0  0  0  0  0  0  0  0  0  0  0  # atno 7974 bound_to 7965
  156.2757  140.2768  156.1589 H   0  0  0  0  0  0  0  0  0  0  0  0  # atno 8008 bound_to 7997
  155.0775  140.0387  157.2646 H   0  0  0  0  0  0  0  0  0  0  0  0  # atno 8009 bound_to 7997
  154.6991  140.2645  155.6743 H   0  0  0  0  0  0  0  0  0  0  0  0  # atno 8010 bound_to 7997
  139.4836  144.5399  151.7582 H   0  0  0  0  0  0  0  0  0  0  0  0  # atno 10167 bound_to 10162
  156.7877  130.5351  149.5740 H   0  0  0  0  0  0  0  0  0  0  0  0  # atno 10718 bound_to 10713
  154.8372  135.4473  154.1268 H   0  0  0  0  0  0  0  0  0  0  0  0  # atno 10763 bound_to 10752
  153.2489  135.6924  153.7707 H   0  0  0  0  0  0  0  0  0  0  0  0  # atno 10764 bound_to 10752
  153.7027  135.3369  155.3204 H   0  0  0  0  0  0  0  0  0  0  0  0  # atno 10765 bound_to 10752
  140.4625  134.1113  155.7719 H   0  0  0  0  0  0  0  0  0  0  0  0  # atno 11005 bound_to 11000
  144.6726  140.1298  143.7444 LP  0  0  0  0  0  0  0  0  0  0  0  0  # atno 17320 bound_to 7965
  145.9091  139.2476  143.1448 LP  0  0  0  0  0  0  0  0  0  0  0  0  # atno 17321 bound_to 7965
  140.4937  144.1272  150.5955 LP  0  0  0  0  0  0  0  0  0  0  0  0  # atno 17342 bound_to 10162
  140.4141  143.2642  151.9796 LP  0  0  0  0  0  0  0  0  0  0  0  0  # atno 17343 bound_to 10162
  156.1178  130.6088  151.0148 LP  0  0  0  0  0  0  0  0  0  0  0  0  # atno 17370 bound_to 10713
  157.6616  131.0880  150.7826 LP  0  0  0  0  0  0  0  0  0  0  0  0  # atno 17371 bound_to 10713
  141.1614  133.8785  157.1836 LP  0  0  0  0  0  0  0  0  0  0  0  0  # atno 17394 bound_to 11000
  139.9936  135.0055  157.0032 LP  0  0  0  0  0  0  0  0  0  0  0  0  # atno 17395 bound_to 11000

$$$$
