AV-unprocessed.smi:2679|AV-procd|sdf|10370|dock8
  -GOLD-   2272014403D 1   1.00000     0.00000
 Structure written by MMmdl.
 39 40  0  0  0  0  0  0  0  0  1 V2000
  149.2228  135.1670  154.7154 C   0  0  0  0  0  0  0  0  0  0  0  0
  148.7308  136.1895  155.6883 C   0  0  0  0  0  0  0  0  0  0  0  0
  147.7046  135.9841  156.5169 N   0  0  0  0  0  0  0  0  0  0  0  0
  147.5721  137.1541  157.2315 N   0  0  0  0  0  0  0  0  0  0  0  0
  148.5295  137.9632  156.7724 C   0  0  0  0  0  0  0  0  0  0  0  0
  148.7861  139.6008  157.3653 S   0  0  0  0  0  0  0  0  0  0  0  0
  150.5040  139.3959  157.9218 C   0  0  2  0  0  0  0  0  0  0  0  0
  150.5913  138.1465  158.6966 C   0  0  0  0  0  0  0  0  0  0  0  0
  150.6602  137.1650  159.3057 N   0  0  0  0  0  0  0  0  0  0  0  0
  151.0007  140.6319  158.7057 C   0  0  0  0  0  0  0  0  0  0  0  0
  150.9172  141.9191  157.8524 C   0  0  0  0  0  0  0  0  0  0  0  0
  151.4120  143.1541  158.6221 C   0  0  0  0  0  0  0  0  0  0  0  0
  152.8429  142.9519  159.1394 C   0  0  0  0  0  0  0  0  0  0  0  0
  152.9404  141.6829  159.9974 C   0  0  0  0  0  0  0  0  0  0  0  0
  152.4439  140.4477  159.2283 C   0  0  0  0  0  0  0  0  0  0  0  0
  149.2915  137.4110  155.8061 N   0  0  0  0  0  0  0  0  0  0  0  0
  150.4173  137.9856  155.0809 C   0  0  0  0  0  0  0  0  0  0  0  0
  149.9979  139.2400  154.3119 C   0  0  0  0  0  0  0  0  0  0  0  0
  149.1150  139.0823  153.3225 N   0  0  0  0  0  0  0  0  0  0  0  0
  150.4681  140.3372  154.6044 O   0  0  0  0  0  0  0  0  0  0  0  0
  148.5974  134.2743  154.7519 H   0  0  0  0  0  0  0  0  0  0  0  0
  150.2471  134.8808  154.9547 H   0  0  0  0  0  0  0  0  0  0  0  0
  149.1945  135.5654  153.7012 H   0  0  0  0  0  0  0  0  0  0  0  0
  151.1370  139.2605  157.0442 H   0  0  0  0  0  0  0  0  0  0  0  0
  150.3526  140.7571  159.5745 H   0  0  0  0  0  0  0  0  0  0  0  0
  151.5097  141.7952  156.9449 H   0  0  0  0  0  0  0  0  0  0  0  0
  149.8933  142.0984  157.5251 H   0  0  0  0  0  0  0  0  0  0  0  0
  151.3709  144.0336  157.9788 H   0  0  0  0  0  0  0  0  0  0  0  0
  150.7439  143.3533  159.4610 H   0  0  0  0  0  0  0  0  0  0  0  0
  153.5312  142.8777  158.2964 H   0  0  0  0  0  0  0  0  0  0  0  0
  153.1560  143.8198  159.7205 H   0  0  0  0  0  0  0  0  0  0  0  0
  153.9712  141.5305  160.3185 H   0  0  0  0  0  0  0  0  0  0  0  0
  152.3496  141.8091  160.9056 H   0  0  0  0  0  0  0  0  0  0  0  0
  152.5049  139.5811  159.8865 H   0  0  0  0  0  0  0  0  0  0  0  0
  153.1132  140.2457  158.3910 H   0  0  0  0  0  0  0  0  0  0  0  0
  151.2205  138.2095  155.7845 H   0  0  0  0  0  0  0  0  0  0  0  0
  150.8155  137.2493  154.3828 H   0  0  0  0  0  0  0  0  0  0  0  0
  148.8040  139.8808  152.7886 H   0  0  0  0  0  0  0  0  0  0  0  0
  148.7568  138.1614  153.1139 H   0  0  0  0  0  0  0  0  0  0  0  0
  1  2  1  0  0  0  0
  1 21  1  0  0  0  0
  1 22  1  0  0  0  0
  1 23  1  0  0  0  0
  2 16  1  0  0  0  0
  2  3  2  0  0  0  0
  3  4  1  0  0  0  0
  4  5  2  0  0  0  0
  5  6  1  0  0  0  0
  5 16  1  0  0  0  0
  6  7  1  0  0  0  0
  7  8  1  0  0  0  0
  7 10  1  0  0  0  0
  7 24  1  0  0  0  0
  8  9  3  0  0  0  0
 10 15  1  0  0  0  0
 10 11  1  0  0  0  0
 10 25  1  0  0  0  0
 11 12  1  0  0  0  0
 11 26  1  0  0  0  0
 11 27  1  0  0  0  0
 12 13  1  0  0  0  0
 12 28  1  0  0  0  0
 12 29  1  0  0  0  0
 13 14  1  0  0  0  0
 13 30  1  0  0  0  0
 13 31  1  0  0  0  0
 14 15  1  0  0  0  0
 14 32  1  0  0  0  0
 14 33  1  0  0  0  0
 15 34  1  0  0  0  0
 15 35  1  0  0  0  0
 16 17  1  0  0  0  0
 17 18  1  0  0  0  0
 17 36  1  0  0  0  0
 17 37  1  0  0  0  0
 18 19  1  0  0  0  0
 18 20  2  0  0  0  0
 19 38  1  0  0  0  0
 19 39  1  0  0  0  0
M  END
> <s_m_source_file>
AV-unprocessed.smi

> <i_m_source_file_index>
2679

> <i_lp_mmshare_version>
43012

> <i_f3d_flags>
0

> <s_epik_input>
W0NIM11jMW5uYyhuMVtDSDJdQyg9TylbTkgyXSlTW0NASF0oQyNOKVtDSF0yW0NIMl1bQ0gyXVtDSDJdW0NIMl1bQ0gyXTI=

> <s_epik_cmdline>
J2VwaWtfcHl0aG9uJywgJy1waCcsICc3LjAnLCAnLXRuJywgJzgnLCAnLW1hJywgJzIwMCcsICctbWV0YWxfYmluZGluZycsICctaW1hZScsICc8aW5maWxlLm1hZT4nLCAnLW9tYWUnLCAnPG91dGZpbGUubWFlPic=

> <r_lp_tautomer_probability>
1

> <r_epik_Ionization_Penalty>
1.94949e-07

> <r_epik_Ionization_Penalty_Charging>
0

> <r_epik_Ionization_Penalty_Neutral>
1.94949e-07

> <r_epik_State_Penalty>
-0

> <r_epik_Charging_Adjusted_Penalty>
0

> <i_epik_Tot_Q>
0

> <i_epik_Tot_abs_Q>
0

> <r_epik_Metal_State_Penalty>
-0

> <b_epik_Metal_Only>
0

> <s_lp_Force_Field>
OPLS_2005

> <r_lp_Energy>
7.74931

> <b_lp_Chiralities_Consistent>
1

> <s_lp_Variant>
AV-unprocessed.smi:2679-1

> <Gold.Version>
5.8.1

> <Gold.Id.Protein>
6NUR|6NUR_protein|mol2

> <Gold.PLP.Fitness>
45.0523

> <Gold.PLP.PLP>
-33.3984

> <Gold.PLP.part.hbond>
-4.0000

> <Gold.PLP.part.metal>
0.0000

> <Gold.PLP.part.buried>
-6.0274

> <Gold.PLP.part.nonpolar>
-24.0229

> <Gold.PLP.part.repulsive>
0.1841

> <Gold.PLP.ligand.clash>
0.0000

> <Gold.PLP.ligand.torsion>
0.0913

> <Gold.PLP.Chemscore.Hbond>
3.9200

> <Gold.PLP.Chemscore.CHOScore>
0.0000

> <Gold.PLP.Chemscore.Metal>
0.0000

> <Gold.Chemscore.Hbonds>
donor molecule, donor type, donor heavy atom, donor atom, acceptor molecule, acceptor atom, score
      L1  H    19    38       P1  7957  0.29
      L1  H    19    39       P1  7948  0.33
      P1  H  6896  6908       L1     9  0.59
      P1  H  7989  7998       L1    20  1.00

> <Gold.PLP.Chemscore.Internal.Correction>
0.0765

> <Gold.Rescore>
     Score         DG    S(hbond)    S(metal)    S(lipo)     H(rot)  DE(clash)    DE(int)     intcor
     19.17     -19.37       3.74        0.00      68.39       2.57       0.00       0.21       ----

> <Gold.Chemscore.Fitness>
19.1696

> <Gold.Chemscore.DG>
-19.3750

> <Gold.Chemscore.ZeroCoef>
-5.4800

> <Gold.Chemscore.Hbond>
3.7366

> <Gold.Chemscore.Metal>
0.0000

> <Gold.Chemscore.Lipo>
68.3860

> <Gold.Chemscore.Internal_Hbond>
0.0000

> <Gold.Chemscore.DEClash>
0.0000

> <Gold.Chemscore.DEInternal>
0.2054

> <Gold.Chemscore.Rot>
2.5728

> <Gold.Chemscore.Internal.Correction>
   9.000000E+99

> <Gold.Chemscore.Hbonds>
donor molecule, donor type, donor heavy atom, donor atom, acceptor molecule, acceptor atom, score
      L1  H    19    38       P1  7957  0.28
      L1  H    19    39       P1  7948  0.33
      P1  H  6896  6908       L1     9  0.58
      P1  H  7989  7998       L1    20  0.84

> <Gold.Chemscore.Hbond.Weighted>
-12.4803

> <Gold.Chemscore.Metal.Weighted>
-0.0000

> <Gold.Chemscore.Lipo.Weighted>
-8.0012

> <Gold.Chemscore.Internal_Hbond.Weighted>
0.0000

> <Gold.Chemscore.DEClash.Weighted>
0.0000

> <Gold.Chemscore.DEInternal.Weighted>
0.2054

> <Gold.Chemscore.Rot.Weighted>
6.5865

> <Gold.Chemscore.Internal.Correction.Weighted>
   9.000000E+99

> <Gold.Protein.RotatedTorsions>
[ 6907 6896 6895 6894 ] final -143.62 input  -60.11 | X-H torsion
[ 7974 7965 7964 7962 ] final  149.12 input  175.53 | X-H torsion
[ 8008 7997 7996 7995 ] final -161.51 input   59.86 | X-H torsion
[ 10167 10162 10161 10158 ] final  -28.97 input  -65.29 | X-H torsion
[ 10718 10713 10712 10709 ] final  -82.11 input   66.30 | X-H torsion
[ 10763 10752 10751 10750 ] final  147.44 input  -60.55 | X-H torsion
[ 11005 11000 10999 10996 ] final   41.42 input  -57.11 | X-H torsion

> <Gold.Protein.ActiveResidues>
 VAL166  LYS551  ARG553  GLY616  TRP617  ASP618  TYR619  PRO620  LYS621  CYS622 
 ASP623  PHE694  ASN695  SER759  ASP760  ASP761  ALA762  ILE779  LEU786  VAL792 
 PHE793  MET794  SER795  GLU796  ALA797  LYS798  CYS799  TRP800  GLU811  SER814 

> <Gold.Protein.RotatedAtoms>
  151.1030  133.5229  159.2608 H   0  0  0  0  0  0  0  0  0  0  0  0  # atno 6907 bound_to 6896
  151.2053  135.0458  159.8899 H   0  0  0  0  0  0  0  0  0  0  0  0  # atno 6908 bound_to 6896
  152.5444  134.0853  159.8307 H   0  0  0  0  0  0  0  0  0  0  0  0  # atno 6909 bound_to 6896
  144.8462  139.6240  143.5994 H   0  0  0  0  0  0  0  0  0  0  0  0  # atno 7974 bound_to 7965
  155.7933  140.0881  157.1997 H   0  0  0  0  0  0  0  0  0  0  0  0  # atno 8008 bound_to 7997
  154.3984  140.1486  156.3247 H   0  0  0  0  0  0  0  0  0  0  0  0  # atno 8009 bound_to 7997
  155.8537  140.3433  155.5712 H   0  0  0  0  0  0  0  0  0  0  0  0  # atno 8010 bound_to 7997
  140.7265  143.3966  151.1336 H   0  0  0  0  0  0  0  0  0  0  0  0  # atno 10167 bound_to 10162
  156.0038  130.4624  150.4055 H   0  0  0  0  0  0  0  0  0  0  0  0  # atno 10718 bound_to 10713
  154.0383  135.2892  155.3358 H   0  0  0  0  0  0  0  0  0  0  0  0  # atno 10763 bound_to 10752
  154.6945  135.5213  153.8442 H   0  0  0  0  0  0  0  0  0  0  0  0  # atno 10764 bound_to 10752
  153.0610  135.6614  154.0590 H   0  0  0  0  0  0  0  0  0  0  0  0  # atno 10765 bound_to 10752
  140.1836  134.4073  155.8186 H   0  0  0  0  0  0  0  0  0  0  0  0  # atno 11005 bound_to 11000
  146.2746  139.6720  142.9272 LP  0  0  0  0  0  0  0  0  0  0  0  0  # atno 17320 bound_to 7965
  145.4593  141.0432  143.2761 LP  0  0  0  0  0  0  0  0  0  0  0  0  # atno 17321 bound_to 7965
  139.7580  143.8678  152.3093 LP  0  0  0  0  0  0  0  0  0  0  0  0  # atno 17342 bound_to 10162
  139.8554  144.7143  150.9163 LP  0  0  0  0  0  0  0  0  0  0  0  0  # atno 17343 bound_to 10162
  157.2121  131.0463  151.2593 LP  0  0  0  0  0  0  0  0  0  0  0  0  # atno 17370 bound_to 10713
  157.3878  130.7266  149.6676 LP  0  0  0  0  0  0  0  0  0  0  0  0  # atno 17371 bound_to 10713
  141.2224  133.7012  156.7974 LP  0  0  0  0  0  0  0  0  0  0  0  0  # atno 17394 bound_to 11000
  140.2239  134.8736  157.3406 LP  0  0  0  0  0  0  0  0  0  0  0  0  # atno 17395 bound_to 11000

$$$$
