AV-unprocessed.smi:3165|AV-procd|sdf|12086|dock10
  -GOLD-   2272017513D 1   1.00000     0.00000
 Structure written by MMmdl.
 38 39  0  0  0  0  0  0  0  0  2 V2000
  145.6617  136.4038  150.4375 C   0  0  0  0  0  0  0  0  0  0  0  0
  145.7218  136.1342  151.9541 C   0  0  1  0  0  0  0  0  0  0  0  0
  146.1094  134.6750  152.2748 C   0  0  0  0  0  0  0  0  0  0  0  0
  145.5149  133.7118  151.3653 N   0  0  0  0  0  0  0  0  0  0  0  0
  146.1182  132.6504  150.7234 C   0  0  0  0  0  0  0  0  0  0  0  0
  145.1566  132.0236  149.9838 C   0  0  0  0  0  0  0  0  0  0  0  0
  143.9806  132.7803  150.2467 C   0  0  0  0  0  0  0  0  0  0  0  0
  144.1975  133.7873  151.0776 N   0  0  0  0  0  0  0  0  0  0  0  0
  146.6732  137.0481  152.6252 N   0  3  0  0  0  0  0  0  0  0  0  0
  146.4787  138.4875  152.3486 C   0  0  0  0  0  0  0  0  0  0  0  0
  147.1083  139.3471  153.4537 C   0  0  2  0  0  0  0  0  0  0  0  0
  147.0626  140.8484  153.1094 C   0  0  0  0  0  0  0  0  0  0  0  0
  147.7813  141.6718  154.1845 C   0  0  0  0  0  0  0  0  0  0  0  0
  149.1943  141.1198  154.4006 C   0  0  0  0  0  0  0  0  0  0  0  0
  149.1413  139.6081  154.6713 C   0  0  0  0  0  0  0  0  0  0  0  0
  148.4695  138.9469  153.6030 O   0  0  0  0  0  0  0  0  0  0  0  0
  144.9469  135.7452  149.9437 H   0  0  0  0  0  0  0  0  0  0  0  0
  146.6338  136.2470  149.9689 H   0  0  0  0  0  0  0  0  0  0  0  0
  145.3467  137.4236  150.2183 H   0  0  0  0  0  0  0  0  0  0  0  0
  144.7330  136.3172  152.3778 H   0  0  0  0  0  0  0  0  0  0  0  0
  147.1936  134.5568  152.2390 H   0  0  0  0  0  0  0  0  0  0  0  0
  145.8019  134.4152  153.2889 H   0  0  0  0  0  0  0  0  0  0  0  0
  147.1693  132.4322  150.8424 H   0  0  0  0  0  0  0  0  0  0  0  0
  145.2742  131.1551  149.3531 H   0  0  0  0  0  0  0  0  0  0  0  0
  142.9827  132.6275  149.8629 H   0  0  0  0  0  0  0  0  0  0  0  0
  146.5671  136.9194  153.6214 H   0  0  0  0  0  0  0  0  0  0  0  0
  146.9097  138.7522  151.3831 H   0  0  0  0  0  0  0  0  0  0  0  0
  145.4089  138.6919  152.2914 H   0  0  0  0  0  0  0  0  0  0  0  0
  146.5732  139.1737  154.3894 H   0  0  0  0  0  0  0  0  0  0  0  0
  147.5378  141.0196  152.1424 H   0  0  0  0  0  0  0  0  0  0  0  0
  146.0297  141.1844  153.0135 H   0  0  0  0  0  0  0  0  0  0  0  0
  147.8232  142.7224  153.8956 H   0  0  0  0  0  0  0  0  0  0  0  0
  147.2213  141.6251  155.1193 H   0  0  0  0  0  0  0  0  0  0  0  0
  149.8022  141.3093  153.5151 H   0  0  0  0  0  0  0  0  0  0  0  0
  149.6792  141.6365  155.2294 H   0  0  0  0  0  0  0  0  0  0  0  0
  150.1517  139.2075  154.7536 H   0  0  0  0  0  0  0  0  0  0  0  0
  148.6383  139.3989  155.6168 H   0  0  0  0  0  0  0  0  0  0  0  0
  147.6154  136.7884  152.3692 H   0  0  0  0  0  0  0  0  0  0  0  0
  1  2  1  0  0  0  0
  1 17  1  0  0  0  0
  1 18  1  0  0  0  0
  1 19  1  0  0  0  0
  2  3  1  0  0  0  0
  2  9  1  0  0  0  0
  2 20  1  0  0  0  0
  3  4  1  0  0  0  0
  3 21  1  0  0  0  0
  3 22  1  0  0  0  0
  4  8  1  0  0  0  0
  4  5  1  0  0  0  0
  5  6  2  0  0  0  0
  5 23  1  0  0  0  0
  6  7  1  0  0  0  0
  6 24  1  0  0  0  0
  7  8  2  0  0  0  0
  7 25  1  0  0  0  0
  9 10  1  0  0  0  0
  9 26  1  0  0  0  0
  9 38  1  0  0  0  0
 10 11  1  0  0  0  0
 10 27  1  0  0  0  0
 10 28  1  0  0  0  0
 11 16  1  0  0  0  0
 11 12  1  0  0  0  0
 11 29  1  0  0  0  0
 12 13  1  0  0  0  0
 12 30  1  0  0  0  0
 12 31  1  0  0  0  0
 13 14  1  0  0  0  0
 13 32  1  0  0  0  0
 13 33  1  0  0  0  0
 14 15  1  0  0  0  0
 14 34  1  0  0  0  0
 14 35  1  0  0  0  0
 15 16  1  0  0  0  0
 15 36  1  0  0  0  0
 15 37  1  0  0  0  0
M  CHG  1   9   1
M  END
> <s_m_source_file>
AV-unprocessed.smi

> <i_m_source_file_index>
3165

> <i_lp_mmshare_version>
43012

> <i_f3d_flags>
0

> <s_epik_input>
bjFbY0hdW2NIXVtjSF1uMVtDSDJdW0NAQEhdKFtDSDNdKVtOSF1bQ0gyXVtDQEBIXTJbQ0gyXVtDSDJdW0NIMl1bQ0gyXU8y

> <s_epik_cmdline>
J2VwaWtfcHl0aG9uJywgJy1waCcsICc3LjAnLCAnLXRuJywgJzgnLCAnLW1hJywgJzIwMCcsICctbWV0YWxfYmluZGluZycsICctaW1hZScsICc8aW5maWxlLm1hZT4nLCAnLW9tYWUnLCAnPG91dGZpbGUubWFlPic=

> <r_lp_tautomer_probability>
1

> <r_epik_Ionization_Penalty>
0.00849196

> <r_epik_Ionization_Penalty_Charging>
0.00848754

> <r_epik_Ionization_Penalty_Neutral>
4.42049e-06

> <r_epik_State_Penalty>
0.00639836

> <r_epik_Charging_Adjusted_Penalty>
0.0148859

> <i_epik_Tot_Q>
1

> <i_epik_Tot_abs_Q>
1

> <r_epik_Metal_State_Penalty>
0.00639878

> <b_epik_Metal_Only>
0

> <s_lp_Force_Field>
OPLS_2005

> <r_lp_Energy>
12.7684

> <b_lp_Chiralities_Consistent>
1

> <s_lp_Variant>
AV-unprocessed.smi:3165-2

> <Gold.Version>
5.8.1

> <Gold.Id.Protein>
6NUR|6NUR_protein|mol2

> <Gold.PLP.Fitness>
43.2548

> <Gold.PLP.PLP>
-32.1595

> <Gold.PLP.part.hbond>
-1.0000

> <Gold.PLP.part.metal>
0.0000

> <Gold.PLP.part.buried>
-2.1741

> <Gold.PLP.part.nonpolar>
-31.4817

> <Gold.PLP.part.repulsive>
1.8545

> <Gold.PLP.ligand.clash>
0.0000

> <Gold.PLP.ligand.torsion>
0.4765

> <Gold.PLP.Chemscore.Hbond>
2.0000

> <Gold.PLP.Chemscore.CHOScore>
1.9951

> <Gold.PLP.Chemscore.Metal>
0.0000

> <Gold.Chemscore.Hbonds>
donor molecule, donor type, donor heavy atom, donor atom, acceptor molecule, acceptor atom, score
      L1  H     9    38       P1  7948  1.98
      L1  C     5    23       P1 10747  1.00
      L1  C     7    25       P1 10186  0.61

> <Gold.PLP.Chemscore.Internal.Correction>
0.0628

> <Gold.Rescore>
     Score         DG    S(hbond)    S(metal)    S(lipo)     H(rot)  DE(clash)    DE(int)     intcor
     13.58     -14.60       0.99        0.00      85.60       1.64       0.67       0.36       ----

> <Gold.Chemscore.Fitness>
13.5784

> <Gold.Chemscore.DG>
-14.6040

> <Gold.Chemscore.ZeroCoef>
-5.4800

> <Gold.Chemscore.Hbond>
0.9936

> <Gold.Chemscore.Metal>
0.0000

> <Gold.Chemscore.Lipo>
85.5987

> <Gold.Chemscore.Internal_Hbond>
0.0000

> <Gold.Chemscore.DEClash>
0.6651

> <Gold.Chemscore.DEInternal>
0.3604

> <Gold.Chemscore.Rot>
1.6444

> <Gold.Chemscore.Internal.Correction>
   9.000000E+99

> <Gold.Chemscore.Hbonds>
donor molecule, donor type, donor heavy atom, donor atom, acceptor molecule, acceptor atom, score
      L1  H     9    38       P1  7948  0.92

> <Gold.Chemscore.Hbond.Weighted>
-3.3186

> <Gold.Chemscore.Metal.Weighted>
-0.0000

> <Gold.Chemscore.Lipo.Weighted>
-10.0150

> <Gold.Chemscore.Internal_Hbond.Weighted>
0.0000

> <Gold.Chemscore.DEClash.Weighted>
0.6651

> <Gold.Chemscore.DEInternal.Weighted>
0.3604

> <Gold.Chemscore.Rot.Weighted>
4.2097

> <Gold.Chemscore.Internal.Correction.Weighted>
   9.000000E+99

> <Gold.Protein.RotatedTorsions>
[ 6907 6896 6895 6894 ] final  -95.70 input  -60.11 | X-H torsion
[ 7974 7965 7964 7962 ] final   51.47 input  175.53 | X-H torsion
[ 8008 7997 7996 7995 ] final  -44.19 input   59.86 | X-H torsion
[ 10167 10162 10161 10158 ] final   35.16 input  -65.29 | X-H torsion
[ 10718 10713 10712 10709 ] final  163.74 input   66.30 | X-H torsion
[ 10763 10752 10751 10750 ] final   34.68 input  -60.55 | X-H torsion
[ 11005 11000 10999 10996 ] final  146.27 input  -57.11 | X-H torsion

> <Gold.Protein.ActiveResidues>
 VAL166  LYS551  ARG553  GLY616  TRP617  ASP618  TYR619  PRO620  LYS621  CYS622 
 ASP623  PHE694  ASN695  SER759  ASP760  ASP761  ALA762  ILE779  LEU786  VAL792 
 PHE793  MET794  SER795  GLU796  ALA797  LYS798  CYS799  TRP800  GLU811  SER814 

> <Gold.Protein.RotatedAtoms>
  150.6970  134.1617  159.4178 H   0  0  0  0  0  0  0  0  0  0  0  0  # atno 6907 bound_to 6896
  151.9598  135.0127  160.0556 H   0  0  0  0  0  0  0  0  0  0  0  0  # atno 6908 bound_to 6896
  152.1937  133.4756  159.5058 H   0  0  0  0  0  0  0  0  0  0  0  0  # atno 6909 bound_to 6896
  145.9910  139.4339  143.0074 H   0  0  0  0  0  0  0  0  0  0  0  0  # atno 7974 bound_to 7965
  154.3997  140.1428  156.3642 H   0  0  0  0  0  0  0  0  0  0  0  0  # atno 8008 bound_to 7997
  155.8153  140.3471  155.5461 H   0  0  0  0  0  0  0  0  0  0  0  0  # atno 8009 bound_to 7997
  155.8344  140.0917  157.1763 H   0  0  0  0  0  0  0  0  0  0  0  0  # atno 8010 bound_to 7997
  140.4247  144.1409  150.6152 H   0  0  0  0  0  0  0  0  0  0  0  0  # atno 10167 bound_to 10162
  157.1042  131.0451  151.2485 H   0  0  0  0  0  0  0  0  0  0  0  0  # atno 10718 bound_to 10713
  153.0153  135.6354  154.1707 H   0  0  0  0  0  0  0  0  0  0  0  0  # atno 10763 bound_to 10752
  154.1447  135.2832  155.3153 H   0  0  0  0  0  0  0  0  0  0  0  0  # atno 10764 bound_to 10752
  154.6098  135.5560  153.7523 H   0  0  0  0  0  0  0  0  0  0  0  0  # atno 10765 bound_to 10752
  140.0780  134.9114  157.1454 H   0  0  0  0  0  0  0  0  0  0  0  0  # atno 11005 bound_to 11000
  145.7630  140.9927  143.1190 LP  0  0  0  0  0  0  0  0  0  0  0  0  # atno 17320 bound_to 7965
  144.6889  139.9354  143.7473 LP  0  0  0  0  0  0  0  0  0  0  0  0  # atno 17321 bound_to 7965
  140.4494  143.2493  151.9368 LP  0  0  0  0  0  0  0  0  0  0  0  0  # atno 17342 bound_to 10162
  139.4783  144.5577  151.8288 LP  0  0  0  0  0  0  0  0  0  0  0  0  # atno 17343 bound_to 10162
  157.4615  130.7656  149.7240 LP  0  0  0  0  0  0  0  0  0  0  0  0  # atno 17370 bound_to 10713
  155.9866  130.3973  150.3205 LP  0  0  0  0  0  0  0  0  0  0  0  0  # atno 17371 bound_to 10713
  140.3530  134.2578  155.7196 LP  0  0  0  0  0  0  0  0  0  0  0  0  # atno 17394 bound_to 11000
  141.2036  133.7907  157.0329 LP  0  0  0  0  0  0  0  0  0  0  0  0  # atno 17395 bound_to 11000

$$$$
