AV-unprocessed.smi:1428|AV-procd|sdf|5817|dock6
  -GOLD-   22720 5473D 1   1.00000     0.00000
 Structure written by MMmdl.
 43 44  0  0  0  0  0  0  0  0  3 V2000
  151.8294  145.3511  158.8796 C   0  0  0  0  0  0  0  0  0  0  0  0
  151.3219  144.2996  158.0653 O   0  0  0  0  0  0  0  0  0  0  0  0
  151.7796  143.0146  158.2869 C   0  0  0  0  0  0  0  0  0  0  0  0
  152.6970  142.8162  159.2666 N   0  0  0  0  0  0  0  0  0  0  0  0
  153.1427  141.5624  159.4856 C   0  0  0  0  0  0  0  0  0  0  0  0
  152.6982  140.4479  158.7511 C   0  0  0  0  0  0  0  0  0  0  0  0
  151.7466  140.6505  157.7347 C   0  0  0  0  0  0  0  0  0  0  0  0
  151.2796  141.9636  157.4829 C   0  0  0  0  0  0  0  0  0  0  0  0
  150.3078  142.2798  156.4935 N   0  0  0  0  0  0  0  0  0  0  0  0
  149.6595  141.4492  155.6599 C   0  0  0  0  0  0  0  0  0  0  0  0
  149.7963  140.2268  155.6213 O   0  0  0  0  0  0  0  0  0  0  0  0
  148.8427  142.1273  154.8409 N   0  0  0  0  0  0  0  0  0  0  0  0
  147.9980  141.5329  153.8054 C   0  0  2  0  0  0  0  0  0  0  0  0
  147.0007  142.5530  153.2207 C   0  0  0  0  0  0  0  0  0  0  0  0
  145.9008  142.9268  154.2298 C   0  0  0  0  0  0  0  0  0  0  0  0
  145.1856  141.7192  154.7135 N   0  3  2  0  0  0  0  0  0  0  0  0
  144.0241  142.0593  155.5731 C   0  0  0  0  0  0  0  0  0  0  0  0
  143.2994  140.7844  156.0193 C   0  0  0  0  0  0  0  0  0  0  0  0
  142.7885  140.0930  154.9828 N   0  5  0  0  0  0  0  0  0  0  0  0
  143.2314  140.5105  157.2161 O   0  0  0  0  0  0  0  0  0  0  0  0
  146.1178  140.7465  155.3448 C   0  0  0  0  0  0  0  0  0  0  0  0
  147.2295  140.3236  154.3666 C   0  0  0  0  0  0  0  0  0  0  0  0
  151.3752  146.2943  158.5762 H   0  0  0  0  0  0  0  0  0  0  0  0
  152.9098  145.4546  158.7694 H   0  0  0  0  0  0  0  0  0  0  0  0
  151.5899  145.1922  159.9320 H   0  0  0  0  0  0  0  0  0  0  0  0
  153.8709  141.4430  160.2742 H   0  0  0  0  0  0  0  0  0  0  0  0
  153.0751  139.4588  158.9660 H   0  0  0  0  0  0  0  0  0  0  0  0
  151.3859  139.7967  157.1826 H   0  0  0  0  0  0  0  0  0  0  0  0
  150.1456  143.2663  156.3528 H   0  0  0  0  0  0  0  0  0  0  0  0
  148.7946  143.1303  154.9469 H   0  0  0  0  0  0  0  0  0  0  0  0
  148.6500  141.1784  153.0050 H   0  0  0  0  0  0  0  0  0  0  0  0
  147.5188  143.4509  152.8825 H   0  0  0  0  0  0  0  0  0  0  0  0
  146.5347  142.1251  152.3323 H   0  0  0  0  0  0  0  0  0  0  0  0
  146.3276  143.4642  155.0782 H   0  0  0  0  0  0  0  0  0  0  0  0
  145.1946  143.6051  153.7496 H   0  0  0  0  0  0  0  0  0  0  0  0
  144.3442  142.6815  156.4118 H   0  0  0  0  0  0  0  0  0  0  0  0
  143.3015  142.6481  155.0063 H   0  0  0  0  0  0  0  0  0  0  0  0
  143.3119  140.0611  154.0997 H   0  0  0  0  0  0  0  0  0  0  0  0
  146.5511  141.1876  156.2436 H   0  0  0  0  0  0  0  0  0  0  0  0
  145.5743  139.8572  155.6658 H   0  0  0  0  0  0  0  0  0  0  0  0
  146.7813  139.7705  153.5400 H   0  0  0  0  0  0  0  0  0  0  0  0
  147.9165  139.6316  154.8556 H   0  0  0  0  0  0  0  0  0  0  0  0
  144.7987  141.2690  153.8959 H   0  0  0  0  0  0  0  0  0  0  0  0
  1  2  1  0  0  0  0
  1 23  1  0  0  0  0
  1 24  1  0  0  0  0
  1 25  1  0  0  0  0
  2  3  1  0  0  0  0
  3  8  1  0  0  0  0
  3  4  2  0  0  0  0
  4  5  1  0  0  0  0
  5  6  2  0  0  0  0
  5 26  1  0  0  0  0
  6  7  1  0  0  0  0
  6 27  1  0  0  0  0
  7  8  2  0  0  0  0
  7 28  1  0  0  0  0
  8  9  1  0  0  0  0
  9 10  1  0  0  0  0
  9 29  1  0  0  0  0
 10 11  2  0  0  0  0
 10 12  1  0  0  0  0
 12 13  1  0  0  0  0
 12 30  1  0  0  0  0
 13 22  1  0  0  0  0
 13 14  1  0  0  0  0
 13 31  1  0  0  0  0
 14 15  1  0  0  0  0
 14 32  1  0  0  0  0
 14 33  1  0  0  0  0
 15 16  1  0  0  0  0
 15 34  1  0  0  0  0
 15 35  1  0  0  0  0
 16 17  1  0  0  0  0
 16 21  1  0  0  0  0
 16 43  1  0  0  0  0
 17 18  1  0  0  0  0
 17 36  1  0  0  0  0
 17 37  1  0  0  0  0
 18 19  1  0  0  0  0
 18 20  2  0  0  0  0
 19 38  1  0  0  0  0
 21 22  1  0  0  0  0
 21 39  1  0  0  0  0
 21 40  1  0  0  0  0
 22 41  1  0  0  0  0
 22 42  1  0  0  0  0
M  CHG  1  16   1
M  CHG  1  19  -1
M  END
> <s_m_source_file>
AV-unprocessed.smi

> <i_m_source_file_index>
1428

> <i_lp_mmshare_version>
43012

> <i_f3d_flags>
0

> <s_epik_input>
W0NIM11PYzFuW2NIXVtjSF1bY0hdYzFbTkhdQyg9TylbTkhdW0NIXTJbQ0gyXVtDSDJdTihbQ0gyXVtDSDJdMilbQ0gyXUMoPU8pW05IMl0=

> <s_epik_cmdline>
J2VwaWtfcHl0aG9uJywgJy1waCcsICc3LjAnLCAnLXRuJywgJzgnLCAnLW1hJywgJzIwMCcsICctbWV0YWxfYmluZGluZycsICctaW1hZScsICc8aW5maWxlLm1hZT4nLCAnLW9tYWUnLCAnPG91dGZpbGUubWFlPic=

> <r_lp_tautomer_probability>
1

> <r_epik_Ionization_Penalty>
5.72888

> <r_epik_Ionization_Penalty_Charging>
5.7288

> <r_epik_Ionization_Penalty_Neutral>
7.84403e-05

> <r_epik_State_Penalty>
6.54882

> <r_epik_Charging_Adjusted_Penalty>
12.2776

> <i_epik_Tot_Q>
0

> <i_epik_Tot_abs_Q>
2

> <r_epik_Metal_State_Penalty>
2.51301

> <b_epik_Metal_Only>
1

> <s_lp_Force_Field>
OPLS_2005

> <r_lp_Energy>
10.1368

> <b_lp_Chiralities_Consistent>
1

> <s_lp_Variant>
AV-unprocessed.smi:1428-5

> <Gold.Version>
5.8.1

> <Gold.Id.Protein>
6NUR|6NUR_protein|mol2

> <Gold.PLP.Fitness>
49.2364

> <Gold.PLP.PLP>
-34.5443

> <Gold.PLP.part.hbond>
-4.0000

> <Gold.PLP.part.metal>
0.0000

> <Gold.PLP.part.buried>
-7.7109

> <Gold.PLP.part.nonpolar>
-22.5283

> <Gold.PLP.part.repulsive>
0.4860

> <Gold.PLP.ligand.clash>
0.0000

> <Gold.PLP.ligand.torsion>
0.1368

> <Gold.PLP.Chemscore.Hbond>
4.9760

> <Gold.PLP.Chemscore.CHOScore>
0.0000

> <Gold.PLP.Chemscore.Metal>
0.0000

> <Gold.Chemscore.Hbonds>
donor molecule, donor type, donor heavy atom, donor atom, acceptor molecule, acceptor atom, score
      L1  H     9    29       P1  8028  0.94
      L1  H    12    30       P1  8028  1.00
      L1  H    16    43       P1 10175  2.00
      L1  H    19    38       P1 10175  1.00

> <Gold.PLP.Chemscore.Internal.Correction>
0.0377

> <Gold.Rescore>
     Score         DG    S(hbond)    S(metal)    S(lipo)     H(rot)  DE(clash)    DE(int)     intcor
     16.71     -21.09       3.77        0.00      75.79       2.29       1.72       2.66       ----

> <Gold.Chemscore.Fitness>
16.7115

> <Gold.Chemscore.DG>
-21.0917

> <Gold.Chemscore.ZeroCoef>
-5.4800

> <Gold.Chemscore.Hbond>
3.7738

> <Gold.Chemscore.Metal>
0.0000

> <Gold.Chemscore.Lipo>
75.7941

> <Gold.Chemscore.Internal_Hbond>
0.0000

> <Gold.Chemscore.DEClash>
1.7202

> <Gold.Chemscore.DEInternal>
2.6601

> <Gold.Chemscore.Rot>
2.2894

> <Gold.Chemscore.Internal.Correction>
   9.000000E+99

> <Gold.Chemscore.Hbonds>
donor molecule, donor type, donor heavy atom, donor atom, acceptor molecule, acceptor atom, score
      L1  H     9    29       P1  8028  0.84
      L1  H    12    30       P1  8028  1.00
      L1  H    16    43       P1 10175  0.49
      L1  H    19    38       P1 10175  0.97

> <Gold.Chemscore.Hbond.Weighted>
-12.6046

> <Gold.Chemscore.Metal.Weighted>
-0.0000

> <Gold.Chemscore.Lipo.Weighted>
-8.8679

> <Gold.Chemscore.Internal_Hbond.Weighted>
0.0000

> <Gold.Chemscore.DEClash.Weighted>
1.7202

> <Gold.Chemscore.DEInternal.Weighted>
2.6601

> <Gold.Chemscore.Rot.Weighted>
5.8608

> <Gold.Chemscore.Internal.Correction.Weighted>
   9.000000E+99

> <Gold.Protein.RotatedTorsions>
[ 6907 6896 6895 6894 ] final  121.41 input  -60.11 | X-H torsion
[ 7974 7965 7964 7962 ] final -162.20 input  175.53 | X-H torsion
[ 8008 7997 7996 7995 ] final  -99.60 input   59.86 | X-H torsion
[ 10167 10162 10161 10158 ] final   82.05 input  -65.29 | X-H torsion
[ 10718 10713 10712 10709 ] final  -75.56 input   66.30 | X-H torsion
[ 10763 10752 10751 10750 ] final  126.40 input  -60.55 | X-H torsion
[ 11005 11000 10999 10996 ] final  127.05 input  -57.11 | X-H torsion

> <Gold.Protein.ActiveResidues>
 VAL166  LYS551  ARG553  GLY616  TRP617  ASP618  TYR619  PRO620  LYS621  CYS622 
 ASP623  PHE694  ASN695  SER759  ASP760  ASP761  ALA762  ILE779  LEU786  VAL792 
 PHE793  MET794  SER795  GLU796  ALA797  LYS798  CYS799  TRP800  GLU811  SER814 

> <Gold.Protein.RotatedAtoms>
  152.4323  133.7300  159.6581 H   0  0  0  0  0  0  0  0  0  0  0  0  # atno 6907 bound_to 6896
  150.8204  133.8253  159.3147 H   0  0  0  0  0  0  0  0  0  0  0  0  # atno 6908 bound_to 6896
  151.5937  135.1054  160.0096 H   0  0  0  0  0  0  0  0  0  0  0  0  # atno 6909 bound_to 6896
  144.7365  140.3287  143.6157 H   0  0  0  0  0  0  0  0  0  0  0  0  # atno 7974 bound_to 7965
  154.8171  140.0446  157.1384 H   0  0  0  0  0  0  0  0  0  0  0  0  # atno 8008 bound_to 7997
  154.9302  140.3039  155.5151 H   0  0  0  0  0  0  0  0  0  0  0  0  # atno 8009 bound_to 7997
  156.2977  140.2324  156.4361 H   0  0  0  0  0  0  0  0  0  0  0  0  # atno 8010 bound_to 7997
  139.9328  144.6140  150.8328 H   0  0  0  0  0  0  0  0  0  0  0  0  # atno 10167 bound_to 10162
  156.0203  130.4444  150.3062 H   0  0  0  0  0  0  0  0  0  0  0  0  # atno 10718 bound_to 10713
  153.6928  135.3296  155.3206 H   0  0  0  0  0  0  0  0  0  0  0  0  # atno 10763 bound_to 10752
  154.8435  135.4435  154.1491 H   0  0  0  0  0  0  0  0  0  0  0  0  # atno 10764 bound_to 10752
  153.2537  135.6984  153.7729 H   0  0  0  0  0  0  0  0  0  0  0  0  # atno 10765 bound_to 10752
  139.9487  134.9625  156.8797 H   0  0  0  0  0  0  0  0  0  0  0  0  # atno 11005 bound_to 11000
  145.7494  139.1789  143.2330 LP  0  0  0  0  0  0  0  0  0  0  0  0  # atno 17320 bound_to 7965
  146.1072  140.7472  142.9520 LP  0  0  0  0  0  0  0  0  0  0  0  0  # atno 17321 bound_to 7965
  140.7632  143.3218  151.2604 LP  0  0  0  0  0  0  0  0  0  0  0  0  # atno 17342 bound_to 10162
  139.6768  143.9924  152.2785 LP  0  0  0  0  0  0  0  0  0  0  0  0  # atno 17343 bound_to 10162
  157.1164  131.0235  151.3027 LP  0  0  0  0  0  0  0  0  0  0  0  0  # atno 17370 bound_to 10713
  157.4663  130.7683  149.7282 LP  0  0  0  0  0  0  0  0  0  0  0  0  # atno 17371 bound_to 10713
  140.5771  134.0388  155.7450 LP  0  0  0  0  0  0  0  0  0  0  0  0  # atno 17394 bound_to 11000
  141.1145  133.9563  157.2848 LP  0  0  0  0  0  0  0  0  0  0  0  0  # atno 17395 bound_to 11000

$$$$
