AV-unprocessed.smi:3097|AV-procd|sdf|11799|dock8
  -GOLD-   2272017173D 1   1.00000     0.00000
 Structure written by MMmdl.
 35 35  0  0  0  0  0  0  0  0  2 V2000
  145.5228  144.4651  153.2779 C   0  0  0  0  0  0  0  0  0  0  0  0
  145.9952  143.2387  154.0649 C   0  0  0  0  0  0  0  0  0  0  0  0
  147.1817  142.5355  153.3949 C   0  0  0  0  0  0  0  0  0  0  0  0
  148.2871  142.3437  154.3415 N   0  0  0  0  0  0  0  0  0  0  0  0
  148.9444  141.1892  154.5650 C   0  0  0  0  0  0  0  0  0  0  0  0
  148.5882  140.0745  153.8973 N   0  3  0  0  0  0  0  0  0  0  0  0
  149.2151  138.7552  154.0395 C   0  0  0  0  0  0  0  0  0  0  0  0
  149.9591  141.1449  155.4518 N   0  0  0  0  0  0  0  0  0  0  0  0
  150.4823  142.2764  156.2332 C   0  0  0  0  0  0  0  0  0  0  0  0
  150.2717  142.0735  157.7426 C   0  0  0  0  0  0  0  0  0  0  0  0
  150.9687  143.0686  158.5363 N   0  0  0  0  0  0  0  0  0  0  0  0
  150.9899  144.4376  158.3696 C   0  0  0  0  0  0  0  0  0  0  0  0
  151.7774  144.9545  159.3580 C   0  0  0  0  0  0  0  0  0  0  0  0
  152.2046  143.8082  160.0845 C   0  0  0  0  0  0  0  0  0  0  0  0
  151.7152  142.6811  159.5929 N   0  0  0  0  0  0  0  0  0  0  0  0
  144.6801  144.9454  153.7757 H   0  0  0  0  0  0  0  0  0  0  0  0
  145.2018  144.1888  152.2732 H   0  0  0  0  0  0  0  0  0  0  0  0
  146.3193  145.2039  153.1849 H   0  0  0  0  0  0  0  0  0  0  0  0
  146.2725  143.5459  155.0735 H   0  0  0  0  0  0  0  0  0  0  0  0
  145.1661  142.5382  154.1732 H   0  0  0  0  0  0  0  0  0  0  0  0
  146.8735  141.5636  153.0082 H   0  0  0  0  0  0  0  0  0  0  0  0
  147.5398  143.1237  152.5493 H   0  0  0  0  0  0  0  0  0  0  0  0
  148.5890  143.1655  154.8462 H   0  0  0  0  0  0  0  0  0  0  0  0
  148.7309  138.0358  153.3789 H   0  0  0  0  0  0  0  0  0  0  0  0
  149.1235  138.3982  155.0655 H   0  0  0  0  0  0  0  0  0  0  0  0
  150.2728  138.8053  153.7795 H   0  0  0  0  0  0  0  0  0  0  0  0
  150.4366  140.2636  155.5758 H   0  0  0  0  0  0  0  0  0  0  0  0
  151.5313  142.4583  155.9987 H   0  0  0  0  0  0  0  0  0  0  0  0
  149.9389  143.1669  155.9171 H   0  0  0  0  0  0  0  0  0  0  0  0
  149.2088  142.1220  157.9825 H   0  0  0  0  0  0  0  0  0  0  0  0
  150.6139  141.0830  158.0456 H   0  0  0  0  0  0  0  0  0  0  0  0
  150.4469  144.9245  157.5727 H   0  0  0  0  0  0  0  0  0  0  0  0
  152.0156  145.9933  159.5330 H   0  0  0  0  0  0  0  0  0  0  0  0
  152.8474  143.7622  160.9512 H   0  0  0  0  0  0  0  0  0  0  0  0
  147.8244  140.1385  153.2395 H   0  0  0  0  0  0  0  0  0  0  0  0
  1  2  1  0  0  0  0
  1 16  1  0  0  0  0
  1 17  1  0  0  0  0
  1 18  1  0  0  0  0
  2  3  1  0  0  0  0
  2 19  1  0  0  0  0
  2 20  1  0  0  0  0
  3  4  1  0  0  0  0
  3 21  1  0  0  0  0
  3 22  1  0  0  0  0
  4  5  1  0  0  0  0
  4 23  1  0  0  0  0
  5  6  2  0  0  0  0
  5  8  1  0  0  0  0
  6  7  1  0  0  0  0
  6 35  1  0  0  0  0
  7 24  1  0  0  0  0
  7 25  1  0  0  0  0
  7 26  1  0  0  0  0
  8  9  1  0  0  0  0
  8 27  1  0  0  0  0
  9 10  1  0  0  0  0
  9 28  1  0  0  0  0
  9 29  1  0  0  0  0
 10 11  1  0  0  0  0
 10 30  1  0  0  0  0
 10 31  1  0  0  0  0
 11 15  1  0  0  0  0
 11 12  1  0  0  0  0
 12 13  2  0  0  0  0
 12 32  1  0  0  0  0
 13 14  1  0  0  0  0
 13 33  1  0  0  0  0
 14 15  2  0  0  0  0
 14 34  1  0  0  0  0
M  CHG  1   6   1
M  END
> <s_m_source_file>
AV-unprocessed.smi

> <i_m_source_file_index>
3097

> <i_lp_mmshare_version>
43012

> <i_f3d_flags>
0

> <s_epik_input>
W0NIM11bQ0gyXVtDSDJdW05IXS9DKD1OXFtDSDNdKVtOSF1bQ0gyXVtDSDJdbjFbY0hdW2NIXVtjSF1uMQ==

> <s_epik_cmdline>
J2VwaWtfcHl0aG9uJywgJy1waCcsICc3LjAnLCAnLXRuJywgJzgnLCAnLW1hJywgJzIwMCcsICctbWV0YWxfYmluZGluZycsICctaW1hZScsICc8aW5maWxlLm1hZT4nLCAnLW9tYWUnLCAnPG91dGZpbGUubWFlPic=

> <r_lp_tautomer_probability>
1

> <r_epik_Ionization_Penalty>
4.40305e-05

> <r_epik_Ionization_Penalty_Charging>
1.64417e-07

> <r_epik_Ionization_Penalty_Neutral>
4.38661e-05

> <r_epik_State_Penalty>
-0

> <r_epik_Charging_Adjusted_Penalty>
1.64417e-07

> <i_epik_Tot_Q>
1

> <i_epik_Tot_abs_Q>
1

> <r_epik_Metal_State_Penalty>
-0

> <b_epik_Metal_Only>
0

> <s_epik_Chemistry_Notes>
This compound has an imine and may undergo hydrolysis.

> <s_lp_Force_Field>
OPLS_2005

> <r_lp_Energy>
5.03608

> <b_lp_Chiralities_Consistent>
1

> <s_lp_Variant>
AV-unprocessed.smi:3097-2

> <Gold.Version>
5.8.1

> <Gold.Id.Protein>
6NUR|6NUR_protein|mol2

> <Gold.PLP.Fitness>
44.9345

> <Gold.PLP.PLP>
-37.0777

> <Gold.PLP.part.hbond>
-2.0000

> <Gold.PLP.part.metal>
0.0000

> <Gold.PLP.part.buried>
-6.7259

> <Gold.PLP.part.nonpolar>
-29.2995

> <Gold.PLP.part.repulsive>
0.4938

> <Gold.PLP.ligand.clash>
0.0000

> <Gold.PLP.ligand.torsion>
0.5743

> <Gold.PLP.Chemscore.Hbond>
2.0000

> <Gold.PLP.Chemscore.CHOScore>
0.9979

> <Gold.PLP.Chemscore.Metal>
0.0000

> <Gold.Chemscore.Hbonds>
donor molecule, donor type, donor heavy atom, donor atom, acceptor molecule, acceptor atom, score
      L1  H     4    23       P1  8028  2.00
      L1  C    12    32       P1  8028  0.87
      L1  C    12    32       P1  8029  0.08

> <Gold.PLP.Chemscore.Internal.Correction>
0.0116

> <Gold.Rescore>
     Score         DG    S(hbond)    S(metal)    S(lipo)     H(rot)  DE(clash)    DE(int)     intcor
     12.55     -13.19       1.00        0.00      78.10       1.86       0.04       0.61       ----

> <Gold.Chemscore.Fitness>
12.5460

> <Gold.Chemscore.DG>
-13.1904

> <Gold.Chemscore.ZeroCoef>
-5.4800

> <Gold.Chemscore.Hbond>
0.9954

> <Gold.Chemscore.Metal>
0.0000

> <Gold.Chemscore.Lipo>
78.0994

> <Gold.Chemscore.Internal_Hbond>
0.0000

> <Gold.Chemscore.DEClash>
0.0386

> <Gold.Chemscore.DEInternal>
0.6058

> <Gold.Chemscore.Rot>
1.8561

> <Gold.Chemscore.Internal.Correction>
   9.000000E+99

> <Gold.Chemscore.Hbonds>
donor molecule, donor type, donor heavy atom, donor atom, acceptor molecule, acceptor atom, score
      L1  H     4    23       P1  8028  1.00

> <Gold.Chemscore.Hbond.Weighted>
-3.3245

> <Gold.Chemscore.Metal.Weighted>
-0.0000

> <Gold.Chemscore.Lipo.Weighted>
-9.1376

> <Gold.Chemscore.Internal_Hbond.Weighted>
0.0000

> <Gold.Chemscore.DEClash.Weighted>
0.0386

> <Gold.Chemscore.DEInternal.Weighted>
0.6058

> <Gold.Chemscore.Rot.Weighted>
4.7517

> <Gold.Chemscore.Internal.Correction.Weighted>
   9.000000E+99

> <Gold.Protein.RotatedTorsions>
[ 6907 6896 6895 6894 ] final   95.07 input  -60.11 | X-H torsion
[ 7974 7965 7964 7962 ] final   33.34 input  175.53 | X-H torsion
[ 8008 7997 7996 7995 ] final  142.68 input   59.86 | X-H torsion
[ 10167 10162 10161 10158 ] final -178.63 input  -65.29 | X-H torsion
[ 10718 10713 10712 10709 ] final   69.04 input   66.30 | X-H torsion
[ 10763 10752 10751 10750 ] final   45.38 input  -60.55 | X-H torsion
[ 11005 11000 10999 10996 ] final -147.43 input  -57.11 | X-H torsion

> <Gold.Protein.ActiveResidues>
 VAL166  LYS551  ARG553  GLY616  TRP617  ASP618  TYR619  PRO620  LYS621  CYS622 
 ASP623  PHE694  ASN695  SER759  ASP760  ASP761  ALA762  ILE779  LEU786  VAL792 
 PHE793  MET794  SER795  GLU796  ALA797  LYS798  CYS799  TRP800  GLU811  SER814 

> <Gold.Protein.RotatedAtoms>
  152.5446  134.1096  159.8352 H   0  0  0  0  0  0  0  0  0  0  0  0  # atno 6907 bound_to 6896
  151.1164  133.5128  159.2611 H   0  0  0  0  0  0  0  0  0  0  0  0  # atno 6908 bound_to 6896
  151.1827  135.0377  159.8854 H   0  0  0  0  0  0  0  0  0  0  0  0  # atno 6909 bound_to 6896
  146.1427  139.6409  142.9152 H   0  0  0  0  0  0  0  0  0  0  0  0  # atno 7974 bound_to 7965
  156.2945  140.2282  156.4767 H   0  0  0  0  0  0  0  0  0  0  0  0  # atno 8008 bound_to 7997
  154.7888  140.0455  157.1206 H   0  0  0  0  0  0  0  0  0  0  0  0  # atno 8009 bound_to 7997
  154.9670  140.3061  155.5008 H   0  0  0  0  0  0  0  0  0  0  0  0  # atno 8010 bound_to 7997
  139.5423  144.2329  152.0920 H   0  0  0  0  0  0  0  0  0  0  0  0  # atno 10167 bound_to 10162
  157.6324  130.9405  150.0460 H   0  0  0  0  0  0  0  0  0  0  0  0  # atno 10718 bound_to 10713
  152.9825  135.6041  154.3427 H   0  0  0  0  0  0  0  0  0  0  0  0  # atno 10763 bound_to 10752
  154.3122  135.2771  155.2562 H   0  0  0  0  0  0  0  0  0  0  0  0  # atno 10764 bound_to 10752
  154.4766  135.5928  153.6415 H   0  0  0  0  0  0  0  0  0  0  0  0  # atno 10765 bound_to 10752
  140.7717  134.3181  157.5073 H   0  0  0  0  0  0  0  0  0  0  0  0  # atno 11005 bound_to 11000
  145.5010  141.0437  143.2540 LP  0  0  0  0  0  0  0  0  0  0  0  0  # atno 17320 bound_to 7965
  144.7810  139.6526  143.7154 LP  0  0  0  0  0  0  0  0  0  0  0  0  # atno 17321 bound_to 7965
  140.1809  144.4845  150.6529 LP  0  0  0  0  0  0  0  0  0  0  0  0  # atno 17342 bound_to 10162
  140.6658  143.2267  151.5746 LP  0  0  0  0  0  0  0  0  0  0  0  0  # atno 17343 bound_to 10162
  156.1536  130.3643  149.9401 LP  0  0  0  0  0  0  0  0  0  0  0  0  # atno 17370 bound_to 10713
  156.7415  130.9081  151.3632 LP  0  0  0  0  0  0  0  0  0  0  0  0  # atno 17371 bound_to 10713
  139.8755  134.9265  156.3401 LP  0  0  0  0  0  0  0  0  0  0  0  0  # atno 17394 bound_to 11000
  140.9567  133.7415  156.0345 LP  0  0  0  0  0  0  0  0  0  0  0  0  # atno 17395 bound_to 11000

$$$$
