AV-unprocessed.smi:2339|AV-procd|sdf|9339|dock4
  -GOLD-   2272012563D 1   1.00000     0.00000
 Structure written by MMmdl.
 49 52  0  0  0  0  0  0  0  0  1 V2000
  148.1646  131.4076  161.2781 C   0  0  0  0  0  0  0  0  0  0  0  0
  147.6061  132.3579  160.2130 C   0  0  0  0  0  0  0  0  0  0  0  0
  147.4574  133.7128  160.7243 N   0  0  0  0  0  0  0  0  0  0  0  0
  146.6069  133.9948  161.7878 C   0  0  0  0  0  0  0  0  0  0  0  0
  146.4012  135.2308  162.2814 C   0  0  0  0  0  0  0  0  0  0  0  0
  147.1039  136.3790  161.6745 C   0  0  0  0  0  0  0  0  0  0  0  0
  146.9473  137.5193  162.1104 O   0  0  0  0  0  0  0  0  0  0  0  0
  147.9986  136.0813  160.5243 C   0  0  0  0  0  0  0  0  0  0  0  0
  148.6467  137.1829  159.9405 N   0  0  0  0  0  0  0  0  0  0  0  0
  149.6715  137.2130  159.0637 C   0  0  0  0  0  0  0  0  0  0  0  0
  150.2680  136.2305  158.6299 O   0  0  0  0  0  0  0  0  0  0  0  0
  150.0098  138.4511  158.6658 N   0  0  0  0  0  0  0  0  0  0  0  0
  151.0657  138.8400  157.7309 C   0  0  1  0  0  0  0  0  0  0  0  0
  150.7454  138.4006  156.3015 C   0  0  2  0  0  0  0  0  0  0  0  0
  151.3220  137.3986  155.3665 C   0  0  0  0  0  0  0  0  0  0  0  0
  151.3918  138.2994  154.1052 C   0  0  0  0  0  0  0  0  0  0  0  0
  151.1175  139.6457  154.5632 O   0  0  0  0  0  0  0  0  0  0  0  0
  151.5301  139.6360  155.9148 C   0  0  1  0  0  0  0  0  0  0  0  0
  150.9342  140.3084  157.1669 C   0  0  0  0  0  0  0  0  0  0  0  0
  149.5565  140.9813  157.0624 C   0  0  0  0  0  0  0  0  0  0  0  0
  149.4381  141.9339  158.2497 C   0  0  0  0  0  0  0  0  0  0  0  0
  150.8670  142.3872  158.5425 C   0  0  0  0  0  0  0  0  0  0  0  0
  151.7895  141.3929  157.8253 C   0  0  0  0  0  0  0  0  0  0  0  0
  148.1139  134.7876  160.1278 C   0  0  0  0  0  0  0  0  0  0  0  0
  148.2723  130.3989  160.8792 H   0  0  0  0  0  0  0  0  0  0  0  0
  147.5040  131.3546  162.1441 H   0  0  0  0  0  0  0  0  0  0  0  0
  149.1455  131.7357  161.6235 H   0  0  0  0  0  0  0  0  0  0  0  0
  148.2641  132.3668  159.3432 H   0  0  0  0  0  0  0  0  0  0  0  0
  146.6405  131.9930  159.8610 H   0  0  0  0  0  0  0  0  0  0  0  0
  146.1132  133.1290  162.2049 H   0  0  0  0  0  0  0  0  0  0  0  0
  145.7326  135.4024  163.1121 H   0  0  0  0  0  0  0  0  0  0  0  0
  148.2663  138.0797  160.2068 H   0  0  0  0  0  0  0  0  0  0  0  0
  149.4708  139.2106  159.0563 H   0  0  0  0  0  0  0  0  0  0  0  0
  152.0752  138.5618  158.0475 H   0  0  0  0  0  0  0  0  0  0  0  0
  149.6749  138.5070  156.1026 H   0  0  0  0  0  0  0  0  0  0  0  0
  152.3102  137.0638  155.6850 H   0  0  0  0  0  0  0  0  0  0  0  0
  150.6783  136.5300  155.2259 H   0  0  0  0  0  0  0  0  0  0  0  0
  152.3789  138.2468  153.6443 H   0  0  0  0  0  0  0  0  0  0  0  0
  150.6522  138.0116  153.3577 H   0  0  0  0  0  0  0  0  0  0  0  0
  152.6169  139.5150  155.9895 H   0  0  0  0  0  0  0  0  0  0  0  0
  149.4958  141.5523  156.1349 H   0  0  0  0  0  0  0  0  0  0  0  0
  148.7234  140.2788  157.0520 H   0  0  0  0  0  0  0  0  0  0  0  0
  148.7668  142.7691  158.0483 H   0  0  0  0  0  0  0  0  0  0  0  0
  149.0422  141.3971  159.1123 H   0  0  0  0  0  0  0  0  0  0  0  0
  151.0338  143.3937  158.1573 H   0  0  0  0  0  0  0  0  0  0  0  0
  151.0585  142.4132  159.6160 H   0  0  0  0  0  0  0  0  0  0  0  0
  152.5113  140.9645  158.5195 H   0  0  0  0  0  0  0  0  0  0  0  0
  152.3729  141.9228  157.0710 H   0  0  0  0  0  0  0  0  0  0  0  0
  148.7373  134.4758  159.3058 H   0  0  0  0  0  0  0  0  0  0  0  0
  1  2  1  0  0  0  0
  1 25  1  0  0  0  0
  1 26  1  0  0  0  0
  1 27  1  0  0  0  0
  2  3  1  0  0  0  0
  2 28  1  0  0  0  0
  2 29  1  0  0  0  0
  3 24  1  0  0  0  0
  3  4  1  0  0  0  0
  4  5  2  0  0  0  0
  4 30  1  0  0  0  0
  5  6  1  0  0  0  0
  5 31  1  0  0  0  0
  6  7  2  0  0  0  0
  6  8  1  0  0  0  0
  8  9  1  0  0  0  0
  8 24  2  0  0  0  0
  9 10  1  0  0  0  0
  9 32  1  0  0  0  0
 10 11  2  0  0  0  0
 10 12  1  0  0  0  0
 12 13  1  0  0  0  0
 12 33  1  0  0  0  0
 13 19  1  0  0  0  0
 13 14  1  0  0  0  0
 13 34  1  0  0  0  0
 14 18  1  0  0  0  0
 14 15  1  0  0  0  0
 14 35  1  0  0  0  0
 15 16  1  0  0  0  0
 15 36  1  0  0  0  0
 15 37  1  0  0  0  0
 16 17  1  0  0  0  0
 16 38  1  0  0  0  0
 16 39  1  0  0  0  0
 17 18  1  0  0  0  0
 18 19  1  0  0  0  0
 18 40  1  0  0  0  0
 19 23  1  0  0  0  0
 19 20  1  0  0  0  0
 20 21  1  0  0  0  0
 20 41  1  0  0  0  0
 20 42  1  0  0  0  0
 21 22  1  0  0  0  0
 21 43  1  0  0  0  0
 21 44  1  0  0  0  0
 22 23  1  0  0  0  0
 22 45  1  0  0  0  0
 22 46  1  0  0  0  0
 23 47  1  0  0  0  0
 23 48  1  0  0  0  0
 24 49  1  0  0  0  0
M  END
> <s_m_source_file>
AV-unprocessed.smi

> <i_m_source_file_index>
2339

> <i_lp_mmshare_version>
43012

> <i_f3d_flags>
0

> <s_epik_input>
W0NIM11bQ0gyXW4xW2NIXVtjSF1jKD1PKWMoW2NIXTEpW05IXUMoPU8pW05IXVtDQEBIXTJbQ0BASF0oW0NIMl1bQ0gyXU8zKVtDQEBIXTNDMjRbQ0gyXVtDSDJdW0NIMl1bQ0gyXTQ=

> <s_epik_cmdline>
J2VwaWtfcHl0aG9uJywgJy1waCcsICc3LjAnLCAnLXRuJywgJzgnLCAnLW1hJywgJzIwMCcsICctbWV0YWxfYmluZGluZycsICctaW1hZScsICc8aW5maWxlLm1hZT4nLCAnLW9tYWUnLCAnPG91dGZpbGUubWFlPic=

> <r_lp_tautomer_probability>
1

> <r_epik_Ionization_Penalty>
0.00145966

> <r_epik_Ionization_Penalty_Charging>
0.00143969

> <r_epik_Ionization_Penalty_Neutral>
1.99697e-05

> <r_epik_State_Penalty>
0.000961843

> <r_epik_Charging_Adjusted_Penalty>
0.00240153

> <i_epik_Tot_Q>
0

> <i_epik_Tot_abs_Q>
0

> <r_epik_Metal_State_Penalty>
-0

> <b_epik_Metal_Only>
0

> <s_lp_Force_Field>
OPLS_2005

> <r_lp_Energy>
78.6826

> <b_lp_Chiralities_Consistent>
1

> <s_lp_Variant>
AV-unprocessed.smi:2339-4

> <Gold.Version>
5.8.1

> <Gold.Id.Protein>
6NUR|6NUR_protein|mol2

> <Gold.PLP.Fitness>
50.4981

> <Gold.PLP.PLP>
-40.8533

> <Gold.PLP.part.hbond>
-4.0000

> <Gold.PLP.part.metal>
0.0000

> <Gold.PLP.part.buried>
-6.7197

> <Gold.PLP.part.nonpolar>
-30.9611

> <Gold.PLP.part.repulsive>
2.1013

> <Gold.PLP.ligand.clash>
0.0000

> <Gold.PLP.ligand.torsion>
0.1865

> <Gold.PLP.Chemscore.Hbond>
3.2423

> <Gold.PLP.Chemscore.CHOScore>
0.0000

> <Gold.PLP.Chemscore.Metal>
0.0000

> <Gold.Chemscore.Hbonds>
donor molecule, donor type, donor heavy atom, donor atom, acceptor molecule, acceptor atom, score
      P1  H  6896  6908       L1    11  1.00
      P1  H  6931  6943       L1     7  0.35
      P1  H  6934  6947       L1     7  0.69
      P1  H  7989  7998       L1    17  1.00

> <Gold.PLP.Chemscore.Internal.Correction>
0.2911

> <Gold.Rescore>
     Score         DG    S(hbond)    S(metal)    S(lipo)     H(rot)  DE(clash)    DE(int)     intcor
     21.27     -22.87       2.87        0.00      92.34       1.17       0.31       1.28       ----

> <Gold.Chemscore.Fitness>
21.2678

> <Gold.Chemscore.DG>
-22.8664

> <Gold.Chemscore.ZeroCoef>
-5.4800

> <Gold.Chemscore.Hbond>
2.8652

> <Gold.Chemscore.Metal>
0.0000

> <Gold.Chemscore.Lipo>
92.3434

> <Gold.Chemscore.Internal_Hbond>
0.0000

> <Gold.Chemscore.DEClash>
0.3149

> <Gold.Chemscore.DEInternal>
1.2837

> <Gold.Chemscore.Rot>
1.1670

> <Gold.Chemscore.Internal.Correction>
   9.000000E+99

> <Gold.Chemscore.Hbonds>
donor molecule, donor type, donor heavy atom, donor atom, acceptor molecule, acceptor atom, score
      P1  H  6896  6908       L1    11  0.96
      P1  H  6931  6943       L1     7  0.09
      P1  H  6934  6947       L1     7  0.69
      P1  H  7989  7998       L1    17  0.87

> <Gold.Chemscore.Hbond.Weighted>
-9.5697

> <Gold.Chemscore.Metal.Weighted>
-0.0000

> <Gold.Chemscore.Lipo.Weighted>
-10.8042

> <Gold.Chemscore.Internal_Hbond.Weighted>
0.0000

> <Gold.Chemscore.DEClash.Weighted>
0.3149

> <Gold.Chemscore.DEInternal.Weighted>
1.2837

> <Gold.Chemscore.Rot.Weighted>
2.9874

> <Gold.Chemscore.Internal.Correction.Weighted>
   9.000000E+99

> <Gold.Protein.RotatedTorsions>
[ 6907 6896 6895 6894 ] final -167.91 input  -60.11 | X-H torsion
[ 7974 7965 7964 7962 ] final   83.77 input  175.53 | X-H torsion
[ 8008 7997 7996 7995 ] final   25.28 input   59.86 | X-H torsion
[ 10167 10162 10161 10158 ] final  129.62 input  -65.29 | X-H torsion
[ 10718 10713 10712 10709 ] final   91.10 input   66.30 | X-H torsion
[ 10763 10752 10751 10750 ] final  155.23 input  -60.55 | X-H torsion
[ 11005 11000 10999 10996 ] final   46.40 input  -57.11 | X-H torsion

> <Gold.Protein.ActiveResidues>
 VAL166  LYS551  ARG553  GLY616  TRP617  ASP618  TYR619  PRO620  LYS621  CYS622 
 ASP623  PHE694  ASN695  SER759  ASP760  ASP761  ALA762  ILE779  LEU786  VAL792 
 PHE793  MET794  SER795  GLU796  ALA797  LYS798  CYS799  TRP800  GLU811  SER814 

> <Gold.Protein.RotatedAtoms>
  151.4671  133.3578  159.2817 H   0  0  0  0  0  0  0  0  0  0  0  0  # atno 6907 bound_to 6896
  150.8986  134.8398  159.7355 H   0  0  0  0  0  0  0  0  0  0  0  0  # atno 6908 bound_to 6896
  152.4866  134.4589  159.9650 H   0  0  0  0  0  0  0  0  0  0  0  0  # atno 6909 bound_to 6896
  145.6075  139.2362  143.2211 H   0  0  0  0  0  0  0  0  0  0  0  0  # atno 7974 bound_to 7965
  155.0094  140.3134  155.4836 H   0  0  0  0  0  0  0  0  0  0  0  0  # atno 8008 bound_to 7997
  156.2912  140.2217  156.5148 H   0  0  0  0  0  0  0  0  0  0  0  0  # atno 8009 bound_to 7997
  154.7548  140.0463  157.0912 H   0  0  0  0  0  0  0  0  0  0  0  0  # atno 8010 bound_to 7997
  139.5469  144.6780  151.4446 H   0  0  0  0  0  0  0  0  0  0  0  0  # atno 10167 bound_to 10162
  157.6960  131.0395  150.3678 H   0  0  0  0  0  0  0  0  0  0  0  0  # atno 10718 bound_to 10713
  154.1651  135.2807  155.3097 H   0  0  0  0  0  0  0  0  0  0  0  0  # atno 10763 bound_to 10752
  154.6118  135.5496  153.7484 H   0  0  0  0  0  0  0  0  0  0  0  0  # atno 10764 bound_to 10752
  153.0181  135.6417  154.1792 H   0  0  0  0  0  0  0  0  0  0  0  0  # atno 10765 bound_to 10752
  140.1372  134.4629  155.8476 H   0  0  0  0  0  0  0  0  0  0  0  0  # atno 11005 bound_to 11000
  146.1529  140.6899  142.9313 LP  0  0  0  0  0  0  0  0  0  0  0  0  # atno 17320 bound_to 7965
  144.7284  140.4595  143.6956 LP  0  0  0  0  0  0  0  0  0  0  0  0  # atno 17321 bound_to 7965
  140.6719  143.8274  150.7010 LP  0  0  0  0  0  0  0  0  0  0  0  0  # atno 17342 bound_to 10162
  140.1701  143.4202  152.2007 LP  0  0  0  0  0  0  0  0  0  0  0  0  # atno 17343 bound_to 10162
  156.4106  130.3933  149.6894 LP  0  0  0  0  0  0  0  0  0  0  0  0  # atno 17370 bound_to 10713
  156.4179  130.7754  151.2770 LP  0  0  0  0  0  0  0  0  0  0  0  0  # atno 17371 bound_to 10713
  141.2180  133.6819  156.7180 LP  0  0  0  0  0  0  0  0  0  0  0  0  # atno 17394 bound_to 11000
  140.2767  134.8349  157.3896 LP  0  0  0  0  0  0  0  0  0  0  0  0  # atno 17395 bound_to 11000

$$$$
