AV-unprocessed.smi:218|AV-procd|sdf|1662|dock10
  -GOLD-   2262020 63D 1   1.00000     0.00000
 Structure written by MMmdl.
 54 57  0  0  0  0  0  0  0  0  1 V2000
  153.1180  142.7859  159.4885 C   0  0  0  0  0  0  0  0  0  0  0  0
  152.1538  143.5191  158.5482 C   0  0  0  0  0  0  0  0  0  0  0  0
  151.7822  144.9053  159.1025 C   0  0  0  0  0  0  0  0  0  0  0  0
  150.9880  142.7010  158.4305 O   0  0  0  0  0  0  0  0  0  0  0  0
  150.9213  141.7212  157.4587 C   0  0  0  0  0  0  0  0  0  0  0  0
  149.7809  141.6786  156.6306 C   0  0  0  0  0  0  0  0  0  0  0  0
  149.6934  140.6830  155.6363 C   0  0  0  0  0  0  0  0  0  0  0  0
  148.4706  140.6052  154.7410 C   0  0  0  0  0  0  0  0  0  0  0  0
  147.2040  140.6425  155.4610 N   0  0  0  0  0  0  0  0  0  0  0  0
  146.1901  139.8338  155.0860 C   0  0  0  0  0  0  0  0  0  0  0  0
  145.0074  139.8363  155.7554 N   0  0  0  0  0  0  0  0  0  0  0  0
  144.0186  139.0237  155.3691 C   0  0  0  0  0  0  0  0  0  0  0  0
  144.0042  138.1462  154.3627 N   0  0  0  0  0  0  0  0  0  0  0  0
  145.1914  138.1413  153.6903 C   0  0  0  0  0  0  0  0  0  0  0  0
  146.3227  138.9510  153.9835 C   0  0  0  0  0  0  0  0  0  0  0  0
  147.3432  138.6761  153.0824 N   0  0  0  0  0  0  0  0  0  0  0  0
  146.8393  137.7545  152.3054 C   0  0  0  0  0  0  0  0  0  0  0  0
  145.5490  137.3718  152.6058 N   0  0  0  0  0  0  0  0  0  0  0  0
  144.6821  136.3570  151.9339 C   0  0  2  0  0  0  0  0  0  0  0  0
  144.4996  135.2952  152.8252 O   0  0  0  0  0  0  0  0  0  0  0  0
  144.9997  134.0758  152.2782 C   0  0  2  0  0  0  0  0  0  0  0  0
  145.5860  133.2003  153.3963 C   0  0  0  0  0  0  0  0  0  0  0  0
  144.8491  133.3784  154.5866 O   0  0  0  0  0  0  0  0  0  0  0  0
  146.0395  134.5427  151.2592 C   0  0  1  0  0  0  0  0  0  0  0  0
  146.3192  133.5819  150.2592 O   0  0  0  0  0  0  0  0  0  0  0  0
  145.4053  135.8069  150.6989 C   0  0  1  0  0  0  0  0  0  0  0  0
  144.4893  135.5519  149.6491 O   0  0  0  0  0  0  0  0  0  0  0  0
  150.7522  139.7579  155.5168 C   0  0  0  0  0  0  0  0  0  0  0  0
  151.8504  139.8794  156.3898 C   0  0  0  0  0  0  0  0  0  0  0  0
  151.9404  140.8341  157.3394 N   0  0  0  0  0  0  0  0  0  0  0  0
  143.7499  136.8830  151.7230 H   0  0  0  0  0  0  0  0  0  0  0  0
  144.1877  133.5627  151.7592 H   0  0  0  0  0  0  0  0  0  0  0  0
  146.9666  134.8022  151.7728 H   0  0  0  0  0  0  0  0  0  0  0  0
  146.1530  136.5120  150.3322 H   0  0  0  0  0  0  0  0  0  0  0  0
  154.0407  143.3506  159.6247 H   0  0  0  0  0  0  0  0  0  0  0  0
  153.3848  141.8080  159.0870 H   0  0  0  0  0  0  0  0  0  0  0  0
  152.6715  142.6318  160.4713 H   0  0  0  0  0  0  0  0  0  0  0  0
  152.6594  143.6246  157.5871 H   0  0  0  0  0  0  0  0  0  0  0  0
  152.6703  145.5244  159.2313 H   0  0  0  0  0  0  0  0  0  0  0  0
  151.2918  144.8219  160.0727 H   0  0  0  0  0  0  0  0  0  0  0  0
  151.1067  145.4407  158.4358 H   0  0  0  0  0  0  0  0  0  0  0  0
  148.9872  142.3998  156.7602 H   0  0  0  0  0  0  0  0  0  0  0  0
  148.5126  141.4389  154.0388 H   0  0  0  0  0  0  0  0  0  0  0  0
  148.5177  139.6866  154.1545 H   0  0  0  0  0  0  0  0  0  0  0  0
  147.1316  141.3227  156.2039 H   0  0  0  0  0  0  0  0  0  0  0  0
  143.1101  139.0841  155.9502 H   0  0  0  0  0  0  0  0  0  0  0  0
  147.4033  137.3272  151.4894 H   0  0  0  0  0  0  0  0  0  0  0  0
  145.5151  132.1469  153.1234 H   0  0  0  0  0  0  0  0  0  0  0  0
  146.6402  133.4205  153.5654 H   0  0  0  0  0  0  0  0  0  0  0  0
  144.1849  132.7080  154.6325 H   0  0  0  0  0  0  0  0  0  0  0  0
  146.1127  133.9619  149.4184 H   0  0  0  0  0  0  0  0  0  0  0  0
  144.9526  135.1263  148.9438 H   0  0  0  0  0  0  0  0  0  0  0  0
  150.7277  138.9682  154.7803 H   0  0  0  0  0  0  0  0  0  0  0  0
  152.6778  139.1881  156.3261 H   0  0  0  0  0  0  0  0  0  0  0  0
  1  2  1  0  0  0  0
  1 35  1  0  0  0  0
  1 36  1  0  0  0  0
  1 37  1  0  0  0  0
  2  3  1  0  0  0  0
  2  4  1  0  0  0  0
  2 38  1  0  0  0  0
  3 39  1  0  0  0  0
  3 40  1  0  0  0  0
  3 41  1  0  0  0  0
  4  5  1  0  0  0  0
  5 30  1  0  0  0  0
  5  6  2  0  0  0  0
  6  7  1  0  0  0  0
  6 42  1  0  0  0  0
  7  8  1  0  0  0  0
  7 28  2  0  0  0  0
  8  9  1  0  0  0  0
  8 43  1  0  0  0  0
  8 44  1  0  0  0  0
  9 10  1  0  0  0  0
  9 45  1  0  0  0  0
 10 15  1  0  0  0  0
 10 11  2  0  0  0  0
 11 12  1  0  0  0  0
 12 13  2  0  0  0  0
 12 46  1  0  0  0  0
 13 14  1  0  0  0  0
 14 18  1  0  0  0  0
 14 15  2  0  0  0  0
 15 16  1  0  0  0  0
 16 17  2  0  0  0  0
 17 18  1  0  0  0  0
 17 47  1  0  0  0  0
 18 19  1  0  0  0  0
 19 31  1  0  0  0  0
 19 26  1  0  0  0  0
 19 20  1  0  0  0  0
 20 21  1  0  0  0  0
 21 32  1  0  0  0  0
 21 22  1  0  0  0  0
 21 24  1  0  0  0  0
 22 23  1  0  0  0  0
 22 48  1  0  0  0  0
 22 49  1  0  0  0  0
 23 50  1  0  0  0  0
 24 33  1  0  0  0  0
 24 25  1  0  0  0  0
 24 26  1  0  0  0  0
 25 51  1  0  0  0  0
 26 34  1  0  0  0  0
 26 27  1  0  0  0  0
 27 52  1  0  0  0  0
 28 29  1  0  0  0  0
 28 53  1  0  0  0  0
 29 30  2  0  0  0  0
 29 54  1  0  0  0  0
M  END
> <s_m_source_file>
AV-unprocessed.smi

> <i_m_source_file_index>
218

> <i_lp_mmshare_version>
43012

> <i_f3d_flags>
0

> <s_epik_input>
W0NIM11bQ0hdKFtDSDNdKU9jMVtjSF1jKFtjSF1bY0hdbjEpW0NIMl1bTkhdYyhuW2NIXW4yKWMoYzIzKW5bY0hdbjNbQ0BASF00T1tDQEhdKFtDSDJdW09IXSlbQ0BASF0oW09IXSlbQ0BIXTRbT0hd

> <s_epik_cmdline>
J2VwaWtfcHl0aG9uJywgJy1waCcsICc3LjAnLCAnLXRuJywgJzgnLCAnLW1hJywgJzIwMCcsICctbWV0YWxfYmluZGluZycsICctaW1hZScsICc8aW5maWxlLm1hZT4nLCAnLW9tYWUnLCAnPG91dGZpbGUubWFlPic=

> <r_lp_tautomer_probability>
1

> <r_epik_Ionization_Penalty>
0.00457014

> <r_epik_Ionization_Penalty_Charging>
0

> <r_epik_Ionization_Penalty_Neutral>
0.00457014

> <r_epik_State_Penalty>
-0

> <r_epik_Charging_Adjusted_Penalty>
0

> <i_epik_Tot_Q>
0

> <i_epik_Tot_abs_Q>
0

> <r_epik_Metal_State_Penalty>
-0

> <b_epik_Metal_Only>
0

> <s_epik_Chemistry_Notes>
This compound contains an acetal/aminal-like group ( X-CH(R)-Y where X, Y are N, S, or O) that may be acid/base labile, releasing an aldehyde.

> <s_lp_Force_Field>
OPLS_2005

> <r_lp_Energy>
38.2737

> <b_lp_Chiralities_Consistent>
1

> <s_lp_Variant>
AV-unprocessed.smi:218-1

> <Gold.Version>
5.8.1

> <Gold.Id.Protein>
6NUR|6NUR_protein|mol2

> <Gold.PLP.Fitness>
49.8452

> <Gold.PLP.PLP>
-40.5663

> <Gold.PLP.part.hbond>
-4.0540

> <Gold.PLP.part.metal>
0.0000

> <Gold.PLP.part.buried>
0.6761

> <Gold.PLP.part.nonpolar>
-37.4688

> <Gold.PLP.part.repulsive>
0.5667

> <Gold.PLP.ligand.clash>
0.0000

> <Gold.PLP.ligand.torsion>
1.0943

> <Gold.PLP.Chemscore.Hbond>
3.0000

> <Gold.PLP.Chemscore.CHOScore>
0.7583

> <Gold.PLP.Chemscore.Metal>
0.0000

> <Gold.Chemscore.Hbonds>
donor molecule, donor type, donor heavy atom, donor atom, acceptor molecule, acceptor atom, score
      L1  H    23    50       P1 10957  1.00
      L1  H    25    51       P1  7921  0.75
      L1  H    27    52       P1  7921  1.00
      L1  C    17    47       P1  7948  0.56

> <Gold.PLP.Chemscore.Internal.Correction>
0.1927

> <Gold.Rescore>
     Score         DG    S(hbond)    S(metal)    S(lipo)     H(rot)  DE(clash)    DE(int)     intcor
      6.49     -10.45       2.05        0.00      91.28       4.90       1.51       2.45       ----

> <Gold.Chemscore.Fitness>
6.4887

> <Gold.Chemscore.DG>
-10.4531

> <Gold.Chemscore.ZeroCoef>
-5.4800

> <Gold.Chemscore.Hbond>
2.0494

> <Gold.Chemscore.Metal>
0.0000

> <Gold.Chemscore.Lipo>
91.2791

> <Gold.Chemscore.Internal_Hbond>
0.0000

> <Gold.Chemscore.DEClash>
1.5137

> <Gold.Chemscore.DEInternal>
2.4507

> <Gold.Chemscore.Rot>
4.9029

> <Gold.Chemscore.Internal.Correction>
   9.000000E+99

> <Gold.Chemscore.Hbonds>
donor molecule, donor type, donor heavy atom, donor atom, acceptor molecule, acceptor atom, score
      L1  H    23    50       P1 10957  0.99
      L1  H    25    51       P1  7921  0.09
      L1  H    27    52       P1  7921  1.00

> <Gold.Chemscore.Hbond.Weighted>
-6.8450

> <Gold.Chemscore.Metal.Weighted>
-0.0000

> <Gold.Chemscore.Lipo.Weighted>
-10.6797

> <Gold.Chemscore.Internal_Hbond.Weighted>
0.0000

> <Gold.Chemscore.DEClash.Weighted>
1.5137

> <Gold.Chemscore.DEInternal.Weighted>
2.4507

> <Gold.Chemscore.Rot.Weighted>
12.5515

> <Gold.Chemscore.Internal.Correction.Weighted>
   9.000000E+99

> <Gold.Protein.RotatedTorsions>
[ 6907 6896 6895 6894 ] final -127.17 input  -60.11 | X-H torsion
[ 7974 7965 7964 7962 ] final  -55.54 input  175.53 | X-H torsion
[ 8008 7997 7996 7995 ] final   34.57 input   59.86 | X-H torsion
[ 10167 10162 10161 10158 ] final   98.73 input  -65.29 | X-H torsion
[ 10718 10713 10712 10709 ] final   -0.12 input   66.30 | X-H torsion
[ 10763 10752 10751 10750 ] final   89.27 input  -60.55 | X-H torsion
[ 11005 11000 10999 10996 ] final   46.06 input  -57.11 | X-H torsion

> <Gold.Protein.ActiveResidues>
 VAL166  LYS551  ARG553  GLY616  TRP617  ASP618  TYR619  PRO620  LYS621  CYS622 
 ASP623  PHE694  ASN695  SER759  ASP760  ASP761  ALA762  ILE779  LEU786  VAL792 
 PHE793  MET794  SER795  GLU796  ALA797  LYS798  CYS799  TRP800  GLU811  SER814 

> <Gold.Protein.RotatedAtoms>
  150.9045  133.7076  159.2870 H   0  0  0  0  0  0  0  0  0  0  0  0  # atno 6907 bound_to 6896
  151.4583  135.1035  159.9727 H   0  0  0  0  0  0  0  0  0  0  0  0  # atno 6908 bound_to 6896
  152.4895  133.8414  159.7210 H   0  0  0  0  0  0  0  0  0  0  0  0  # atno 6909 bound_to 6896
  145.8730  140.8202  142.9879 H   0  0  0  0  0  0  0  0  0  0  0  0  # atno 7974 bound_to 7965
  155.1570  140.3280  155.4419 H   0  0  0  0  0  0  0  0  0  0  0  0  # atno 8008 bound_to 7997
  156.2555  140.1967  156.6630 H   0  0  0  0  0  0  0  0  0  0  0  0  # atno 8009 bound_to 7997
  154.6432  140.0567  156.9856 H   0  0  0  0  0  0  0  0  0  0  0  0  # atno 8010 bound_to 7997
  139.7681  144.6932  151.0195 H   0  0  0  0  0  0  0  0  0  0  0  0  # atno 10167 bound_to 10162
  156.8252  130.5470  149.5693 H   0  0  0  0  0  0  0  0  0  0  0  0  # atno 10718 bound_to 10713
  153.1854  135.4476  155.0081 H   0  0  0  0  0  0  0  0  0  0  0  0  # atno 10763 bound_to 10752
  154.8057  135.3273  154.7440 H   0  0  0  0  0  0  0  0  0  0  0  0  # atno 10764 bound_to 10752
  153.7900  135.6971  153.4928 H   0  0  0  0  0  0  0  0  0  0  0  0  # atno 10765 bound_to 10752
  140.1403  134.4592  155.8455 H   0  0  0  0  0  0  0  0  0  0  0  0  # atno 11005 bound_to 11000
  144.6726  140.1267  143.7446 LP  0  0  0  0  0  0  0  0  0  0  0  0  # atno 17320 bound_to 7965
  145.9115  139.2490  143.1435 LP  0  0  0  0  0  0  0  0  0  0  0  0  # atno 17321 bound_to 7965
  140.7812  143.4619  151.0266 LP  0  0  0  0  0  0  0  0  0  0  0  0  # atno 17342 bound_to 10162
  139.8304  143.7699  152.3179 LP  0  0  0  0  0  0  0  0  0  0  0  0  # atno 17343 bound_to 10162
  156.0966  130.5937  150.9823 LP  0  0  0  0  0  0  0  0  0  0  0  0  # atno 17370 bound_to 10713
  157.6436  131.0907  150.8200 LP  0  0  0  0  0  0  0  0  0  0  0  0  # atno 17371 bound_to 10713
  141.2185  133.6830  156.7234 LP  0  0  0  0  0  0  0  0  0  0  0  0  # atno 17394 bound_to 11000
  140.2731  134.8376  157.3865 LP  0  0  0  0  0  0  0  0  0  0  0  0  # atno 17395 bound_to 11000

$$$$
