AV-unprocessed.smi:1056|AV-procd|sdf|4633|dock10
  -GOLD-   22720 3133D 1   1.00000     0.00000
 Structure written by MMmdl.
 45 47  0  0  0  0  0  0  0  0  2 V2000
  150.9715  145.2892  160.1115 C   0  0  0  0  0  0  0  0  0  0  0  0
  151.8026  144.0351  160.3172 C   0  0  0  0  0  0  0  0  0  0  0  0
  152.4331  143.8263  161.5647 C   0  0  0  0  0  0  0  0  0  0  0  0
  153.2157  142.6742  161.7966 C   0  0  0  0  0  0  0  0  0  0  0  0
  153.9137  142.2715  162.9224 N   0  0  0  0  0  0  0  0  0  0  0  0
  154.4371  141.1183  162.5164 C   0  0  0  0  0  0  0  0  0  0  0  0
  154.1644  140.7286  161.2561 N   0  0  0  0  0  0  0  0  0  0  0  0
  154.6154  139.5203  160.5915 C   0  0  0  0  0  0  0  0  0  0  0  0
  153.5084  138.4493  160.5096 C   0  0  1  0  0  0  0  0  0  0  0  0
  152.7957  138.6089  159.2997 O   0  0  0  0  0  0  0  0  0  0  0  0
  154.0627  137.0113  160.5505 C   0  0  0  0  0  0  0  0  0  0  0  0
  154.2399  136.5018  161.9339 N   0  3  1  0  0  0  0  0  0  0  0  0
  154.9847  135.2220  162.0116 C   0  0  0  0  0  0  0  0  0  0  0  0
  154.9288  134.6634  163.4443 C   0  0  0  0  0  0  0  0  0  0  0  0
  155.1448  135.6858  164.4655 N   0  0  0  0  0  0  0  0  0  0  0  0
  155.0966  137.0123  164.2612 C   0  0  0  0  0  0  0  0  0  0  0  0
  155.2770  137.8141  165.1737 O   0  0  0  0  0  0  0  0  0  0  0  0
  154.8109  137.5285  162.8429 C   0  0  0  0  0  0  0  0  0  0  0  0
  153.3508  141.7298  160.7377 C   0  0  0  0  0  0  0  0  0  0  0  0
  152.7277  141.9250  159.4924 C   0  0  0  0  0  0  0  0  0  0  0  0
  151.9512  143.0826  159.2770 C   0  0  0  0  0  0  0  0  0  0  0  0
  151.2859  143.2880  157.9276 C   0  0  0  0  0  0  0  0  0  0  0  0
  150.8996  145.8741  161.0291 H   0  0  0  0  0  0  0  0  0  0  0  0
  149.9586  145.0330  159.8004 H   0  0  0  0  0  0  0  0  0  0  0  0
  151.4206  145.9211  159.3450 H   0  0  0  0  0  0  0  0  0  0  0  0
  152.3209  144.5524  162.3566 H   0  0  0  0  0  0  0  0  0  0  0  0
  155.0575  140.5242  163.1715 H   0  0  0  0  0  0  0  0  0  0  0  0
  154.9747  139.7790  159.5943 H   0  0  0  0  0  0  0  0  0  0  0  0
  155.4756  139.1411  161.1441 H   0  0  0  0  0  0  0  0  0  0  0  0
  152.7918  138.5988  161.3164 H   0  0  0  0  0  0  0  0  0  0  0  0
  152.0034  139.0935  159.4773 H   0  0  0  0  0  0  0  0  0  0  0  0
  153.4121  136.3305  159.9989 H   0  0  0  0  0  0  0  0  0  0  0  0
  155.0247  136.9982  160.0352 H   0  0  0  0  0  0  0  0  0  0  0  0
  154.5778  134.4812  161.3246 H   0  0  0  0  0  0  0  0  0  0  0  0
  156.0209  135.3929  161.7146 H   0  0  0  0  0  0  0  0  0  0  0  0
  153.9485  134.2207  163.6251 H   0  0  0  0  0  0  0  0  0  0  0  0
  155.6607  133.8652  163.5700 H   0  0  0  0  0  0  0  0  0  0  0  0
  155.3396  135.3612  165.4024 H   0  0  0  0  0  0  0  0  0  0  0  0
  155.7462  137.9040  162.4248 H   0  0  0  0  0  0  0  0  0  0  0  0
  154.1259  138.3751  162.9082 H   0  0  0  0  0  0  0  0  0  0  0  0
  152.8478  141.1917  158.7092 H   0  0  0  0  0  0  0  0  0  0  0  0
  151.5384  142.4861  157.2330 H   0  0  0  0  0  0  0  0  0  0  0  0
  151.6079  144.2293  157.4818 H   0  0  0  0  0  0  0  0  0  0  0  0
  150.2015  143.3086  158.0359 H   0  0  0  0  0  0  0  0  0  0  0  0
  153.3127  136.3124  162.2867 H   0  0  0  0  0  0  0  0  0  0  0  0
  1  2  1  0  0  0  0
  1 23  1  0  0  0  0
  1 24  1  0  0  0  0
  1 25  1  0  0  0  0
  2 21  1  0  0  0  0
  2  3  2  0  0  0  0
  3  4  1  0  0  0  0
  3 26  1  0  0  0  0
  4 19  2  0  0  0  0
  4  5  1  0  0  0  0
  5  6  2  0  0  0  0
  6  7  1  0  0  0  0
  6 27  1  0  0  0  0
  7  8  1  0  0  0  0
  7 19  1  0  0  0  0
  8  9  1  0  0  0  0
  8 28  1  0  0  0  0
  8 29  1  0  0  0  0
  9 10  1  0  0  0  0
  9 11  1  0  0  0  0
  9 30  1  0  0  0  0
 10 31  1  0  0  0  0
 11 12  1  0  0  0  0
 11 32  1  0  0  0  0
 11 33  1  0  0  0  0
 12 18  1  0  0  0  0
 12 13  1  0  0  0  0
 12 45  1  0  0  0  0
 13 14  1  0  0  0  0
 13 34  1  0  0  0  0
 13 35  1  0  0  0  0
 14 15  1  0  0  0  0
 14 36  1  0  0  0  0
 14 37  1  0  0  0  0
 15 16  1  0  0  0  0
 15 38  1  0  0  0  0
 16 17  2  0  0  0  0
 16 18  1  0  0  0  0
 18 39  1  0  0  0  0
 18 40  1  0  0  0  0
 19 20  1  0  0  0  0
 20 21  2  0  0  0  0
 20 41  1  0  0  0  0
 21 22  1  0  0  0  0
 22 42  1  0  0  0  0
 22 43  1  0  0  0  0
 22 44  1  0  0  0  0
M  CHG  1  12   1
M  END
> <s_m_source_file>
AV-unprocessed.smi

> <i_m_source_file_index>
1056

> <i_lp_mmshare_version>
43012

> <i_f3d_flags>
0

> <s_epik_input>
W0NIM11jKFtjSF0xKWMoW0NIM10pW2NIXWMoYzEyKW4oW2NIXW4yKVtDSDJdW0NASF0oW09IXSlbQ0gyXU4zW0NIMl1bQ0gyXVtOSF1DKD1PKVtDSDJdMw==

> <s_epik_cmdline>
J2VwaWtfcHl0aG9uJywgJy1waCcsICc3LjAnLCAnLXRuJywgJzgnLCAnLW1hJywgJzIwMCcsICctbWV0YWxfYmluZGluZycsICctaW1hZScsICc8aW5maWxlLm1hZT4nLCAnLW9tYWUnLCAnPG91dGZpbGUubWFlPic=

> <r_epik_Ionization_Penalty>
0.153633

> <r_epik_Ionization_Penalty_Charging>
0.0674887

> <r_epik_Ionization_Penalty_Neutral>
0.0861443

> <r_epik_State_Penalty>
0.135155

> <r_epik_Charging_Adjusted_Penalty>
0.202644

> <i_epik_Tot_Q>
1

> <i_epik_Tot_abs_Q>
1

> <r_epik_Metal_State_Penalty>
0.190685

> <b_epik_Metal_Only>
0

> <s_lp_Force_Field>
OPLS_2005

> <r_lp_Energy>
24.5126

> <b_lp_Chiralities_Consistent>
1

> <s_lp_Variant>
AV-unprocessed.smi:1056-4

> <Gold.Version>
5.8.1

> <Gold.Id.Protein>
6NUR|6NUR_protein|mol2

> <Gold.PLP.Fitness>
47.5629

> <Gold.PLP.PLP>
-49.6165

> <Gold.PLP.part.hbond>
-1.0269

> <Gold.PLP.part.metal>
0.0000

> <Gold.PLP.part.buried>
-6.5129

> <Gold.PLP.part.nonpolar>
-41.3455

> <Gold.PLP.part.repulsive>
0.2369

> <Gold.PLP.ligand.clash>
0.0000

> <Gold.PLP.ligand.torsion>
1.0414

> <Gold.PLP.Chemscore.Hbond>
0.0000

> <Gold.PLP.Chemscore.CHOScore>
0.0000

> <Gold.PLP.Chemscore.Metal>
0.0000

> <Gold.PLP.Chemscore.Internal.Correction>
0.0293

> <Gold.Rescore>
     Score         DG    S(hbond)    S(metal)    S(lipo)     H(rot)  DE(clash)    DE(int)     intcor
     13.70     -14.91       0.00        0.00     132.66       2.38       0.04       1.17       ----

> <Gold.Chemscore.Fitness>
13.7042

> <Gold.Chemscore.DG>
-14.9130

> <Gold.Chemscore.ZeroCoef>
-5.4800

> <Gold.Chemscore.Hbond>
0.0000

> <Gold.Chemscore.Metal>
0.0000

> <Gold.Chemscore.Lipo>
132.6613

> <Gold.Chemscore.Internal_Hbond>
0.0000

> <Gold.Chemscore.DEClash>
0.0436

> <Gold.Chemscore.DEInternal>
1.1652

> <Gold.Chemscore.Rot>
2.3783

> <Gold.Chemscore.Internal.Correction>
   9.000000E+99

> <Gold.Chemscore.Hbond.Weighted>
-0.0000

> <Gold.Chemscore.Metal.Weighted>
-0.0000

> <Gold.Chemscore.Lipo.Weighted>
-15.5214

> <Gold.Chemscore.Internal_Hbond.Weighted>
0.0000

> <Gold.Chemscore.DEClash.Weighted>
0.0436

> <Gold.Chemscore.DEInternal.Weighted>
1.1652

> <Gold.Chemscore.Rot.Weighted>
6.0884

> <Gold.Chemscore.Internal.Correction.Weighted>
   9.000000E+99

> <Gold.Protein.RotatedTorsions>
[ 6907 6896 6895 6894 ] final   11.32 input  -60.11 | X-H torsion
[ 7974 7965 7964 7962 ] final  -97.94 input  175.53 | X-H torsion
[ 8008 7997 7996 7995 ] final  -87.83 input   59.86 | X-H torsion
[ 10167 10162 10161 10158 ] final  105.14 input  -65.29 | X-H torsion
[ 10718 10713 10712 10709 ] final -137.25 input   66.30 | X-H torsion
[ 10763 10752 10751 10750 ] final  -37.73 input  -60.55 | X-H torsion
[ 11005 11000 10999 10996 ] final  -68.50 input  -57.11 | X-H torsion

> <Gold.Protein.ActiveResidues>
 VAL166  LYS551  ARG553  GLY616  TRP617  ASP618  TYR619  PRO620  LYS621  CYS622 
 ASP623  PHE694  ASN695  SER759  ASP760  ASP761  ALA762  ILE779  LEU786  VAL792 
 PHE793  MET794  SER795  GLU796  ALA797  LYS798  CYS799  TRP800  GLU811  SER814 

> <Gold.Protein.RotatedAtoms>
  151.7524  135.0829  160.0332 H   0  0  0  0  0  0  0  0  0  0  0  0  # atno 6907 bound_to 6896
  152.3408  133.6060  159.5883 H   0  0  0  0  0  0  0  0  0  0  0  0  # atno 6908 bound_to 6896
  150.7478  133.9642  159.3567 H   0  0  0  0  0  0  0  0  0  0  0  0  # atno 6909 bound_to 6896
  145.3272  140.9434  143.2682 H   0  0  0  0  0  0  0  0  0  0  0  0  # atno 7974 bound_to 7965
  154.6678  140.0561  157.0132 H   0  0  0  0  0  0  0  0  0  0  0  0  # atno 8008 bound_to 7997
  155.1134  140.3240  155.4497 H   0  0  0  0  0  0  0  0  0  0  0  0  # atno 8009 bound_to 7997
  156.2645  140.2010  156.6258 H   0  0  0  0  0  0  0  0  0  0  0  0  # atno 8010 bound_to 7997
  139.7117  144.7076  151.1016 H   0  0  0  0  0  0  0  0  0  0  0  0  # atno 10167 bound_to 10162
  156.2860  130.7348  151.1359 H   0  0  0  0  0  0  0  0  0  0  0  0  # atno 10718 bound_to 10713
  153.9010  135.6802  153.4755 H   0  0  0  0  0  0  0  0  0  0  0  0  # atno 10763 bound_to 10752
  153.1129  135.4775  154.9063 H   0  0  0  0  0  0  0  0  0  0  0  0  # atno 10764 bound_to 10752
  154.7575  135.3201  154.8396 H   0  0  0  0  0  0  0  0  0  0  0  0  # atno 10765 bound_to 10752
  141.1533  133.6742  156.6455 H   0  0  0  0  0  0  0  0  0  0  0  0  # atno 11005 bound_to 11000
  144.8893  139.4796  143.6685 LP  0  0  0  0  0  0  0  0  0  0  0  0  # atno 17320 bound_to 7965
  146.3060  139.7581  142.9056 LP  0  0  0  0  0  0  0  0  0  0  0  0  # atno 17321 bound_to 7965
  140.7735  143.5284  150.9453 LP  0  0  0  0  0  0  0  0  0  0  0  0  # atno 17342 bound_to 10162
  139.8969  143.6884  152.3137 LP  0  0  0  0  0  0  0  0  0  0  0  0  # atno 17343 bound_to 10162
  157.7328  131.0596  150.5607 LP  0  0  0  0  0  0  0  0  0  0  0  0  # atno 17370 bound_to 10713
  156.5718  130.4281  149.6016 LP  0  0  0  0  0  0  0  0  0  0  0  0  # atno 17371 bound_to 10713
  140.3360  134.7889  157.4362 LP  0  0  0  0  0  0  0  0  0  0  0  0  # atno 17394 bound_to 11000
  140.0977  134.5515  155.8382 LP  0  0  0  0  0  0  0  0  0  0  0  0  # atno 17395 bound_to 11000

$$$$
