AV-unprocessed.smi:1205|AV-procd|sdf|5044|dock2
  -GOLD-   22720 4 63D 1   1.00000     0.00000
 Structure written by MMmdl.
 49 50  0  0  0  0  0  0  0  0  2 V2000
  154.0991  141.5458  161.3730 C   0  0  0  0  0  0  0  0  0  0  0  0
  153.1576  142.1831  160.3940 C   0  0  0  0  0  0  0  0  0  0  0  0
  152.3862  141.5479  159.3780 C   0  0  0  0  0  0  0  0  0  0  0  0
  151.7259  142.5975  158.7998 C   0  0  0  0  0  0  0  0  0  0  0  0
  150.8488  142.5838  157.7608 N   0  0  0  0  0  0  0  0  0  0  0  0
  150.7340  141.6842  156.7684 C   0  0  0  0  0  0  0  0  0  0  0  0
  151.4074  140.6607  156.6494 O   0  0  0  0  0  0  0  0  0  0  0  0
  149.7763  142.0418  155.8998 N   0  0  0  0  0  0  0  0  0  0  0  0
  149.3727  141.2816  154.7195 C   0  0  0  0  0  0  0  0  0  0  0  0
  148.1185  141.8768  154.0279 C   0  0  1  0  0  0  0  0  0  0  0  0
  147.5279  140.9636  152.9362 C   0  0  0  0  0  0  0  0  0  0  0  0
  147.0538  142.2788  154.9934 N   0  3  1  0  0  0  0  0  0  0  0  0
  145.8484  142.9107  154.3910 C   0  0  0  0  0  0  0  0  0  0  0  0
  144.9525  143.5196  155.4808 C   0  0  0  0  0  0  0  0  0  0  0  0
  144.5631  142.4637  156.5265 C   0  0  0  0  0  0  0  0  0  0  0  0
  145.8051  141.7547  157.1000 C   0  0  2  0  0  0  0  0  0  0  0  0
  146.5980  142.6394  158.0783 C   0  0  0  0  0  0  0  0  0  0  0  0
  146.6911  141.2084  155.9610 C   0  0  0  0  0  0  0  0  0  0  0  0
  152.0960  143.7619  159.4385 N   0  0  0  0  0  0  0  0  0  0  0  0
  151.6794  145.1309  159.2020 C   0  0  0  0  0  0  0  0  0  0  0  0
  152.9779  143.4986  160.4265 N   0  0  0  0  0  0  0  0  0  0  0  0
  154.2553  140.4922  161.1403 H   0  0  0  0  0  0  0  0  0  0  0  0
  153.7087  141.6070  162.3891 H   0  0  0  0  0  0  0  0  0  0  0  0
  155.0732  142.0354  161.3585 H   0  0  0  0  0  0  0  0  0  0  0  0
  152.3424  140.4978  159.1317 H   0  0  0  0  0  0  0  0  0  0  0  0
  150.2035  143.3595  157.7355 H   0  0  0  0  0  0  0  0  0  0  0  0
  149.2756  142.9005  156.0778 H   0  0  0  0  0  0  0  0  0  0  0  0
  150.2087  141.2117  154.0222 H   0  0  0  0  0  0  0  0  0  0  0  0
  149.1709  140.2637  155.0518 H   0  0  0  0  0  0  0  0  0  0  0  0
  148.4311  142.7848  153.5100 H   0  0  0  0  0  0  0  0  0  0  0  0
  148.2204  140.8413  152.1034 H   0  0  0  0  0  0  0  0  0  0  0  0
  146.6096  141.3848  152.5257 H   0  0  0  0  0  0  0  0  0  0  0  0
  147.2979  139.9686  153.3172 H   0  0  0  0  0  0  0  0  0  0  0  0
  146.1377  143.6927  153.6897 H   0  0  0  0  0  0  0  0  0  0  0  0
  145.2796  142.1706  153.8268 H   0  0  0  0  0  0  0  0  0  0  0  0
  145.4691  144.3507  155.9622 H   0  0  0  0  0  0  0  0  0  0  0  0
  144.0537  143.9403  155.0290 H   0  0  0  0  0  0  0  0  0  0  0  0
  143.9776  142.9194  157.3257 H   0  0  0  0  0  0  0  0  0  0  0  0
  143.9137  141.7230  156.0578 H   0  0  0  0  0  0  0  0  0  0  0  0
  145.4521  140.8996  157.6782 H   0  0  0  0  0  0  0  0  0  0  0  0
  147.0180  143.5172  157.5870 H   0  0  0  0  0  0  0  0  0  0  0  0
  147.4249  142.0848  158.5226 H   0  0  0  0  0  0  0  0  0  0  0  0
  145.9638  142.9878  158.8939 H   0  0  0  0  0  0  0  0  0  0  0  0
  146.1640  140.4096  155.4377 H   0  0  0  0  0  0  0  0  0  0  0  0
  147.5908  140.7612  156.3856 H   0  0  0  0  0  0  0  0  0  0  0  0
  151.1748  145.2177  158.2399 H   0  0  0  0  0  0  0  0  0  0  0  0
  152.5495  145.7883  159.1992 H   0  0  0  0  0  0  0  0  0  0  0  0
  150.9964  145.4466  159.9908 H   0  0  0  0  0  0  0  0  0  0  0  0
  147.4817  142.9989  155.5578 H   0  0  0  0  0  0  0  0  0  0  0  0
  1  2  1  0  0  0  0
  1 22  1  0  0  0  0
  1 23  1  0  0  0  0
  1 24  1  0  0  0  0
  2 21  2  0  0  0  0
  2  3  1  0  0  0  0
  3  4  2  0  0  0  0
  3 25  1  0  0  0  0
  4  5  1  0  0  0  0
  4 19  1  0  0  0  0
  5  6  1  0  0  0  0
  5 26  1  0  0  0  0
  6  7  2  0  0  0  0
  6  8  1  0  0  0  0
  8  9  1  0  0  0  0
  8 27  1  0  0  0  0
  9 10  1  0  0  0  0
  9 28  1  0  0  0  0
  9 29  1  0  0  0  0
 10 11  1  0  0  0  0
 10 12  1  0  0  0  0
 10 30  1  0  0  0  0
 11 31  1  0  0  0  0
 11 32  1  0  0  0  0
 11 33  1  0  0  0  0
 12 18  1  0  0  0  0
 12 13  1  0  0  0  0
 12 49  1  0  0  0  0
 13 14  1  0  0  0  0
 13 34  1  0  0  0  0
 13 35  1  0  0  0  0
 14 15  1  0  0  0  0
 14 36  1  0  0  0  0
 14 37  1  0  0  0  0
 15 16  1  0  0  0  0
 15 38  1  0  0  0  0
 15 39  1  0  0  0  0
 16 17  1  0  0  0  0
 16 18  1  0  0  0  0
 16 40  1  0  0  0  0
 17 41  1  0  0  0  0
 17 42  1  0  0  0  0
 17 43  1  0  0  0  0
 18 44  1  0  0  0  0
 18 45  1  0  0  0  0
 19 20  1  0  0  0  0
 19 21  1  0  0  0  0
 20 46  1  0  0  0  0
 20 47  1  0  0  0  0
 20 48  1  0  0  0  0
M  CHG  1  12   1
M  END
> <s_m_source_file>
AV-unprocessed.smi

> <i_m_source_file_index>
1205

> <i_lp_mmshare_version>
43012

> <i_f3d_flags>
0

> <s_epik_input>
W0NIM11jMVtjSF1jKG4objEpW0NIM10pW05IXUMoPU8pW05IXVtDSDJdW0NASF0oW0NIM10pTjJbQ0gyXVtDSDJdW0NIMl1bQ0BASF0oW0NIM10pW0NIMl0y

> <s_epik_cmdline>
J2VwaWtfcHl0aG9uJywgJy1waCcsICc3LjAnLCAnLXRuJywgJzgnLCAnLW1hJywgJzIwMCcsICctbWV0YWxfYmluZGluZycsICctaW1hZScsICc8aW5maWxlLm1hZT4nLCAnLW9tYWUnLCAnPG91dGZpbGUubWFlPic=

> <r_lp_tautomer_probability>
1

> <r_epik_Ionization_Penalty>
0.0020309

> <r_epik_Ionization_Penalty_Charging>
0.00195276

> <r_epik_Ionization_Penalty_Neutral>
7.81448e-05

> <r_epik_State_Penalty>
0.00133177

> <r_epik_Charging_Adjusted_Penalty>
0.00328452

> <i_epik_Tot_Q>
1

> <i_epik_Tot_abs_Q>
1

> <r_epik_Metal_State_Penalty>
-0

> <b_epik_Metal_Only>
0

> <s_lp_Force_Field>
OPLS_2005

> <r_lp_Energy>
25.114

> <b_lp_Chiralities_Consistent>
1

> <s_lp_Variant>
AV-unprocessed.smi:1205-6

> <Gold.Version>
5.8.1

> <Gold.Id.Protein>
6NUR|6NUR_protein|mol2

> <Gold.PLP.Fitness>
51.1146

> <Gold.PLP.PLP>
-42.6617

> <Gold.PLP.part.hbond>
-2.0000

> <Gold.PLP.part.metal>
0.0000

> <Gold.PLP.part.buried>
-4.3481

> <Gold.PLP.part.nonpolar>
-35.2029

> <Gold.PLP.part.repulsive>
0.2360

> <Gold.PLP.ligand.clash>
0.0000

> <Gold.PLP.ligand.torsion>
0.3454

> <Gold.PLP.Chemscore.Hbond>
3.0000

> <Gold.PLP.Chemscore.CHOScore>
0.0000

> <Gold.PLP.Chemscore.Metal>
0.0000

> <Gold.Chemscore.Hbonds>
donor molecule, donor type, donor heavy atom, donor atom, acceptor molecule, acceptor atom, score
      L1  H     8    27       P1  8028  1.00
      L1  H    12    49       P1  8028  1.14

> <Gold.PLP.Chemscore.Internal.Correction>
0.1438

> <Gold.Rescore>
     Score         DG    S(hbond)    S(metal)    S(lipo)     H(rot)  DE(clash)    DE(int)     intcor
     13.99     -15.34       1.15        0.00      83.65       1.47       0.02       1.33       ----

> <Gold.Chemscore.Fitness>
13.9921

> <Gold.Chemscore.DG>
-15.3432

> <Gold.Chemscore.ZeroCoef>
-5.4800

> <Gold.Chemscore.Hbond>
1.1463

> <Gold.Chemscore.Metal>
0.0000

> <Gold.Chemscore.Lipo>
83.6497

> <Gold.Chemscore.Internal_Hbond>
0.0000

> <Gold.Chemscore.DEClash>
0.0222

> <Gold.Chemscore.DEInternal>
1.3289

> <Gold.Chemscore.Rot>
1.4658

> <Gold.Chemscore.Internal.Correction>
   9.000000E+99

> <Gold.Chemscore.Hbonds>
donor molecule, donor type, donor heavy atom, donor atom, acceptor molecule, acceptor atom, score
      L1  H     8    27       P1  8028  0.95
      L1  H    12    49       P1  8028  0.14

> <Gold.Chemscore.Hbond.Weighted>
-3.8288

> <Gold.Chemscore.Metal.Weighted>
-0.0000

> <Gold.Chemscore.Lipo.Weighted>
-9.7870

> <Gold.Chemscore.Internal_Hbond.Weighted>
0.0000

> <Gold.Chemscore.DEClash.Weighted>
0.0222

> <Gold.Chemscore.DEInternal.Weighted>
1.3289

> <Gold.Chemscore.Rot.Weighted>
3.7526

> <Gold.Chemscore.Internal.Correction.Weighted>
   9.000000E+99

> <Gold.Protein.RotatedTorsions>
[ 6907 6896 6895 6894 ] final  -98.32 input  -60.11 | X-H torsion
[ 7974 7965 7964 7962 ] final -112.12 input  175.53 | X-H torsion
[ 8008 7997 7996 7995 ] final   25.33 input   59.86 | X-H torsion
[ 10167 10162 10161 10158 ] final  -91.30 input  -65.29 | X-H torsion
[ 10718 10713 10712 10709 ] final  -32.53 input   66.30 | X-H torsion
[ 10763 10752 10751 10750 ] final  161.55 input  -60.55 | X-H torsion
[ 11005 11000 10999 10996 ] final -109.59 input  -57.11 | X-H torsion

> <Gold.Protein.ActiveResidues>
 VAL166  LYS551  ARG553  GLY616  TRP617  ASP618  TYR619  PRO620  LYS621  CYS622 
 ASP623  PHE694  ASN695  SER759  ASP760  ASP761  ALA762  ILE779  LEU786  VAL792 
 PHE793  MET794  SER795  GLU796  ALA797  LYS798  CYS799  TRP800  GLU811  SER814 

> <Gold.Protein.RotatedAtoms>
  150.7043  134.1212  159.4035 H   0  0  0  0  0  0  0  0  0  0  0  0  # atno 6907 bound_to 6896
  151.9199  135.0300  160.0530 H   0  0  0  0  0  0  0  0  0  0  0  0  # atno 6908 bound_to 6896
  152.2265  133.4989  159.5228 H   0  0  0  0  0  0  0  0  0  0  0  0  # atno 6909 bound_to 6896
  145.1478  140.8812  143.3664 H   0  0  0  0  0  0  0  0  0  0  0  0  # atno 7974 bound_to 7965
  155.0100  140.3135  155.4833 H   0  0  0  0  0  0  0  0  0  0  0  0  # atno 8008 bound_to 7997
  156.2911  140.2216  156.5155 H   0  0  0  0  0  0  0  0  0  0  0  0  # atno 8009 bound_to 7997
  154.7543  140.0464  157.0908 H   0  0  0  0  0  0  0  0  0  0  0  0  # atno 8010 bound_to 7997
  140.3463  143.2915  151.9778 H   0  0  0  0  0  0  0  0  0  0  0  0  # atno 10167 bound_to 10162
  156.3738  130.4344  149.7524 H   0  0  0  0  0  0  0  0  0  0  0  0  # atno 10718 bound_to 10713
  154.2647  135.2767  155.2763 H   0  0  0  0  0  0  0  0  0  0  0  0  # atno 10763 bound_to 10752
  154.5353  135.5718  153.6797 H   0  0  0  0  0  0  0  0  0  0  0  0  # atno 10764 bound_to 10752
  152.9956  135.6238  154.2799 H   0  0  0  0  0  0  0  0  0  0  0  0  # atno 10765 bound_to 10752
  141.0839  133.9173  157.2229 H   0  0  0  0  0  0  0  0  0  0  0  0  # atno 11005 bound_to 11000
  145.0463  139.3218  143.5951 LP  0  0  0  0  0  0  0  0  0  0  0  0  # atno 17320 bound_to 7965
  146.3498  139.9855  142.8691 LP  0  0  0  0  0  0  0  0  0  0  0  0  # atno 17321 bound_to 7965
  139.4833  144.6114  151.7426 LP  0  0  0  0  0  0  0  0  0  0  0  0  # atno 17342 bound_to 10162
  140.5261  144.0803  150.6038 LP  0  0  0  0  0  0  0  0  0  0  0  0  # atno 17343 bound_to 10162
  156.4641  130.7966  151.2985 LP  0  0  0  0  0  0  0  0  0  0  0  0  # atno 17370 bound_to 10713
  157.7486  131.0056  150.3121 LP  0  0  0  0  0  0  0  0  0  0  0  0  # atno 17371 bound_to 10713
  139.9655  135.0143  156.9375 LP  0  0  0  0  0  0  0  0  0  0  0  0  # atno 17394 bound_to 11000
  140.5407  134.0723  155.7341 LP  0  0  0  0  0  0  0  0  0  0  0  0  # atno 17395 bound_to 11000

$$$$
