AV-unprocessed.smi:2198|AV-procd|sdf|8916|dock10
  -GOLD-   2272012133D 1   1.00000     0.00000
 Structure written by MMmdl.
 43 44  0  0  0  0  0  0  0  0  1 V2000
  146.4770  138.3575  152.5294 C   0  0  0  0  0  0  0  0  0  0  0  0
  147.6485  138.9537  153.2788 C   0  0  0  0  0  0  0  0  0  0  0  0
  148.5960  138.0201  153.6653 N   0  0  0  0  0  0  0  0  0  0  0  0
  149.7024  138.4713  154.3629 C   0  0  0  0  0  0  0  0  0  0  0  0
  150.6895  137.3848  154.7520 C   0  0  0  0  0  0  0  0  0  0  0  0
  149.8607  139.7876  154.6538 C   0  0  0  0  0  0  0  0  0  0  0  0
  151.0693  140.3277  155.4178 C   0  0  0  0  0  0  0  0  0  0  0  0
  150.7695  141.0923  156.7101 C   0  0  0  0  0  0  0  0  0  0  0  0
  149.7212  141.7256  156.8377 O   0  0  0  0  0  0  0  0  0  0  0  0
  151.7127  141.0281  157.6618 N   0  0  0  0  0  0  0  0  0  0  0  0
  151.6510  141.6970  158.9579 C   0  0  1  0  0  0  0  0  0  0  0  0
  152.8772  141.3034  159.8012 C   0  0  0  0  0  0  0  0  0  0  0  0
  152.8868  142.0362  161.1516 C   0  0  0  0  0  0  0  0  0  0  0  0
  152.8171  143.5593  160.9606 C   0  0  0  0  0  0  0  0  0  0  0  0
  151.5878  143.9679  160.1266 C   0  0  1  0  0  0  0  0  0  0  0  0
  151.5208  145.4893  159.9308 C   0  0  0  0  0  0  0  0  0  0  0  0
  151.5823  143.2276  158.7750 C   0  0  0  0  0  0  0  0  0  0  0  0
  148.8194  140.7407  154.2026 C   0  0  0  0  0  0  0  0  0  0  0  0
  148.9137  141.9481  154.4200 O   0  0  0  0  0  0  0  0  0  0  0  0
  147.7107  140.2302  153.5080 N   0  0  0  0  0  0  0  0  0  0  0  0
  148.5204  137.0331  153.4660 H   0  0  0  0  0  0  0  0  0  0  0  0
  145.6850  139.0955  152.3945 H   0  0  0  0  0  0  0  0  0  0  0  0
  146.0622  137.5111  153.0775 H   0  0  0  0  0  0  0  0  0  0  0  0
  146.7943  138.0123  151.5450 H   0  0  0  0  0  0  0  0  0  0  0  0
  150.7719  137.3164  155.8367 H   0  0  0  0  0  0  0  0  0  0  0  0
  151.6767  137.6018  154.3438 H   0  0  0  0  0  0  0  0  0  0  0  0
  150.3808  136.4081  154.3777 H   0  0  0  0  0  0  0  0  0  0  0  0
  151.6225  140.9959  154.7574 H   0  0  0  0  0  0  0  0  0  0  0  0
  151.7681  139.5221  155.6455 H   0  0  0  0  0  0  0  0  0  0  0  0
  152.5402  140.4819  157.4711 H   0  0  0  0  0  0  0  0  0  0  0  0
  150.7554  141.3637  159.4864 H   0  0  0  0  0  0  0  0  0  0  0  0
  152.8859  140.2256  159.9685 H   0  0  0  0  0  0  0  0  0  0  0  0
  153.7928  141.5399  159.2569 H   0  0  0  0  0  0  0  0  0  0  0  0
  152.0404  141.7042  161.7542 H   0  0  0  0  0  0  0  0  0  0  0  0
  153.7854  141.7726  161.7098 H   0  0  0  0  0  0  0  0  0  0  0  0
  152.7866  144.0479  161.9352 H   0  0  0  0  0  0  0  0  0  0  0  0
  153.7280  143.9057  160.4702 H   0  0  0  0  0  0  0  0  0  0  0  0
  150.6942  143.6684  160.6761 H   0  0  0  0  0  0  0  0  0  0  0  0
  152.3900  145.8573  159.3846 H   0  0  0  0  0  0  0  0  0  0  0  0
  151.4849  146.0081  160.8890 H   0  0  0  0  0  0  0  0  0  0  0  0
  150.6303  145.7733  159.3697 H   0  0  0  0  0  0  0  0  0  0  0  0
  152.4280  143.5631  158.1724 H   0  0  0  0  0  0  0  0  0  0  0  0
  150.6836  143.4941  158.2171 H   0  0  0  0  0  0  0  0  0  0  0  0
  1 22  1  0  0  0  0
  1 23  1  0  0  0  0
  1 24  1  0  0  0  0
  1  2  1  0  0  0  0
  2  3  1  0  0  0  0
  2 20  2  0  0  0  0
  3  4  1  0  0  0  0
  3 21  1  0  0  0  0
  4  6  2  0  0  0  0
  4  5  1  0  0  0  0
  5 25  1  0  0  0  0
  5 26  1  0  0  0  0
  5 27  1  0  0  0  0
  6 18  1  0  0  0  0
  6  7  1  0  0  0  0
  7  8  1  0  0  0  0
  7 28  1  0  0  0  0
  7 29  1  0  0  0  0
  8  9  2  0  0  0  0
  8 10  1  0  0  0  0
 10 11  1  0  0  0  0
 10 30  1  0  0  0  0
 11 17  1  0  0  0  0
 11 12  1  0  0  0  0
 11 31  1  0  0  0  0
 12 13  1  0  0  0  0
 12 32  1  0  0  0  0
 12 33  1  0  0  0  0
 13 14  1  0  0  0  0
 13 34  1  0  0  0  0
 13 35  1  0  0  0  0
 14 15  1  0  0  0  0
 14 36  1  0  0  0  0
 14 37  1  0  0  0  0
 15 16  1  0  0  0  0
 15 17  1  0  0  0  0
 15 38  1  0  0  0  0
 16 39  1  0  0  0  0
 16 40  1  0  0  0  0
 16 41  1  0  0  0  0
 17 42  1  0  0  0  0
 17 43  1  0  0  0  0
 18 19  2  0  0  0  0
 18 20  1  0  0  0  0
M  END
> <s_m_source_file>
AV-unprocessed.smi

> <i_m_source_file_index>
2198

> <i_lp_mmshare_version>
43012

> <i_f3d_flags>
0

> <s_epik_input>
W0NIM11jMW5jKFtDSDNdKWMoYyg9TylbbkhdMSlbQ0gyXUMoPU8pW05IXVtDQEBIXTJbQ0gyXVtDSDJdW0NIMl1bQ0BASF0oW0NIM10pW0NIMl0y

> <s_epik_cmdline>
J2VwaWtfcHl0aG9uJywgJy1waCcsICc3LjAnLCAnLXRuJywgJzgnLCAnLW1hJywgJzIwMCcsICctbWV0YWxfYmluZGluZycsICctaW1hZScsICc8aW5maWxlLm1hZT4nLCAnLW9tYWUnLCAnPG91dGZpbGUubWFlPic=

> <r_lp_tautomer_probability>
0.156392

> <r_epik_Ionization_Penalty>
0.0136514

> <r_epik_Ionization_Penalty_Charging>
0.0135207

> <r_epik_Ionization_Penalty_Neutral>
0.000130657

> <r_epik_State_Penalty>
1.15342

> <r_epik_Charging_Adjusted_Penalty>
1.16694

> <i_epik_Tot_Q>
0

> <i_epik_Tot_abs_Q>
0

> <r_epik_Metal_State_Penalty>
1.31404

> <b_epik_Metal_Only>
0

> <s_lp_Force_Field>
OPLS_2005

> <r_lp_Energy>
13.5708

> <b_lp_Chiralities_Consistent>
1

> <s_lp_Variant>
AV-unprocessed.smi:2198-6

> <Gold.Version>
5.8.1

> <Gold.Id.Protein>
6NUR|6NUR_protein|mol2

> <Gold.PLP.Fitness>
43.3185

> <Gold.PLP.PLP>
-42.1187

> <Gold.PLP.part.hbond>
-2.1631

> <Gold.PLP.part.metal>
0.0000

> <Gold.PLP.part.buried>
-3.5790

> <Gold.PLP.part.nonpolar>
-38.5331

> <Gold.PLP.part.repulsive>
2.4031

> <Gold.PLP.ligand.clash>
0.0000

> <Gold.PLP.ligand.torsion>
0.3875

> <Gold.PLP.Chemscore.Hbond>
0.6572

> <Gold.PLP.Chemscore.CHOScore>
0.0000

> <Gold.PLP.Chemscore.Metal>
0.0000

> <Gold.Chemscore.Hbonds>
donor molecule, donor type, donor heavy atom, donor atom, acceptor molecule, acceptor atom, score
      L1  H     3    21       P1  7948  0.50
      P1  H  8011  8017       L1    19  0.09

> <Gold.PLP.Chemscore.Internal.Correction>
0.0032

> <Gold.Rescore>
     Score         DG    S(hbond)    S(metal)    S(lipo)     H(rot)  DE(clash)    DE(int)     intcor
     10.72     -15.93       0.50        0.00     107.34       1.48       0.42       4.78       ----

> <Gold.Chemscore.Fitness>
10.7242

> <Gold.Chemscore.DG>
-15.9313

> <Gold.Chemscore.ZeroCoef>
-5.4800

> <Gold.Chemscore.Hbond>
0.5036

> <Gold.Chemscore.Metal>
0.0000

> <Gold.Chemscore.Lipo>
107.3378

> <Gold.Chemscore.Internal_Hbond>
0.0000

> <Gold.Chemscore.DEClash>
0.4227

> <Gold.Chemscore.DEInternal>
4.7844

> <Gold.Chemscore.Rot>
1.4801

> <Gold.Chemscore.Internal.Correction>
   9.000000E+99

> <Gold.Chemscore.Hbonds>
donor molecule, donor type, donor heavy atom, donor atom, acceptor molecule, acceptor atom, score
      L1  H     3    21       P1  7948  0.50
      P1  H  8011  8017       L1    19  0.01

> <Gold.Chemscore.Hbond.Weighted>
-1.6819

> <Gold.Chemscore.Metal.Weighted>
-0.0000

> <Gold.Chemscore.Lipo.Weighted>
-12.5585

> <Gold.Chemscore.Internal_Hbond.Weighted>
0.0000

> <Gold.Chemscore.DEClash.Weighted>
0.4227

> <Gold.Chemscore.DEInternal.Weighted>
4.7844

> <Gold.Chemscore.Rot.Weighted>
3.7891

> <Gold.Chemscore.Internal.Correction.Weighted>
   9.000000E+99

> <Gold.Protein.RotatedTorsions>
[ 6907 6896 6895 6894 ] final   10.50 input  -60.11 | X-H torsion
[ 7974 7965 7964 7962 ] final  -79.47 input  175.53 | X-H torsion
[ 8008 7997 7996 7995 ] final   53.26 input   59.86 | X-H torsion
[ 10167 10162 10161 10158 ] final   47.91 input  -65.29 | X-H torsion
[ 10718 10713 10712 10709 ] final  110.48 input   66.30 | X-H torsion
[ 10763 10752 10751 10750 ] final   95.34 input  -60.55 | X-H torsion
[ 11005 11000 10999 10996 ] final  -76.21 input  -57.11 | X-H torsion

> <Gold.Protein.ActiveResidues>
 VAL166  LYS551  ARG553  GLY616  TRP617  ASP618  TYR619  PRO620  LYS621  CYS622 
 ASP623  PHE694  ASN695  SER759  ASP760  ASP761  ALA762  ILE779  LEU786  VAL792 
 PHE793  MET794  SER795  GLU796  ALA797  LYS798  CYS799  TRP800  GLU811  SER814 

> <Gold.Protein.RotatedAtoms>
  151.7392  135.0858  160.0312 H   0  0  0  0  0  0  0  0  0  0  0  0  # atno 6907 bound_to 6896
  152.3490  133.6153  159.5940 H   0  0  0  0  0  0  0  0  0  0  0  0  # atno 6908 bound_to 6896
  150.7528  133.9519  159.3530 H   0  0  0  0  0  0  0  0  0  0  0  0  # atno 6909 bound_to 6896
  145.5728  140.9463  143.1386 H   0  0  0  0  0  0  0  0  0  0  0  0  # atno 7974 bound_to 7965
  155.4653  140.3463  155.4318 H   0  0  0  0  0  0  0  0  0  0  0  0  # atno 8008 bound_to 7997
  156.1135  140.1467  156.9335 H   0  0  0  0  0  0  0  0  0  0  0  0  # atno 8009 bound_to 7997
  154.4773  140.0881  156.7271 H   0  0  0  0  0  0  0  0  0  0  0  0  # atno 8010 bound_to 7997
  140.2987  144.2959  150.6224 H   0  0  0  0  0  0  0  0  0  0  0  0  # atno 10167 bound_to 10162
  157.6492  131.0933  150.6607 H   0  0  0  0  0  0  0  0  0  0  0  0  # atno 10718 bound_to 10713
  153.2521  135.4257  155.0808 H   0  0  0  0  0  0  0  0  0  0  0  0  # atno 10763 bound_to 10752
  154.8386  135.3428  154.6498 H   0  0  0  0  0  0  0  0  0  0  0  0  # atno 10764 bound_to 10752
  153.6919  135.7033  153.5144 H   0  0  0  0  0  0  0  0  0  0  0  0  # atno 10765 bound_to 10752
  141.1652  133.6975  156.7634 H   0  0  0  0  0  0  0  0  0  0  0  0  # atno 11005 bound_to 11000
  144.7430  139.7397  143.7303 LP  0  0  0  0  0  0  0  0  0  0  0  0  # atno 17320 bound_to 7965
  146.1772  139.4948  142.9890 LP  0  0  0  0  0  0  0  0  0  0  0  0  # atno 17321 bound_to 7965
  140.5669  143.2185  151.7667 LP  0  0  0  0  0  0  0  0  0  0  0  0  # atno 17342 bound_to 10162
  139.4920  144.4271  151.9914 LP  0  0  0  0  0  0  0  0  0  0  0  0  # atno 17343 bound_to 10162
  156.6920  130.4598  149.5597 LP  0  0  0  0  0  0  0  0  0  0  0  0  # atno 17370 bound_to 10713
  156.1855  130.6526  151.1001 LP  0  0  0  0  0  0  0  0  0  0  0  0  # atno 17371 bound_to 10713
  140.2517  134.8535  157.3674 LP  0  0  0  0  0  0  0  0  0  0  0  0  # atno 17394 bound_to 11000
  140.1696  134.4625  155.7840 LP  0  0  0  0  0  0  0  0  0  0  0  0  # atno 17395 bound_to 11000

$$$$
