AV-unprocessed.smi:648|AV-procd|sdf|3176|dock10
  -GOLD-   22720 0103D 1   1.00000     0.00000
 Structure written by MMmdl.
 45 46  0  0  0  0  0  0  0  0  1 V2000
  141.9590  135.5964  154.3231 C   0  0  0  0  0  0  0  0  0  0  0  0
  143.1023  135.5892  153.2977 C   0  0  2  0  0  0  0  0  0  0  0  0
  143.1700  134.2410  152.5555 C   0  0  0  0  0  0  0  0  0  0  0  0
  144.2893  134.1728  151.4901 C   0  0  0  0  0  0  0  0  0  0  0  0
  144.4640  132.6985  151.0633 C   0  0  0  0  0  0  0  0  0  0  0  0
  143.8806  134.9467  150.2152 C   0  0  0  0  0  0  0  0  0  0  0  0
  145.6443  134.6563  152.0932 C   0  0  0  0  0  0  0  0  0  0  0  0
  145.6431  135.9470  152.9731 C   0  0  2  0  0  0  0  0  0  0  0  0
  145.5707  137.2212  152.0872 C   0  0  0  0  0  0  0  0  0  0  0  0
  146.7748  137.4484  151.3782 O   0  0  0  0  0  0  0  0  0  0  0  0
  146.9352  136.0578  153.6882 N   0  0  0  0  0  0  0  0  0  0  0  0
  147.2813  137.2974  154.3980 C   0  0  0  0  0  0  0  0  0  0  0  0
  148.6064  137.1402  155.1598 C   0  0  0  0  0  0  0  0  0  0  0  0
  149.5661  138.1720  154.8131 N   0  0  0  0  0  0  0  0  0  0  0  0
  149.9628  138.6240  153.6223 C   0  0  0  0  0  0  0  0  0  0  0  0
  150.8646  139.5934  153.6910 N   0  0  0  0  0  0  0  0  0  0  0  0
  150.9871  139.6947  155.0483 C   0  0  0  0  0  0  0  0  0  0  0  0
  150.2315  138.8643  155.7671 N   0  0  0  0  0  0  0  0  0  0  0  0
  144.4546  135.8806  153.9734 C   0  0  0  0  0  0  0  0  0  0  0  0
  142.1022  134.8294  155.0849 H   0  0  0  0  0  0  0  0  0  0  0  0
  140.9985  135.4116  153.8412 H   0  0  0  0  0  0  0  0  0  0  0  0
  141.8921  136.5598  154.8290 H   0  0  0  0  0  0  0  0  0  0  0  0
  142.8837  136.3811  152.5828 H   0  0  0  0  0  0  0  0  0  0  0  0
  143.3270  133.4527  153.2937 H   0  0  0  0  0  0  0  0  0  0  0  0
  142.2065  134.0238  152.0920 H   0  0  0  0  0  0  0  0  0  0  0  0
  145.2449  132.5943  150.3089 H   0  0  0  0  0  0  0  0  0  0  0  0
  143.5442  132.2914  150.6417 H   0  0  0  0  0  0  0  0  0  0  0  0
  144.7379  132.0620  151.9057 H   0  0  0  0  0  0  0  0  0  0  0  0
  144.7230  135.0681  149.5337 H   0  0  0  0  0  0  0  0  0  0  0  0
  143.4662  135.9296  150.4185 H   0  0  0  0  0  0  0  0  0  0  0  0
  143.1012  134.4141  149.6689 H   0  0  0  0  0  0  0  0  0  0  0  0
  145.9971  133.8318  152.7090 H   0  0  0  0  0  0  0  0  0  0  0  0
  146.3900  134.7494  151.3023 H   0  0  0  0  0  0  0  0  0  0  0  0
  144.7537  137.1445  151.3683 H   0  0  0  0  0  0  0  0  0  0  0  0
  145.3881  138.1203  152.6629 H   0  0  0  0  0  0  0  0  0  0  0  0
  147.4721  136.9829  151.8141 H   0  0  0  0  0  0  0  0  0  0  0  0
  147.6851  135.8174  153.0473 H   0  0  0  0  0  0  0  0  0  0  0  0
  147.3819  138.1327  153.7067 H   0  0  0  0  0  0  0  0  0  0  0  0
  146.5080  137.5686  155.1140 H   0  0  0  0  0  0  0  0  0  0  0  0
  148.4248  137.1892  156.2343 H   0  0  0  0  0  0  0  0  0  0  0  0
  149.0502  136.1635  154.9615 H   0  0  0  0  0  0  0  0  0  0  0  0
  149.5813  138.2396  152.6876 H   0  0  0  0  0  0  0  0  0  0  0  0
  151.6537  140.4009  155.5209 H   0  0  0  0  0  0  0  0  0  0  0  0
  144.3923  136.8013  154.5545 H   0  0  0  0  0  0  0  0  0  0  0  0
  144.6154  135.0862  154.7006 H   0  0  0  0  0  0  0  0  0  0  0  0
  1  2  1  0  0  0  0
  1 20  1  0  0  0  0
  1 21  1  0  0  0  0
  1 22  1  0  0  0  0
  2 19  1  0  0  0  0
  2  3  1  0  0  0  0
  2 23  1  0  0  0  0
  3  4  1  0  0  0  0
  3 24  1  0  0  0  0
  3 25  1  0  0  0  0
  4  5  1  0  0  0  0
  4  6  1  0  0  0  0
  4  7  1  0  0  0  0
  5 26  1  0  0  0  0
  5 27  1  0  0  0  0
  5 28  1  0  0  0  0
  6 29  1  0  0  0  0
  6 30  1  0  0  0  0
  6 31  1  0  0  0  0
  7  8  1  0  0  0  0
  7 32  1  0  0  0  0
  7 33  1  0  0  0  0
  8  9  1  0  0  0  0
  8 11  1  0  0  0  0
  8 19  1  0  0  0  0
  9 10  1  0  0  0  0
  9 34  1  0  0  0  0
  9 35  1  0  0  0  0
 10 36  1  0  0  0  0
 11 12  1  0  0  0  0
 11 37  1  0  0  0  0
 12 13  1  0  0  0  0
 12 38  1  0  0  0  0
 12 39  1  0  0  0  0
 13 14  1  0  0  0  0
 13 40  1  0  0  0  0
 13 41  1  0  0  0  0
 14 18  1  0  0  0  0
 14 15  1  0  0  0  0
 15 16  2  0  0  0  0
 15 42  1  0  0  0  0
 16 17  1  0  0  0  0
 17 18  2  0  0  0  0
 17 43  1  0  0  0  0
 19 44  1  0  0  0  0
 19 45  1  0  0  0  0
M  END
> <s_m_source_file>
AV-unprocessed.smi

> <i_m_source_file_index>
648

> <i_lp_mmshare_version>
43012

> <i_f3d_flags>
0

> <s_epik_input>
W0NIM11DMShbQ0gzXSlbQ0gyXVtDQEBIXShbQ0gzXSlbQ0gyXVtDQF0oW0NIMl0xKShbQ0gyXVtPSF0pW05IXVtDSDJdW0NIMl1uMltjSF1uW2NIXW4y

> <s_epik_cmdline>
J2VwaWtfcHl0aG9uJywgJy1waCcsICc3LjAnLCAnLXRuJywgJzgnLCAnLW1hJywgJzIwMCcsICctbWV0YWxfYmluZGluZycsICctaW1hZScsICc8aW5maWxlLm1hZT4nLCAnLW9tYWUnLCAnPG91dGZpbGUubWFlPic=

> <r_lp_tautomer_probability>
1

> <r_epik_Ionization_Penalty>
2.45849

> <r_epik_Ionization_Penalty_Charging>
0

> <r_epik_Ionization_Penalty_Neutral>
2.45849

> <r_epik_State_Penalty>
2.62037

> <r_epik_Charging_Adjusted_Penalty>
2.62037

> <i_epik_Tot_Q>
0

> <i_epik_Tot_abs_Q>
0

> <r_epik_Metal_State_Penalty>
2.62024

> <b_epik_Metal_Only>
0

> <s_lp_Force_Field>
OPLS_2005

> <r_lp_Energy>
36.1132

> <b_lp_Chiralities_Consistent>
1

> <s_lp_Variant>
AV-unprocessed.smi:648-7

> <Gold.Version>
5.8.1

> <Gold.Id.Protein>
6NUR|6NUR_protein|mol2

> <Gold.PLP.Fitness>
42.6012

> <Gold.PLP.PLP>
-27.6710

> <Gold.PLP.part.hbond>
-3.3152

> <Gold.PLP.part.metal>
0.0000

> <Gold.PLP.part.buried>
-1.6016

> <Gold.PLP.part.nonpolar>
-22.8091

> <Gold.PLP.part.repulsive>
0.1380

> <Gold.PLP.ligand.clash>
0.0000

> <Gold.PLP.ligand.torsion>
0.6817

> <Gold.PLP.Chemscore.Hbond>
3.7430

> <Gold.PLP.Chemscore.CHOScore>
1.6838

> <Gold.PLP.Chemscore.Metal>
0.0000

> <Gold.Chemscore.Hbonds>
donor molecule, donor type, donor heavy atom, donor atom, acceptor molecule, acceptor atom, score
      L1  H    10    36       P1  7948  1.00
      L1  H    11    37       P1  7948  1.00
      P1  H  7954  7966       L1    10  0.27
      P1  H  7989  7998       L1    16  0.58
      L1  C    15    42       P1  7948  1.00
      L1  C    15    42       P1  7957  0.55

> <Gold.PLP.Chemscore.Internal.Correction>
0.0133

> <Gold.Rescore>
     Score         DG    S(hbond)    S(metal)    S(lipo)     H(rot)  DE(clash)    DE(int)     intcor
     11.92     -13.92       2.99        0.00      55.12       3.12       1.52       0.49       ----

> <Gold.Chemscore.Fitness>
11.9162

> <Gold.Chemscore.DG>
-13.9229

> <Gold.Chemscore.ZeroCoef>
-5.4800

> <Gold.Chemscore.Hbond>
2.9871

> <Gold.Chemscore.Metal>
0.0000

> <Gold.Chemscore.Lipo>
55.1188

> <Gold.Chemscore.Internal_Hbond>
0.0000

> <Gold.Chemscore.DEClash>
1.5209

> <Gold.Chemscore.DEInternal>
0.4857

> <Gold.Chemscore.Rot>
3.1183

> <Gold.Chemscore.Internal.Correction>
   9.000000E+99

> <Gold.Chemscore.Hbonds>
donor molecule, donor type, donor heavy atom, donor atom, acceptor molecule, acceptor atom, score
      L1  H    10    36       P1  7948  0.96
      L1  H    11    37       P1  7948  0.98
      P1  H  7989  7998       L1    16  0.05

> <Gold.Chemscore.Hbond.Weighted>
-9.9769

> <Gold.Chemscore.Metal.Weighted>
-0.0000

> <Gold.Chemscore.Lipo.Weighted>
-6.4489

> <Gold.Chemscore.Internal_Hbond.Weighted>
0.0000

> <Gold.Chemscore.DEClash.Weighted>
1.5209

> <Gold.Chemscore.DEInternal.Weighted>
0.4857

> <Gold.Chemscore.Rot.Weighted>
7.9829

> <Gold.Chemscore.Internal.Correction.Weighted>
   9.000000E+99

> <Gold.Protein.RotatedTorsions>
[ 6907 6896 6895 6894 ] final  -33.88 input  -60.11 | X-H torsion
[ 7974 7965 7964 7962 ] final  -80.15 input  175.53 | X-H torsion
[ 8008 7997 7996 7995 ] final -156.19 input   59.86 | X-H torsion
[ 10167 10162 10161 10158 ] final -166.79 input  -65.29 | X-H torsion
[ 10718 10713 10712 10709 ] final  -48.19 input   66.30 | X-H torsion
[ 10763 10752 10751 10750 ] final   74.59 input  -60.55 | X-H torsion
[ 11005 11000 10999 10996 ] final  172.77 input  -57.11 | X-H torsion

> <Gold.Protein.ActiveResidues>
 VAL166  LYS551  ARG553  GLY616  TRP617  ASP618  TYR619  PRO620  LYS621  CYS622 
 ASP623  PHE694  ASN695  SER759  ASP760  ASP761  ALA762  ILE779  LEU786  VAL792 
 PHE793  MET794  SER795  GLU796  ALA797  LYS798  CYS799  TRP800  GLU811  SER814 

> <Gold.Protein.RotatedAtoms>
  151.0599  134.9729  159.8254 H   0  0  0  0  0  0  0  0  0  0  0  0  # atno 6907 bound_to 6896
  152.5394  134.2431  159.8880 H   0  0  0  0  0  0  0  0  0  0  0  0  # atno 6908 bound_to 6896
  151.2451  133.4336  159.2642 H   0  0  0  0  0  0  0  0  0  0  0  0  # atno 6909 bound_to 6896
  145.5638  140.9477  143.1433 H   0  0  0  0  0  0  0  0  0  0  0  0  # atno 7974 bound_to 7965
  155.7135  140.0781  157.2361 H   0  0  0  0  0  0  0  0  0  0  0  0  # atno 8008 bound_to 7997
  154.4055  140.1626  156.2376 H   0  0  0  0  0  0  0  0  0  0  0  0  # atno 8009 bound_to 7997
  155.9261  140.3394  155.6215 H   0  0  0  0  0  0  0  0  0  0  0  0  # atno 8010 bound_to 7997
  139.6092  144.0850  152.1824 H   0  0  0  0  0  0  0  0  0  0  0  0  # atno 10167 bound_to 10162
  156.2012  130.4156  149.9239 H   0  0  0  0  0  0  0  0  0  0  0  0  # atno 10718 bound_to 10713
  153.0597  135.5020  154.8065 H   0  0  0  0  0  0  0  0  0  0  0  0  # atno 10763 bound_to 10752
  154.6863  135.2977  154.9545 H   0  0  0  0  0  0  0  0  0  0  0  0  # atno 10764 bound_to 10752
  154.0314  135.6729  153.4834 H   0  0  0  0  0  0  0  0  0  0  0  0  # atno 10765 bound_to 10752
  140.3333  134.7339  157.4150 H   0  0  0  0  0  0  0  0  0  0  0  0  # atno 11005 bound_to 11000
  144.7470  139.7293  143.7288 LP  0  0  0  0  0  0  0  0  0  0  0  0  # atno 17320 bound_to 7965
  146.1832  139.5035  142.9853 LP  0  0  0  0  0  0  0  0  0  0  0  0  # atno 17321 bound_to 7965
  140.0464  144.5967  150.7370 LP  0  0  0  0  0  0  0  0  0  0  0  0  # atno 17342 bound_to 10162
  140.7307  143.2686  151.3963 LP  0  0  0  0  0  0  0  0  0  0  0  0  # atno 17343 bound_to 10162
  156.6947  130.8910  151.3592 LP  0  0  0  0  0  0  0  0  0  0  0  0  # atno 17370 bound_to 10713
  157.6987  130.9309  150.0719 LP  0  0  0  0  0  0  0  0  0  0  0  0  # atno 17371 bound_to 10713
  140.0842  134.5689  155.8509 LP  0  0  0  0  0  0  0  0  0  0  0  0  # atno 17394 bound_to 11000
  141.2058  133.6650  156.6201 LP  0  0  0  0  0  0  0  0  0  0  0  0  # atno 17395 bound_to 11000

$$$$
