AV-unprocessed.smi:2510|AV-procd|sdf|9879|dock1
  -GOLD-   2272013513D 1   1.00000     0.00000
 Structure written by MMmdl.
 48 49  0  0  0  0  0  0  0  0  1 V2000
  147.6190  138.8820  153.4328 C   0  0  0  0  0  0  0  0  0  0  0  0
  147.8162  139.4056  154.8624 C   0  0  0  0  0  0  0  0  0  0  0  0
  148.5705  140.7483  154.9848 C   0  0  0  0  0  0  0  0  0  0  0  0
  147.9106  141.7620  153.9971 C   0  0  0  0  0  0  0  0  0  0  0  0
  146.4125  142.0427  154.2073 C   0  0  0  0  0  0  0  0  0  0  0  0
  148.7543  141.2300  156.4542 C   0  0  2  0  0  0  0  0  0  0  0  0
  147.8251  142.2671  156.8851 N   0  0  0  0  0  0  0  0  0  0  0  0
  146.8993  142.1080  157.8426 C   0  0  0  0  0  0  0  0  0  0  0  0
  146.8241  141.1081  158.5561 O   0  0  0  0  0  0  0  0  0  0  0  0
  145.8804  143.2374  157.9925 C   0  0  0  0  0  0  0  0  0  0  0  0
  145.1550  143.1118  159.2951 C   0  0  0  0  0  0  0  0  0  0  0  0
  145.1138  143.9320  160.3882 C   0  0  0  0  0  0  0  0  0  0  0  0
  144.2817  143.2413  161.3169 C   0  0  0  0  0  0  0  0  0  0  0  0
  143.8937  143.6622  162.7034 C   0  0  0  0  0  0  0  0  0  0  0  0
  143.8342  142.0906  160.8364 N   0  0  0  0  0  0  0  0  0  0  0  0
  144.3695  142.0241  159.6035 N   0  0  0  0  0  0  0  0  0  0  0  0
  150.1304  141.7804  156.0641 C   0  0  1  0  0  0  0  0  0  0  0  0
  151.2395  141.8548  157.1056 C   0  0  0  0  0  0  0  0  0  0  0  0
  150.1271  140.6806  154.9842 C   0  0  1  0  0  0  0  0  0  0  0  0
  150.6020  139.4300  155.4748 O   0  0  0  0  0  0  0  0  0  0  0  0
  152.0162  139.3421  155.5074 C   0  0  0  0  0  0  0  0  0  0  0  0
  144.1974  141.2370  158.9942 H   0  0  0  0  0  0  0  0  0  0  0  0
  147.2454  137.8580  153.4510 H   0  0  0  0  0  0  0  0  0  0  0  0
  148.5541  138.8812  152.8722 H   0  0  0  0  0  0  0  0  0  0  0  0
  146.8883  139.4759  152.8856 H   0  0  0  0  0  0  0  0  0  0  0  0
  146.8447  139.4689  155.3538 H   0  0  0  0  0  0  0  0  0  0  0  0
  148.3512  138.6356  155.4194 H   0  0  0  0  0  0  0  0  0  0  0  0
  148.4447  142.7127  154.0179 H   0  0  0  0  0  0  0  0  0  0  0  0
  148.0049  141.4261  152.9651 H   0  0  0  0  0  0  0  0  0  0  0  0
  146.0928  142.8764  153.5816 H   0  0  0  0  0  0  0  0  0  0  0  0
  146.1702  142.2952  155.2373 H   0  0  0  0  0  0  0  0  0  0  0  0
  145.8043  141.1844  153.9227 H   0  0  0  0  0  0  0  0  0  0  0  0
  148.8427  140.4055  157.1664 H   0  0  0  0  0  0  0  0  0  0  0  0
  147.8199  143.1261  156.3546 H   0  0  0  0  0  0  0  0  0  0  0  0
  146.3899  144.2005  157.9424 H   0  0  0  0  0  0  0  0  0  0  0  0
  145.1805  143.2063  157.1564 H   0  0  0  0  0  0  0  0  0  0  0  0
  145.6173  144.8795  160.5116 H   0  0  0  0  0  0  0  0  0  0  0  0
  144.2121  144.6848  162.9077 H   0  0  0  0  0  0  0  0  0  0  0  0
  144.3541  143.0158  163.4510 H   0  0  0  0  0  0  0  0  0  0  0  0
  142.8128  143.6182  162.8421 H   0  0  0  0  0  0  0  0  0  0  0  0
  150.0193  142.7497  155.5729 H   0  0  0  0  0  0  0  0  0  0  0  0
  151.3659  140.9055  157.6267 H   0  0  0  0  0  0  0  0  0  0  0  0
  151.0201  142.6131  157.8572 H   0  0  0  0  0  0  0  0  0  0  0  0
  152.1941  142.1130  156.6475 H   0  0  0  0  0  0  0  0  0  0  0  0
  150.5963  140.9701  154.0443 H   0  0  0  0  0  0  0  0  0  0  0  0
  152.3128  138.3820  155.9291 H   0  0  0  0  0  0  0  0  0  0  0  0
  152.4554  140.1295  156.1200 H   0  0  0  0  0  0  0  0  0  0  0  0
  152.4335  139.4098  154.5019 H   0  0  0  0  0  0  0  0  0  0  0  0
  1  2  1  0  0  0  0
  1 23  1  0  0  0  0
  1 24  1  0  0  0  0
  1 25  1  0  0  0  0
  2  3  1  0  0  0  0
  2 26  1  0  0  0  0
  2 27  1  0  0  0  0
  3 19  1  0  0  0  0
  3  4  1  0  0  0  0
  3  6  1  0  0  0  0
  4  5  1  0  0  0  0
  4 28  1  0  0  0  0
  4 29  1  0  0  0  0
  5 30  1  0  0  0  0
  5 31  1  0  0  0  0
  5 32  1  0  0  0  0
  6  7  1  0  0  0  0
  6 17  1  0  0  0  0
  6 33  1  0  0  0  0
  7  8  1  0  0  0  0
  7 34  1  0  0  0  0
  8  9  2  0  0  0  0
  8 10  1  0  0  0  0
 10 35  1  0  0  0  0
 10 36  1  0  0  0  0
 10 11  1  0  0  0  0
 11 16  1  0  0  0  0
 11 12  2  0  0  0  0
 12 13  1  0  0  0  0
 12 37  1  0  0  0  0
 13 14  1  0  0  0  0
 13 15  2  0  0  0  0
 14 38  1  0  0  0  0
 14 39  1  0  0  0  0
 14 40  1  0  0  0  0
 15 16  1  0  0  0  0
 16 22  1  0  0  0  0
 17 18  1  0  0  0  0
 17 19  1  0  0  0  0
 17 41  1  0  0  0  0
 18 42  1  0  0  0  0
 18 43  1  0  0  0  0
 18 44  1  0  0  0  0
 19 20  1  0  0  0  0
 19 45  1  0  0  0  0
 20 21  1  0  0  0  0
 21 46  1  0  0  0  0
 21 47  1  0  0  0  0
 21 48  1  0  0  0  0
M  END
> <s_m_source_file>
AV-unprocessed.smi

> <i_m_source_file_index>
2510

> <i_lp_mmshare_version>
43012

> <i_f3d_flags>
0

> <s_epik_input>
W0NIM11PW0NAQEhdMVtDQEhdKFtDSDNdKVtDQEBIXShDMShbQ0gyXVtDSDNdKVtDSDJdW0NIM10pW05IXUMoPU8pW0NIMl1jMltjSF1jKFtDSDNdKVtuSF1uMg==

> <s_epik_cmdline>
J2VwaWtfcHl0aG9uJywgJy1waCcsICc3LjAnLCAnLXRuJywgJzgnLCAnLW1hJywgJzIwMCcsICctbWV0YWxfYmluZGluZycsICctaW1hZScsICc8aW5maWxlLm1hZT4nLCAnLW9tYWUnLCAnPG91dGZpbGUubWFlPic=

> <r_lp_tautomer_probability>
0.5

> <r_epik_Ionization_Penalty>
0.000134763

> <r_epik_Ionization_Penalty_Charging>
0

> <r_epik_Ionization_Penalty_Neutral>
0.000134763

> <r_epik_State_Penalty>
0.41068

> <r_epik_Charging_Adjusted_Penalty>
0.41068

> <i_epik_Tot_Q>
0

> <i_epik_Tot_abs_Q>
0

> <r_epik_Metal_State_Penalty>
0.410661

> <b_epik_Metal_Only>
0

> <s_lp_Force_Field>
OPLS_2005

> <r_lp_Energy>
26.7648

> <b_lp_Chiralities_Consistent>
1

> <s_lp_Variant>
AV-unprocessed.smi:2510-10

> <Gold.Version>
5.8.1

> <Gold.Id.Protein>
6NUR|6NUR_protein|mol2

> <Gold.PLP.Fitness>
37.5136

> <Gold.PLP.PLP>
-34.6555

> <Gold.PLP.part.hbond>
-2.0000

> <Gold.PLP.part.metal>
0.0000

> <Gold.PLP.part.buried>
-3.6248

> <Gold.PLP.part.nonpolar>
-28.7966

> <Gold.PLP.part.repulsive>
0.1250

> <Gold.PLP.ligand.clash>
0.0000

> <Gold.PLP.ligand.torsion>
0.7323

> <Gold.PLP.Chemscore.Hbond>
1.1767

> <Gold.PLP.Chemscore.CHOScore>
0.0000

> <Gold.PLP.Chemscore.Metal>
0.0000

> <Gold.Chemscore.Hbonds>
donor molecule, donor type, donor heavy atom, donor atom, acceptor molecule, acceptor atom, score
      L1  H     7    34       P1  8028  0.83
      P1  H  6934  6946       L1     9  0.24

> <Gold.PLP.Chemscore.Internal.Correction>
0.7925

> <Gold.Rescore>
     Score         DG    S(hbond)    S(metal)    S(lipo)     H(rot)  DE(clash)    DE(int)     intcor
     11.74     -12.62       0.56        0.00      84.62       1.81       0.18       0.70       ----

> <Gold.Chemscore.Fitness>
11.7412

> <Gold.Chemscore.DG>
-12.6209

> <Gold.Chemscore.ZeroCoef>
-5.4800

> <Gold.Chemscore.Hbond>
0.5611

> <Gold.Chemscore.Metal>
0.0000

> <Gold.Chemscore.Lipo>
84.6230

> <Gold.Chemscore.Internal_Hbond>
0.0000

> <Gold.Chemscore.DEClash>
0.1753

> <Gold.Chemscore.DEInternal>
0.7044

> <Gold.Chemscore.Rot>
1.8102

> <Gold.Chemscore.Internal.Correction>
   9.000000E+99

> <Gold.Chemscore.Hbonds>
donor molecule, donor type, donor heavy atom, donor atom, acceptor molecule, acceptor atom, score
      L1  H     7    34       P1  8028  0.13
      P1  H  6934  6946       L1     9  0.25

> <Gold.Chemscore.Hbond.Weighted>
-1.8741

> <Gold.Chemscore.Metal.Weighted>
-0.0000

> <Gold.Chemscore.Lipo.Weighted>
-9.9009

> <Gold.Chemscore.Internal_Hbond.Weighted>
0.0000

> <Gold.Chemscore.DEClash.Weighted>
0.1753

> <Gold.Chemscore.DEInternal.Weighted>
0.7044

> <Gold.Chemscore.Rot.Weighted>
4.6341

> <Gold.Chemscore.Internal.Correction.Weighted>
   9.000000E+99

> <Gold.Protein.RotatedTorsions>
[ 6907 6896 6895 6894 ] final -122.07 input  -60.11 | X-H torsion
[ 7974 7965 7964 7962 ] final    4.99 input  175.53 | X-H torsion
[ 8008 7997 7996 7995 ] final -102.89 input   59.86 | X-H torsion
[ 10167 10162 10161 10158 ] final  130.66 input  -65.29 | X-H torsion
[ 10718 10713 10712 10709 ] final -136.30 input   66.30 | X-H torsion
[ 10763 10752 10751 10750 ] final  176.50 input  -60.55 | X-H torsion
[ 11005 11000 10999 10996 ] final -103.61 input  -57.11 | X-H torsion

> <Gold.Protein.ActiveResidues>
 VAL166  LYS551  ARG553  GLY616  TRP617  ASP618  TYR619  PRO620  LYS621  CYS622 
 ASP623  PHE694  ASN695  SER759  ASP760  ASP761  ALA762  ILE779  LEU786  VAL792 
 PHE793  MET794  SER795  GLU796  ALA797  LYS798  CYS799  TRP800  GLU811  SER814 

> <Gold.Protein.RotatedAtoms>
  150.8542  133.7741  159.3014 H   0  0  0  0  0  0  0  0  0  0  0  0  # atno 6907 bound_to 6896
  151.5403  135.1067  159.9934 H   0  0  0  0  0  0  0  0  0  0  0  0  # atno 6908 bound_to 6896
  152.4576  133.7712  159.6856 H   0  0  0  0  0  0  0  0  0  0  0  0  # atno 6909 bound_to 6896
  146.2442  140.0451  142.8379 H   0  0  0  0  0  0  0  0  0  0  0  0  # atno 7974 bound_to 7965
  154.8631  140.0426  157.1677 H   0  0  0  0  0  0  0  0  0  0  0  0  # atno 8008 bound_to 7997
  154.8819  140.2974  155.5399 H   0  0  0  0  0  0  0  0  0  0  0  0  # atno 8009 bound_to 7997
  156.2998  140.2409  156.3823 H   0  0  0  0  0  0  0  0  0  0  0  0  # atno 8010 bound_to 7997
  139.5419  144.6739  151.4596 H   0  0  0  0  0  0  0  0  0  0  0  0  # atno 10167 bound_to 10162
  156.2756  130.7291  151.1272 H   0  0  0  0  0  0  0  0  0  0  0  0  # atno 10718 bound_to 10713
  154.4820  135.2775  155.1563 H   0  0  0  0  0  0  0  0  0  0  0  0  # atno 10763 bound_to 10752
  154.3270  135.6198  153.5537 H   0  0  0  0  0  0  0  0  0  0  0  0  # atno 10764 bound_to 10752
  152.9876  135.5756  154.5223 H   0  0  0  0  0  0  0  0  0  0  0  0  # atno 10765 bound_to 10752
  141.1138  133.8654  157.1507 H   0  0  0  0  0  0  0  0  0  0  0  0  # atno 11005 bound_to 11000
  145.1034  140.9360  143.4699 LP  0  0  0  0  0  0  0  0  0  0  0  0  # atno 17320 bound_to 7965
  145.0649  139.3076  143.5861 LP  0  0  0  0  0  0  0  0  0  0  0  0  # atno 17321 bound_to 7965
  140.6653  143.8412  150.6934 LP  0  0  0  0  0  0  0  0  0  0  0  0  # atno 17342 bound_to 10162
  140.1819  143.4108  152.1927 LP  0  0  0  0  0  0  0  0  0  0  0  0  # atno 17343 bound_to 10162
  157.7298  131.0621  150.5757 LP  0  0  0  0  0  0  0  0  0  0  0  0  # atno 17370 bound_to 10713
  156.5857  130.4316  149.5958 LP  0  0  0  0  0  0  0  0  0  0  0  0  # atno 17371 bound_to 10713
  140.0048  135.0013  157.0268 LP  0  0  0  0  0  0  0  0  0  0  0  0  # atno 17394 bound_to 11000
  140.4702  134.1394  155.7202 LP  0  0  0  0  0  0  0  0  0  0  0  0  # atno 17395 bound_to 11000

$$$$
