AV-unprocessed.smi:3250|AV-procd|sdf|12429|dock6
  -GOLD-   2272018313D 1   1.00000     0.00000
 Structure written by MMmdl.
 38 39  0  0  0  0  0  0  0  0  1 V2000
  146.3757  142.6521  154.1490 C   0  0  0  0  0  0  0  0  0  0  0  0
  146.9770  141.4294  153.4418 C   0  0  0  0  0  0  0  0  0  0  0  0
  147.9381  140.6675  154.2372 N   0  0  0  0  0  0  0  0  0  0  0  0
  148.6430  139.6590  153.4498 C   0  0  0  0  0  0  0  0  0  0  0  0
  149.6755  138.8928  154.2937 C   0  0  0  0  0  0  0  0  0  0  0  0
  150.5858  139.8145  154.8836 O   0  0  0  0  0  0  0  0  0  0  0  0
  149.9419  140.7782  155.7137 C   0  0  1  0  0  0  0  0  0  0  0  0
  151.0132  141.7100  156.2952 C   0  0  0  0  0  0  0  0  0  0  0  0
  151.8870  141.0096  157.2243 N   0  0  0  0  0  0  0  0  0  0  0  0
  152.2562  141.5032  158.4610 C   0  0  0  0  0  0  0  0  0  0  0  0
  152.9513  140.6641  159.2322 N   0  0  0  0  0  0  0  0  0  0  0  0
  153.3325  141.1197  160.4453 C   0  0  0  0  0  0  0  0  0  0  0  0
  153.0140  142.4202  160.8845 C   0  0  0  0  0  0  0  0  0  0  0  0
  152.2733  143.2211  159.9921 C   0  0  0  0  0  0  0  0  0  0  0  0
  151.9239  144.5035  160.3613 O   0  0  0  0  0  0  0  0  0  0  0  0
  151.2919  145.3314  159.3913 C   0  0  0  0  0  0  0  0  0  0  0  0
  151.8968  142.7531  158.7757 N   0  0  0  0  0  0  0  0  0  0  0  0
  148.9180  141.5518  154.8593 C   0  0  0  0  0  0  0  0  0  0  0  0
  145.7499  143.2214  153.4617 H   0  0  0  0  0  0  0  0  0  0  0  0
  147.1573  143.3191  154.5142 H   0  0  0  0  0  0  0  0  0  0  0  0
  145.7500  142.3678  154.9945 H   0  0  0  0  0  0  0  0  0  0  0  0
  146.1738  140.7740  153.1019 H   0  0  0  0  0  0  0  0  0  0  0  0
  147.4739  141.7869  152.5390 H   0  0  0  0  0  0  0  0  0  0  0  0
  147.9367  138.9434  153.0306 H   0  0  0  0  0  0  0  0  0  0  0  0
  149.1474  140.1331  152.6064 H   0  0  0  0  0  0  0  0  0  0  0  0
  149.1823  138.3085  155.0720 H   0  0  0  0  0  0  0  0  0  0  0  0
  150.2311  138.1926  153.6699 H   0  0  0  0  0  0  0  0  0  0  0  0
  149.4218  140.2696  156.5280 H   0  0  0  0  0  0  0  0  0  0  0  0
  151.6079  142.1507  155.4942 H   0  0  0  0  0  0  0  0  0  0  0  0
  150.5330  142.5315  156.8284 H   0  0  0  0  0  0  0  0  0  0  0  0
  152.3284  140.1560  156.9145 H   0  0  0  0  0  0  0  0  0  0  0  0
  153.8957  140.4423  161.0699 H   0  0  0  0  0  0  0  0  0  0  0  0
  153.3205  142.7832  161.8544 H   0  0  0  0  0  0  0  0  0  0  0  0
  151.0741  146.3035  159.8330 H   0  0  0  0  0  0  0  0  0  0  0  0
  150.3471  144.9016  159.0554 H   0  0  0  0  0  0  0  0  0  0  0  0
  151.9366  145.4972  158.5271 H   0  0  0  0  0  0  0  0  0  0  0  0
  149.4434  142.1193  154.0892 H   0  0  0  0  0  0  0  0  0  0  0  0
  148.4061  142.2818  155.4875 H   0  0  0  0  0  0  0  0  0  0  0  0
  1  2  1  0  0  0  0
  1 19  1  0  0  0  0
  1 20  1  0  0  0  0
  1 21  1  0  0  0  0
  2  3  1  0  0  0  0
  2 22  1  0  0  0  0
  2 23  1  0  0  0  0
  3 18  1  0  0  0  0
  3  4  1  0  0  0  0
  4  5  1  0  0  0  0
  4 24  1  0  0  0  0
  4 25  1  0  0  0  0
  5  6  1  0  0  0  0
  5 26  1  0  0  0  0
  5 27  1  0  0  0  0
  6  7  1  0  0  0  0
  7  8  1  0  0  0  0
  7 18  1  0  0  0  0
  7 28  1  0  0  0  0
  8  9  1  0  0  0  0
  8 29  1  0  0  0  0
  8 30  1  0  0  0  0
  9 10  1  0  0  0  0
  9 31  1  0  0  0  0
 10 17  1  0  0  0  0
 10 11  2  0  0  0  0
 11 12  1  0  0  0  0
 12 13  2  0  0  0  0
 12 32  1  0  0  0  0
 13 14  1  0  0  0  0
 13 33  1  0  0  0  0
 14 15  1  0  0  0  0
 14 17  2  0  0  0  0
 15 16  1  0  0  0  0
 16 34  1  0  0  0  0
 16 35  1  0  0  0  0
 16 36  1  0  0  0  0
 18 37  1  0  0  0  0
 18 38  1  0  0  0  0
M  END
> <s_m_source_file>
AV-unprocessed.smi

> <i_m_source_file_index>
3250

> <i_lp_mmshare_version>
43012

> <i_f3d_flags>
0

> <s_epik_input>
W0NIM11bQ0gyXU4xW0NIMl1bQ0gyXU9bQ0BIXShbQ0gyXTEpW0NIMl1bTkhdYzJuW2NIXVtjSF1jKG4yKU9bQ0gzXQ==

> <s_epik_cmdline>
J2VwaWtfcHl0aG9uJywgJy1waCcsICc3LjAnLCAnLXRuJywgJzgnLCAnLW1hJywgJzIwMCcsICctbWV0YWxfYmluZGluZycsICctaW1hZScsICc8aW5maWxlLm1hZT4nLCAnLW9tYWUnLCAnPG91dGZpbGUubWFlPic=

> <r_lp_tautomer_probability>
1

> <r_epik_Ionization_Penalty>
0.832605

> <r_epik_Ionization_Penalty_Charging>
0

> <r_epik_Ionization_Penalty_Neutral>
0.832605

> <r_epik_State_Penalty>
0.927194

> <r_epik_Charging_Adjusted_Penalty>
0.927194

> <i_epik_Tot_Q>
0

> <i_epik_Tot_abs_Q>
0

> <r_epik_Metal_State_Penalty>
0.908632

> <b_epik_Metal_Only>
0

> <s_lp_Force_Field>
OPLS_2005

> <r_lp_Energy>
15.3419

> <b_lp_Chiralities_Consistent>
1

> <s_lp_Variant>
AV-unprocessed.smi:3250-5

> <Gold.Version>
5.8.1

> <Gold.Id.Protein>
6NUR|6NUR_protein|mol2

> <Gold.PLP.Fitness>
38.3139

> <Gold.PLP.PLP>
-35.7343

> <Gold.PLP.part.hbond>
-1.0000

> <Gold.PLP.part.metal>
0.0000

> <Gold.PLP.part.buried>
-2.0305

> <Gold.PLP.part.nonpolar>
-33.1286

> <Gold.PLP.part.repulsive>
0.3976

> <Gold.PLP.ligand.clash>
0.0000

> <Gold.PLP.ligand.torsion>
0.2177

> <Gold.PLP.Chemscore.Hbond>
1.0000

> <Gold.PLP.Chemscore.CHOScore>
0.0000

> <Gold.PLP.Chemscore.Metal>
0.0000

> <Gold.Chemscore.Hbonds>
donor molecule, donor type, donor heavy atom, donor atom, acceptor molecule, acceptor atom, score
      P1  H  7989  7998       L1     6  0.99

> <Gold.PLP.Chemscore.Internal.Correction>
0.0151

> <Gold.Rescore>
     Score         DG    S(hbond)    S(metal)    S(lipo)     H(rot)  DE(clash)    DE(int)     intcor
     11.30     -13.31       0.71        0.00      83.13       1.67       1.86       0.15       ----

> <Gold.Chemscore.Fitness>
11.2970

> <Gold.Chemscore.DG>
-13.3114

> <Gold.Chemscore.ZeroCoef>
-5.4800

> <Gold.Chemscore.Hbond>
0.7093

> <Gold.Chemscore.Metal>
0.0000

> <Gold.Chemscore.Lipo>
83.1331

> <Gold.Chemscore.Internal_Hbond>
0.0000

> <Gold.Chemscore.DEClash>
1.8596

> <Gold.Chemscore.DEInternal>
0.1548

> <Gold.Chemscore.Rot>
1.6657

> <Gold.Chemscore.Internal.Correction>
   9.000000E+99

> <Gold.Chemscore.Hbonds>
donor molecule, donor type, donor heavy atom, donor atom, acceptor molecule, acceptor atom, score
      P1  H  7989  7998       L1     6  0.42

> <Gold.Chemscore.Hbond.Weighted>
-2.3691

> <Gold.Chemscore.Metal.Weighted>
-0.0000

> <Gold.Chemscore.Lipo.Weighted>
-9.7266

> <Gold.Chemscore.Internal_Hbond.Weighted>
0.0000

> <Gold.Chemscore.DEClash.Weighted>
1.8596

> <Gold.Chemscore.DEInternal.Weighted>
0.1548

> <Gold.Chemscore.Rot.Weighted>
4.2642

> <Gold.Chemscore.Internal.Correction.Weighted>
   9.000000E+99

> <Gold.Protein.RotatedTorsions>
[ 6907 6896 6895 6894 ] final   82.50 input  -60.11 | X-H torsion
[ 7974 7965 7964 7962 ] final  -77.74 input  175.53 | X-H torsion
[ 8008 7997 7996 7995 ] final  177.87 input   59.86 | X-H torsion
[ 10167 10162 10161 10158 ] final  -40.19 input  -65.29 | X-H torsion
[ 10718 10713 10712 10709 ] final -171.86 input   66.30 | X-H torsion
[ 10763 10752 10751 10750 ] final   86.34 input  -60.55 | X-H torsion
[ 11005 11000 10999 10996 ] final   23.76 input  -57.11 | X-H torsion

> <Gold.Protein.ActiveResidues>
 VAL166  LYS551  ARG553  GLY616  TRP617  ASP618  TYR619  PRO620  LYS621  CYS622 
 ASP623  PHE694  ASN695  SER759  ASP760  ASP761  ALA762  ILE779  LEU786  VAL792 
 PHE793  MET794  SER795  GLU796  ALA797  LYS798  CYS799  TRP800  GLU811  SER814 

> <Gold.Protein.RotatedAtoms>
  152.5301  134.3040  159.9088 H   0  0  0  0  0  0  0  0  0  0  0  0  # atno 6907 bound_to 6896
  151.2991  133.4124  159.2646 H   0  0  0  0  0  0  0  0  0  0  0  0  # atno 6908 bound_to 6896
  151.0135  134.9431  159.8077 H   0  0  0  0  0  0  0  0  0  0  0  0  # atno 6909 bound_to 6896
  145.5956  140.9420  143.1268 H   0  0  0  0  0  0  0  0  0  0  0  0  # atno 7974 bound_to 7965
  156.0609  140.1347  156.9942 H   0  0  0  0  0  0  0  0  0  0  0  0  # atno 8008 bound_to 7997
  154.4481  140.0991  156.6587 H   0  0  0  0  0  0  0  0  0  0  0  0  # atno 8009 bound_to 7997
  155.5378  140.3460  155.4442 H   0  0  0  0  0  0  0  0  0  0  0  0  # atno 8010 bound_to 7997
  140.7042  143.3168  151.2889 H   0  0  0  0  0  0  0  0  0  0  0  0  # atno 10167 bound_to 10162
  156.7471  130.9364  151.3113 H   0  0  0  0  0  0  0  0  0  0  0  0  # atno 10718 bound_to 10713
  153.1561  135.4584  154.9706 H   0  0  0  0  0  0  0  0  0  0  0  0  # atno 10763 bound_to 10752
  154.7862  135.3205  154.7883 H   0  0  0  0  0  0  0  0  0  0  0  0  # atno 10764 bound_to 10752
  153.8380  135.6932  153.4861 H   0  0  0  0  0  0  0  0  0  0  0  0  # atno 10765 bound_to 10752
  140.3661  134.2073  155.7669 H   0  0  0  0  0  0  0  0  0  0  0  0  # atno 11005 bound_to 11000
  144.7332  139.7663  143.7339 LP  0  0  0  0  0  0  0  0  0  0  0  0  # atno 17320 bound_to 7965
  146.1614  139.4730  142.9986 LP  0  0  0  0  0  0  0  0  0  0  0  0  # atno 17321 bound_to 7965
  139.6610  144.0190  152.2692 LP  0  0  0  0  0  0  0  0  0  0  0  0  # atno 17342 bound_to 10162
  139.9757  144.6463  150.7947 LP  0  0  0  0  0  0  0  0  0  0  0  0  # atno 17343 bound_to 10162
  157.6793  130.9125  150.0228 LP  0  0  0  0  0  0  0  0  0  0  0  0  # atno 17370 bound_to 10713
  156.1426  130.3642  149.9559 LP  0  0  0  0  0  0  0  0  0  0  0  0  # atno 17371 bound_to 10713
  141.1969  133.8071  157.0651 LP  0  0  0  0  0  0  0  0  0  0  0  0  # atno 17394 bound_to 11000
  140.0588  134.9766  157.1268 LP  0  0  0  0  0  0  0  0  0  0  0  0  # atno 17395 bound_to 11000

$$$$
