AV-unprocessed.smi:2156|AV-procd|sdf|8780|dock2
  -GOLD-   2272011563D 1   1.00000     0.00000
 Structure written by MMmdl.
 34 34  0  0  0  0  0  0  0  0  1 V2000
  153.4829  142.5707  162.7630 C   0  0  0  0  0  0  0  0  0  0  0  0
  152.5789  143.3474  161.7998 C   0  0  0  0  0  0  0  0  0  0  0  0
  152.5704  142.7447  160.3841 C   0  0  0  0  0  0  0  0  0  0  0  0
  151.6712  143.4993  159.3842 C   0  0  1  0  0  0  0  0  0  0  0  0
  152.3135  144.8177  158.9318 C   0  0  0  0  0  0  0  0  0  0  0  0
  151.3955  142.6759  158.2079 N   0  0  0  0  0  0  0  0  0  0  0  0
  150.2086  142.1424  157.8778 C   0  0  0  0  0  0  0  0  0  0  0  0
  149.1932  142.2731  158.5626 O   0  0  0  0  0  0  0  0  0  0  0  0
  150.1820  141.3104  156.5879 C   0  0  0  0  0  0  0  0  0  0  0  0
  151.0656  140.1368  156.6436 N   0  0  0  0  0  0  0  0  0  0  0  0
  151.5732  139.6992  157.8588 C   0  0  0  0  0  0  0  0  0  0  0  0
  152.3797  138.6187  157.9844 C   0  0  0  0  0  0  0  0  0  0  0  0
  152.7620  137.8419  156.8100 C   0  0  0  0  0  0  0  0  0  0  0  0
  153.4880  136.8503  156.8210 O   0  0  0  0  0  0  0  0  0  0  0  0
  152.2292  138.3122  155.6067 N   0  0  0  0  0  0  0  0  0  0  0  0
  151.3961  139.4238  155.4706 C   0  0  0  0  0  0  0  0  0  0  0  0
  150.9767  139.7500  154.3606 O   0  0  0  0  0  0  0  0  0  0  0  0
  152.4638  137.8044  154.7663 H   0  0  0  0  0  0  0  0  0  0  0  0
  153.4673  143.0190  163.7565 H   0  0  0  0  0  0  0  0  0  0  0  0
  154.5167  142.5661  162.4164 H   0  0  0  0  0  0  0  0  0  0  0  0
  153.1564  141.5350  162.8600 H   0  0  0  0  0  0  0  0  0  0  0  0
  151.5672  143.3658  162.2053 H   0  0  0  0  0  0  0  0  0  0  0  0
  152.9115  144.3851  161.7533 H   0  0  0  0  0  0  0  0  0  0  0  0
  153.5921  142.7399  160.0021 H   0  0  0  0  0  0  0  0  0  0  0  0
  152.2633  141.6992  160.4366 H   0  0  0  0  0  0  0  0  0  0  0  0
  150.7385  143.7537  159.8911 H   0  0  0  0  0  0  0  0  0  0  0  0
  152.5037  145.4734  159.7819 H   0  0  0  0  0  0  0  0  0  0  0  0
  151.6619  145.3557  158.2426 H   0  0  0  0  0  0  0  0  0  0  0  0
  153.2639  144.6448  158.4258 H   0  0  0  0  0  0  0  0  0  0  0  0
  152.1733  142.5043  157.5873 H   0  0  0  0  0  0  0  0  0  0  0  0
  149.1583  141.0003  156.3677 H   0  0  0  0  0  0  0  0  0  0  0  0
  150.4693  141.9605  155.7601 H   0  0  0  0  0  0  0  0  0  0  0  0
  151.3119  140.2413  158.7566 H   0  0  0  0  0  0  0  0  0  0  0  0
  152.7423  138.3265  158.9593 H   0  0  0  0  0  0  0  0  0  0  0  0
  1  2  1  0  0  0  0
  1 19  1  0  0  0  0
  1 20  1  0  0  0  0
  1 21  1  0  0  0  0
  2  3  1  0  0  0  0
  2 22  1  0  0  0  0
  2 23  1  0  0  0  0
  3  4  1  0  0  0  0
  3 24  1  0  0  0  0
  3 25  1  0  0  0  0
  4  5  1  0  0  0  0
  4  6  1  0  0  0  0
  4 26  1  0  0  0  0
  5 27  1  0  0  0  0
  5 28  1  0  0  0  0
  5 29  1  0  0  0  0
  6  7  1  0  0  0  0
  6 30  1  0  0  0  0
  7  8  2  0  0  0  0
  7  9  1  0  0  0  0
  9 10  1  0  0  0  0
  9 31  1  0  0  0  0
  9 32  1  0  0  0  0
 10 16  1  0  0  0  0
 10 11  1  0  0  0  0
 11 12  2  0  0  0  0
 11 33  1  0  0  0  0
 12 13  1  0  0  0  0
 12 34  1  0  0  0  0
 13 14  2  0  0  0  0
 13 15  1  0  0  0  0
 15 18  1  0  0  0  0
 15 16  1  0  0  0  0
 16 17  2  0  0  0  0
M  END
> <s_m_source_file>
AV-unprocessed.smi

> <i_m_source_file_index>
2156

> <i_lp_mmshare_version>
43012

> <i_f3d_flags>
0

> <s_epik_input>
W0NIM11bQ0gyXVtDSDJdW0NASF0oW0NIM10pW05IXUMoPU8pW0NIMl1uMVtjSF1bY0hdYyg9TylbbkhdYzE9Tw==

> <s_epik_cmdline>
J2VwaWtfcHl0aG9uJywgJy1waCcsICc3LjAnLCAnLXRuJywgJzgnLCAnLW1hJywgJzIwMCcsICctbWV0YWxfYmluZGluZycsICctaW1hZScsICc8aW5maWxlLm1hZT4nLCAnLW9tYWUnLCAnPG91dGZpbGUubWFlPic=

> <r_lp_tautomer_probability>
0.999537

> <r_epik_Ionization_Penalty>
0.00324917

> <r_epik_Ionization_Penalty_Charging>
0.00324916

> <r_epik_Ionization_Penalty_Neutral>
1.93017e-08

> <r_epik_State_Penalty>
0.00229371

> <r_epik_Charging_Adjusted_Penalty>
0.00554286

> <i_epik_Tot_Q>
0

> <i_epik_Tot_abs_Q>
0

> <r_epik_Metal_State_Penalty>
0.364744

> <b_epik_Metal_Only>
0

> <s_lp_Force_Field>
OPLS_2005

> <r_lp_Energy>
3.29576

> <b_lp_Chiralities_Consistent>
1

> <s_lp_Variant>
AV-unprocessed.smi:2156-2

> <Gold.Version>
5.8.1

> <Gold.Id.Protein>
6NUR|6NUR_protein|mol2

> <Gold.PLP.Fitness>
40.7508

> <Gold.PLP.PLP>
-35.9689

> <Gold.PLP.part.hbond>
-2.1927

> <Gold.PLP.part.metal>
0.0000

> <Gold.PLP.part.buried>
-5.3513

> <Gold.PLP.part.nonpolar>
-29.6771

> <Gold.PLP.part.repulsive>
0.4452

> <Gold.PLP.ligand.clash>
0.0000

> <Gold.PLP.ligand.torsion>
0.3595

> <Gold.PLP.Chemscore.Hbond>
1.8284

> <Gold.PLP.Chemscore.CHOScore>
0.0000

> <Gold.PLP.Chemscore.Metal>
0.0000

> <Gold.Chemscore.Hbonds>
donor molecule, donor type, donor heavy atom, donor atom, acceptor molecule, acceptor atom, score
      P1  H  7989  7998       L1    17  1.00
      P1  H 10752 10765       L1    14  0.80

> <Gold.PLP.Chemscore.Internal.Correction>
0.0157

> <Gold.Rescore>
     Score         DG    S(hbond)    S(metal)    S(lipo)     H(rot)  DE(clash)    DE(int)     intcor
     14.62     -15.05       1.98        0.00      73.30       2.19       0.01       0.42       ----

> <Gold.Chemscore.Fitness>
14.6188

> <Gold.Chemscore.DG>
-15.0499

> <Gold.Chemscore.ZeroCoef>
-5.4800

> <Gold.Chemscore.Hbond>
1.9798

> <Gold.Chemscore.Metal>
0.0000

> <Gold.Chemscore.Lipo>
73.2999

> <Gold.Chemscore.Internal_Hbond>
0.0000

> <Gold.Chemscore.DEClash>
0.0067

> <Gold.Chemscore.DEInternal>
0.4244

> <Gold.Chemscore.Rot>
2.1949

> <Gold.Chemscore.Internal.Correction>
   9.000000E+99

> <Gold.Chemscore.Hbonds>
donor molecule, donor type, donor heavy atom, donor atom, acceptor molecule, acceptor atom, score
      P1  H  7989  7998       L1    17  0.95
      P1  H 10752 10765       L1    14  0.75

> <Gold.Chemscore.Hbond.Weighted>
-6.6126

> <Gold.Chemscore.Metal.Weighted>
-0.0000

> <Gold.Chemscore.Lipo.Weighted>
-8.5761

> <Gold.Chemscore.Internal_Hbond.Weighted>
0.0000

> <Gold.Chemscore.DEClash.Weighted>
0.0067

> <Gold.Chemscore.DEInternal.Weighted>
0.4244

> <Gold.Chemscore.Rot.Weighted>
5.6188

> <Gold.Chemscore.Internal.Correction.Weighted>
   9.000000E+99

> <Gold.Protein.RotatedTorsions>
[ 6907 6896 6895 6894 ] final  -10.35 input  -60.11 | X-H torsion
[ 7974 7965 7964 7962 ] final -145.35 input  175.53 | X-H torsion
[ 8008 7997 7996 7995 ] final  116.64 input   59.86 | X-H torsion
[ 10167 10162 10161 10158 ] final -118.86 input  -65.29 | X-H torsion
[ 10718 10713 10712 10709 ] final  117.17 input   66.30 | X-H torsion
[ 10763 10752 10751 10750 ] final -120.56 input  -60.55 | X-H torsion
[ 11005 11000 10999 10996 ] final -120.82 input  -57.11 | X-H torsion

> <Gold.Protein.ActiveResidues>
 VAL166  LYS551  ARG553  GLY616  TRP617  ASP618  TYR619  PRO620  LYS621  CYS622 
 ASP623  PHE694  ASN695  SER759  ASP760  ASP761  ALA762  ILE779  LEU786  VAL792 
 PHE793  MET794  SER795  GLU796  ALA797  LYS798  CYS799  TRP800  GLU811  SER814 

> <Gold.Protein.RotatedAtoms>
  151.4033  135.0974  159.9562 H   0  0  0  0  0  0  0  0  0  0  0  0  # atno 6907 bound_to 6896
  152.5043  133.8867  159.7384 H   0  0  0  0  0  0  0  0  0  0  0  0  # atno 6908 bound_to 6896
  150.9346  133.6671  159.2832 H   0  0  0  0  0  0  0  0  0  0  0  0  # atno 6909 bound_to 6896
  144.8233  140.5595  143.5563 H   0  0  0  0  0  0  0  0  0  0  0  0  # atno 7974 bound_to 7965
  156.2450  140.2913  156.0554 H   0  0  0  0  0  0  0  0  0  0  0  0  # atno 8008 bound_to 7997
  155.1835  140.0405  157.2904 H   0  0  0  0  0  0  0  0  0  0  0  0  # atno 8009 bound_to 7997
  154.6243  140.2483  155.7517 H   0  0  0  0  0  0  0  0  0  0  0  0  # atno 8010 bound_to 7997
  140.0529  143.5042  152.2072 H   0  0  0  0  0  0  0  0  0  0  0  0  # atno 10167 bound_to 10162
  157.6114  131.1034  150.7577 H   0  0  0  0  0  0  0  0  0  0  0  0  # atno 10718 bound_to 10713
  154.8647  135.4199  154.2478 H   0  0  0  0  0  0  0  0  0  0  0  0  # atno 10763 bound_to 10752
  153.3431  135.6994  153.6856 H   0  0  0  0  0  0  0  0  0  0  0  0  # atno 10764 bound_to 10752
  153.5827  135.3570  155.2854 H   0  0  0  0  0  0  0  0  0  0  0  0  # atno 10765 bound_to 10752
  141.0116  134.0257  157.3406 H   0  0  0  0  0  0  0  0  0  0  0  0  # atno 11005 bound_to 11000
  145.5055  139.1481  143.3633 LP  0  0  0  0  0  0  0  0  0  0  0  0  # atno 17320 bound_to 7965
  146.2539  140.5195  142.8882 LP  0  0  0  0  0  0  0  0  0  0  0  0  # atno 17321 bound_to 7965
  139.5941  144.7561  151.3328 LP  0  0  0  0  0  0  0  0  0  0  0  0  # atno 17342 bound_to 10162
  140.7208  143.7141  150.7747 LP  0  0  0  0  0  0  0  0  0  0  0  0  # atno 17343 bound_to 10162
  156.7953  130.4903  149.5378 LP  0  0  0  0  0  0  0  0  0  0  0  0  # atno 17370 bound_to 10713
  156.1218  130.6115  151.0205 LP  0  0  0  0  0  0  0  0  0  0  0  0  # atno 17371 bound_to 10713
  139.9093  135.0187  156.7622 LP  0  0  0  0  0  0  0  0  0  0  0  0  # atno 17394 bound_to 11000
  140.6725  133.9547  155.7864 LP  0  0  0  0  0  0  0  0  0  0  0  0  # atno 17395 bound_to 11000

$$$$
