AV-unprocessed.smi:2453|AV-procd|sdf|9693|dock6
  -GOLD-   2272013333D 1   1.00000     0.00000
 Structure written by MMmdl.
 41 42  0  0  0  0  0  0  0  0  2 V2000
  146.9096  133.6857  151.2488 C   0  0  0  0  0  0  0  0  0  0  0  0
  145.6002  134.3428  151.6494 C   0  0  0  0  0  0  0  0  0  0  0  0
  144.3908  133.8811  151.0855 C   0  0  0  0  0  0  0  0  0  0  0  0
  143.2185  134.4512  151.4339 N   0  3  0  0  0  0  0  0  0  0  0  0
  143.1358  135.4631  152.3221 C   0  0  0  0  0  0  0  0  0  0  0  0
  144.3057  135.9693  152.9221 C   0  0  0  0  0  0  0  0  0  0  0  0
  145.5662  135.4163  152.5766 C   0  0  0  0  0  0  0  0  0  0  0  0
  146.7949  135.8601  153.1448 N   0  0  0  0  0  0  0  0  0  0  0  0
  147.0105  136.4574  154.3298 C   0  0  0  0  0  0  0  0  0  0  0  0
  146.1434  136.7271  155.1603 O   0  0  0  0  0  0  0  0  0  0  0  0
  148.3091  136.7469  154.4956 N   0  0  0  0  0  0  0  0  0  0  0  0
  148.8937  137.3900  155.6741 C   0  0  2  0  0  0  0  0  0  0  0  0
  148.8366  138.9287  155.5512 C   0  0  0  0  0  0  0  0  0  0  0  0
  149.7955  139.4619  154.4739 C   0  0  0  0  0  0  0  0  0  0  0  0
  151.2316  138.9810  154.7261 C   0  0  0  0  0  0  0  0  0  0  0  0
  151.2988  137.4490  154.8290 C   0  0  0  0  0  0  0  0  0  0  0  0
  150.3483  136.9051  155.9176 C   0  0  2  0  0  0  0  0  0  0  0  0
  150.4786  135.3725  156.0500 C   0  0  0  0  0  0  0  0  0  0  0  0
  151.8230  134.9960  156.2603 O   0  0  0  0  0  0  0  0  0  0  0  0
  146.7481  132.8947  150.5158 H   0  0  0  0  0  0  0  0  0  0  0  0
  147.3957  133.2438  152.1193 H   0  0  0  0  0  0  0  0  0  0  0  0
  147.5864  134.4192  150.8093 H   0  0  0  0  0  0  0  0  0  0  0  0
  144.3248  133.0746  150.3695 H   0  0  0  0  0  0  0  0  0  0  0  0
  142.1420  135.8319  152.5306 H   0  0  0  0  0  0  0  0  0  0  0  0
  144.2083  136.7643  153.6450 H   0  0  0  0  0  0  0  0  0  0  0  0
  147.6011  135.7756  152.5433 H   0  0  0  0  0  0  0  0  0  0  0  0
  148.9497  136.5002  153.7556 H   0  0  0  0  0  0  0  0  0  0  0  0
  148.2971  137.1044  156.5424 H   0  0  0  0  0  0  0  0  0  0  0  0
  147.8189  139.2604  155.3420 H   0  0  0  0  0  0  0  0  0  0  0  0
  149.1031  139.3711  156.5119 H   0  0  0  0  0  0  0  0  0  0  0  0
  149.4651  139.1327  153.4880 H   0  0  0  0  0  0  0  0  0  0  0  0
  149.7666  140.5517  154.4590 H   0  0  0  0  0  0  0  0  0  0  0  0
  151.8857  139.3292  153.9266 H   0  0  0  0  0  0  0  0  0  0  0  0
  151.6079  139.4252  155.6486 H   0  0  0  0  0  0  0  0  0  0  0  0
  151.0513  137.0072  153.8630 H   0  0  0  0  0  0  0  0  0  0  0  0
  152.3242  137.1490  155.0474 H   0  0  0  0  0  0  0  0  0  0  0  0
  150.6772  137.3351  156.8654 H   0  0  0  0  0  0  0  0  0  0  0  0
  149.8627  134.9868  156.8626 H   0  0  0  0  0  0  0  0  0  0  0  0
  150.1346  134.8862  155.1367 H   0  0  0  0  0  0  0  0  0  0  0  0
  151.8486  134.3338  156.9341 H   0  0  0  0  0  0  0  0  0  0  0  0
  142.3585  134.0987  151.0124 H   0  0  0  0  0  0  0  0  0  0  0  0
  1  2  1  0  0  0  0
  1 20  1  0  0  0  0
  1 21  1  0  0  0  0
  1 22  1  0  0  0  0
  2  7  1  0  0  0  0
  2  3  2  0  0  0  0
  3  4  1  0  0  0  0
  3 23  1  0  0  0  0
  4  5  2  0  0  0  0
  4 41  1  0  0  0  0
  5  6  1  0  0  0  0
  5 24  1  0  0  0  0
  6  7  2  0  0  0  0
  6 25  1  0  0  0  0
  7  8  1  0  0  0  0
  8  9  1  0  0  0  0
  8 26  1  0  0  0  0
  9 10  2  0  0  0  0
  9 11  1  0  0  0  0
 11 12  1  0  0  0  0
 11 27  1  0  0  0  0
 12 17  1  0  0  0  0
 12 13  1  0  0  0  0
 12 28  1  0  0  0  0
 13 14  1  0  0  0  0
 13 29  1  0  0  0  0
 13 30  1  0  0  0  0
 14 15  1  0  0  0  0
 14 31  1  0  0  0  0
 14 32  1  0  0  0  0
 15 16  1  0  0  0  0
 15 33  1  0  0  0  0
 15 34  1  0  0  0  0
 16 17  1  0  0  0  0
 16 35  1  0  0  0  0
 16 36  1  0  0  0  0
 17 18  1  0  0  0  0
 17 37  1  0  0  0  0
 18 19  1  0  0  0  0
 18 38  1  0  0  0  0
 18 39  1  0  0  0  0
 19 40  1  0  0  0  0
M  CHG  1   4   1
M  END
> <s_m_source_file>
AV-unprocessed.smi

> <i_m_source_file_index>
2453

> <i_lp_mmshare_version>
43012

> <i_f3d_flags>
0

> <s_epik_input>
W0NIM11jMVtjSF1uW2NIXVtjSF1jMVtOSF1DKD1PKVtOSF1bQ0BASF0yW0NIMl1bQ0gyXVtDSDJdW0NIMl1bQ0BIXTJbQ0gyXVtPSF0=

> <s_epik_cmdline>
J2VwaWtfcHl0aG9uJywgJy1waCcsICc3LjAnLCAnLXRuJywgJzgnLCAnLW1hJywgJzIwMCcsICctbWV0YWxfYmluZGluZycsICctaW1hZScsICc8aW5maWxlLm1hZT4nLCAnLW9tYWUnLCAnPG91dGZpbGUubWFlPic=

> <r_epik_Ionization_Penalty>
0.71493

> <r_epik_Ionization_Penalty_Charging>
0.714909

> <r_epik_Ionization_Penalty_Neutral>
2.10174e-05

> <r_epik_State_Penalty>
0.738815

> <r_epik_Charging_Adjusted_Penalty>
1.45372

> <i_epik_Tot_Q>
1

> <i_epik_Tot_abs_Q>
1

> <r_epik_Metal_State_Penalty>
0.896004

> <b_epik_Metal_Only>
0

> <s_lp_Force_Field>
OPLS_2005

> <r_lp_Energy>
23.4008

> <b_lp_Chiralities_Consistent>
1

> <s_lp_Variant>
AV-unprocessed.smi:2453-7

> <Gold.Version>
5.8.1

> <Gold.Id.Protein>
6NUR|6NUR_protein|mol2

> <Gold.PLP.Fitness>
38.3704

> <Gold.PLP.PLP>
-25.8188

> <Gold.PLP.part.hbond>
-4.0000

> <Gold.PLP.part.metal>
0.0000

> <Gold.PLP.part.buried>
-3.4093

> <Gold.PLP.part.nonpolar>
-18.0311

> <Gold.PLP.part.repulsive>
0.0311

> <Gold.PLP.ligand.clash>
0.0000

> <Gold.PLP.ligand.torsion>
0.5258

> <Gold.PLP.Chemscore.Hbond>
4.5280

> <Gold.PLP.Chemscore.CHOScore>
0.0000

> <Gold.PLP.Chemscore.Metal>
0.0000

> <Gold.Chemscore.Hbonds>
donor molecule, donor type, donor heavy atom, donor atom, acceptor molecule, acceptor atom, score
      L1  H     4    41       P1 10186  1.76
      L1  H     8    26       P1  7948  1.00
      L1  H    11    27       P1  7948  0.82
      P1  H 10752 10763       L1    19  1.00

> <Gold.PLP.Chemscore.Internal.Correction>
0.0192

> <Gold.Rescore>
     Score         DG    S(hbond)    S(metal)    S(lipo)     H(rot)  DE(clash)    DE(int)     intcor
     17.34     -19.04       3.26        0.00      61.58       1.77       0.08       1.62       ----

> <Gold.Chemscore.Fitness>
17.3379

> <Gold.Chemscore.DG>
-19.0367

> <Gold.Chemscore.ZeroCoef>
-5.4800

> <Gold.Chemscore.Hbond>
3.2616

> <Gold.Chemscore.Metal>
0.0000

> <Gold.Chemscore.Lipo>
61.5810

> <Gold.Chemscore.Internal_Hbond>
0.0000

> <Gold.Chemscore.DEClash>
0.0777

> <Gold.Chemscore.DEInternal>
1.6212

> <Gold.Chemscore.Rot>
1.7742

> <Gold.Chemscore.Internal.Correction>
   9.000000E+99

> <Gold.Chemscore.Hbonds>
donor molecule, donor type, donor heavy atom, donor atom, acceptor molecule, acceptor atom, score
      L1  H     4    41       P1 10186  0.21
      L1  H     8    26       P1  7948  0.96
      L1  H    11    27       P1  7948  0.81
      P1  H 10752 10763       L1    19  0.94

> <Gold.Chemscore.Hbond.Weighted>
-10.8937

> <Gold.Chemscore.Metal.Weighted>
-0.0000

> <Gold.Chemscore.Lipo.Weighted>
-7.2050

> <Gold.Chemscore.Internal_Hbond.Weighted>
0.0000

> <Gold.Chemscore.DEClash.Weighted>
0.0777

> <Gold.Chemscore.DEInternal.Weighted>
1.6212

> <Gold.Chemscore.Rot.Weighted>
4.5419

> <Gold.Chemscore.Internal.Correction.Weighted>
   9.000000E+99

> <Gold.Protein.RotatedTorsions>
[ 6907 6896 6895 6894 ] final -113.82 input  -60.11 | X-H torsion
[ 7974 7965 7964 7962 ] final   90.28 input  175.53 | X-H torsion
[ 8008 7997 7996 7995 ] final  -16.13 input   59.86 | X-H torsion
[ 10167 10162 10161 10158 ] final   43.36 input  -65.29 | X-H torsion
[ 10718 10713 10712 10709 ] final  -62.66 input   66.30 | X-H torsion
[ 10763 10752 10751 10750 ] final   97.08 input  -60.55 | X-H torsion
[ 11005 11000 10999 10996 ] final -148.04 input  -57.11 | X-H torsion

> <Gold.Protein.ActiveResidues>
 VAL166  LYS551  ARG553  GLY616  TRP617  ASP618  TYR619  PRO620  LYS621  CYS622 
 ASP623  PHE694  ASN695  SER759  ASP760  ASP761  ALA762  ILE779  LEU786  VAL792 
 PHE793  MET794  SER795  GLU796  ALA797  LYS798  CYS799  TRP800  GLU811  SER814 

> <Gold.Protein.RotatedAtoms>
  150.7857  133.8889  159.3307 H   0  0  0  0  0  0  0  0  0  0  0  0  # atno 6907 bound_to 6896
  151.6740  135.0970  160.0213 H   0  0  0  0  0  0  0  0  0  0  0  0  # atno 6908 bound_to 6896
  152.3920  133.6654  159.6281 H   0  0  0  0  0  0  0  0  0  0  0  0  # atno 6909 bound_to 6896
  145.5211  139.2279  143.2671 H   0  0  0  0  0  0  0  0  0  0  0  0  # atno 7974 bound_to 7965
  154.5076  140.2178  155.9219 H   0  0  0  0  0  0  0  0  0  0  0  0  # atno 8008 bound_to 7997
  156.1513  140.3161  155.8620 H   0  0  0  0  0  0  0  0  0  0  0  0  # atno 8009 bound_to 7997
  155.3932  140.0479  157.3030 H   0  0  0  0  0  0  0  0  0  0  0  0  # atno 8010 bound_to 7997
  140.3452  144.2420  150.6151 H   0  0  0  0  0  0  0  0  0  0  0  0  # atno 10167 bound_to 10162
  156.0841  130.4211  150.1167 H   0  0  0  0  0  0  0  0  0  0  0  0  # atno 10718 bound_to 10713
  153.2726  135.4196  155.1002 H   0  0  0  0  0  0  0  0  0  0  0  0  # atno 10763 bound_to 10752
  154.8461  135.3476  154.6223 H   0  0  0  0  0  0  0  0  0  0  0  0  # atno 10764 bound_to 10752
  153.6643  135.7047  153.5224 H   0  0  0  0  0  0  0  0  0  0  0  0  # atno 10765 bound_to 10752
  140.7654  134.3250  157.5090 H   0  0  0  0  0  0  0  0  0  0  0  0  # atno 11005 bound_to 11000
  146.2105  140.6023  142.9061 LP  0  0  0  0  0  0  0  0  0  0  0  0  # atno 17320 bound_to 7965
  144.7676  140.5565  143.6692 LP  0  0  0  0  0  0  0  0  0  0  0  0  # atno 17321 bound_to 7965
  140.5272  143.2252  151.8296 LP  0  0  0  0  0  0  0  0  0  0  0  0  # atno 17342 bound_to 10162
  139.4834  144.4765  151.9360 LP  0  0  0  0  0  0  0  0  0  0  0  0  # atno 17343 bound_to 10162
  156.9192  130.9677  151.3551 LP  0  0  0  0  0  0  0  0  0  0  0  0  # atno 17370 bound_to 10713
  157.5968  130.8484  149.8742 LP  0  0  0  0  0  0  0  0  0  0  0  0  # atno 17371 bound_to 10713
  139.8764  134.9228  156.3309 LP  0  0  0  0  0  0  0  0  0  0  0  0  # atno 17394 bound_to 11000
  140.9624  133.7380  156.0419 LP  0  0  0  0  0  0  0  0  0  0  0  0  # atno 17395 bound_to 11000

$$$$
