AV-unprocessed.smi:466|AV-procd|sdf|2641|dock8
  -GOLD-   2262023 53D 1   1.00000     0.00000
 Structure written by MMmdl.
 43 45  0  0  0  0  0  0  0  0  1 V2000
  154.9433  144.7513  165.1006 C   0  0  0  0  0  0  0  0  0  0  0  0
  155.1481  143.4505  164.5690 O   0  0  0  0  0  0  0  0  0  0  0  0
  155.3325  142.4044  165.4500 C   0  0  0  0  0  0  0  0  0  0  0  0
  155.2334  142.5382  166.8585 C   0  0  0  0  0  0  0  0  0  0  0  0
  155.4370  141.4281  167.6977 C   0  0  0  0  0  0  0  0  0  0  0  0
  155.7406  140.1741  167.1419 C   0  0  0  0  0  0  0  0  0  0  0  0
  155.8405  140.0292  165.7464 C   0  0  0  0  0  0  0  0  0  0  0  0
  155.6382  141.1418  164.8903 C   0  0  0  0  0  0  0  0  0  0  0  0
  155.7220  141.0735  163.5148 O   0  0  0  0  0  0  0  0  0  0  0  0
  156.1026  139.8411  162.9200 C   0  0  0  0  0  0  0  0  0  0  0  0
  154.8498  139.1677  162.3481 C   0  0  0  0  0  0  0  0  0  0  0  0
  154.3222  139.9030  161.2095 N   0  0  0  0  0  0  0  0  0  0  0  0
  154.3095  139.5433  159.9002 C   0  0  0  0  0  0  0  0  0  0  0  0
  154.8684  138.2388  159.4099 C   0  0  0  0  0  0  0  0  0  0  0  0
  154.2211  137.0128  160.0730 C   0  0  0  0  0  0  0  0  0  0  0  0
  152.9830  136.7044  159.4682 O   0  0  0  0  0  0  0  0  0  0  0  0
  153.7588  140.4246  159.0638 N   0  0  0  0  0  0  0  0  0  0  0  0
  153.3837  141.4524  159.9065 C   0  0  0  0  0  0  0  0  0  0  0  0
  152.7471  142.6831  159.6276 C   0  0  0  0  0  0  0  0  0  0  0  0
  152.4641  143.5923  160.6681 C   0  0  0  0  0  0  0  0  0  0  0  0
  152.8134  143.2849  161.9991 C   0  0  0  0  0  0  0  0  0  0  0  0
  153.4468  142.0636  162.2987 C   0  0  0  0  0  0  0  0  0  0  0  0
  153.7251  141.1587  161.2568 C   0  0  0  0  0  0  0  0  0  0  0  0
  154.8265  145.4598  164.2807 H   0  0  0  0  0  0  0  0  0  0  0  0
  155.7959  145.0772  165.6979 H   0  0  0  0  0  0  0  0  0  0  0  0
  154.0374  144.7965  165.7065 H   0  0  0  0  0  0  0  0  0  0  0  0
  155.0022  143.4851  167.3217 H   0  0  0  0  0  0  0  0  0  0  0  0
  155.3603  141.5398  168.7693 H   0  0  0  0  0  0  0  0  0  0  0  0
  155.8974  139.3213  167.7859 H   0  0  0  0  0  0  0  0  0  0  0  0
  156.0736  139.0501  165.3568 H   0  0  0  0  0  0  0  0  0  0  0  0
  156.8221  140.0174  162.1185 H   0  0  0  0  0  0  0  0  0  0  0  0
  156.5683  139.1905  163.6617 H   0  0  0  0  0  0  0  0  0  0  0  0
  155.0620  138.1398  162.0560 H   0  0  0  0  0  0  0  0  0  0  0  0
  154.0751  139.1111  163.1134 H   0  0  0  0  0  0  0  0  0  0  0  0
  154.6875  138.1890  158.3356 H   0  0  0  0  0  0  0  0  0  0  0  0
  155.9518  138.2133  159.5213 H   0  0  0  0  0  0  0  0  0  0  0  0
  154.8833  136.1475  160.0300 H   0  0  0  0  0  0  0  0  0  0  0  0
  154.0334  137.2213  161.1265 H   0  0  0  0  0  0  0  0  0  0  0  0
  152.9733  137.0710  158.5972 H   0  0  0  0  0  0  0  0  0  0  0  0
  152.4773  142.9281  158.6110 H   0  0  0  0  0  0  0  0  0  0  0  0
  151.9776  144.5302  160.4440 H   0  0  0  0  0  0  0  0  0  0  0  0
  152.5946  143.9869  162.7905 H   0  0  0  0  0  0  0  0  0  0  0  0
  153.7159  141.8255  163.3171 H   0  0  0  0  0  0  0  0  0  0  0  0
  1  2  1  0  0  0  0
  1 24  1  0  0  0  0
  1 25  1  0  0  0  0
  1 26  1  0  0  0  0
  2  3  1  0  0  0  0
  3  8  1  0  0  0  0
  3  4  2  0  0  0  0
  4  5  1  0  0  0  0
  4 27  1  0  0  0  0
  5  6  2  0  0  0  0
  5 28  1  0  0  0  0
  6  7  1  0  0  0  0
  6 29  1  0  0  0  0
  7  8  2  0  0  0  0
  7 30  1  0  0  0  0
  8  9  1  0  0  0  0
  9 10  1  0  0  0  0
 10 11  1  0  0  0  0
 10 31  1  0  0  0  0
 10 32  1  0  0  0  0
 11 12  1  0  0  0  0
 11 33  1  0  0  0  0
 11 34  1  0  0  0  0
 12 23  1  0  0  0  0
 12 13  1  0  0  0  0
 13 14  1  0  0  0  0
 13 17  2  0  0  0  0
 14 15  1  0  0  0  0
 14 35  1  0  0  0  0
 14 36  1  0  0  0  0
 15 16  1  0  0  0  0
 15 37  1  0  0  0  0
 15 38  1  0  0  0  0
 16 39  1  0  0  0  0
 17 18  1  0  0  0  0
 18 23  2  0  0  0  0
 18 19  1  0  0  0  0
 19 20  2  0  0  0  0
 19 40  1  0  0  0  0
 20 21  1  0  0  0  0
 20 41  1  0  0  0  0
 21 22  2  0  0  0  0
 21 42  1  0  0  0  0
 22 23  1  0  0  0  0
 22 43  1  0  0  0  0
M  END
> <s_m_source_file>
AV-unprocessed.smi

> <i_m_source_file_index>
466

> <i_lp_mmshare_version>
43012

> <i_f3d_flags>
0

> <s_epik_input>
W0NIM11PYzFbY0hdW2NIXVtjSF1bY0hdYzFPW0NIMl1bQ0gyXW4oYyhuMilbQ0gyXVtDSDJdW09IXSljKGMyMylbY0hdW2NIXVtjSF1bY0hdMw==

> <s_epik_cmdline>
J2VwaWtfcHl0aG9uJywgJy1waCcsICc3LjAnLCAnLXRuJywgJzgnLCAnLW1hJywgJzIwMCcsICctbWV0YWxfYmluZGluZycsICctaW1hZScsICc8aW5maWxlLm1hZT4nLCAnLW9tYWUnLCAnPG91dGZpbGUubWFlPic=

> <r_lp_tautomer_probability>
1

> <r_epik_Ionization_Penalty>
0.20808

> <r_epik_Ionization_Penalty_Charging>
0

> <r_epik_Ionization_Penalty_Neutral>
0.20808

> <r_epik_State_Penalty>
0.198097

> <r_epik_Charging_Adjusted_Penalty>
0.198097

> <i_epik_Tot_Q>
0

> <i_epik_Tot_abs_Q>
0

> <r_epik_Metal_State_Penalty>
0.000235189

> <b_epik_Metal_Only>
0

> <s_lp_Force_Field>
OPLS_2005

> <r_lp_Energy>
20.5556

> <b_lp_Chiralities_Consistent>
1

> <s_lp_Variant>
AV-unprocessed.smi:466-1

> <Gold.Version>
5.8.1

> <Gold.Id.Protein>
6NUR|6NUR_protein|mol2

> <Gold.PLP.Fitness>
57.0139

> <Gold.PLP.PLP>
-53.2963

> <Gold.PLP.part.hbond>
-4.0000

> <Gold.PLP.part.metal>
0.0000

> <Gold.PLP.part.buried>
-5.0523

> <Gold.PLP.part.nonpolar>
-43.0409

> <Gold.PLP.part.repulsive>
0.0115

> <Gold.PLP.ligand.clash>
0.0000

> <Gold.PLP.ligand.torsion>
0.5480

> <Gold.PLP.Chemscore.Hbond>
1.5702

> <Gold.PLP.Chemscore.CHOScore>
0.0000

> <Gold.PLP.Chemscore.Metal>
0.0000

> <Gold.Chemscore.Hbonds>
donor molecule, donor type, donor heavy atom, donor atom, acceptor molecule, acceptor atom, score
      P1  H  6896  6907       L1    16  1.00
      P1  H  7997  8009       L1    17  0.54

> <Gold.PLP.Chemscore.Internal.Correction>
0.1030

> <Gold.Rescore>
     Score         DG    S(hbond)    S(metal)    S(lipo)     H(rot)  DE(clash)    DE(int)     intcor
     16.51     -20.75       1.81        0.00     135.63       2.59       1.35       2.89       ----

> <Gold.Chemscore.Fitness>
16.5060

> <Gold.Chemscore.DG>
-20.7502

> <Gold.Chemscore.ZeroCoef>
-5.4800

> <Gold.Chemscore.Hbond>
1.8071

> <Gold.Chemscore.Metal>
0.0000

> <Gold.Chemscore.Lipo>
135.6325

> <Gold.Chemscore.Internal_Hbond>
0.0000

> <Gold.Chemscore.DEClash>
1.3501

> <Gold.Chemscore.DEInternal>
2.8942

> <Gold.Chemscore.Rot>
2.5916

> <Gold.Chemscore.Internal.Correction>
   9.000000E+99

> <Gold.Chemscore.Hbonds>
donor molecule, donor type, donor heavy atom, donor atom, acceptor molecule, acceptor atom, score
      P1  H  6896  6907       L1    16  0.93
      P1  H  7997  8009       L1    17  0.16

> <Gold.Chemscore.Hbond.Weighted>
-6.0358

> <Gold.Chemscore.Metal.Weighted>
-0.0000

> <Gold.Chemscore.Lipo.Weighted>
-15.8690

> <Gold.Chemscore.Internal_Hbond.Weighted>
0.0000

> <Gold.Chemscore.DEClash.Weighted>
1.3501

> <Gold.Chemscore.DEInternal.Weighted>
2.8942

> <Gold.Chemscore.Rot.Weighted>
6.6346

> <Gold.Chemscore.Internal.Correction.Weighted>
   9.000000E+99

> <Gold.Protein.RotatedTorsions>
[ 6907 6896 6895 6894 ] final   24.17 input  -60.11 | X-H torsion
[ 7974 7965 7964 7962 ] final  169.09 input  175.53 | X-H torsion
[ 8008 7997 7996 7995 ] final  130.94 input   59.86 | X-H torsion
[ 10167 10162 10161 10158 ] final -134.29 input  -65.29 | X-H torsion
[ 10718 10713 10712 10709 ] final    2.01 input   66.30 | X-H torsion
[ 10763 10752 10751 10750 ] final   52.96 input  -60.55 | X-H torsion
[ 11005 11000 10999 10996 ] final  -50.12 input  -57.11 | X-H torsion

> <Gold.Protein.ActiveResidues>
 VAL166  LYS551  ARG553  GLY616  TRP617  ASP618  TYR619  PRO620  LYS621  CYS622 
 ASP623  PHE694  ASN695  SER759  ASP760  ASP761  ALA762  ILE779  LEU786  VAL792 
 PHE793  MET794  SER795  GLU796  ALA797  LYS798  CYS799  TRP800  GLU811  SER814 

> <Gold.Protein.RotatedAtoms>
  151.9535  135.0158  160.0543 H   0  0  0  0  0  0  0  0  0  0  0  0  # atno 6907 bound_to 6896
  152.1932  133.4783  159.5027 H   0  0  0  0  0  0  0  0  0  0  0  0  # atno 6908 bound_to 6896
  150.6939  134.1603  159.4216 H   0  0  0  0  0  0  0  0  0  0  0  0  # atno 6909 bound_to 6896
  144.7367  139.9003  143.6409 H   0  0  0  0  0  0  0  0  0  0  0  0  # atno 7974 bound_to 7965
  156.2962  140.2583  156.2844 H   0  0  0  0  0  0  0  0  0  0  0  0  # atno 8008 bound_to 7997
  154.9570  140.0393  157.2190 H   0  0  0  0  0  0  0  0  0  0  0  0  # atno 8009 bound_to 7997
  154.7982  140.2823  155.5945 H   0  0  0  0  0  0  0  0  0  0  0  0  # atno 8010 bound_to 7997
  139.8895  143.6739  152.2614 H   0  0  0  0  0  0  0  0  0  0  0  0  # atno 10167 bound_to 10162
  156.8567  130.5572  149.5666 H   0  0  0  0  0  0  0  0  0  0  0  0  # atno 10718 bound_to 10713
  152.9792  135.5795  154.4663 H   0  0  0  0  0  0  0  0  0  0  0  0  # atno 10763 bound_to 10752
  154.4232  135.2772  155.1963 H   0  0  0  0  0  0  0  0  0  0  0  0  # atno 10764 bound_to 10752
  154.3703  135.6169  153.5790 H   0  0  0  0  0  0  0  0  0  0  0  0  # atno 10765 bound_to 10752
  141.0798  133.6656  156.3685 H   0  0  0  0  0  0  0  0  0  0  0  0  # atno 11005 bound_to 11000
  146.1077  139.4078  143.0307 LP  0  0  0  0  0  0  0  0  0  0  0  0  # atno 17320 bound_to 7965
  145.7488  140.9980  143.1261 LP  0  0  0  0  0  0  0  0  0  0  0  0  # atno 17321 bound_to 7965
  139.7122  144.7618  151.1093 LP  0  0  0  0  0  0  0  0  0  0  0  0  # atno 17342 bound_to 10162
  140.7729  143.5316  150.9417 LP  0  0  0  0  0  0  0  0  0  0  0  0  # atno 17343 bound_to 10162
  156.0799  130.5812  150.9543 LP  0  0  0  0  0  0  0  0  0  0  0  0  # atno 17370 bound_to 10713
  157.6273  131.0924  150.8509 LP  0  0  0  0  0  0  0  0  0  0  0  0  # atno 17371 bound_to 10713
  140.5494  134.6043  157.5403 LP  0  0  0  0  0  0  0  0  0  0  0  0  # atno 17394 bound_to 11000
  139.9611  134.7451  156.0235 LP  0  0  0  0  0  0  0  0  0  0  0  0  # atno 17395 bound_to 11000

$$$$
