AV-unprocessed.smi:2804|AV-procd|sdf|10812|dock4
  -GOLD-   2272015253D 1   1.00000     0.00000
 Structure written by MMmdl.
 34 35  0  0  0  0  0  0  0  0  2 V2000
  155.9788  139.8783  161.5224 C   0  0  0  0  0  0  0  0  0  0  0  0
  154.6104  140.1126  160.8746 C   0  0  0  0  0  0  0  0  0  0  0  0
  154.6148  141.3075  159.9089 C   0  0  0  0  0  0  0  0  0  0  0  0
  153.2962  141.5144  159.3152 N   0  0  0  0  0  0  0  0  0  0  0  0
  152.6227  140.6449  158.5256 C   0  0  0  0  0  0  0  0  0  0  0  0
  153.0136  139.5246  158.1966 O   0  0  0  0  0  0  0  0  0  0  0  0
  151.4349  141.2104  158.1887 N   0  0  0  0  0  0  0  0  0  0  0  0
  150.3724  140.6042  157.3696 C   0  0  0  0  0  0  0  0  0  0  0  0
  150.2715  141.1758  155.9252 C   0  0  1  0  0  0  0  0  0  0  0  0
  151.1111  140.4970  155.1802 O   0  5  0  0  0  0  0  0  0  0  0  0
  148.8542  140.9730  155.3354 C   0  0  0  0  0  0  0  0  0  0  0  0
  147.9396  141.5569  156.1123 F   0  0  0  0  0  0  0  0  0  0  0  0
  148.7582  141.4675  154.0990 F   0  0  0  0  0  0  0  0  0  0  0  0
  148.5726  139.6699  155.2874 F   0  0  0  0  0  0  0  0  0  0  0  0
  151.3317  142.4585  158.8302 C   0  0  0  0  0  0  0  0  0  0  0  0
  150.2986  143.4129  158.8385 C   0  0  0  0  0  0  0  0  0  0  0  0
  150.5065  144.5879  159.5976 C   0  0  0  0  0  0  0  0  0  0  0  0
  151.7121  144.7824  160.3197 C   0  0  0  0  0  0  0  0  0  0  0  0
  152.7348  143.8055  160.2973 C   0  0  0  0  0  0  0  0  0  0  0  0
  152.5032  142.6490  159.5322 C   0  0  0  0  0  0  0  0  0  0  0  0
  155.9457  139.0281  162.2037 H   0  0  0  0  0  0  0  0  0  0  0  0
  156.2979  140.7504  162.0937 H   0  0  0  0  0  0  0  0  0  0  0  0
  156.7400  139.6724  160.7697 H   0  0  0  0  0  0  0  0  0  0  0  0
  154.3067  139.2107  160.3416 H   0  0  0  0  0  0  0  0  0  0  0  0
  153.8669  140.2743  161.6559 H   0  0  0  0  0  0  0  0  0  0  0  0
  154.9239  142.2141  160.4298 H   0  0  0  0  0  0  0  0  0  0  0  0
  155.3515  141.1480  159.1198 H   0  0  0  0  0  0  0  0  0  0  0  0
  150.4993  139.5199  157.3430 H   0  0  0  0  0  0  0  0  0  0  0  0
  149.4279  140.7642  157.8900 H   0  0  0  0  0  0  0  0  0  0  0  0
  150.3842  142.2562  156.0285 H   0  0  0  0  0  0  0  0  0  0  0  0
  149.3832  143.2596  158.2864 H   0  0  0  0  0  0  0  0  0  0  0  0
  149.7377  145.3458  159.6275 H   0  0  0  0  0  0  0  0  0  0  0  0
  151.8505  145.6864  160.8942 H   0  0  0  0  0  0  0  0  0  0  0  0
  153.6526  143.9458  160.8485 H   0  0  0  0  0  0  0  0  0  0  0  0
  1  2  1  0  0  0  0
  1 21  1  0  0  0  0
  1 22  1  0  0  0  0
  1 23  1  0  0  0  0
  2  3  1  0  0  0  0
  2 24  1  0  0  0  0
  2 25  1  0  0  0  0
  3  4  1  0  0  0  0
  3 26  1  0  0  0  0
  3 27  1  0  0  0  0
  4 20  1  0  0  0  0
  4  5  1  0  0  0  0
  5  6  2  0  0  0  0
  5  7  1  0  0  0  0
  7  8  1  0  0  0  0
  7 15  1  0  0  0  0
  8  9  1  0  0  0  0
  8 28  1  0  0  0  0
  8 29  1  0  0  0  0
  9 10  1  0  0  0  0
  9 11  1  0  0  0  0
  9 30  1  0  0  0  0
 11 12  1  0  0  0  0
 11 13  1  0  0  0  0
 11 14  1  0  0  0  0
 15 20  2  0  0  0  0
 15 16  1  0  0  0  0
 16 17  2  0  0  0  0
 16 31  1  0  0  0  0
 17 18  1  0  0  0  0
 17 32  1  0  0  0  0
 18 19  2  0  0  0  0
 18 33  1  0  0  0  0
 19 20  1  0  0  0  0
 19 34  1  0  0  0  0
M  CHG  1  10  -1
M  END
> <s_m_source_file>
AV-unprocessed.smi

> <i_m_source_file_index>
2804

> <i_lp_mmshare_version>
43012

> <i_f3d_flags>
0

> <s_epik_input>
W2NIXTFbY0hdW2NIXVtjSF1jKGMxMiluKFtDSDJdW0NIMl1bQ0gzXSljKD1PKW4yW0NIMl1bQ0BIXShbT0hdKUMoRikoRilG

> <s_epik_cmdline>
J2VwaWtfcHl0aG9uJywgJy1waCcsICc3LjAnLCAnLXRuJywgJzgnLCAnLW1hJywgJzIwMCcsICctbWV0YWxfYmluZGluZycsICctaW1hZScsICc8aW5maWxlLm1hZT4nLCAnLW9tYWUnLCAnPG91dGZpbGUubWFlPic=

> <r_epik_Ionization_Penalty>
2.32651

> <r_epik_Ionization_Penalty_Charging>
2.32651

> <r_epik_Ionization_Penalty_Neutral>
0

> <r_epik_State_Penalty>
2.47909

> <r_epik_Charging_Adjusted_Penalty>
4.8056

> <i_epik_Tot_Q>
-1

> <i_epik_Tot_abs_Q>
1

> <r_epik_Metal_State_Penalty>
2.47909

> <b_epik_Metal_Only>
0

> <s_lp_Force_Field>
OPLS_2005

> <r_lp_Energy>
44.9553

> <b_lp_Chiralities_Consistent>
1

> <s_lp_Variant>
AV-unprocessed.smi:2804-4

> <Gold.Version>
5.8.1

> <Gold.Id.Protein>
6NUR|6NUR_protein|mol2

> <Gold.PLP.Fitness>
46.2941

> <Gold.PLP.PLP>
-41.3696

> <Gold.PLP.part.hbond>
-2.0000

> <Gold.PLP.part.metal>
0.0000

> <Gold.PLP.part.buried>
-4.5765

> <Gold.PLP.part.nonpolar>
-34.9280

> <Gold.PLP.part.repulsive>
0.0430

> <Gold.PLP.ligand.clash>
0.0000

> <Gold.PLP.ligand.torsion>
0.5280

> <Gold.PLP.Chemscore.Hbond>
1.9760

> <Gold.PLP.Chemscore.CHOScore>
0.0000

> <Gold.PLP.Chemscore.Metal>
0.0000

> <Gold.Chemscore.Hbonds>
donor molecule, donor type, donor heavy atom, donor atom, acceptor molecule, acceptor atom, score
      P1  H  7989  7998       L1    10  0.98
      P1  H  7997  8008       L1     6  1.00

> <Gold.PLP.Chemscore.Internal.Correction>
0.0524

> <Gold.Rescore>
     Score         DG    S(hbond)    S(metal)    S(lipo)     H(rot)  DE(clash)    DE(int)     intcor
     17.11     -17.70       1.57        0.00      97.14       1.72       0.03       0.56       ----

> <Gold.Chemscore.Fitness>
17.1133

> <Gold.Chemscore.DG>
-17.7042

> <Gold.Chemscore.ZeroCoef>
-5.4800

> <Gold.Chemscore.Hbond>
1.5744

> <Gold.Chemscore.Metal>
0.0000

> <Gold.Chemscore.Lipo>
97.1358

> <Gold.Chemscore.Internal_Hbond>
0.0000

> <Gold.Chemscore.DEClash>
0.0311

> <Gold.Chemscore.DEInternal>
0.5598

> <Gold.Chemscore.Rot>
1.7185

> <Gold.Chemscore.Internal.Correction>
   9.000000E+99

> <Gold.Chemscore.Hbonds>
donor molecule, donor type, donor heavy atom, donor atom, acceptor molecule, acceptor atom, score
      P1  H  7989  7998       L1    10  0.93
      P1  H  7997  8008       L1     6  0.24

> <Gold.Chemscore.Hbond.Weighted>
-5.2586

> <Gold.Chemscore.Metal.Weighted>
-0.0000

> <Gold.Chemscore.Lipo.Weighted>
-11.3649

> <Gold.Chemscore.Internal_Hbond.Weighted>
0.0000

> <Gold.Chemscore.DEClash.Weighted>
0.0311

> <Gold.Chemscore.DEInternal.Weighted>
0.5598

> <Gold.Chemscore.Rot.Weighted>
4.3992

> <Gold.Chemscore.Internal.Correction.Weighted>
   9.000000E+99

> <Gold.Protein.RotatedTorsions>
[ 6907 6896 6895 6894 ] final  149.42 input  -60.11 | X-H torsion
[ 7974 7965 7964 7962 ] final  148.81 input  175.53 | X-H torsion
[ 8008 7997 7996 7995 ] final  -83.58 input   59.86 | X-H torsion
[ 10167 10162 10161 10158 ] final  -62.48 input  -65.29 | X-H torsion
[ 10718 10713 10712 10709 ] final   48.01 input   66.30 | X-H torsion
[ 10763 10752 10751 10750 ] final -171.65 input  -60.55 | X-H torsion
[ 11005 11000 10999 10996 ] final  -73.98 input  -57.11 | X-H torsion

> <Gold.Protein.ActiveResidues>
 VAL166  LYS551  ARG553  GLY616  TRP617  ASP618  TYR619  PRO620  LYS621  CYS622 
 ASP623  PHE694  ASN695  SER759  ASP760  ASP761  ALA762  ILE779  LEU786  VAL792 
 PHE793  MET794  SER795  GLU796  ALA797  LYS798  CYS799  TRP800  GLU811  SER814 

> <Gold.Protein.RotatedAtoms>
  152.1283  133.4393  159.4708 H   0  0  0  0  0  0  0  0  0  0  0  0  # atno 6907 bound_to 6896
  150.6876  134.2452  159.4497 H   0  0  0  0  0  0  0  0  0  0  0  0  # atno 6908 bound_to 6896
  152.0334  134.9754  160.0623 H   0  0  0  0  0  0  0  0  0  0  0  0  # atno 6909 bound_to 6896
  144.8485  139.6201  143.5984 H   0  0  0  0  0  0  0  0  0  0  0  0  # atno 7974 bound_to 7965
  154.6206  140.0617  156.9610 H   0  0  0  0  0  0  0  0  0  0  0  0  # atno 8008 bound_to 7997
  155.1824  140.3300  155.4354 H   0  0  0  0  0  0  0  0  0  0  0  0  # atno 8009 bound_to 7997
  156.2429  140.1895  156.6920 H   0  0  0  0  0  0  0  0  0  0  0  0  # atno 8010 bound_to 7997
  140.5936  143.2346  151.6085 H   0  0  0  0  0  0  0  0  0  0  0  0  # atno 10167 bound_to 10162
  157.4644  130.8216  149.7920 H   0  0  0  0  0  0  0  0  0  0  0  0  # atno 10718 bound_to 10713
  154.6281  135.2883  155.0248 H   0  0  0  0  0  0  0  0  0  0  0  0  # atno 10763 bound_to 10752
  154.1418  135.6517  153.4948 H   0  0  0  0  0  0  0  0  0  0  0  0  # atno 10764 bound_to 10752
  153.0267  135.5335  154.7098 H   0  0  0  0  0  0  0  0  0  0  0  0  # atno 10765 bound_to 10752
  141.1629  133.6896  156.7295 H   0  0  0  0  0  0  0  0  0  0  0  0  # atno 11005 bound_to 11000
  146.2765  139.6766  142.9259 LP  0  0  0  0  0  0  0  0  0  0  0  0  # atno 17320 bound_to 7965
  145.4547  141.0430  143.2785 LP  0  0  0  0  0  0  0  0  0  0  0  0  # atno 17321 bound_to 7965
  139.5243  144.3106  152.0996 LP  0  0  0  0  0  0  0  0  0  0  0  0  # atno 17342 bound_to 10162
  140.2275  144.4403  150.6314 LP  0  0  0  0  0  0  0  0  0  0  0  0  # atno 17343 bound_to 10162
  156.0043  130.3863  150.2488 LP  0  0  0  0  0  0  0  0  0  0  0  0  # atno 17370 bound_to 10713
  157.0667  131.0105  151.3204 LP  0  0  0  0  0  0  0  0  0  0  0  0  # atno 17371 bound_to 10713
  140.2756  134.8358  157.3886 LP  0  0  0  0  0  0  0  0  0  0  0  0  # atno 17394 bound_to 11000
  140.1481  134.4885  155.7981 LP  0  0  0  0  0  0  0  0  0  0  0  0  # atno 17395 bound_to 11000

$$$$
