AV-unprocessed.smi:59|AV-procd|sdf|589|dock1
  -GOLD-   2262016483D 1   1.00000     0.00000
 Structure written by MMmdl.
 29 30  0  0  0  0  0  0  0  0  2 V2000
  147.8406  141.5871  154.7504 C   0  0  0  0  0  0  0  0  0  0  0  0
  148.6912  140.4011  154.7426 N   0  0  0  0  0  0  0  0  0  0  0  0
  148.2735  139.1282  154.7175 C   0  0  0  0  0  0  0  0  0  0  0  0
  147.1038  138.7447  154.7205 O   0  0  0  0  0  0  0  0  0  0  0  0
  149.4548  138.1726  154.6977 C   0  0  2  0  0  0  0  0  0  0  0  0
  149.5684  137.5675  155.9745 O   0  0  0  0  0  0  0  0  0  0  0  0
  150.6188  139.1154  154.2981 C   0  0  2  0  0  0  0  0  0  0  0  0
  152.0387  138.6785  154.7295 C   0  0  0  0  0  0  0  0  0  0  0  0
  152.2326  137.4697  154.9865 O   0  0  0  0  0  0  0  0  0  0  0  0
  152.9382  139.5474  154.7045 O   0  5  0  0  0  0  0  0  0  0  0  0
  150.1453  140.5355  154.7274 C   0  0  2  0  0  0  0  0  0  0  0  0
  150.6642  141.0197  156.0692 C   0  0  0  0  0  0  0  0  0  0  0  0
  150.9550  140.2328  157.2211 C   0  0  0  0  0  0  0  0  0  0  0  0
  151.4035  140.9492  158.2391 N   0  0  0  0  0  0  0  0  0  0  0  0
  151.4102  142.2161  157.7784 N   0  0  0  0  0  0  0  0  0  0  0  0
  151.8456  143.2887  158.6464 C   0  0  0  0  0  0  0  0  0  0  0  0
  150.9723  142.2894  156.4743 C   0  0  0  0  0  0  0  0  0  0  0  0
  149.3039  137.3987  153.9442 H   0  0  0  0  0  0  0  0  0  0  0  0
  150.6435  139.1120  153.2068 H   0  0  0  0  0  0  0  0  0  0  0  0
  150.4141  141.2455  153.9437 H   0  0  0  0  0  0  0  0  0  0  0  0
  146.7802  141.3372  154.8000 H   0  0  0  0  0  0  0  0  0  0  0  0
  148.0066  142.1726  153.8461 H   0  0  0  0  0  0  0  0  0  0  0  0
  148.0745  142.2158  155.6097 H   0  0  0  0  0  0  0  0  0  0  0  0
  149.6557  138.2512  156.6206 H   0  0  0  0  0  0  0  0  0  0  0  0
  150.8524  139.1648  157.3443 H   0  0  0  0  0  0  0  0  0  0  0  0
  151.9087  144.2214  158.0852 H   0  0  0  0  0  0  0  0  0  0  0  0
  152.8279  143.0562  159.0589 H   0  0  0  0  0  0  0  0  0  0  0  0
  151.1330  143.4126  159.4623 H   0  0  0  0  0  0  0  0  0  0  0  0
  150.9137  143.2293  155.9459 H   0  0  0  0  0  0  0  0  0  0  0  0
  1  2  1  0  0  0  0
  1 21  1  0  0  0  0
  1 22  1  0  0  0  0
  1 23  1  0  0  0  0
  2 11  1  0  0  0  0
  2  3  1  0  0  0  0
  3  4  2  0  0  0  0
  3  5  1  0  0  0  0
  5 18  1  0  0  0  0
  5  6  1  0  0  0  0
  5  7  1  0  0  0  0
  6 24  1  0  0  0  0
  7 19  1  0  0  0  0
  7  8  1  0  0  0  0
  7 11  1  0  0  0  0
  8  9  2  0  0  0  0
  8 10  1  0  0  0  0
 11 20  1  0  0  0  0
 11 12  1  0  0  0  0
 12 17  2  0  0  0  0
 12 13  1  0  0  0  0
 13 14  2  0  0  0  0
 13 25  1  0  0  0  0
 14 15  1  0  0  0  0
 15 16  1  0  0  0  0
 15 17  1  0  0  0  0
 16 26  1  0  0  0  0
 16 27  1  0  0  0  0
 16 28  1  0  0  0  0
 17 29  1  0  0  0  0
M  CHG  1  10  -1
M  END
> <s_m_source_file>
AV-unprocessed.smi

> <i_m_source_file_index>
59

> <i_lp_mmshare_version>
43012

> <i_f3d_flags>
0

> <s_epik_input>
W0NIM11OMUMoPU8pW0NASF0oW09IXSlbQ0BIXShDKD1PKVtPSF0pW0NASF0xYzJbY0hdbm4oW0NIM10pW2NIXTI=

> <s_epik_cmdline>
J2VwaWtfcHl0aG9uJywgJy1waCcsICc3LjAnLCAnLXRuJywgJzgnLCAnLW1hJywgJzIwMCcsICctbWV0YWxfYmluZGluZycsICctaW1hZScsICc8aW5maWxlLm1hZT4nLCAnLW9tYWUnLCAnPG91dGZpbGUubWFlPic=

> <r_lp_tautomer_probability>
1

> <r_epik_Ionization_Penalty>
0.00173515

> <r_epik_Ionization_Penalty_Charging>
0.00120567

> <r_epik_Ionization_Penalty_Neutral>
0.000529476

> <r_epik_State_Penalty>
-0

> <r_epik_Charging_Adjusted_Penalty>
0.00120567

> <i_epik_Tot_Q>
-1

> <i_epik_Tot_abs_Q>
1

> <r_epik_Metal_State_Penalty>
-0

> <b_epik_Metal_Only>
0

> <s_lp_Force_Field>
OPLS_2005

> <r_lp_Energy>
8.48109

> <b_lp_Chiralities_Consistent>
1

> <s_lp_Variant>
AV-unprocessed.smi:59-5

> <Gold.Version>
5.8.1

> <Gold.Id.Protein>
6NUR|6NUR_protein|mol2

> <Gold.PLP.Fitness>
41.1813

> <Gold.PLP.PLP>
-29.9675

> <Gold.PLP.part.hbond>
-3.0000

> <Gold.PLP.part.metal>
0.0000

> <Gold.PLP.part.buried>
-2.0444

> <Gold.PLP.part.nonpolar>
-25.1191

> <Gold.PLP.part.repulsive>
0.1857

> <Gold.PLP.ligand.clash>
0.0000

> <Gold.PLP.ligand.torsion>
1.2999

> <Gold.PLP.Chemscore.Hbond>
3.6149

> <Gold.PLP.Chemscore.CHOScore>
0.9668

> <Gold.PLP.Chemscore.Metal>
0.0000

> <Gold.Chemscore.Hbonds>
donor molecule, donor type, donor heavy atom, donor atom, acceptor molecule, acceptor atom, score
      P1  H  7989  7998       L1    10  0.15
      P1  H  7997  8008       L1    10  2.00
      P1  H 10752 10764       L1     9  1.47
      L1  C    17    29       P1  8028  0.97

> <Gold.PLP.Chemscore.Internal.Correction>
0.0684

> <Gold.Rescore>
     Score         DG    S(hbond)    S(metal)    S(lipo)     H(rot)  DE(clash)    DE(int)     intcor
      9.88     -12.43       1.75        0.00      54.70       2.06       0.09       2.46       ----

> <Gold.Chemscore.Fitness>
9.8802

> <Gold.Chemscore.DG>
-12.4271

> <Gold.Chemscore.ZeroCoef>
-5.4800

> <Gold.Chemscore.Hbond>
1.7458

> <Gold.Chemscore.Metal>
0.0000

> <Gold.Chemscore.Lipo>
54.7007

> <Gold.Chemscore.Internal_Hbond>
0.0000

> <Gold.Chemscore.DEClash>
0.0901

> <Gold.Chemscore.DEInternal>
2.4569

> <Gold.Chemscore.Rot>
2.0639

> <Gold.Chemscore.Internal.Correction>
   9.000000E+99

> <Gold.Chemscore.Hbonds>
donor molecule, donor type, donor heavy atom, donor atom, acceptor molecule, acceptor atom, score
      P1  H  7989  7998       L1    10  0.01
      P1  H  7997  8008       L1    10  0.93
      P1  H 10752 10764       L1     9  0.67

> <Gold.Chemscore.Hbond.Weighted>
-5.8308

> <Gold.Chemscore.Metal.Weighted>
-0.0000

> <Gold.Chemscore.Lipo.Weighted>
-6.4000

> <Gold.Chemscore.Internal_Hbond.Weighted>
0.0000

> <Gold.Chemscore.DEClash.Weighted>
0.0901

> <Gold.Chemscore.DEInternal.Weighted>
2.4569

> <Gold.Chemscore.Rot.Weighted>
5.2837

> <Gold.Chemscore.Internal.Correction.Weighted>
   9.000000E+99

> <Gold.Protein.RotatedTorsions>
[ 6907 6896 6895 6894 ] final   81.20 input  -60.11 | X-H torsion
[ 7974 7965 7964 7962 ] final  106.36 input  175.53 | X-H torsion
[ 8008 7997 7996 7995 ] final   -7.60 input   59.86 | X-H torsion
[ 10167 10162 10161 10158 ] final  108.82 input  -65.29 | X-H torsion
[ 10718 10713 10712 10709 ] final   63.44 input   66.30 | X-H torsion
[ 10763 10752 10751 10750 ] final  -62.82 input  -60.55 | X-H torsion
[ 11005 11000 10999 10996 ] final -128.61 input  -57.11 | X-H torsion

> <Gold.Protein.ActiveResidues>
 VAL166  LYS551  ARG553  GLY616  TRP617  ASP618  TYR619  PRO620  LYS621  CYS622 
 ASP623  PHE694  ASN695  SER759  ASP760  ASP761  ALA762  ILE779  LEU786  VAL792 
 PHE793  MET794  SER795  GLU796  ALA797  LYS798  CYS799  TRP800  GLU811  SER814 

> <Gold.Protein.RotatedAtoms>
  152.5260  134.3240  159.9158 H   0  0  0  0  0  0  0  0  0  0  0  0  # atno 6907 bound_to 6896
  151.3189  133.4042  159.2660 H   0  0  0  0  0  0  0  0  0  0  0  0  # atno 6908 bound_to 6896
  150.9975  134.9312  159.7992 H   0  0  0  0  0  0  0  0  0  0  0  0  # atno 6909 bound_to 6896
  145.3076  139.2550  143.3780 H   0  0  0  0  0  0  0  0  0  0  0  0  # atno 7974 bound_to 7965
  154.5823  140.2403  155.8037 H   0  0  0  0  0  0  0  0  0  0  0  0  # atno 8008 bound_to 7997
  156.2188  140.3004  155.9858 H   0  0  0  0  0  0  0  0  0  0  0  0  # atno 8009 bound_to 7997
  155.2520  140.0411  157.2978 H   0  0  0  0  0  0  0  0  0  0  0  0  # atno 8010 bound_to 7997
  139.6815  144.7117  151.1507 H   0  0  0  0  0  0  0  0  0  0  0  0  # atno 10167 bound_to 10162
  157.5971  130.9105  149.9716 H   0  0  0  0  0  0  0  0  0  0  0  0  # atno 10718 bound_to 10713
  154.3057  135.6226  153.5443 H   0  0  0  0  0  0  0  0  0  0  0  0  # atno 10763 bound_to 10752
  152.9835  135.5689  154.5234 H   0  0  0  0  0  0  0  0  0  0  0  0  # atno 10764 bound_to 10752
  154.4874  135.2866  155.1500 H   0  0  0  0  0  0  0  0  0  0  0  0  # atno 10765 bound_to 10752
  140.9501  134.1076  157.4070 H   0  0  0  0  0  0  0  0  0  0  0  0  # atno 11005 bound_to 11000
  146.3129  140.3605  142.8664 LP  0  0  0  0  0  0  0  0  0  0  0  0  # atno 17320 bound_to 7965
  144.9042  140.7679  143.5848 LP  0  0  0  0  0  0  0  0  0  0  0  0  # atno 17321 bound_to 7965
  140.7654  143.5692  150.9014 LP  0  0  0  0  0  0  0  0  0  0  0  0  # atno 17342 bound_to 10162
  139.9364  143.6433  152.3064 LP  0  0  0  0  0  0  0  0  0  0  0  0  # atno 17343 bound_to 10162
  156.1036  130.3654  150.0173 LP  0  0  0  0  0  0  0  0  0  0  0  0  # atno 17370 bound_to 10713
  156.8284  130.9383  151.3638 LP  0  0  0  0  0  0  0  0  0  0  0  0  # atno 17371 bound_to 10713
  139.8845  135.0063  156.6373 LP  0  0  0  0  0  0  0  0  0  0  0  0  # atno 17394 bound_to 11000
  140.7614  133.8814  155.8421 LP  0  0  0  0  0  0  0  0  0  0  0  0  # atno 17395 bound_to 11000

$$$$
