AV-unprocessed.smi:1251|AV-procd|sdf|5262|dock1
  -GOLD-   22720 4373D 1   1.00000     0.00000
 Structure written by MMmdl.
 38 39  0  0  0  0  0  0  0  0  2 V2000
  151.1342  143.3288  157.5750 C   0  0  0  0  0  0  0  0  0  0  0  0
  151.1641  141.8188  157.3162 C   0  0  0  0  0  0  0  0  0  0  0  0
  150.7715  141.4595  155.8763 C   0  0  0  0  0  0  0  0  0  0  0  0
  151.2154  140.0891  155.4872 C   0  0  0  0  0  0  0  0  0  0  0  0
  152.4783  139.6736  155.6135 N   0  0  0  0  0  0  0  0  0  0  0  0
  152.6370  138.3545  155.2146 N   0  0  0  0  0  0  0  0  0  0  0  0
  151.4942  137.7893  154.8002 C   0  0  0  0  0  0  0  0  0  0  0  0
  151.4326  136.5152  154.3797 N   0  5  0  0  0  0  0  0  0  0  0  0
  150.7148  135.6063  155.0783 C   0  0  0  0  0  0  0  0  0  0  0  0
  151.0104  135.1303  156.1768 O   0  0  0  0  0  0  0  0  0  0  0  0
  149.5855  135.2262  154.4643 N   0  0  0  0  0  0  0  0  0  0  0  0
  148.5962  134.2776  154.9745 C   0  0  2  0  0  0  0  0  0  0  0  0
  149.2931  133.0471  155.5774 C   0  0  0  0  0  0  0  0  0  0  0  0
  147.5971  133.8950  153.8634 C   0  0  1  0  0  0  0  0  0  0  0  0
  148.1812  132.9890  152.7645 C   0  0  0  0  0  0  0  0  0  0  0  0
  147.4164  131.6888  152.9176 C   0  0  0  0  0  0  0  0  0  0  0  0
  146.0975  132.1632  153.5084 C   0  0  0  0  0  0  0  0  0  0  0  0
  146.4987  133.1725  154.4202 O   0  0  0  0  0  0  0  0  0  0  0  0
  150.1025  138.8681  154.8939 S   0  0  0  0  0  0  0  0  0  0  0  0
  151.4217  143.5518  158.6026 H   0  0  0  0  0  0  0  0  0  0  0  0
  150.1360  143.7362  157.4126 H   0  0  0  0  0  0  0  0  0  0  0  0
  151.8239  143.8553  156.9148 H   0  0  0  0  0  0  0  0  0  0  0  0
  152.1636  141.4373  157.5282 H   0  0  0  0  0  0  0  0  0  0  0  0
  150.4895  141.3213  158.0139 H   0  0  0  0  0  0  0  0  0  0  0  0
  149.6894  141.5195  155.7570 H   0  0  0  0  0  0  0  0  0  0  0  0
  151.2021  142.1792  155.1789 H   0  0  0  0  0  0  0  0  0  0  0  0
  149.3883  135.6412  153.5654 H   0  0  0  0  0  0  0  0  0  0  0  0
  148.0226  134.7577  155.7692 H   0  0  0  0  0  0  0  0  0  0  0  0
  148.5649  132.3411  155.9767 H   0  0  0  0  0  0  0  0  0  0  0  0
  149.9565  133.3315  156.3947 H   0  0  0  0  0  0  0  0  0  0  0  0
  149.8916  132.5233  154.8315 H   0  0  0  0  0  0  0  0  0  0  0  0
  147.2071  134.8013  153.3978 H   0  0  0  0  0  0  0  0  0  0  0  0
  147.9813  133.4240  151.7846 H   0  0  0  0  0  0  0  0  0  0  0  0
  149.2593  132.8444  152.8451 H   0  0  0  0  0  0  0  0  0  0  0  0
  147.2960  131.1483  151.9786 H   0  0  0  0  0  0  0  0  0  0  0  0
  147.9281  131.0362  153.6262 H   0  0  0  0  0  0  0  0  0  0  0  0
  145.4591  132.5986  152.7382 H   0  0  0  0  0  0  0  0  0  0  0  0
  145.5458  131.3664  154.0074 H   0  0  0  0  0  0  0  0  0  0  0  0
  1  2  1  0  0  0  0
  1 20  1  0  0  0  0
  1 21  1  0  0  0  0
  1 22  1  0  0  0  0
  2  3  1  0  0  0  0
  2 23  1  0  0  0  0
  2 24  1  0  0  0  0
  3  4  1  0  0  0  0
  3 25  1  0  0  0  0
  3 26  1  0  0  0  0
  4 19  1  0  0  0  0
  4  5  2  0  0  0  0
  5  6  1  0  0  0  0
  6  7  2  0  0  0  0
  7  8  1  0  0  0  0
  7 19  1  0  0  0  0
  8  9  1  0  0  0  0
  9 10  2  0  0  0  0
  9 11  1  0  0  0  0
 11 12  1  0  0  0  0
 11 27  1  0  0  0  0
 12 13  1  0  0  0  0
 12 14  1  0  0  0  0
 12 28  1  0  0  0  0
 13 29  1  0  0  0  0
 13 30  1  0  0  0  0
 13 31  1  0  0  0  0
 14 18  1  0  0  0  0
 14 15  1  0  0  0  0
 14 32  1  0  0  0  0
 15 16  1  0  0  0  0
 15 33  1  0  0  0  0
 15 34  1  0  0  0  0
 16 17  1  0  0  0  0
 16 35  1  0  0  0  0
 16 36  1  0  0  0  0
 17 18  1  0  0  0  0
 17 37  1  0  0  0  0
 17 38  1  0  0  0  0
M  CHG  1   8  -1
M  END
> <s_m_source_file>
AV-unprocessed.smi

> <i_m_source_file_index>
1251

> <i_lp_mmshare_version>
43012

> <i_f3d_flags>
0

> <s_epik_input>
W0NIM11bQ0gyXVtDSDJdYzFubmMoczEpW05IXUMoPU8pW05IXVtDQEhdKFtDSDNdKVtDQEBIXTJbQ0gyXVtDSDJdW0NIMl1PMg==

> <s_epik_cmdline>
J2VwaWtfcHl0aG9uJywgJy1waCcsICc3LjAnLCAnLXRuJywgJzgnLCAnLW1hJywgJzIwMCcsICctbWV0YWxfYmluZGluZycsICctaW1hZScsICc8aW5maWxlLm1hZT4nLCAnLW9tYWUnLCAnPG91dGZpbGUubWFlPic=

> <r_lp_tautomer_probability>
1

> <r_epik_Ionization_Penalty>
4.22551

> <r_epik_Ionization_Penalty_Charging>
4.21437

> <r_epik_Ionization_Penalty_Neutral>
0.0111434

> <r_epik_State_Penalty>
4.21389

> <r_epik_Charging_Adjusted_Penalty>
8.42826

> <i_epik_Tot_Q>
-1

> <i_epik_Tot_abs_Q>
1

> <r_epik_Metal_State_Penalty>
0.69377

> <b_epik_Metal_Only>
1

> <s_lp_Force_Field>
OPLS_2005

> <r_lp_Energy>
12.7313

> <b_lp_Chiralities_Consistent>
1

> <s_lp_Variant>
AV-unprocessed.smi:1251-7

> <Gold.Version>
5.8.1

> <Gold.Id.Protein>
6NUR|6NUR_protein|mol2

> <Gold.PLP.Fitness>
39.7515

> <Gold.PLP.PLP>
-30.6953

> <Gold.PLP.part.hbond>
-3.0000

> <Gold.PLP.part.metal>
0.0000

> <Gold.PLP.part.buried>
-3.8626

> <Gold.PLP.part.nonpolar>
-24.5893

> <Gold.PLP.part.repulsive>
1.3132

> <Gold.PLP.ligand.clash>
0.0000

> <Gold.PLP.ligand.torsion>
1.6531

> <Gold.PLP.Chemscore.Hbond>
4.0000

> <Gold.PLP.Chemscore.CHOScore>
0.0000

> <Gold.PLP.Chemscore.Metal>
0.0000

> <Gold.Chemscore.Hbonds>
donor molecule, donor type, donor heavy atom, donor atom, acceptor molecule, acceptor atom, score
      L1  H    11    27       P1  7948  1.00
      P1  H  7997  8010       L1     5  0.83
      P1  H 10752 10764       L1     8  1.70

> <Gold.PLP.Chemscore.Internal.Correction>
0.3625

> <Gold.Rescore>
     Score         DG    S(hbond)    S(metal)    S(lipo)     H(rot)  DE(clash)    DE(int)     intcor
     13.65     -16.93       2.40        0.00      63.14       1.55       0.07       3.21       ----

> <Gold.Chemscore.Fitness>
13.6479

> <Gold.Chemscore.DG>
-16.9291

> <Gold.Chemscore.ZeroCoef>
-5.4800

> <Gold.Chemscore.Hbond>
2.4016

> <Gold.Chemscore.Metal>
0.0000

> <Gold.Chemscore.Lipo>
63.1443

> <Gold.Chemscore.Internal_Hbond>
0.0000

> <Gold.Chemscore.DEClash>
0.0711

> <Gold.Chemscore.DEInternal>
3.2101

> <Gold.Chemscore.Rot>
1.5469

> <Gold.Chemscore.Internal.Correction>
   9.000000E+99

> <Gold.Chemscore.Hbonds>
donor molecule, donor type, donor heavy atom, donor atom, acceptor molecule, acceptor atom, score
      L1  H    11    27       P1  7948  0.35
      P1  H  7997  8010       L1     5  0.27
      P1  H 10752 10764       L1     8  0.14

> <Gold.Chemscore.Hbond.Weighted>
-8.0212

> <Gold.Chemscore.Metal.Weighted>
-0.0000

> <Gold.Chemscore.Lipo.Weighted>
-7.3879

> <Gold.Chemscore.Internal_Hbond.Weighted>
0.0000

> <Gold.Chemscore.DEClash.Weighted>
0.0711

> <Gold.Chemscore.DEInternal.Weighted>
3.2101

> <Gold.Chemscore.Rot.Weighted>
3.9600

> <Gold.Chemscore.Internal.Correction.Weighted>
   9.000000E+99

> <Gold.Protein.RotatedTorsions>
[ 6907 6896 6895 6894 ] final  158.52 input  -60.11 | X-H torsion
[ 7974 7965 7964 7962 ] final   48.09 input  175.53 | X-H torsion
[ 8008 7997 7996 7995 ] final   68.35 input   59.86 | X-H torsion
[ 10167 10162 10161 10158 ] final  -55.88 input  -65.29 | X-H torsion
[ 10718 10713 10712 10709 ] final   11.27 input   66.30 | X-H torsion
[ 10763 10752 10751 10750 ] final  -74.10 input  -60.55 | X-H torsion
[ 11005 11000 10999 10996 ] final -130.19 input  -57.11 | X-H torsion

> <Gold.Protein.ActiveResidues>
 VAL166  LYS551  ARG553  GLY616  TRP617  ASP618  TYR619  PRO620  LYS621  CYS622 
 ASP623  PHE694  ASN695  SER759  ASP760  ASP761  ALA762  ILE779  LEU786  VAL792 
 PHE793  MET794  SER795  GLU796  ALA797  LYS798  CYS799  TRP800  GLU811  SER814 

> <Gold.Protein.RotatedAtoms>
  151.9991  133.3819  159.4174 H   0  0  0  0  0  0  0  0  0  0  0  0  # atno 6907 bound_to 6896
  150.6912  134.3853  159.5061 H   0  0  0  0  0  0  0  0  0  0  0  0  # atno 6908 bound_to 6896
  152.1598  134.8921  160.0593 H   0  0  0  0  0  0  0  0  0  0  0  0  # atno 6909 bound_to 6896
  146.0236  139.4680  142.9881 H   0  0  0  0  0  0  0  0  0  0  0  0  # atno 7974 bound_to 7965
  155.7069  140.3495  155.4957 H   0  0  0  0  0  0  0  0  0  0  0  0  # atno 8008 bound_to 7997
  155.9390  140.1098  157.1093 H   0  0  0  0  0  0  0  0  0  0  0  0  # atno 8009 bound_to 7997
  154.4099  140.1216  156.4889 H   0  0  0  0  0  0  0  0  0  0  0  0  # atno 8010 bound_to 7997
  140.6349  143.2477  151.5143 H   0  0  0  0  0  0  0  0  0  0  0  0  # atno 10167 bound_to 10162
  156.9931  130.6050  149.5688 H   0  0  0  0  0  0  0  0  0  0  0  0  # atno 10718 bound_to 10713
  154.4684  135.5875  153.6305 H   0  0  0  0  0  0  0  0  0  0  0  0  # atno 10763 bound_to 10752
  152.9831  135.6061  154.3397 H   0  0  0  0  0  0  0  0  0  0  0  0  # atno 10764 bound_to 10752
  154.3276  135.2843  155.2467 H   0  0  0  0  0  0  0  0  0  0  0  0  # atno 10765 bound_to 10752
  140.9367  134.1247  157.4187 H   0  0  0  0  0  0  0  0  0  0  0  0  # atno 11005 bound_to 11000
  145.7153  141.0093  143.1431 LP  0  0  0  0  0  0  0  0  0  0  0  0  # atno 17320 bound_to 7965
  144.7000  139.8806  143.7447 LP  0  0  0  0  0  0  0  0  0  0  0  0  # atno 17321 bound_to 7965
  139.5561  144.2273  152.1613 LP  0  0  0  0  0  0  0  0  0  0  0  0  # atno 17342 bound_to 10162
  140.1527  144.5099  150.6678 LP  0  0  0  0  0  0  0  0  0  0  0  0  # atno 17343 bound_to 10162
  156.0199  130.5294  150.8246 LP  0  0  0  0  0  0  0  0  0  0  0  0  # atno 17370 bound_to 10713
  157.5444  131.0942  150.9782 LP  0  0  0  0  0  0  0  0  0  0  0  0  # atno 17371 bound_to 10713
  139.8810  135.0023  156.6119 LP  0  0  0  0  0  0  0  0  0  0  0  0  # atno 17394 bound_to 11000
  140.7789  133.8676  155.8552 LP  0  0  0  0  0  0  0  0  0  0  0  0  # atno 17395 bound_to 11000

$$$$
