AV-unprocessed.smi:788|AV-procd|sdf|3737|dock6
  -GOLD-   22720 1173D 1   1.00000     0.00000
 Structure written by MMmdl.
 34 35  0  0  0  0  0  0  0  0  2 V2000
  150.7413  141.9498  156.2206 C   0  0  0  0  0  0  0  0  0  0  0  0
  151.1056  142.5836  157.5757 C   0  0  2  0  0  0  0  0  0  0  0  0
  151.6667  144.0035  157.3704 C   0  0  0  0  0  0  0  0  0  0  0  0
  152.0166  144.6723  158.7056 C   0  0  0  0  0  0  0  0  0  0  0  0
  153.0125  143.8186  159.5002 C   0  0  0  0  0  0  0  0  0  0  0  0
  152.4743  142.3951  159.7399 C   0  0  2  0  0  0  0  0  0  0  0  0
  153.4854  141.5694  160.5564 C   0  0  0  0  0  0  0  0  0  0  0  0
  152.0936  141.7155  158.3985 C   0  0  1  0  0  0  0  0  0  0  0  0
  151.4999  140.4043  158.6673 N   0  0  0  0  0  0  0  0  0  0  0  0
  151.9084  139.2092  158.1953 C   0  0  0  0  0  0  0  0  0  0  0  0
  152.8717  139.1620  157.4319 O   0  0  0  0  0  0  0  0  0  0  0  0
  151.2228  138.1056  158.5944 N   0  5  0  0  0  0  0  0  0  0  0  0
  151.0792  137.0202  157.8114 C   0  0  0  0  0  0  0  0  0  0  0  0
  150.5225  135.8811  158.2539 N   0  0  0  0  0  0  0  0  0  0  0  0
  150.4784  134.8846  157.2884 N   0  0  0  0  0  0  0  0  0  0  0  0
  150.9967  135.3032  156.1340 C   0  0  0  0  0  0  0  0  0  0  0  0
  151.5876  136.9513  156.1216 S   0  0  0  0  0  0  0  0  0  0  0  0
  151.6300  141.7798  155.6123 H   0  0  0  0  0  0  0  0  0  0  0  0
  150.0687  142.5944  155.6544 H   0  0  0  0  0  0  0  0  0  0  0  0
  150.2362  140.9918  156.3455 H   0  0  0  0  0  0  0  0  0  0  0  0
  150.1812  142.6760  158.1482 H   0  0  0  0  0  0  0  0  0  0  0  0
  152.5568  143.9607  156.7412 H   0  0  0  0  0  0  0  0  0  0  0  0
  150.9412  144.6182  156.8366 H   0  0  0  0  0  0  0  0  0  0  0  0
  152.4369  145.6622  158.5264 H   0  0  0  0  0  0  0  0  0  0  0  0
  151.1092  144.8217  159.2920 H   0  0  0  0  0  0  0  0  0  0  0  0
  153.9600  143.7693  158.9620 H   0  0  0  0  0  0  0  0  0  0  0  0
  153.2247  144.3033  160.4538 H   0  0  0  0  0  0  0  0  0  0  0  0
  151.5681  142.4844  160.3412 H   0  0  0  0  0  0  0  0  0  0  0  0
  154.4044  141.4032  159.9936 H   0  0  0  0  0  0  0  0  0  0  0  0
  153.0828  140.5939  160.8303 H   0  0  0  0  0  0  0  0  0  0  0  0
  153.7499  142.0787  161.4832 H   0  0  0  0  0  0  0  0  0  0  0  0
  153.0083  141.6038  157.8139 H   0  0  0  0  0  0  0  0  0  0  0  0
  150.6997  140.3989  159.2824 H   0  0  0  0  0  0  0  0  0  0  0  0
  151.0306  134.6378  155.2845 H   0  0  0  0  0  0  0  0  0  0  0  0
  1  2  1  0  0  0  0
  1 18  1  0  0  0  0
  1 19  1  0  0  0  0
  1 20  1  0  0  0  0
  2  8  1  0  0  0  0
  2  3  1  0  0  0  0
  2 21  1  0  0  0  0
  3  4  1  0  0  0  0
  3 22  1  0  0  0  0
  3 23  1  0  0  0  0
  4  5  1  0  0  0  0
  4 24  1  0  0  0  0
  4 25  1  0  0  0  0
  5  6  1  0  0  0  0
  5 26  1  0  0  0  0
  5 27  1  0  0  0  0
  6  7  1  0  0  0  0
  6  8  1  0  0  0  0
  6 28  1  0  0  0  0
  7 29  1  0  0  0  0
  7 30  1  0  0  0  0
  7 31  1  0  0  0  0
  8  9  1  0  0  0  0
  8 32  1  0  0  0  0
  9 10  1  0  0  0  0
  9 33  1  0  0  0  0
 10 11  2  0  0  0  0
 10 12  1  0  0  0  0
 12 13  1  0  0  0  0
 13 17  1  0  0  0  0
 13 14  2  0  0  0  0
 14 15  1  0  0  0  0
 15 16  2  0  0  0  0
 16 17  1  0  0  0  0
 16 34  1  0  0  0  0
M  CHG  1  12  -1
M  END
> <s_m_source_file>
AV-unprocessed.smi

> <i_m_source_file_index>
788

> <i_lp_mmshare_version>
43012

> <i_f3d_flags>
0

> <s_epik_input>
W0NIM11bQ0BASF0xW0NIMl1bQ0gyXVtDSDJdW0NAQEhdKFtDSDNdKVtDQEhdMVtOSF1DKD1PKVtOSF1jMm5uW2NIXXMy

> <s_epik_cmdline>
J2VwaWtfcHl0aG9uJywgJy1waCcsICc3LjAnLCAnLXRuJywgJzgnLCAnLW1hJywgJzIwMCcsICctbWV0YWxfYmluZGluZycsICctaW1hZScsICc8aW5maWxlLm1hZT4nLCAnLW9tYWUnLCAnPG91dGZpbGUubWFlPic=

> <r_lp_tautomer_probability>
1

> <r_epik_Ionization_Penalty>
4.58638

> <r_epik_Ionization_Penalty_Charging>
4.53816

> <r_epik_Ionization_Penalty_Neutral>
0.048215

> <r_epik_State_Penalty>
4.53788

> <r_epik_Charging_Adjusted_Penalty>
9.07605

> <i_epik_Tot_Q>
-1

> <i_epik_Tot_abs_Q>
1

> <r_epik_Metal_State_Penalty>
0.838628

> <b_epik_Metal_Only>
1

> <s_lp_Force_Field>
OPLS_2005

> <r_lp_Energy>
11.4954

> <b_lp_Chiralities_Consistent>
1

> <s_lp_Variant>
AV-unprocessed.smi:788-7

> <Gold.Version>
5.8.1

> <Gold.Id.Protein>
6NUR|6NUR_protein|mol2

> <Gold.PLP.Fitness>
40.0470

> <Gold.PLP.PLP>
-35.3247

> <Gold.PLP.part.hbond>
-2.9059

> <Gold.PLP.part.metal>
0.0000

> <Gold.PLP.part.buried>
-4.6312

> <Gold.PLP.part.nonpolar>
-28.4808

> <Gold.PLP.part.repulsive>
0.1470

> <Gold.PLP.ligand.clash>
0.0000

> <Gold.PLP.ligand.torsion>
0.2459

> <Gold.PLP.Chemscore.Hbond>
1.7360

> <Gold.PLP.Chemscore.CHOScore>
0.0000

> <Gold.PLP.Chemscore.Metal>
0.0000

> <Gold.Chemscore.Hbonds>
donor molecule, donor type, donor heavy atom, donor atom, acceptor molecule, acceptor atom, score
      P1  H  6896  6909       L1    14  0.66
      P1  H  7997  8008       L1    11  1.00

> <Gold.PLP.Chemscore.Internal.Correction>
0.0063

> <Gold.Rescore>
     Score         DG    S(hbond)    S(metal)    S(lipo)     H(rot)  DE(clash)    DE(int)     intcor
     17.51     -19.06       1.51        0.00      94.71       1.00       0.00       1.55       ----

> <Gold.Chemscore.Fitness>
17.5073

> <Gold.Chemscore.DG>
-19.0578

> <Gold.Chemscore.ZeroCoef>
-5.4800

> <Gold.Chemscore.Hbond>
1.5141

> <Gold.Chemscore.Metal>
0.0000

> <Gold.Chemscore.Lipo>
94.7070

> <Gold.Chemscore.Internal_Hbond>
0.0000

> <Gold.Chemscore.DEClash>
0.0004

> <Gold.Chemscore.DEInternal>
1.5501

> <Gold.Chemscore.Rot>
1.0000

> <Gold.Chemscore.Internal.Correction>
   9.000000E+99

> <Gold.Chemscore.Hbonds>
donor molecule, donor type, donor heavy atom, donor atom, acceptor molecule, acceptor atom, score
      P1  H  6896  6909       L1    14  0.13
      P1  H  7997  8008       L1    11  1.00

> <Gold.Chemscore.Hbond.Weighted>
-5.0571

> <Gold.Chemscore.Metal.Weighted>
-0.0000

> <Gold.Chemscore.Lipo.Weighted>
-11.0807

> <Gold.Chemscore.Internal_Hbond.Weighted>
0.0000

> <Gold.Chemscore.DEClash.Weighted>
0.0004

> <Gold.Chemscore.DEInternal.Weighted>
1.5501

> <Gold.Chemscore.Rot.Weighted>
2.5600

> <Gold.Chemscore.Internal.Correction.Weighted>
   9.000000E+99

> <Gold.Protein.RotatedTorsions>
[ 6907 6896 6895 6894 ] final   68.25 input  -60.11 | X-H torsion
[ 7974 7965 7964 7962 ] final -125.29 input  175.53 | X-H torsion
[ 8008 7997 7996 7995 ] final  -64.62 input   59.86 | X-H torsion
[ 10167 10162 10161 10158 ] final  110.39 input  -65.29 | X-H torsion
[ 10718 10713 10712 10709 ] final -169.67 input   66.30 | X-H torsion
[ 10763 10752 10751 10750 ] final  149.04 input  -60.55 | X-H torsion
[ 11005 11000 10999 10996 ] final  119.20 input  -57.11 | X-H torsion

> <Gold.Protein.ActiveResidues>
 VAL166  LYS551  ARG553  GLY616  TRP617  ASP618  TYR619  PRO620  LYS621  CYS622 
 ASP623  PHE694  ASN695  SER759  ASP760  ASP761  ALA762  ILE779  LEU786  VAL792 
 PHE793  MET794  SER795  GLU796  ALA797  LYS798  CYS799  TRP800  GLU811  SER814 

> <Gold.Protein.RotatedAtoms>
  152.4608  134.5189  159.9776 H   0  0  0  0  0  0  0  0  0  0  0  0  # atno 6907 bound_to 6896
  151.5239  133.3455  159.2914 H   0  0  0  0  0  0  0  0  0  0  0  0  # atno 6908 bound_to 6896
  150.8570  134.7941  159.7115 H   0  0  0  0  0  0  0  0  0  0  0  0  # atno 6909 bound_to 6896
  144.9992  140.7804  143.4507 H   0  0  0  0  0  0  0  0  0  0  0  0  # atno 7974 bound_to 7965
  154.4622  140.0950  156.6925 H   0  0  0  0  0  0  0  0  0  0  0  0  # atno 8008 bound_to 7997
  155.4960  140.3472  155.4344 H   0  0  0  0  0  0  0  0  0  0  0  0  # atno 8009 bound_to 7997
  156.0892  140.1393  156.9602 H   0  0  0  0  0  0  0  0  0  0  0  0  # atno 8010 bound_to 7997
  139.6692  144.7126  151.1720 H   0  0  0  0  0  0  0  0  0  0  0  0  # atno 10167 bound_to 10162
  156.7150  130.9248  151.3092 H   0  0  0  0  0  0  0  0  0  0  0  0  # atno 10718 bound_to 10713
  154.0646  135.2871  155.3319 H   0  0  0  0  0  0  0  0  0  0  0  0  # atno 10763 bound_to 10752
  154.6786  135.5272  153.8236 H   0  0  0  0  0  0  0  0  0  0  0  0  # atno 10764 bound_to 10752
  153.0509  135.6576  154.0832 H   0  0  0  0  0  0  0  0  0  0  0  0  # atno 10765 bound_to 10752
  139.9137  134.9626  156.7619 H   0  0  0  0  0  0  0  0  0  0  0  0  # atno 11005 bound_to 11000
  145.2177  139.2174  143.5109 LP  0  0  0  0  0  0  0  0  0  0  0  0  # atno 17320 bound_to 7965
  146.3448  140.2029  142.8589 LP  0  0  0  0  0  0  0  0  0  0  0  0  # atno 17321 bound_to 7965
  140.7611  143.5871  150.8834 LP  0  0  0  0  0  0  0  0  0  0  0  0  # atno 17342 bound_to 10162
  139.9535  143.6245  152.3022 LP  0  0  0  0  0  0  0  0  0  0  0  0  # atno 17343 bound_to 10162
  157.6921  130.9244  150.0542 LP  0  0  0  0  0  0  0  0  0  0  0  0  # atno 17370 bound_to 10713
  156.1634  130.3644  149.9266 LP  0  0  0  0  0  0  0  0  0  0  0  0  # atno 17371 bound_to 10713
  140.6690  133.9576  155.7846 LP  0  0  0  0  0  0  0  0  0  0  0  0  # atno 17394 bound_to 11000
  141.0590  134.0374  157.3683 LP  0  0  0  0  0  0  0  0  0  0  0  0  # atno 17395 bound_to 11000

$$$$
