AV-unprocessed.smi:1643|AV-procd|sdf|6576|dock9
  -GOLD-   22720 7263D 1   1.00000     0.00000
 Structure written by MMmdl.
 53 55  0  0  0  0  0  0  0  0  1 V2000
  146.4656  135.1439  153.3122 C   0  0  0  0  0  0  0  0  0  0  0  0
  146.5908  136.0454  154.5429 C   0  0  0  0  0  0  0  0  0  0  0  0
  147.1757  135.6028  155.5319 O   0  0  0  0  0  0  0  0  0  0  0  0
  146.0554  137.2892  154.5051 N   0  0  0  0  0  0  0  0  0  0  0  0
  145.4079  137.8273  153.3034 C   0  0  0  0  0  0  0  0  0  0  0  0
  146.4272  138.5866  152.4384 C   0  0  0  0  0  0  0  0  0  0  0  0
  147.1810  139.7157  153.1727 C   0  0  0  0  0  0  0  0  0  0  0  0
  148.1090  139.2352  154.2061 N   0  0  0  0  0  0  0  0  0  0  0  0
  149.2966  140.0836  154.3318 C   0  0  0  0  0  0  0  0  0  0  0  0
  149.0819  141.4055  155.0979 C   0  0  2  0  0  0  0  0  0  0  0  0
  148.3671  142.2981  154.2653 O   0  0  0  0  0  0  0  0  0  0  0  0
  150.4226  142.0538  155.4901 C   0  0  0  0  0  0  0  0  0  0  0  0
  151.0227  141.4216  156.6509 N   0  0  0  0  0  0  0  0  0  0  0  0
  151.2985  140.1137  156.8180 C   0  0  0  0  0  0  0  0  0  0  0  0
  151.8571  139.7526  157.9699 N   0  0  0  0  0  0  0  0  0  0  0  0
  151.9508  140.9673  158.6281 C   0  0  0  0  0  0  0  0  0  0  0  0
  152.4559  141.2812  159.9088 C   0  0  0  0  0  0  0  0  0  0  0  0
  152.4487  142.6118  160.3848 C   0  0  0  0  0  0  0  0  0  0  0  0
  152.9969  142.9037  161.7707 C   0  0  0  0  0  0  0  0  0  0  0  0
  151.9335  143.6544  159.5731 C   0  0  0  0  0  0  0  0  0  0  0  0
  151.9120  145.0910  160.0644 C   0  0  0  0  0  0  0  0  0  0  0  0
  151.4280  143.3587  158.2900 C   0  0  0  0  0  0  0  0  0  0  0  0
  151.4372  142.0304  157.8296 C   0  0  0  0  0  0  0  0  0  0  0  0
  147.4576  139.1056  155.5185 C   0  0  0  0  0  0  0  0  0  0  0  0
  146.1597  138.2697  155.5917 C   0  0  0  0  0  0  0  0  0  0  0  0
  145.4213  135.0085  153.0314 H   0  0  0  0  0  0  0  0  0  0  0  0
  146.8838  134.1576  153.5155 H   0  0  0  0  0  0  0  0  0  0  0  0
  147.0079  135.5671  152.4667 H   0  0  0  0  0  0  0  0  0  0  0  0
  144.9452  137.0324  152.7164 H   0  0  0  0  0  0  0  0  0  0  0  0
  144.5846  138.4905  153.5709 H   0  0  0  0  0  0  0  0  0  0  0  0
  147.1520  137.8831  152.0259 H   0  0  0  0  0  0  0  0  0  0  0  0
  145.9052  139.0113  151.5808 H   0  0  0  0  0  0  0  0  0  0  0  0
  147.7211  140.2736  152.4099 H   0  0  0  0  0  0  0  0  0  0  0  0
  146.4776  140.4330  153.5981 H   0  0  0  0  0  0  0  0  0  0  0  0
  150.0899  139.5090  154.8124 H   0  0  0  0  0  0  0  0  0  0  0  0
  149.6766  140.3352  153.3402 H   0  0  0  0  0  0  0  0  0  0  0  0
  148.4951  141.2464  156.0017 H   0  0  0  0  0  0  0  0  0  0  0  0
  148.5775  143.1822  154.5238 H   0  0  0  0  0  0  0  0  0  0  0  0
  151.1309  141.9835  154.6636 H   0  0  0  0  0  0  0  0  0  0  0  0
  150.2901  143.1170  155.6970 H   0  0  0  0  0  0  0  0  0  0  0  0
  151.0812  139.3869  156.0487 H   0  0  0  0  0  0  0  0  0  0  0  0
  152.8490  140.4868  160.5263 H   0  0  0  0  0  0  0  0  0  0  0  0
  152.2311  143.3627  162.3961 H   0  0  0  0  0  0  0  0  0  0  0  0
  153.8479  143.5826  161.7092 H   0  0  0  0  0  0  0  0  0  0  0  0
  153.3312  141.9923  162.2669 H   0  0  0  0  0  0  0  0  0  0  0  0
  151.5227  145.7663  159.3016 H   0  0  0  0  0  0  0  0  0  0  0  0
  152.9176  145.4237  160.3230 H   0  0  0  0  0  0  0  0  0  0  0  0
  151.2782  145.1817  160.9470 H   0  0  0  0  0  0  0  0  0  0  0  0
  151.0327  144.1423  157.6605 H   0  0  0  0  0  0  0  0  0  0  0  0
  148.1737  138.6563  156.2074 H   0  0  0  0  0  0  0  0  0  0  0  0
  147.2506  140.0967  155.9250 H   0  0  0  0  0  0  0  0  0  0  0  0
  145.3106  138.9524  155.5519 H   0  0  0  0  0  0  0  0  0  0  0  0
  146.0699  137.7978  156.5704 H   0  0  0  0  0  0  0  0  0  0  0  0
  1  2  1  0  0  0  0
  1 26  1  0  0  0  0
  1 27  1  0  0  0  0
  1 28  1  0  0  0  0
  2  3  2  0  0  0  0
  2  4  1  0  0  0  0
  4 25  1  0  0  0  0
  4  5  1  0  0  0  0
  5  6  1  0  0  0  0
  5 29  1  0  0  0  0
  5 30  1  0  0  0  0
  6  7  1  0  0  0  0
  6 31  1  0  0  0  0
  6 32  1  0  0  0  0
  7  8  1  0  0  0  0
  7 33  1  0  0  0  0
  7 34  1  0  0  0  0
  8  9  1  0  0  0  0
  8 24  1  0  0  0  0
  9 10  1  0  0  0  0
  9 35  1  0  0  0  0
  9 36  1  0  0  0  0
 10 11  1  0  0  0  0
 10 12  1  0  0  0  0
 10 37  1  0  0  0  0
 11 38  1  0  0  0  0
 12 13  1  0  0  0  0
 12 39  1  0  0  0  0
 12 40  1  0  0  0  0
 13 23  1  0  0  0  0
 13 14  1  0  0  0  0
 14 15  2  0  0  0  0
 14 41  1  0  0  0  0
 15 16  1  0  0  0  0
 16 23  2  0  0  0  0
 16 17  1  0  0  0  0
 17 18  2  0  0  0  0
 17 42  1  0  0  0  0
 18 19  1  0  0  0  0
 18 20  1  0  0  0  0
 19 43  1  0  0  0  0
 19 44  1  0  0  0  0
 19 45  1  0  0  0  0
 20 21  1  0  0  0  0
 20 22  2  0  0  0  0
 21 46  1  0  0  0  0
 21 47  1  0  0  0  0
 21 48  1  0  0  0  0
 22 23  1  0  0  0  0
 22 49  1  0  0  0  0
 24 25  1  0  0  0  0
 24 50  1  0  0  0  0
 24 51  1  0  0  0  0
 25 52  1  0  0  0  0
 25 53  1  0  0  0  0
M  END
> <s_m_source_file>
AV-unprocessed.smi

> <i_m_source_file_index>
1643

> <i_lp_mmshare_version>
43012

> <i_f3d_flags>
0

> <s_epik_input>
W0NIM11DKD1PKU4xW0NIMl1bQ0gyXVtDSDJdTihbQ0gyXVtDSDJdMSlbQ0gyXVtDQEhdKFtPSF0pW0NIMl1uKFtjSF1uMiljKGMyMylbY0hdYyhbQ0gzXSljKFtjSF0zKVtDSDNd

> <s_epik_cmdline>
J2VwaWtfcHl0aG9uJywgJy1waCcsICc3LjAnLCAnLXRuJywgJzgnLCAnLW1hJywgJzIwMCcsICctbWV0YWxfYmluZGluZycsICctaW1hZScsICc8aW5maWxlLm1hZT4nLCAnLW9tYWUnLCAnPG91dGZpbGUubWFlPic=

> <r_epik_Ionization_Penalty>
1.17666

> <r_epik_Ionization_Penalty_Charging>
0

> <r_epik_Ionization_Penalty_Neutral>
1.17666

> <r_epik_State_Penalty>
1.20405

> <r_epik_Charging_Adjusted_Penalty>
1.20405

> <i_epik_Tot_Q>
0

> <i_epik_Tot_abs_Q>
0

> <r_epik_Metal_State_Penalty>
1.13307

> <b_epik_Metal_Only>
0

> <s_lp_Force_Field>
OPLS_2005

> <r_lp_Energy>
48.9616

> <b_lp_Chiralities_Consistent>
1

> <s_lp_Variant>
AV-unprocessed.smi:1643-5

> <Gold.Version>
5.8.1

> <Gold.Id.Protein>
6NUR|6NUR_protein|mol2

> <Gold.PLP.Fitness>
46.5196

> <Gold.PLP.PLP>
-44.2161

> <Gold.PLP.part.hbond>
-2.0000

> <Gold.PLP.part.metal>
0.0000

> <Gold.PLP.part.buried>
-2.8974

> <Gold.PLP.part.nonpolar>
-38.8358

> <Gold.PLP.part.repulsive>
0.1690

> <Gold.PLP.ligand.clash>
0.0000

> <Gold.PLP.ligand.torsion>
0.4085

> <Gold.PLP.Chemscore.Hbond>
1.0318

> <Gold.PLP.Chemscore.CHOScore>
0.0000

> <Gold.PLP.Chemscore.Metal>
0.0000

> <Gold.Chemscore.Hbonds>
donor molecule, donor type, donor heavy atom, donor atom, acceptor molecule, acceptor atom, score
      L1  H    11    38       P1  8028  1.00
      P1  H  8011  8017       L1    11  0.01

> <Gold.PLP.Chemscore.Internal.Correction>
0.0250

> <Gold.Rescore>
     Score         DG    S(hbond)    S(metal)    S(lipo)     H(rot)  DE(clash)    DE(int)     intcor
     16.94     -17.57       1.00        0.00     119.96       2.07       0.16       0.46       ----

> <Gold.Chemscore.Fitness>
16.9445

> <Gold.Chemscore.DG>
-17.5685

> <Gold.Chemscore.ZeroCoef>
-5.4800

> <Gold.Chemscore.Hbond>
0.9998

> <Gold.Chemscore.Metal>
0.0000

> <Gold.Chemscore.Lipo>
119.9618

> <Gold.Chemscore.Internal_Hbond>
0.0000

> <Gold.Chemscore.DEClash>
0.1647

> <Gold.Chemscore.DEInternal>
0.4594

> <Gold.Chemscore.Rot>
2.0650

> <Gold.Chemscore.Internal.Correction>
   9.000000E+99

> <Gold.Chemscore.Hbonds>
donor molecule, donor type, donor heavy atom, donor atom, acceptor molecule, acceptor atom, score
      L1  H    11    38       P1  8028  0.99

> <Gold.Chemscore.Hbond.Weighted>
-3.3395

> <Gold.Chemscore.Metal.Weighted>
-0.0000

> <Gold.Chemscore.Lipo.Weighted>
-14.0355

> <Gold.Chemscore.Internal_Hbond.Weighted>
0.0000

> <Gold.Chemscore.DEClash.Weighted>
0.1647

> <Gold.Chemscore.DEInternal.Weighted>
0.4594

> <Gold.Chemscore.Rot.Weighted>
5.2865

> <Gold.Chemscore.Internal.Correction.Weighted>
   9.000000E+99

> <Gold.Protein.RotatedTorsions>
[ 6907 6896 6895 6894 ] final   36.43 input  -60.11 | X-H torsion
[ 7974 7965 7964 7962 ] final  110.35 input  175.53 | X-H torsion
[ 8008 7997 7996 7995 ] final  105.23 input   59.86 | X-H torsion
[ 10167 10162 10161 10158 ] final -100.38 input  -65.29 | X-H torsion
[ 10718 10713 10712 10709 ] final -167.12 input   66.30 | X-H torsion
[ 10763 10752 10751 10750 ] final   54.72 input  -60.55 | X-H torsion
[ 11005 11000 10999 10996 ] final  -23.56 input  -57.11 | X-H torsion

> <Gold.Protein.ActiveResidues>
 VAL166  LYS551  ARG553  GLY616  TRP617  ASP618  TYR619  PRO620  LYS621  CYS622 
 ASP623  PHE694  ASN695  SER759  ASP760  ASP761  ALA762  ILE779  LEU786  VAL792 
 PHE793  MET794  SER795  GLU796  ALA797  LYS798  CYS799  TRP800  GLU811  SER814 

> <Gold.Protein.RotatedAtoms>
  152.1296  134.9145  160.0559 H   0  0  0  0  0  0  0  0  0  0  0  0  # atno 6907 bound_to 6896
  152.0255  133.3911  159.4284 H   0  0  0  0  0  0  0  0  0  0  0  0  # atno 6908 bound_to 6896
  150.6855  134.3500  159.4949 H   0  0  0  0  0  0  0  0  0  0  0  0  # atno 6909 bound_to 6896
  145.2561  139.2720  143.4042 H   0  0  0  0  0  0  0  0  0  0  0  0  # atno 7974 bound_to 7965
  156.1641  140.3134  155.8858 H   0  0  0  0  0  0  0  0  0  0  0  0  # atno 8008 bound_to 7997
  155.3722  140.0482  157.3062 H   0  0  0  0  0  0  0  0  0  0  0  0  # atno 8009 bound_to 7997
  154.5175  140.2186  155.9049 H   0  0  0  0  0  0  0  0  0  0  0  0  # atno 8010 bound_to 7997
  140.2525  143.3462  152.0701 H   0  0  0  0  0  0  0  0  0  0  0  0  # atno 10167 bound_to 10162
  156.6778  130.9110  151.3053 H   0  0  0  0  0  0  0  0  0  0  0  0  # atno 10718 bound_to 10713
  152.9808  135.5735  154.4950 H   0  0  0  0  0  0  0  0  0  0  0  0  # atno 10763 bound_to 10752
  154.4478  135.2777  155.1804 H   0  0  0  0  0  0  0  0  0  0  0  0  # atno 10764 bound_to 10752
  154.3445  135.6222  153.5666 H   0  0  0  0  0  0  0  0  0  0  0  0  # atno 10765 bound_to 10752
  140.8763  133.7685  156.0247 H   0  0  0  0  0  0  0  0  0  0  0  0  # atno 11005 bound_to 11000
  146.3289  140.2965  142.8618 LP  0  0  0  0  0  0  0  0  0  0  0  0  # atno 17320 bound_to 7965
  144.9460  140.8128  143.5601 LP  0  0  0  0  0  0  0  0  0  0  0  0  # atno 17321 bound_to 7965
  139.5042  144.6770  151.6104 LP  0  0  0  0  0  0  0  0  0  0  0  0  # atno 17342 bound_to 10162
  140.6029  143.9577  150.6399 LP  0  0  0  0  0  0  0  0  0  0  0  0  # atno 17343 bound_to 10162
  157.7054  130.9379  150.0915 LP  0  0  0  0  0  0  0  0  0  0  0  0  # atno 17370 bound_to 10713
  156.1890  130.3653  149.8935 LP  0  0  0  0  0  0  0  0  0  0  0  0  # atno 17371 bound_to 10713
  140.8514  134.2949  157.5273 LP  0  0  0  0  0  0  0  0  0  0  0  0  # atno 17394 bound_to 11000
  139.8716  134.9470  156.3954 LP  0  0  0  0  0  0  0  0  0  0  0  0  # atno 17395 bound_to 11000

$$$$
