AV-unprocessed.smi:1406|AV-procd|sdf|5722|dock4
  -GOLD-   22720 5353D 1   1.00000     0.00000
 Structure written by MMmdl.
 41 43  0  0  0  0  0  0  0  0  2 V2000
  150.0572  136.2506  155.6529 C   0  0  0  0  0  0  0  0  0  0  0  0
  150.2898  137.3815  154.6306 C   0  0  1  0  0  0  0  0  0  0  0  0
  149.2231  138.4860  154.7025 C   0  0  0  0  0  0  0  0  0  0  0  0
  149.1057  139.1902  155.7060 O   0  0  0  0  0  0  0  0  0  0  0  0
  148.4649  138.6479  153.6065 N   0  0  0  0  0  0  0  0  0  0  0  0
  147.4894  139.7173  153.4213 C   0  0  2  0  0  0  0  0  0  0  0  0
  147.9998  141.0845  153.8575 C   0  0  0  0  0  0  0  0  0  0  0  0
  146.7101  141.8933  154.0318 C   0  0  0  0  0  0  0  0  0  0  0  0
  145.6357  140.9238  154.3591 N   0  3  2  0  0  0  0  0  0  0  0  0
  144.9209  141.2198  155.6297 C   0  0  0  0  0  0  0  0  0  0  0  0
  144.1163  140.0009  156.1051 C   0  0  0  0  0  0  0  0  0  0  0  0
  145.0333  138.7985  156.3986 C   0  0  0  0  0  0  0  0  0  0  0  0
  146.3667  138.8730  155.6312 C   0  0  0  0  0  0  0  0  0  0  0  0
  146.1983  139.5479  154.2464 C   0  0  2  0  0  0  0  0  0  0  0  0
  151.6196  137.9669  154.7570 N   0  0  0  0  0  0  0  0  0  0  0  0
  152.1087  138.7937  155.6835 C   0  0  0  0  0  0  0  0  0  0  0  0
  153.3928  139.0815  155.5251 N   0  0  0  0  0  0  0  0  0  0  0  0
  153.6551  138.3462  154.4043 C   0  0  0  0  0  0  0  0  0  0  0  0
  152.6313  137.6502  153.9105 N   0  0  0  0  0  0  0  0  0  0  0  0
  149.0821  135.7838  155.5081 H   0  0  0  0  0  0  0  0  0  0  0  0
  150.1017  136.6117  156.6813 H   0  0  0  0  0  0  0  0  0  0  0  0
  150.8106  135.4698  155.5455 H   0  0  0  0  0  0  0  0  0  0  0  0
  150.2262  136.9379  153.6356 H   0  0  0  0  0  0  0  0  0  0  0  0
  148.6162  138.0239  152.8271 H   0  0  0  0  0  0  0  0  0  0  0  0
  147.2273  139.7822  152.3631 H   0  0  0  0  0  0  0  0  0  0  0  0
  148.5197  141.0079  154.8138 H   0  0  0  0  0  0  0  0  0  0  0  0
  148.6844  141.5331  153.1369 H   0  0  0  0  0  0  0  0  0  0  0  0
  146.8262  142.6774  154.7813 H   0  0  0  0  0  0  0  0  0  0  0  0
  146.4455  142.3803  153.0925 H   0  0  0  0  0  0  0  0  0  0  0  0
  145.6340  141.5024  156.4063 H   0  0  0  0  0  0  0  0  0  0  0  0
  144.2650  142.0773  155.4763 H   0  0  0  0  0  0  0  0  0  0  0  0
  143.5328  140.2490  156.9922 H   0  0  0  0  0  0  0  0  0  0  0  0
  143.3948  139.7296  155.3330 H   0  0  0  0  0  0  0  0  0  0  0  0
  145.2437  138.7384  157.4670 H   0  0  0  0  0  0  0  0  0  0  0  0
  144.5058  137.8791  156.1419 H   0  0  0  0  0  0  0  0  0  0  0  0
  147.0923  139.4350  156.2209 H   0  0  0  0  0  0  0  0  0  0  0  0
  146.7716  137.8657  155.5351 H   0  0  0  0  0  0  0  0  0  0  0  0
  145.4936  138.9438  153.6730 H   0  0  0  0  0  0  0  0  0  0  0  0
  151.5157  139.1850  156.4971 H   0  0  0  0  0  0  0  0  0  0  0  0
  154.6316  138.3153  153.9440 H   0  0  0  0  0  0  0  0  0  0  0  0
  144.9515  141.0003  153.6196 H   0  0  0  0  0  0  0  0  0  0  0  0
  1  2  1  0  0  0  0
  1 20  1  0  0  0  0
  1 21  1  0  0  0  0
  1 22  1  0  0  0  0
  2  3  1  0  0  0  0
  2 15  1  0  0  0  0
  2 23  1  0  0  0  0
  3  4  2  0  0  0  0
  3  5  1  0  0  0  0
  5  6  1  0  0  0  0
  5 24  1  0  0  0  0
  6 14  1  0  0  0  0
  6  7  1  0  0  0  0
  6 25  1  0  0  0  0
  7  8  1  0  0  0  0
  7 26  1  0  0  0  0
  7 27  1  0  0  0  0
  8  9  1  0  0  0  0
  8 28  1  0  0  0  0
  8 29  1  0  0  0  0
  9 14  1  0  0  0  0
  9 10  1  0  0  0  0
  9 41  1  0  0  0  0
 10 11  1  0  0  0  0
 10 30  1  0  0  0  0
 10 31  1  0  0  0  0
 11 12  1  0  0  0  0
 11 32  1  0  0  0  0
 11 33  1  0  0  0  0
 12 13  1  0  0  0  0
 12 34  1  0  0  0  0
 12 35  1  0  0  0  0
 13 14  1  0  0  0  0
 13 36  1  0  0  0  0
 13 37  1  0  0  0  0
 14 38  1  0  0  0  0
 15 19  1  0  0  0  0
 15 16  1  0  0  0  0
 16 17  2  0  0  0  0
 16 39  1  0  0  0  0
 17 18  1  0  0  0  0
 18 19  2  0  0  0  0
 18 40  1  0  0  0  0
M  CHG  1   9   1
M  END
> <s_m_source_file>
AV-unprocessed.smi

> <i_m_source_file_index>
1406

> <i_lp_mmshare_version>
43012

> <i_f3d_flags>
0

> <s_epik_input>
bjFbY0hdbltjSF1uMVtDQEhdKFtDSDNdKUMoPU8pW05IXVtDQEhdKFtDSDJdW0NIMl0yKVtDQEBIXShOMjMpW0NIMl1bQ0gyXVtDSDJdW0NIMl0z

> <s_epik_cmdline>
J2VwaWtfcHl0aG9uJywgJy1waCcsICc3LjAnLCAnLXRuJywgJzgnLCAnLW1hJywgJzIwMCcsICctbWV0YWxfYmluZGluZycsICctaW1hZScsICc8aW5maWxlLm1hZT4nLCAnLW9tYWUnLCAnPG91dGZpbGUubWFlPic=

> <r_lp_tautomer_probability>
1

> <r_epik_Ionization_Penalty>
0.00197066

> <r_epik_Ionization_Penalty_Charging>
0.00196223

> <r_epik_Ionization_Penalty_Neutral>
8.43107e-06

> <r_epik_State_Penalty>
0.00133866

> <r_epik_Charging_Adjusted_Penalty>
0.00330089

> <i_epik_Tot_Q>
1

> <i_epik_Tot_abs_Q>
1

> <r_epik_Metal_State_Penalty>
-0

> <b_epik_Metal_Only>
0

> <s_lp_Force_Field>
OPLS_2005

> <r_lp_Energy>
45.0436

> <b_lp_Chiralities_Consistent>
1

> <s_lp_Variant>
AV-unprocessed.smi:1406-14

> <Gold.Version>
5.8.1

> <Gold.Id.Protein>
6NUR|6NUR_protein|mol2

> <Gold.PLP.Fitness>
38.3032

> <Gold.PLP.PLP>
-25.3354

> <Gold.PLP.part.hbond>
-4.8693

> <Gold.PLP.part.metal>
0.0000

> <Gold.PLP.part.buried>
-0.1304

> <Gold.PLP.part.nonpolar>
-21.3342

> <Gold.PLP.part.repulsive>
0.1936

> <Gold.PLP.ligand.clash>
0.0000

> <Gold.PLP.ligand.torsion>
0.5138

> <Gold.PLP.Chemscore.Hbond>
4.6310

> <Gold.PLP.Chemscore.CHOScore>
0.0000

> <Gold.PLP.Chemscore.Metal>
0.0000

> <Gold.Chemscore.Hbonds>
donor molecule, donor type, donor heavy atom, donor atom, acceptor molecule, acceptor atom, score
      L1  H     5    24       P1  7948  0.98
      L1  H     9    41       P1 10175  2.00
      P1  H  7997  8010       L1    17  1.00
      P1  H 10752 10765       L1    19  0.66

> <Gold.PLP.Chemscore.Internal.Correction>
0.1025

> <Gold.Rescore>
     Score         DG    S(hbond)    S(metal)    S(lipo)     H(rot)  DE(clash)    DE(int)     intcor
     11.34     -15.98       3.37        0.00      34.69       1.89       0.04       4.60       ----

> <Gold.Chemscore.Fitness>
11.3363

> <Gold.Chemscore.DG>
-15.9794

> <Gold.Chemscore.ZeroCoef>
-5.4800

> <Gold.Chemscore.Hbond>
3.3744

> <Gold.Chemscore.Metal>
0.0000

> <Gold.Chemscore.Lipo>
34.6880

> <Gold.Chemscore.Internal_Hbond>
0.0000

> <Gold.Chemscore.DEClash>
0.0439

> <Gold.Chemscore.DEInternal>
4.5991

> <Gold.Chemscore.Rot>
1.8865

> <Gold.Chemscore.Internal.Correction>
   9.000000E+99

> <Gold.Chemscore.Hbonds>
donor molecule, donor type, donor heavy atom, donor atom, acceptor molecule, acceptor atom, score
      L1  H     5    24       P1  7948  0.90
      L1  H     9    41       P1 10175  0.70
      P1  H  7997  8010       L1    17  0.93
      P1  H 10752 10765       L1    19  0.36

> <Gold.Chemscore.Hbond.Weighted>
-11.2704

> <Gold.Chemscore.Metal.Weighted>
-0.0000

> <Gold.Chemscore.Lipo.Weighted>
-4.0585

> <Gold.Chemscore.Internal_Hbond.Weighted>
0.0000

> <Gold.Chemscore.DEClash.Weighted>
0.0439

> <Gold.Chemscore.DEInternal.Weighted>
4.5991

> <Gold.Chemscore.Rot.Weighted>
4.8295

> <Gold.Chemscore.Internal.Correction.Weighted>
   9.000000E+99

> <Gold.Protein.RotatedTorsions>
[ 6907 6896 6895 6894 ] final   98.95 input  -60.11 | X-H torsion
[ 7974 7965 7964 7962 ] final -113.24 input  175.53 | X-H torsion
[ 8008 7997 7996 7995 ] final   83.52 input   59.86 | X-H torsion
[ 10167 10162 10161 10158 ] final  -25.93 input  -65.29 | X-H torsion
[ 10718 10713 10712 10709 ] final -126.98 input   66.30 | X-H torsion
[ 10763 10752 10751 10750 ] final  144.79 input  -60.55 | X-H torsion
[ 11005 11000 10999 10996 ] final   40.95 input  -57.11 | X-H torsion

> <Gold.Protein.ActiveResidues>
 VAL166  LYS551  ARG553  GLY616  TRP617  ASP618  TYR619  PRO620  LYS621  CYS622 
 ASP623  PHE694  ASN695  SER759  ASP760  ASP761  ALA762  ILE779  LEU786  VAL792 
 PHE793  MET794  SER795  GLU796  ALA797  LYS798  CYS799  TRP800  GLU811  SER814 

> <Gold.Protein.RotatedAtoms>
  152.5400  134.0503  159.8106 H   0  0  0  0  0  0  0  0  0  0  0  0  # atno 6907 bound_to 6896
  151.0645  133.5509  159.2639 H   0  0  0  0  0  0  0  0  0  0  0  0  # atno 6908 bound_to 6896
  151.2395  135.0592  159.9073 H   0  0  0  0  0  0  0  0  0  0  0  0  # atno 6909 bound_to 6896
  145.1343  140.8742  143.3739 H   0  0  0  0  0  0  0  0  0  0  0  0  # atno 7974 bound_to 7965
  155.9250  140.3418  155.6203 H   0  0  0  0  0  0  0  0  0  0  0  0  # atno 8008 bound_to 7997
  155.7227  140.0785  157.2342 H   0  0  0  0  0  0  0  0  0  0  0  0  # atno 8009 bound_to 7997
  154.4075  140.1602  156.2407 H   0  0  0  0  0  0  0  0  0  0  0  0  # atno 8010 bound_to 7997
  140.7285  143.4222  151.0933 H   0  0  0  0  0  0  0  0  0  0  0  0  # atno 10167 bound_to 10162
  156.1815  130.6735  151.0310 H   0  0  0  0  0  0  0  0  0  0  0  0  # atno 10718 bound_to 10713
  153.9947  135.2929  155.3408 H   0  0  0  0  0  0  0  0  0  0  0  0  # atno 10763 bound_to 10752
  154.7194  135.5115  153.8792 H   0  0  0  0  0  0  0  0  0  0  0  0  # atno 10764 bound_to 10752
  153.0793  135.6674  154.0195 H   0  0  0  0  0  0  0  0  0  0  0  0  # atno 10765 bound_to 10752
  140.1881  134.4020  155.8161 H   0  0  0  0  0  0  0  0  0  0  0  0  # atno 11005 bound_to 11000
  145.0601  139.3112  143.5885 LP  0  0  0  0  0  0  0  0  0  0  0  0  # atno 17320 bound_to 7965
  146.3511  140.0040  142.8673 LP  0  0  0  0  0  0  0  0  0  0  0  0  # atno 17321 bound_to 7965
  139.7869  143.8274  152.3146 LP  0  0  0  0  0  0  0  0  0  0  0  0  # atno 17342 bound_to 10162
  139.8244  144.7281  150.9530 LP  0  0  0  0  0  0  0  0  0  0  0  0  # atno 17343 bound_to 10162
  157.6871  131.0821  150.7212 LP  0  0  0  0  0  0  0  0  0  0  0  0  # atno 17370 bound_to 10713
  156.7269  130.4697  149.5509 LP  0  0  0  0  0  0  0  0  0  0  0  0  # atno 17371 bound_to 10713
  141.2225  133.7033  156.8048 LP  0  0  0  0  0  0  0  0  0  0  0  0  # atno 17394 bound_to 11000
  140.2190  134.8771  157.3357 LP  0  0  0  0  0  0  0  0  0  0  0  0  # atno 17395 bound_to 11000

$$$$
