AV-unprocessed.smi:1211|AV-procd|sdf|5079|dock5
  -GOLD-   22720 4133D 1   1.00000     0.00000
 Structure written by MMmdl.
 47 49  0  0  0  0  0  0  0  0  1 V2000
  147.8028  133.1554  152.4218 C   0  0  0  0  0  0  0  0  0  0  0  0
  146.5095  133.1869  151.6237 C   0  0  0  0  0  0  0  0  0  0  0  0
  145.9458  131.9740  151.1740 C   0  0  0  0  0  0  0  0  0  0  0  0
  144.7511  132.0052  150.4349 C   0  0  0  0  0  0  0  0  0  0  0  0
  144.1663  133.2565  150.1761 C   0  0  0  0  0  0  0  0  0  0  0  0
  144.6976  134.4204  150.6026 N   0  0  0  0  0  0  0  0  0  0  0  0
  145.8514  134.4081  151.3162 C   0  0  0  0  0  0  0  0  0  0  0  0
  146.4682  135.5964  151.7993 N   0  0  0  0  0  0  0  0  0  0  0  0
  145.8851  136.6888  152.3236 C   0  0  0  0  0  0  0  0  0  0  0  0
  144.6734  136.8474  152.4748 O   0  0  0  0  0  0  0  0  0  0  0  0
  146.8013  137.6038  152.6709 N   0  0  0  0  0  0  0  0  0  0  0  0
  146.5229  138.9084  153.2708 C   0  0  0  0  0  0  0  0  0  0  0  0
  146.8075  138.9437  154.8096 C   0  0  2  0  0  0  0  0  0  0  0  0
  148.2396  139.2917  155.0661 N   0  0  0  0  0  0  0  0  0  0  0  0
  148.6186  140.6913  154.8227 C   0  0  0  0  0  0  0  0  0  0  0  0
  150.0859  140.9746  155.1881 C   0  0  0  0  0  0  0  0  0  0  0  0
  150.9406  140.0959  154.4695 O   0  0  0  0  0  0  0  0  0  0  0  0
  150.6563  138.7308  154.7423 C   0  0  0  0  0  0  0  0  0  0  0  0
  149.1969  138.4222  154.3686 C   0  0  0  0  0  0  0  0  0  0  0  0
  146.3886  137.5698  155.4094 C   0  0  0  0  0  0  0  0  0  0  0  0
  144.8611  137.4505  155.3811 C   0  0  0  0  0  0  0  0  0  0  0  0
  144.1886  139.1124  155.6182 S   0  0  0  0  0  0  0  0  0  0  0  0
  145.8027  139.9270  155.4630 C   0  0  0  0  0  0  0  0  0  0  0  0
  148.1657  132.1352  152.5496 H   0  0  0  0  0  0  0  0  0  0  0  0
  147.6503  133.5843  153.4128 H   0  0  0  0  0  0  0  0  0  0  0  0
  148.5798  133.7259  151.9123 H   0  0  0  0  0  0  0  0  0  0  0  0
  146.4212  131.0287  151.3909 H   0  0  0  0  0  0  0  0  0  0  0  0
  144.2953  131.0944  150.0758 H   0  0  0  0  0  0  0  0  0  0  0  0
  143.2480  133.3260  149.6122 H   0  0  0  0  0  0  0  0  0  0  0  0
  147.4749  135.6172  151.7321 H   0  0  0  0  0  0  0  0  0  0  0  0
  147.7737  137.3798  152.5193 H   0  0  0  0  0  0  0  0  0  0  0  0
  147.1297  139.6444  152.7457 H   0  0  0  0  0  0  0  0  0  0  0  0
  145.5039  139.2173  153.0397 H   0  0  0  0  0  0  0  0  0  0  0  0
  148.4618  140.9564  153.7778 H   0  0  0  0  0  0  0  0  0  0  0  0
  148.0163  141.3704  155.4214 H   0  0  0  0  0  0  0  0  0  0  0  0
  150.3451  142.0038  154.9396 H   0  0  0  0  0  0  0  0  0  0  0  0
  150.2464  140.8548  156.2606 H   0  0  0  0  0  0  0  0  0  0  0  0
  151.3353  138.1041  154.1640 H   0  0  0  0  0  0  0  0  0  0  0  0
  150.8398  138.5150  155.7961 H   0  0  0  0  0  0  0  0  0  0  0  0
  149.0199  137.3751  154.6034 H   0  0  0  0  0  0  0  0  0  0  0  0
  149.0779  138.5276  153.2898 H   0  0  0  0  0  0  0  0  0  0  0  0
  146.8694  136.7250  154.9166 H   0  0  0  0  0  0  0  0  0  0  0  0
  146.6569  137.5011  156.4611 H   0  0  0  0  0  0  0  0  0  0  0  0
  144.5186  137.0645  154.4211 H   0  0  0  0  0  0  0  0  0  0  0  0
  144.4935  136.7723  156.1515 H   0  0  0  0  0  0  0  0  0  0  0  0
  146.1058  140.1957  156.4734 H   0  0  0  0  0  0  0  0  0  0  0  0
  145.7034  140.8584  154.9048 H   0  0  0  0  0  0  0  0  0  0  0  0
  1  2  1  0  0  0  0
  1 24  1  0  0  0  0
  1 25  1  0  0  0  0
  1 26  1  0  0  0  0
  2  7  1  0  0  0  0
  2  3  2  0  0  0  0
  3  4  1  0  0  0  0
  3 27  1  0  0  0  0
  4  5  2  0  0  0  0
  4 28  1  0  0  0  0
  5  6  1  0  0  0  0
  5 29  1  0  0  0  0
  6  7  2  0  0  0  0
  7  8  1  0  0  0  0
  8  9  1  0  0  0  0
  8 30  1  0  0  0  0
  9 10  2  0  0  0  0
  9 11  1  0  0  0  0
 11 12  1  0  0  0  0
 11 31  1  0  0  0  0
 12 13  1  0  0  0  0
 12 32  1  0  0  0  0
 12 33  1  0  0  0  0
 13 23  1  0  0  0  0
 13 14  1  0  0  0  0
 13 20  1  0  0  0  0
 14 19  1  0  0  0  0
 14 15  1  0  0  0  0
 15 16  1  0  0  0  0
 15 34  1  0  0  0  0
 15 35  1  0  0  0  0
 16 17  1  0  0  0  0
 16 36  1  0  0  0  0
 16 37  1  0  0  0  0
 17 18  1  0  0  0  0
 18 19  1  0  0  0  0
 18 38  1  0  0  0  0
 18 39  1  0  0  0  0
 19 40  1  0  0  0  0
 19 41  1  0  0  0  0
 20 21  1  0  0  0  0
 20 42  1  0  0  0  0
 20 43  1  0  0  0  0
 21 22  1  0  0  0  0
 21 44  1  0  0  0  0
 21 45  1  0  0  0  0
 22 23  1  0  0  0  0
 23 46  1  0  0  0  0
 23 47  1  0  0  0  0
M  END
> <s_m_source_file>
AV-unprocessed.smi

> <i_m_source_file_index>
1211

> <i_lp_mmshare_version>
43012

> <i_f3d_flags>
0

> <s_epik_input>
W0NIM11jMVtjSF1bY0hdW2NIXW5jMVtOSF1DKD1PKVtOSF1bQ0gyXVtDQF0yKFtDSDJdW0NIMl1TW0NIMl0yKU4zW0NIMl1bQ0gyXU9bQ0gyXVtDSDJdMw==

> <s_epik_cmdline>
J2VwaWtfcHl0aG9uJywgJy1waCcsICc3LjAnLCAnLXRuJywgJzgnLCAnLW1hJywgJzIwMCcsICctbWV0YWxfYmluZGluZycsICctaW1hZScsICc8aW5maWxlLm1hZT4nLCAnLW9tYWUnLCAnPG91dGZpbGUubWFlPic=

> <r_epik_Ionization_Penalty>
0.0195636

> <r_epik_Ionization_Penalty_Charging>
0

> <r_epik_Ionization_Penalty_Neutral>
0.0195636

> <r_epik_State_Penalty>
0.0155843

> <r_epik_Charging_Adjusted_Penalty>
0.0155843

> <i_epik_Tot_Q>
0

> <i_epik_Tot_abs_Q>
0

> <r_epik_Metal_State_Penalty>
0.0155842

> <b_epik_Metal_Only>
0

> <s_lp_Force_Field>
OPLS_2005

> <r_lp_Energy>
55.6776

> <b_lp_Chiralities_Consistent>
1

> <s_lp_Variant>
AV-unprocessed.smi:1211-2

> <Gold.Version>
5.8.1

> <Gold.Id.Protein>
6NUR|6NUR_protein|mol2

> <Gold.PLP.Fitness>
42.4600

> <Gold.PLP.PLP>
-32.6243

> <Gold.PLP.part.hbond>
-3.0000

> <Gold.PLP.part.metal>
0.0000

> <Gold.PLP.part.buried>
-5.9230

> <Gold.PLP.part.nonpolar>
-25.7433

> <Gold.PLP.part.repulsive>
0.6875

> <Gold.PLP.ligand.clash>
0.0000

> <Gold.PLP.ligand.torsion>
1.0621

> <Gold.PLP.Chemscore.Hbond>
2.9600

> <Gold.PLP.Chemscore.CHOScore>
1.0000

> <Gold.PLP.Chemscore.Metal>
0.0000

> <Gold.Chemscore.Hbonds>
donor molecule, donor type, donor heavy atom, donor atom, acceptor molecule, acceptor atom, score
      L1  H     8    30       P1  7948  1.00
      L1  H    11    31       P1  7948  0.94
      P1  H  7989  7998       L1    17  0.73
      L1  C     5    29       P1 10186  1.00

> <Gold.PLP.Chemscore.Internal.Correction>
0.0800

> <Gold.Rescore>
     Score         DG    S(hbond)    S(metal)    S(lipo)     H(rot)  DE(clash)    DE(int)     intcor
     17.66     -19.51       2.84        0.00      70.25       1.44       0.17       1.69       ----

> <Gold.Chemscore.Fitness>
17.6556

> <Gold.Chemscore.DG>
-19.5115

> <Gold.Chemscore.ZeroCoef>
-5.4800

> <Gold.Chemscore.Hbond>
2.8441

> <Gold.Chemscore.Metal>
0.0000

> <Gold.Chemscore.Lipo>
70.2541

> <Gold.Chemscore.Internal_Hbond>
0.0000

> <Gold.Chemscore.DEClash>
0.1690

> <Gold.Chemscore.DEInternal>
1.6868

> <Gold.Chemscore.Rot>
1.4405

> <Gold.Chemscore.Internal.Correction>
   9.000000E+99

> <Gold.Chemscore.Hbonds>
donor molecule, donor type, donor heavy atom, donor atom, acceptor molecule, acceptor atom, score
      L1  H     8    30       P1  7948  0.96
      L1  H    11    31       P1  7948  0.91
      P1  H  7989  7998       L1    17  0.48

> <Gold.Chemscore.Hbond.Weighted>
-9.4994

> <Gold.Chemscore.Metal.Weighted>
-0.0000

> <Gold.Chemscore.Lipo.Weighted>
-8.2197

> <Gold.Chemscore.Internal_Hbond.Weighted>
0.0000

> <Gold.Chemscore.DEClash.Weighted>
0.1690

> <Gold.Chemscore.DEInternal.Weighted>
1.6868

> <Gold.Chemscore.Rot.Weighted>
3.6876

> <Gold.Chemscore.Internal.Correction.Weighted>
   9.000000E+99

> <Gold.Protein.RotatedTorsions>
[ 6907 6896 6895 6894 ] final   40.47 input  -60.11 | X-H torsion
[ 7974 7965 7964 7962 ] final -126.29 input  175.53 | X-H torsion
[ 8008 7997 7996 7995 ] final  -18.96 input   59.86 | X-H torsion
[ 10167 10162 10161 10158 ] final  154.98 input  -65.29 | X-H torsion
[ 10718 10713 10712 10709 ] final  155.84 input   66.30 | X-H torsion
[ 10763 10752 10751 10750 ] final   79.90 input  -60.55 | X-H torsion
[ 11005 11000 10999 10996 ] final  101.95 input  -57.11 | X-H torsion

> <Gold.Protein.ActiveResidues>
 VAL166  LYS551  ARG553  GLY616  TRP617  ASP618  TYR619  PRO620  LYS621  CYS622 
 ASP623  PHE694  ASN695  SER759  ASP760  ASP761  ALA762  ILE779  LEU786  VAL792 
 PHE793  MET794  SER795  GLU796  ALA797  LYS798  CYS799  TRP800  GLU811  SER814 

> <Gold.Protein.RotatedAtoms>
  152.1829  134.8739  160.0524 H   0  0  0  0  0  0  0  0  0  0  0  0  # atno 6907 bound_to 6896
  151.9656  133.3704  159.4060 H   0  0  0  0  0  0  0  0  0  0  0  0  # atno 6908 bound_to 6896
  150.6921  134.4117  159.5209 H   0  0  0  0  0  0  0  0  0  0  0  0  # atno 6909 bound_to 6896
  144.9888  140.7712  143.4567 H   0  0  0  0  0  0  0  0  0  0  0  0  # atno 7974 bound_to 7965
  154.4870  140.2102  155.9634 H   0  0  0  0  0  0  0  0  0  0  0  0  # atno 8008 bound_to 7997
  156.1250  140.3207  155.8232 H   0  0  0  0  0  0  0  0  0  0  0  0  # atno 8009 bound_to 7997
  155.4400  140.0509  157.3002 H   0  0  0  0  0  0  0  0  0  0  0  0  # atno 8010 bound_to 7997
  139.4822  144.5139  151.7982 H   0  0  0  0  0  0  0  0  0  0  0  0  # atno 10167 bound_to 10162
  157.2130  131.0702  151.1958 H   0  0  0  0  0  0  0  0  0  0  0  0  # atno 10718 bound_to 10713
  153.0990  135.4822  154.8831 H   0  0  0  0  0  0  0  0  0  0  0  0  # atno 10763 bound_to 10752
  154.7357  135.3070  154.8818 H   0  0  0  0  0  0  0  0  0  0  0  0  # atno 10764 bound_to 10752
  153.9441  135.6831  153.4797 H   0  0  0  0  0  0  0  0  0  0  0  0  # atno 10765 bound_to 10752
  139.8775  134.9204  156.4985 H   0  0  0  0  0  0  0  0  0  0  0  0  # atno 11005 bound_to 11000
  145.2315  139.2113  143.5040 LP  0  0  0  0  0  0  0  0  0  0  0  0  # atno 17320 bound_to 7965
  146.3426  140.2193  142.8591 LP  0  0  0  0  0  0  0  0  0  0  0  0  # atno 17321 bound_to 7965
  140.4645  144.1675  150.5910 LP  0  0  0  0  0  0  0  0  0  0  0  0  # atno 17342 bound_to 10162
  140.4449  143.2511  151.9424 LP  0  0  0  0  0  0  0  0  0  0  0  0  # atno 17343 bound_to 10162
  157.3653  130.7152  149.6528 LP  0  0  0  0  0  0  0  0  0  0  0  0  # atno 17370 bound_to 10713
  155.9689  130.4214  150.4468 LP  0  0  0  0  0  0  0  0  0  0  0  0  # atno 17371 bound_to 10713
  140.8607  133.8062  155.9262 LP  0  0  0  0  0  0  0  0  0  0  0  0  # atno 17394 bound_to 11000
  140.9052  134.2329  157.5018 LP  0  0  0  0  0  0  0  0  0  0  0  0  # atno 17395 bound_to 11000

$$$$
