AV-unprocessed.smi:1691|AV-procd|sdf|6777|dock1
  -GOLD-   22720 7533D 1   1.00000     0.00000
 Structure written by MMmdl.
 43 44  0  0  0  0  0  0  0  0  1 V2000
  146.6337  133.9577  151.4675 C   0  0  0  0  0  0  0  0  0  0  0  0
  145.1517  134.3782  151.5258 C   0  0  0  0  0  0  0  0  0  0  0  0
  144.4227  134.0219  150.2188 C   0  0  0  0  0  0  0  0  0  0  0  0
  144.8520  135.8379  151.9945 C   0  0  1  0  0  0  0  0  0  0  0  0
  145.4979  136.9311  151.0960 C   0  0  0  0  0  0  0  0  0  0  0  0
  146.7129  137.4968  151.6740 N   0  0  0  0  0  0  0  0  0  0  0  0
  146.8045  138.7131  152.2296 C   0  0  0  0  0  0  0  0  0  0  0  0
  145.8600  139.4995  152.3055 O   0  0  0  0  0  0  0  0  0  0  0  0
  148.0454  138.9492  152.6858 N   0  0  0  0  0  0  0  0  0  0  0  0
  148.5142  140.1162  153.3407 C   0  0  0  0  0  0  0  0  0  0  0  0
  149.7399  140.2065  154.0547 C   0  0  0  0  0  0  0  0  0  0  0  0
  149.9157  141.4180  154.5625 N   0  0  0  0  0  0  0  0  0  0  0  0
  148.8138  142.1020  154.1798 N   0  0  0  0  0  0  0  0  0  0  0  0
  147.9332  141.3498  153.4340 C   0  0  0  0  0  0  0  0  0  0  0  0
  143.4475  136.0972  152.3678 N   0  0  0  0  0  0  0  0  0  0  0  0
  143.1782  137.4199  152.9302 C   0  0  0  0  0  0  0  0  0  0  0  0
  141.6776  137.6279  153.2001 C   0  0  0  0  0  0  0  0  0  0  0  0
  141.1943  136.5978  154.0560 O   0  0  0  0  0  0  0  0  0  0  0  0
  141.3957  135.2962  153.5153 C   0  0  0  0  0  0  0  0  0  0  0  0
  142.8951  135.0749  153.2548 C   0  0  0  0  0  0  0  0  0  0  0  0
  148.6792  143.0710  154.4317 H   0  0  0  0  0  0  0  0  0  0  0  0
  147.1600  134.3917  150.6205 H   0  0  0  0  0  0  0  0  0  0  0  0
  146.7111  132.8762  151.3535 H   0  0  0  0  0  0  0  0  0  0  0  0
  147.1749  134.2161  152.3765 H   0  0  0  0  0  0  0  0  0  0  0  0
  144.7065  133.7312  152.2826 H   0  0  0  0  0  0  0  0  0  0  0  0
  144.8325  134.5695  149.3694 H   0  0  0  0  0  0  0  0  0  0  0  0
  143.3596  134.2551  150.2849 H   0  0  0  0  0  0  0  0  0  0  0  0
  144.5119  132.9581  149.9976 H   0  0  0  0  0  0  0  0  0  0  0  0
  145.4031  135.8972  152.9342 H   0  0  0  0  0  0  0  0  0  0  0  0
  145.7573  136.5245  150.1190 H   0  0  0  0  0  0  0  0  0  0  0  0
  144.7985  137.7443  150.9016 H   0  0  0  0  0  0  0  0  0  0  0  0
  147.5390  136.9169  151.6549 H   0  0  0  0  0  0  0  0  0  0  0  0
  148.7263  138.2159  152.5543 H   0  0  0  0  0  0  0  0  0  0  0  0
  150.4922  139.4490  154.2176 H   0  0  0  0  0  0  0  0  0  0  0  0
  147.0064  141.7529  153.0539 H   0  0  0  0  0  0  0  0  0  0  0  0
  143.7248  137.5498  153.8646 H   0  0  0  0  0  0  0  0  0  0  0  0
  143.5133  138.2026  152.2577 H   0  0  0  0  0  0  0  0  0  0  0  0
  141.5086  138.5944  153.6751 H   0  0  0  0  0  0  0  0  0  0  0  0
  141.1142  137.6275  152.2657 H   0  0  0  0  0  0  0  0  0  0  0  0
  141.0199  134.5547  154.2203 H   0  0  0  0  0  0  0  0  0  0  0  0
  140.8223  135.1837  152.5938 H   0  0  0  0  0  0  0  0  0  0  0  0
  143.0392  134.0854  152.8199 H   0  0  0  0  0  0  0  0  0  0  0  0
  143.4197  135.0774  154.2102 H   0  0  0  0  0  0  0  0  0  0  0  0
  1  2  1  0  0  0  0
  1 22  1  0  0  0  0
  1 23  1  0  0  0  0
  1 24  1  0  0  0  0
  2  3  1  0  0  0  0
  2  4  1  0  0  0  0
  2 25  1  0  0  0  0
  3 26  1  0  0  0  0
  3 27  1  0  0  0  0
  3 28  1  0  0  0  0
  4  5  1  0  0  0  0
  4 15  1  0  0  0  0
  4 29  1  0  0  0  0
  5  6  1  0  0  0  0
  5 30  1  0  0  0  0
  5 31  1  0  0  0  0
  6  7  1  0  0  0  0
  6 32  1  0  0  0  0
  7  8  2  0  0  0  0
  7  9  1  0  0  0  0
  9 10  1  0  0  0  0
  9 33  1  0  0  0  0
 10 14  2  0  0  0  0
 10 11  1  0  0  0  0
 11 12  2  0  0  0  0
 11 34  1  0  0  0  0
 12 13  1  0  0  0  0
 13 21  1  0  0  0  0
 13 14  1  0  0  0  0
 14 35  1  0  0  0  0
 15 20  1  0  0  0  0
 15 16  1  0  0  0  0
 16 17  1  0  0  0  0
 16 36  1  0  0  0  0
 16 37  1  0  0  0  0
 17 18  1  0  0  0  0
 17 38  1  0  0  0  0
 17 39  1  0  0  0  0
 18 19  1  0  0  0  0
 19 20  1  0  0  0  0
 19 40  1  0  0  0  0
 19 41  1  0  0  0  0
 20 42  1  0  0  0  0
 20 43  1  0  0  0  0
M  END
> <s_m_source_file>
AV-unprocessed.smi

> <i_m_source_file_index>
1691

> <i_lp_mmshare_version>
43012

> <i_f3d_flags>
0

> <s_epik_input>
W0NIMl0xW0NIMl1PW0NIMl1bQ0gyXU4xW0NASF0oW0NIXShbQ0gzXSlbQ0gzXSlbQ0gyXVtOSF1DKD1PKVtOSF1jMltjSF1uW25IXVtjSF0y

> <s_epik_cmdline>
J2VwaWtfcHl0aG9uJywgJy1waCcsICc3LjAnLCAnLXRuJywgJzgnLCAnLW1hJywgJzIwMCcsICctbWV0YWxfYmluZGluZycsICctaW1hZScsICc8aW5maWxlLm1hZT4nLCAnLW9tYWUnLCAnPG91dGZpbGUubWFlPic=

> <r_lp_tautomer_probability>
0.5

> <r_epik_Ionization_Penalty>
0.462189

> <r_epik_Ionization_Penalty_Charging>
0

> <r_epik_Ionization_Penalty_Neutral>
0.462189

> <r_epik_State_Penalty>
0.465733

> <r_epik_Charging_Adjusted_Penalty>
0.465733

> <i_epik_Tot_Q>
0

> <i_epik_Tot_abs_Q>
0

> <r_epik_Metal_State_Penalty>
0.465732

> <b_epik_Metal_Only>
0

> <s_lp_Force_Field>
OPLS_2005

> <r_lp_Energy>
41.1245

> <b_lp_Chiralities_Consistent>
1

> <s_lp_Variant>
AV-unprocessed.smi:1691-4

> <Gold.Version>
5.8.1

> <Gold.Id.Protein>
6NUR|6NUR_protein|mol2

> <Gold.PLP.Fitness>
37.0148

> <Gold.PLP.PLP>
-30.2172

> <Gold.PLP.part.hbond>
-4.7622

> <Gold.PLP.part.metal>
0.0000

> <Gold.PLP.part.buried>
2.3379

> <Gold.PLP.part.nonpolar>
-31.7254

> <Gold.PLP.part.repulsive>
4.8578

> <Gold.PLP.ligand.clash>
0.0000

> <Gold.PLP.ligand.torsion>
0.9534

> <Gold.PLP.Chemscore.Hbond>
2.7008

> <Gold.PLP.Chemscore.CHOScore>
0.0000

> <Gold.PLP.Chemscore.Metal>
0.0000

> <Gold.Chemscore.Hbonds>
donor molecule, donor type, donor heavy atom, donor atom, acceptor molecule, acceptor atom, score
      L1  H     6    32       P1  7948  1.00
      L1  H     9    33       P1  7948  0.77
      L1  H    13    21       P1  8028  0.99

> <Gold.PLP.Chemscore.Internal.Correction>
0.6022

> <Gold.Rescore>
     Score         DG    S(hbond)    S(metal)    S(lipo)     H(rot)  DE(clash)    DE(int)     intcor
     12.14     -16.45       2.40        0.00      64.54       1.79       2.23       2.09       ----

> <Gold.Chemscore.Fitness>
12.1354

> <Gold.Chemscore.DG>
-16.4543

> <Gold.Chemscore.ZeroCoef>
-5.4800

> <Gold.Chemscore.Hbond>
2.3963

> <Gold.Chemscore.Metal>
0.0000

> <Gold.Chemscore.Lipo>
64.5404

> <Gold.Chemscore.Internal_Hbond>
0.0000

> <Gold.Chemscore.DEClash>
2.2264

> <Gold.Chemscore.DEInternal>
2.0925

> <Gold.Chemscore.Rot>
1.7893

> <Gold.Chemscore.Internal.Correction>
   9.000000E+99

> <Gold.Chemscore.Hbonds>
donor molecule, donor type, donor heavy atom, donor atom, acceptor molecule, acceptor atom, score
      L1  H     6    32       P1  7948  0.95
      L1  H     9    33       P1  7948  0.74
      L1  H    13    21       P1  8028  0.91

> <Gold.Chemscore.Hbond.Weighted>
-8.0035

> <Gold.Chemscore.Metal.Weighted>
-0.0000

> <Gold.Chemscore.Lipo.Weighted>
-7.5512

> <Gold.Chemscore.Internal_Hbond.Weighted>
0.0000

> <Gold.Chemscore.DEClash.Weighted>
2.2264

> <Gold.Chemscore.DEInternal.Weighted>
2.0925

> <Gold.Chemscore.Rot.Weighted>
4.5805

> <Gold.Chemscore.Internal.Correction.Weighted>
   9.000000E+99

> <Gold.Protein.RotatedTorsions>
[ 6907 6896 6895 6894 ] final  114.80 input  -60.11 | X-H torsion
[ 7974 7965 7964 7962 ] final  170.43 input  175.53 | X-H torsion
[ 8008 7997 7996 7995 ] final -133.97 input   59.86 | X-H torsion
[ 10167 10162 10161 10158 ] final  -54.39 input  -65.29 | X-H torsion
[ 10718 10713 10712 10709 ] final   59.71 input   66.30 | X-H torsion
[ 10763 10752 10751 10750 ] final   54.45 input  -60.55 | X-H torsion
[ 11005 11000 10999 10996 ] final -100.47 input  -57.11 | X-H torsion

> <Gold.Protein.ActiveResidues>
 VAL166  LYS551  ARG553  GLY616  TRP617  ASP618  TYR619  PRO620  LYS621  CYS622 
 ASP623  PHE694  ASN695  SER759  ASP760  ASP761  ALA762  ILE779  LEU786  VAL792 
 PHE793  MET794  SER795  GLU796  ALA797  LYS798  CYS799  TRP800  GLU811  SER814 

> <Gold.Protein.RotatedAtoms>
  152.4781  133.8186  159.7041 H   0  0  0  0  0  0  0  0  0  0  0  0  # atno 6907 bound_to 6896
  150.8811  133.7361  159.2938 H   0  0  0  0  0  0  0  0  0  0  0  0  # atno 6908 bound_to 6896
  151.4865  135.1059  159.9844 H   0  0  0  0  0  0  0  0  0  0  0  0  # atno 6909 bound_to 6896
  144.7324  139.9201  143.6419 H   0  0  0  0  0  0  0  0  0  0  0  0  # atno 7974 bound_to 7965
  155.3543  140.0479  157.3046 H   0  0  0  0  0  0  0  0  0  0  0  0  # atno 8008 bound_to 7997
  154.5211  140.2225  155.8939 H   0  0  0  0  0  0  0  0  0  0  0  0  # atno 8009 bound_to 7997
  156.1690  140.3100  155.8946 H   0  0  0  0  0  0  0  0  0  0  0  0  # atno 8010 bound_to 7997
  140.6433  143.2520  151.4929 H   0  0  0  0  0  0  0  0  0  0  0  0  # atno 10167 bound_to 10162
  157.5697  130.8898  149.9246 H   0  0  0  0  0  0  0  0  0  0  0  0  # atno 10718 bound_to 10713
  152.9805  135.5744  154.4907 H   0  0  0  0  0  0  0  0  0  0  0  0  # atno 10763 bound_to 10752
  154.4441  135.2776  155.1829 H   0  0  0  0  0  0  0  0  0  0  0  0  # atno 10764 bound_to 10752
  154.3484  135.6214  153.5684 H   0  0  0  0  0  0  0  0  0  0  0  0  # atno 10765 bound_to 10752
  141.1269  133.8401  157.1106 H   0  0  0  0  0  0  0  0  0  0  0  0  # atno 11005 bound_to 11000
  146.0936  139.3927  143.0390 LP  0  0  0  0  0  0  0  0  0  0  0  0  # atno 17320 bound_to 7965
  145.7677  140.9909  143.1166 LP  0  0  0  0  0  0  0  0  0  0  0  0  # atno 17321 bound_to 7965
  139.5643  144.2081  152.1740 LP  0  0  0  0  0  0  0  0  0  0  0  0  # atno 17342 bound_to 10162
  140.1358  144.5247  150.6774 LP  0  0  0  0  0  0  0  0  0  0  0  0  # atno 17343 bound_to 10162
  156.0743  130.3681  150.0710 LP  0  0  0  0  0  0  0  0  0  0  0  0  # atno 17370 bound_to 10713
  156.8865  130.9574  151.3593 LP  0  0  0  0  0  0  0  0  0  0  0  0  # atno 17371 bound_to 10713
  140.0277  134.9916  157.0719 LP  0  0  0  0  0  0  0  0  0  0  0  0  # atno 17394 bound_to 11000
  140.4336  134.1755  155.7169 LP  0  0  0  0  0  0  0  0  0  0  0  0  # atno 17395 bound_to 11000

$$$$
