AV-unprocessed.smi:189|AV-procd|sdf|1476|dock1
  -GOLD-   2262019293D 1   1.00000     0.00000
 Structure written by MMmdl.
 53 57  0  0  0  0  0  0  0  0  1 V2000
  147.0094  142.2498  154.1425 C   0  0  0  0  0  0  0  0  0  0  0  0
  148.4248  141.6837  154.3666 C   0  0  1  0  0  0  0  0  0  0  0  0
  148.9530  141.7641  155.8033 C   0  0  0  0  0  0  0  0  0  0  0  0
  150.1395  140.7883  155.7885 C   0  0  1  0  0  0  0  0  0  0  0  0
  150.2549  139.8918  157.0337 C   0  0  0  0  0  0  0  0  0  0  0  0
  151.4043  138.8685  156.9048 C   0  0  0  0  0  0  0  0  0  0  0  0
  151.5926  138.3166  155.4729 C   0  0  0  0  0  0  0  0  0  0  0  0
  150.3257  138.4712  154.6201 C   0  0  0  0  0  0  0  0  0  0  0  0
  149.9612  139.9737  154.4856 C   0  0  1  0  0  0  0  0  0  0  0  0
  148.6372  140.2986  153.9432 N   0  0  0  0  0  0  0  0  0  0  0  0
  147.6578  139.3835  154.1607 C   0  0  0  0  0  0  0  0  0  0  0  0
  147.3001  139.0182  155.4208 N   0  0  0  0  0  0  0  0  0  0  0  0
  146.3632  138.0840  155.6078 C   0  0  0  0  0  0  0  0  0  0  0  0
  145.6817  137.3910  154.6931 N   0  0  0  0  0  0  0  0  0  0  0  0
  146.0514  137.7429  153.4281 C   0  0  0  0  0  0  0  0  0  0  0  0
  147.0175  138.7263  153.0777 C   0  0  0  0  0  0  0  0  0  0  0  0
  147.1290  138.8174  151.6965 N   0  0  0  0  0  0  0  0  0  0  0  0
  146.2761  137.9347  151.2533 C   0  0  0  0  0  0  0  0  0  0  0  0
  145.5973  137.2323  152.2244 N   0  0  0  0  0  0  0  0  0  0  0  0
  144.6069  136.1890  152.0105 C   0  0  0  0  0  0  0  0  0  0  0  0
  145.0600  135.0866  151.0183 C   0  0  1  0  0  0  0  0  0  0  0  0
  145.1389  135.6230  149.7112 O   0  0  0  0  0  0  0  0  0  0  0  0
  146.4046  134.4898  151.4006 C   0  0  0  0  0  0  0  0  0  0  0  0
  146.0212  133.4045  152.4040 C   0  0  0  0  0  0  0  0  0  0  0  0
  144.7065  132.9873  152.0481 O   0  0  0  0  0  0  0  0  0  0  0  0
  144.1827  133.8271  151.0240 C   0  0  0  0  0  0  0  0  0  0  0  0
  146.9841  143.3147  154.3736 H   0  0  0  0  0  0  0  0  0  0  0  0
  146.2609  141.7685  154.7709 H   0  0  0  0  0  0  0  0  0  0  0  0
  146.7020  142.1326  153.1030 H   0  0  0  0  0  0  0  0  0  0  0  0
  149.0922  142.2792  153.7413 H   0  0  0  0  0  0  0  0  0  0  0  0
  149.2490  142.7764  156.0796 H   0  0  0  0  0  0  0  0  0  0  0  0
  148.1913  141.4400  156.5131 H   0  0  0  0  0  0  0  0  0  0  0  0
  151.0626  141.3634  155.6995 H   0  0  0  0  0  0  0  0  0  0  0  0
  150.3920  140.4971  157.9301 H   0  0  0  0  0  0  0  0  0  0  0  0
  149.3164  139.3537  157.1732 H   0  0  0  0  0  0  0  0  0  0  0  0
  152.3405  139.3227  157.2314 H   0  0  0  0  0  0  0  0  0  0  0  0
  151.2157  138.0454  157.5950 H   0  0  0  0  0  0  0  0  0  0  0  0
  152.4087  138.8510  154.9851 H   0  0  0  0  0  0  0  0  0  0  0  0
  151.8982  137.2707  155.5144 H   0  0  0  0  0  0  0  0  0  0  0  0
  150.4695  138.0309  153.6330 H   0  0  0  0  0  0  0  0  0  0  0  0
  149.5333  137.8981  155.1026 H   0  0  0  0  0  0  0  0  0  0  0  0
  150.6650  140.3886  153.7622 H   0  0  0  0  0  0  0  0  0  0  0  0
  146.1314  137.8550  156.6374 H   0  0  0  0  0  0  0  0  0  0  0  0
  146.1259  137.7619  150.1973 H   0  0  0  0  0  0  0  0  0  0  0  0
  144.3645  135.7469  152.9777 H   0  0  0  0  0  0  0  0  0  0  0  0
  143.6913  136.6653  151.6580 H   0  0  0  0  0  0  0  0  0  0  0  0
  144.8895  136.5338  149.7438 H   0  0  0  0  0  0  0  0  0  0  0  0
  146.8745  134.0216  150.5339 H   0  0  0  0  0  0  0  0  0  0  0  0
  147.1076  135.2185  151.8060 H   0  0  0  0  0  0  0  0  0  0  0  0
  146.7191  132.5671  152.3932 H   0  0  0  0  0  0  0  0  0  0  0  0
  145.9957  133.8080  153.4166 H   0  0  0  0  0  0  0  0  0  0  0  0
  143.1206  134.0213  151.1651 H   0  0  0  0  0  0  0  0  0  0  0  0
  144.2866  133.2873  150.0812 H   0  0  0  0  0  0  0  0  0  0  0  0
  1  2  1  0  0  0  0
  1 27  1  0  0  0  0
  1 28  1  0  0  0  0
  1 29  1  0  0  0  0
  2 10  1  0  0  0  0
  2  3  1  0  0  0  0
  2 30  1  0  0  0  0
  3  4  1  0  0  0  0
  3 31  1  0  0  0  0
  3 32  1  0  0  0  0
  4  9  1  0  0  0  0
  4  5  1  0  0  0  0
  4 33  1  0  0  0  0
  5  6  1  0  0  0  0
  5 34  1  0  0  0  0
  5 35  1  0  0  0  0
  6  7  1  0  0  0  0
  6 36  1  0  0  0  0
  6 37  1  0  0  0  0
  7  8  1  0  0  0  0
  7 38  1  0  0  0  0
  7 39  1  0  0  0  0
  8  9  1  0  0  0  0
  8 40  1  0  0  0  0
  8 41  1  0  0  0  0
  9 10  1  0  0  0  0
  9 42  1  0  0  0  0
 10 11  1  0  0  0  0
 11 16  1  0  0  0  0
 11 12  2  0  0  0  0
 12 13  1  0  0  0  0
 13 14  2  0  0  0  0
 13 43  1  0  0  0  0
 14 15  1  0  0  0  0
 15 19  1  0  0  0  0
 15 16  2  0  0  0  0
 16 17  1  0  0  0  0
 17 18  2  0  0  0  0
 18 19  1  0  0  0  0
 18 44  1  0  0  0  0
 19 20  1  0  0  0  0
 20 21  1  0  0  0  0
 20 45  1  0  0  0  0
 20 46  1  0  0  0  0
 21 26  1  0  0  0  0
 21 22  1  0  0  0  0
 21 23  1  0  0  0  0
 22 47  1  0  0  0  0
 23 24  1  0  0  0  0
 23 48  1  0  0  0  0
 23 49  1  0  0  0  0
 24 25  1  0  0  0  0
 24 50  1  0  0  0  0
 24 51  1  0  0  0  0
 25 26  1  0  0  0  0
 26 52  1  0  0  0  0
 26 53  1  0  0  0  0
M  END
> <s_m_source_file>
AV-unprocessed.smi

> <i_m_source_file_index>
189

> <i_lp_mmshare_version>
43012

> <i_f3d_flags>
0

> <s_epik_input>
W0NIMl0xW0NIMl1bQ0gyXVtDSDJdW0NASF0oW0NASF0xMilOKFtDQEhdKFtDSDNdKVtDSDJdMiljKG5bY0hdbjMpYyhjMzQpbltjSF1uNFtDSDJdW0NAQF01KFtPSF0pW0NIMl1bQ0gyXU9bQ0gyXTU=

> <s_epik_cmdline>
J2VwaWtfcHl0aG9uJywgJy1waCcsICc3LjAnLCAnLXRuJywgJzgnLCAnLW1hJywgJzIwMCcsICctbWV0YWxfYmluZGluZycsICctaW1hZScsICc8aW5maWxlLm1hZT4nLCAnLW9tYWUnLCAnPG91dGZpbGUubWFlPic=

> <r_lp_tautomer_probability>
1

> <r_epik_Ionization_Penalty>
0.00594261

> <r_epik_Ionization_Penalty_Charging>
0

> <r_epik_Ionization_Penalty_Neutral>
0.00594261

> <r_epik_State_Penalty>
0.00429776

> <r_epik_Charging_Adjusted_Penalty>
0.00429776

> <i_epik_Tot_Q>
0

> <i_epik_Tot_abs_Q>
0

> <r_epik_Metal_State_Penalty>
-0

> <b_epik_Metal_Only>
0

> <s_lp_Force_Field>
OPLS_2005

> <r_lp_Energy>
67.8884

> <b_lp_Chiralities_Consistent>
1

> <s_lp_Variant>
AV-unprocessed.smi:189-2

> <Gold.Version>
5.8.1

> <Gold.Id.Protein>
6NUR|6NUR_protein|mol2

> <Gold.PLP.Fitness>
43.4077

> <Gold.PLP.PLP>
-38.3492

> <Gold.PLP.part.hbond>
-2.0000

> <Gold.PLP.part.metal>
0.0000

> <Gold.PLP.part.buried>
-2.3257

> <Gold.PLP.part.nonpolar>
-37.6352

> <Gold.PLP.part.repulsive>
2.7924

> <Gold.PLP.ligand.clash>
0.0000

> <Gold.PLP.ligand.torsion>
0.2091

> <Gold.PLP.Chemscore.Hbond>
1.0000

> <Gold.PLP.Chemscore.CHOScore>
0.8058

> <Gold.PLP.Chemscore.Metal>
0.0000

> <Gold.Chemscore.Hbonds>
donor molecule, donor type, donor heavy atom, donor atom, acceptor molecule, acceptor atom, score
      L1  H    22    47       P1 10171  0.41
      L1  C    18    44       P1 10171  0.48

> <Gold.PLP.Chemscore.Internal.Correction>
0.0594

> <Gold.Rescore>
     Score         DG    S(hbond)    S(metal)    S(lipo)     H(rot)  DE(clash)    DE(int)     intcor
      9.50     -13.52       0.99        0.00      84.72       2.03       1.37       2.65       ----

> <Gold.Chemscore.Fitness>
9.5020

> <Gold.Chemscore.DG>
-13.5156

> <Gold.Chemscore.ZeroCoef>
-5.4800

> <Gold.Chemscore.Hbond>
0.9938

> <Gold.Chemscore.Metal>
0.0000

> <Gold.Chemscore.Lipo>
84.7214

> <Gold.Chemscore.Internal_Hbond>
0.0000

> <Gold.Chemscore.DEClash>
1.3657

> <Gold.Chemscore.DEInternal>
2.6479

> <Gold.Chemscore.Rot>
2.0297

> <Gold.Chemscore.Internal.Correction>
   9.000000E+99

> <Gold.Chemscore.Hbonds>
donor molecule, donor type, donor heavy atom, donor atom, acceptor molecule, acceptor atom, score
      L1  H    22    47       P1 10171  0.39

> <Gold.Chemscore.Hbond.Weighted>
-3.3192

> <Gold.Chemscore.Metal.Weighted>
-0.0000

> <Gold.Chemscore.Lipo.Weighted>
-9.9124

> <Gold.Chemscore.Internal_Hbond.Weighted>
0.0000

> <Gold.Chemscore.DEClash.Weighted>
1.3657

> <Gold.Chemscore.DEInternal.Weighted>
2.6479

> <Gold.Chemscore.Rot.Weighted>
5.1960

> <Gold.Chemscore.Internal.Correction.Weighted>
   9.000000E+99

> <Gold.Protein.RotatedTorsions>
[ 6907 6896 6895 6894 ] final   59.90 input  -60.11 | X-H torsion
[ 7974 7965 7964 7962 ] final   22.12 input  175.53 | X-H torsion
[ 8008 7997 7996 7995 ] final  -97.11 input   59.86 | X-H torsion
[ 10167 10162 10161 10158 ] final  163.77 input  -65.29 | X-H torsion
[ 10718 10713 10712 10709 ] final   34.10 input   66.30 | X-H torsion
[ 10763 10752 10751 10750 ] final  -79.32 input  -60.55 | X-H torsion
[ 11005 11000 10999 10996 ] final -149.46 input  -57.11 | X-H torsion

> <Gold.Protein.ActiveResidues>
 VAL166  LYS551  ARG553  GLY616  TRP617  ASP618  TYR619  PRO620  LYS621  CYS622 
 ASP623  PHE694  ASN695  SER759  ASP760  ASP761  ALA762  ILE779  LEU786  VAL792 
 PHE793  MET794  SER795  GLU796  ALA797  LYS798  CYS799  TRP800  GLU811  SER814 

> <Gold.Protein.RotatedAtoms>
  152.3955  134.6372  160.0090 H   0  0  0  0  0  0  0  0  0  0  0  0  # atno 6907 bound_to 6896
  151.6593  133.3312  159.3178 H   0  0  0  0  0  0  0  0  0  0  0  0  # atno 6908 bound_to 6896
  150.7864  134.6895  159.6533 H   0  0  0  0  0  0  0  0  0  0  0  0  # atno 6909 bound_to 6896
  146.2042  139.7930  142.8738 H   0  0  0  0  0  0  0  0  0  0  0  0  # atno 7974 bound_to 7965
  154.7833  140.0466  157.1144 H   0  0  0  0  0  0  0  0  0  0  0  0  # atno 8008 bound_to 7997
  154.9678  140.3085  155.4982 H   0  0  0  0  0  0  0  0  0  0  0  0  # atno 8009 bound_to 7997
  156.2939  140.2259  156.4769 H   0  0  0  0  0  0  0  0  0  0  0  0  # atno 8010 bound_to 7997
  139.4879  144.4303  151.9078 H   0  0  0  0  0  0  0  0  0  0  0  0  # atno 10167 bound_to 10162
  157.3061  130.7375  149.6696 H   0  0  0  0  0  0  0  0  0  0  0  0  # atno 10718 bound_to 10713
  154.5371  135.5700  153.6808 H   0  0  0  0  0  0  0  0  0  0  0  0  # atno 10763 bound_to 10752
  152.9954  135.6219  154.2552 H   0  0  0  0  0  0  0  0  0  0  0  0  # atno 10764 bound_to 10752
  154.2481  135.2860  155.2807 H   0  0  0  0  0  0  0  0  0  0  0  0  # atno 10765 bound_to 10752
  140.7505  134.3412  157.5127 H   0  0  0  0  0  0  0  0  0  0  0  0  # atno 11005 bound_to 11000
  145.3378  141.0281  143.3410 LP  0  0  0  0  0  0  0  0  0  0  0  0  # atno 17320 bound_to 7965
  144.8754  139.4979  143.6748 LP  0  0  0  0  0  0  0  0  0  0  0  0  # atno 17321 bound_to 7965
  140.3751  144.2807  150.5915 LP  0  0  0  0  0  0  0  0  0  0  0  0  # atno 17342 bound_to 10162
  140.5284  143.2249  151.8278 LP  0  0  0  0  0  0  0  0  0  0  0  0  # atno 17343 bound_to 10162
  155.9674  130.4265  150.4703 LP  0  0  0  0  0  0  0  0  0  0  0  0  # atno 17370 bound_to 10713
  157.2693  131.0583  151.2270 LP  0  0  0  0  0  0  0  0  0  0  0  0  # atno 17371 bound_to 10713
  139.8788  134.9139  156.3094 LP  0  0  0  0  0  0  0  0  0  0  0  0  # atno 17394 bound_to 11000
  140.9755  133.7300  156.0596 LP  0  0  0  0  0  0  0  0  0  0  0  0  # atno 17395 bound_to 11000

$$$$
