AV-unprocessed.smi:2114|AV-procd|sdf|8617|dock2
  -GOLD-   2272011363D 1   1.00000     0.00000
 Structure written by MMmdl.
 47 48  0  0  0  0  0  0  0  0  1 V2000
  152.8698  132.0751  157.0904 C   0  0  0  0  0  0  0  0  0  0  0  0
  153.5718  132.7145  158.1418 O   0  0  0  0  0  0  0  0  0  0  0  0
  154.9574  132.4102  158.1349 C   0  0  0  0  0  0  0  0  0  0  0  0
  155.6503  133.1594  159.2835 C   0  0  2  0  0  0  0  0  0  0  0  0
  155.4032  132.4700  160.6353 C   0  0  0  0  0  0  0  0  0  0  0  0
  155.1683  134.5371  159.3251 N   0  0  0  0  0  0  0  0  0  0  0  0
  154.9661  135.3251  158.2565 C   0  0  0  0  0  0  0  0  0  0  0  0
  155.1595  134.9617  157.0962 O   0  0  0  0  0  0  0  0  0  0  0  0
  154.4146  136.6891  158.5541 C   0  0  0  0  0  0  0  0  0  0  0  0
  154.1851  137.1262  159.8770 C   0  0  0  0  0  0  0  0  0  0  0  0
  153.6838  138.4241  160.0931 C   0  0  0  0  0  0  0  0  0  0  0  0
  153.4280  139.2604  158.9809 C   0  0  0  0  0  0  0  0  0  0  0  0
  152.9169  140.5620  159.1748 N   0  0  0  0  0  0  0  0  0  0  0  0
  151.6338  140.8923  158.5584 C   0  0  0  0  0  0  0  0  0  0  0  0
  151.3793  142.4095  158.6260 C   0  0  1  0  0  0  0  0  0  0  0  0
  149.9920  142.7843  158.0954 C   0  0  0  0  0  0  0  0  0  0  0  0
  151.4708  142.8373  159.9818 O   0  0  0  0  0  0  0  0  0  0  0  0
  152.7626  142.6097  160.5386 C   0  0  1  0  0  0  0  0  0  0  0  0
  152.7825  143.1868  161.9580 C   0  0  0  0  0  0  0  0  0  0  0  0
  153.0622  141.0989  160.5252 C   0  0  0  0  0  0  0  0  0  0  0  0
  153.6690  138.8459  157.7128 N   0  0  0  0  0  0  0  0  0  0  0  0
  154.1491  137.6007  157.5103 C   0  0  0  0  0  0  0  0  0  0  0  0
  151.8168  132.3538  157.1306 H   0  0  0  0  0  0  0  0  0  0  0  0
  152.9342  130.9895  157.1775 H   0  0  0  0  0  0  0  0  0  0  0  0
  153.2599  132.3726  156.1162 H   0  0  0  0  0  0  0  0  0  0  0  0
  155.1119  131.3341  158.2331 H   0  0  0  0  0  0  0  0  0  0  0  0
  155.3875  132.7159  157.1798 H   0  0  0  0  0  0  0  0  0  0  0  0
  156.7242  133.1585  159.0875 H   0  0  0  0  0  0  0  0  0  0  0  0
  155.7608  131.4402  160.6202 H   0  0  0  0  0  0  0  0  0  0  0  0
  154.3414  132.4499  160.8824 H   0  0  0  0  0  0  0  0  0  0  0  0
  155.9237  132.9840  161.4441 H   0  0  0  0  0  0  0  0  0  0  0  0
  154.9536  134.9135  160.2369 H   0  0  0  0  0  0  0  0  0  0  0  0
  154.3912  136.4868  160.7232 H   0  0  0  0  0  0  0  0  0  0  0  0
  153.5169  138.7660  161.1036 H   0  0  0  0  0  0  0  0  0  0  0  0
  151.6246  140.5703  157.5160 H   0  0  0  0  0  0  0  0  0  0  0  0
  150.8375  140.3533  159.0741 H   0  0  0  0  0  0  0  0  0  0  0  0
  152.1304  142.9346  158.0331 H   0  0  0  0  0  0  0  0  0  0  0  0
  149.8755  142.4837  157.0539 H   0  0  0  0  0  0  0  0  0  0  0  0
  149.8327  143.8614  158.1503 H   0  0  0  0  0  0  0  0  0  0  0  0
  149.2043  142.3007  158.6738 H   0  0  0  0  0  0  0  0  0  0  0  0
  153.5079  143.1366  159.9402 H   0  0  0  0  0  0  0  0  0  0  0  0
  153.7567  143.0444  162.4260 H   0  0  0  0  0  0  0  0  0  0  0  0
  152.0340  142.7075  162.5898 H   0  0  0  0  0  0  0  0  0  0  0  0
  152.5729  144.2567  161.9461 H   0  0  0  0  0  0  0  0  0  0  0  0
  152.3716  140.5729  161.1856 H   0  0  0  0  0  0  0  0  0  0  0  0
  154.0641  140.9322  160.9184 H   0  0  0  0  0  0  0  0  0  0  0  0
  154.3193  137.3284  156.4786 H   0  0  0  0  0  0  0  0  0  0  0  0
  1  2  1  0  0  0  0
  1 23  1  0  0  0  0
  1 24  1  0  0  0  0
  1 25  1  0  0  0  0
  2  3  1  0  0  0  0
  3  4  1  0  0  0  0
  3 26  1  0  0  0  0
  3 27  1  0  0  0  0
  4  5  1  0  0  0  0
  4  6  1  0  0  0  0
  4 28  1  0  0  0  0
  5 29  1  0  0  0  0
  5 30  1  0  0  0  0
  5 31  1  0  0  0  0
  6  7  1  0  0  0  0
  6 32  1  0  0  0  0
  7  8  2  0  0  0  0
  7  9  1  0  0  0  0
  9 22  1  0  0  0  0
  9 10  2  0  0  0  0
 10 11  1  0  0  0  0
 10 33  1  0  0  0  0
 11 12  2  0  0  0  0
 11 34  1  0  0  0  0
 12 13  1  0  0  0  0
 12 21  1  0  0  0  0
 13 20  1  0  0  0  0
 13 14  1  0  0  0  0
 14 15  1  0  0  0  0
 14 35  1  0  0  0  0
 14 36  1  0  0  0  0
 15 16  1  0  0  0  0
 15 17  1  0  0  0  0
 15 37  1  0  0  0  0
 16 38  1  0  0  0  0
 16 39  1  0  0  0  0
 16 40  1  0  0  0  0
 17 18  1  0  0  0  0
 18 19  1  0  0  0  0
 18 20  1  0  0  0  0
 18 41  1  0  0  0  0
 19 42  1  0  0  0  0
 19 43  1  0  0  0  0
 19 44  1  0  0  0  0
 20 45  1  0  0  0  0
 20 46  1  0  0  0  0
 21 22  2  0  0  0  0
 22 47  1  0  0  0  0
M  END
> <s_m_source_file>
AV-unprocessed.smi

> <i_m_source_file_index>
2114

> <i_lp_mmshare_version>
43012

> <i_f3d_flags>
0

> <s_epik_input>
W0NIM11PW0NIMl1bQ0BIXShbQ0gzXSlbTkhdQyg9TyljMVtjSF1bY0hdYyhuW2NIXTEpTjJbQ0gyXVtDQEBIXShbQ0gzXSlPW0NAQEhdKFtDSDNdKVtDSDJdMg==

> <s_epik_cmdline>
J2VwaWtfcHl0aG9uJywgJy1waCcsICc3LjAnLCAnLXRuJywgJzgnLCAnLW1hJywgJzIwMCcsICctbWV0YWxfYmluZGluZycsICctaW1hZScsICc8aW5maWxlLm1hZT4nLCAnLW9tYWUnLCAnPG91dGZpbGUubWFlPic=

> <r_lp_tautomer_probability>
1

> <r_epik_Ionization_Penalty>
1.92915e-05

> <r_epik_Ionization_Penalty_Charging>
0

> <r_epik_Ionization_Penalty_Neutral>
1.92915e-05

> <r_epik_State_Penalty>
-0

> <r_epik_Charging_Adjusted_Penalty>
0

> <i_epik_Tot_Q>
0

> <i_epik_Tot_abs_Q>
0

> <r_epik_Metal_State_Penalty>
-0

> <b_epik_Metal_Only>
0

> <s_lp_Force_Field>
OPLS_2005

> <r_lp_Energy>
18.4653

> <b_lp_Chiralities_Consistent>
1

> <s_lp_Variant>
AV-unprocessed.smi:2114-1

> <Gold.Version>
5.8.1

> <Gold.Id.Protein>
6NUR|6NUR_protein|mol2

> <Gold.PLP.Fitness>
39.3538

> <Gold.PLP.PLP>
-31.1970

> <Gold.PLP.part.hbond>
-3.4865

> <Gold.PLP.part.metal>
0.0000

> <Gold.PLP.part.buried>
-5.1658

> <Gold.PLP.part.nonpolar>
-22.0619

> <Gold.PLP.part.repulsive>
0.1062

> <Gold.PLP.ligand.clash>
0.0000

> <Gold.PLP.ligand.torsion>
0.5964

> <Gold.PLP.Chemscore.Hbond>
3.0000

> <Gold.PLP.Chemscore.CHOScore>
0.0000

> <Gold.PLP.Chemscore.Metal>
0.0000

> <Gold.Chemscore.Hbonds>
donor molecule, donor type, donor heavy atom, donor atom, acceptor molecule, acceptor atom, score
      P1  H  6896  6907       L1     2  1.00
      P1  H  7997  8009       L1    21  1.00
      P1  H 10752 10764       L1     8  1.00

> <Gold.PLP.Chemscore.Internal.Correction>
0.3496

> <Gold.Rescore>
     Score         DG    S(hbond)    S(metal)    S(lipo)     H(rot)  DE(clash)    DE(int)     intcor
     19.89     -21.46       2.75        0.00      91.51       1.52       0.00       1.57       ----

> <Gold.Chemscore.Fitness>
19.8900

> <Gold.Chemscore.DG>
-21.4618

> <Gold.Chemscore.ZeroCoef>
-5.4800

> <Gold.Chemscore.Hbond>
2.7464

> <Gold.Chemscore.Metal>
0.0000

> <Gold.Chemscore.Lipo>
91.5105

> <Gold.Chemscore.Internal_Hbond>
0.0000

> <Gold.Chemscore.DEClash>
0.0038

> <Gold.Chemscore.DEInternal>
1.5681

> <Gold.Chemscore.Rot>
1.5226

> <Gold.Chemscore.Internal.Correction>
   9.000000E+99

> <Gold.Chemscore.Hbonds>
donor molecule, donor type, donor heavy atom, donor atom, acceptor molecule, acceptor atom, score
      P1  H  6896  6907       L1     2  0.82
      P1  H  7997  8009       L1    21  0.68
      P1  H 10752 10764       L1     8  0.92

> <Gold.Chemscore.Hbond.Weighted>
-9.1730

> <Gold.Chemscore.Metal.Weighted>
-0.0000

> <Gold.Chemscore.Lipo.Weighted>
-10.7067

> <Gold.Chemscore.Internal_Hbond.Weighted>
0.0000

> <Gold.Chemscore.DEClash.Weighted>
0.0038

> <Gold.Chemscore.DEInternal.Weighted>
1.5681

> <Gold.Chemscore.Rot.Weighted>
3.8980

> <Gold.Chemscore.Internal.Correction.Weighted>
   9.000000E+99

> <Gold.Protein.RotatedTorsions>
[ 6907 6896 6895 6894 ] final  132.51 input  -60.11 | X-H torsion
[ 7974 7965 7964 7962 ] final  -16.27 input  175.53 | X-H torsion
[ 8008 7997 7996 7995 ] final  172.23 input   59.86 | X-H torsion
[ 10167 10162 10161 10158 ] final  150.46 input  -65.29 | X-H torsion
[ 10718 10713 10712 10709 ] final -147.20 input   66.30 | X-H torsion
[ 10763 10752 10751 10750 ] final   31.32 input  -60.55 | X-H torsion
[ 11005 11000 10999 10996 ] final -143.71 input  -57.11 | X-H torsion

> <Gold.Protein.ActiveResidues>
 VAL166  LYS551  ARG553  GLY616  TRP617  ASP618  TYR619  PRO620  LYS621  CYS622 
 ASP623  PHE694  ASN695  SER759  ASP760  ASP761  ALA762  ILE779  LEU786  VAL792 
 PHE793  MET794  SER795  GLU796  ALA797  LYS798  CYS799  TRP800  GLU811  SER814 

> <Gold.Protein.RotatedAtoms>
  152.3317  133.5965  159.5813 H   0  0  0  0  0  0  0  0  0  0  0  0  # atno 6907 bound_to 6896
  150.7427  133.9858  159.3600 H   0  0  0  0  0  0  0  0  0  0  0  0  # atno 6908 bound_to 6896
  151.7732  135.0781  160.0414 H   0  0  0  0  0  0  0  0  0  0  0  0  # atno 6909 bound_to 6896
  146.1995  140.3612  142.8428 H   0  0  0  0  0  0  0  0  0  0  0  0  # atno 7974 bound_to 7965
  156.1194  140.1491  156.9226 H   0  0  0  0  0  0  0  0  0  0  0  0  # atno 8008 bound_to 7997
  154.4825  140.0875  156.7451 H   0  0  0  0  0  0  0  0  0  0  0  0  # atno 8009 bound_to 7997
  155.4455  140.3432  155.4297 H   0  0  0  0  0  0  0  0  0  0  0  0  # atno 8010 bound_to 7997
  139.4850  144.5520  151.7383 H   0  0  0  0  0  0  0  0  0  0  0  0  # atno 10167 bound_to 10162
  156.4045  130.7950  151.2163 H   0  0  0  0  0  0  0  0  0  0  0  0  # atno 10718 bound_to 10713
  153.0322  135.6442  154.1181 H   0  0  0  0  0  0  0  0  0  0  0  0  # atno 10763 bound_to 10752
  154.0901  135.2867  155.3275 H   0  0  0  0  0  0  0  0  0  0  0  0  # atno 10764 bound_to 10752
  154.6471  135.5439  153.7920 H   0  0  0  0  0  0  0  0  0  0  0  0  # atno 10765 bound_to 10752
  140.8098  134.2758  157.4945 H   0  0  0  0  0  0  0  0  0  0  0  0  # atno 11005 bound_to 11000
  144.8652  140.7196  143.6082 LP  0  0  0  0  0  0  0  0  0  0  0  0  # atno 17320 bound_to 7965
  145.3532  139.1701  143.4423 LP  0  0  0  0  0  0  0  0  0  0  0  0  # atno 17321 bound_to 7965
  140.5076  144.1074  150.5986 LP  0  0  0  0  0  0  0  0  0  0  0  0  # atno 17342 bound_to 10162
  140.3989  143.2714  151.9971 LP  0  0  0  0  0  0  0  0  0  0  0  0  # atno 17343 bound_to 10162
  157.7505  131.0276  150.4015 LP  0  0  0  0  0  0  0  0  0  0  0  0  # atno 17370 bound_to 10713
  156.4301  130.3970  149.6766 LP  0  0  0  0  0  0  0  0  0  0  0  0  # atno 17371 bound_to 10713
  139.8715  134.9477  156.3974 LP  0  0  0  0  0  0  0  0  0  0  0  0  # atno 17394 bound_to 11000
  140.9209  133.7645  155.9906 LP  0  0  0  0  0  0  0  0  0  0  0  0  # atno 17395 bound_to 11000

$$$$
