AV-unprocessed.smi:919|AV-procd|sdf|4165|dock6
  -GOLD-   22720 2 73D 1   1.00000     0.00000
 Structure written by MMmdl.
 43 45  0  0  0  0  0  0  0  0  1 V2000
  148.6284  126.0980  153.7995 C   0  0  0  0  0  0  0  0  0  0  0  0
  148.5637  125.2620  152.5536 C   0  0  0  0  0  0  0  0  0  0  0  0
  148.6417  123.9458  152.6558 N   0  0  0  0  0  0  0  0  0  0  0  0
  148.5432  123.4525  151.3511 O   0  0  0  0  0  0  0  0  0  0  0  0
  148.4063  124.5046  150.5045 C   0  0  0  0  0  0  0  0  0  0  0  0
  148.2748  124.1895  149.0529 C   0  0  0  0  0  0  0  0  0  0  0  0
  148.4148  125.6815  151.2001 C   0  0  0  0  0  0  0  0  0  0  0  0
  148.2862  127.0805  150.6620 C   0  0  0  0  0  0  0  0  0  0  0  0
  147.0979  127.8169  151.2996 C   0  0  0  0  0  0  0  0  0  0  0  0
  147.2238  129.2618  151.1564 N   0  0  0  0  0  0  0  0  0  0  0  0
  146.3442  130.1624  151.6263 C   0  0  0  0  0  0  0  0  0  0  0  0
  145.3167  129.8563  152.2284 O   0  0  0  0  0  0  0  0  0  0  0  0
  146.6753  131.4446  151.3935 N   0  0  0  0  0  0  0  0  0  0  0  0
  145.9326  132.6489  151.7751 C   0  0  1  0  0  0  0  0  0  0  0  0
  146.1111  133.7684  150.7255 C   0  0  0  0  0  0  0  0  0  0  0  0
  144.6657  134.0758  150.2919 C   0  0  1  0  0  0  0  0  0  0  0  0
  144.1208  132.9098  149.4451 C   0  0  0  0  0  0  0  0  0  0  0  0
  143.8867  131.8067  150.4942 C   0  0  0  0  0  0  0  0  0  0  0  0
  144.3920  132.4666  151.7952 C   0  0  2  0  0  0  0  0  0  0  0  0
  143.9073  133.8994  151.6002 C   0  0  0  0  0  0  0  0  0  0  0  0
  148.7319  127.1575  153.5664 H   0  0  0  0  0  0  0  0  0  0  0  0
  149.4780  125.8136  154.4208 H   0  0  0  0  0  0  0  0  0  0  0  0
  147.7241  125.9781  154.3965 H   0  0  0  0  0  0  0  0  0  0  0  0
  147.4085  124.6959  148.6267 H   0  0  0  0  0  0  0  0  0  0  0  0
  148.1528  123.1184  148.8906 H   0  0  0  0  0  0  0  0  0  0  0  0
  149.1591  124.5169  148.5062 H   0  0  0  0  0  0  0  0  0  0  0  0
  149.2007  127.6479  150.8367 H   0  0  0  0  0  0  0  0  0  0  0  0
  148.1609  127.0577  149.5788 H   0  0  0  0  0  0  0  0  0  0  0  0
  146.1575  127.4796  150.8598 H   0  0  0  0  0  0  0  0  0  0  0  0
  147.0431  127.5848  152.3636 H   0  0  0  0  0  0  0  0  0  0  0  0
  148.0428  129.6043  150.6758 H   0  0  0  0  0  0  0  0  0  0  0  0
  147.5432  131.6027  150.9022 H   0  0  0  0  0  0  0  0  0  0  0  0
  146.2842  133.0094  152.7436 H   0  0  0  0  0  0  0  0  0  0  0  0
  146.5699  134.6464  151.1824 H   0  0  0  0  0  0  0  0  0  0  0  0
  146.7355  133.4755  149.8801 H   0  0  0  0  0  0  0  0  0  0  0  0
  144.5501  135.0515  149.8191 H   0  0  0  0  0  0  0  0  0  0  0  0
  143.1823  133.1822  148.9605 H   0  0  0  0  0  0  0  0  0  0  0  0
  144.8222  132.6024  148.6685 H   0  0  0  0  0  0  0  0  0  0  0  0
  142.8226  131.5804  150.5728 H   0  0  0  0  0  0  0  0  0  0  0  0
  144.3965  130.8752  150.2479 H   0  0  0  0  0  0  0  0  0  0  0  0
  144.0201  131.9829  152.6988 H   0  0  0  0  0  0  0  0  0  0  0  0
  144.2375  134.5796  152.3873 H   0  0  0  0  0  0  0  0  0  0  0  0
  142.8247  133.9810  151.4880 H   0  0  0  0  0  0  0  0  0  0  0  0
  1  2  1  0  0  0  0
  1 21  1  0  0  0  0
  1 22  1  0  0  0  0
  1 23  1  0  0  0  0
  2  7  1  0  0  0  0
  2  3  2  0  0  0  0
  3  4  1  0  0  0  0
  4  5  1  0  0  0  0
  5  6  1  0  0  0  0
  5  7  2  0  0  0  0
  6 24  1  0  0  0  0
  6 25  1  0  0  0  0
  6 26  1  0  0  0  0
  7  8  1  0  0  0  0
  8  9  1  0  0  0  0
  8 27  1  0  0  0  0
  8 28  1  0  0  0  0
  9 10  1  0  0  0  0
  9 29  1  0  0  0  0
  9 30  1  0  0  0  0
 10 11  1  0  0  0  0
 10 31  1  0  0  0  0
 11 12  2  0  0  0  0
 11 13  1  0  0  0  0
 13 14  1  0  0  0  0
 13 32  1  0  0  0  0
 14 19  1  0  0  0  0
 14 15  1  0  0  0  0
 14 33  1  0  0  0  0
 15 16  1  0  0  0  0
 15 34  1  0  0  0  0
 15 35  1  0  0  0  0
 16 20  1  0  0  0  0
 16 17  1  0  0  0  0
 16 36  1  0  0  0  0
 17 18  1  0  0  0  0
 17 37  1  0  0  0  0
 17 38  1  0  0  0  0
 18 19  1  0  0  0  0
 18 39  1  0  0  0  0
 18 40  1  0  0  0  0
 19 20  1  0  0  0  0
 19 41  1  0  0  0  0
 20 42  1  0  0  0  0
 20 43  1  0  0  0  0
M  END
> <s_m_source_file>
AV-unprocessed.smi

> <i_m_source_file_index>
919

> <i_lp_mmshare_version>
43012

> <i_f3d_flags>
0

> <s_epik_input>
W0NIM11jMW5vYyhbQ0gzXSljMVtDSDJdW0NIMl1bTkhdQyg9TylbTkhdW0NASF0oW0NIMl1bQ0BASF0yMylbQ0BASF0oW0NIMl0zKVtDSDJdW0NIMl0y

> <s_epik_cmdline>
J2VwaWtfcHl0aG9uJywgJy1waCcsICc3LjAnLCAnLXRuJywgJzgnLCAnLW1hJywgJzIwMCcsICctbWV0YWxfYmluZGluZycsICctaW1hZScsICc8aW5maWxlLm1hZT4nLCAnLW9tYWUnLCAnPG91dGZpbGUubWFlPic=

> <r_lp_tautomer_probability>
1

> <r_epik_Ionization_Penalty>
6.40771e-05

> <r_epik_Ionization_Penalty_Charging>
0

> <r_epik_Ionization_Penalty_Neutral>
6.40771e-05

> <r_epik_State_Penalty>
-0

> <r_epik_Charging_Adjusted_Penalty>
0

> <i_epik_Tot_Q>
0

> <i_epik_Tot_abs_Q>
0

> <r_epik_Metal_State_Penalty>
-0

> <b_epik_Metal_Only>
0

> <s_lp_Force_Field>
OPLS_2005

> <r_lp_Energy>
47.6346

> <b_lp_Chiralities_Consistent>
1

> <s_lp_Variant>
AV-unprocessed.smi:919-2

> <Gold.Version>
5.8.1

> <Gold.Id.Protein>
6NUR|6NUR_protein|mol2

> <Gold.PLP.Fitness>
44.8291

> <Gold.PLP.PLP>
-40.0082

> <Gold.PLP.part.hbond>
-1.8789

> <Gold.PLP.part.metal>
0.0000

> <Gold.PLP.part.buried>
-4.9884

> <Gold.PLP.part.nonpolar>
-33.5053

> <Gold.PLP.part.repulsive>
0.3089

> <Gold.PLP.ligand.clash>
0.0000

> <Gold.PLP.ligand.torsion>
0.4666

> <Gold.PLP.Chemscore.Hbond>
1.9120

> <Gold.PLP.Chemscore.CHOScore>
0.0000

> <Gold.PLP.Chemscore.Metal>
0.0000

> <Gold.Chemscore.Hbonds>
donor molecule, donor type, donor heavy atom, donor atom, acceptor molecule, acceptor atom, score
      L1  H    10    31       P1 10747  1.00
      L1  H    13    32       P1 10747  0.91

> <Gold.PLP.Chemscore.Internal.Correction>
0.0181

> <Gold.Rescore>
     Score         DG    S(hbond)    S(metal)    S(lipo)     H(rot)  DE(clash)    DE(int)     intcor
     14.92     -17.78       1.54        0.00      94.27       1.52       0.09       2.77       ----

> <Gold.Chemscore.Fitness>
14.9204

> <Gold.Chemscore.DG>
-17.7761

> <Gold.Chemscore.ZeroCoef>
-5.4800

> <Gold.Chemscore.Hbond>
1.5414

> <Gold.Chemscore.Metal>
0.0000

> <Gold.Chemscore.Lipo>
94.2674

> <Gold.Chemscore.Internal_Hbond>
0.0000

> <Gold.Chemscore.DEClash>
0.0861

> <Gold.Chemscore.DEInternal>
2.7697

> <Gold.Chemscore.Rot>
1.5161

> <Gold.Chemscore.Internal.Correction>
   9.000000E+99

> <Gold.Chemscore.Hbonds>
donor molecule, donor type, donor heavy atom, donor atom, acceptor molecule, acceptor atom, score
      L1  H    10    31       P1 10747  0.65
      L1  H    13    32       P1 10747  0.88

> <Gold.Chemscore.Hbond.Weighted>
-5.1481

> <Gold.Chemscore.Metal.Weighted>
-0.0000

> <Gold.Chemscore.Lipo.Weighted>
-11.0293

> <Gold.Chemscore.Internal_Hbond.Weighted>
0.0000

> <Gold.Chemscore.DEClash.Weighted>
0.0861

> <Gold.Chemscore.DEInternal.Weighted>
2.7697

> <Gold.Chemscore.Rot.Weighted>
3.8813

> <Gold.Chemscore.Internal.Correction.Weighted>
   9.000000E+99

> <Gold.Protein.RotatedTorsions>
[ 6907 6896 6895 6894 ] final  -37.75 input  -60.11 | X-H torsion
[ 7974 7965 7964 7962 ] final   67.21 input  175.53 | X-H torsion
[ 8008 7997 7996 7995 ] final  113.96 input   59.86 | X-H torsion
[ 10167 10162 10161 10158 ] final -164.21 input  -65.29 | X-H torsion
[ 10718 10713 10712 10709 ] final    6.68 input   66.30 | X-H torsion
[ 10763 10752 10751 10750 ] final -119.37 input  -60.55 | X-H torsion
[ 11005 11000 10999 10996 ] final  -10.98 input  -57.11 | X-H torsion

> <Gold.Protein.ActiveResidues>
 VAL166  LYS551  ARG553  GLY616  TRP617  ASP618  TYR619  PRO620  LYS621  CYS622 
 ASP623  PHE694  ASN695  SER759  ASP760  ASP761  ALA762  ILE779  LEU786  VAL792 
 PHE793  MET794  SER795  GLU796  ALA797  LYS798  CYS799  TRP800  GLU811  SER814 

> <Gold.Protein.RotatedAtoms>
  151.0109  134.9396  159.8006 H   0  0  0  0  0  0  0  0  0  0  0  0  # atno 6907 bound_to 6896
  152.5302  134.3030  159.9095 H   0  0  0  0  0  0  0  0  0  0  0  0  # atno 6908 bound_to 6896
  151.3036  133.4070  159.2676 H   0  0  0  0  0  0  0  0  0  0  0  0  # atno 6909 bound_to 6896
  145.8173  139.3065  143.1064 H   0  0  0  0  0  0  0  0  0  0  0  0  # atno 7974 bound_to 7965
  156.2291  140.2969  156.0142 H   0  0  0  0  0  0  0  0  0  0  0  0  # atno 8008 bound_to 7997
  155.2274  140.0418  157.2974 H   0  0  0  0  0  0  0  0  0  0  0  0  # atno 8009 bound_to 7997
  154.5965  140.2415  155.7857 H   0  0  0  0  0  0  0  0  0  0  0  0  # atno 8010 bound_to 7997
  139.6266  144.0520  152.1980 H   0  0  0  0  0  0  0  0  0  0  0  0  # atno 10167 bound_to 10162
  156.9257  130.5807  149.5648 H   0  0  0  0  0  0  0  0  0  0  0  0  # atno 10718 bound_to 10713
  154.8615  135.4241  154.2287 H   0  0  0  0  0  0  0  0  0  0  0  0  # atno 10763 bound_to 10752
  153.3277  135.6986  153.6981 H   0  0  0  0  0  0  0  0  0  0  0  0  # atno 10764 bound_to 10752
  153.6010  135.3537  155.2919 H   0  0  0  0  0  0  0  0  0  0  0  0  # atno 10765 bound_to 10752
  140.7504  133.8597  155.9040 H   0  0  0  0  0  0  0  0  0  0  0  0  # atno 11005 bound_to 11000
  145.9713  140.8758  143.0161 LP  0  0  0  0  0  0  0  0  0  0  0  0  # atno 17320 bound_to 7965
  144.6751  140.1949  143.7393 LP  0  0  0  0  0  0  0  0  0  0  0  0  # atno 17321 bound_to 7965
  140.0175  144.6178  150.7595 LP  0  0  0  0  0  0  0  0  0  0  0  0  # atno 17342 bound_to 10162
  140.7414  143.2818  151.3576 LP  0  0  0  0  0  0  0  0  0  0  0  0  # atno 17343 bound_to 10162
  156.0470  130.5545  150.8903 LP  0  0  0  0  0  0  0  0  0  0  0  0  # atno 17370 bound_to 10713
  157.5879  131.0945  150.9167 LP  0  0  0  0  0  0  0  0  0  0  0  0  # atno 17371 bound_to 10713
  140.9756  134.1474  157.4539 LP  0  0  0  0  0  0  0  0  0  0  0  0  # atno 17394 bound_to 11000
  139.8788  134.9993  156.5948 LP  0  0  0  0  0  0  0  0  0  0  0  0  # atno 17395 bound_to 11000

$$$$
