AV-unprocessed.smi:104|AV-procd|sdf|1004|dock3
  -GOLD-   2262017593D 1   1.00000     0.00000
 Structure written by MMmdl.
 47 49  0  0  0  0  0  0  0  0  1 V2000
  150.6795  138.8256  154.4605 C   0  0  0  0  0  0  0  0  0  0  0  0
  151.0678  137.5487  155.1940 C   0  0  0  0  0  0  0  0  0  0  0  0
  152.0249  136.8632  154.8332 O   0  0  0  0  0  0  0  0  0  0  0  0
  150.2590  137.2913  156.2308 O   0  0  0  0  0  0  0  0  0  0  0  0
  150.5358  136.1933  157.0838 C   0  0  0  0  0  0  0  0  0  0  0  0
  149.2161  135.5125  157.4583 C   0  0  1  0  0  0  0  0  0  0  0  0
  149.4683  134.2799  158.1171 O   0  0  0  0  0  0  0  0  0  0  0  0
  148.3206  133.8840  158.7955 C   0  0  2  0  0  0  0  0  0  0  0  0
  147.4761  133.0028  157.9119 N   0  0  0  0  0  0  0  0  0  0  0  0
  146.1141  132.7487  157.8883 C   0  0  0  0  0  0  0  0  0  0  0  0
  144.8434  133.5256  159.0794 Br  0  0  0  0  0  0  0  0  0  0  0  0
  145.6809  131.9330  156.9676 N   0  0  0  0  0  0  0  0  0  0  0  0
  146.8294  131.6273  156.2537 C   0  0  0  0  0  0  0  0  0  0  0  0
  147.1002  130.8194  155.1207 C   0  0  0  0  0  0  0  0  0  0  0  0
  146.1557  130.1138  154.4837 N   0  0  0  0  0  0  0  0  0  0  0  0
  148.3701  130.7606  154.6563 N   0  0  0  0  0  0  0  0  0  0  0  0
  149.3286  131.4618  155.2697 C   0  0  0  0  0  0  0  0  0  0  0  0
  149.2272  132.2563  156.3384 N   0  0  0  0  0  0  0  0  0  0  0  0
  147.9481  132.3068  156.8146 C   0  0  0  0  0  0  0  0  0  0  0  0
  147.5592  135.1784  159.1405 C   0  0  1  0  0  0  0  0  0  0  0  0
  147.4899  135.3362  160.5517 O   0  0  0  0  0  0  0  0  0  0  0  0
  146.9744  134.3628  161.3231 C   0  0  0  0  0  0  0  0  0  0  0  0
  146.9947  134.7187  162.8040 C   0  0  0  0  0  0  0  0  0  0  0  0
  146.5192  133.2886  160.9302 O   0  0  0  0  0  0  0  0  0  0  0  0
  148.4096  136.2739  158.5050 C   0  0  2  0  0  0  0  0  0  0  0  0
  147.5892  137.2489  157.8746 O   0  0  0  0  0  0  0  0  0  0  0  0
  146.6237  137.8760  158.5676 C   0  0  0  0  0  0  0  0  0  0  0  0
  145.7876  138.8005  157.6930 C   0  0  0  0  0  0  0  0  0  0  0  0
  146.3977  137.7535  159.7716 O   0  0  0  0  0  0  0  0  0  0  0  0
  149.7183  138.6967  153.9627 H   0  0  0  0  0  0  0  0  0  0  0  0
  151.4276  139.0787  153.7089 H   0  0  0  0  0  0  0  0  0  0  0  0
  150.5982  139.6569  155.1610 H   0  0  0  0  0  0  0  0  0  0  0  0
  151.2083  135.4832  156.6004 H   0  0  0  0  0  0  0  0  0  0  0  0
  151.0332  136.5619  157.9818 H   0  0  0  0  0  0  0  0  0  0  0  0
  148.6043  135.3355  156.5712 H   0  0  0  0  0  0  0  0  0  0  0  0
  148.5594  133.2528  159.6521 H   0  0  0  0  0  0  0  0  0  0  0  0
  145.2001  130.1444  154.8088 H   0  0  0  0  0  0  0  0  0  0  0  0
  146.4013  129.5514  153.6820 H   0  0  0  0  0  0  0  0  0  0  0  0
  150.3180  131.3723  154.8459 H   0  0  0  0  0  0  0  0  0  0  0  0
  146.5748  135.1459  158.6716 H   0  0  0  0  0  0  0  0  0  0  0  0
  145.9823  134.9149  163.1567 H   0  0  0  0  0  0  0  0  0  0  0  0
  147.6014  135.6064  162.9840 H   0  0  0  0  0  0  0  0  0  0  0  0
  147.4099  133.8944  163.3838 H   0  0  0  0  0  0  0  0  0  0  0  0
  149.0917  136.7074  159.2388 H   0  0  0  0  0  0  0  0  0  0  0  0
  146.3174  139.7374  157.5211 H   0  0  0  0  0  0  0  0  0  0  0  0
  144.8358  139.0245  158.1750 H   0  0  0  0  0  0  0  0  0  0  0  0
  145.5836  138.3342  156.7290 H   0  0  0  0  0  0  0  0  0  0  0  0
  1  2  1  0  0  0  0
  1 30  1  0  0  0  0
  1 31  1  0  0  0  0
  1 32  1  0  0  0  0
  2  3  2  0  0  0  0
  2  4  1  0  0  0  0
  4  5  1  0  0  0  0
  5  6  1  0  0  0  0
  5 33  1  0  0  0  0
  5 34  1  0  0  0  0
  6 25  1  0  0  0  0
  6  7  1  0  0  0  0
  6 35  1  0  0  0  0
  7  8  1  0  0  0  0
  8  9  1  0  0  0  0
  8 20  1  0  0  0  0
  8 36  1  0  0  0  0
  9 19  1  0  0  0  0
  9 10  1  0  0  0  0
 10 11  1  0  0  0  0
 10 12  2  0  0  0  0
 12 13  1  0  0  0  0
 13 19  2  0  0  0  0
 13 14  1  0  0  0  0
 14 15  1  0  0  0  0
 14 16  2  0  0  0  0
 15 37  1  0  0  0  0
 15 38  1  0  0  0  0
 16 17  1  0  0  0  0
 17 18  2  0  0  0  0
 17 39  1  0  0  0  0
 18 19  1  0  0  0  0
 20 21  1  0  0  0  0
 20 25  1  0  0  0  0
 20 40  1  0  0  0  0
 21 22  1  0  0  0  0
 22 23  1  0  0  0  0
 22 24  2  0  0  0  0
 23 41  1  0  0  0  0
 23 42  1  0  0  0  0
 23 43  1  0  0  0  0
 25 26  1  0  0  0  0
 25 44  1  0  0  0  0
 26 27  1  0  0  0  0
 27 28  1  0  0  0  0
 27 29  2  0  0  0  0
 28 45  1  0  0  0  0
 28 46  1  0  0  0  0
 28 47  1  0  0  0  0
M  END
> <s_m_source_file>
AV-unprocessed.smi

> <i_m_source_file_index>
104

> <i_lp_mmshare_version>
43012

> <i_f3d_flags>
0

> <s_epik_input>
W0NIM11DKD1PKU9bQ0gyXVtDQEBIXTFPW0NASF0oW0NAQEhdKE9DKD1PKVtDSDNdKVtDQEhdMU9DKD1PKVtDSDNdKW4oYyhCciluMiljKGMyMyluW2NIXW5jM1tOSDJd

> <s_epik_cmdline>
J2VwaWtfcHl0aG9uJywgJy1waCcsICc3LjAnLCAnLXRuJywgJzgnLCAnLW1hJywgJzIwMCcsICctbWV0YWxfYmluZGluZycsICctaW1hZScsICc8aW5maWxlLm1hZT4nLCAnLW9tYWUnLCAnPG91dGZpbGUubWFlPic=

> <r_lp_tautomer_probability>
1

> <r_epik_Ionization_Penalty>
7.36622e-05

> <r_epik_Ionization_Penalty_Charging>
0

> <r_epik_Ionization_Penalty_Neutral>
7.36622e-05

> <r_epik_State_Penalty>
-0

> <r_epik_Charging_Adjusted_Penalty>
0

> <i_epik_Tot_Q>
0

> <i_epik_Tot_abs_Q>
0

> <r_epik_Metal_State_Penalty>
-0

> <b_epik_Metal_Only>
0

> <s_epik_Chemistry_Notes>
This compound has an ester and may undergo hydrolysis at high or low pH. This compound contains an acetal/aminal-like group ( X-CH(R)-Y where X, Y are N, S, or O) that may be acid/base labile, releasing an aldehyde.

> <s_lp_Force_Field>
OPLS_2005

> <r_lp_Energy>
12.8289

> <b_lp_Chiralities_Consistent>
1

> <s_lp_Variant>
AV-unprocessed.smi:104-12

> <Gold.Version>
5.8.1

> <Gold.Id.Protein>
6NUR|6NUR_protein|mol2

> <Gold.PLP.Fitness>
34.3300

> <Gold.PLP.PLP>
-24.3551

> <Gold.PLP.part.hbond>
-4.0000

> <Gold.PLP.part.metal>
0.0000

> <Gold.PLP.part.buried>
-5.3648

> <Gold.PLP.part.nonpolar>
-16.4847

> <Gold.PLP.part.repulsive>
0.2999

> <Gold.PLP.ligand.clash>
0.0000

> <Gold.PLP.ligand.torsion>
1.1009

> <Gold.PLP.Chemscore.Hbond>
4.0000

> <Gold.PLP.Chemscore.CHOScore>
0.0000

> <Gold.PLP.Chemscore.Metal>
0.0000

> <Gold.Chemscore.Hbonds>
donor molecule, donor type, donor heavy atom, donor atom, acceptor molecule, acceptor atom, score
      L1  H    15    37       P1 10956  1.00
      P1  H  6896  6908       L1     7  1.00
      P1  H  6934  6947       L1    29  0.98
      P1  H 10752 10764       L1     3  1.00

> <Gold.PLP.Chemscore.Internal.Correction>
0.1768

> <Gold.Rescore>
     Score         DG    S(hbond)    S(metal)    S(lipo)     H(rot)  DE(clash)    DE(int)     intcor
      4.28     -10.04       3.66        0.00      28.74       4.31       0.06       5.70       ----

> <Gold.Chemscore.Fitness>
4.2829

> <Gold.Chemscore.DG>
-10.0442

> <Gold.Chemscore.ZeroCoef>
-5.4800

> <Gold.Chemscore.Hbond>
3.6610

> <Gold.Chemscore.Metal>
0.0000

> <Gold.Chemscore.Lipo>
28.7388

> <Gold.Chemscore.Internal_Hbond>
0.0000

> <Gold.Chemscore.DEClash>
0.0580

> <Gold.Chemscore.DEInternal>
5.7033

> <Gold.Chemscore.Rot>
4.3070

> <Gold.Chemscore.Internal.Correction>
   9.000000E+99

> <Gold.Chemscore.Hbonds>
donor molecule, donor type, donor heavy atom, donor atom, acceptor molecule, acceptor atom, score
      L1  H    15    37       P1 10956  0.57
      P1  H  6896  6908       L1     7  0.35
      P1  H  6934  6947       L1    29  0.87
      P1  H 10752 10764       L1     3  0.92

> <Gold.Chemscore.Hbond.Weighted>
-12.2276

> <Gold.Chemscore.Metal.Weighted>
-0.0000

> <Gold.Chemscore.Lipo.Weighted>
-3.3624

> <Gold.Chemscore.Internal_Hbond.Weighted>
0.0000

> <Gold.Chemscore.DEClash.Weighted>
0.0580

> <Gold.Chemscore.DEInternal.Weighted>
5.7033

> <Gold.Chemscore.Rot.Weighted>
11.0259

> <Gold.Chemscore.Internal.Correction.Weighted>
   9.000000E+99

> <Gold.Protein.RotatedTorsions>
[ 6907 6896 6895 6894 ] final  133.18 input  -60.11 | X-H torsion
[ 7974 7965 7964 7962 ] final   90.56 input  175.53 | X-H torsion
[ 8008 7997 7996 7995 ] final  -72.51 input   59.86 | X-H torsion
[ 10167 10162 10161 10158 ] final  176.74 input  -65.29 | X-H torsion
[ 10718 10713 10712 10709 ] final -148.86 input   66.30 | X-H torsion
[ 10763 10752 10751 10750 ] final  -65.42 input  -60.55 | X-H torsion
[ 11005 11000 10999 10996 ] final -155.06 input  -57.11 | X-H torsion

> <Gold.Protein.ActiveResidues>
 VAL166  LYS551  ARG553  GLY616  TRP617  ASP618  TYR619  PRO620  LYS621  CYS622 
 ASP623  PHE694  ASN695  SER759  ASP760  ASP761  ALA762  ILE779  LEU786  VAL792 
 PHE793  MET794  SER795  GLU796  ALA797  LYS798  CYS799  TRP800  GLU811  SER814 

> <Gold.Protein.RotatedAtoms>
  152.3247  133.5892  159.5768 H   0  0  0  0  0  0  0  0  0  0  0  0  # atno 6907 bound_to 6896
  150.7390  133.9959  159.3631 H   0  0  0  0  0  0  0  0  0  0  0  0  # atno 6908 bound_to 6896
  151.7840  135.0754  160.0429 H   0  0  0  0  0  0  0  0  0  0  0  0  # atno 6909 bound_to 6896
  145.5174  139.2278  143.2691 H   0  0  0  0  0  0  0  0  0  0  0  0  # atno 7974 bound_to 7965
  154.5172  140.0796  156.8104 H   0  0  0  0  0  0  0  0  0  0  0  0  # atno 8008 bound_to 7997
  155.3654  140.3420  155.4223 H   0  0  0  0  0  0  0  0  0  0  0  0  # atno 8009 bound_to 7997
  156.1641  140.1598  156.8549 H   0  0  0  0  0  0  0  0  0  0  0  0  # atno 8010 bound_to 7997
  139.5226  144.2879  152.0489 H   0  0  0  0  0  0  0  0  0  0  0  0  # atno 10167 bound_to 10162
  156.4256  130.8050  151.2275 H   0  0  0  0  0  0  0  0  0  0  0  0  # atno 10718 bound_to 10713
  154.3448  135.6149  153.5614 H   0  0  0  0  0  0  0  0  0  0  0  0  # atno 10763 bound_to 10752
  152.9802  135.5778  154.4811 H   0  0  0  0  0  0  0  0  0  0  0  0  # atno 10764 bound_to 10752
  154.4522  135.2853  155.1750 H   0  0  0  0  0  0  0  0  0  0  0  0  # atno 10765 bound_to 10752
  140.6905  134.4046  157.5219 H   0  0  0  0  0  0  0  0  0  0  0  0  # atno 11005 bound_to 11000
  146.2128  140.5984  142.9052 LP  0  0  0  0  0  0  0  0  0  0  0  0  # atno 17320 bound_to 7965
  144.7694  140.5604  143.6680 LP  0  0  0  0  0  0  0  0  0  0  0  0  # atno 17321 bound_to 7965
  140.2332  144.4347  150.6291 LP  0  0  0  0  0  0  0  0  0  0  0  0  # atno 17342 bound_to 10162
  140.6341  143.2192  151.6432 LP  0  0  0  0  0  0  0  0  0  0  0  0  # atno 17343 bound_to 10162
  157.7508  131.0214  150.3749 LP  0  0  0  0  0  0  0  0  0  0  0  0  # atno 17370 bound_to 10713
  156.4076  130.3928  149.6914 LP  0  0  0  0  0  0  0  0  0  0  0  0  # atno 17371 bound_to 10713
  139.8925  134.8754  156.2269 LP  0  0  0  0  0  0  0  0  0  0  0  0  # atno 17394 bound_to 11000
  141.0245  133.7023  156.1324 LP  0  0  0  0  0  0  0  0  0  0  0  0  # atno 17395 bound_to 11000

$$$$
