AV-unprocessed.smi:2718|AV-procd|sdf|10489|dock10
  -GOLD-   2272014533D 1   1.00000     0.00000
 Structure written by MMmdl.
 47 48  0  0  0  0  0  0  0  0  1 V2000
  151.7733  145.2512  159.9746 C   0  0  0  0  0  0  0  0  0  0  0  0
  151.4550  144.1918  158.9381 C   0  0  0  0  0  0  0  0  0  0  0  0
  151.7611  144.5930  157.5057 C   0  0  0  0  0  0  0  0  0  0  0  0
  150.9387  142.9969  159.2833 C   0  0  0  0  0  0  0  0  0  0  0  0
  150.5767  141.8858  158.3644 C   0  0  1  0  0  0  0  0  0  0  0  0
  151.3734  141.6447  157.0960 C   0  0  2  0  0  0  0  0  0  0  0  0
  150.6408  141.2715  155.8453 C   0  0  0  0  0  0  0  0  0  0  0  0
  150.8577  140.2414  155.2065 O   0  0  0  0  0  0  0  0  0  0  0  0
  149.6972  142.1577  155.4952 N   0  0  0  0  0  0  0  0  0  0  0  0
  148.7893  142.0209  154.3600 C   0  0  0  0  0  0  0  0  0  0  0  0
  147.6427  141.0197  154.6261 C   0  0  2  0  0  0  0  0  0  0  0  0
  147.1012  140.4143  153.3227 C   0  0  0  0  0  0  0  0  0  0  0  0
  146.5396  141.6103  155.4646 C   0  0  0  0  0  0  0  0  0  0  0  0
  146.2337  141.1747  156.6943 N   0  0  0  0  0  0  0  0  0  0  0  0
  145.1682  141.9464  157.1114 N   0  0  0  0  0  0  0  0  0  0  0  0
  144.9343  142.7721  156.0927 C   0  0  0  0  0  0  0  0  0  0  0  0
  145.7486  142.6185  155.0378 N   0  0  0  0  0  0  0  0  0  0  0  0
  145.7476  143.3539  153.7884 C   0  0  0  0  0  0  0  0  0  0  0  0
  151.4475  140.6450  158.2445 C   0  0  0  0  0  0  0  0  0  0  0  0
  152.7738  140.5304  158.9811 C   0  0  0  0  0  0  0  0  0  0  0  0
  150.7705  139.2797  158.2107 C   0  0  0  0  0  0  0  0  0  0  0  0
  152.8333  145.5044  159.9439 H   0  0  0  0  0  0  0  0  0  0  0  0
  151.5350  144.9115  160.9830 H   0  0  0  0  0  0  0  0  0  0  0  0
  151.1987  146.1564  159.7773 H   0  0  0  0  0  0  0  0  0  0  0  0
  151.1556  145.4533  157.2201 H   0  0  0  0  0  0  0  0  0  0  0  0
  151.5612  143.7915  156.7954 H   0  0  0  0  0  0  0  0  0  0  0  0
  152.8114  144.8684  157.4094 H   0  0  0  0  0  0  0  0  0  0  0  0
  150.7613  142.7982  160.3303 H   0  0  0  0  0  0  0  0  0  0  0  0
  149.4979  141.7496  158.3088 H   0  0  0  0  0  0  0  0  0  0  0  0
  152.2572  142.2645  156.9475 H   0  0  0  0  0  0  0  0  0  0  0  0
  149.5794  142.9763  156.0749 H   0  0  0  0  0  0  0  0  0  0  0  0
  148.3730  143.0091  154.1625 H   0  0  0  0  0  0  0  0  0  0  0  0
  149.3470  141.7390  153.4654 H   0  0  0  0  0  0  0  0  0  0  0  0
  148.0778  140.1897  155.1818 H   0  0  0  0  0  0  0  0  0  0  0  0
  146.3505  139.6508  153.5283 H   0  0  0  0  0  0  0  0  0  0  0  0
  147.8996  139.9457  152.7466 H   0  0  0  0  0  0  0  0  0  0  0  0
  146.6396  141.1748  152.6918 H   0  0  0  0  0  0  0  0  0  0  0  0
  144.1448  143.5088  156.1172 H   0  0  0  0  0  0  0  0  0  0  0  0
  144.9940  144.1414  153.8171 H   0  0  0  0  0  0  0  0  0  0  0  0
  145.5212  142.6795  152.9626 H   0  0  0  0  0  0  0  0  0  0  0  0
  146.7252  143.8082  153.6262 H   0  0  0  0  0  0  0  0  0  0  0  0
  153.4146  139.7953  158.4932 H   0  0  0  0  0  0  0  0  0  0  0  0
  152.6114  140.2206  160.0136 H   0  0  0  0  0  0  0  0  0  0  0  0
  153.3014  141.4847  158.9911 H   0  0  0  0  0  0  0  0  0  0  0  0
  151.2967  138.6138  157.5266 H   0  0  0  0  0  0  0  0  0  0  0  0
  149.7308  139.3536  157.8942 H   0  0  0  0  0  0  0  0  0  0  0  0
  150.7749  138.8292  159.2037 H   0  0  0  0  0  0  0  0  0  0  0  0
  1  2  1  0  0  0  0
  1 22  1  0  0  0  0
  1 23  1  0  0  0  0
  1 24  1  0  0  0  0
  2  3  1  0  0  0  0
  2  4  2  0  0  0  0
  3 25  1  0  0  0  0
  3 26  1  0  0  0  0
  3 27  1  0  0  0  0
  4  5  1  0  0  0  0
  4 28  1  0  0  0  0
  5 19  1  0  0  0  0
  5  6  1  0  0  0  0
  5 29  1  0  0  0  0
  6  7  1  0  0  0  0
  6 19  1  0  0  0  0
  6 30  1  0  0  0  0
  7  8  2  0  0  0  0
  7  9  1  0  0  0  0
  9 10  1  0  0  0  0
  9 31  1  0  0  0  0
 10 11  1  0  0  0  0
 10 32  1  0  0  0  0
 10 33  1  0  0  0  0
 11 12  1  0  0  0  0
 11 13  1  0  0  0  0
 11 34  1  0  0  0  0
 12 35  1  0  0  0  0
 12 36  1  0  0  0  0
 12 37  1  0  0  0  0
 13 17  1  0  0  0  0
 13 14  2  0  0  0  0
 14 15  1  0  0  0  0
 15 16  2  0  0  0  0
 16 17  1  0  0  0  0
 16 38  1  0  0  0  0
 17 18  1  0  0  0  0
 18 39  1  0  0  0  0
 18 40  1  0  0  0  0
 18 41  1  0  0  0  0
 19 20  1  0  0  0  0
 19 21  1  0  0  0  0
 20 42  1  0  0  0  0
 20 43  1  0  0  0  0
 20 44  1  0  0  0  0
 21 45  1  0  0  0  0
 21 46  1  0  0  0  0
 21 47  1  0  0  0  0
M  END
> <s_m_source_file>
AV-unprocessed.smi

> <i_m_source_file_index>
2718

> <i_lp_mmshare_version>
43012

> <i_f3d_flags>
0

> <s_epik_input>
W0NIM11DKFtDSDNdKT1bQ0hdW0NAQEhdKEMxKFtDSDNdKVtDSDNdKVtDQEhdMUMoPU8pW05IXVtDSDJdW0NASF0oW0NIM10pYzJubltjSF1uMltDSDNd

> <s_epik_cmdline>
J2VwaWtfcHl0aG9uJywgJy1waCcsICc3LjAnLCAnLXRuJywgJzgnLCAnLW1hJywgJzIwMCcsICctbWV0YWxfYmluZGluZycsICctaW1hZScsICc8aW5maWxlLm1hZT4nLCAnLW9tYWUnLCAnPG91dGZpbGUubWFlPic=

> <r_lp_tautomer_probability>
1

> <r_epik_Ionization_Penalty>
0.000449586

> <r_epik_Ionization_Penalty_Charging>
0

> <r_epik_Ionization_Penalty_Neutral>
0.000449586

> <r_epik_State_Penalty>
0.000243372

> <r_epik_Charging_Adjusted_Penalty>
0.000243372

> <i_epik_Tot_Q>
0

> <i_epik_Tot_abs_Q>
0

> <r_epik_Metal_State_Penalty>
-0

> <b_epik_Metal_Only>
0

> <s_lp_Force_Field>
OPLS_2005

> <r_lp_Energy>
15.8619

> <b_lp_Chiralities_Consistent>
1

> <s_lp_Variant>
AV-unprocessed.smi:2718-4

> <Gold.Version>
5.8.1

> <Gold.Id.Protein>
6NUR|6NUR_protein|mol2

> <Gold.PLP.Fitness>
46.0217

> <Gold.PLP.PLP>
-42.1361

> <Gold.PLP.part.hbond>
-2.0000

> <Gold.PLP.part.metal>
0.0000

> <Gold.PLP.part.buried>
-3.1883

> <Gold.PLP.part.nonpolar>
-36.3053

> <Gold.PLP.part.repulsive>
0.3010

> <Gold.PLP.ligand.clash>
0.0000

> <Gold.PLP.ligand.torsion>
0.7004

> <Gold.PLP.Chemscore.Hbond>
1.6793

> <Gold.PLP.Chemscore.CHOScore>
0.0000

> <Gold.PLP.Chemscore.Metal>
0.0000

> <Gold.Chemscore.Hbonds>
donor molecule, donor type, donor heavy atom, donor atom, acceptor molecule, acceptor atom, score
      L1  H     9    31       P1  8028  0.61
      P1  H  7989  7998       L1     8  1.00

> <Gold.PLP.Chemscore.Internal.Correction>
0.2486

> <Gold.Rescore>
     Score         DG    S(hbond)    S(metal)    S(lipo)     H(rot)  DE(clash)    DE(int)     intcor
     12.67     -15.89       0.78        0.00     109.37       1.95       1.53       1.68       ----

> <Gold.Chemscore.Fitness>
12.6740

> <Gold.Chemscore.DG>
-15.8859

> <Gold.Chemscore.ZeroCoef>
-5.4800

> <Gold.Chemscore.Hbond>
0.7815

> <Gold.Chemscore.Metal>
0.0000

> <Gold.Chemscore.Lipo>
109.3681

> <Gold.Chemscore.Internal_Hbond>
0.0000

> <Gold.Chemscore.DEClash>
1.5346

> <Gold.Chemscore.DEInternal>
1.6773

> <Gold.Chemscore.Rot>
1.9533

> <Gold.Chemscore.Internal.Correction>
   9.000000E+99

> <Gold.Chemscore.Hbonds>
donor molecule, donor type, donor heavy atom, donor atom, acceptor molecule, acceptor atom, score
      L1  H     9    31       P1  8028  0.62
      P1  H  7989  7998       L1     8  0.43

> <Gold.Chemscore.Hbond.Weighted>
-2.6104

> <Gold.Chemscore.Metal.Weighted>
-0.0000

> <Gold.Chemscore.Lipo.Weighted>
-12.7961

> <Gold.Chemscore.Internal_Hbond.Weighted>
0.0000

> <Gold.Chemscore.DEClash.Weighted>
1.5346

> <Gold.Chemscore.DEInternal.Weighted>
1.6773

> <Gold.Chemscore.Rot.Weighted>
5.0005

> <Gold.Chemscore.Internal.Correction.Weighted>
   9.000000E+99

> <Gold.Protein.RotatedTorsions>
[ 6907 6896 6895 6894 ] final   60.00 input  -60.11 | X-H torsion
[ 7974 7965 7964 7962 ] final   18.68 input  175.53 | X-H torsion
[ 8008 7997 7996 7995 ] final  -59.28 input   59.86 | X-H torsion
[ 10167 10162 10161 10158 ] final  156.51 input  -65.29 | X-H torsion
[ 10718 10713 10712 10709 ] final  -19.03 input   66.30 | X-H torsion
[ 10763 10752 10751 10750 ] final  153.26 input  -60.55 | X-H torsion
[ 11005 11000 10999 10996 ] final  -25.07 input  -57.11 | X-H torsion

> <Gold.Protein.ActiveResidues>
 VAL166  LYS551  ARG553  GLY616  TRP617  ASP618  TYR619  PRO620  LYS621  CYS622 
 ASP623  PHE694  ASN695  SER759  ASP760  ASP761  ALA762  ILE779  LEU786  VAL792 
 PHE793  MET794  SER795  GLU796  ALA797  LYS798  CYS799  TRP800  GLU811  SER814 

> <Gold.Protein.RotatedAtoms>
  152.3964  134.6357  160.0086 H   0  0  0  0  0  0  0  0  0  0  0  0  # atno 6907 bound_to 6896
  151.6576  133.3312  159.3174 H   0  0  0  0  0  0  0  0  0  0  0  0  # atno 6908 bound_to 6896
  150.7871  134.6908  159.6541 H   0  0  0  0  0  0  0  0  0  0  0  0  # atno 6909 bound_to 6896
  146.2176  139.8423  142.8638 H   0  0  0  0  0  0  0  0  0  0  0  0  # atno 7974 bound_to 7965
  154.4345  140.1065  156.6091 H   0  0  0  0  0  0  0  0  0  0  0  0  # atno 8008 bound_to 7997
  155.5829  140.3491  155.4526 H   0  0  0  0  0  0  0  0  0  0  0  0  # atno 8009 bound_to 7997
  156.0305  140.1259  157.0252 H   0  0  0  0  0  0  0  0  0  0  0  0  # atno 8010 bound_to 7997
  139.4821  144.5002  151.8179 H   0  0  0  0  0  0  0  0  0  0  0  0  # atno 10167 bound_to 10162
  156.5513  130.4702  149.6451 H   0  0  0  0  0  0  0  0  0  0  0  0  # atno 10718 bound_to 10713
  154.1334  135.2825  155.3179 H   0  0  0  0  0  0  0  0  0  0  0  0  # atno 10763 bound_to 10752
  154.6339  135.5425  153.7715 H   0  0  0  0  0  0  0  0  0  0  0  0  # atno 10764 bound_to 10752
  153.0274  135.6469  154.1483 H   0  0  0  0  0  0  0  0  0  0  0  0  # atno 10765 bound_to 10752
  140.8904  133.7592  156.0414 H   0  0  0  0  0  0  0  0  0  0  0  0  # atno 11005 bound_to 11000
  145.2886  141.0160  143.3676 LP  0  0  0  0  0  0  0  0  0  0  0  0  # atno 17320 bound_to 7965
  144.9094  139.4547  143.6594 LP  0  0  0  0  0  0  0  0  0  0  0  0  # atno 17321 bound_to 7965
  140.4495  144.1875  150.5896 LP  0  0  0  0  0  0  0  0  0  0  0  0  # atno 17342 bound_to 10162
  140.4600  143.2453  151.9233 LP  0  0  0  0  0  0  0  0  0  0  0  0  # atno 17343 bound_to 10162
  156.2882  130.7109  151.1951 LP  0  0  0  0  0  0  0  0  0  0  0  0  # atno 17370 bound_to 10713
  157.7387  131.0538  150.5279 LP  0  0  0  0  0  0  0  0  0  0  0  0  # atno 17371 bound_to 10713
  140.8354  134.3130  157.5333 LP  0  0  0  0  0  0  0  0  0  0  0  0  # atno 17394 bound_to 11000
  139.8729  134.9386  156.3720 LP  0  0  0  0  0  0  0  0  0  0  0  0  # atno 17395 bound_to 11000

$$$$
