AV-unprocessed.smi:657|AV-procd|sdf|3220|dock5
  -GOLD-   22720 0153D 1   1.00000     0.00000
 Structure written by MMmdl.
 47 48  0  0  0  0  0  0  0  0  2 V2000
  144.2394  135.0142  152.8433 C   0  0  0  0  0  0  0  0  0  0  0  0
  145.5636  135.5832  152.2954 C   0  0  0  0  0  0  0  0  0  0  0  0
  145.4859  135.8378  150.7799 C   0  0  0  0  0  0  0  0  0  0  0  0
  146.7694  134.7617  152.6551 N   0  3  2  0  0  0  0  0  0  0  0  0
  146.7982  133.4359  151.9676 C   0  0  0  0  0  0  0  0  0  0  0  0
  148.1229  132.6966  152.1919 C   0  0  0  0  0  0  0  0  0  0  0  0
  148.3612  132.4866  153.6867 C   0  0  0  0  0  0  0  0  0  0  0  0
  148.3496  133.8441  154.3909 C   0  0  0  0  0  0  0  0  0  0  0  0
  147.0462  134.6394  154.1273 C   0  0  1  0  0  0  0  0  0  0  0  0
  147.2020  135.9942  154.8385 C   0  0  0  0  0  0  0  0  0  0  0  0
  146.4069  136.3312  155.7166 O   0  0  0  0  0  0  0  0  0  0  0  0
  148.2086  136.7735  154.4167 N   0  0  0  0  0  0  0  0  0  0  0  0
  148.4699  138.1343  154.8764 C   0  0  0  0  0  0  0  0  0  0  0  0
  149.7735  138.7168  154.2927 C   0  0  0  0  0  0  0  0  0  0  0  0
  150.7507  139.1431  155.3581 C   0  0  0  0  0  0  0  0  0  0  0  0
  152.1405  138.8443  155.4461 C   0  0  0  0  0  0  0  0  0  0  0  0
  152.7219  139.4070  156.4927 N   0  0  0  0  0  0  0  0  0  0  0  0
  151.7267  140.0746  157.1118 N   0  0  0  0  0  0  0  0  0  0  0  0
  152.0115  140.8241  158.3166 C   0  0  0  0  0  0  0  0  0  0  0  0
  150.5249  139.9271  156.4541 C   0  0  0  0  0  0  0  0  0  0  0  0
  143.4171  135.7022  152.6448 H   0  0  0  0  0  0  0  0  0  0  0  0
  144.2776  134.8647  153.9220 H   0  0  0  0  0  0  0  0  0  0  0  0
  143.9763  134.0640  152.3784 H   0  0  0  0  0  0  0  0  0  0  0  0
  145.6697  136.5770  152.7261 H   0  0  0  0  0  0  0  0  0  0  0  0
  144.7105  136.5700  150.5527 H   0  0  0  0  0  0  0  0  0  0  0  0
  145.2458  134.9359  150.2177 H   0  0  0  0  0  0  0  0  0  0  0  0
  146.4277  136.2332  150.3982 H   0  0  0  0  0  0  0  0  0  0  0  0
  145.9820  132.8103  152.3305 H   0  0  0  0  0  0  0  0  0  0  0  0
  146.6510  133.5558  150.8955 H   0  0  0  0  0  0  0  0  0  0  0  0
  148.1035  131.7335  151.6810 H   0  0  0  0  0  0  0  0  0  0  0  0
  148.9460  133.2646  151.7563 H   0  0  0  0  0  0  0  0  0  0  0  0
  147.5882  131.8404  154.1049 H   0  0  0  0  0  0  0  0  0  0  0  0
  149.3151  131.9847  153.8510 H   0  0  0  0  0  0  0  0  0  0  0  0
  148.4872  133.6904  155.4625 H   0  0  0  0  0  0  0  0  0  0  0  0
  149.2140  134.4196  154.0536 H   0  0  0  0  0  0  0  0  0  0  0  0
  146.2152  134.0980  154.5822 H   0  0  0  0  0  0  0  0  0  0  0  0
  148.8087  136.4208  153.6850 H   0  0  0  0  0  0  0  0  0  0  0  0
  147.6231  138.7858  154.6557 H   0  0  0  0  0  0  0  0  0  0  0  0
  148.5508  138.0924  155.9629 H   0  0  0  0  0  0  0  0  0  0  0  0
  150.2308  137.9697  153.6430 H   0  0  0  0  0  0  0  0  0  0  0  0
  149.5271  139.5538  153.6390 H   0  0  0  0  0  0  0  0  0  0  0  0
  152.7429  138.2500  154.7751 H   0  0  0  0  0  0  0  0  0  0  0  0
  151.1322  141.3933  158.6189 H   0  0  0  0  0  0  0  0  0  0  0  0
  152.8356  141.5151  158.1374 H   0  0  0  0  0  0  0  0  0  0  0  0
  152.2851  140.1393  159.1196 H   0  0  0  0  0  0  0  0  0  0  0  0
  149.6197  140.3982  156.8079 H   0  0  0  0  0  0  0  0  0  0  0  0
  147.5567  135.2791  152.2905 H   0  0  0  0  0  0  0  0  0  0  0  0
  1  2  1  0  0  0  0
  1 21  1  0  0  0  0
  1 22  1  0  0  0  0
  1 23  1  0  0  0  0
  2  3  1  0  0  0  0
  2  4  1  0  0  0  0
  2 24  1  0  0  0  0
  3 25  1  0  0  0  0
  3 26  1  0  0  0  0
  3 27  1  0  0  0  0
  4  9  1  0  0  0  0
  4  5  1  0  0  0  0
  4 47  1  0  0  0  0
  5  6  1  0  0  0  0
  5 28  1  0  0  0  0
  5 29  1  0  0  0  0
  6  7  1  0  0  0  0
  6 30  1  0  0  0  0
  6 31  1  0  0  0  0
  7  8  1  0  0  0  0
  7 32  1  0  0  0  0
  7 33  1  0  0  0  0
  8  9  1  0  0  0  0
  8 34  1  0  0  0  0
  8 35  1  0  0  0  0
  9 10  1  0  0  0  0
  9 36  1  0  0  0  0
 10 11  2  0  0  0  0
 10 12  1  0  0  0  0
 12 13  1  0  0  0  0
 12 37  1  0  0  0  0
 13 14  1  0  0  0  0
 13 38  1  0  0  0  0
 13 39  1  0  0  0  0
 14 15  1  0  0  0  0
 14 40  1  0  0  0  0
 14 41  1  0  0  0  0
 15 20  2  0  0  0  0
 15 16  1  0  0  0  0
 16 17  2  0  0  0  0
 16 42  1  0  0  0  0
 17 18  1  0  0  0  0
 18 19  1  0  0  0  0
 18 20  1  0  0  0  0
 19 43  1  0  0  0  0
 19 44  1  0  0  0  0
 19 45  1  0  0  0  0
 20 46  1  0  0  0  0
M  CHG  1   4   1
M  END
> <s_m_source_file>
AV-unprocessed.smi

> <i_m_source_file_index>
657

> <i_lp_mmshare_version>
43012

> <i_f3d_flags>
0

> <s_epik_input>
W0NIM11bQ0hdKFtDSDNdKU4xW0NIMl1bQ0gyXVtDSDJdW0NIMl1bQ0BIXTFDKD1PKVtOSF1bQ0gyXVtDSDJdYzJbY0hdbm4oW0NIM10pW2NIXTI=

> <s_epik_cmdline>
J2VwaWtfcHl0aG9uJywgJy1waCcsICc3LjAnLCAnLXRuJywgJzgnLCAnLW1hJywgJzIwMCcsICctbWV0YWxfYmluZGluZycsICctaW1hZScsICc8aW5maWxlLm1hZT4nLCAnLW9tYWUnLCAnPG91dGZpbGUubWFlPic=

> <r_lp_tautomer_probability>
1

> <r_epik_Ionization_Penalty>
0.0244317

> <r_epik_Ionization_Penalty_Charging>
0.0240236

> <r_epik_Ionization_Penalty_Neutral>
0.00040815

> <r_epik_State_Penalty>
0.0194773

> <r_epik_Charging_Adjusted_Penalty>
0.0435009

> <i_epik_Tot_Q>
1

> <i_epik_Tot_abs_Q>
1

> <r_epik_Metal_State_Penalty>
0.0361957

> <b_epik_Metal_Only>
0

> <s_lp_Force_Field>
OPLS_2005

> <r_lp_Energy>
17.8505

> <b_lp_Chiralities_Consistent>
1

> <s_lp_Variant>
AV-unprocessed.smi:657-1

> <Gold.Version>
5.8.1

> <Gold.Id.Protein>
6NUR|6NUR_protein|mol2

> <Gold.PLP.Fitness>
42.7539

> <Gold.PLP.PLP>
-31.9696

> <Gold.PLP.part.hbond>
-3.0000

> <Gold.PLP.part.metal>
0.0000

> <Gold.PLP.part.buried>
-0.9268

> <Gold.PLP.part.nonpolar>
-28.3665

> <Gold.PLP.part.repulsive>
0.0211

> <Gold.PLP.ligand.clash>
0.0000

> <Gold.PLP.ligand.torsion>
0.5478

> <Gold.PLP.Chemscore.Hbond>
3.9120

> <Gold.PLP.Chemscore.CHOScore>
0.0000

> <Gold.PLP.Chemscore.Metal>
0.0000

> <Gold.Chemscore.Hbonds>
donor molecule, donor type, donor heavy atom, donor atom, acceptor molecule, acceptor atom, score
      L1  H     4    47       P1  7948  2.00
      L1  H    12    37       P1  7948  0.90
      P1  H  7997  8009       L1    17  1.00

> <Gold.PLP.Chemscore.Internal.Correction>
0.1439

> <Gold.Rescore>
     Score         DG    S(hbond)    S(metal)    S(lipo)     H(rot)  DE(clash)    DE(int)     intcor
     18.63     -19.67       2.95        0.00      72.70       1.63       0.21       0.83       ----

> <Gold.Chemscore.Fitness>
18.6281

> <Gold.Chemscore.DG>
-19.6657

> <Gold.Chemscore.ZeroCoef>
-5.4800

> <Gold.Chemscore.Hbond>
2.9482

> <Gold.Chemscore.Metal>
0.0000

> <Gold.Chemscore.Lipo>
72.7002

> <Gold.Chemscore.Internal_Hbond>
0.0000

> <Gold.Chemscore.DEClash>
0.2112

> <Gold.Chemscore.DEInternal>
0.8264

> <Gold.Chemscore.Rot>
1.6279

> <Gold.Chemscore.Internal.Correction>
   9.000000E+99

> <Gold.Chemscore.Hbonds>
donor molecule, donor type, donor heavy atom, donor atom, acceptor molecule, acceptor atom, score
      L1  H     4    47       P1  7948  1.00
      L1  H    12    37       P1  7948  0.86
      P1  H  7997  8009       L1    17  0.97

> <Gold.Chemscore.Hbond.Weighted>
-9.8471

> <Gold.Chemscore.Metal.Weighted>
-0.0000

> <Gold.Chemscore.Lipo.Weighted>
-8.5059

> <Gold.Chemscore.Internal_Hbond.Weighted>
0.0000

> <Gold.Chemscore.DEClash.Weighted>
0.2112

> <Gold.Chemscore.DEInternal.Weighted>
0.8264

> <Gold.Chemscore.Rot.Weighted>
4.1673

> <Gold.Chemscore.Internal.Correction.Weighted>
   9.000000E+99

> <Gold.Protein.RotatedTorsions>
[ 6907 6896 6895 6894 ] final  -50.44 input  -60.11 | X-H torsion
[ 7974 7965 7964 7962 ] final  103.56 input  175.53 | X-H torsion
[ 8008 7997 7996 7995 ] final -167.92 input   59.86 | X-H torsion
[ 10167 10162 10161 10158 ] final   14.73 input  -65.29 | X-H torsion
[ 10718 10713 10712 10709 ] final   17.22 input   66.30 | X-H torsion
[ 10763 10752 10751 10750 ] final   98.02 input  -60.55 | X-H torsion
[ 11005 11000 10999 10996 ] final -124.05 input  -57.11 | X-H torsion

> <Gold.Protein.ActiveResidues>
 VAL166  LYS551  ARG553  GLY616  TRP617  ASP618  TYR619  PRO620  LYS621  CYS622 
 ASP623  PHE694  ASN695  SER759  ASP760  ASP761  ALA762  ILE779  LEU786  VAL792 
 PHE793  MET794  SER795  GLU796  ALA797  LYS798  CYS799  TRP800  GLU811  SER814 

> <Gold.Protein.RotatedAtoms>
  150.8707  134.8080  159.7152 H   0  0  0  0  0  0  0  0  0  0  0  0  # atno 6907 bound_to 6896
  152.4713  134.4951  159.9717 H   0  0  0  0  0  0  0  0  0  0  0  0  # atno 6908 bound_to 6896
  151.5040  133.3460  159.2909 H   0  0  0  0  0  0  0  0  0  0  0  0  # atno 6909 bound_to 6896
  145.3443  139.2454  143.3592 H   0  0  0  0  0  0  0  0  0  0  0  0  # atno 7974 bound_to 7965
  155.8843  140.1014  157.1463 H   0  0  0  0  0  0  0  0  0  0  0  0  # atno 8008 bound_to 7997
  154.4008  140.1323  156.4299 H   0  0  0  0  0  0  0  0  0  0  0  0  # atno 8009 bound_to 7997
  155.7607  140.3463  155.5199 H   0  0  0  0  0  0  0  0  0  0  0  0  # atno 8010 bound_to 7997
  140.5915  143.8785  150.6878 H   0  0  0  0  0  0  0  0  0  0  0  0  # atno 10167 bound_to 10162
  157.0790  130.6380  149.5822 H   0  0  0  0  0  0  0  0  0  0  0  0  # atno 10718 bound_to 10713
  153.2840  135.4163  155.1105 H   0  0  0  0  0  0  0  0  0  0  0  0  # atno 10763 bound_to 10752
  154.8499  135.3502  154.6072 H   0  0  0  0  0  0  0  0  0  0  0  0  # atno 10764 bound_to 10752
  153.6494  135.7053  153.5272 H   0  0  0  0  0  0  0  0  0  0  0  0  # atno 10765 bound_to 10752
  140.9871  134.0591  157.3698 H   0  0  0  0  0  0  0  0  0  0  0  0  # atno 11005 bound_to 11000
  146.2994  140.4046  142.8709 LP  0  0  0  0  0  0  0  0  0  0  0  0  # atno 17320 bound_to 7965
  144.8766  140.7345  143.6013 LP  0  0  0  0  0  0  0  0  0  0  0  0  # atno 17321 bound_to 7965
  140.2309  143.3736  152.1566 LP  0  0  0  0  0  0  0  0  0  0  0  0  # atno 17342 bound_to 10162
  139.5231  144.7067  151.5333 LP  0  0  0  0  0  0  0  0  0  0  0  0  # atno 17343 bound_to 10162
  155.9929  130.4988  150.7358 LP  0  0  0  0  0  0  0  0  0  0  0  0  # atno 17370 bound_to 10713
  157.4816  131.0903  151.0530 LP  0  0  0  0  0  0  0  0  0  0  0  0  # atno 17371 bound_to 10713
  139.8975  135.0151  156.7106 LP  0  0  0  0  0  0  0  0  0  0  0  0  # atno 17394 bound_to 11000
  140.7097  133.9234  155.8076 LP  0  0  0  0  0  0  0  0  0  0  0  0  # atno 17395 bound_to 11000

$$$$
