AV-unprocessed.smi:759|AV-procd|sdf|3621|dock1
  -GOLD-   22720 1 13D 1   1.00000     0.00000
 Structure written by MMmdl.
 24 25  0  0  0  0  0  0  0  0  2 V2000
  150.9838  137.9025  154.2247 C   0  0  0  0  0  0  0  0  0  0  0  0
  151.7624  137.2160  155.0586 N   0  0  0  0  0  0  0  0  0  0  0  0
  152.0449  138.1360  156.0043 N   0  0  0  0  0  0  0  0  0  0  0  0
  151.4435  139.2869  155.6951 C   0  0  0  0  0  0  0  0  0  0  0  0
  151.5615  140.5085  156.5545 C   0  0  2  0  0  0  0  0  0  0  0  0
  151.2578  140.2058  158.0343 C   0  0  0  0  0  0  0  0  0  0  0  0
  151.3772  141.4826  158.8809 C   0  0  0  0  0  0  0  0  0  0  0  0
  150.4925  142.6046  158.3125 C   0  0  0  0  0  0  0  0  0  0  0  0
  150.8241  142.8638  156.8945 N   0  3  0  0  0  0  0  0  0  0  0  0
  150.6811  141.6655  156.0382 C   0  0  0  0  0  0  0  0  0  0  0  0
  150.7452  139.2042  154.5666 N   0  0  0  0  0  0  0  0  0  0  0  0
  150.5720  137.4491  153.3349 H   0  0  0  0  0  0  0  0  0  0  0  0
  152.5998  140.8409  156.4976 H   0  0  0  0  0  0  0  0  0  0  0  0
  150.2507  139.7977  158.1332 H   0  0  0  0  0  0  0  0  0  0  0  0
  151.9410  139.4443  158.4122 H   0  0  0  0  0  0  0  0  0  0  0  0
  151.0967  141.2724  159.9134 H   0  0  0  0  0  0  0  0  0  0  0  0
  152.4170  141.8114  158.9036 H   0  0  0  0  0  0  0  0  0  0  0  0
  149.4382  142.3356  158.3926 H   0  0  0  0  0  0  0  0  0  0  0  0
  150.6317  143.5226  158.8839 H   0  0  0  0  0  0  0  0  0  0  0  0
  150.2174  143.5912  156.5435 H   0  0  0  0  0  0  0  0  0  0  0  0
  150.9593  141.9286  155.0173 H   0  0  0  0  0  0  0  0  0  0  0  0
  149.6310  141.3698  156.0158 H   0  0  0  0  0  0  0  0  0  0  0  0
  151.7804  143.1842  156.8420 H   0  0  0  0  0  0  0  0  0  0  0  0
  152.6259  137.9397  156.8068 H   0  0  0  0  0  0  0  0  0  0  0  0
  1 11  1  0  0  0  0
  1 12  1  0  0  0  0
  1  2  2  0  0  0  0
  2  3  1  0  0  0  0
  3  4  1  0  0  0  0
  3 24  1  0  0  0  0
  4 11  2  0  0  0  0
  4  5  1  0  0  0  0
  5 10  1  0  0  0  0
  5  6  1  0  0  0  0
  5 13  1  0  0  0  0
  6  7  1  0  0  0  0
  6 14  1  0  0  0  0
  6 15  1  0  0  0  0
  7  8  1  0  0  0  0
  7 16  1  0  0  0  0
  7 17  1  0  0  0  0
  8  9  1  0  0  0  0
  8 18  1  0  0  0  0
  8 19  1  0  0  0  0
  9 10  1  0  0  0  0
  9 20  1  0  0  0  0
  9 23  1  0  0  0  0
 10 21  1  0  0  0  0
 10 22  1  0  0  0  0
M  CHG  1   9   1
M  END
> <s_m_source_file>
AV-unprocessed.smi

> <i_m_source_file_index>
759

> <i_lp_mmshare_version>
43012

> <i_f3d_flags>
0

> <s_epik_input>
W25IXTFbY0hdbm5jMVtDQEBIXTJbQ0gyXVtDSDJdW0NIMl1bTkhdW0NIMl0y

> <s_epik_cmdline>
J2VwaWtfcHl0aG9uJywgJy1waCcsICc3LjAnLCAnLXRuJywgJzgnLCAnLW1hJywgJzIwMCcsICctbWV0YWxfYmluZGluZycsICctaW1hZScsICc8aW5maWxlLm1hZT4nLCAnLW9tYWUnLCAnPG91dGZpbGUubWFlPic=

> <r_epik_Ionization_Penalty>
0.00885924

> <r_epik_Ionization_Penalty_Charging>
0.000426856

> <r_epik_Ionization_Penalty_Neutral>
0.00843239

> <r_epik_State_Penalty>
0.640618

> <r_epik_Charging_Adjusted_Penalty>
0.641045

> <i_epik_Tot_Q>
1

> <i_epik_Tot_abs_Q>
1

> <r_epik_Metal_State_Penalty>
0.906339

> <b_epik_Metal_Only>
0

> <s_lp_Force_Field>
OPLS_2005

> <r_lp_Energy>
13.0828

> <b_lp_Chiralities_Consistent>
1

> <s_lp_Variant>
AV-unprocessed.smi:759-3

> <Gold.Version>
5.8.1

> <Gold.Id.Protein>
6NUR|6NUR_protein|mol2

> <Gold.PLP.Fitness>
35.4067

> <Gold.PLP.PLP>
-20.4951

> <Gold.PLP.part.hbond>
-3.0000

> <Gold.PLP.part.metal>
0.0000

> <Gold.PLP.part.buried>
-4.6621

> <Gold.PLP.part.nonpolar>
-13.9774

> <Gold.PLP.part.repulsive>
0.4076

> <Gold.PLP.ligand.clash>
0.0000

> <Gold.PLP.ligand.torsion>
0.1115

> <Gold.PLP.Chemscore.Hbond>
3.9440

> <Gold.PLP.Chemscore.CHOScore>
1.0912

> <Gold.PLP.Chemscore.Metal>
0.0000

> <Gold.Chemscore.Hbonds>
donor molecule, donor type, donor heavy atom, donor atom, acceptor molecule, acceptor atom, score
      L1  H     9    20       P1  8028  2.00
      P1  H  7989  7998       L1    11  0.63
      P1  H 10752 10764       L1     2  0.94
      L1  C     1    12       P1  7948  0.52
      L1  C     1    12       P1  7949  0.58

> <Gold.PLP.Chemscore.Internal.Correction>
0.0290

> <Gold.Rescore>
     Score         DG    S(hbond)    S(metal)    S(lipo)     H(rot)  DE(clash)    DE(int)     intcor
     13.67     -13.73       1.95        0.00      36.77       1.00       0.02       0.04       ----

> <Gold.Chemscore.Fitness>
13.6729

> <Gold.Chemscore.DG>
-13.7310

> <Gold.Chemscore.ZeroCoef>
-5.4800

> <Gold.Chemscore.Hbond>
1.9488

> <Gold.Chemscore.Metal>
0.0000

> <Gold.Chemscore.Lipo>
36.7693

> <Gold.Chemscore.Internal_Hbond>
0.0000

> <Gold.Chemscore.DEClash>
0.0180

> <Gold.Chemscore.DEInternal>
0.0402

> <Gold.Chemscore.Rot>
1.0000

> <Gold.Chemscore.Internal.Correction>
   9.000000E+99

> <Gold.Chemscore.Hbonds>
donor molecule, donor type, donor heavy atom, donor atom, acceptor molecule, acceptor atom, score
      L1  H     9    20       P1  8028  0.99
      P1  H  7989  7998       L1    11  0.14
      P1  H 10752 10764       L1     2  0.84

> <Gold.Chemscore.Hbond.Weighted>
-6.5090

> <Gold.Chemscore.Metal.Weighted>
-0.0000

> <Gold.Chemscore.Lipo.Weighted>
-4.3020

> <Gold.Chemscore.Internal_Hbond.Weighted>
0.0000

> <Gold.Chemscore.DEClash.Weighted>
0.0180

> <Gold.Chemscore.DEInternal.Weighted>
0.0402

> <Gold.Chemscore.Rot.Weighted>
2.5600

> <Gold.Chemscore.Internal.Correction.Weighted>
   9.000000E+99

> <Gold.Protein.RotatedTorsions>
[ 6907 6896 6895 6894 ] final   18.02 input  -60.11 | X-H torsion
[ 7974 7965 7964 7962 ] final  -36.58 input  175.53 | X-H torsion
[ 8008 7997 7996 7995 ] final  -65.67 input   59.86 | X-H torsion
[ 10167 10162 10161 10158 ] final  -12.61 input  -65.29 | X-H torsion
[ 10718 10713 10712 10709 ] final  -40.14 input   66.30 | X-H torsion
[ 10763 10752 10751 10750 ] final  -67.31 input  -60.55 | X-H torsion
[ 11005 11000 10999 10996 ] final   68.70 input  -57.11 | X-H torsion

> <Gold.Protein.ActiveResidues>
 VAL166  LYS551  ARG553  GLY616  TRP617  ASP618  TYR619  PRO620  LYS621  CYS622 
 ASP623  PHE694  ASN695  SER759  ASP760  ASP761  ALA762  ILE779  LEU786  VAL792 
 PHE793  MET794  SER795  GLU796  ALA797  LYS798  CYS799  TRP800  GLU811  SER814 

> <Gold.Protein.RotatedAtoms>
  151.8588  135.0531  160.0466 H   0  0  0  0  0  0  0  0  0  0  0  0  # atno 6907 bound_to 6896
  152.2679  133.5351  159.5429 H   0  0  0  0  0  0  0  0  0  0  0  0  # atno 6908 bound_to 6896
  150.7140  134.0655  159.3888 H   0  0  0  0  0  0  0  0  0  0  0  0  # atno 6909 bound_to 6896
  146.0649  140.6295  142.8979 H   0  0  0  0  0  0  0  0  0  0  0  0  # atno 7974 bound_to 7965
  154.4686  140.0928  156.7086 H   0  0  0  0  0  0  0  0  0  0  0  0  # atno 8008 bound_to 7997
  155.4787  140.3467  155.4318 H   0  0  0  0  0  0  0  0  0  0  0  0  # atno 8009 bound_to 7997
  156.1000  140.1419  156.9469 H   0  0  0  0  0  0  0  0  0  0  0  0  # atno 8010 bound_to 7997
  140.7165  143.5514  150.9297 H   0  0  0  0  0  0  0  0  0  0  0  0  # atno 10167 bound_to 10162
  156.2846  130.4221  149.8301 H   0  0  0  0  0  0  0  0  0  0  0  0  # atno 10718 bound_to 10713
  154.3726  135.6092  153.5748 H   0  0  0  0  0  0  0  0  0  0  0  0  # atno 10763 bound_to 10752
  152.9790  135.5841  154.4504 H   0  0  0  0  0  0  0  0  0  0  0  0  # atno 10764 bound_to 10752
  154.4260  135.2847  155.1922 H   0  0  0  0  0  0  0  0  0  0  0  0  # atno 10765 bound_to 10752
  139.9696  134.6922  156.0474 H   0  0  0  0  0  0  0  0  0  0  0  0  # atno 11005 bound_to 11000
  144.7196  140.4330  143.7018 LP  0  0  0  0  0  0  0  0  0  0  0  0  # atno 17320 bound_to 7965
  145.6494  139.1562  143.2870 LP  0  0  0  0  0  0  0  0  0  0  0  0  # atno 17321 bound_to 7965
  139.9238  143.6574  152.3091 LP  0  0  0  0  0  0  0  0  0  0  0  0  # atno 17342 bound_to 10162
  139.7000  144.7636  151.1289 LP  0  0  0  0  0  0  0  0  0  0  0  0  # atno 17343 bound_to 10162
  156.5736  130.8435  151.3363 LP  0  0  0  0  0  0  0  0  0  0  0  0  # atno 17370 bound_to 10713
  157.7324  130.9715  150.1929 LP  0  0  0  0  0  0  0  0  0  0  0  0  # atno 17371 bound_to 10713
  141.1376  133.6571  156.3637 LP  0  0  0  0  0  0  0  0  0  0  0  0  # atno 17394 bound_to 11000
  140.5322  134.6202  157.5353 LP  0  0  0  0  0  0  0  0  0  0  0  0  # atno 17395 bound_to 11000

$$$$
