AV-unprocessed.smi:1047|AV-procd|sdf|4585|dock4
  -GOLD-   22720 3 53D 1   1.00000     0.00000
 Structure written by MMmdl.
 58 60  0  0  0  0  0  0  0  0  4 V2000
  146.5331  131.9359  152.3500 C   0  0  0  0  0  0  0  0  0  0  0  0
  147.6190  132.9955  152.5861 C   0  0  0  0  0  0  0  0  0  0  0  0
  148.3827  132.7588  153.8402 N   0  3  2  0  0  0  0  0  0  0  0  0
  147.5354  132.3176  154.9747 C   0  0  0  0  0  0  0  0  0  0  0  0
  146.7825  133.5047  155.6013 C   0  0  0  0  0  0  0  0  0  0  0  0
  147.7172  134.4981  156.0065 O   0  0  0  0  0  0  0  0  0  0  0  0
  148.4630  135.0272  154.9145 C   0  0  1  0  0  0  0  0  0  0  0  0
  149.3893  136.1254  155.4594 C   0  0  0  0  0  0  0  0  0  0  0  0
  150.2673  136.6661  154.4019 N   0  3  0  0  0  0  0  0  0  0  0  0
  150.8328  137.9950  154.7114 C   0  0  0  0  0  0  0  0  0  0  0  0
  151.4246  138.0384  156.1302 C   0  0  1  0  0  0  0  0  0  0  0  0
  152.1721  136.8573  156.3448 O   0  0  0  0  0  0  0  0  0  0  0  0
  152.3308  139.2687  156.3334 C   0  0  0  0  0  0  0  0  0  0  0  0
  151.5755  140.5223  156.4769 N   0  0  0  0  0  0  0  0  0  0  0  0
  150.6650  141.0871  155.6374 C   0  0  0  0  0  0  0  0  0  0  0  0
  150.2549  142.2565  156.2014 N   0  3  0  0  0  0  0  0  0  0  0  0
  150.9142  142.4439  157.4177 C   0  0  0  0  0  0  0  0  0  0  0  0
  150.8338  143.4753  158.3455 C   0  0  0  0  0  0  0  0  0  0  0  0
  151.6434  143.3701  159.4988 C   0  0  0  0  0  0  0  0  0  0  0  0
  151.5812  144.4822  160.5320 C   0  0  0  0  0  0  0  0  0  0  0  0
  152.4966  142.2530  159.6920 C   0  0  0  0  0  0  0  0  0  0  0  0
  153.3603  142.1491  160.9376 C   0  0  0  0  0  0  0  0  0  0  0  0
  152.5649  141.2146  158.7356 C   0  0  0  0  0  0  0  0  0  0  0  0
  151.7626  141.3345  157.6027 C   0  0  0  0  0  0  0  0  0  0  0  0
  149.2641  133.8796  154.2588 C   0  0  0  0  0  0  0  0  0  0  0  0
  145.9262  132.1969  151.4828 H   0  0  0  0  0  0  0  0  0  0  0  0
  145.8641  131.8588  153.2076 H   0  0  0  0  0  0  0  0  0  0  0  0
  146.9547  130.9493  152.1607 H   0  0  0  0  0  0  0  0  0  0  0  0
  148.2859  133.0552  151.7262 H   0  0  0  0  0  0  0  0  0  0  0  0
  147.1227  133.9644  152.6532 H   0  0  0  0  0  0  0  0  0  0  0  0
  146.8404  131.5385  154.6594 H   0  0  0  0  0  0  0  0  0  0  0  0
  148.1809  131.8633  155.7276 H   0  0  0  0  0  0  0  0  0  0  0  0
  146.0567  133.9278  154.9055 H   0  0  0  0  0  0  0  0  0  0  0  0
  146.2237  133.1718  156.4762 H   0  0  0  0  0  0  0  0  0  0  0  0
  147.7822  135.4721  154.1869 H   0  0  0  0  0  0  0  0  0  0  0  0
  148.8006  136.9328  155.8972 H   0  0  0  0  0  0  0  0  0  0  0  0
  150.0161  135.7178  156.2537 H   0  0  0  0  0  0  0  0  0  0  0  0
  151.0282  136.0207  154.2456 H   0  0  0  0  0  0  0  0  0  0  0  0
  151.5938  138.2541  153.9732 H   0  0  0  0  0  0  0  0  0  0  0  0
  150.0373  138.7361  154.6220 H   0  0  0  0  0  0  0  0  0  0  0  0
  150.6158  138.0695  156.8618 H   0  0  0  0  0  0  0  0  0  0  0  0
  151.8818  136.4602  157.1523 H   0  0  0  0  0  0  0  0  0  0  0  0
  152.9873  139.1412  157.1946 H   0  0  0  0  0  0  0  0  0  0  0  0
  152.9861  139.3910  155.4700 H   0  0  0  0  0  0  0  0  0  0  0  0
  150.3307  140.6840  154.6921 H   0  0  0  0  0  0  0  0  0  0  0  0
  150.1810  144.3225  158.1925 H   0  0  0  0  0  0  0  0  0  0  0  0
  152.5634  144.9366  160.6652 H   0  0  0  0  0  0  0  0  0  0  0  0
  151.2450  144.0940  161.4938 H   0  0  0  0  0  0  0  0  0  0  0  0
  150.8892  145.2691  160.2304 H   0  0  0  0  0  0  0  0  0  0  0  0
  153.9401  141.2257  160.9459 H   0  0  0  0  0  0  0  0  0  0  0  0
  152.7419  142.1611  161.8356 H   0  0  0  0  0  0  0  0  0  0  0  0
  154.0609  142.9827  160.9881 H   0  0  0  0  0  0  0  0  0  0  0  0
  153.2137  140.3647  158.8874 H   0  0  0  0  0  0  0  0  0  0  0  0
  149.9831  133.4860  154.9789 H   0  0  0  0  0  0  0  0  0  0  0  0
  149.8531  134.2488  153.4200 H   0  0  0  0  0  0  0  0  0  0  0  0
  149.7312  136.7454  153.5488 H   0  0  0  0  0  0  0  0  0  0  0  0
  148.9895  131.9781  153.6320 H   0  0  0  0  0  0  0  0  0  0  0  0
  149.5778  142.8815  155.7825 H   0  0  0  0  0  0  0  0  0  0  0  0
  1  2  1  0  0  0  0
  1 26  1  0  0  0  0
  1 27  1  0  0  0  0
  1 28  1  0  0  0  0
  2  3  1  0  0  0  0
  2 29  1  0  0  0  0
  2 30  1  0  0  0  0
  3 25  1  0  0  0  0
  3  4  1  0  0  0  0
  3 57  1  0  0  0  0
  4  5  1  0  0  0  0
  4 31  1  0  0  0  0
  4 32  1  0  0  0  0
  5  6  1  0  0  0  0
  5 33  1  0  0  0  0
  5 34  1  0  0  0  0
  6  7  1  0  0  0  0
  7  8  1  0  0  0  0
  7 25  1  0  0  0  0
  7 35  1  0  0  0  0
  8  9  1  0  0  0  0
  8 36  1  0  0  0  0
  8 37  1  0  0  0  0
  9 10  1  0  0  0  0
  9 38  1  0  0  0  0
  9 56  1  0  0  0  0
 10 11  1  0  0  0  0
 10 39  1  0  0  0  0
 10 40  1  0  0  0  0
 11 12  1  0  0  0  0
 11 13  1  0  0  0  0
 11 41  1  0  0  0  0
 12 42  1  0  0  0  0
 13 14  1  0  0  0  0
 13 43  1  0  0  0  0
 13 44  1  0  0  0  0
 14 24  1  0  0  0  0
 14 15  1  0  0  0  0
 15 16  2  0  0  0  0
 15 45  1  0  0  0  0
 16 17  1  0  0  0  0
 16 58  1  0  0  0  0
 17 24  2  0  0  0  0
 17 18  1  0  0  0  0
 18 19  2  0  0  0  0
 18 46  1  0  0  0  0
 19 20  1  0  0  0  0
 19 21  1  0  0  0  0
 20 47  1  0  0  0  0
 20 48  1  0  0  0  0
 20 49  1  0  0  0  0
 21 22  1  0  0  0  0
 21 23  2  0  0  0  0
 22 50  1  0  0  0  0
 22 51  1  0  0  0  0
 22 52  1  0  0  0  0
 23 24  1  0  0  0  0
 23 53  1  0  0  0  0
 25 54  1  0  0  0  0
 25 55  1  0  0  0  0
M  CHG  1   3   1
M  CHG  1   9   1
M  CHG  1  16   1
M  END
> <s_m_source_file>
AV-unprocessed.smi

> <i_m_source_file_index>
1047

> <i_lp_mmshare_version>
43012

> <i_f3d_flags>
0

> <s_epik_input>
W0NIM11bQ0gyXU4xW0NIMl1bQ0gyXU9bQ0BIXShbQ0gyXTEpW0NIMl1bTkhdW0NIMl1bQ0BIXShbT0hdKVtDSDJdbihbY0hdbjIpYyhjMjMpW2NIXWMoW0NIM10pYyhbY0hdMylbQ0gzXQ==

> <s_epik_cmdline>
J2VwaWtfcHl0aG9uJywgJy1waCcsICc3LjAnLCAnLXRuJywgJzgnLCAnLW1hJywgJzIwMCcsICctbWV0YWxfYmluZGluZycsICctaW1hZScsICc8aW5maWxlLm1hZT4nLCAnLW9tYWUnLCAnPG91dGZpbGUubWFlPic=

> <r_epik_Ionization_Penalty>
1.6114

> <r_epik_Ionization_Penalty_Charging>
1.61139

> <r_epik_Ionization_Penalty_Neutral>
5.04732e-06

> <r_epik_State_Penalty>
1.63724

> <r_epik_Charging_Adjusted_Penalty>
3.24864

> <i_epik_Tot_Q>
3

> <i_epik_Tot_abs_Q>
3

> <r_epik_Metal_State_Penalty>
5.64594

> <b_epik_Metal_Only>
0

> <s_lp_Force_Field>
OPLS_2005

> <r_lp_Energy>
39.6477

> <b_lp_Chiralities_Consistent>
1

> <s_lp_Variant>
AV-unprocessed.smi:1047-26

> <Gold.Version>
5.8.1

> <Gold.Id.Protein>
6NUR|6NUR_protein|mol2

> <Gold.PLP.Fitness>
59.7534

> <Gold.PLP.PLP>
-45.5462

> <Gold.PLP.part.hbond>
-3.7683

> <Gold.PLP.part.metal>
0.0000

> <Gold.PLP.part.buried>
-4.9785

> <Gold.PLP.part.nonpolar>
-37.1906

> <Gold.PLP.part.repulsive>
0.1554

> <Gold.PLP.ligand.clash>
0.0000

> <Gold.PLP.ligand.torsion>
0.4980

> <Gold.PLP.Chemscore.Hbond>
5.0000

> <Gold.PLP.Chemscore.CHOScore>
0.0000

> <Gold.PLP.Chemscore.Metal>
0.0000

> <Gold.Chemscore.Hbonds>
donor molecule, donor type, donor heavy atom, donor atom, acceptor molecule, acceptor atom, score
      L1  H     9    56       P1  7948  2.00
      L1  H    16    58       P1  8028  1.89
      P1  H 10752 10765       L1    12  0.78

> <Gold.PLP.Chemscore.Internal.Correction>
0.2031

> <Gold.Rescore>
     Score         DG    S(hbond)    S(metal)    S(lipo)     H(rot)  DE(clash)    DE(int)     intcor
     20.51     -21.03       2.55        0.00     121.03       2.78       0.10       0.41       ----

> <Gold.Chemscore.Fitness>
20.5135

> <Gold.Chemscore.DG>
-21.0292

> <Gold.Chemscore.ZeroCoef>
-5.4800

> <Gold.Chemscore.Hbond>
2.5503

> <Gold.Chemscore.Metal>
0.0000

> <Gold.Chemscore.Lipo>
121.0276

> <Gold.Chemscore.Internal_Hbond>
0.0000

> <Gold.Chemscore.DEClash>
0.1020

> <Gold.Chemscore.DEInternal>
0.4136

> <Gold.Chemscore.Rot>
2.7848

> <Gold.Chemscore.Internal.Correction>
   9.000000E+99

> <Gold.Chemscore.Hbonds>
donor molecule, donor type, donor heavy atom, donor atom, acceptor molecule, acceptor atom, score
      L1  H     9    56       P1  7948  0.55
      L1  H    16    58       P1  8028  0.89
      P1  H 10752 10765       L1    12  0.64

> <Gold.Chemscore.Hbond.Weighted>
-8.5180

> <Gold.Chemscore.Metal.Weighted>
-0.0000

> <Gold.Chemscore.Lipo.Weighted>
-14.1602

> <Gold.Chemscore.Internal_Hbond.Weighted>
0.0000

> <Gold.Chemscore.DEClash.Weighted>
0.1020

> <Gold.Chemscore.DEInternal.Weighted>
0.4136

> <Gold.Chemscore.Rot.Weighted>
7.1291

> <Gold.Chemscore.Internal.Correction.Weighted>
   9.000000E+99

> <Gold.Protein.RotatedTorsions>
[ 6907 6896 6895 6894 ] final  145.04 input  -60.11 | X-H torsion
[ 7974 7965 7964 7962 ] final -134.39 input  175.53 | X-H torsion
[ 8008 7997 7996 7995 ] final   61.28 input   59.86 | X-H torsion
[ 10167 10162 10161 10158 ] final    9.75 input  -65.29 | X-H torsion
[ 10718 10713 10712 10709 ] final  102.71 input   66.30 | X-H torsion
[ 10763 10752 10751 10750 ] final -150.15 input  -60.55 | X-H torsion
[ 11005 11000 10999 10996 ] final   -7.52 input  -57.11 | X-H torsion

> <Gold.Protein.ActiveResidues>
 VAL166  LYS551  ARG553  GLY616  TRP617  ASP618  TYR619  PRO620  LYS621  CYS622 
 ASP623  PHE694  ASN695  SER759  ASP760  ASP761  ALA762  ILE779  LEU786  VAL792 
 PHE793  MET794  SER795  GLU796  ALA797  LYS798  CYS799  TRP800  GLU811  SER814 

> <Gold.Protein.RotatedAtoms>
  152.1860  133.4739  159.4982 H   0  0  0  0  0  0  0  0  0  0  0  0  # atno 6907 bound_to 6896
  150.6942  134.1774  159.4244 H   0  0  0  0  0  0  0  0  0  0  0  0  # atno 6908 bound_to 6896
  151.9686  135.0087  160.0602 H   0  0  0  0  0  0  0  0  0  0  0  0  # atno 6909 bound_to 6896
  144.9107  140.6891  143.5027 H   0  0  0  0  0  0  0  0  0  0  0  0  # atno 7974 bound_to 7965
  155.5958  140.3493  155.4579 H   0  0  0  0  0  0  0  0  0  0  0  0  # atno 8008 bound_to 7997
  156.0266  140.1265  157.0326 H   0  0  0  0  0  0  0  0  0  0  0  0  # atno 8009 bound_to 7997
  154.4336  140.1052  156.6026 H   0  0  0  0  0  0  0  0  0  0  0  0  # atno 8010 bound_to 7997
  140.6236  143.8151  150.7205 H   0  0  0  0  0  0  0  0  0  0  0  0  # atno 10167 bound_to 10162
  157.6794  131.0760  150.5445 H   0  0  0  0  0  0  0  0  0  0  0  0  # atno 10718 bound_to 10713
  154.8135  135.3291  154.7239 H   0  0  0  0  0  0  0  0  0  0  0  0  # atno 10763 bound_to 10752
  153.7884  135.6913  153.4880 H   0  0  0  0  0  0  0  0  0  0  0  0  # atno 10764 bound_to 10752
  153.1933  135.4543  155.0123 H   0  0  0  0  0  0  0  0  0  0  0  0  # atno 10765 bound_to 10752
  140.7136  133.8887  155.8769 H   0  0  0  0  0  0  0  0  0  0  0  0  # atno 11005 bound_to 11000
  145.3459  139.1719  143.4460 LP  0  0  0  0  0  0  0  0  0  0  0  0  # atno 17320 bound_to 7965
  146.3157  140.3506  142.8656 LP  0  0  0  0  0  0  0  0  0  0  0  0  # atno 17321 bound_to 7965
  140.1746  143.4165  152.1976 LP  0  0  0  0  0  0  0  0  0  0  0  0  # atno 17342 bound_to 10162
  139.5460  144.7298  151.4583 LP  0  0  0  0  0  0  0  0  0  0  0  0  # atno 17343 bound_to 10162
  156.5751  130.4290  149.6002 LP  0  0  0  0  0  0  0  0  0  0  0  0  # atno 17370 bound_to 10713
  156.2708  130.7016  151.1812 LP  0  0  0  0  0  0  0  0  0  0  0  0  # atno 17371 bound_to 10713
  141.0063  134.1081  157.4267 LP  0  0  0  0  0  0  0  0  0  0  0  0  # atno 17394 bound_to 11000
  139.8865  135.0082  156.6504 LP  0  0  0  0  0  0  0  0  0  0  0  0  # atno 17395 bound_to 11000

$$$$
