AV-unprocessed.smi:1075|AV-procd|sdf|4695|dock5
  -GOLD-   22720 3213D 1   1.00000     0.00000
 Structure written by MMmdl.
 50 51  0  0  0  0  0  0  0  0  1 V2000
  153.5406  138.0964  159.8090 C   0  0  0  0  0  0  0  0  0  0  0  0
  152.8572  139.4068  159.5410 C   0  0  0  0  0  0  0  0  0  0  0  0
  153.3304  140.5074  160.0996 N   0  0  0  0  0  0  0  0  0  0  0  0
  152.5097  141.4878  159.6758 N   0  0  0  0  0  0  0  0  0  0  0  0
  152.7486  142.8495  160.1130 C   0  0  0  0  0  0  0  0  0  0  0  0
  151.5123  141.0063  158.8498 C   0  0  0  0  0  0  0  0  0  0  0  0
  150.4742  141.9093  158.2612 C   0  0  0  0  0  0  0  0  0  0  0  0
  151.7070  139.6524  158.7335 C   0  0  0  0  0  0  0  0  0  0  0  0
  150.9128  138.6191  157.9587 C   0  0  2  0  0  0  0  0  0  0  0  0
  149.9922  139.2742  156.9117 C   0  0  0  0  0  0  0  0  0  0  0  0
  150.1647  137.6971  158.9366 C   0  0  0  0  0  0  0  0  0  0  0  0
  150.7652  137.1315  159.8505 O   0  0  0  0  0  0  0  0  0  0  0  0
  148.8444  137.5588  158.7143 N   0  0  0  0  0  0  0  0  0  0  0  0
  147.8767  136.7072  159.4161 C   0  0  1  0  0  0  0  0  0  0  0  0
  146.4386  137.1094  159.0125 C   0  0  0  0  0  0  0  0  0  0  0  0
  148.1821  135.2590  158.9569 C   0  0  0  0  0  0  0  0  0  0  0  0
  147.4544  134.1781  159.7755 C   0  0  0  0  0  0  0  0  0  0  0  0
  147.7436  134.3161  161.2789 C   0  0  2  0  0  0  0  0  0  0  0  0
  147.0198  133.2351  162.0941 C   0  0  0  0  0  0  0  0  0  0  0  0
  147.3703  135.7283  161.7574 C   0  0  0  0  0  0  0  0  0  0  0  0
  148.0986  136.8170  160.9500 C   0  0  0  0  0  0  0  0  0  0  0  0
  152.8442  137.3750  160.2366 H   0  0  0  0  0  0  0  0  0  0  0  0
  154.3711  138.2068  160.5074 H   0  0  0  0  0  0  0  0  0  0  0  0
  153.9378  137.6698  158.8878 H   0  0  0  0  0  0  0  0  0  0  0  0
  151.9584  143.1569  160.7980 H   0  0  0  0  0  0  0  0  0  0  0  0
  152.7548  143.5171  159.2512 H   0  0  0  0  0  0  0  0  0  0  0  0
  153.7094  142.9271  160.6237 H   0  0  0  0  0  0  0  0  0  0  0  0
  149.5978  141.3517  157.9339 H   0  0  0  0  0  0  0  0  0  0  0  0
  150.8739  142.4435  157.3992 H   0  0  0  0  0  0  0  0  0  0  0  0
  150.1354  142.6467  158.9890 H   0  0  0  0  0  0  0  0  0  0  0  0
  151.5929  137.9697  157.4066 H   0  0  0  0  0  0  0  0  0  0  0  0
  149.2557  139.9351  157.3693 H   0  0  0  0  0  0  0  0  0  0  0  0
  149.4502  138.5238  156.3351 H   0  0  0  0  0  0  0  0  0  0  0  0
  150.5731  139.8681  156.2057 H   0  0  0  0  0  0  0  0  0  0  0  0
  148.4698  138.0813  157.9355 H   0  0  0  0  0  0  0  0  0  0  0  0
  145.6922  136.4444  159.4451 H   0  0  0  0  0  0  0  0  0  0  0  0
  146.3098  137.0790  157.9301 H   0  0  0  0  0  0  0  0  0  0  0  0
  146.1887  138.1172  159.3433 H   0  0  0  0  0  0  0  0  0  0  0  0
  147.9407  135.1403  157.8997 H   0  0  0  0  0  0  0  0  0  0  0  0
  149.2547  135.0737  159.0387 H   0  0  0  0  0  0  0  0  0  0  0  0
  146.3805  134.2329  159.5958 H   0  0  0  0  0  0  0  0  0  0  0  0
  147.7680  133.1929  159.4287 H   0  0  0  0  0  0  0  0  0  0  0  0
  148.8155  134.1801  161.4305 H   0  0  0  0  0  0  0  0  0  0  0  0
  145.9375  133.3171  161.9896 H   0  0  0  0  0  0  0  0  0  0  0  0
  147.2594  133.3171  163.1546 H   0  0  0  0  0  0  0  0  0  0  0  0
  147.3110  132.2365  161.7672 H   0  0  0  0  0  0  0  0  0  0  0  0
  146.2922  135.8730  161.6824 H   0  0  0  0  0  0  0  0  0  0  0  0
  147.6174  135.8381  162.8139 H   0  0  0  0  0  0  0  0  0  0  0  0
  149.1660  136.7445  161.1658 H   0  0  0  0  0  0  0  0  0  0  0  0
  147.7862  137.7951  161.3162 H   0  0  0  0  0  0  0  0  0  0  0  0
  1  2  1  0  0  0  0
  1 22  1  0  0  0  0
  1 23  1  0  0  0  0
  1 24  1  0  0  0  0
  2  8  1  0  0  0  0
  2  3  2  0  0  0  0
  3  4  1  0  0  0  0
  4  5  1  0  0  0  0
  4  6  1  0  0  0  0
  5 25  1  0  0  0  0
  5 26  1  0  0  0  0
  5 27  1  0  0  0  0
  6  7  1  0  0  0  0
  6  8  2  0  0  0  0
  7 28  1  0  0  0  0
  7 29  1  0  0  0  0
  7 30  1  0  0  0  0
  8  9  1  0  0  0  0
  9 10  1  0  0  0  0
  9 11  1  0  0  0  0
  9 31  1  0  0  0  0
 10 32  1  0  0  0  0
 10 33  1  0  0  0  0
 10 34  1  0  0  0  0
 11 12  2  0  0  0  0
 11 13  1  0  0  0  0
 13 14  1  0  0  0  0
 13 35  1  0  0  0  0
 14 21  1  0  0  0  0
 14 15  1  0  0  0  0
 14 16  1  0  0  0  0
 15 36  1  0  0  0  0
 15 37  1  0  0  0  0
 15 38  1  0  0  0  0
 16 17  1  0  0  0  0
 16 39  1  0  0  0  0
 16 40  1  0  0  0  0
 17 18  1  0  0  0  0
 17 41  1  0  0  0  0
 17 42  1  0  0  0  0
 18 19  1  0  0  0  0
 18 20  1  0  0  0  0
 18 43  1  0  0  0  0
 19 44  1  0  0  0  0
 19 45  1  0  0  0  0
 19 46  1  0  0  0  0
 20 21  1  0  0  0  0
 20 47  1  0  0  0  0
 20 48  1  0  0  0  0
 21 49  1  0  0  0  0
 21 50  1  0  0  0  0
M  END
> <s_m_source_file>
AV-unprocessed.smi

> <i_m_source_file_index>
1075

> <i_lp_mmshare_version>
43012

> <i_f3d_flags>
0

> <s_epik_input>
W0NIM11jMW5uKFtDSDNdKWMoW0NIM10pYzFbQ0BIXShbQ0gzXSlDKD1PKVtOSF1bQ0BAXTIoW0NIM10pW0NIMl1bQ0gyXVtDQEBIXShbQ0gzXSlbQ0gyXVtDSDJdMg==

> <s_epik_cmdline>
J2VwaWtfcHl0aG9uJywgJy1waCcsICc3LjAnLCAnLXRuJywgJzgnLCAnLW1hJywgJzIwMCcsICctbWV0YWxfYmluZGluZycsICctaW1hZScsICc8aW5maWxlLm1hZT4nLCAnLW9tYWUnLCAnPG91dGZpbGUubWFlPic=

> <r_lp_tautomer_probability>
1

> <r_epik_Ionization_Penalty>
0.00502928

> <r_epik_Ionization_Penalty_Charging>
0

> <r_epik_Ionization_Penalty_Neutral>
0.00502928

> <r_epik_State_Penalty>
0.0036576

> <r_epik_Charging_Adjusted_Penalty>
0.0036576

> <i_epik_Tot_Q>
0

> <i_epik_Tot_abs_Q>
0

> <r_epik_Metal_State_Penalty>
-0

> <b_epik_Metal_Only>
0

> <s_lp_Force_Field>
OPLS_2005

> <r_lp_Energy>
7.43589

> <b_lp_Chiralities_Consistent>
1

> <s_lp_Variant>
AV-unprocessed.smi:1075-3

> <Gold.Version>
5.8.1

> <Gold.Id.Protein>
6NUR|6NUR_protein|mol2

> <Gold.PLP.Fitness>
33.6647

> <Gold.PLP.PLP>
-32.1130

> <Gold.PLP.part.hbond>
-1.1055

> <Gold.PLP.part.metal>
0.0000

> <Gold.PLP.part.buried>
-2.8125

> <Gold.PLP.part.nonpolar>
-28.0721

> <Gold.PLP.part.repulsive>
0.1706

> <Gold.PLP.ligand.clash>
0.3675

> <Gold.PLP.ligand.torsion>
0.5912

> <Gold.PLP.Chemscore.Hbond>
1.0000

> <Gold.PLP.Chemscore.CHOScore>
0.0000

> <Gold.PLP.Chemscore.Metal>
0.0000

> <Gold.Chemscore.Hbonds>
donor molecule, donor type, donor heavy atom, donor atom, acceptor molecule, acceptor atom, score
      P1  H  6896  6907       L1    12  0.84

> <Gold.PLP.Chemscore.Internal.Correction>
0.1016

> <Gold.Rescore>
     Score         DG    S(hbond)    S(metal)    S(lipo)     H(rot)  DE(clash)    DE(int)     intcor
     12.60     -15.36       0.95        0.00      84.29       1.23       0.12       2.64       ----

> <Gold.Chemscore.Fitness>
12.6038

> <Gold.Chemscore.DG>
-15.3635

> <Gold.Chemscore.ZeroCoef>
-5.4800

> <Gold.Chemscore.Hbond>
0.9509

> <Gold.Chemscore.Metal>
0.0000

> <Gold.Chemscore.Lipo>
84.2866

> <Gold.Chemscore.Internal_Hbond>
0.0000

> <Gold.Chemscore.DEClash>
0.1191

> <Gold.Chemscore.DEInternal>
2.6406

> <Gold.Chemscore.Rot>
1.2321

> <Gold.Chemscore.Internal.Correction>
   9.000000E+99

> <Gold.Chemscore.Hbonds>
donor molecule, donor type, donor heavy atom, donor atom, acceptor molecule, acceptor atom, score
      P1  H  6896  6907       L1    12  0.81

> <Gold.Chemscore.Hbond.Weighted>
-3.1761

> <Gold.Chemscore.Metal.Weighted>
-0.0000

> <Gold.Chemscore.Lipo.Weighted>
-9.8615

> <Gold.Chemscore.Internal_Hbond.Weighted>
0.0000

> <Gold.Chemscore.DEClash.Weighted>
0.1191

> <Gold.Chemscore.DEInternal.Weighted>
2.6406

> <Gold.Chemscore.Rot.Weighted>
3.1541

> <Gold.Chemscore.Internal.Correction.Weighted>
   9.000000E+99

> <Gold.Protein.RotatedTorsions>
[ 6907 6896 6895 6894 ] final  -31.17 input  -60.11 | X-H torsion
[ 7974 7965 7964 7962 ] final  -93.60 input  175.53 | X-H torsion
[ 8008 7997 7996 7995 ] final -125.91 input   59.86 | X-H torsion
[ 10167 10162 10161 10158 ] final -134.80 input  -65.29 | X-H torsion
[ 10718 10713 10712 10709 ] final   30.40 input   66.30 | X-H torsion
[ 10763 10752 10751 10750 ] final  -94.90 input  -60.55 | X-H torsion
[ 11005 11000 10999 10996 ] final  -21.72 input  -57.11 | X-H torsion

> <Gold.Protein.ActiveResidues>
 VAL166  LYS551  ARG553  GLY616  TRP617  ASP618  TYR619  PRO620  LYS621  CYS622 
 ASP623  PHE694  ASN695  SER759  ASP760  ASP761  ALA762  ILE779  LEU786  VAL792 
 PHE793  MET794  SER795  GLU796  ALA797  LYS798  CYS799  TRP800  GLU811  SER814 

> <Gold.Protein.RotatedAtoms>
  151.0956  134.9942  159.8423 H   0  0  0  0  0  0  0  0  0  0  0  0  # atno 6907 bound_to 6896
  152.5433  134.2012  159.8723 H   0  0  0  0  0  0  0  0  0  0  0  0  # atno 6908 bound_to 6896
  151.2051  133.4544  159.2630 H   0  0  0  0  0  0  0  0  0  0  0  0  # atno 6909 bound_to 6896
  145.3844  140.9521  143.2375 H   0  0  0  0  0  0  0  0  0  0  0  0  # atno 7974 bound_to 7965
  155.2210  140.0422  157.2948 H   0  0  0  0  0  0  0  0  0  0  0  0  # atno 8008 bound_to 7997
  154.5949  140.2437  155.7841 H   0  0  0  0  0  0  0  0  0  0  0  0  # atno 8009 bound_to 7997
  156.2284  140.2947  156.0133 H   0  0  0  0  0  0  0  0  0  0  0  0  # atno 8010 bound_to 7997
  139.8843  143.6800  152.2622 H   0  0  0  0  0  0  0  0  0  0  0  0  # atno 10167 bound_to 10162
  157.2591  130.7152  149.6444 H   0  0  0  0  0  0  0  0  0  0  0  0  # atno 10718 bound_to 10713
  154.7098  135.5140  153.8650 H   0  0  0  0  0  0  0  0  0  0  0  0  # atno 10763 bound_to 10752
  153.0771  135.6620  154.0131 H   0  0  0  0  0  0  0  0  0  0  0  0  # atno 10764 bound_to 10752
  153.9975  135.3014  155.3385 H   0  0  0  0  0  0  0  0  0  0  0  0  # atno 10765 bound_to 10752
  140.8588  133.7803  156.0050 H   0  0  0  0  0  0  0  0  0  0  0  0  # atno 11005 bound_to 11000
  144.8484  139.5360  143.6868 LP  0  0  0  0  0  0  0  0  0  0  0  0  # atno 17320 bound_to 7965
  146.2827  139.6920  142.9218 LP  0  0  0  0  0  0  0  0  0  0  0  0  # atno 17321 bound_to 7965
  139.7167  144.7610  151.1022 LP  0  0  0  0  0  0  0  0  0  0  0  0  # atno 17342 bound_to 10162
  140.7738  143.5260  150.9479 LP  0  0  0  0  0  0  0  0  0  0  0  0  # atno 17343 bound_to 10162
  155.9664  130.4403  150.5294 LP  0  0  0  0  0  0  0  0  0  0  0  0  # atno 17370 bound_to 10713
  157.3195  131.0679  151.1942 LP  0  0  0  0  0  0  0  0  0  0  0  0  # atno 17371 bound_to 10713
  140.8706  134.2730  157.5192 LP  0  0  0  0  0  0  0  0  0  0  0  0  # atno 17394 bound_to 11000
  139.8706  134.9565  156.4240 LP  0  0  0  0  0  0  0  0  0  0  0  0  # atno 17395 bound_to 11000

$$$$
