AV-unprocessed.smi:1550|AV-procd|sdf|6225|dock7
  -GOLD-   22720 6403D 1   1.00000     0.00000
 Structure written by MMmdl.
 43 44  0  0  0  0  0  0  0  0  1 V2000
  151.3960  138.3812  156.3116 C   0  0  0  0  0  0  0  0  0  0  0  0
  152.0555  138.1777  157.6838 C   0  0  1  0  0  0  0  0  0  0  0  0
  152.3564  139.4672  158.2103 O   0  0  0  0  0  0  0  0  0  0  0  0
  151.2924  140.4115  158.1644 C   0  0  0  0  0  0  0  0  0  0  0  0
  151.8741  141.8154  158.3743 C   0  0  2  0  0  0  0  0  0  0  0  0
  152.2627  142.0656  159.8447 C   0  0  0  0  0  0  0  0  0  0  0  0
  152.7573  143.5043  160.0342 C   0  0  0  0  0  0  0  0  0  0  0  0
  151.7157  144.4854  159.4860 C   0  0  0  0  0  0  0  0  0  0  0  0
  151.3398  144.1140  158.0430 C   0  0  0  0  0  0  0  0  0  0  0  0
  150.8816  142.7664  157.9934 O   0  0  0  0  0  0  0  0  0  0  0  0
  151.1284  137.4130  158.6425 C   0  0  0  0  0  0  0  0  0  0  0  0
  151.5360  137.1050  159.7624 O   0  0  0  0  0  0  0  0  0  0  0  0
  149.8991  137.1390  158.1630 N   0  0  0  0  0  0  0  0  0  0  0  0
  148.8475  136.4311  158.7681 C   0  0  0  0  0  0  0  0  0  0  0  0
  148.7089  136.2460  160.1069 C   0  0  0  0  0  0  0  0  0  0  0  0
  147.6027  135.4911  160.6709 C   0  0  0  0  0  0  0  0  0  0  0  0
  147.4135  135.3620  162.1743 C   0  0  0  0  0  0  0  0  0  0  0  0
  148.3597  136.0251  162.8409 F   0  0  0  0  0  0  0  0  0  0  0  0
  146.2298  135.8624  162.5256 F   0  0  0  0  0  0  0  0  0  0  0  0
  147.4521  134.0843  162.5525 F   0  0  0  0  0  0  0  0  0  0  0  0
  146.7126  134.9869  159.7961 C   0  0  0  0  0  0  0  0  0  0  0  0
  146.8613  135.1514  158.4171 N   0  0  0  0  0  0  0  0  0  0  0  0
  147.8723  135.8374  157.8385 C   0  0  0  0  0  0  0  0  0  0  0  0
  147.9349  135.9355  156.6134 O   0  0  0  0  0  0  0  0  0  0  0  0
  146.1614  134.7264  157.8259 H   0  0  0  0  0  0  0  0  0  0  0  0
  151.1208  137.4280  155.8589 H   0  0  0  0  0  0  0  0  0  0  0  0
  152.0781  138.8857  155.6270 H   0  0  0  0  0  0  0  0  0  0  0  0
  150.4947  138.9912  156.3848 H   0  0  0  0  0  0  0  0  0  0  0  0
  152.9832  137.6206  157.5380 H   0  0  0  0  0  0  0  0  0  0  0  0
  150.7471  140.3692  157.2207 H   0  0  0  0  0  0  0  0  0  0  0  0
  150.5840  140.1822  158.9620 H   0  0  0  0  0  0  0  0  0  0  0  0
  152.7571  141.9310  157.7429 H   0  0  0  0  0  0  0  0  0  0  0  0
  151.4004  141.8882  160.4890 H   0  0  0  0  0  0  0  0  0  0  0  0
  153.0365  141.3634  160.1569 H   0  0  0  0  0  0  0  0  0  0  0  0
  152.9531  143.7053  161.0877 H   0  0  0  0  0  0  0  0  0  0  0  0
  153.7027  143.6403  159.5075 H   0  0  0  0  0  0  0  0  0  0  0  0
  150.8229  144.4601  160.1120 H   0  0  0  0  0  0  0  0  0  0  0  0
  152.0990  145.5053  159.5264 H   0  0  0  0  0  0  0  0  0  0  0  0
  150.5470  144.7694  157.6823 H   0  0  0  0  0  0  0  0  0  0  0  0
  152.1905  144.2449  157.3724 H   0  0  0  0  0  0  0  0  0  0  0  0
  149.6789  137.5236  157.2554 H   0  0  0  0  0  0  0  0  0  0  0  0
  149.4361  136.6386  160.7990 H   0  0  0  0  0  0  0  0  0  0  0  0
  145.8296  134.4323  160.0778 H   0  0  0  0  0  0  0  0  0  0  0  0
  1  2  1  0  0  0  0
  1 26  1  0  0  0  0
  1 27  1  0  0  0  0
  1 28  1  0  0  0  0
  2  3  1  0  0  0  0
  2 11  1  0  0  0  0
  2 29  1  0  0  0  0
  3  4  1  0  0  0  0
  4  5  1  0  0  0  0
  4 30  1  0  0  0  0
  4 31  1  0  0  0  0
  5 10  1  0  0  0  0
  5  6  1  0  0  0  0
  5 32  1  0  0  0  0
  6  7  1  0  0  0  0
  6 33  1  0  0  0  0
  6 34  1  0  0  0  0
  7  8  1  0  0  0  0
  7 35  1  0  0  0  0
  7 36  1  0  0  0  0
  8  9  1  0  0  0  0
  8 37  1  0  0  0  0
  8 38  1  0  0  0  0
  9 10  1  0  0  0  0
  9 39  1  0  0  0  0
  9 40  1  0  0  0  0
 11 12  2  0  0  0  0
 11 13  1  0  0  0  0
 13 14  1  0  0  0  0
 13 41  1  0  0  0  0
 14 23  1  0  0  0  0
 14 15  2  0  0  0  0
 15 16  1  0  0  0  0
 15 42  1  0  0  0  0
 16 17  1  0  0  0  0
 16 21  2  0  0  0  0
 17 18  1  0  0  0  0
 17 19  1  0  0  0  0
 17 20  1  0  0  0  0
 21 22  1  0  0  0  0
 21 43  1  0  0  0  0
 22 25  1  0  0  0  0
 22 23  1  0  0  0  0
 23 24  2  0  0  0  0
M  END
> <s_m_source_file>
AV-unprocessed.smi

> <i_m_source_file_index>
1550

> <i_lp_mmshare_version>
43012

> <i_f3d_flags>
0

> <s_epik_input>
TzFbQ0gyXVtDSDJdW0NIMl1bQ0gyXVtDQEhdMVtDSDJdT1tDQEBIXShbQ0gzXSlDKD1PKVtOSF1jMltjSF1jKEMoRikoRilGKVtjSF1bbkhdYzI9Tw==

> <s_epik_cmdline>
J2VwaWtfcHl0aG9uJywgJy1waCcsICc3LjAnLCAnLXRuJywgJzgnLCAnLW1hJywgJzIwMCcsICctbWV0YWxfYmluZGluZycsICctaW1hZScsICc8aW5maWxlLm1hZT4nLCAnLW9tYWUnLCAnPG91dGZpbGUubWFlPic=

> <r_lp_tautomer_probability>
0.999

> <r_epik_Ionization_Penalty>
0.00891333

> <r_epik_Ionization_Penalty_Charging>
0.00891323

> <r_epik_Ionization_Penalty_Neutral>
1.00146e-07

> <r_epik_State_Penalty>
0.00674197

> <r_epik_Charging_Adjusted_Penalty>
0.0156552

> <i_epik_Tot_Q>
0

> <i_epik_Tot_abs_Q>
0

> <r_epik_Metal_State_Penalty>
0.321024

> <b_epik_Metal_Only>
0

> <s_lp_Force_Field>
OPLS_2005

> <r_lp_Energy>
24.7831

> <b_lp_Chiralities_Consistent>
1

> <s_lp_Variant>
AV-unprocessed.smi:1550-2

> <Gold.Version>
5.8.1

> <Gold.Id.Protein>
6NUR|6NUR_protein|mol2

> <Gold.PLP.Fitness>
43.3695

> <Gold.PLP.PLP>
-43.4705

> <Gold.PLP.part.hbond>
-0.9604

> <Gold.PLP.part.metal>
0.0000

> <Gold.PLP.part.buried>
-6.4705

> <Gold.PLP.part.nonpolar>
-36.5480

> <Gold.PLP.part.repulsive>
0.2107

> <Gold.PLP.ligand.clash>
2.3202

> <Gold.PLP.ligand.torsion>
0.4283

> <Gold.PLP.Chemscore.Hbond>
0.9913

> <Gold.PLP.Chemscore.CHOScore>
0.0000

> <Gold.PLP.Chemscore.Metal>
0.0000

> <Gold.Chemscore.Hbonds>
donor molecule, donor type, donor heavy atom, donor atom, acceptor molecule, acceptor atom, score
      P1  H  6896  6907       L1    12  1.00

> <Gold.PLP.Chemscore.Internal.Correction>
0.1020

> <Gold.Rescore>
     Score         DG    S(hbond)    S(metal)    S(lipo)     H(rot)  DE(clash)    DE(int)     intcor
     13.21     -15.13       0.98        0.00      95.07       1.86       0.00       1.92       ----

> <Gold.Chemscore.Fitness>
13.2070

> <Gold.Chemscore.DG>
-15.1325

> <Gold.Chemscore.ZeroCoef>
-5.4800

> <Gold.Chemscore.Hbond>
0.9829

> <Gold.Chemscore.Metal>
0.0000

> <Gold.Chemscore.Lipo>
95.0728

> <Gold.Chemscore.Internal_Hbond>
0.0000

> <Gold.Chemscore.DEClash>
0.0034

> <Gold.Chemscore.DEInternal>
1.9222

> <Gold.Chemscore.Rot>
1.8571

> <Gold.Chemscore.Internal.Correction>
   9.000000E+99

> <Gold.Chemscore.Hbonds>
donor molecule, donor type, donor heavy atom, donor atom, acceptor molecule, acceptor atom, score
      P1  H  6896  6907       L1    12  0.74

> <Gold.Chemscore.Hbond.Weighted>
-3.2830

> <Gold.Chemscore.Metal.Weighted>
-0.0000

> <Gold.Chemscore.Lipo.Weighted>
-11.1235

> <Gold.Chemscore.Internal_Hbond.Weighted>
0.0000

> <Gold.Chemscore.DEClash.Weighted>
0.0034

> <Gold.Chemscore.DEInternal.Weighted>
1.9222

> <Gold.Chemscore.Rot.Weighted>
4.7541

> <Gold.Chemscore.Internal.Correction.Weighted>
   9.000000E+99

> <Gold.Protein.RotatedTorsions>
[ 6907 6896 6895 6894 ] final   -5.44 input  -60.11 | X-H torsion
[ 7974 7965 7964 7962 ] final  106.91 input  175.53 | X-H torsion
[ 8008 7997 7996 7995 ] final  -45.32 input   59.86 | X-H torsion
[ 10167 10162 10161 10158 ] final -125.72 input  -65.29 | X-H torsion
[ 10718 10713 10712 10709 ] final    4.63 input   66.30 | X-H torsion
[ 10763 10752 10751 10750 ] final  -69.36 input  -60.55 | X-H torsion
[ 11005 11000 10999 10996 ] final  141.67 input  -57.11 | X-H torsion

> <Gold.Protein.ActiveResidues>
 VAL166  LYS551  ARG553  GLY616  TRP617  ASP618  TYR619  PRO620  LYS621  CYS622 
 ASP623  PHE694  ASN695  SER759  ASP760  ASP761  ALA762  ILE779  LEU786  VAL792 
 PHE793  MET794  SER795  GLU796  ALA797  LYS798  CYS799  TRP800  GLU811  SER814 

> <Gold.Protein.RotatedAtoms>
  151.4815  135.1052  159.9778 H   0  0  0  0  0  0  0  0  0  0  0  0  # atno 6907 bound_to 6896
  152.4777  133.8175  159.7046 H   0  0  0  0  0  0  0  0  0  0  0  0  # atno 6908 bound_to 6896
  150.8827  133.7289  159.2954 H   0  0  0  0  0  0  0  0  0  0  0  0  # atno 6909 bound_to 6896
  145.3004  139.2571  143.3817 H   0  0  0  0  0  0  0  0  0  0  0  0  # atno 7974 bound_to 7965
  154.4000  140.1400  156.3828 H   0  0  0  0  0  0  0  0  0  0  0  0  # atno 8008 bound_to 7997
  155.7988  140.3476  155.5370 H   0  0  0  0  0  0  0  0  0  0  0  0  # atno 8009 bound_to 7997
  155.8505  140.0940  157.1668 H   0  0  0  0  0  0  0  0  0  0  0  0  # atno 8010 bound_to 7997
  139.9791  143.5762  152.2385 H   0  0  0  0  0  0  0  0  0  0  0  0  # atno 10167 bound_to 10162
  156.8955  130.5703  149.5649 H   0  0  0  0  0  0  0  0  0  0  0  0  # atno 10718 bound_to 10713
  154.4023  135.6028  153.5904 H   0  0  0  0  0  0  0  0  0  0  0  0  # atno 10763 bound_to 10752
  152.9788  135.5909  154.4170 H   0  0  0  0  0  0  0  0  0  0  0  0  # atno 10764 bound_to 10752
  154.3970  135.2842  155.2098 H   0  0  0  0  0  0  0  0  0  0  0  0  # atno 10765 bound_to 10752
  140.0419  134.9300  157.0858 H   0  0  0  0  0  0  0  0  0  0  0  0  # atno 11005 bound_to 11000
  146.3154  140.3517  142.8657 LP  0  0  0  0  0  0  0  0  0  0  0  0  # atno 17320 bound_to 7965
  144.9098  140.7743  143.5815 LP  0  0  0  0  0  0  0  0  0  0  0  0  # atno 17321 bound_to 7965
  139.6423  144.7655  151.2314 LP  0  0  0  0  0  0  0  0  0  0  0  0  # atno 17342 bound_to 10162
  140.7495  143.6296  150.8435 LP  0  0  0  0  0  0  0  0  0  0  0  0  # atno 17343 bound_to 10162
  156.0607  130.5660  150.9187 LP  0  0  0  0  0  0  0  0  0  0  0  0  # atno 17370 bound_to 10713
  157.6058  131.0939  150.8882 LP  0  0  0  0  0  0  0  0  0  0  0  0  # atno 17371 bound_to 10713
  140.4056  134.2036  155.7163 LP  0  0  0  0  0  0  0  0  0  0  0  0  # atno 17394 bound_to 11000
  141.1887  133.8254  157.0984 LP  0  0  0  0  0  0  0  0  0  0  0  0  # atno 17395 bound_to 11000

$$$$
