AV-unprocessed.smi:311|AV-procd|sdf|2299|dock8
  -GOLD-   2262022203D 1   1.00000     0.00000
 Structure written by MMmdl.
 44 46  0  0  0  0  0  0  0  0  2 V2000
  151.6251  135.4034  156.4596 C   0  0  0  0  0  0  0  0  0  0  0  0
  151.5874  136.8192  155.9608 C   0  0  0  0  0  0  0  0  0  0  0  0
  151.4978  137.0531  154.6623 N   0  0  0  0  0  0  0  0  0  0  0  0
  151.4931  138.4440  154.5224 O   0  0  0  0  0  0  0  0  0  0  0  0
  151.5784  138.9997  155.7574 C   0  0  0  0  0  0  0  0  0  0  0  0
  151.6023  140.4895  155.8173 C   0  0  0  0  0  0  0  0  0  0  0  0
  151.6403  138.0255  156.7164 C   0  0  0  0  0  0  0  0  0  0  0  0
  151.7540  138.1753  158.2119 C   0  0  0  0  0  0  0  0  0  0  0  0
  152.7024  139.3312  158.5241 C   0  0  0  0  0  0  0  0  0  0  0  0
  153.6896  139.5267  157.8157 O   0  0  0  0  0  0  0  0  0  0  0  0
  152.3679  140.1125  159.5623 N   0  0  0  0  0  0  0  0  0  0  0  0
  153.0493  141.3468  159.9361 C   0  0  2  0  0  0  0  0  0  0  0  0
  153.5843  141.3317  161.3785 C   0  0  0  0  0  0  0  0  0  0  0  0
  153.3672  142.7637  161.9083 C   0  0  0  0  0  0  0  0  0  0  0  0
  152.8078  143.5232  160.7730 N   0  3  2  0  0  0  0  0  0  0  0  0
  151.9850  144.7098  161.0943 C   0  0  0  0  0  0  0  0  0  0  0  0
  151.5620  145.4059  159.7848 C   0  0  0  0  0  0  0  0  0  0  0  0
  150.8768  144.4260  158.8103 C   0  0  0  0  0  0  0  0  0  0  0  0
  151.7395  143.1692  158.5863 C   0  0  0  0  0  0  0  0  0  0  0  0
  152.0932  142.5411  159.9446 C   0  0  1  0  0  0  0  0  0  0  0  0
  152.3909  135.2801  157.2255 H   0  0  0  0  0  0  0  0  0  0  0  0
  151.8456  134.6981  155.6578 H   0  0  0  0  0  0  0  0  0  0  0  0
  150.6683  135.1204  156.8979 H   0  0  0  0  0  0  0  0  0  0  0  0
  151.1966  140.8485  156.7630 H   0  0  0  0  0  0  0  0  0  0  0  0
  151.0099  140.9223  155.0110 H   0  0  0  0  0  0  0  0  0  0  0  0
  152.6230  140.8603  155.7247 H   0  0  0  0  0  0  0  0  0  0  0  0
  150.7810  138.3589  158.6695 H   0  0  0  0  0  0  0  0  0  0  0  0
  152.1406  137.2684  158.6778 H   0  0  0  0  0  0  0  0  0  0  0  0
  151.5428  139.8669  160.0904 H   0  0  0  0  0  0  0  0  0  0  0  0
  153.8840  141.5511  159.2616 H   0  0  0  0  0  0  0  0  0  0  0  0
  153.0328  140.6238  161.9990 H   0  0  0  0  0  0  0  0  0  0  0  0
  154.6353  141.0417  161.4064 H   0  0  0  0  0  0  0  0  0  0  0  0
  152.6599  142.7508  162.7390 H   0  0  0  0  0  0  0  0  0  0  0  0
  154.2924  143.2222  162.2587 H   0  0  0  0  0  0  0  0  0  0  0  0
  151.1070  144.4094  161.6682 H   0  0  0  0  0  0  0  0  0  0  0  0
  152.5595  145.3962  161.7173 H   0  0  0  0  0  0  0  0  0  0  0  0
  150.8966  146.2416  160.0037 H   0  0  0  0  0  0  0  0  0  0  0  0
  152.4426  145.8329  159.3030 H   0  0  0  0  0  0  0  0  0  0  0  0
  149.9071  144.1324  159.2146 H   0  0  0  0  0  0  0  0  0  0  0  0
  150.6778  144.9194  157.8586 H   0  0  0  0  0  0  0  0  0  0  0  0
  151.1989  142.4543  157.9650 H   0  0  0  0  0  0  0  0  0  0  0  0
  152.6491  143.4321  158.0445 H   0  0  0  0  0  0  0  0  0  0  0  0
  151.1732  142.2574  160.4611 H   0  0  0  0  0  0  0  0  0  0  0  0
  153.5937  143.8407  160.2235 H   0  0  0  0  0  0  0  0  0  0  0  0
  1  2  1  0  0  0  0
  1 21  1  0  0  0  0
  1 22  1  0  0  0  0
  1 23  1  0  0  0  0
  2  7  1  0  0  0  0
  2  3  2  0  0  0  0
  3  4  1  0  0  0  0
  4  5  1  0  0  0  0
  5  6  1  0  0  0  0
  5  7  2  0  0  0  0
  6 24  1  0  0  0  0
  6 25  1  0  0  0  0
  6 26  1  0  0  0  0
  7  8  1  0  0  0  0
  8  9  1  0  0  0  0
  8 27  1  0  0  0  0
  8 28  1  0  0  0  0
  9 10  2  0  0  0  0
  9 11  1  0  0  0  0
 11 12  1  0  0  0  0
 11 29  1  0  0  0  0
 12 20  1  0  0  0  0
 12 13  1  0  0  0  0
 12 30  1  0  0  0  0
 13 14  1  0  0  0  0
 13 31  1  0  0  0  0
 13 32  1  0  0  0  0
 14 15  1  0  0  0  0
 14 33  1  0  0  0  0
 14 34  1  0  0  0  0
 15 20  1  0  0  0  0
 15 16  1  0  0  0  0
 15 44  1  0  0  0  0
 16 17  1  0  0  0  0
 16 35  1  0  0  0  0
 16 36  1  0  0  0  0
 17 18  1  0  0  0  0
 17 37  1  0  0  0  0
 17 38  1  0  0  0  0
 18 19  1  0  0  0  0
 18 39  1  0  0  0  0
 18 40  1  0  0  0  0
 19 20  1  0  0  0  0
 19 41  1  0  0  0  0
 19 42  1  0  0  0  0
 20 43  1  0  0  0  0
M  CHG  1  15   1
M  END
> <s_m_source_file>
AV-unprocessed.smi

> <i_m_source_file_index>
311

> <i_lp_mmshare_version>
43012

> <i_f3d_flags>
0

> <s_epik_input>
W0NIM11jMW5vYyhbQ0gzXSljMVtDSDJdQyg9TylbTkhdW0NASF0oW0NIMl1bQ0gyXTIpW0NAQEhdKE4yMylbQ0gyXVtDSDJdW0NIMl1bQ0gyXTM=

> <s_epik_cmdline>
J2VwaWtfcHl0aG9uJywgJy1waCcsICc3LjAnLCAnLXRuJywgJzgnLCAnLW1hJywgJzIwMCcsICctbWV0YWxfYmluZGluZycsICctaW1hZScsICc8aW5maWxlLm1hZT4nLCAnLW9tYWUnLCAnPG91dGZpbGUubWFlPic=

> <r_epik_Ionization_Penalty>
0.00173669

> <r_epik_Ionization_Penalty_Charging>
0.0017366

> <r_epik_Ionization_Penalty_Neutral>
9.2145e-08

> <r_epik_State_Penalty>
0.00117499

> <r_epik_Charging_Adjusted_Penalty>
0.00291159

> <i_epik_Tot_Q>
1

> <i_epik_Tot_abs_Q>
1

> <r_epik_Metal_State_Penalty>
-0

> <b_epik_Metal_Only>
0

> <s_lp_Force_Field>
OPLS_2005

> <r_lp_Energy>
27.517

> <b_lp_Chiralities_Consistent>
1

> <s_lp_Variant>
AV-unprocessed.smi:311-3

> <Gold.Version>
5.8.1

> <Gold.Id.Protein>
6NUR|6NUR_protein|mol2

> <Gold.PLP.Fitness>
43.0235

> <Gold.PLP.PLP>
-38.2424

> <Gold.PLP.part.hbond>
-2.0000

> <Gold.PLP.part.metal>
0.0000

> <Gold.PLP.part.buried>
-4.7527

> <Gold.PLP.part.nonpolar>
-31.9522

> <Gold.PLP.part.repulsive>
0.4669

> <Gold.PLP.ligand.clash>
0.0000

> <Gold.PLP.ligand.torsion>
0.6162

> <Gold.PLP.Chemscore.Hbond>
2.0000

> <Gold.PLP.Chemscore.CHOScore>
0.0000

> <Gold.PLP.Chemscore.Metal>
0.0000

> <Gold.Chemscore.Hbonds>
donor molecule, donor type, donor heavy atom, donor atom, acceptor molecule, acceptor atom, score
      P1  H  7997  8009       L1    10  0.50
      P1  H 10752 10763       L1     3  0.25

> <Gold.PLP.Chemscore.Internal.Correction>
0.0134

> <Gold.Rescore>
     Score         DG    S(hbond)    S(metal)    S(lipo)     H(rot)  DE(clash)    DE(int)     intcor
     20.99     -21.62       1.85        0.00     114.91       1.36       0.16       0.47       ----

> <Gold.Chemscore.Fitness>
20.9897

> <Gold.Chemscore.DG>
-21.6155

> <Gold.Chemscore.ZeroCoef>
-5.4800

> <Gold.Chemscore.Hbond>
1.8454

> <Gold.Chemscore.Metal>
0.0000

> <Gold.Chemscore.Lipo>
114.9140

> <Gold.Chemscore.Internal_Hbond>
0.0000

> <Gold.Chemscore.DEClash>
0.1585

> <Gold.Chemscore.DEInternal>
0.4672

> <Gold.Chemscore.Rot>
1.3567

> <Gold.Chemscore.Internal.Correction>
   9.000000E+99

> <Gold.Chemscore.Hbonds>
donor molecule, donor type, donor heavy atom, donor atom, acceptor molecule, acceptor atom, score
      P1  H  7997  8009       L1    10  0.50

> <Gold.Chemscore.Hbond.Weighted>
-6.1636

> <Gold.Chemscore.Metal.Weighted>
-0.0000

> <Gold.Chemscore.Lipo.Weighted>
-13.4449

> <Gold.Chemscore.Internal_Hbond.Weighted>
0.0000

> <Gold.Chemscore.DEClash.Weighted>
0.1585

> <Gold.Chemscore.DEInternal.Weighted>
0.4672

> <Gold.Chemscore.Rot.Weighted>
3.4731

> <Gold.Chemscore.Internal.Correction.Weighted>
   9.000000E+99

> <Gold.Protein.RotatedTorsions>
[ 6907 6896 6895 6894 ] final  -52.03 input  -60.11 | X-H torsion
[ 7974 7965 7964 7962 ] final   -4.28 input  175.53 | X-H torsion
[ 8008 7997 7996 7995 ] final  142.42 input   59.86 | X-H torsion
[ 10167 10162 10161 10158 ] final   -6.16 input  -65.29 | X-H torsion
[ 10718 10713 10712 10709 ] final   16.99 input   66.30 | X-H torsion
[ 10763 10752 10751 10750 ] final   53.88 input  -60.55 | X-H torsion
[ 11005 11000 10999 10996 ] final  -96.64 input  -57.11 | X-H torsion

> <Gold.Protein.ActiveResidues>
 VAL166  LYS551  ARG553  GLY616  TRP617  ASP618  TYR619  PRO620  LYS621  CYS622 
 ASP623  PHE694  ASN695  SER759  ASP760  ASP761  ALA762  ILE779  LEU786  VAL792 
 PHE793  MET794  SER795  GLU796  ALA797  LYS798  CYS799  TRP800  GLU811  SER814 

> <Gold.Protein.RotatedAtoms>
  150.8556  134.7893  159.7042 H   0  0  0  0  0  0  0  0  0  0  0  0  # atno 6907 bound_to 6896
  152.4608  134.5185  159.9785 H   0  0  0  0  0  0  0  0  0  0  0  0  # atno 6908 bound_to 6896
  151.5298  133.3413  159.2952 H   0  0  0  0  0  0  0  0  0  0  0  0  # atno 6909 bound_to 6896
  146.2375  140.1848  142.8332 H   0  0  0  0  0  0  0  0  0  0  0  0  # atno 7974 bound_to 7965
  156.2949  140.2289  156.4725 H   0  0  0  0  0  0  0  0  0  0  0  0  # atno 8008 bound_to 7997
  154.7923  140.0453  157.1231 H   0  0  0  0  0  0  0  0  0  0  0  0  # atno 8009 bound_to 7997
  154.9631  140.3057  155.5025 H   0  0  0  0  0  0  0  0  0  0  0  0  # atno 8010 bound_to 7997
  140.6988  143.6225  150.8598 H   0  0  0  0  0  0  0  0  0  0  0  0  # atno 10167 bound_to 10162
  157.0758  130.6367  149.5815 H   0  0  0  0  0  0  0  0  0  0  0  0  # atno 10718 bound_to 10713
  152.9799  135.5764  154.4813 H   0  0  0  0  0  0  0  0  0  0  0  0  # atno 10763 bound_to 10752
  154.4361  135.2774  155.1881 H   0  0  0  0  0  0  0  0  0  0  0  0  # atno 10764 bound_to 10752
  154.3569  135.6197  153.5724 H   0  0  0  0  0  0  0  0  0  0  0  0  # atno 10765 bound_to 10752
  141.1405  133.8112  157.0598 H   0  0  0  0  0  0  0  0  0  0  0  0  # atno 11005 bound_to 11000
  144.9905  140.8543  143.5342 LP  0  0  0  0  0  0  0  0  0  0  0  0  # atno 17320 bound_to 7965
  145.1853  139.2330  143.5271 LP  0  0  0  0  0  0  0  0  0  0  0  0  # atno 17321 bound_to 7965
  139.9946  143.5810  152.2898 LP  0  0  0  0  0  0  0  0  0  0  0  0  # atno 17342 bound_to 10162
  139.6477  144.7659  151.2210 LP  0  0  0  0  0  0  0  0  0  0  0  0  # atno 17343 bound_to 10162
  155.9937  130.4999  150.7393 LP  0  0  0  0  0  0  0  0  0  0  0  0  # atno 17370 bound_to 10713
  157.4841  131.0905  151.0503 LP  0  0  0  0  0  0  0  0  0  0  0  0  # atno 17371 bound_to 10713
  140.0578  134.9771  157.1252 LP  0  0  0  0  0  0  0  0  0  0  0  0  # atno 17394 bound_to 11000
  140.3893  134.2202  155.7167 LP  0  0  0  0  0  0  0  0  0  0  0  0  # atno 17395 bound_to 11000

$$$$
