AV-unprocessed.smi:1720|AV-procd|sdf|6934|dock3
  -GOLD-   22720 8143D 1   1.00000     0.00000
 Structure written by MMmdl.
 32 33  0  0  0  0  0  0  0  0  1 V2000
  151.6702  144.2806  158.4375 C   0  0  0  0  0  0  0  0  0  0  0  0
  151.6378  142.7619  158.6683 C   0  0  1  0  0  0  0  0  0  0  0  0
  151.6217  142.0957  157.3677 N   0  0  0  0  0  0  0  0  0  0  0  0
  151.3607  140.7972  157.1581 C   0  0  0  0  0  0  0  0  0  0  0  0
  151.0925  139.9995  158.0567 O   0  0  0  0  0  0  0  0  0  0  0  0
  151.4326  140.4918  155.8523 N   0  0  0  0  0  0  0  0  0  0  0  0
  151.2303  139.2232  155.2521 C   0  0  0  0  0  0  0  0  0  0  0  0
  151.9111  138.0329  155.6262 C   0  0  0  0  0  0  0  0  0  0  0  0
  151.5187  137.0005  154.8934 N   0  0  0  0  0  0  0  0  0  0  0  0
  150.5941  137.5208  154.0549 N   0  0  0  0  0  0  0  0  0  0  0  0
  150.3859  138.8702  154.2369 C   0  0  0  0  0  0  0  0  0  0  0  0
  152.8435  142.2705  159.4963 C   0  0  1  0  0  0  0  0  0  0  0  0
  152.8828  142.7840  160.9363 C   0  0  0  0  0  0  0  0  0  0  0  0
  153.7131  141.7405  161.6664 C   0  0  0  0  0  0  0  0  0  0  0  0
  153.7141  140.5366  160.7206 C   0  0  0  0  0  0  0  0  0  0  0  0
  152.7866  140.8662  159.6963 O   0  0  0  0  0  0  0  0  0  0  0  0
  150.1190  136.9485  153.3715 H   0  0  0  0  0  0  0  0  0  0  0  0
  151.6187  144.8274  159.3791 H   0  0  0  0  0  0  0  0  0  0  0  0
  150.8236  144.6027  157.8304 H   0  0  0  0  0  0  0  0  0  0  0  0
  152.5833  144.5854  157.9251 H   0  0  0  0  0  0  0  0  0  0  0  0
  150.7192  142.5303  159.2105 H   0  0  0  0  0  0  0  0  0  0  0  0
  151.8346  142.6695  156.5652 H   0  0  0  0  0  0  0  0  0  0  0  0
  151.6621  141.2451  155.2210 H   0  0  0  0  0  0  0  0  0  0  0  0
  152.6611  137.8864  156.3896 H   0  0  0  0  0  0  0  0  0  0  0  0
  149.6785  139.4314  153.6445 H   0  0  0  0  0  0  0  0  0  0  0  0
  153.7794  142.5160  158.9901 H   0  0  0  0  0  0  0  0  0  0  0  0
  153.3023  143.7874  161.0159 H   0  0  0  0  0  0  0  0  0  0  0  0
  151.8759  142.8060  161.3555 H   0  0  0  0  0  0  0  0  0  0  0  0
  154.7311  142.0916  161.8385 H   0  0  0  0  0  0  0  0  0  0  0  0
  153.2731  141.4972  162.6340 H   0  0  0  0  0  0  0  0  0  0  0  0
  154.7017  140.3960  160.2793 H   0  0  0  0  0  0  0  0  0  0  0  0
  153.4302  139.6107  161.2211 H   0  0  0  0  0  0  0  0  0  0  0  0
  1  2  1  0  0  0  0
  1 18  1  0  0  0  0
  1 19  1  0  0  0  0
  1 20  1  0  0  0  0
  2  3  1  0  0  0  0
  2 12  1  0  0  0  0
  2 21  1  0  0  0  0
  3  4  1  0  0  0  0
  3 22  1  0  0  0  0
  4  5  2  0  0  0  0
  4  6  1  0  0  0  0
  6  7  1  0  0  0  0
  6 23  1  0  0  0  0
  7 11  2  0  0  0  0
  7  8  1  0  0  0  0
  8  9  2  0  0  0  0
  8 24  1  0  0  0  0
  9 10  1  0  0  0  0
 10 17  1  0  0  0  0
 10 11  1  0  0  0  0
 11 25  1  0  0  0  0
 12 16  1  0  0  0  0
 12 13  1  0  0  0  0
 12 26  1  0  0  0  0
 13 14  1  0  0  0  0
 13 27  1  0  0  0  0
 13 28  1  0  0  0  0
 14 15  1  0  0  0  0
 14 29  1  0  0  0  0
 14 30  1  0  0  0  0
 15 16  1  0  0  0  0
 15 31  1  0  0  0  0
 15 32  1  0  0  0  0
M  END
> <s_m_source_file>
AV-unprocessed.smi

> <i_m_source_file_index>
1720

> <i_lp_mmshare_version>
43012

> <i_f3d_flags>
0

> <s_epik_input>
TzFbQ0gyXVtDSDJdW0NIMl1bQ0BIXTFbQ0BIXShbQ0gzXSlbTkhdQyg9TylbTkhdYzJbY0hdbltuSF1bY0hdMg==

> <s_epik_cmdline>
J2VwaWtfcHl0aG9uJywgJy1waCcsICc3LjAnLCAnLXRuJywgJzgnLCAnLW1hJywgJzIwMCcsICctbWV0YWxfYmluZGluZycsICctaW1hZScsICc8aW5maWxlLm1hZT4nLCAnLW9tYWUnLCAnPG91dGZpbGUubWFlPic=

> <r_lp_tautomer_probability>
1

> <r_epik_Ionization_Penalty>
4.95841e-05

> <r_epik_Ionization_Penalty_Charging>
0

> <r_epik_Ionization_Penalty_Neutral>
4.95841e-05

> <r_epik_State_Penalty>
-0

> <r_epik_Charging_Adjusted_Penalty>
0

> <i_epik_Tot_Q>
0

> <i_epik_Tot_abs_Q>
0

> <r_epik_Metal_State_Penalty>
-0

> <b_epik_Metal_Only>
0

> <s_lp_Force_Field>
OPLS_2005

> <r_lp_Energy>
20.531

> <b_lp_Chiralities_Consistent>
1

> <s_lp_Variant>
AV-unprocessed.smi:1720-4

> <Gold.Version>
5.8.1

> <Gold.Id.Protein>
6NUR|6NUR_protein|mol2

> <Gold.PLP.Fitness>
40.5158

> <Gold.PLP.PLP>
-33.4702

> <Gold.PLP.part.hbond>
-3.0000

> <Gold.PLP.part.metal>
0.0000

> <Gold.PLP.part.buried>
-4.9386

> <Gold.PLP.part.nonpolar>
-27.7084

> <Gold.PLP.part.repulsive>
0.4418

> <Gold.PLP.ligand.clash>
0.0000

> <Gold.PLP.ligand.torsion>
0.6136

> <Gold.PLP.Chemscore.Hbond>
1.7500

> <Gold.PLP.Chemscore.CHOScore>
1.0000

> <Gold.PLP.Chemscore.Metal>
0.0000

> <Gold.Chemscore.Hbonds>
donor molecule, donor type, donor heavy atom, donor atom, acceptor molecule, acceptor atom, score
      L1  H    10    17       P1  7948  0.80
      P1  H 10752 10763       L1     9  1.00
      L1  C    11    25       P1  7957  0.94

> <Gold.PLP.Chemscore.Internal.Correction>
0.0229

> <Gold.Rescore>
     Score         DG    S(hbond)    S(metal)    S(lipo)     H(rot)  DE(clash)    DE(int)     intcor
     12.88     -16.15       1.18        0.00      86.26       1.31       0.00       3.27       ----

> <Gold.Chemscore.Fitness>
12.8831

> <Gold.Chemscore.DG>
-16.1538

> <Gold.Chemscore.ZeroCoef>
-5.4800

> <Gold.Chemscore.Hbond>
1.1765

> <Gold.Chemscore.Metal>
0.0000

> <Gold.Chemscore.Lipo>
86.2608

> <Gold.Chemscore.Internal_Hbond>
0.0000

> <Gold.Chemscore.DEClash>
0.0015

> <Gold.Chemscore.DEInternal>
3.2692

> <Gold.Chemscore.Rot>
1.3079

> <Gold.Chemscore.Internal.Correction>
   9.000000E+99

> <Gold.Chemscore.Hbonds>
donor molecule, donor type, donor heavy atom, donor atom, acceptor molecule, acceptor atom, score
      L1  H    10    17       P1  7948  0.11
      P1  H 10752 10763       L1     9  0.88

> <Gold.Chemscore.Hbond.Weighted>
-3.9297

> <Gold.Chemscore.Metal.Weighted>
-0.0000

> <Gold.Chemscore.Lipo.Weighted>
-10.0925

> <Gold.Chemscore.Internal_Hbond.Weighted>
0.0000

> <Gold.Chemscore.DEClash.Weighted>
0.0015

> <Gold.Chemscore.DEInternal.Weighted>
3.2692

> <Gold.Chemscore.Rot.Weighted>
3.3483

> <Gold.Chemscore.Internal.Correction.Weighted>
   9.000000E+99

> <Gold.Protein.RotatedTorsions>
[ 6907 6896 6895 6894 ] final -174.56 input  -60.11 | X-H torsion
[ 7974 7965 7964 7962 ] final  156.28 input  175.53 | X-H torsion
[ 8008 7997 7996 7995 ] final   69.78 input   59.86 | X-H torsion
[ 10167 10162 10161 10158 ] final   16.28 input  -65.29 | X-H torsion
[ 10718 10713 10712 10709 ] final   43.20 input   66.30 | X-H torsion
[ 10763 10752 10751 10750 ] final   52.48 input  -60.55 | X-H torsion
[ 11005 11000 10999 10996 ] final   36.64 input  -57.11 | X-H torsion

> <Gold.Protein.ActiveResidues>
 VAL166  LYS551  ARG553  GLY616  TRP617  ASP618  TYR619  PRO620  LYS621  CYS622 
 ASP623  PHE694  ASN695  SER759  ASP760  ASP761  ALA762  ILE779  LEU786  VAL792 
 PHE793  MET794  SER795  GLU796  ALA797  LYS798  CYS799  TRP800  GLU811  SER814 

> <Gold.Protein.RotatedAtoms>
  151.5743  133.3386  159.2995 H   0  0  0  0  0  0  0  0  0  0  0  0  # atno 6907 bound_to 6896
  150.8349  134.7621  159.6896 H   0  0  0  0  0  0  0  0  0  0  0  0  # atno 6908 bound_to 6896
  152.4427  134.5564  159.9933 H   0  0  0  0  0  0  0  0  0  0  0  0  # atno 6909 bound_to 6896
  144.7973  139.7182  143.6196 H   0  0  0  0  0  0  0  0  0  0  0  0  # atno 7974 bound_to 7965
  155.7289  140.3492  155.5050 H   0  0  0  0  0  0  0  0  0  0  0  0  # atno 8008 bound_to 7997
  155.9201  140.1065  157.1235 H   0  0  0  0  0  0  0  0  0  0  0  0  # atno 8009 bound_to 7997
  154.4068  140.1251  156.4655 H   0  0  0  0  0  0  0  0  0  0  0  0  # atno 8010 bound_to 7997
  140.5808  143.8984  150.6788 H   0  0  0  0  0  0  0  0  0  0  0  0  # atno 10167 bound_to 10162
  157.4133  130.7927  149.7450 H   0  0  0  0  0  0  0  0  0  0  0  0  # atno 10718 bound_to 10713
  152.9789  135.5811  154.4586 H   0  0  0  0  0  0  0  0  0  0  0  0  # atno 10763 bound_to 10752
  154.4165  135.2771  155.2005 H   0  0  0  0  0  0  0  0  0  0  0  0  # atno 10764 bound_to 10752
  154.3772  135.6154  153.5825 H   0  0  0  0  0  0  0  0  0  0  0  0  # atno 10765 bound_to 10752
  140.2305  134.3533  155.7966 H   0  0  0  0  0  0  0  0  0  0  0  0  # atno 11005 bound_to 11000
  146.2245  139.5696  142.9596 LP  0  0  0  0  0  0  0  0  0  0  0  0  # atno 17320 bound_to 7965
  145.5642  141.0401  143.2210 LP  0  0  0  0  0  0  0  0  0  0  0  0  # atno 17321 bound_to 7965
  140.2483  143.3612  152.1428 LP  0  0  0  0  0  0  0  0  0  0  0  0  # atno 17342 bound_to 10162
  139.5169  144.6984  151.5565 LP  0  0  0  0  0  0  0  0  0  0  0  0  # atno 17343 bound_to 10162
  155.9857  130.3980  150.3247 LP  0  0  0  0  0  0  0  0  0  0  0  0  # atno 17370 bound_to 10713
  157.1387  131.0291  151.2937 LP  0  0  0  0  0  0  0  0  0  0  0  0  # atno 17371 bound_to 10713
  141.2218  133.7243  156.8724 LP  0  0  0  0  0  0  0  0  0  0  0  0  # atno 17394 bound_to 11000
  140.1755  134.9070  157.2885 LP  0  0  0  0  0  0  0  0  0  0  0  0  # atno 17395 bound_to 11000

$$$$
