AV-unprocessed.smi:289|AV-procd|sdf|2213|dock10
  -GOLD-   2262022 53D 1   1.00000     0.00000
 Structure written by MMmdl.
 51 54  0  0  0  0  0  0  0  0  1 V2000
  153.9481  138.0603  156.9205 O   0  0  0  0  0  0  0  0  0  0  0  0
  153.0184  138.8454  156.7231 C   0  0  0  0  0  0  0  0  0  0  0  0
  152.4274  138.9623  155.3020 C   0  0  0  0  0  0  0  0  0  0  0  0
  151.0867  138.3503  155.1598 N   0  0  0  0  0  0  0  0  0  0  0  0
  150.0102  139.1620  154.7259 C   0  0  0  0  0  0  0  0  0  0  0  0
  150.1768  140.3505  154.4480 O   0  0  0  0  0  0  0  0  0  0  0  0
  148.7138  138.4993  154.6533 C   0  0  0  0  0  0  0  0  0  0  0  0
  147.6276  139.2011  154.2879 F   0  0  0  0  0  0  0  0  0  0  0  0
  148.5815  137.1937  154.9647 C   0  0  0  0  0  0  0  0  0  0  0  0
  149.6479  136.3982  155.3509 N   0  0  0  0  0  0  0  0  0  0  0  0
  149.4781  134.9495  155.7849 C   0  0  2  0  0  0  0  0  0  0  0  0
  150.3410  133.9494  155.0036 C   0  0  0  0  0  0  0  0  0  0  0  0
  149.3866  133.4215  153.9355 C   0  0  0  0  0  0  0  0  0  0  0  0
  148.0618  134.1444  154.2024 C   0  0  0  0  0  0  0  0  0  0  0  0
  148.1586  134.5716  155.5543 O   0  0  0  0  0  0  0  0  0  0  0  0
  150.9245  136.9857  155.5005 C   0  0  0  0  0  0  0  0  0  0  0  0
  151.8762  136.3246  155.9223 O   0  0  0  0  0  0  0  0  0  0  0  0
  152.4993  139.6088  157.7158 N   0  0  0  0  0  0  0  0  0  0  0  0
  152.9842  139.6649  159.1029 C   0  0  0  0  0  0  0  0  0  0  0  0
  153.4983  141.0870  159.4074 C   0  0  0  0  0  0  0  0  0  0  0  0
  152.4194  142.0617  159.1645 N   0  0  0  0  0  0  0  0  0  0  0  0
  151.8173  142.8324  160.1053 C   0  0  0  0  0  0  0  0  0  0  0  0
  150.7381  143.3928  159.9118 O   0  0  0  0  0  0  0  0  0  0  0  0
  152.4779  143.0255  161.4145 C   0  0  0  0  0  0  0  0  0  0  0  0
  152.5927  144.1495  162.1874 C   0  0  0  0  0  0  0  0  0  0  0  0
  153.3777  143.7892  163.3173 C   0  0  0  0  0  0  0  0  0  0  0  0
  153.7072  142.4760  163.1422 C   0  0  0  0  0  0  0  0  0  0  0  0
  153.1805  142.0003  161.9813 O   0  0  0  0  0  0  0  0  0  0  0  0
  151.9238  141.9862  157.7808 C   0  0  0  0  0  0  0  0  0  0  0  0
  151.4042  140.5643  157.4975 C   0  0  0  0  0  0  0  0  0  0  0  0
  152.4014  140.0161  155.0203 H   0  0  0  0  0  0  0  0  0  0  0  0
  153.1195  138.5065  154.5923 H   0  0  0  0  0  0  0  0  0  0  0  0
  147.5875  136.7786  154.9158 H   0  0  0  0  0  0  0  0  0  0  0  0
  149.7198  134.9352  156.8490 H   0  0  0  0  0  0  0  0  0  0  0  0
  151.2635  134.3908  154.6267 H   0  0  0  0  0  0  0  0  0  0  0  0
  150.6170  133.1390  155.6793 H   0  0  0  0  0  0  0  0  0  0  0  0
  149.7486  133.6114  152.9249 H   0  0  0  0  0  0  0  0  0  0  0  0
  149.2630  132.3439  154.0474 H   0  0  0  0  0  0  0  0  0  0  0  0
  147.9514  135.0113  153.5497 H   0  0  0  0  0  0  0  0  0  0  0  0
  147.1961  133.4995  154.0511 H   0  0  0  0  0  0  0  0  0  0  0  0
  152.1625  139.4134  159.7753 H   0  0  0  0  0  0  0  0  0  0  0  0
  153.7720  138.9480  159.3254 H   0  0  0  0  0  0  0  0  0  0  0  0
  153.8695  141.0893  160.4299 H   0  0  0  0  0  0  0  0  0  0  0  0
  154.3511  141.3286  158.7714 H   0  0  0  0  0  0  0  0  0  0  0  0
  152.1612  145.1149  161.9666 H   0  0  0  0  0  0  0  0  0  0  0  0
  153.6718  144.4142  164.1476 H   0  0  0  0  0  0  0  0  0  0  0  0
  154.2863  141.7649  163.7128 H   0  0  0  0  0  0  0  0  0  0  0  0
  151.1366  142.7124  157.5738 H   0  0  0  0  0  0  0  0  0  0  0  0
  152.7384  142.2308  157.0973 H   0  0  0  0  0  0  0  0  0  0  0  0
  150.9968  140.5204  156.4868 H   0  0  0  0  0  0  0  0  0  0  0  0
  150.5751  140.3235  158.1646 H   0  0  0  0  0  0  0  0  0  0  0  0
  1  2  2  0  0  0  0
  2  3  1  0  0  0  0
  2 18  1  0  0  0  0
  3  4  1  0  0  0  0
  3 31  1  0  0  0  0
  3 32  1  0  0  0  0
  4 16  1  0  0  0  0
  4  5  1  0  0  0  0
  5  6  2  0  0  0  0
  5  7  1  0  0  0  0
  7  8  1  0  0  0  0
  7  9  2  0  0  0  0
  9 10  1  0  0  0  0
  9 33  1  0  0  0  0
 10 11  1  0  0  0  0
 10 16  1  0  0  0  0
 11 15  1  0  0  0  0
 11 12  1  0  0  0  0
 11 34  1  0  0  0  0
 12 13  1  0  0  0  0
 12 35  1  0  0  0  0
 12 36  1  0  0  0  0
 13 14  1  0  0  0  0
 13 37  1  0  0  0  0
 13 38  1  0  0  0  0
 14 15  1  0  0  0  0
 14 39  1  0  0  0  0
 14 40  1  0  0  0  0
 16 17  2  0  0  0  0
 18 30  1  0  0  0  0
 18 19  1  0  0  0  0
 19 20  1  0  0  0  0
 19 41  1  0  0  0  0
 19 42  1  0  0  0  0
 20 21  1  0  0  0  0
 20 43  1  0  0  0  0
 20 44  1  0  0  0  0
 21 22  1  0  0  0  0
 21 29  1  0  0  0  0
 22 23  2  0  0  0  0
 22 24  1  0  0  0  0
 24 28  1  0  0  0  0
 24 25  2  0  0  0  0
 25 26  1  0  0  0  0
 25 45  1  0  0  0  0
 26 27  2  0  0  0  0
 26 46  1  0  0  0  0
 27 28  1  0  0  0  0
 27 47  1  0  0  0  0
 29 30  1  0  0  0  0
 29 48  1  0  0  0  0
 29 49  1  0  0  0  0
 30 50  1  0  0  0  0
 30 51  1  0  0  0  0
M  END
> <s_m_source_file>
AV-unprocessed.smi

> <i_m_source_file_index>
289

> <i_lp_mmshare_version>
43012

> <i_f3d_flags>
0

> <s_epik_input>
bzFbY0hdW2NIXVtjSF1jMUMoPU8pTihbQ0gyXVtDSDJdMilbQ0gyXVtDSDJdTjJDKD1PKVtDSDJdbjNjKD1PKWMoRilbY0hdbihjMz1PKVtDQEBIXTRbQ0gyXVtDSDJdW0NIMl1PNA==

> <s_epik_cmdline>
J2VwaWtfcHl0aG9uJywgJy1waCcsICc3LjAnLCAnLXRuJywgJzgnLCAnLW1hJywgJzIwMCcsICctbWV0YWxfYmluZGluZycsICctaW1hZScsICc8aW5maWxlLm1hZT4nLCAnLW9tYWUnLCAnPG91dGZpbGUubWFlPic=

> <r_lp_tautomer_probability>
1

> <r_epik_Ionization_Penalty>
6.38128e-09

> <r_epik_Ionization_Penalty_Charging>
4.20153e-09

> <r_epik_Ionization_Penalty_Neutral>
2.17976e-09

> <r_epik_State_Penalty>
-0

> <r_epik_Charging_Adjusted_Penalty>
4.20153e-09

> <i_epik_Tot_Q>
0

> <i_epik_Tot_abs_Q>
0

> <r_epik_Metal_State_Penalty>
-0

> <b_epik_Metal_Only>
0

> <s_epik_Chemistry_Notes>
This compound contains an acetal/aminal-like group ( X-CH(R)-Y where X, Y are N, S, or O) that may be acid/base labile, releasing an aldehyde.

> <s_lp_Force_Field>
OPLS_2005

> <r_lp_Energy>
70.009

> <b_lp_Chiralities_Consistent>
1

> <s_lp_Variant>
AV-unprocessed.smi:289-1

> <Gold.Version>
5.8.1

> <Gold.Id.Protein>
6NUR|6NUR_protein|mol2

> <Gold.PLP.Fitness>
54.8134

> <Gold.PLP.PLP>
-50.0105

> <Gold.PLP.part.hbond>
-3.9821

> <Gold.PLP.part.metal>
0.0000

> <Gold.PLP.part.buried>
-4.3891

> <Gold.PLP.part.nonpolar>
-39.8645

> <Gold.PLP.part.repulsive>
0.2859

> <Gold.PLP.ligand.clash>
0.0138

> <Gold.PLP.ligand.torsion>
0.8522

> <Gold.PLP.Chemscore.Hbond>
1.9920

> <Gold.PLP.Chemscore.CHOScore>
0.0000

> <Gold.PLP.Chemscore.Metal>
0.0000

> <Gold.Chemscore.Hbonds>
donor molecule, donor type, donor heavy atom, donor atom, acceptor molecule, acceptor atom, score
      P1  H  7989  7998       L1     6  0.98
      P1  H 10752 10765       L1    17  1.00

> <Gold.PLP.Chemscore.Internal.Correction>
0.5450

> <Gold.Rescore>
     Score         DG    S(hbond)    S(metal)    S(lipo)     H(rot)  DE(clash)    DE(int)     intcor
     13.92     -20.07       1.93        0.00     105.93       1.66       0.30       5.85       ----

> <Gold.Chemscore.Fitness>
13.9224

> <Gold.Chemscore.DG>
-20.0655

> <Gold.Chemscore.ZeroCoef>
-5.4800

> <Gold.Chemscore.Hbond>
1.9269

> <Gold.Chemscore.Metal>
0.0000

> <Gold.Chemscore.Lipo>
105.9328

> <Gold.Chemscore.Internal_Hbond>
0.0000

> <Gold.Chemscore.DEClash>
0.2966

> <Gold.Chemscore.DEInternal>
5.8465

> <Gold.Chemscore.Rot>
1.6580

> <Gold.Chemscore.Internal.Correction>
   9.000000E+99

> <Gold.Chemscore.Hbonds>
donor molecule, donor type, donor heavy atom, donor atom, acceptor molecule, acceptor atom, score
      P1  H  7989  7998       L1     6  0.92
      P1  H 10752 10765       L1    17  0.97

> <Gold.Chemscore.Hbond.Weighted>
-6.4360

> <Gold.Chemscore.Metal.Weighted>
-0.0000

> <Gold.Chemscore.Lipo.Weighted>
-12.3941

> <Gold.Chemscore.Internal_Hbond.Weighted>
0.0000

> <Gold.Chemscore.DEClash.Weighted>
0.2966

> <Gold.Chemscore.DEInternal.Weighted>
5.8465

> <Gold.Chemscore.Rot.Weighted>
4.2446

> <Gold.Chemscore.Internal.Correction.Weighted>
   9.000000E+99

> <Gold.Protein.RotatedTorsions>
[ 6907 6896 6895 6894 ] final  117.06 input  -60.11 | X-H torsion
[ 7974 7965 7964 7962 ] final   43.91 input  175.53 | X-H torsion
[ 8008 7997 7996 7995 ] final  176.92 input   59.86 | X-H torsion
[ 10167 10162 10161 10158 ] final   36.01 input  -65.29 | X-H torsion
[ 10718 10713 10712 10709 ] final  -32.73 input   66.30 | X-H torsion
[ 10763 10752 10751 10750 ] final -169.46 input  -60.55 | X-H torsion
[ 11005 11000 10999 10996 ] final  126.34 input  -57.11 | X-H torsion

> <Gold.Protein.ActiveResidues>
 VAL166  LYS551  ARG553  GLY616  TRP617  ASP618  TYR619  PRO620  LYS621  CYS622 
 ASP623  PHE694  ASN695  SER759  ASP760  ASP761  ALA762  ILE779  LEU786  VAL792 
 PHE793  MET794  SER795  GLU796  ALA797  LYS798  CYS799  TRP800  GLU811  SER814 

> <Gold.Protein.RotatedAtoms>
  152.4637  133.7877  159.6884 H   0  0  0  0  0  0  0  0  0  0  0  0  # atno 6907 bound_to 6896
  150.8592  133.7659  159.3004 H   0  0  0  0  0  0  0  0  0  0  0  0  # atno 6908 bound_to 6896
  151.5230  135.1070  159.9935 H   0  0  0  0  0  0  0  0  0  0  0  0  # atno 6909 bound_to 6896
  146.0614  139.5133  142.9655 H   0  0  0  0  0  0  0  0  0  0  0  0  # atno 7974 bound_to 7965
  156.0713  140.1371  156.9825 H   0  0  0  0  0  0  0  0  0  0  0  0  # atno 8008 bound_to 7997
  154.4533  140.0971  156.6735 H   0  0  0  0  0  0  0  0  0  0  0  0  # atno 8009 bound_to 7997
  155.5223  140.3456  155.4411 H   0  0  0  0  0  0  0  0  0  0  0  0  # atno 8010 bound_to 7997
  140.4168  144.1515  150.6144 H   0  0  0  0  0  0  0  0  0  0  0  0  # atno 10167 bound_to 10162
  156.3713  130.4340  149.7543 H   0  0  0  0  0  0  0  0  0  0  0  0  # atno 10718 bound_to 10713
  154.6521  135.2913  154.9974 H   0  0  0  0  0  0  0  0  0  0  0  0  # atno 10763 bound_to 10752
  154.1064  135.6569  153.4881 H   0  0  0  0  0  0  0  0  0  0  0  0  # atno 10764 bound_to 10752
  153.0382  135.5254  154.7433 H   0  0  0  0  0  0  0  0  0  0  0  0  # atno 10765 bound_to 10752
  139.9451  134.9630  156.8693 H   0  0  0  0  0  0  0  0  0  0  0  0  # atno 11005 bound_to 11000
  145.6553  141.0253  143.1738 LP  0  0  0  0  0  0  0  0  0  0  0  0  # atno 17320 bound_to 7965
  144.7177  139.8138  143.7393 LP  0  0  0  0  0  0  0  0  0  0  0  0  # atno 17321 bound_to 7965
  140.4577  143.2461  151.9262 LP  0  0  0  0  0  0  0  0  0  0  0  0  # atno 17342 bound_to 10162
  139.4782  144.5499  151.8402 LP  0  0  0  0  0  0  0  0  0  0  0  0  # atno 17343 bound_to 10162
  156.4669  130.7978  151.2997 LP  0  0  0  0  0  0  0  0  0  0  0  0  # atno 17370 bound_to 10713
  157.7484  131.0048  150.3090 LP  0  0  0  0  0  0  0  0  0  0  0  0  # atno 17371 bound_to 10713
  140.5854  134.0312  155.7479 LP  0  0  0  0  0  0  0  0  0  0  0  0  # atno 17394 bound_to 11000
  141.1099  133.9633  157.2929 LP  0  0  0  0  0  0  0  0  0  0  0  0  # atno 17395 bound_to 11000

$$$$
