AV-unprocessed.smi:1723|AV-procd|sdf|6947|dock1
  -GOLD-   22720 8153D 1   1.00000     0.00000
 Structure written by MMmdl.
 37 37  0  0  0  0  0  0  0  0  2 V2000
  145.9495  142.6595  154.3351 C   0  0  0  0  0  0  0  0  0  0  0  0
  147.1656  141.8594  154.8146 C   0  0  0  0  0  0  0  0  0  0  0  0
  147.8232  141.0521  153.6847 C   0  0  0  0  0  0  0  0  0  0  0  0
  149.2282  140.5554  154.0466 C   0  0  0  0  0  0  0  0  0  0  0  0
  149.1264  139.2719  154.6535 O   0  0  0  0  0  0  0  0  0  0  0  0
  150.3666  138.6483  154.9758 C   0  0  2  0  0  0  0  0  0  0  0  0
  150.0583  137.4475  155.8820 C   0  0  0  0  0  0  0  0  0  0  0  0
  151.2995  139.6500  155.6758 C   0  0  0  0  0  0  0  0  0  0  0  0
  152.3511  139.9778  155.1271 O   0  0  0  0  0  0  0  0  0  0  0  0
  150.8837  140.0739  156.8857 N   0  0  0  0  0  0  0  0  0  0  0  0
  151.4846  140.9732  157.7837 C   0  0  0  0  0  0  0  0  0  0  0  0
  151.0220  142.2225  158.0691 C   0  0  0  0  0  0  0  0  0  0  0  0
  151.6901  143.1049  159.0173 C   0  0  0  0  0  0  0  0  0  0  0  0
  151.1583  144.4712  159.4131 C   0  0  0  0  0  0  0  0  0  0  0  0
  151.9042  145.0189  160.3731 F   0  0  0  0  0  0  0  0  0  0  0  0
  151.1734  145.2858  158.3591 F   0  0  0  0  0  0  0  0  0  0  0  0
  149.9029  144.3854  159.8534 F   0  0  0  0  0  0  0  0  0  0  0  0
  152.7987  142.5140  159.5917 C   0  0  0  0  0  0  0  0  0  0  0  0
  153.3272  141.2925  159.3603 N   0  5  0  0  0  0  0  0  0  0  0  0
  152.6993  140.4791  158.4650 C   0  0  0  0  0  0  0  0  0  0  0  0
  153.1221  139.3496  158.2151 O   0  0  0  0  0  0  0  0  0  0  0  0
  145.5047  143.2201  155.1572 H   0  0  0  0  0  0  0  0  0  0  0  0
  145.1815  142.0019  153.9271 H   0  0  0  0  0  0  0  0  0  0  0  0
  146.2278  143.3726  153.5588 H   0  0  0  0  0  0  0  0  0  0  0  0
  147.8961  142.5425  155.2494 H   0  0  0  0  0  0  0  0  0  0  0  0
  146.8582  141.1871  155.6166 H   0  0  0  0  0  0  0  0  0  0  0  0
  147.1935  140.2020  153.4194 H   0  0  0  0  0  0  0  0  0  0  0  0
  147.8889  141.6758  152.7926 H   0  0  0  0  0  0  0  0  0  0  0  0
  149.8349  140.4824  153.1430 H   0  0  0  0  0  0  0  0  0  0  0  0
  149.7138  141.2759  154.7057 H   0  0  0  0  0  0  0  0  0  0  0  0
  150.8340  138.2767  154.0618 H   0  0  0  0  0  0  0  0  0  0  0  0
  150.9721  136.9345  156.1845 H   0  0  0  0  0  0  0  0  0  0  0  0
  149.4308  136.7231  155.3624 H   0  0  0  0  0  0  0  0  0  0  0  0
  149.5287  137.7516  156.7858 H   0  0  0  0  0  0  0  0  0  0  0  0
  150.0229  139.6690  157.2248 H   0  0  0  0  0  0  0  0  0  0  0  0
  150.1281  142.6047  157.6061 H   0  0  0  0  0  0  0  0  0  0  0  0
  153.3415  143.1113  160.3551 H   0  0  0  0  0  0  0  0  0  0  0  0
  1  2  1  0  0  0  0
  1 22  1  0  0  0  0
  1 23  1  0  0  0  0
  1 24  1  0  0  0  0
  2  3  1  0  0  0  0
  2 25  1  0  0  0  0
  2 26  1  0  0  0  0
  3  4  1  0  0  0  0
  3 27  1  0  0  0  0
  3 28  1  0  0  0  0
  4  5  1  0  0  0  0
  4 29  1  0  0  0  0
  4 30  1  0  0  0  0
  5  6  1  0  0  0  0
  6  7  1  0  0  0  0
  6  8  1  0  0  0  0
  6 31  1  0  0  0  0
  7 32  1  0  0  0  0
  7 33  1  0  0  0  0
  7 34  1  0  0  0  0
  8  9  2  0  0  0  0
  8 10  1  0  0  0  0
 10 11  1  0  0  0  0
 10 35  1  0  0  0  0
 11 20  1  0  0  0  0
 11 12  2  0  0  0  0
 12 13  1  0  0  0  0
 12 36  1  0  0  0  0
 13 14  1  0  0  0  0
 13 18  2  0  0  0  0
 14 15  1  0  0  0  0
 14 16  1  0  0  0  0
 14 17  1  0  0  0  0
 18 19  1  0  0  0  0
 18 37  1  0  0  0  0
 19 20  1  0  0  0  0
 20 21  2  0  0  0  0
M  CHG  1  19  -1
M  END
> <s_m_source_file>
AV-unprocessed.smi

> <i_m_source_file_index>
1723

> <i_lp_mmshare_version>
43012

> <i_f3d_flags>
0

> <s_epik_input>
W0NIM11bQ0gyXVtDSDJdW0NIMl1PW0NASF0oW0NIM10pQyg9TylbTkhdYzFbY0hdYyhDKEYpKEYpRilbY0hdW25IXWMxPU8=

> <s_epik_cmdline>
J2VwaWtfcHl0aG9uJywgJy1waCcsICc3LjAnLCAnLXRuJywgJzgnLCAnLW1hJywgJzIwMCcsICctbWV0YWxfYmluZGluZycsICctaW1hZScsICc8aW5maWxlLm1hZT4nLCAnLW9tYWUnLCAnPG91dGZpbGUubWFlPic=

> <r_lp_tautomer_probability>
0.999

> <r_epik_Ionization_Penalty>
2.64397

> <r_epik_Ionization_Penalty_Charging>
0.0618254

> <r_epik_Ionization_Penalty_Neutral>
2.58215

> <r_epik_State_Penalty>
2.58023

> <r_epik_Charging_Adjusted_Penalty>
2.64205

> <i_epik_Tot_Q>
-1

> <i_epik_Tot_abs_Q>
1

> <r_epik_Metal_State_Penalty>
0.429101

> <b_epik_Metal_Only>
1

> <s_lp_Force_Field>
OPLS_2005

> <r_lp_Energy>
21.4098

> <b_lp_Chiralities_Consistent>
1

> <s_lp_Variant>
AV-unprocessed.smi:1723-3

> <Gold.Version>
5.8.1

> <Gold.Id.Protein>
6NUR|6NUR_protein|mol2

> <Gold.PLP.Fitness>
45.1706

> <Gold.PLP.PLP>
-42.5754

> <Gold.PLP.part.hbond>
-2.0312

> <Gold.PLP.part.metal>
0.0000

> <Gold.PLP.part.buried>
-4.2654

> <Gold.PLP.part.nonpolar>
-36.4304

> <Gold.PLP.part.repulsive>
0.2031

> <Gold.PLP.ligand.clash>
0.0000

> <Gold.PLP.ligand.torsion>
1.1008

> <Gold.PLP.Chemscore.Hbond>
1.4380

> <Gold.PLP.Chemscore.CHOScore>
0.0000

> <Gold.PLP.Chemscore.Metal>
0.0000

> <Gold.Chemscore.Hbonds>
donor molecule, donor type, donor heavy atom, donor atom, acceptor molecule, acceptor atom, score
      P1  H  7989  7998       L1     9  0.66
      P1  H  7997  8010       L1    21  0.70

> <Gold.PLP.Chemscore.Internal.Correction>
0.4829

> <Gold.Rescore>
     Score         DG    S(hbond)    S(metal)    S(lipo)     H(rot)  DE(clash)    DE(int)     intcor
     12.52     -13.59       1.23        0.00      76.80       1.95       0.07       1.00       ----

> <Gold.Chemscore.Fitness>
12.5217

> <Gold.Chemscore.DG>
-13.5934

> <Gold.Chemscore.ZeroCoef>
-5.4800

> <Gold.Chemscore.Hbond>
1.2341

> <Gold.Chemscore.Metal>
0.0000

> <Gold.Chemscore.Lipo>
76.7994

> <Gold.Chemscore.Internal_Hbond>
0.0000

> <Gold.Chemscore.DEClash>
0.0684

> <Gold.Chemscore.DEInternal>
1.0033

> <Gold.Chemscore.Rot>
1.9507

> <Gold.Chemscore.Internal.Correction>
   9.000000E+99

> <Gold.Chemscore.Hbonds>
donor molecule, donor type, donor heavy atom, donor atom, acceptor molecule, acceptor atom, score
      P1  H  7989  7998       L1     9  0.23
      P1  H  7997  8010       L1    21  0.07

> <Gold.Chemscore.Hbond.Weighted>
-4.1218

> <Gold.Chemscore.Metal.Weighted>
-0.0000

> <Gold.Chemscore.Lipo.Weighted>
-8.9855

> <Gold.Chemscore.Internal_Hbond.Weighted>
0.0000

> <Gold.Chemscore.DEClash.Weighted>
0.0684

> <Gold.Chemscore.DEInternal.Weighted>
1.0033

> <Gold.Chemscore.Rot.Weighted>
4.9939

> <Gold.Chemscore.Internal.Correction.Weighted>
   9.000000E+99

> <Gold.Protein.RotatedTorsions>
[ 6907 6896 6895 6894 ] final   13.82 input  -60.11 | X-H torsion
[ 7974 7965 7964 7962 ] final  -89.08 input  175.53 | X-H torsion
[ 8008 7997 7996 7995 ] final   31.71 input   59.86 | X-H torsion
[ 10167 10162 10161 10158 ] final   62.89 input  -65.29 | X-H torsion
[ 10718 10713 10712 10709 ] final  144.40 input   66.30 | X-H torsion
[ 10763 10752 10751 10750 ] final -121.91 input  -60.55 | X-H torsion
[ 11005 11000 10999 10996 ] final   29.89 input  -57.11 | X-H torsion

> <Gold.Protein.ActiveResidues>
 VAL166  LYS551  ARG553  GLY616  TRP617  ASP618  TYR619  PRO620  LYS621  CYS622 
 ASP623  PHE694  ASN695  SER759  ASP760  ASP761  ALA762  ILE779  LEU786  VAL792 
 PHE793  MET794  SER795  GLU796  ALA797  LYS798  CYS799  TRP800  GLU811  SER814 

> <Gold.Protein.RotatedAtoms>
  151.7923  135.0732  160.0388 H   0  0  0  0  0  0  0  0  0  0  0  0  # atno 6907 bound_to 6896
  152.3147  133.5786  159.5713 H   0  0  0  0  0  0  0  0  0  0  0  0  # atno 6908 bound_to 6896
  150.7338  134.0016  159.3682 H   0  0  0  0  0  0  0  0  0  0  0  0  # atno 6909 bound_to 6896
  145.4446  140.9559  143.2056 H   0  0  0  0  0  0  0  0  0  0  0  0  # atno 7974 bound_to 7965
  155.1108  140.3239  155.4522 H   0  0  0  0  0  0  0  0  0  0  0  0  # atno 8008 bound_to 7997
  156.2691  140.2044  156.6180 H   0  0  0  0  0  0  0  0  0  0  0  0  # atno 8009 bound_to 7997
  154.6757  140.0531  157.0200 H   0  0  0  0  0  0  0  0  0  0  0  0  # atno 8010 bound_to 7997
  140.1389  144.4572  150.6822 H   0  0  0  0  0  0  0  0  0  0  0  0  # atno 10167 bound_to 10162
  157.3576  131.0960  151.0944 H   0  0  0  0  0  0  0  0  0  0  0  0  # atno 10718 bound_to 10713
  154.8678  135.4151  154.2696 H   0  0  0  0  0  0  0  0  0  0  0  0  # atno 10763 bound_to 10752
  153.3608  135.7003  153.6719 H   0  0  0  0  0  0  0  0  0  0  0  0  # atno 10764 bound_to 10752
  153.5621  135.3608  155.2775 H   0  0  0  0  0  0  0  0  0  0  0  0  # atno 10765 bound_to 10752
  140.3002  134.2766  155.7756 H   0  0  0  0  0  0  0  0  0  0  0  0  # atno 11005 bound_to 11000
  144.8100  139.5980  143.7034 LP  0  0  0  0  0  0  0  0  0  0  0  0  # atno 17320 bound_to 7965
  146.2537  139.6256  142.9409 LP  0  0  0  0  0  0  0  0  0  0  0  0  # atno 17321 bound_to 7965
  140.6772  143.2310  151.5477 LP  0  0  0  0  0  0  0  0  0  0  0  0  # atno 17342 bound_to 10162
  139.5482  144.2466  152.1481 LP  0  0  0  0  0  0  0  0  0  0  0  0  # atno 17343 bound_to 10162
  157.2096  130.6431  149.5769 LP  0  0  0  0  0  0  0  0  0  0  0  0  # atno 17370 bound_to 10713
  155.9732  130.4664  150.6289 LP  0  0  0  0  0  0  0  0  0  0  0  0  # atno 17371 bound_to 10713
  141.2129  133.7641  156.9755 LP  0  0  0  0  0  0  0  0  0  0  0  0  # atno 17394 bound_to 11000
  140.1116  134.9473  157.2074 LP  0  0  0  0  0  0  0  0  0  0  0  0  # atno 17395 bound_to 11000

$$$$
