AV-unprocessed.smi:1145|AV-procd|sdf|4882|dock7
  -GOLD-   22720 3453D 1   1.00000     0.00000
 Structure written by MMmdl.
 36 37  0  0  0  0  0  0  0  0  1 V2000
  145.9169  133.6730  154.3729 C   0  0  0  0  0  0  0  0  0  0  0  0
  146.2337  134.7084  153.2843 C   0  0  2  0  0  0  0  0  0  0  0  0
  146.6906  134.0407  151.9733 C   0  0  0  0  0  0  0  0  0  0  0  0
  145.5766  133.4879  151.2218 N   0  0  0  0  0  0  0  0  0  0  0  0
  145.4651  132.2356  150.6554 C   0  0  0  0  0  0  0  0  0  0  0  0
  144.2378  132.1663  150.0609 C   0  0  0  0  0  0  0  0  0  0  0  0
  143.6631  133.4415  150.3225 C   0  0  0  0  0  0  0  0  0  0  0  0
  144.4665  134.2303  151.0176 N   0  0  0  0  0  0  0  0  0  0  0  0
  147.2662  135.6246  153.7641 N   0  0  0  0  0  0  0  0  0  0  0  0
  147.2783  136.2319  154.9603 C   0  0  0  0  0  0  0  0  0  0  0  0
  146.4225  136.0419  155.8255 O   0  0  0  0  0  0  0  0  0  0  0  0
  148.4328  137.2100  155.2141 C   0  0  2  0  0  0  0  0  0  0  0  0
  148.4085  138.3733  154.2091 C   0  0  0  0  0  0  0  0  0  0  0  0
  149.5348  139.3773  154.5021 C   0  0  0  0  0  0  0  0  0  0  0  0
  150.8960  138.7109  154.7514 C   0  0  0  0  0  0  0  0  0  0  0  0
  151.9217  139.3831  154.6716 O   0  0  0  0  0  0  0  0  0  0  0  0
  150.9329  137.4095  155.0882 N   0  0  0  0  0  0  0  0  0  0  0  0
  149.7953  136.4901  155.1299 C   0  0  0  0  0  0  0  0  0  0  0  0
  145.1296  132.9920  154.0485 H   0  0  0  0  0  0  0  0  0  0  0  0
  145.5742  134.1576  155.2880 H   0  0  0  0  0  0  0  0  0  0  0  0
  146.7943  133.0748  154.6209 H   0  0  0  0  0  0  0  0  0  0  0  0
  145.3158  135.2604  153.0730 H   0  0  0  0  0  0  0  0  0  0  0  0
  147.2322  134.7506  151.3456 H   0  0  0  0  0  0  0  0  0  0  0  0
  147.3829  133.2263  152.1896 H   0  0  0  0  0  0  0  0  0  0  0  0
  146.2585  131.5061  150.7250 H   0  0  0  0  0  0  0  0  0  0  0  0
  143.8143  131.3314  149.5223 H   0  0  0  0  0  0  0  0  0  0  0  0
  142.6928  133.8145  150.0294 H   0  0  0  0  0  0  0  0  0  0  0  0
  148.0104  135.8443  153.1178 H   0  0  0  0  0  0  0  0  0  0  0  0
  148.3233  137.6266  156.2174 H   0  0  0  0  0  0  0  0  0  0  0  0
  148.5173  137.9961  153.1905 H   0  0  0  0  0  0  0  0  0  0  0  0
  147.4462  138.8858  154.2460 H   0  0  0  0  0  0  0  0  0  0  0  0
  149.6229  140.0894  153.6810 H   0  0  0  0  0  0  0  0  0  0  0  0
  149.2838  139.9561  155.3916 H   0  0  0  0  0  0  0  0  0  0  0  0
  151.8400  137.0076  155.2761 H   0  0  0  0  0  0  0  0  0  0  0  0
  149.9185  135.8214  155.9828 H   0  0  0  0  0  0  0  0  0  0  0  0
  149.8485  135.8674  154.2355 H   0  0  0  0  0  0  0  0  0  0  0  0
  1  2  1  0  0  0  0
  1 19  1  0  0  0  0
  1 20  1  0  0  0  0
  1 21  1  0  0  0  0
  2  3  1  0  0  0  0
  2  9  1  0  0  0  0
  2 22  1  0  0  0  0
  3  4  1  0  0  0  0
  3 23  1  0  0  0  0
  3 24  1  0  0  0  0
  4  8  1  0  0  0  0
  4  5  1  0  0  0  0
  5  6  2  0  0  0  0
  5 25  1  0  0  0  0
  6  7  1  0  0  0  0
  6 26  1  0  0  0  0
  7  8  2  0  0  0  0
  7 27  1  0  0  0  0
  9 10  1  0  0  0  0
  9 28  1  0  0  0  0
 10 11  2  0  0  0  0
 10 12  1  0  0  0  0
 12 18  1  0  0  0  0
 12 13  1  0  0  0  0
 12 29  1  0  0  0  0
 13 14  1  0  0  0  0
 13 30  1  0  0  0  0
 13 31  1  0  0  0  0
 14 15  1  0  0  0  0
 14 32  1  0  0  0  0
 14 33  1  0  0  0  0
 15 16  2  0  0  0  0
 15 17  1  0  0  0  0
 17 18  1  0  0  0  0
 17 34  1  0  0  0  0
 18 35  1  0  0  0  0
 18 36  1  0  0  0  0
M  END
> <s_m_source_file>
AV-unprocessed.smi

> <i_m_source_file_index>
1145

> <i_lp_mmshare_version>
43012

> <i_f3d_flags>
0

> <s_epik_input>
bjFbY0hdW2NIXVtjSF1uMVtDSDJdW0NAQEhdKFtDSDNdKVtOSF1DKD1PKVtDQEBIXTJbQ0gyXVtDSDJdQyg9TylbTkhdW0NIMl0y

> <s_epik_cmdline>
J2VwaWtfcHl0aG9uJywgJy1waCcsICc3LjAnLCAnLXRuJywgJzgnLCAnLW1hJywgJzIwMCcsICctbWV0YWxfYmluZGluZycsICctaW1hZScsICc8aW5maWxlLm1hZT4nLCAnLW9tYWUnLCAnPG91dGZpbGUubWFlPic=

> <r_lp_tautomer_probability>
1

> <r_epik_Ionization_Penalty>
0.000314064

> <r_epik_Ionization_Penalty_Charging>
0

> <r_epik_Ionization_Penalty_Neutral>
0.000314064

> <r_epik_State_Penalty>
-0

> <r_epik_Charging_Adjusted_Penalty>
0

> <i_epik_Tot_Q>
0

> <i_epik_Tot_abs_Q>
0

> <r_epik_Metal_State_Penalty>
-0

> <b_epik_Metal_Only>
0

> <s_lp_Force_Field>
OPLS_2005

> <r_lp_Energy>
12.6815

> <b_lp_Chiralities_Consistent>
1

> <s_lp_Variant>
AV-unprocessed.smi:1145-1

> <Gold.Version>
5.8.1

> <Gold.Id.Protein>
6NUR|6NUR_protein|mol2

> <Gold.PLP.Fitness>
36.1191

> <Gold.PLP.PLP>
-24.9490

> <Gold.PLP.part.hbond>
-2.0000

> <Gold.PLP.part.metal>
0.0000

> <Gold.PLP.part.buried>
-3.8280

> <Gold.PLP.part.nonpolar>
-19.9501

> <Gold.PLP.part.repulsive>
0.2817

> <Gold.PLP.ligand.clash>
0.0000

> <Gold.PLP.ligand.torsion>
0.4136

> <Gold.PLP.Chemscore.Hbond>
1.9920

> <Gold.PLP.Chemscore.CHOScore>
2.0000

> <Gold.PLP.Chemscore.Metal>
0.0000

> <Gold.Chemscore.Hbonds>
donor molecule, donor type, donor heavy atom, donor atom, acceptor molecule, acceptor atom, score
      L1  H     9    28       P1  7948  1.00
      P1  H  7989  7998       L1    16  0.96
      L1  C     5    25       P1 10747  0.26
      L1  C     7    27       P1 10186  0.56

> <Gold.PLP.Chemscore.Internal.Correction>
0.0213

> <Gold.Rescore>
     Score         DG    S(hbond)    S(metal)    S(lipo)     H(rot)  DE(clash)    DE(int)     intcor
     12.88     -14.20       2.00        0.00      56.84       1.80       0.05       1.27       ----

> <Gold.Chemscore.Fitness>
12.8777

> <Gold.Chemscore.DG>
-14.1973

> <Gold.Chemscore.ZeroCoef>
-5.4800

> <Gold.Chemscore.Hbond>
1.9971

> <Gold.Chemscore.Metal>
0.0000

> <Gold.Chemscore.Lipo>
56.8415

> <Gold.Chemscore.Internal_Hbond>
0.0000

> <Gold.Chemscore.DEClash>
0.0492

> <Gold.Chemscore.DEInternal>
1.2704

> <Gold.Chemscore.Rot>
1.7982

> <Gold.Chemscore.Internal.Correction>
   9.000000E+99

> <Gold.Chemscore.Hbonds>
donor molecule, donor type, donor heavy atom, donor atom, acceptor molecule, acceptor atom, score
      L1  H     9    28       P1  7948  0.99
      P1  H  7989  7998       L1    16  0.72

> <Gold.Chemscore.Hbond.Weighted>
-6.6703

> <Gold.Chemscore.Metal.Weighted>
-0.0000

> <Gold.Chemscore.Lipo.Weighted>
-6.6505

> <Gold.Chemscore.Internal_Hbond.Weighted>
0.0000

> <Gold.Chemscore.DEClash.Weighted>
0.0492

> <Gold.Chemscore.DEInternal.Weighted>
1.2704

> <Gold.Chemscore.Rot.Weighted>
4.6035

> <Gold.Chemscore.Internal.Correction.Weighted>
   9.000000E+99

> <Gold.Protein.RotatedTorsions>
[ 6907 6896 6895 6894 ] final  -35.90 input  -60.11 | X-H torsion
[ 7974 7965 7964 7962 ] final    8.45 input  175.53 | X-H torsion
[ 8008 7997 7996 7995 ] final -135.34 input   59.86 | X-H torsion
[ 10167 10162 10161 10158 ] final  -23.45 input  -65.29 | X-H torsion
[ 10718 10713 10712 10709 ] final  128.37 input   66.30 | X-H torsion
[ 10763 10752 10751 10750 ] final  172.87 input  -60.55 | X-H torsion
[ 11005 11000 10999 10996 ] final  -31.85 input  -57.11 | X-H torsion

> <Gold.Protein.ActiveResidues>
 VAL166  LYS551  ARG553  GLY616  TRP617  ASP618  TYR619  PRO620  LYS621  CYS622 
 ASP623  PHE694  ASN695  SER759  ASP760  ASP761  ALA762  ILE779  LEU786  VAL792 
 PHE793  MET794  SER795  GLU796  ALA797  LYS798  CYS799  TRP800  GLU811  SER814 

> <Gold.Protein.RotatedAtoms>
  151.0339  134.9559  159.8125 H   0  0  0  0  0  0  0  0  0  0  0  0  # atno 6907 bound_to 6896
  152.5351  134.2745  159.8994 H   0  0  0  0  0  0  0  0  0  0  0  0  # atno 6908 bound_to 6896
  151.2755  133.4192  159.2658 H   0  0  0  0  0  0  0  0  0  0  0  0  # atno 6909 bound_to 6896
  146.2416  139.9931  142.8423 H   0  0  0  0  0  0  0  0  0  0  0  0  # atno 7974 bound_to 7965
  155.3770  140.0491  157.3044 H   0  0  0  0  0  0  0  0  0  0  0  0  # atno 8008 bound_to 7997
  154.5101  140.2188  155.9135 H   0  0  0  0  0  0  0  0  0  0  0  0  # atno 8009 bound_to 7997
  156.1573  140.3124  155.8752 H   0  0  0  0  0  0  0  0  0  0  0  0  # atno 8010 bound_to 7997
  140.7288  143.4442  151.0612 H   0  0  0  0  0  0  0  0  0  0  0  0  # atno 10167 bound_to 10162
  157.5250  131.1098  150.9096 H   0  0  0  0  0  0  0  0  0  0  0  0  # atno 10718 bound_to 10713
  154.4321  135.2760  155.1905 H   0  0  0  0  0  0  0  0  0  0  0  0  # atno 10763 bound_to 10752
  154.3806  135.6088  153.5792 H   0  0  0  0  0  0  0  0  0  0  0  0  # atno 10764 bound_to 10752
  152.9836  135.5879  154.4635 H   0  0  0  0  0  0  0  0  0  0  0  0  # atno 10765 bound_to 10752
  140.9503  133.7225  156.1210 H   0  0  0  0  0  0  0  0  0  0  0  0  # atno 11005 bound_to 11000
  145.1485  140.9610  143.4447 LP  0  0  0  0  0  0  0  0  0  0  0  0  # atno 17320 bound_to 7965
  145.0228  139.3409  143.6064 LP  0  0  0  0  0  0  0  0  0  0  0  0  # atno 17321 bound_to 7965
  139.8112  143.7949  152.3171 LP  0  0  0  0  0  0  0  0  0  0  0  0  # atno 17342 bound_to 10162
  139.7999  144.7378  150.9839 LP  0  0  0  0  0  0  0  0  0  0  0  0  # atno 17343 bound_to 10162
  156.9695  130.5485  149.5290 LP  0  0  0  0  0  0  0  0  0  0  0  0  # atno 17370 bound_to 10713
  156.0380  130.5466  150.8702 LP  0  0  0  0  0  0  0  0  0  0  0  0  # atno 17371 bound_to 10713
  140.7612  134.3937  157.5525 LP  0  0  0  0  0  0  0  0  0  0  0  0  # atno 17394 bound_to 11000
  139.8845  134.8962  156.2697 LP  0  0  0  0  0  0  0  0  0  0  0  0  # atno 17395 bound_to 11000

$$$$
