AV-unprocessed.smi:3338|AV-procd|sdf|12872|dock5
  -GOLD-   2272019273D 1   1.00000     0.00000
 Structure written by MMmdl.
 44 45  0  0  0  0  0  0  0  0  2 V2000
  146.0844  132.2564  151.6101 C   0  0  0  0  0  0  0  0  0  0  0  0
  146.3748  133.7552  151.7699 C   0  0  1  0  0  0  0  0  0  0  0  0
  145.2184  134.6131  151.2301 C   0  0  0  0  0  0  0  0  0  0  0  0
  145.5293  136.1026  151.4216 C   0  0  0  0  0  0  0  0  0  0  0  0
  145.8493  136.4129  152.8924 C   0  0  0  0  0  0  0  0  0  0  0  0
  146.9707  135.5719  153.3859 N   0  3  1  0  0  0  0  0  0  0  0  0
  147.3892  135.9486  154.7597 C   0  0  0  0  0  0  0  0  0  0  0  0
  148.8819  135.6671  155.0201 C   0  0  0  0  0  0  0  0  0  0  0  0
  149.7216  136.7649  154.5561 N   0  0  0  0  0  0  0  0  0  0  0  0
  150.9656  137.0195  154.9943 C   0  0  0  0  0  0  0  0  0  0  0  0
  151.5341  136.3161  155.8306 O   0  0  0  0  0  0  0  0  0  0  0  0
  151.6681  138.2458  154.3849 C   0  0  2  0  0  0  0  0  0  0  0  0
  153.2026  138.0978  154.3315 C   0  0  0  0  0  0  0  0  0  0  0  0
  151.2686  139.4676  155.0749 N   0  0  0  0  0  0  0  0  0  0  0  0
  151.5129  139.8219  156.3864 C   0  0  0  0  0  0  0  0  0  0  0  0
  150.9745  141.0608  156.5843 C   0  0  0  0  0  0  0  0  0  0  0  0
  150.4183  141.3940  155.3182 C   0  0  0  0  0  0  0  0  0  0  0  0
  150.5996  140.4431  154.4167 N   0  0  0  0  0  0  0  0  0  0  0  0
  146.6707  134.1219  153.2382 C   0  0  0  0  0  0  0  0  0  0  0  0
  145.1991  131.9605  152.1738 H   0  0  0  0  0  0  0  0  0  0  0  0
  146.9214  131.6536  151.9638 H   0  0  0  0  0  0  0  0  0  0  0  0
  145.9142  131.9998  150.5640 H   0  0  0  0  0  0  0  0  0  0  0  0
  147.2654  133.9798  151.1810 H   0  0  0  0  0  0  0  0  0  0  0  0
  145.0494  134.4020  150.1735 H   0  0  0  0  0  0  0  0  0  0  0  0
  144.2929  134.3622  151.7508 H   0  0  0  0  0  0  0  0  0  0  0  0
  146.3760  136.3847  150.7942 H   0  0  0  0  0  0  0  0  0  0  0  0
  144.6836  136.7051  151.0889 H   0  0  0  0  0  0  0  0  0  0  0  0
  146.1089  137.4684  152.9841 H   0  0  0  0  0  0  0  0  0  0  0  0
  144.9674  136.2479  153.5135 H   0  0  0  0  0  0  0  0  0  0  0  0
  147.2127  137.0158  154.9013 H   0  0  0  0  0  0  0  0  0  0  0  0
  146.7638  135.4346  155.4913 H   0  0  0  0  0  0  0  0  0  0  0  0
  149.0761  135.5432  156.0846 H   0  0  0  0  0  0  0  0  0  0  0  0
  149.1864  134.7361  154.5387 H   0  0  0  0  0  0  0  0  0  0  0  0
  149.3230  137.3900  153.8702 H   0  0  0  0  0  0  0  0  0  0  0  0
  151.3171  138.3289  153.3551 H   0  0  0  0  0  0  0  0  0  0  0  0
  153.4948  137.2140  153.7632 H   0  0  0  0  0  0  0  0  0  0  0  0
  153.6395  138.0101  155.3271 H   0  0  0  0  0  0  0  0  0  0  0  0
  153.6589  138.9610  153.8464 H   0  0  0  0  0  0  0  0  0  0  0  0
  152.0443  139.1696  157.0638 H   0  0  0  0  0  0  0  0  0  0  0  0
  150.9786  141.6420  157.4946 H   0  0  0  0  0  0  0  0  0  0  0  0
  149.8949  142.2932  155.0282 H   0  0  0  0  0  0  0  0  0  0  0  0
  145.8217  133.8605  153.8724 H   0  0  0  0  0  0  0  0  0  0  0  0
  147.5151  133.5272  153.5839 H   0  0  0  0  0  0  0  0  0  0  0  0
  147.7562  135.7737  152.7838 H   0  0  0  0  0  0  0  0  0  0  0  0
  1  2  1  0  0  0  0
  1 20  1  0  0  0  0
  1 21  1  0  0  0  0
  1 22  1  0  0  0  0
  2 19  1  0  0  0  0
  2  3  1  0  0  0  0
  2 23  1  0  0  0  0
  3  4  1  0  0  0  0
  3 24  1  0  0  0  0
  3 25  1  0  0  0  0
  4  5  1  0  0  0  0
  4 26  1  0  0  0  0
  4 27  1  0  0  0  0
  5  6  1  0  0  0  0
  5 28  1  0  0  0  0
  5 29  1  0  0  0  0
  6  7  1  0  0  0  0
  6 19  1  0  0  0  0
  6 44  1  0  0  0  0
  7  8  1  0  0  0  0
  7 30  1  0  0  0  0
  7 31  1  0  0  0  0
  8  9  1  0  0  0  0
  8 32  1  0  0  0  0
  8 33  1  0  0  0  0
  9 10  1  0  0  0  0
  9 34  1  0  0  0  0
 10 11  2  0  0  0  0
 10 12  1  0  0  0  0
 12 13  1  0  0  0  0
 12 14  1  0  0  0  0
 12 35  1  0  0  0  0
 13 36  1  0  0  0  0
 13 37  1  0  0  0  0
 13 38  1  0  0  0  0
 14 18  1  0  0  0  0
 14 15  1  0  0  0  0
 15 16  2  0  0  0  0
 15 39  1  0  0  0  0
 16 17  1  0  0  0  0
 16 40  1  0  0  0  0
 17 18  2  0  0  0  0
 17 41  1  0  0  0  0
 19 42  1  0  0  0  0
 19 43  1  0  0  0  0
M  CHG  1   6   1
M  END
> <s_m_source_file>
AV-unprocessed.smi

> <i_m_source_file_index>
3338

> <i_lp_mmshare_version>
43012

> <i_f3d_flags>
0

> <s_epik_input>
W0NIM11bQ0BASF0xW0NIMl1bQ0gyXVtDSDJdTihbQ0gyXTEpW0NIMl1bQ0gyXVtOSF1DKD1PKVtDQEhdKFtDSDNdKW4yW2NIXVtjSF1bY0hdbjI=

> <s_epik_cmdline>
J2VwaWtfcHl0aG9uJywgJy1waCcsICc3LjAnLCAnLXRuJywgJzgnLCAnLW1hJywgJzIwMCcsICctbWV0YWxfYmluZGluZycsICctaW1hZScsICc8aW5maWxlLm1hZT4nLCAnLW9tYWUnLCAnPG91dGZpbGUubWFlPic=

> <r_lp_tautomer_probability>
1

> <r_epik_Ionization_Penalty>
0.00225707

> <r_epik_Ionization_Penalty_Charging>
0.00223709

> <r_epik_Ionization_Penalty_Neutral>
1.99775e-05

> <r_epik_State_Penalty>
0.00153978

> <r_epik_Charging_Adjusted_Penalty>
0.00377687

> <i_epik_Tot_Q>
1

> <i_epik_Tot_abs_Q>
1

> <r_epik_Metal_State_Penalty>
-0

> <b_epik_Metal_Only>
0

> <s_lp_Force_Field>
OPLS_2005

> <r_lp_Energy>
19.9397

> <b_lp_Chiralities_Consistent>
1

> <s_lp_Variant>
AV-unprocessed.smi:3338-4

> <Gold.Version>
5.8.1

> <Gold.Id.Protein>
6NUR|6NUR_protein|mol2

> <Gold.PLP.Fitness>
46.1800

> <Gold.PLP.PLP>
-34.2585

> <Gold.PLP.part.hbond>
-4.0000

> <Gold.PLP.part.metal>
0.0000

> <Gold.PLP.part.buried>
-1.8604

> <Gold.PLP.part.nonpolar>
-28.3055

> <Gold.PLP.part.repulsive>
0.1676

> <Gold.PLP.ligand.clash>
0.0000

> <Gold.PLP.ligand.torsion>
1.3129

> <Gold.PLP.Chemscore.Hbond>
3.8121

> <Gold.PLP.Chemscore.CHOScore>
1.0000

> <Gold.PLP.Chemscore.Metal>
0.0000

> <Gold.Chemscore.Hbonds>
donor molecule, donor type, donor heavy atom, donor atom, acceptor molecule, acceptor atom, score
      L1  H     6    44       P1  7948  2.00
      L1  H     9    34       P1  7948  0.05
      P1  H  7989  7998       L1    18  0.78
      P1  H 10752 10765       L1    11  1.00
      L1  C    17    41       P1  8028  0.59

> <Gold.PLP.Chemscore.Internal.Correction>
0.1111

> <Gold.Rescore>
     Score         DG    S(hbond)    S(metal)    S(lipo)     H(rot)  DE(clash)    DE(int)     intcor
     15.66     -17.32       2.38        0.00      71.78       1.76       0.46       1.20       ----

> <Gold.Chemscore.Fitness>
15.6585

> <Gold.Chemscore.DG>
-17.3181

> <Gold.Chemscore.ZeroCoef>
-5.4800

> <Gold.Chemscore.Hbond>
2.3765

> <Gold.Chemscore.Metal>
0.0000

> <Gold.Chemscore.Lipo>
71.7835

> <Gold.Chemscore.Internal_Hbond>
0.0000

> <Gold.Chemscore.DEClash>
0.4612

> <Gold.Chemscore.DEInternal>
1.1984

> <Gold.Chemscore.Rot>
1.7570

> <Gold.Chemscore.Internal.Correction>
   9.000000E+99

> <Gold.Chemscore.Hbonds>
donor molecule, donor type, donor heavy atom, donor atom, acceptor molecule, acceptor atom, score
      L1  H     6    44       P1  7948  0.97
      L1  H     9    34       P1  7948  0.05
      P1  H  7989  7998       L1    18  0.15
      P1  H 10752 10765       L1    11  0.50

> <Gold.Chemscore.Hbond.Weighted>
-7.9373

> <Gold.Chemscore.Metal.Weighted>
-0.0000

> <Gold.Chemscore.Lipo.Weighted>
-8.3987

> <Gold.Chemscore.Internal_Hbond.Weighted>
0.0000

> <Gold.Chemscore.DEClash.Weighted>
0.4612

> <Gold.Chemscore.DEInternal.Weighted>
1.1984

> <Gold.Chemscore.Rot.Weighted>
4.4979

> <Gold.Chemscore.Internal.Correction.Weighted>
   9.000000E+99

> <Gold.Protein.RotatedTorsions>
[ 6907 6896 6895 6894 ] final   90.86 input  -60.11 | X-H torsion
[ 7974 7965 7964 7962 ] final   27.16 input  175.53 | X-H torsion
[ 8008 7997 7996 7995 ] final -105.49 input   59.86 | X-H torsion
[ 10167 10162 10161 10158 ] final   55.88 input  -65.29 | X-H torsion
[ 10718 10713 10712 10709 ] final   33.29 input   66.30 | X-H torsion
[ 10763 10752 10751 10750 ] final -162.24 input  -60.55 | X-H torsion
[ 11005 11000 10999 10996 ] final -172.81 input  -57.11 | X-H torsion

> <Gold.Protein.ActiveResidues>
 VAL166  LYS551  ARG553  GLY616  TRP617  ASP618  TYR619  PRO620  LYS621  CYS622 
 ASP623  PHE694  ASN695  SER759  ASP760  ASP761  ALA762  ILE779  LEU786  VAL792 
 PHE793  MET794  SER795  GLU796  ALA797  LYS798  CYS799  TRP800  GLU811  SER814 

> <Gold.Protein.RotatedAtoms>
  152.5447  134.1746  159.8610 H   0  0  0  0  0  0  0  0  0  0  0  0  # atno 6907 bound_to 6896
  151.1753  133.4751  159.2601 H   0  0  0  0  0  0  0  0  0  0  0  0  # atno 6908 bound_to 6896
  151.1233  135.0102  159.8604 H   0  0  0  0  0  0  0  0  0  0  0  0  # atno 6909 bound_to 6896
  146.1799  139.7229  142.8908 H   0  0  0  0  0  0  0  0  0  0  0  0  # atno 7974 bound_to 7965
  154.9006  140.0413  157.1891 H   0  0  0  0  0  0  0  0  0  0  0  0  # atno 8008 bound_to 7997
  154.8447  140.2920  155.5615 H   0  0  0  0  0  0  0  0  0  0  0  0  # atno 8009 bound_to 7997
  156.2993  140.2476  156.3396 H   0  0  0  0  0  0  0  0  0  0  0  0  # atno 8010 bound_to 7997
  140.2147  144.3852  150.6474 H   0  0  0  0  0  0  0  0  0  0  0  0  # atno 10167 bound_to 10162
  157.2960  130.7326  149.6638 H   0  0  0  0  0  0  0  0  0  0  0  0  # atno 10718 bound_to 10713
  154.7231  135.3030  154.9014 H   0  0  0  0  0  0  0  0  0  0  0  0  # atno 10763 bound_to 10752
  153.9880  135.6722  153.4757 H   0  0  0  0  0  0  0  0  0  0  0  0  # atno 10764 bound_to 10752
  153.0852  135.4988  154.8500 H   0  0  0  0  0  0  0  0  0  0  0  0  # atno 10765 bound_to 10752
  140.4928  134.5968  157.4960 H   0  0  0  0  0  0  0  0  0  0  0  0  # atno 11005 bound_to 11000
  145.4106  141.0396  143.3019 LP  0  0  0  0  0  0  0  0  0  0  0  0  # atno 17320 bound_to 7965
  144.8297  139.5649  143.6949 LP  0  0  0  0  0  0  0  0  0  0  0  0  # atno 17321 bound_to 7965
  140.6298  143.2186  151.6519 LP  0  0  0  0  0  0  0  0  0  0  0  0  # atno 17342 bound_to 10162
  139.5166  144.3340  152.0801 LP  0  0  0  0  0  0  0  0  0  0  0  0  # atno 17343 bound_to 10162
  155.9669  130.4294  150.4832 LP  0  0  0  0  0  0  0  0  0  0  0  0  # atno 17370 bound_to 10713
  157.2804  131.0605  151.2201 LP  0  0  0  0  0  0  0  0  0  0  0  0  # atno 17371 bound_to 10713
  139.9759  134.7216  155.9951 LP  0  0  0  0  0  0  0  0  0  0  0  0  # atno 17394 bound_to 11000
  141.1475  133.6553  156.3913 LP  0  0  0  0  0  0  0  0  0  0  0  0  # atno 17395 bound_to 11000

$$$$
