AV-unprocessed.smi:72|AV-procd|sdf|667|dock2
  -GOLD-   2262016573D 1   1.00000     0.00000
 Structure written by MMmdl.
 29 30  0  0  0  0  0  0  0  0  1 V2000
  149.3612  135.0978  158.1272 N   0  0  0  0  0  0  0  0  0  0  0  0
  149.3732  136.1082  157.3328 C   0  0  0  0  0  0  0  0  0  0  0  0
  148.4218  137.1381  157.3168 N   0  0  0  0  0  0  0  0  0  0  0  0
  148.5387  138.0796  156.4324 C   0  0  0  0  0  0  0  0  0  0  0  0
  149.5947  138.0811  155.4256 N   0  0  0  0  0  0  0  0  0  0  0  0
  149.7422  139.2171  154.4211 C   0  0  2  0  0  0  0  0  0  0  0  0
  150.6844  140.1437  154.8903 O   0  0  0  0  0  0  0  0  0  0  0  0
  150.0647  141.3354  155.3716 C   0  0  2  0  0  0  0  0  0  0  0  0
  149.7071  141.2055  156.8704 C   0  0  0  0  0  0  0  0  0  0  0  0
  148.9937  142.3474  157.2945 O   0  0  0  0  0  0  0  0  0  0  0  0
  148.8665  141.4539  154.4241 C   0  0  2  0  0  0  0  0  0  0  0  0
  147.8183  142.2469  154.9462 O   0  0  0  0  0  0  0  0  0  0  0  0
  148.4287  140.0101  154.2127 C   0  0  1  0  0  0  0  0  0  0  0  0
  147.9267  139.8630  152.8996 O   0  0  0  0  0  0  0  0  0  0  0  0
  150.6221  137.1049  155.5052 C   0  0  0  0  0  0  0  0  0  0  0  0
  151.6145  137.1235  154.7779 O   0  0  0  0  0  0  0  0  0  0  0  0
  150.4481  136.1423  156.4362 N   0  0  0  0  0  0  0  0  0  0  0  0
  150.1210  138.7337  153.5189 H   0  0  0  0  0  0  0  0  0  0  0  0
  150.7337  142.1859  155.2330 H   0  0  0  0  0  0  0  0  0  0  0  0
  149.2108  141.8876  153.4833 H   0  0  0  0  0  0  0  0  0  0  0  0
  147.6850  139.7198  154.9567 H   0  0  0  0  0  0  0  0  0  0  0  0
  148.5620  135.1387  158.7424 H   0  0  0  0  0  0  0  0  0  0  0  0
  147.8489  138.9228  156.3935 H   0  0  0  0  0  0  0  0  0  0  0  0
  149.0461  140.3545  157.0329 H   0  0  0  0  0  0  0  0  0  0  0  0
  150.5822  141.0438  157.4976 H   0  0  0  0  0  0  0  0  0  0  0  0
  149.1812  143.0573  156.6995 H   0  0  0  0  0  0  0  0  0  0  0  0
  148.1045  143.1476  154.9570 H   0  0  0  0  0  0  0  0  0  0  0  0
  148.6600  139.8287  152.3036 H   0  0  0  0  0  0  0  0  0  0  0  0
  151.1512  135.4205  156.4957 H   0  0  0  0  0  0  0  0  0  0  0  0
  1  2  2  0  0  0  0
  1 22  1  0  0  0  0
  2 17  1  0  0  0  0
  2  3  1  0  0  0  0
  3  4  2  0  0  0  0
  4  5  1  0  0  0  0
  4 23  1  0  0  0  0
  5  6  1  0  0  0  0
  5 15  1  0  0  0  0
  6 18  1  0  0  0  0
  6 13  1  0  0  0  0
  6  7  1  0  0  0  0
  7  8  1  0  0  0  0
  8 19  1  0  0  0  0
  8  9  1  0  0  0  0
  8 11  1  0  0  0  0
  9 10  1  0  0  0  0
  9 24  1  0  0  0  0
  9 25  1  0  0  0  0
 10 26  1  0  0  0  0
 11 20  1  0  0  0  0
 11 12  1  0  0  0  0
 11 13  1  0  0  0  0
 12 27  1  0  0  0  0
 13 21  1  0  0  0  0
 13 14  1  0  0  0  0
 14 28  1  0  0  0  0
 15 16  2  0  0  0  0
 15 17  1  0  0  0  0
 17 29  1  0  0  0  0
M  END
> <s_m_source_file>
AV-unprocessed.smi

> <i_m_source_file_index>
72

> <i_lp_mmshare_version>
43012

> <i_f3d_flags>
0

> <s_epik_input>
W05IMl1jMW5bY0hdbihjKD1PKW4xKVtDQEBIXTJPW0NASF0oW0NIMl1bT0hdKVtDQEBIXShbT0hdKVtDQEhdMltPSF0=

> <s_epik_cmdline>
J2VwaWtfcHl0aG9uJywgJy1waCcsICc3LjAnLCAnLXRuJywgJzgnLCAnLW1hJywgJzIwMCcsICctbWV0YWxfYmluZGluZycsICctaW1hZScsICc8aW5maWxlLm1hZT4nLCAnLW9tYWUnLCAnPG91dGZpbGUubWFlPic=

> <r_lp_tautomer_probability>
7.17554e-07

> <r_epik_Ionization_Penalty>
0.0066451

> <r_epik_Ionization_Penalty_Charging>
0.00663793

> <r_epik_Ionization_Penalty_Neutral>
7.17052e-06

> <r_epik_State_Penalty>
0.419231

> <r_epik_Charging_Adjusted_Penalty>
0.425868

> <i_epik_Tot_Q>
0

> <i_epik_Tot_abs_Q>
0

> <r_epik_Metal_State_Penalty>
1.44144

> <b_epik_Metal_Only>
0

> <s_epik_Chemistry_Notes>
This compound contains an acetal/aminal-like group ( X-CH(R)-Y where X, Y are N, S, or O) that may be acid/base labile, releasing an aldehyde.

> <s_lp_Force_Field>
OPLS_2005

> <r_lp_Energy>
41.47

> <b_lp_Chiralities_Consistent>
1

> <s_lp_Variant>
AV-unprocessed.smi:72-5

> <Gold.Version>
5.8.1

> <Gold.Id.Protein>
6NUR|6NUR_protein|mol2

> <Gold.PLP.Fitness>
39.3527

> <Gold.PLP.PLP>
-22.5903

> <Gold.PLP.part.hbond>
-5.7076

> <Gold.PLP.part.metal>
0.0000

> <Gold.PLP.part.buried>
-4.6727

> <Gold.PLP.part.nonpolar>
-12.6625

> <Gold.PLP.part.repulsive>
0.2678

> <Gold.PLP.ligand.clash>
0.0000

> <Gold.PLP.ligand.torsion>
0.5050

> <Gold.PLP.Chemscore.Hbond>
5.8913

> <Gold.PLP.Chemscore.CHOScore>
0.0000

> <Gold.PLP.Chemscore.Metal>
0.0000

> <Gold.Chemscore.Hbonds>
donor molecule, donor type, donor heavy atom, donor atom, acceptor molecule, acceptor atom, score
      L1  H    10    26       P1  8028  1.00
      L1  H    12    27       P1  8028  1.00
      L1  H    14    28       P1  7957  0.91
      P1  H  6896  6908       L1     1  0.85
      P1  H  7989  7998       L1     7  0.90
      P1  H 10752 10763       L1    16  1.00

> <Gold.PLP.Chemscore.Internal.Correction>
0.0986

> <Gold.Rescore>
     Score         DG    S(hbond)    S(metal)    S(lipo)     H(rot)  DE(clash)    DE(int)     intcor
     13.57     -14.09       4.78        0.00      26.08       4.06       0.05       0.47       ----

> <Gold.Chemscore.Fitness>
13.5740

> <Gold.Chemscore.DG>
-14.0932

> <Gold.Chemscore.ZeroCoef>
-5.4800

> <Gold.Chemscore.Hbond>
4.7771

> <Gold.Chemscore.Metal>
0.0000

> <Gold.Chemscore.Lipo>
26.0805

> <Gold.Chemscore.Internal_Hbond>
0.0000

> <Gold.Chemscore.DEClash>
0.0476

> <Gold.Chemscore.DEInternal>
0.4717

> <Gold.Chemscore.Rot>
4.0600

> <Gold.Chemscore.Internal.Correction>
   9.000000E+99

> <Gold.Chemscore.Hbonds>
donor molecule, donor type, donor heavy atom, donor atom, acceptor molecule, acceptor atom, score
      L1  H    10    26       P1  8028  0.96
      L1  H    12    27       P1  8028  0.94
      L1  H    14    28       P1  7957  0.87
      P1  H  6896  6908       L1     1  0.14
      P1  H  7989  7998       L1     7  0.14
      P1  H 10752 10763       L1    16  0.92

> <Gold.Chemscore.Hbond.Weighted>
-15.9554

> <Gold.Chemscore.Metal.Weighted>
-0.0000

> <Gold.Chemscore.Lipo.Weighted>
-3.0514

> <Gold.Chemscore.Internal_Hbond.Weighted>
0.0000

> <Gold.Chemscore.DEClash.Weighted>
0.0476

> <Gold.Chemscore.DEInternal.Weighted>
0.4717

> <Gold.Chemscore.Rot.Weighted>
10.3936

> <Gold.Chemscore.Internal.Correction.Weighted>
   9.000000E+99

> <Gold.Protein.RotatedTorsions>
[ 6907 6896 6895 6894 ] final  161.84 input  -60.11 | X-H torsion
[ 7974 7965 7964 7962 ] final -136.21 input  175.53 | X-H torsion
[ 8008 7997 7996 7995 ] final   61.09 input   59.86 | X-H torsion
[ 10167 10162 10161 10158 ] final -148.95 input  -65.29 | X-H torsion
[ 10718 10713 10712 10709 ] final   -1.77 input   66.30 | X-H torsion
[ 10763 10752 10751 10750 ] final   57.35 input  -60.55 | X-H torsion
[ 11005 11000 10999 10996 ] final  -57.52 input  -57.11 | X-H torsion

> <Gold.Protein.ActiveResidues>
 VAL166  LYS551  ARG553  GLY616  TRP617  ASP618  TYR619  PRO620  LYS621  CYS622 
 ASP623  PHE694  ASN695  SER759  ASP760  ASP761  ALA762  ILE779  LEU786  VAL792 
 PHE793  MET794  SER795  GLU796  ALA797  LYS798  CYS799  TRP800  GLU811  SER814 

> <Gold.Protein.RotatedAtoms>
  151.9494  133.3661  159.3994 H   0  0  0  0  0  0  0  0  0  0  0  0  # atno 6907 bound_to 6896
  150.6983  134.4356  159.5277 H   0  0  0  0  0  0  0  0  0  0  0  0  # atno 6908 bound_to 6896
  152.2026  134.8574  160.0557 H   0  0  0  0  0  0  0  0  0  0  0  0  # atno 6909 bound_to 6896
  144.8946  140.6689  143.5123 H   0  0  0  0  0  0  0  0  0  0  0  0  # atno 7974 bound_to 7965
  155.5929  140.3493  155.4571 H   0  0  0  0  0  0  0  0  0  0  0  0  # atno 8008 bound_to 7997
  156.0288  140.1270  157.0305 H   0  0  0  0  0  0  0  0  0  0  0  0  # atno 8009 bound_to 7997
  154.4344  140.1047  156.6055 H   0  0  0  0  0  0  0  0  0  0  0  0  # atno 8010 bound_to 7997
  139.7485  143.8553  152.2581 H   0  0  0  0  0  0  0  0  0  0  0  0  # atno 10167 bound_to 10162
  156.8007  130.5392  149.5722 H   0  0  0  0  0  0  0  0  0  0  0  0  # atno 10718 bound_to 10713
  152.9848  135.5644  154.5376 H   0  0  0  0  0  0  0  0  0  0  0  0  # atno 10763 bound_to 10752
  154.4837  135.2789  155.1553 H   0  0  0  0  0  0  0  0  0  0  0  0  # atno 10764 bound_to 10752
  154.3051  135.6299  153.5494 H   0  0  0  0  0  0  0  0  0  0  0  0  # atno 10765 bound_to 10752
  141.1168  133.6610  156.4782 H   0  0  0  0  0  0  0  0  0  0  0  0  # atno 11005 bound_to 11000
  145.3722  139.1656  143.4326 LP  0  0  0  0  0  0  0  0  0  0  0  0  # atno 17320 bound_to 7965
  146.3074  140.3795  142.8682 LP  0  0  0  0  0  0  0  0  0  0  0  0  # atno 17321 bound_to 7965
  139.8525  144.7157  150.9197 LP  0  0  0  0  0  0  0  0  0  0  0  0  # atno 17342 bound_to 10162
  140.7795  143.3887  151.1348 LP  0  0  0  0  0  0  0  0  0  0  0  0  # atno 17343 bound_to 10162
  156.1103  130.6035  151.0036 LP  0  0  0  0  0  0  0  0  0  0  0  0  # atno 17370 bound_to 10713
  157.6555  131.0890  150.7956 LP  0  0  0  0  0  0  0  0  0  0  0  0  # atno 17371 bound_to 10713
  140.4622  134.6830  157.5091 LP  0  0  0  0  0  0  0  0  0  0  0  0  # atno 17394 bound_to 11000
  140.0096  134.6711  155.9401 LP  0  0  0  0  0  0  0  0  0  0  0  0  # atno 17395 bound_to 11000

$$$$
