AV-unprocessed.smi:3134|AV-procd|sdf|11941|dock5
  -GOLD-   2272017333D 1   1.00000     0.00000
 Structure written by MMmdl.
 37 37  0  0  0  0  0  0  0  0  2 V2000
  143.7017  135.5326  152.5267 C   0  0  0  0  0  0  0  0  0  0  0  0
  143.5808  136.8135  153.3672 C   0  0  0  0  0  0  0  0  0  0  0  0
  142.1809  137.4326  153.2580 C   0  0  0  0  0  0  0  0  0  0  0  0
  144.5789  137.7941  152.9498 N   0  0  0  0  0  0  0  0  0  0  0  0
  145.9089  137.6433  153.0536 C   0  0  0  0  0  0  0  0  0  0  0  0
  146.4420  136.6338  153.5155 O   0  0  0  0  0  0  0  0  0  0  0  0
  146.7689  138.8080  152.5429 C   0  0  2  0  0  0  0  0  0  0  0  0
  146.5045  139.0388  151.0471 C   0  0  0  0  0  0  0  0  0  0  0  0
  148.2134  138.5664  152.7640 N   0  3  0  0  0  0  0  0  0  0  0  0
  148.6725  138.7445  154.1579 C   0  0  0  0  0  0  0  0  0  0  0  0
  150.2007  138.8766  154.2204 C   0  0  0  0  0  0  0  0  0  0  0  0
  150.6144  139.8581  155.2043 N   0  0  0  0  0  0  0  0  0  0  0  0
  151.5089  139.7088  156.2434 C   0  0  0  0  0  0  0  0  0  0  0  0
  151.5764  140.9064  156.8957 C   0  0  0  0  0  0  0  0  0  0  0  0
  150.6780  141.7381  156.1704 C   0  0  0  0  0  0  0  0  0  0  0  0
  150.1048  141.1079  155.1575 N   0  0  0  0  0  0  0  0  0  0  0  0
  142.9650  134.7911  152.8368 H   0  0  0  0  0  0  0  0  0  0  0  0
  144.6871  135.0782  152.6347 H   0  0  0  0  0  0  0  0  0  0  0  0
  143.5429  135.7356  151.4671 H   0  0  0  0  0  0  0  0  0  0  0  0
  143.7491  136.5579  154.4150 H   0  0  0  0  0  0  0  0  0  0  0  0
  141.4159  136.7314  153.5930 H   0  0  0  0  0  0  0  0  0  0  0  0
  141.9479  137.7125  152.2301 H   0  0  0  0  0  0  0  0  0  0  0  0
  142.0970  138.3280  153.8747 H   0  0  0  0  0  0  0  0  0  0  0  0
  144.2284  138.6530  152.5504 H   0  0  0  0  0  0  0  0  0  0  0  0
  146.4898  139.7168  153.0793 H   0  0  0  0  0  0  0  0  0  0  0  0
  145.4500  139.2437  150.8566 H   0  0  0  0  0  0  0  0  0  0  0  0
  146.7870  138.1699  150.4509 H   0  0  0  0  0  0  0  0  0  0  0  0
  147.0726  139.8927  150.6770 H   0  0  0  0  0  0  0  0  0  0  0  0
  148.4295  137.6268  152.4621 H   0  0  0  0  0  0  0  0  0  0  0  0
  148.2019  139.6354  154.5761 H   0  0  0  0  0  0  0  0  0  0  0  0
  148.3523  137.8964  154.7643 H   0  0  0  0  0  0  0  0  0  0  0  0
  150.6546  137.9178  154.4749 H   0  0  0  0  0  0  0  0  0  0  0  0
  150.6013  139.1701  153.2489 H   0  0  0  0  0  0  0  0  0  0  0  0
  152.0168  138.7742  156.4313 H   0  0  0  0  0  0  0  0  0  0  0  0
  152.1771  141.1519  157.7590 H   0  0  0  0  0  0  0  0  0  0  0  0
  150.4276  142.7736  156.3482 H   0  0  0  0  0  0  0  0  0  0  0  0
  148.7288  139.2170  152.1888 H   0  0  0  0  0  0  0  0  0  0  0  0
  1  2  1  0  0  0  0
  1 17  1  0  0  0  0
  1 18  1  0  0  0  0
  1 19  1  0  0  0  0
  2  3  1  0  0  0  0
  2  4  1  0  0  0  0
  2 20  1  0  0  0  0
  3 21  1  0  0  0  0
  3 22  1  0  0  0  0
  3 23  1  0  0  0  0
  4  5  1  0  0  0  0
  4 24  1  0  0  0  0
  5  6  2  0  0  0  0
  5  7  1  0  0  0  0
  7  8  1  0  0  0  0
  7  9  1  0  0  0  0
  7 25  1  0  0  0  0
  8 26  1  0  0  0  0
  8 27  1  0  0  0  0
  8 28  1  0  0  0  0
  9 10  1  0  0  0  0
  9 29  1  0  0  0  0
  9 37  1  0  0  0  0
 10 11  1  0  0  0  0
 10 30  1  0  0  0  0
 10 31  1  0  0  0  0
 11 12  1  0  0  0  0
 11 32  1  0  0  0  0
 11 33  1  0  0  0  0
 12 16  1  0  0  0  0
 12 13  1  0  0  0  0
 13 14  2  0  0  0  0
 13 34  1  0  0  0  0
 14 15  1  0  0  0  0
 14 35  1  0  0  0  0
 15 16  2  0  0  0  0
 15 36  1  0  0  0  0
M  CHG  1   9   1
M  END
> <s_m_source_file>
AV-unprocessed.smi

> <i_m_source_file_index>
3134

> <i_lp_mmshare_version>
43012

> <i_f3d_flags>
0

> <s_epik_input>
W0NIM11bQ0hdKFtDSDNdKVtOSF1DKD1PKVtDQEhdKFtDSDNdKVtOSF1bQ0gyXVtDSDJdbjFbY0hdW2NIXVtjSF1uMQ==

> <s_epik_cmdline>
J2VwaWtfcHl0aG9uJywgJy1waCcsICc3LjAnLCAnLXRuJywgJzgnLCAnLW1hJywgJzIwMCcsICctbWV0YWxfYmluZGluZycsICctaW1hZScsICc8aW5maWxlLm1hZT4nLCAnLW9tYWUnLCAnPG91dGZpbGUubWFlPic=

> <r_lp_tautomer_probability>
1

> <r_epik_Ionization_Penalty>
0.20398

> <r_epik_Ionization_Penalty_Charging>
0.203977

> <r_epik_Ionization_Penalty_Neutral>
3.23345e-06

> <r_epik_State_Penalty>
0.193898

> <r_epik_Charging_Adjusted_Penalty>
0.397875

> <i_epik_Tot_Q>
1

> <i_epik_Tot_abs_Q>
1

> <r_epik_Metal_State_Penalty>
0.194184

> <b_epik_Metal_Only>
0

> <s_lp_Force_Field>
OPLS_2005

> <r_lp_Energy>
4.26542

> <b_lp_Chiralities_Consistent>
1

> <s_lp_Variant>
AV-unprocessed.smi:3134-1

> <Gold.Version>
5.8.1

> <Gold.Id.Protein>
6NUR|6NUR_protein|mol2

> <Gold.PLP.Fitness>
44.7731

> <Gold.PLP.PLP>
-30.8274

> <Gold.PLP.part.hbond>
-4.0168

> <Gold.PLP.part.metal>
0.0000

> <Gold.PLP.part.buried>
-0.3743

> <Gold.PLP.part.nonpolar>
-26.4703

> <Gold.PLP.part.repulsive>
0.7476

> <Gold.PLP.ligand.clash>
0.0000

> <Gold.PLP.ligand.torsion>
0.5639

> <Gold.PLP.Chemscore.Hbond>
4.0000

> <Gold.PLP.Chemscore.CHOScore>
1.0000

> <Gold.PLP.Chemscore.Metal>
0.0000

> <Gold.Chemscore.Hbonds>
donor molecule, donor type, donor heavy atom, donor atom, acceptor molecule, acceptor atom, score
      L1  H     4    24       P1 10175  1.00
      L1  H     9    29       P1  7948  2.00
      L1  H     9    37       P1  7957  1.00
      L1  C    15    36       P1  8028  0.89

> <Gold.PLP.Chemscore.Internal.Correction>
0.0734

> <Gold.Rescore>
     Score         DG    S(hbond)    S(metal)    S(lipo)     H(rot)  DE(clash)    DE(int)     intcor
     16.45     -17.11       3.00        0.00      60.60       2.13       0.08       0.59       ----

> <Gold.Chemscore.Fitness>
16.4474

> <Gold.Chemscore.DG>
-17.1124

> <Gold.Chemscore.ZeroCoef>
-5.4800

> <Gold.Chemscore.Hbond>
2.9951

> <Gold.Chemscore.Metal>
0.0000

> <Gold.Chemscore.Lipo>
60.6005

> <Gold.Chemscore.Internal_Hbond>
0.0000

> <Gold.Chemscore.DEClash>
0.0789

> <Gold.Chemscore.DEInternal>
0.5861

> <Gold.Chemscore.Rot>
2.1334

> <Gold.Chemscore.Internal.Correction>
   9.000000E+99

> <Gold.Chemscore.Hbonds>
donor molecule, donor type, donor heavy atom, donor atom, acceptor molecule, acceptor atom, score
      L1  H     4    24       P1 10175  1.00
      L1  H     9    29       P1  7948  0.98
      L1  H     9    37       P1  7957  0.97

> <Gold.Chemscore.Hbond.Weighted>
-10.0037

> <Gold.Chemscore.Metal.Weighted>
-0.0000

> <Gold.Chemscore.Lipo.Weighted>
-7.0903

> <Gold.Chemscore.Internal_Hbond.Weighted>
0.0000

> <Gold.Chemscore.DEClash.Weighted>
0.0789

> <Gold.Chemscore.DEInternal.Weighted>
0.5861

> <Gold.Chemscore.Rot.Weighted>
5.4615

> <Gold.Chemscore.Internal.Correction.Weighted>
   9.000000E+99

> <Gold.Protein.RotatedTorsions>
[ 6907 6896 6895 6894 ] final    4.33 input  -60.11 | X-H torsion
[ 7974 7965 7964 7962 ] final  -68.61 input  175.53 | X-H torsion
[ 8008 7997 7996 7995 ] final   81.17 input   59.86 | X-H torsion
[ 10167 10162 10161 10158 ] final   20.29 input  -65.29 | X-H torsion
[ 10718 10713 10712 10709 ] final   43.53 input   66.30 | X-H torsion
[ 10763 10752 10751 10750 ] final  147.97 input  -60.55 | X-H torsion
[ 11005 11000 10999 10996 ] final   54.92 input  -57.11 | X-H torsion

> <Gold.Protein.ActiveResidues>
 VAL166  LYS551  ARG553  GLY616  TRP617  ASP618  TYR619  PRO620  LYS621  CYS622 
 ASP623  PHE694  ASN695  SER759  ASP760  ASP761  ALA762  ILE779  LEU786  VAL792 
 PHE793  MET794  SER795  GLU796  ALA797  LYS798  CYS799  TRP800  GLU811  SER814 

> <Gold.Protein.RotatedAtoms>
  151.6396  135.1014  160.0138 H   0  0  0  0  0  0  0  0  0  0  0  0  # atno 6907 bound_to 6896
  152.4061  133.6887  159.6366 H   0  0  0  0  0  0  0  0  0  0  0  0  # atno 6908 bound_to 6896
  150.7956  133.8623  159.3276 H   0  0  0  0  0  0  0  0  0  0  0  0  # atno 6909 bound_to 6896
  145.7144  140.9065  143.0664 H   0  0  0  0  0  0  0  0  0  0  0  0  # atno 7974 bound_to 7965
  155.8935  140.3437  155.5973 H   0  0  0  0  0  0  0  0  0  0  0  0  # atno 8008 bound_to 7997
  155.7583  140.0829  157.2186 H   0  0  0  0  0  0  0  0  0  0  0  0  # atno 8009 bound_to 7997
  154.4036  140.1540  156.2791 H   0  0  0  0  0  0  0  0  0  0  0  0  # atno 8010 bound_to 7997
  140.5515  143.9501  150.6581 H   0  0  0  0  0  0  0  0  0  0  0  0  # atno 10167 bound_to 10162
  157.4169  130.7947  149.7480 H   0  0  0  0  0  0  0  0  0  0  0  0  # atno 10718 bound_to 10713
  154.0470  135.2885  155.3346 H   0  0  0  0  0  0  0  0  0  0  0  0  # atno 10763 bound_to 10752
  154.6893  135.5233  153.8373 H   0  0  0  0  0  0  0  0  0  0  0  0  # atno 10764 bound_to 10752
  153.0576  135.6601  154.0669 H   0  0  0  0  0  0  0  0  0  0  0  0  # atno 10765 bound_to 10752
  140.0648  134.5552  155.9112 H   0  0  0  0  0  0  0  0  0  0  0  0  # atno 11005 bound_to 11000
  144.6933  139.9117  143.7464 LP  0  0  0  0  0  0  0  0  0  0  0  0  # atno 17320 bound_to 7965
  146.0683  139.3673  143.0538 LP  0  0  0  0  0  0  0  0  0  0  0  0  # atno 17321 bound_to 7965
  140.2928  143.3313  152.1046 LP  0  0  0  0  0  0  0  0  0  0  0  0  # atno 17342 bound_to 10162
  139.5029  144.6745  151.6163 LP  0  0  0  0  0  0  0  0  0  0  0  0  # atno 17343 bound_to 10162
  155.9868  130.3972  150.3195 LP  0  0  0  0  0  0  0  0  0  0  0  0  # atno 17370 bound_to 10713
  157.1339  131.0279  151.2957 LP  0  0  0  0  0  0  0  0  0  0  0  0  # atno 17371 bound_to 10713
  141.1988  133.6603  156.5811 LP  0  0  0  0  0  0  0  0  0  0  0  0  # atno 17394 bound_to 11000
  140.3716  134.7601  157.4602 LP  0  0  0  0  0  0  0  0  0  0  0  0  # atno 17395 bound_to 11000

$$$$
