AV-unprocessed.smi:80|AV-procd|sdf|785|dock7
  -GOLD-   2262017153D 1   1.00000     0.00000
 Structure written by MMmdl.
 51 54  0  0  0  0  0  0  0  0  1 V2000
  152.7751  139.7052  156.2677 N   0  0  0  0  0  0  0  0  0  0  0  0
  151.9280  139.9561  157.0153 C   0  0  0  0  0  0  0  0  0  0  0  0
  150.8523  140.2742  157.9691 C   0  0  0  0  0  0  0  0  0  0  0  0
  149.7598  141.1785  157.3834 C   0  0  0  0  0  0  0  0  0  0  0  0
  150.0120  142.3681  157.1880 O   0  0  0  0  0  0  0  0  0  0  0  0
  148.5509  140.6373  157.1043 N   0  0  0  0  0  0  0  0  0  0  0  0
  147.4256  141.3512  156.4882 C   0  0  0  0  0  0  0  0  0  0  0  0
  147.2002  140.7878  155.0735 C   0  0  0  0  0  0  0  0  0  0  0  0
  147.0165  139.3382  155.1228 N   0  0  0  0  0  0  0  0  0  0  0  0
  146.6981  138.7937  153.9307 C   0  0  0  0  0  0  0  0  0  0  0  0
  146.9350  139.5413  152.8257 N   0  0  0  0  0  0  0  0  0  0  0  0
  146.6423  139.0535  151.6162 C   0  0  0  0  0  0  0  0  0  0  0  0
  146.1204  137.8666  151.2981 N   0  0  0  0  0  0  0  0  0  0  0  0
  145.8836  137.1118  152.4100 C   0  0  0  0  0  0  0  0  0  0  0  0
  146.1378  137.4973  153.7562 C   0  0  0  0  0  0  0  0  0  0  0  0
  145.7619  136.4778  154.6217 N   0  0  0  0  0  0  0  0  0  0  0  0
  145.3060  135.5440  153.8319 C   0  0  0  0  0  0  0  0  0  0  0  0
  145.3566  135.8334  152.4855 N   0  0  0  0  0  0  0  0  0  0  0  0
  144.9068  135.0044  151.4025 C   0  0  0  0  0  0  0  0  0  0  0  0
  144.2554  133.6496  151.6835 C   0  0  0  0  0  0  0  0  0  0  0  0
  144.9301  133.0514  150.4277 C   0  0  0  0  0  0  0  0  0  0  0  0
  145.5921  131.6843  150.6577 C   0  0  0  0  0  0  0  0  0  0  0  0
  146.5225  131.3818  149.6380 O   0  0  0  0  0  0  0  0  0  0  0  0
  144.0416  132.9203  149.1707 C   0  0  0  0  0  0  0  0  0  0  0  0
  142.9647  132.0209  149.3395 O   0  0  0  0  0  0  0  0  0  0  0  0
  145.8875  134.2636  150.4879 C   0  0  0  0  0  0  0  0  0  0  0  0
  148.0403  138.5948  155.8564 C   0  0  0  0  0  0  0  0  0  0  0  0
  148.2588  139.2061  157.2536 C   0  0  0  0  0  0  0  0  0  0  0  0
  150.4181  139.3295  158.2975 H   0  0  0  0  0  0  0  0  0  0  0  0
  151.3161  140.7572  158.8296 H   0  0  0  0  0  0  0  0  0  0  0  0
  146.5326  141.1976  157.0957 H   0  0  0  0  0  0  0  0  0  0  0  0
  147.5639  142.4298  156.4387 H   0  0  0  0  0  0  0  0  0  0  0  0
  146.3226  141.2533  154.6232 H   0  0  0  0  0  0  0  0  0  0  0  0
  148.0540  141.0318  154.4401 H   0  0  0  0  0  0  0  0  0  0  0  0
  146.8584  139.7069  150.7837 H   0  0  0  0  0  0  0  0  0  0  0  0
  144.9164  134.6137  154.2183 H   0  0  0  0  0  0  0  0  0  0  0  0
  144.2439  135.6233  150.7967 H   0  0  0  0  0  0  0  0  0  0  0  0
  144.6129  133.2053  152.6138 H   0  0  0  0  0  0  0  0  0  0  0  0
  143.1653  133.6644  151.6573 H   0  0  0  0  0  0  0  0  0  0  0  0
  146.1258  131.6658  151.6085 H   0  0  0  0  0  0  0  0  0  0  0  0
  144.8486  130.8881  150.7064 H   0  0  0  0  0  0  0  0  0  0  0  0
  147.3821  131.3177  150.0252 H   0  0  0  0  0  0  0  0  0  0  0  0
  143.6171  133.8846  148.8905 H   0  0  0  0  0  0  0  0  0  0  0  0
  144.6278  132.5783  148.3172 H   0  0  0  0  0  0  0  0  0  0  0  0
  142.1559  132.5071  149.2895 H   0  0  0  0  0  0  0  0  0  0  0  0
  146.0601  134.7534  149.5289 H   0  0  0  0  0  0  0  0  0  0  0  0
  146.8342  134.0247  150.9733 H   0  0  0  0  0  0  0  0  0  0  0  0
  147.7389  137.5509  155.9507 H   0  0  0  0  0  0  0  0  0  0  0  0
  148.9776  138.6081  155.2988 H   0  0  0  0  0  0  0  0  0  0  0  0
  149.0471  138.6628  157.7761 H   0  0  0  0  0  0  0  0  0  0  0  0
  147.3597  139.0858  157.8597 H   0  0  0  0  0  0  0  0  0  0  0  0
  1  2  3  0  0  0  0
  2  3  1  0  0  0  0
  3  4  1  0  0  0  0
  3 29  1  0  0  0  0
  3 30  1  0  0  0  0
  4  5  2  0  0  0  0
  4  6  1  0  0  0  0
  6 28  1  0  0  0  0
  6  7  1  0  0  0  0
  7  8  1  0  0  0  0
  7 31  1  0  0  0  0
  7 32  1  0  0  0  0
  8  9  1  0  0  0  0
  8 33  1  0  0  0  0
  8 34  1  0  0  0  0
  9 10  1  0  0  0  0
  9 27  1  0  0  0  0
 10 15  1  0  0  0  0
 10 11  2  0  0  0  0
 11 12  1  0  0  0  0
 12 13  2  0  0  0  0
 12 35  1  0  0  0  0
 13 14  1  0  0  0  0
 14 18  1  0  0  0  0
 14 15  2  0  0  0  0
 15 16  1  0  0  0  0
 16 17  2  0  0  0  0
 17 18  1  0  0  0  0
 17 36  1  0  0  0  0
 18 19  1  0  0  0  0
 19 26  1  0  0  0  0
 19 20  1  0  0  0  0
 19 37  1  0  0  0  0
 20 21  1  0  0  0  0
 20 38  1  0  0  0  0
 20 39  1  0  0  0  0
 21 22  1  0  0  0  0
 21 24  1  0  0  0  0
 21 26  1  0  0  0  0
 22 23  1  0  0  0  0
 22 40  1  0  0  0  0
 22 41  1  0  0  0  0
 23 42  1  0  0  0  0
 24 25  1  0  0  0  0
 24 43  1  0  0  0  0
 24 44  1  0  0  0  0
 25 45  1  0  0  0  0
 26 46  1  0  0  0  0
 26 47  1  0  0  0  0
 27 28  1  0  0  0  0
 27 48  1  0  0  0  0
 27 49  1  0  0  0  0
 28 50  1  0  0  0  0
 28 51  1  0  0  0  0
M  END
> <s_m_source_file>
AV-unprocessed.smi

> <i_m_source_file_index>
80

> <i_lp_mmshare_version>
43012

> <i_f3d_flags>
0

> <s_epik_input>
TiNDW0NIMl1DKD1PKU4xW0NIMl1bQ0gyXU4oW0NIMl1bQ0gyXTEpYyhuW2NIXW4yKWMoYzIzKW5bY0hdbjNbQ0hdKFtDSDJdNClbQ0gyXUM0KFtDSDJdW09IXSlbQ0gyXVtPSF0=

> <s_epik_cmdline>
J2VwaWtfcHl0aG9uJywgJy1waCcsICc3LjAnLCAnLXRuJywgJzgnLCAnLW1hJywgJzIwMCcsICctbWV0YWxfYmluZGluZycsICctaW1hZScsICc8aW5maWxlLm1hZT4nLCAnLW9tYWUnLCAnPG91dGZpbGUubWFlPic=

> <r_lp_tautomer_probability>
1

> <r_epik_Ionization_Penalty>
0.000827394

> <r_epik_Ionization_Penalty_Charging>
0

> <r_epik_Ionization_Penalty_Neutral>
0.000827394

> <r_epik_State_Penalty>
0.000406949

> <r_epik_Charging_Adjusted_Penalty>
0.000406949

> <i_epik_Tot_Q>
0

> <i_epik_Tot_abs_Q>
0

> <r_epik_Metal_State_Penalty>
-0

> <b_epik_Metal_Only>
0

> <s_lp_Force_Field>
OPLS_2005

> <r_lp_Energy>
60.4217

> <b_lp_Chiralities_Consistent>
1

> <s_lp_Variant>
AV-unprocessed.smi:80-1

> <Gold.Version>
5.8.1

> <Gold.Id.Protein>
6NUR|6NUR_protein|mol2

> <Gold.PLP.Fitness>
47.4921

> <Gold.PLP.PLP>
-35.8628

> <Gold.PLP.part.hbond>
-4.8571

> <Gold.PLP.part.metal>
0.0000

> <Gold.PLP.part.buried>
-6.9243

> <Gold.PLP.part.nonpolar>
-26.7925

> <Gold.PLP.part.repulsive>
2.5853

> <Gold.PLP.ligand.clash>
0.0000

> <Gold.PLP.ligand.torsion>
0.7556

> <Gold.PLP.Chemscore.Hbond>
3.6495

> <Gold.PLP.Chemscore.CHOScore>
0.5162

> <Gold.PLP.Chemscore.Metal>
0.0000

> <Gold.Chemscore.Hbonds>
donor molecule, donor type, donor heavy atom, donor atom, acceptor molecule, acceptor atom, score
      L1  H    23    42       P1 10747  1.00
      L1  H    25    45       P1 10186  0.49
      P1  H  7997  8008       L1     1  1.00
      P1  H 10785 10796       L1    25  1.00
      L1  C    12    35       P1  7957  0.20

> <Gold.PLP.Chemscore.Internal.Correction>
0.6432

> <Gold.Rescore>
     Score         DG    S(hbond)    S(metal)    S(lipo)     H(rot)  DE(clash)    DE(int)     intcor
     11.82     -12.96       3.28        0.00      53.95       3.82       0.16       0.98       ----

> <Gold.Chemscore.Fitness>
11.8179

> <Gold.Chemscore.DG>
-12.9629

> <Gold.Chemscore.ZeroCoef>
-5.4800

> <Gold.Chemscore.Hbond>
3.2757

> <Gold.Chemscore.Metal>
0.0000

> <Gold.Chemscore.Lipo>
53.9481

> <Gold.Chemscore.Internal_Hbond>
0.0000

> <Gold.Chemscore.DEClash>
0.1637

> <Gold.Chemscore.DEInternal>
0.9813

> <Gold.Chemscore.Rot>
3.8164

> <Gold.Chemscore.Internal.Correction>
   9.000000E+99

> <Gold.Chemscore.Hbonds>
donor molecule, donor type, donor heavy atom, donor atom, acceptor molecule, acceptor atom, score
      L1  H    23    42       P1 10747  0.99
      L1  H    25    45       P1 10186  0.48
      P1  H  7997  8008       L1     1  0.99
      P1  H 10785 10796       L1    25  0.94

> <Gold.Chemscore.Hbond.Weighted>
-10.9409

> <Gold.Chemscore.Metal.Weighted>
-0.0000

> <Gold.Chemscore.Lipo.Weighted>
-6.3119

> <Gold.Chemscore.Internal_Hbond.Weighted>
0.0000

> <Gold.Chemscore.DEClash.Weighted>
0.1637

> <Gold.Chemscore.DEInternal.Weighted>
0.9813

> <Gold.Chemscore.Rot.Weighted>
9.7699

> <Gold.Chemscore.Internal.Correction.Weighted>
   9.000000E+99

> <Gold.Protein.RotatedTorsions>
[ 6907 6896 6895 6894 ] final  -68.36 input  -60.11 | X-H torsion
[ 7974 7965 7964 7962 ] final -127.85 input  175.53 | X-H torsion
[ 8008 7997 7996 7995 ] final  -37.22 input   59.86 | X-H torsion
[ 10167 10162 10161 10158 ] final  168.68 input  -65.29 | X-H torsion
[ 10718 10713 10712 10709 ] final  -54.08 input   66.30 | X-H torsion
[ 10763 10752 10751 10750 ] final  169.29 input  -60.55 | X-H torsion
[ 11005 11000 10999 10996 ] final  -12.71 input  -57.11 | X-H torsion

> <Gold.Protein.ActiveResidues>
 VAL166  LYS551  ARG553  GLY616  TRP617  ASP618  TYR619  PRO620  LYS621  CYS622 
 ASP623  PHE694  ASN695  SER759  ASP760  ASP761  ALA762  ILE779  LEU786  VAL792 
 PHE793  MET794  SER795  GLU796  ALA797  LYS798  CYS799  TRP800  GLU811  SER814 

> <Gold.Protein.RotatedAtoms>
  150.7360  134.5751  159.5909 H   0  0  0  0  0  0  0  0  0  0  0  0  # atno 6907 bound_to 6896
  152.3179  134.7413  160.0330 H   0  0  0  0  0  0  0  0  0  0  0  0  # atno 6908 bound_to 6896
  151.7939  133.3326  159.3544 H   0  0  0  0  0  0  0  0  0  0  0  0  # atno 6909 bound_to 6896
  144.9729  140.7563  143.4659 H   0  0  0  0  0  0  0  0  0  0  0  0  # atno 7974 bound_to 7965
  154.4057  140.1610  156.2502 H   0  0  0  0  0  0  0  0  0  0  0  0  # atno 8008 bound_to 7997
  155.9125  140.3426  155.6087 H   0  0  0  0  0  0  0  0  0  0  0  0  # atno 8009 bound_to 7997
  155.7318  140.0781  157.2276 H   0  0  0  0  0  0  0  0  0  0  0  0  # atno 8010 bound_to 7997
  139.4973  144.3789  151.9644 H   0  0  0  0  0  0  0  0  0  0  0  0  # atno 10167 bound_to 10162
  156.1481  130.4152  149.9990 H   0  0  0  0  0  0  0  0  0  0  0  0  # atno 10718 bound_to 10713
  154.3810  135.2753  155.2211 H   0  0  0  0  0  0  0  0  0  0  0  0  # atno 10763 bound_to 10752
  154.4318  135.5975  153.6077 H   0  0  0  0  0  0  0  0  0  0  0  0  # atno 10764 bound_to 10752
  152.9834  135.5997  154.4053 H   0  0  0  0  0  0  0  0  0  0  0  0  # atno 10765 bound_to 10752
  140.7686  133.8457  155.9187 H   0  0  0  0  0  0  0  0  0  0  0  0  # atno 11005 bound_to 11000
  145.2533  139.2022  143.4931 LP  0  0  0  0  0  0  0  0  0  0  0  0  # atno 17320 bound_to 7965
  146.3387  140.2450  142.8597 LP  0  0  0  0  0  0  0  0  0  0  0  0  # atno 17321 bound_to 7965
  140.3225  144.3411  150.6006 LP  0  0  0  0  0  0  0  0  0  0  0  0  # atno 17342 bound_to 10162
  140.5711  143.2181  151.7597 LP  0  0  0  0  0  0  0  0  0  0  0  0  # atno 17343 bound_to 10162
  156.7856  130.9237  151.3646 LP  0  0  0  0  0  0  0  0  0  0  0  0  # atno 17370 bound_to 10713
  157.6634  130.8986  149.9878 LP  0  0  0  0  0  0  0  0  0  0  0  0  # atno 17371 bound_to 10713
  140.9595  134.1674  157.4665 LP  0  0  0  0  0  0  0  0  0  0  0  0  # atno 17394 bound_to 11000
  139.8759  134.9939  156.5669 LP  0  0  0  0  0  0  0  0  0  0  0  0  # atno 17395 bound_to 11000

$$$$
