AV-unprocessed.smi:1565|AV-procd|sdf|6301|dock3
  -GOLD-   22720 6503D 1   1.00000     0.00000
 Structure written by MMmdl.
 39 40  0  0  0  0  0  0  0  0  2 V2000
  151.3405  145.0868  158.9074 C   0  0  0  0  0  0  0  0  0  0  0  0
  152.1951  143.8234  159.0531 C   0  0  2  0  0  0  0  0  0  0  0  0
  151.5429  142.6039  158.3750 C   0  0  0  0  0  0  0  0  0  0  0  0
  152.3228  141.3971  158.6348 N   0  0  0  0  0  0  0  0  0  0  0  0
  151.9775  140.2760  157.8497 C   0  0  0  0  0  0  0  0  0  0  0  0
  150.8560  139.4867  158.1959 C   0  0  0  0  0  0  0  0  0  0  0  0
  150.5357  138.3641  157.4086 C   0  0  0  0  0  0  0  0  0  0  0  0
  151.3361  138.0581  156.2846 C   0  0  0  0  0  0  0  0  0  0  0  0
  151.0791  136.8509  155.4233 C   0  0  0  0  0  0  0  0  0  0  0  0
  151.7600  136.7139  154.4009 O   0  0  0  0  0  0  0  0  0  0  0  0
  150.0584  136.0807  155.8961 N   0  5  0  0  0  0  0  0  0  0  0  0
  149.4963  134.9307  155.1835 C   0  0  0  0  0  0  0  0  0  0  0  0
  149.7037  133.6222  155.9731 C   0  0  0  0  0  0  0  0  0  0  0  0
  151.0052  133.4637  156.2141 F   0  0  0  0  0  0  0  0  0  0  0  0
  149.0622  133.6689  157.1417 F   0  0  0  0  0  0  0  0  0  0  0  0
  149.2748  132.5667  155.2795 F   0  0  0  0  0  0  0  0  0  0  0  0
  152.4351  138.9038  156.0215 C   0  0  0  0  0  0  0  0  0  0  0  0
  152.7459  139.9825  156.7723 N   0  0  0  0  0  0  0  0  0  0  0  0
  152.5907  141.1802  160.0548 C   0  0  0  0  0  0  0  0  0  0  0  0
  153.2155  142.4397  160.6830 C   0  0  2  0  0  0  0  0  0  0  0  0
  153.4029  142.2953  162.1968 C   0  0  0  0  0  0  0  0  0  0  0  0
  152.3615  143.5547  160.4425 O   0  0  0  0  0  0  0  0  0  0  0  0
  151.1927  145.3420  157.8575 H   0  0  0  0  0  0  0  0  0  0  0  0
  151.8185  145.9383  159.3923 H   0  0  0  0  0  0  0  0  0  0  0  0
  150.3580  144.9530  159.3611 H   0  0  0  0  0  0  0  0  0  0  0  0
  153.1726  144.0129  158.6055 H   0  0  0  0  0  0  0  0  0  0  0  0
  150.5328  142.4554  158.7592 H   0  0  0  0  0  0  0  0  0  0  0  0
  151.4496  142.7991  157.3076 H   0  0  0  0  0  0  0  0  0  0  0  0
  150.2368  139.7308  159.0458 H   0  0  0  0  0  0  0  0  0  0  0  0
  149.6873  137.7512  157.6767 H   0  0  0  0  0  0  0  0  0  0  0  0
  148.4331  135.0569  154.9728 H   0  0  0  0  0  0  0  0  0  0  0  0
  149.9660  134.8237  154.2050 H   0  0  0  0  0  0  0  0  0  0  0  0
  153.0900  138.7161  155.1829 H   0  0  0  0  0  0  0  0  0  0  0  0
  151.6582  140.9297  160.5626 H   0  0  0  0  0  0  0  0  0  0  0  0
  153.2697  140.3361  160.1825 H   0  0  0  0  0  0  0  0  0  0  0  0
  154.1901  142.6317  160.2302 H   0  0  0  0  0  0  0  0  0  0  0  0
  154.0603  141.4582  162.4328 H   0  0  0  0  0  0  0  0  0  0  0  0
  152.4498  142.1247  162.6982 H   0  0  0  0  0  0  0  0  0  0  0  0
  153.8462  143.1961  162.6221 H   0  0  0  0  0  0  0  0  0  0  0  0
  1  2  1  0  0  0  0
  1 23  1  0  0  0  0
  1 24  1  0  0  0  0
  1 25  1  0  0  0  0
  2 22  1  0  0  0  0
  2  3  1  0  0  0  0
  2 26  1  0  0  0  0
  3  4  1  0  0  0  0
  3 27  1  0  0  0  0
  3 28  1  0  0  0  0
  4  5  1  0  0  0  0
  4 19  1  0  0  0  0
  5 18  1  0  0  0  0
  5  6  2  0  0  0  0
  6  7  1  0  0  0  0
  6 29  1  0  0  0  0
  7  8  2  0  0  0  0
  7 30  1  0  0  0  0
  8  9  1  0  0  0  0
  8 17  1  0  0  0  0
  9 10  2  0  0  0  0
  9 11  1  0  0  0  0
 11 12  1  0  0  0  0
 12 13  1  0  0  0  0
 12 31  1  0  0  0  0
 12 32  1  0  0  0  0
 13 14  1  0  0  0  0
 13 15  1  0  0  0  0
 13 16  1  0  0  0  0
 17 18  2  0  0  0  0
 17 33  1  0  0  0  0
 19 20  1  0  0  0  0
 19 34  1  0  0  0  0
 19 35  1  0  0  0  0
 20 21  1  0  0  0  0
 20 22  1  0  0  0  0
 20 36  1  0  0  0  0
 21 37  1  0  0  0  0
 21 38  1  0  0  0  0
 21 39  1  0  0  0  0
M  CHG  1  11  -1
M  END
> <s_m_source_file>
AV-unprocessed.smi

> <i_m_source_file_index>
1565

> <i_lp_mmshare_version>
43012

> <i_f3d_flags>
0

> <s_epik_input>
W0NIM11bQ0BASF0xW0NIMl1OKFtDSDJdW0NASF0oTzEpW0NIM10pYzJbY0hdW2NIXWMoW2NIXW4yKUMoPU8pW05IXVtDSDJdQyhGKShGKUY=

> <s_epik_cmdline>
J2VwaWtfcHl0aG9uJywgJy1waCcsICc3LjAnLCAnLXRuJywgJzgnLCAnLW1hJywgJzIwMCcsICctbWV0YWxfYmluZGluZycsICctaW1hZScsICc8aW5maWxlLm1hZT4nLCAnLW9tYWUnLCAnPG91dGZpbGUubWFlPic=

> <r_lp_tautomer_probability>
1

> <r_epik_Ionization_Penalty>
6.78525

> <r_epik_Ionization_Penalty_Charging>
6.78469

> <r_epik_Ionization_Penalty_Neutral>
0.000559052

> <r_epik_State_Penalty>
6.78469

> <r_epik_Charging_Adjusted_Penalty>
13.5694

> <i_epik_Tot_Q>
-1

> <i_epik_Tot_abs_Q>
1

> <r_epik_Metal_State_Penalty>
2.70441

> <b_epik_Metal_Only>
1

> <s_lp_Force_Field>
OPLS_2005

> <r_lp_Energy>
25.7162

> <b_lp_Chiralities_Consistent>
1

> <s_lp_Variant>
AV-unprocessed.smi:1565-5

> <Gold.Version>
5.8.1

> <Gold.Id.Protein>
6NUR|6NUR_protein|mol2

> <Gold.PLP.Fitness>
43.6768

> <Gold.PLP.PLP>
-37.9895

> <Gold.PLP.part.hbond>
-2.0000

> <Gold.PLP.part.metal>
0.0000

> <Gold.PLP.part.buried>
-4.5277

> <Gold.PLP.part.nonpolar>
-31.9872

> <Gold.PLP.part.repulsive>
0.7586

> <Gold.PLP.ligand.clash>
0.0000

> <Gold.PLP.ligand.torsion>
0.3295

> <Gold.PLP.Chemscore.Hbond>
2.0000

> <Gold.PLP.Chemscore.CHOScore>
0.0000

> <Gold.PLP.Chemscore.Metal>
0.0000

> <Gold.Chemscore.Hbonds>
donor molecule, donor type, donor heavy atom, donor atom, acceptor molecule, acceptor atom, score
      P1  H  7997  8010       L1    18  1.00
      P1  H 10752 10765       L1    10  1.00

> <Gold.PLP.Chemscore.Internal.Correction>
0.3462

> <Gold.Rescore>
     Score         DG    S(hbond)    S(metal)    S(lipo)     H(rot)  DE(clash)    DE(int)     intcor
     19.10     -19.48       1.95        0.00      92.20       1.29       0.07       0.31       ----

> <Gold.Chemscore.Fitness>
19.1045

> <Gold.Chemscore.DG>
-19.4842

> <Gold.Chemscore.ZeroCoef>
-5.4800

> <Gold.Chemscore.Hbond>
1.9534

> <Gold.Chemscore.Metal>
0.0000

> <Gold.Chemscore.Lipo>
92.2028

> <Gold.Chemscore.Internal_Hbond>
0.0000

> <Gold.Chemscore.DEClash>
0.0654

> <Gold.Chemscore.DEInternal>
0.3143

> <Gold.Chemscore.Rot>
1.2921

> <Gold.Chemscore.Internal.Correction>
   9.000000E+99

> <Gold.Chemscore.Hbonds>
donor molecule, donor type, donor heavy atom, donor atom, acceptor molecule, acceptor atom, score
      P1  H  7997  8010       L1    18  0.25
      P1  H 10752 10765       L1    10  0.97

> <Gold.Chemscore.Hbond.Weighted>
-6.5243

> <Gold.Chemscore.Metal.Weighted>
-0.0000

> <Gold.Chemscore.Lipo.Weighted>
-10.7877

> <Gold.Chemscore.Internal_Hbond.Weighted>
0.0000

> <Gold.Chemscore.DEClash.Weighted>
0.0654

> <Gold.Chemscore.DEInternal.Weighted>
0.3143

> <Gold.Chemscore.Rot.Weighted>
3.3078

> <Gold.Chemscore.Internal.Correction.Weighted>
   9.000000E+99

> <Gold.Protein.RotatedTorsions>
[ 6907 6896 6895 6894 ] final  161.55 input  -60.11 | X-H torsion
[ 7974 7965 7964 7962 ] final  128.00 input  175.53 | X-H torsion
[ 8008 7997 7996 7995 ] final   73.57 input   59.86 | X-H torsion
[ 10167 10162 10161 10158 ] final    8.75 input  -65.29 | X-H torsion
[ 10718 10713 10712 10709 ] final  139.70 input   66.30 | X-H torsion
[ 10763 10752 10751 10750 ] final  160.38 input  -60.55 | X-H torsion
[ 11005 11000 10999 10996 ] final  -37.64 input  -57.11 | X-H torsion

> <Gold.Protein.ActiveResidues>
 VAL166  LYS551  ARG553  GLY616  TRP617  ASP618  TYR619  PRO620  LYS621  CYS622 
 ASP623  PHE694  ASN695  SER759  ASP760  ASP761  ALA762  ILE779  LEU786  VAL792 
 PHE793  MET794  SER795  GLU796  ALA797  LYS798  CYS799  TRP800  GLU811  SER814 

> <Gold.Protein.RotatedAtoms>
  151.9539  133.3674  159.4009 H   0  0  0  0  0  0  0  0  0  0  0  0  # atno 6907 bound_to 6896
  150.6976  134.4311  159.5258 H   0  0  0  0  0  0  0  0  0  0  0  0  # atno 6908 bound_to 6896
  152.1989  134.8606  160.0561 H   0  0  0  0  0  0  0  0  0  0  0  0  # atno 6909 bound_to 6896
  145.0443  139.3936  143.5086 H   0  0  0  0  0  0  0  0  0  0  0  0  # atno 7974 bound_to 7965
  155.7856  140.3480  155.5321 H   0  0  0  0  0  0  0  0  0  0  0  0  # atno 8008 bound_to 7997
  155.8685  140.0982  157.1586 H   0  0  0  0  0  0  0  0  0  0  0  0  # atno 8009 bound_to 7997
  154.4016  140.1345  156.4036 H   0  0  0  0  0  0  0  0  0  0  0  0  # atno 8010 bound_to 7997
  140.6296  143.8024  150.7278 H   0  0  0  0  0  0  0  0  0  0  0  0  # atno 10167 bound_to 10162
  157.4115  131.1028  151.0449 H   0  0  0  0  0  0  0  0  0  0  0  0  # atno 10718 bound_to 10713
  154.2466  135.2773  155.2833 H   0  0  0  0  0  0  0  0  0  0  0  0  # atno 10763 bound_to 10752
  154.5500  135.5677  153.6917 H   0  0  0  0  0  0  0  0  0  0  0  0  # atno 10764 bound_to 10752
  152.9989  135.6272  154.2611 H   0  0  0  0  0  0  0  0  0  0  0  0  # atno 10765 bound_to 10752
  140.9967  133.6976  156.1948 H   0  0  0  0  0  0  0  0  0  0  0  0  # atno 11005 bound_to 11000
  146.3512  140.0060  142.8671 LP  0  0  0  0  0  0  0  0  0  0  0  0  # atno 17320 bound_to 7965
  145.1607  140.9671  143.4378 LP  0  0  0  0  0  0  0  0  0  0  0  0  # atno 17321 bound_to 7965
  140.1632  143.4257  152.2052 LP  0  0  0  0  0  0  0  0  0  0  0  0  # atno 17342 bound_to 10162
  139.5512  144.7338  151.4431 LP  0  0  0  0  0  0  0  0  0  0  0  0  # atno 17343 bound_to 10162
  157.1412  130.6144  149.5555 LP  0  0  0  0  0  0  0  0  0  0  0  0  # atno 17370 bound_to 10713
  155.9852  130.4881  150.7020 LP  0  0  0  0  0  0  0  0  0  0  0  0  # atno 17371 bound_to 10713
  140.6954  134.4621  157.5588 LP  0  0  0  0  0  0  0  0  0  0  0  0  # atno 17394 bound_to 11000
  139.9018  134.8538  156.1864 LP  0  0  0  0  0  0  0  0  0  0  0  0  # atno 17395 bound_to 11000

$$$$
