AV-unprocessed.smi:2632|AV-procd|sdf|10251|dock1
  -GOLD-   2272014263D 1   1.00000     0.00000
 Structure written by MMmdl.
 37 38  0  0  0  0  0  0  0  0  2 V2000
  146.5333  142.6180  154.2027 C   0  0  0  0  0  0  0  0  0  0  0  0
  146.6061  141.2092  154.0787 O   0  0  0  0  0  0  0  0  0  0  0  0
  147.9179  140.7111  154.2803 C   0  0  0  0  0  0  0  0  0  0  0  0
  148.0158  139.2658  153.7617 C   0  0  0  0  0  0  0  0  0  0  0  0
  146.8673  138.4434  154.1985 N   0  0  0  0  0  0  0  0  0  0  0  0
  145.8434  138.1422  153.2616 C   0  0  0  0  0  0  0  0  0  0  0  0
  145.9323  138.6118  151.9612 N   0  0  0  0  0  0  0  0  0  0  0  0
  144.7888  137.3910  153.6506 C   0  0  0  0  0  0  0  0  0  0  0  0
  143.4248  136.8963  152.6214 S   0  0  0  0  0  0  0  0  0  0  0  0
  144.0829  135.4419  151.8747 C   0  0  0  0  0  0  0  0  0  0  0  0
  143.3548  134.2368  151.9183 C   0  0  0  0  0  0  0  0  0  0  0  0
  143.8790  133.0778  151.3133 C   0  0  0  0  0  0  0  0  0  0  0  0
  145.1320  133.1207  150.6670 C   0  0  0  0  0  0  0  0  0  0  0  0
  145.6884  131.8715  150.0156 C   0  0  0  0  0  0  0  0  0  0  0  0
  145.8586  134.3293  150.6272 C   0  0  0  0  0  0  0  0  0  0  0  0
  145.3353  135.4888  151.2314 C   0  0  0  0  0  0  0  0  0  0  0  0
  144.6974  136.8928  155.0244 C   0  0  0  0  0  0  0  0  0  0  0  0
  143.7377  136.2164  155.3971 O   0  0  0  0  0  0  0  0  0  0  0  0
  145.7245  137.2130  155.8581 N   0  5  0  0  0  0  0  0  0  0  0  0
  146.8021  137.9643  155.4812 C   0  0  0  0  0  0  0  0  0  0  0  0
  147.7145  138.2211  156.2677 O   0  0  0  0  0  0  0  0  0  0  0  0
  145.5078  142.9467  154.0353 H   0  0  0  0  0  0  0  0  0  0  0  0
  147.1699  143.1125  153.4681 H   0  0  0  0  0  0  0  0  0  0  0  0
  146.8324  142.9416  155.2005 H   0  0  0  0  0  0  0  0  0  0  0  0
  148.6269  141.3383  153.7382 H   0  0  0  0  0  0  0  0  0  0  0  0
  148.1858  140.7606  155.3368 H   0  0  0  0  0  0  0  0  0  0  0  0
  148.1267  139.2742  152.6763 H   0  0  0  0  0  0  0  0  0  0  0  0
  148.9467  138.8169  154.1081 H   0  0  0  0  0  0  0  0  0  0  0  0
  146.7147  139.1705  151.6530 H   0  0  0  0  0  0  0  0  0  0  0  0
  145.2640  138.3438  151.2534 H   0  0  0  0  0  0  0  0  0  0  0  0
  142.3943  134.1997  152.4107 H   0  0  0  0  0  0  0  0  0  0  0  0
  143.3169  132.1559  151.3455 H   0  0  0  0  0  0  0  0  0  0  0  0
  146.7363  132.0000  149.7426 H   0  0  0  0  0  0  0  0  0  0  0  0
  145.1259  131.6357  149.1122 H   0  0  0  0  0  0  0  0  0  0  0  0
  145.6178  131.0232  150.6966 H   0  0  0  0  0  0  0  0  0  0  0  0
  146.8178  134.3731  150.1327 H   0  0  0  0  0  0  0  0  0  0  0  0
  145.8934  136.4131  151.1960 H   0  0  0  0  0  0  0  0  0  0  0  0
  1  2  1  0  0  0  0
  1 22  1  0  0  0  0
  1 23  1  0  0  0  0
  1 24  1  0  0  0  0
  2  3  1  0  0  0  0
  3  4  1  0  0  0  0
  3 25  1  0  0  0  0
  3 26  1  0  0  0  0
  4  5  1  0  0  0  0
  4 27  1  0  0  0  0
  4 28  1  0  0  0  0
  5 20  1  0  0  0  0
  5  6  1  0  0  0  0
  6  7  1  0  0  0  0
  6  8  2  0  0  0  0
  7 29  1  0  0  0  0
  7 30  1  0  0  0  0
  8  9  1  0  0  0  0
  8 17  1  0  0  0  0
  9 10  1  0  0  0  0
 10 16  1  0  0  0  0
 10 11  2  0  0  0  0
 11 12  1  0  0  0  0
 11 31  1  0  0  0  0
 12 13  2  0  0  0  0
 12 32  1  0  0  0  0
 13 14  1  0  0  0  0
 13 15  1  0  0  0  0
 14 33  1  0  0  0  0
 14 34  1  0  0  0  0
 14 35  1  0  0  0  0
 15 16  2  0  0  0  0
 15 36  1  0  0  0  0
 16 37  1  0  0  0  0
 17 18  2  0  0  0  0
 17 19  1  0  0  0  0
 19 20  1  0  0  0  0
 20 21  2  0  0  0  0
M  CHG  1  19  -1
M  END
> <s_m_source_file>
AV-unprocessed.smi

> <i_m_source_file_index>
2632

> <i_lp_mmshare_version>
43012

> <i_f3d_flags>
0

> <s_epik_input>
W0NIM11PW0NIMl1bQ0gyXW4xYyhbTkgyXSljKGMoPU8pW25IXWMxPU8pU2MyW2NIXVtjSF1jKFtDSDNdKVtjSF1bY0hdMg==

> <s_epik_cmdline>
J2VwaWtfcHl0aG9uJywgJy1waCcsICc3LjAnLCAnLXRuJywgJzgnLCAnLW1hJywgJzIwMCcsICctbWV0YWxfYmluZGluZycsICctaW1hZScsICc8aW5maWxlLm1hZT4nLCAnLW9tYWUnLCAnPG91dGZpbGUubWFlPic=

> <r_lp_tautomer_probability>
1

> <r_epik_Ionization_Penalty>
6.52921

> <r_epik_Ionization_Penalty_Charging>
0.111036

> <r_epik_Ionization_Penalty_Neutral>
6.41817

> <r_epik_State_Penalty>
6.41816

> <r_epik_Charging_Adjusted_Penalty>
6.5292

> <i_epik_Tot_Q>
-1

> <i_epik_Tot_abs_Q>
1

> <r_epik_Metal_State_Penalty>
2.337

> <b_epik_Metal_Only>
1

> <s_epik_Chemistry_Notes>
This compound has an imine and may undergo hydrolysis.

> <s_lp_Force_Field>
OPLS_2005

> <r_lp_Energy>
30.26

> <b_lp_Chiralities_Consistent>
1

> <s_lp_Variant>
AV-unprocessed.smi:2632-2

> <Gold.Version>
5.8.1

> <Gold.Id.Protein>
6NUR|6NUR_protein|mol2

> <Gold.PLP.Fitness>
33.7092

> <Gold.PLP.PLP>
-32.0701

> <Gold.PLP.part.hbond>
-2.0000

> <Gold.PLP.part.metal>
0.0000

> <Gold.PLP.part.buried>
-5.3146

> <Gold.PLP.part.nonpolar>
-25.3569

> <Gold.PLP.part.repulsive>
0.2319

> <Gold.PLP.ligand.clash>
0.0000

> <Gold.PLP.ligand.torsion>
0.7388

> <Gold.PLP.Chemscore.Hbond>
1.0000

> <Gold.PLP.Chemscore.CHOScore>
0.0000

> <Gold.PLP.Chemscore.Metal>
0.0000

> <Gold.Chemscore.Hbonds>
donor molecule, donor type, donor heavy atom, donor atom, acceptor molecule, acceptor atom, score
      L1  H     7    30       P1 10171  1.00

> <Gold.PLP.Chemscore.Internal.Correction>
0.1168

> <Gold.Rescore>
     Score         DG    S(hbond)    S(metal)    S(lipo)     H(rot)  DE(clash)    DE(int)     intcor
     11.40     -12.06       0.98        0.00      71.42       1.97       0.01       0.65       ----

> <Gold.Chemscore.Fitness>
11.3972

> <Gold.Chemscore.DG>
-12.0579

> <Gold.Chemscore.ZeroCoef>
-5.4800

> <Gold.Chemscore.Hbond>
0.9809

> <Gold.Chemscore.Metal>
0.0000

> <Gold.Chemscore.Lipo>
71.4218

> <Gold.Chemscore.Internal_Hbond>
0.0000

> <Gold.Chemscore.DEClash>
0.0060

> <Gold.Chemscore.DEInternal>
0.6548

> <Gold.Chemscore.Rot>
1.9744

> <Gold.Chemscore.Internal.Correction>
   9.000000E+99

> <Gold.Chemscore.Hbonds>
donor molecule, donor type, donor heavy atom, donor atom, acceptor molecule, acceptor atom, score
      L1  H     7    30       P1 10171  0.94

> <Gold.Chemscore.Hbond.Weighted>
-3.2762

> <Gold.Chemscore.Metal.Weighted>
-0.0000

> <Gold.Chemscore.Lipo.Weighted>
-8.3563

> <Gold.Chemscore.Internal_Hbond.Weighted>
0.0000

> <Gold.Chemscore.DEClash.Weighted>
0.0060

> <Gold.Chemscore.DEInternal.Weighted>
0.6548

> <Gold.Chemscore.Rot.Weighted>
5.0546

> <Gold.Chemscore.Internal.Correction.Weighted>
   9.000000E+99

> <Gold.Protein.RotatedTorsions>
[ 6907 6896 6895 6894 ] final   14.01 input  -60.11 | X-H torsion
[ 7974 7965 7964 7962 ] final  140.08 input  175.53 | X-H torsion
[ 8008 7997 7996 7995 ] final   86.07 input   59.86 | X-H torsion
[ 10167 10162 10161 10158 ] final   87.67 input  -65.29 | X-H torsion
[ 10718 10713 10712 10709 ] final -108.30 input   66.30 | X-H torsion
[ 10763 10752 10751 10750 ] final  -47.04 input  -60.55 | X-H torsion
[ 11005 11000 10999 10996 ] final   69.02 input  -57.11 | X-H torsion

> <Gold.Protein.ActiveResidues>
 VAL166  LYS551  ARG553  GLY616  TRP617  ASP618  TYR619  PRO620  LYS621  CYS622 
 ASP623  PHE694  ASN695  SER759  ASP760  ASP761  ALA762  ILE779  LEU786  VAL792 
 PHE793  MET794  SER795  GLU796  ALA797  LYS798  CYS799  TRP800  GLU811  SER814 

> <Gold.Protein.RotatedAtoms>
  151.7954  135.0724  160.0392 H   0  0  0  0  0  0  0  0  0  0  0  0  # atno 6907 bound_to 6896
  152.3127  133.5765  159.5700 H   0  0  0  0  0  0  0  0  0  0  0  0  # atno 6908 bound_to 6896
  150.7328  134.0045  159.3691 H   0  0  0  0  0  0  0  0  0  0  0  0  # atno 6909 bound_to 6896
  144.9220  139.5156  143.5659 H   0  0  0  0  0  0  0  0  0  0  0  0  # atno 7974 bound_to 7965
  155.9581  140.3395  155.6466 H   0  0  0  0  0  0  0  0  0  0  0  0  # atno 8008 bound_to 7997
  155.6834  140.0740  157.2494 H   0  0  0  0  0  0  0  0  0  0  0  0  # atno 8009 bound_to 7997
  154.4137  140.1670  156.1994 H   0  0  0  0  0  0  0  0  0  0  0  0  # atno 8010 bound_to 7997
  139.8750  144.6472  150.8907 H   0  0  0  0  0  0  0  0  0  0  0  0  # atno 10167 bound_to 10162
  156.0479  130.5706  150.7942 H   0  0  0  0  0  0  0  0  0  0  0  0  # atno 10718 bound_to 10713
  154.0549  135.6626  153.4804 H   0  0  0  0  0  0  0  0  0  0  0  0  # atno 10763 bound_to 10752
  153.0449  135.5121  154.7715 H   0  0  0  0  0  0  0  0  0  0  0  0  # atno 10764 bound_to 10752
  154.6733  135.3033  154.9679 H   0  0  0  0  0  0  0  0  0  0  0  0  # atno 10765 bound_to 10752
  139.9678  134.6952  156.0510 H   0  0  0  0  0  0  0  0  0  0  0  0  # atno 11005 bound_to 11000
  146.3209  139.8106  142.8946 LP  0  0  0  0  0  0  0  0  0  0  0  0  # atno 17320 bound_to 7965
  145.3281  141.0260  143.3462 LP  0  0  0  0  0  0  0  0  0  0  0  0  # atno 17321 bound_to 7965
  140.7754  143.3633  151.1787 LP  0  0  0  0  0  0  0  0  0  0  0  0  # atno 17342 bound_to 10162
  139.7249  143.9165  152.2999 LP  0  0  0  0  0  0  0  0  0  0  0  0  # atno 17343 bound_to 10162
  157.5374  131.0939  150.9874 LP  0  0  0  0  0  0  0  0  0  0  0  0  # atno 17370 bound_to 10713
  157.0165  130.5657  149.5326 LP  0  0  0  0  0  0  0  0  0  0  0  0  # atno 17371 bound_to 10713
  141.1357  133.6575  156.3588 LP  0  0  0  0  0  0  0  0  0  0  0  0  # atno 17394 bound_to 11000
  140.5359  134.6167  157.5365 LP  0  0  0  0  0  0  0  0  0  0  0  0  # atno 17395 bound_to 11000

$$$$
