AV-unprocessed.smi:3274|AV-procd|sdf|12528|dock3
  -GOLD-   2272018443D 1   1.00000     0.00000
 Structure written by MMmdl.
 43 44  0  0  0  0  0  0  0  0  2 V2000
  144.8835  135.6680  150.7760 C   0  0  0  0  0  0  0  0  0  0  0  0
  145.2179  134.2744  151.2796 C   0  0  0  0  0  0  0  0  0  0  0  0
  144.4571  133.2281  150.9053 C   0  0  0  0  0  0  0  0  0  0  0  0
  144.7351  131.7923  151.2859 C   0  0  0  0  0  0  0  0  0  0  0  0
  146.1963  131.6066  151.7018 C   0  0  0  0  0  0  0  0  0  0  0  0
  146.6256  132.6633  152.7327 C   0  0  1  0  0  0  0  0  0  0  0  0
  148.0686  132.3735  153.1907 C   0  0  0  0  0  0  0  0  0  0  0  0
  146.4484  134.1179  152.1968 C   0  0  2  0  0  0  0  0  0  0  0  0
  146.4463  135.1274  153.3752 C   0  0  0  0  0  0  0  0  0  0  0  0
  147.7694  135.2482  154.0265 N   0  3  0  0  0  0  0  0  0  0  0  0
  147.9238  136.3953  154.9517 C   0  0  1  0  0  0  0  0  0  0  0  0
  147.0226  136.2397  156.1885 C   0  0  0  0  0  0  0  0  0  0  0  0
  149.3990  136.5478  155.3702 C   0  0  0  0  0  0  0  0  0  0  0  0
  149.8869  137.9034  155.1906 N   0  0  0  0  0  0  0  0  0  0  0  0
  149.9260  138.6755  154.1034 C   0  0  0  0  0  0  0  0  0  0  0  0
  150.4585  139.8706  154.3159 N   0  0  0  0  0  0  0  0  0  0  0  0
  150.7360  139.7645  155.6495 C   0  0  0  0  0  0  0  0  0  0  0  0
  150.4178  138.6025  156.2207 N   0  0  0  0  0  0  0  0  0  0  0  0
  145.7633  136.1340  150.3323 H   0  0  0  0  0  0  0  0  0  0  0  0
  144.5169  136.2974  151.5865 H   0  0  0  0  0  0  0  0  0  0  0  0
  144.1060  135.6390  150.0117 H   0  0  0  0  0  0  0  0  0  0  0  0
  143.5902  133.3882  150.2802 H   0  0  0  0  0  0  0  0  0  0  0  0
  144.0612  131.5080  152.0947 H   0  0  0  0  0  0  0  0  0  0  0  0
  144.5085  131.1465  150.4370 H   0  0  0  0  0  0  0  0  0  0  0  0
  146.3319  130.6018  152.1039 H   0  0  0  0  0  0  0  0  0  0  0  0
  146.8368  131.6750  150.8212 H   0  0  0  0  0  0  0  0  0  0  0  0
  145.9729  132.5412  153.5990 H   0  0  0  0  0  0  0  0  0  0  0  0
  148.7760  132.4973  152.3701 H   0  0  0  0  0  0  0  0  0  0  0  0
  148.1637  131.3488  153.5515 H   0  0  0  0  0  0  0  0  0  0  0  0
  148.3884  133.0234  154.0036 H   0  0  0  0  0  0  0  0  0  0  0  0
  147.3108  134.3333  151.5637 H   0  0  0  0  0  0  0  0  0  0  0  0
  146.1173  136.1040  153.0166 H   0  0  0  0  0  0  0  0  0  0  0  0
  145.7338  134.8286  154.1407 H   0  0  0  0  0  0  0  0  0  0  0  0
  147.9771  134.3921  154.5207 H   0  0  0  0  0  0  0  0  0  0  0  0
  147.6300  137.3036  154.4228 H   0  0  0  0  0  0  0  0  0  0  0  0
  147.1738  137.0632  156.8872 H   0  0  0  0  0  0  0  0  0  0  0  0
  147.2348  135.3119  156.7211 H   0  0  0  0  0  0  0  0  0  0  0  0
  145.9656  136.2391  155.9228 H   0  0  0  0  0  0  0  0  0  0  0  0
  149.5200  136.2889  156.4230 H   0  0  0  0  0  0  0  0  0  0  0  0
  150.0334  135.8614  154.8065 H   0  0  0  0  0  0  0  0  0  0  0  0
  149.5644  138.3557  153.1370 H   0  0  0  0  0  0  0  0  0  0  0  0
  151.1929  140.5642  156.2142 H   0  0  0  0  0  0  0  0  0  0  0  0
  148.4532  135.3631  153.2914 H   0  0  0  0  0  0  0  0  0  0  0  0
  1  2  1  0  0  0  0
  1 19  1  0  0  0  0
  1 20  1  0  0  0  0
  1 21  1  0  0  0  0
  2  8  1  0  0  0  0
  2  3  2  0  0  0  0
  3  4  1  0  0  0  0
  3 22  1  0  0  0  0
  4  5  1  0  0  0  0
  4 23  1  0  0  0  0
  4 24  1  0  0  0  0
  5  6  1  0  0  0  0
  5 25  1  0  0  0  0
  5 26  1  0  0  0  0
  6  7  1  0  0  0  0
  6  8  1  0  0  0  0
  6 27  1  0  0  0  0
  7 28  1  0  0  0  0
  7 29  1  0  0  0  0
  7 30  1  0  0  0  0
  8  9  1  0  0  0  0
  8 31  1  0  0  0  0
  9 10  1  0  0  0  0
  9 32  1  0  0  0  0
  9 33  1  0  0  0  0
 10 11  1  0  0  0  0
 10 34  1  0  0  0  0
 10 43  1  0  0  0  0
 11 12  1  0  0  0  0
 11 13  1  0  0  0  0
 11 35  1  0  0  0  0
 12 36  1  0  0  0  0
 12 37  1  0  0  0  0
 12 38  1  0  0  0  0
 13 14  1  0  0  0  0
 13 39  1  0  0  0  0
 13 40  1  0  0  0  0
 14 18  1  0  0  0  0
 14 15  1  0  0  0  0
 15 16  2  0  0  0  0
 15 41  1  0  0  0  0
 16 17  1  0  0  0  0
 17 18  2  0  0  0  0
 17 42  1  0  0  0  0
M  CHG  1  10   1
M  END
> <s_m_source_file>
AV-unprocessed.smi

> <i_m_source_file_index>
3274

> <i_lp_mmshare_version>
43012

> <i_f3d_flags>
0

> <s_epik_input>
W0NIM11DMT1bQ0hdW0NIMl1bQ0gyXVtDQEBIXShbQ0gzXSlbQ0BIXTFbQ0gyXVtOSF1bQ0BIXShbQ0gzXSlbQ0gyXW4yW2NIXW5bY0hdbjI=

> <s_epik_cmdline>
J2VwaWtfcHl0aG9uJywgJy1waCcsICc3LjAnLCAnLXRuJywgJzgnLCAnLW1hJywgJzIwMCcsICctbWV0YWxfYmluZGluZycsICctaW1hZScsICc8aW5maWxlLm1hZT4nLCAnLW9tYWUnLCAnPG91dGZpbGUubWFlPic=

> <r_lp_tautomer_probability>
1

> <r_epik_Ionization_Penalty>
0.0017527

> <r_epik_Ionization_Penalty_Charging>
0.00175191

> <r_epik_Ionization_Penalty_Neutral>
7.94565e-07

> <r_epik_State_Penalty>
0.00118605

> <r_epik_Charging_Adjusted_Penalty>
0.00293796

> <i_epik_Tot_Q>
1

> <i_epik_Tot_abs_Q>
1

> <r_epik_Metal_State_Penalty>
-0

> <b_epik_Metal_Only>
0

> <s_lp_Force_Field>
OPLS_2005

> <r_lp_Energy>
17.2451

> <b_lp_Chiralities_Consistent>
1

> <s_lp_Variant>
AV-unprocessed.smi:3274-7

> <Gold.Version>
5.8.1

> <Gold.Id.Protein>
6NUR|6NUR_protein|mol2

> <Gold.PLP.Fitness>
40.8166

> <Gold.PLP.PLP>
-28.2522

> <Gold.PLP.part.hbond>
-2.0000

> <Gold.PLP.part.metal>
0.0000

> <Gold.PLP.part.buried>
-1.6826

> <Gold.PLP.part.nonpolar>
-23.4427

> <Gold.PLP.part.repulsive>
0.1258

> <Gold.PLP.ligand.clash>
0.0000

> <Gold.PLP.ligand.torsion>
0.8580

> <Gold.PLP.Chemscore.Hbond>
3.0000

> <Gold.PLP.Chemscore.CHOScore>
1.7373

> <Gold.PLP.Chemscore.Metal>
0.0000

> <Gold.Chemscore.Hbonds>
donor molecule, donor type, donor heavy atom, donor atom, acceptor molecule, acceptor atom, score
      L1  H    10    43       P1  7948  1.98
      P1  H  7989  7998       L1    16  1.00
      L1  C    15    41       P1  7948  1.00
      L1  C    15    41       P1  7957  0.69

> <Gold.PLP.Chemscore.Internal.Correction>
0.0684

> <Gold.Rescore>
     Score         DG    S(hbond)    S(metal)    S(lipo)     H(rot)  DE(clash)    DE(int)     intcor
     11.06     -12.89       1.95        0.00      59.19       2.36       0.03       1.80       ----

> <Gold.Chemscore.Fitness>
11.0615

> <Gold.Chemscore.DG>
-12.8879

> <Gold.Chemscore.ZeroCoef>
-5.4800

> <Gold.Chemscore.Hbond>
1.9547

> <Gold.Chemscore.Metal>
0.0000

> <Gold.Chemscore.Lipo>
59.1851

> <Gold.Chemscore.Internal_Hbond>
0.0000

> <Gold.Chemscore.DEClash>
0.0294

> <Gold.Chemscore.DEInternal>
1.7970

> <Gold.Chemscore.Rot>
2.3615

> <Gold.Chemscore.Internal.Correction>
   9.000000E+99

> <Gold.Chemscore.Hbonds>
donor molecule, donor type, donor heavy atom, donor atom, acceptor molecule, acceptor atom, score
      L1  H    10    43       P1  7948  0.90
      P1  H  7989  7998       L1    16  0.82

> <Gold.Chemscore.Hbond.Weighted>
-6.5286

> <Gold.Chemscore.Metal.Weighted>
-0.0000

> <Gold.Chemscore.Lipo.Weighted>
-6.9247

> <Gold.Chemscore.Internal_Hbond.Weighted>
0.0000

> <Gold.Chemscore.DEClash.Weighted>
0.0294

> <Gold.Chemscore.DEInternal.Weighted>
1.7970

> <Gold.Chemscore.Rot.Weighted>
6.0454

> <Gold.Chemscore.Internal.Correction.Weighted>
   9.000000E+99

> <Gold.Protein.RotatedTorsions>
[ 6907 6896 6895 6894 ] final -118.17 input  -60.11 | X-H torsion
[ 7974 7965 7964 7962 ] final -151.25 input  175.53 | X-H torsion
[ 8008 7997 7996 7995 ] final  -28.68 input   59.86 | X-H torsion
[ 10167 10162 10161 10158 ] final    1.44 input  -65.29 | X-H torsion
[ 10718 10713 10712 10709 ] final  -84.30 input   66.30 | X-H torsion
[ 10763 10752 10751 10750 ] final   56.53 input  -60.55 | X-H torsion
[ 11005 11000 10999 10996 ] final   72.85 input  -57.11 | X-H torsion

> <Gold.Protein.ActiveResidues>
 VAL166  LYS551  ARG553  GLY616  TRP617  ASP618  TYR619  PRO620  LYS621  CYS622 
 ASP623  PHE694  ASN695  SER759  ASP760  ASP761  ALA762  ILE779  LEU786  VAL792 
 PHE793  MET794  SER795  GLU796  ALA797  LYS798  CYS799  TRP800  GLU811  SER814 

> <Gold.Protein.RotatedAtoms>
  150.8198  133.8273  159.3144 H   0  0  0  0  0  0  0  0  0  0  0  0  # atno 6907 bound_to 6896
  151.6035  135.1044  160.0075 H   0  0  0  0  0  0  0  0  0  0  0  0  # atno 6908 bound_to 6896
  152.4287  133.7199  159.6584 H   0  0  0  0  0  0  0  0  0  0  0  0  # atno 6909 bound_to 6896
  144.7860  140.4823  143.5805 H   0  0  0  0  0  0  0  0  0  0  0  0  # atno 7974 bound_to 7965
  154.4322  140.1838  156.1128 H   0  0  0  0  0  0  0  0  0  0  0  0  # atno 8008 bound_to 7997
  156.0204  140.3341  155.7007 H   0  0  0  0  0  0  0  0  0  0  0  0  # atno 8009 bound_to 7997
  155.5984  140.0638  157.2730 H   0  0  0  0  0  0  0  0  0  0  0  0  # atno 8010 bound_to 7997
  140.6682  143.7120  150.7870 H   0  0  0  0  0  0  0  0  0  0  0  0  # atno 10167 bound_to 10162
  156.0008  130.4693  150.4389 H   0  0  0  0  0  0  0  0  0  0  0  0  # atno 10718 bound_to 10713
  152.9833  135.5673  154.5244 H   0  0  0  0  0  0  0  0  0  0  0  0  # atno 10763 bound_to 10752
  154.4726  135.2785  155.1633 H   0  0  0  0  0  0  0  0  0  0  0  0  # atno 10764 bound_to 10752
  154.3175  135.6276  153.5546 H   0  0  0  0  0  0  0  0  0  0  0  0  # atno 10765 bound_to 10752
  139.9470  134.7296  156.0956 H   0  0  0  0  0  0  0  0  0  0  0  0  # atno 11005 bound_to 11000
  145.5919  139.1496  143.3177 LP  0  0  0  0  0  0  0  0  0  0  0  0  # atno 17320 bound_to 7965
  146.2092  140.6045  142.9067 LP  0  0  0  0  0  0  0  0  0  0  0  0  # atno 17321 bound_to 7965
  140.0801  143.4977  152.2534 LP  0  0  0  0  0  0  0  0  0  0  0  0  # atno 17342 bound_to 10162
  139.5940  144.7560  151.3332 LP  0  0  0  0  0  0  0  0  0  0  0  0  # atno 17343 bound_to 10162
  157.2431  131.0530  151.2424 LP  0  0  0  0  0  0  0  0  0  0  0  0  # atno 17370 bound_to 10713
  157.3601  130.7127  149.6496 LP  0  0  0  0  0  0  0  0  0  0  0  0  # atno 17371 bound_to 10713
  141.1123  133.6639  156.3008 LP  0  0  0  0  0  0  0  0  0  0  0  0  # atno 17394 bound_to 11000
  140.5811  134.5744  157.5480 LP  0  0  0  0  0  0  0  0  0  0  0  0  # atno 17395 bound_to 11000

$$$$
