AV-unprocessed.smi:1474|AV-procd|sdf|5975|dock7
  -GOLD-   22720 6 63D 1   1.00000     0.00000
 Structure written by MMmdl.
 43 44  0  0  0  0  0  0  0  0  1 V2000
  154.3830  133.4727  157.5910 C   0  0  0  0  0  0  0  0  0  0  0  0
  153.6351  132.5730  158.3899 O   0  0  0  0  0  0  0  0  0  0  0  0
  153.0169  131.5525  157.6238 C   0  0  0  0  0  0  0  0  0  0  0  0
  151.9897  132.1830  156.6789 C   0  0  0  0  0  0  0  0  0  0  0  0
  151.0734  132.9549  157.4492 O   0  0  0  0  0  0  0  0  0  0  0  0
  150.0148  133.5598  156.8034 C   0  0  0  0  0  0  0  0  0  0  0  0
  149.9799  133.5288  155.3950 C   0  0  0  0  0  0  0  0  0  0  0  0
  148.9052  134.1476  154.7289 C   0  0  0  0  0  0  0  0  0  0  0  0
  147.9015  134.7828  155.4920 C   0  0  0  0  0  0  0  0  0  0  0  0
  146.7069  135.4667  154.8423 C   0  0  0  0  0  0  0  0  0  0  0  0
  146.6854  135.3802  153.3855 N   0  0  0  0  0  0  0  0  0  0  0  0
  145.7977  134.6701  152.6715 C   0  0  0  0  0  0  0  0  0  0  0  0
  144.8975  134.0101  153.1911 O   0  0  0  0  0  0  0  0  0  0  0  0
  145.9441  134.7362  151.1393 C   0  0  1  0  0  0  0  0  0  0  0  0
  146.4939  133.4260  150.5454 C   0  0  0  0  0  0  0  0  0  0  0  0
  145.4839  132.2640  150.5982 C   0  0  0  0  0  0  0  0  0  0  0  0
  144.0538  132.6688  150.2094 C   0  0  0  0  0  0  0  0  0  0  0  0
  143.2350  131.7965  149.9291 O   0  0  0  0  0  0  0  0  0  0  0  0
  143.7156  133.9701  150.2253 N   0  0  0  0  0  0  0  0  0  0  0  0
  144.6218  135.1025  150.4280 C   0  0  0  0  0  0  0  0  0  0  0  0
  148.0234  134.7533  156.8969 C   0  0  0  0  0  0  0  0  0  0  0  0
  149.0501  134.1612  157.5432 N   0  0  0  0  0  0  0  0  0  0  0  0
  154.8395  134.2333  158.2247 H   0  0  0  0  0  0  0  0  0  0  0  0
  153.7466  133.9783  156.8636 H   0  0  0  0  0  0  0  0  0  0  0  0
  155.1819  132.9557  157.0580 H   0  0  0  0  0  0  0  0  0  0  0  0
  153.7775  131.0324  157.0397 H   0  0  0  0  0  0  0  0  0  0  0  0
  152.5373  130.8144  158.2686 H   0  0  0  0  0  0  0  0  0  0  0  0
  152.4916  132.7966  155.9288 H   0  0  0  0  0  0  0  0  0  0  0  0
  151.4513  131.3893  156.1587 H   0  0  0  0  0  0  0  0  0  0  0  0
  150.7630  133.0375  154.8365 H   0  0  0  0  0  0  0  0  0  0  0  0
  148.8584  134.1305  153.6501 H   0  0  0  0  0  0  0  0  0  0  0  0
  145.7987  134.9999  155.2234 H   0  0  0  0  0  0  0  0  0  0  0  0
  146.6661  136.5136  155.1484 H   0  0  0  0  0  0  0  0  0  0  0  0
  147.3942  135.8972  152.8859 H   0  0  0  0  0  0  0  0  0  0  0  0
  146.6603  135.5308  150.9226 H   0  0  0  0  0  0  0  0  0  0  0  0
  146.7786  133.6007  149.5069 H   0  0  0  0  0  0  0  0  0  0  0  0
  147.4119  133.1357  151.0583 H   0  0  0  0  0  0  0  0  0  0  0  0
  145.8187  131.4531  149.9505 H   0  0  0  0  0  0  0  0  0  0  0  0
  145.4472  131.8534  151.6076 H   0  0  0  0  0  0  0  0  0  0  0  0
  142.7560  134.1987  150.0089 H   0  0  0  0  0  0  0  0  0  0  0  0
  144.0907  135.8819  150.9763 H   0  0  0  0  0  0  0  0  0  0  0  0
  144.8449  135.5232  149.4468 H   0  0  0  0  0  0  0  0  0  0  0  0
  147.2770  135.2198  157.5230 H   0  0  0  0  0  0  0  0  0  0  0  0
  1  2  1  0  0  0  0
  1 23  1  0  0  0  0
  1 24  1  0  0  0  0
  1 25  1  0  0  0  0
  2  3  1  0  0  0  0
  3  4  1  0  0  0  0
  3 26  1  0  0  0  0
  3 27  1  0  0  0  0
  4  5  1  0  0  0  0
  4 28  1  0  0  0  0
  4 29  1  0  0  0  0
  5  6  1  0  0  0  0
  6 22  1  0  0  0  0
  6  7  2  0  0  0  0
  7  8  1  0  0  0  0
  7 30  1  0  0  0  0
  8  9  2  0  0  0  0
  8 31  1  0  0  0  0
  9 10  1  0  0  0  0
  9 21  1  0  0  0  0
 10 11  1  0  0  0  0
 10 32  1  0  0  0  0
 10 33  1  0  0  0  0
 11 12  1  0  0  0  0
 11 34  1  0  0  0  0
 12 13  2  0  0  0  0
 12 14  1  0  0  0  0
 14 20  1  0  0  0  0
 14 15  1  0  0  0  0
 14 35  1  0  0  0  0
 15 16  1  0  0  0  0
 15 36  1  0  0  0  0
 15 37  1  0  0  0  0
 16 17  1  0  0  0  0
 16 38  1  0  0  0  0
 16 39  1  0  0  0  0
 17 18  2  0  0  0  0
 17 19  1  0  0  0  0
 19 20  1  0  0  0  0
 19 40  1  0  0  0  0
 20 41  1  0  0  0  0
 20 42  1  0  0  0  0
 21 22  2  0  0  0  0
 21 43  1  0  0  0  0
M  END
> <s_m_source_file>
AV-unprocessed.smi

> <i_m_source_file_index>
1474

> <i_lp_mmshare_version>
43012

> <i_f3d_flags>
0

> <s_epik_input>
W0NIM11PW0NIMl1bQ0gyXU9jMVtjSF1bY0hdYyhbY0hdbjEpW0NIMl1bTkhdQyg9TylbQ0BASF0yW0NIMl1bQ0gyXUMoPU8pW05IXVtDSDJdMg==

> <s_epik_cmdline>
J2VwaWtfcHl0aG9uJywgJy1waCcsICc3LjAnLCAnLXRuJywgJzgnLCAnLW1hJywgJzIwMCcsICctbWV0YWxfYmluZGluZycsICctaW1hZScsICc8aW5maWxlLm1hZT4nLCAnLW9tYWUnLCAnPG91dGZpbGUubWFlPic=

> <r_lp_tautomer_probability>
1

> <r_epik_Ionization_Penalty>
6.19599e-05

> <r_epik_Ionization_Penalty_Charging>
0

> <r_epik_Ionization_Penalty_Neutral>
6.19599e-05

> <r_epik_State_Penalty>
-0

> <r_epik_Charging_Adjusted_Penalty>
0

> <i_epik_Tot_Q>
0

> <i_epik_Tot_abs_Q>
0

> <r_epik_Metal_State_Penalty>
-0

> <b_epik_Metal_Only>
0

> <s_lp_Force_Field>
OPLS_2005

> <r_lp_Energy>
8.64292

> <b_lp_Chiralities_Consistent>
1

> <s_lp_Variant>
AV-unprocessed.smi:1474-2

> <Gold.Version>
5.8.1

> <Gold.Id.Protein>
6NUR|6NUR_protein|mol2

> <Gold.PLP.Fitness>
41.5830

> <Gold.PLP.PLP>
-28.7753

> <Gold.PLP.part.hbond>
-5.0000

> <Gold.PLP.part.metal>
0.0000

> <Gold.PLP.part.buried>
-5.2471

> <Gold.PLP.part.nonpolar>
-19.9488

> <Gold.PLP.part.repulsive>
1.7379

> <Gold.PLP.ligand.clash>
0.4212

> <Gold.PLP.ligand.torsion>
0.3350

> <Gold.PLP.Chemscore.Hbond>
4.5920

> <Gold.PLP.Chemscore.CHOScore>
0.0000

> <Gold.PLP.Chemscore.Metal>
0.0000

> <Gold.Chemscore.Hbonds>
donor molecule, donor type, donor heavy atom, donor atom, acceptor molecule, acceptor atom, score
      L1  H    11    34       P1  7948  1.00
      L1  H    19    40       P1 10186  1.00
      P1  H  6896  6907       L1     2  0.89
      P1  H  6896  6908       L1     5  0.62
      P1  H 10785 10796       L1    18  0.99

> <Gold.PLP.Chemscore.Internal.Correction>
0.1229

> <Gold.Rescore>
     Score         DG    S(hbond)    S(metal)    S(lipo)     H(rot)  DE(clash)    DE(int)     intcor
     18.68     -20.14       4.36        0.00      56.05       2.52       1.16       0.31       ----

> <Gold.Chemscore.Fitness>
18.6784

> <Gold.Chemscore.DG>
-20.1436

> <Gold.Chemscore.ZeroCoef>
-5.4800

> <Gold.Chemscore.Hbond>
4.3584

> <Gold.Chemscore.Metal>
0.0000

> <Gold.Chemscore.Lipo>
56.0517

> <Gold.Chemscore.Internal_Hbond>
0.0000

> <Gold.Chemscore.DEClash>
1.1591

> <Gold.Chemscore.DEInternal>
0.3062

> <Gold.Chemscore.Rot>
2.5201

> <Gold.Chemscore.Internal.Correction>
   9.000000E+99

> <Gold.Chemscore.Hbonds>
donor molecule, donor type, donor heavy atom, donor atom, acceptor molecule, acceptor atom, score
      L1  H    11    34       P1  7948  0.99
      L1  H    19    40       P1 10186  0.98
      P1  H  6896  6907       L1     2  0.44
      P1  H  6896  6908       L1     5  0.16
      P1  H 10785 10796       L1    18  0.91

> <Gold.Chemscore.Hbond.Weighted>
-14.5570

> <Gold.Chemscore.Metal.Weighted>
-0.0000

> <Gold.Chemscore.Lipo.Weighted>
-6.5580

> <Gold.Chemscore.Internal_Hbond.Weighted>
0.0000

> <Gold.Chemscore.DEClash.Weighted>
1.1591

> <Gold.Chemscore.DEInternal.Weighted>
0.3062

> <Gold.Chemscore.Rot.Weighted>
6.4514

> <Gold.Chemscore.Internal.Correction.Weighted>
   9.000000E+99

> <Gold.Protein.RotatedTorsions>
[ 6907 6896 6895 6894 ] final  117.15 input  -60.11 | X-H torsion
[ 7974 7965 7964 7962 ] final -151.07 input  175.53 | X-H torsion
[ 8008 7997 7996 7995 ] final -119.17 input   59.86 | X-H torsion
[ 10167 10162 10161 10158 ] final   49.05 input  -65.29 | X-H torsion
[ 10718 10713 10712 10709 ] final  144.11 input   66.30 | X-H torsion
[ 10763 10752 10751 10750 ] final -142.99 input  -60.55 | X-H torsion
[ 11005 11000 10999 10996 ] final   53.05 input  -57.11 | X-H torsion

> <Gold.Protein.ActiveResidues>
 VAL166  LYS551  ARG553  GLY616  TRP617  ASP618  TYR619  PRO620  LYS621  CYS622 
 ASP623  PHE694  ASN695  SER759  ASP760  ASP761  ALA762  ILE779  LEU786  VAL792 
 PHE793  MET794  SER795  GLU796  ALA797  LYS798  CYS799  TRP800  GLU811  SER814 

> <Gold.Protein.RotatedAtoms>
  152.4631  133.7865  159.6878 H   0  0  0  0  0  0  0  0  0  0  0  0  # atno 6907 bound_to 6896
  150.8584  133.7671  159.3007 H   0  0  0  0  0  0  0  0  0  0  0  0  # atno 6908 bound_to 6896
  151.5245  135.1070  159.9939 H   0  0  0  0  0  0  0  0  0  0  0  0  # atno 6909 bound_to 6896
  144.7871  140.4848  143.5798 H   0  0  0  0  0  0  0  0  0  0  0  0  # atno 7974 bound_to 7965
  155.1114  140.0397  157.2725 H   0  0  0  0  0  0  0  0  0  0  0  0  # atno 8008 bound_to 7997
  154.6682  140.2606  155.7010 H   0  0  0  0  0  0  0  0  0  0  0  0  # atno 8009 bound_to 7997
  156.2647  140.2803  156.1181 H   0  0  0  0  0  0  0  0  0  0  0  0  # atno 8010 bound_to 7997
  140.2869  144.3092  150.6250 H   0  0  0  0  0  0  0  0  0  0  0  0  # atno 10167 bound_to 10162
  157.3610  131.0965  151.0915 H   0  0  0  0  0  0  0  0  0  0  0  0  # atno 10718 bound_to 10713
  154.8488  135.3480  154.6115 H   0  0  0  0  0  0  0  0  0  0  0  0  # atno 10763 bound_to 10752
  153.6724  135.6984  153.5147 H   0  0  0  0  0  0  0  0  0  0  0  0  # atno 10764 bound_to 10752
  153.2732  135.4286  155.0964 H   0  0  0  0  0  0  0  0  0  0  0  0  # atno 10765 bound_to 10752
  140.0799  134.5353  155.8958 H   0  0  0  0  0  0  0  0  0  0  0  0  # atno 11005 bound_to 11000
  145.5892  139.1494  143.3191 LP  0  0  0  0  0  0  0  0  0  0  0  0  # atno 17320 bound_to 7965
  146.2108  140.6019  142.9060 LP  0  0  0  0  0  0  0  0  0  0  0  0  # atno 17321 bound_to 7965
  140.5765  143.2176  151.7505 LP  0  0  0  0  0  0  0  0  0  0  0  0  # atno 17342 bound_to 10162
  139.4948  144.4142  152.0048 LP  0  0  0  0  0  0  0  0  0  0  0  0  # atno 17343 bound_to 10162
  157.2054  130.6414  149.5754 LP  0  0  0  0  0  0  0  0  0  0  0  0  # atno 17370 bound_to 10713
  155.9737  130.4677  150.6334 LP  0  0  0  0  0  0  0  0  0  0  0  0  # atno 17371 bound_to 10713
  141.2043  133.6638  156.6111 LP  0  0  0  0  0  0  0  0  0  0  0  0  # atno 17394 bound_to 11000
  140.3504  134.7774  157.4462 LP  0  0  0  0  0  0  0  0  0  0  0  0  # atno 17395 bound_to 11000

$$$$
