AV-unprocessed.smi:342|AV-procd|sdf|2386|dock5
  -GOLD-   2262022313D 1   1.00000     0.00000
 Structure written by MMmdl.
 42 44  0  0  0  0  0  0  0  0  2 V2000
  151.9606  137.1729  159.9096 O   0  0  0  0  0  0  0  0  0  0  0  0
  151.9235  138.0815  158.8279 C   0  0  2  0  0  0  0  0  0  0  0  0
  151.4897  137.3230  157.5543 C   0  0  0  0  0  0  0  0  0  0  0  0
  150.8703  138.2159  156.5427 N   0  3  0  0  0  0  0  0  0  0  0  0
  151.3644  139.6146  156.6009 C   0  0  0  0  0  0  0  0  0  0  0  0
  150.6454  140.4808  155.5530 C   0  0  0  0  0  0  0  0  0  0  0  0
  150.8353  139.9212  154.2595 O   0  0  0  0  0  0  0  0  0  0  0  0
  150.2900  138.6115  154.1618 C   0  0  0  0  0  0  0  0  0  0  0  0
  150.9945  137.6826  155.1653 C   0  0  0  0  0  0  0  0  0  0  0  0
  153.3135  138.7430  158.7181 C   0  0  0  0  0  0  0  0  0  0  0  0
  153.5175  139.8001  159.7010 N   0  0  0  0  0  0  0  0  0  0  0  0
  154.1752  139.7413  160.8898 C   0  0  0  0  0  0  0  0  0  0  0  0
  154.8159  138.4789  161.3981 C   0  0  0  0  0  0  0  0  0  0  0  0
  153.9134  137.5062  161.5329 F   0  0  0  0  0  0  0  0  0  0  0  0
  155.7507  138.0530  160.5488 F   0  0  0  0  0  0  0  0  0  0  0  0
  155.3763  138.6780  162.5907 F   0  0  0  0  0  0  0  0  0  0  0  0
  154.2066  140.8804  161.5851 N   0  0  0  0  0  0  0  0  0  0  0  0
  153.4903  141.7498  160.7884 C   0  0  0  0  0  0  0  0  0  0  0  0
  153.1636  143.1114  160.9785 C   0  0  0  0  0  0  0  0  0  0  0  0
  152.4014  143.8036  160.0150 C   0  0  0  0  0  0  0  0  0  0  0  0
  151.9550  143.1450  158.8513 C   0  0  0  0  0  0  0  0  0  0  0  0
  152.2708  141.7887  158.6423 C   0  0  0  0  0  0  0  0  0  0  0  0
  153.0362  141.1030  159.6050 C   0  0  0  0  0  0  0  0  0  0  0  0
  151.2700  137.3946  160.5161 H   0  0  0  0  0  0  0  0  0  0  0  0
  151.1937  138.8513  159.0726 H   0  0  0  0  0  0  0  0  0  0  0  0
  152.3340  136.8091  157.0932 H   0  0  0  0  0  0  0  0  0  0  0  0
  150.7801  136.5455  157.8408 H   0  0  0  0  0  0  0  0  0  0  0  0
  151.2019  140.0397  157.5901 H   0  0  0  0  0  0  0  0  0  0  0  0
  152.4406  139.6317  156.4201 H   0  0  0  0  0  0  0  0  0  0  0  0
  149.5802  140.5596  155.7767 H   0  0  0  0  0  0  0  0  0  0  0  0
  151.0482  141.4937  155.5623 H   0  0  0  0  0  0  0  0  0  0  0  0
  149.2141  138.6375  154.3419 H   0  0  0  0  0  0  0  0  0  0  0  0
  150.4336  138.2444  153.1456 H   0  0  0  0  0  0  0  0  0  0  0  0
  152.0497  137.5826  154.9055 H   0  0  0  0  0  0  0  0  0  0  0  0
  150.5544  136.6860  155.1117 H   0  0  0  0  0  0  0  0  0  0  0  0
  154.0936  137.9950  158.8665 H   0  0  0  0  0  0  0  0  0  0  0  0
  153.4624  139.1385  157.7144 H   0  0  0  0  0  0  0  0  0  0  0  0
  153.4972  143.6237  161.8688 H   0  0  0  0  0  0  0  0  0  0  0  0
  152.1556  144.8437  160.1713 H   0  0  0  0  0  0  0  0  0  0  0  0
  151.3683  143.6820  158.1202 H   0  0  0  0  0  0  0  0  0  0  0  0
  151.9236  141.2834  157.7536 H   0  0  0  0  0  0  0  0  0  0  0  0
  149.8816  138.2398  156.7496 H   0  0  0  0  0  0  0  0  0  0  0  0
  1  2  1  0  0  0  0
  1 24  1  0  0  0  0
  2  3  1  0  0  0  0
  2 10  1  0  0  0  0
  2 25  1  0  0  0  0
  3  4  1  0  0  0  0
  3 26  1  0  0  0  0
  3 27  1  0  0  0  0
  4  9  1  0  0  0  0
  4  5  1  0  0  0  0
  4 42  1  0  0  0  0
  5  6  1  0  0  0  0
  5 28  1  0  0  0  0
  5 29  1  0  0  0  0
  6  7  1  0  0  0  0
  6 30  1  0  0  0  0
  6 31  1  0  0  0  0
  7  8  1  0  0  0  0
  8  9  1  0  0  0  0
  8 32  1  0  0  0  0
  8 33  1  0  0  0  0
  9 34  1  0  0  0  0
  9 35  1  0  0  0  0
 10 11  1  0  0  0  0
 10 36  1  0  0  0  0
 10 37  1  0  0  0  0
 11 23  1  0  0  0  0
 11 12  1  0  0  0  0
 12 13  1  0  0  0  0
 12 17  2  0  0  0  0
 13 14  1  0  0  0  0
 13 15  1  0  0  0  0
 13 16  1  0  0  0  0
 17 18  1  0  0  0  0
 18 23  2  0  0  0  0
 18 19  1  0  0  0  0
 19 20  2  0  0  0  0
 19 38  1  0  0  0  0
 20 21  1  0  0  0  0
 20 39  1  0  0  0  0
 21 22  2  0  0  0  0
 21 40  1  0  0  0  0
 22 23  1  0  0  0  0
 22 41  1  0  0  0  0
M  CHG  1   4   1
M  END
> <s_m_source_file>
AV-unprocessed.smi

> <i_m_source_file_index>
342

> <i_lp_mmshare_version>
43012

> <i_f3d_flags>
0

> <s_epik_input>
W2NIXTFbY0hdW2NIXVtjSF1jKGMxMiluKGMobjIpQyhGKShGKUYpW0NIMl1bQ0BIXShbT0hdKVtDSDJdTjNbQ0gyXVtDSDJdT1tDSDJdW0NIMl0z

> <s_epik_cmdline>
J2VwaWtfcHl0aG9uJywgJy1waCcsICc3LjAnLCAnLXRuJywgJzgnLCAnLW1hJywgJzIwMCcsICctbWV0YWxfYmluZGluZycsICctaW1hZScsICc8aW5maWxlLm1hZT4nLCAnLW9tYWUnLCAnPG91dGZpbGUubWFlPic=

> <r_epik_Ionization_Penalty>
0.608409

> <r_epik_Ionization_Penalty_Charging>
0.608065

> <r_epik_Ionization_Penalty_Neutral>
0.000344684

> <r_epik_State_Penalty>
0.623026

> <r_epik_Charging_Adjusted_Penalty>
1.23109

> <i_epik_Tot_Q>
1

> <i_epik_Tot_abs_Q>
1

> <r_epik_Metal_State_Penalty>
0.623013

> <b_epik_Metal_Only>
0

> <s_lp_Force_Field>
OPLS_2005

> <r_lp_Energy>
26.0931

> <b_lp_Chiralities_Consistent>
1

> <s_lp_Variant>
AV-unprocessed.smi:342-3

> <Gold.Version>
5.8.1

> <Gold.Id.Protein>
6NUR|6NUR_protein|mol2

> <Gold.PLP.Fitness>
45.3248

> <Gold.PLP.PLP>
-41.4030

> <Gold.PLP.part.hbond>
-1.9594

> <Gold.PLP.part.metal>
0.0000

> <Gold.PLP.part.buried>
-5.2635

> <Gold.PLP.part.nonpolar>
-34.0245

> <Gold.PLP.part.repulsive>
0.1480

> <Gold.PLP.ligand.clash>
0.0000

> <Gold.PLP.ligand.torsion>
1.0715

> <Gold.PLP.Chemscore.Hbond>
2.0000

> <Gold.PLP.Chemscore.CHOScore>
0.0000

> <Gold.PLP.Chemscore.Metal>
0.0000

> <Gold.Chemscore.Hbonds>
donor molecule, donor type, donor heavy atom, donor atom, acceptor molecule, acceptor atom, score
      P1  H  6896  6908       L1     1  0.75
      P1  H  7989  7998       L1     7  0.80

> <Gold.PLP.Chemscore.Internal.Correction>
0.0648

> <Gold.Rescore>
     Score         DG    S(hbond)    S(metal)    S(lipo)     H(rot)  DE(clash)    DE(int)     intcor
     15.47     -18.21       1.95        0.00     103.98       2.32       0.01       2.73       ----

> <Gold.Chemscore.Fitness>
15.4674

> <Gold.Chemscore.DG>
-18.2073

> <Gold.Chemscore.ZeroCoef>
-5.4800

> <Gold.Chemscore.Hbond>
1.9469

> <Gold.Chemscore.Metal>
0.0000

> <Gold.Chemscore.Lipo>
103.9788

> <Gold.Chemscore.Internal_Hbond>
0.0000

> <Gold.Chemscore.DEClash>
0.0089

> <Gold.Chemscore.DEInternal>
2.7311

> <Gold.Chemscore.Rot>
2.3206

> <Gold.Chemscore.Internal.Correction>
   9.000000E+99

> <Gold.Chemscore.Hbonds>
donor molecule, donor type, donor heavy atom, donor atom, acceptor molecule, acceptor atom, score
      P1  H  6896  6908       L1     1  0.09
      P1  H  7989  7998       L1     7  0.51

> <Gold.Chemscore.Hbond.Weighted>
-6.5025

> <Gold.Chemscore.Metal.Weighted>
-0.0000

> <Gold.Chemscore.Lipo.Weighted>
-12.1655

> <Gold.Chemscore.Internal_Hbond.Weighted>
0.0000

> <Gold.Chemscore.DEClash.Weighted>
0.0089

> <Gold.Chemscore.DEInternal.Weighted>
2.7311

> <Gold.Chemscore.Rot.Weighted>
5.9407

> <Gold.Chemscore.Internal.Correction.Weighted>
   9.000000E+99

> <Gold.Protein.RotatedTorsions>
[ 6907 6896 6895 6894 ] final -115.72 input  -60.11 | X-H torsion
[ 7974 7965 7964 7962 ] final  100.76 input  175.53 | X-H torsion
[ 8008 7997 7996 7995 ] final  -14.22 input   59.86 | X-H torsion
[ 10167 10162 10161 10158 ] final  -65.37 input  -65.29 | X-H torsion
[ 10718 10713 10712 10709 ] final  120.68 input   66.30 | X-H torsion
[ 10763 10752 10751 10750 ] final  118.50 input  -60.55 | X-H torsion
[ 11005 11000 10999 10996 ] final  145.99 input  -57.11 | X-H torsion

> <Gold.Protein.ActiveResidues>
 VAL166  LYS551  ARG553  GLY616  TRP617  ASP618  TYR619  PRO620  LYS621  CYS622 
 ASP623  PHE694  ASN695  SER759  ASP760  ASP761  ALA762  ILE779  LEU786  VAL792 
 PHE793  MET794  SER795  GLU796  ALA797  LYS798  CYS799  TRP800  GLU811  SER814 

> <Gold.Protein.RotatedAtoms>
  150.7999  133.8619  159.3233 H   0  0  0  0  0  0  0  0  0  0  0  0  # atno 6907 bound_to 6896
  151.6434  135.1008  160.0155 H   0  0  0  0  0  0  0  0  0  0  0  0  # atno 6908 bound_to 6896
  152.4086  133.6888  159.6412 H   0  0  0  0  0  0  0  0  0  0  0  0  # atno 6909 bound_to 6896
  145.3813  139.2379  143.3402 H   0  0  0  0  0  0  0  0  0  0  0  0  # atno 7974 bound_to 7965
  154.5228  140.2229  155.8945 H   0  0  0  0  0  0  0  0  0  0  0  0  # atno 8008 bound_to 7997
  156.1680  140.3128  155.8888 H   0  0  0  0  0  0  0  0  0  0  0  0  # atno 8009 bound_to 7997
  155.3616  140.0461  157.3037 H   0  0  0  0  0  0  0  0  0  0  0  0  # atno 8010 bound_to 7997
  140.5734  143.2320  151.6491 H   0  0  0  0  0  0  0  0  0  0  0  0  # atno 10167 bound_to 10162
  157.5873  131.1068  150.8068 H   0  0  0  0  0  0  0  0  0  0  0  0  # atno 10718 bound_to 10713
  153.5686  135.3506  155.2828 H   0  0  0  0  0  0  0  0  0  0  0  0  # atno 10763 bound_to 10752
  154.8685  135.4154  154.2751 H   0  0  0  0  0  0  0  0  0  0  0  0  # atno 10764 bound_to 10752
  153.3512  135.7055  153.6857 H   0  0  0  0  0  0  0  0  0  0  0  0  # atno 10765 bound_to 10752
  140.0757  134.9126  157.1419 H   0  0  0  0  0  0  0  0  0  0  0  0  # atno 11005 bound_to 11000
  146.2841  140.4481  142.8765 LP  0  0  0  0  0  0  0  0  0  0  0  0  # atno 17320 bound_to 7965
  144.8505  140.6995  143.6171 LP  0  0  0  0  0  0  0  0  0  0  0  0  # atno 17321 bound_to 7965
  139.5130  144.3458  152.0698 LP  0  0  0  0  0  0  0  0  0  0  0  0  # atno 17342 bound_to 10162
  140.2599  144.4079  150.6190 LP  0  0  0  0  0  0  0  0  0  0  0  0  # atno 17343 bound_to 10162
  156.8499  130.5077  149.5313 LP  0  0  0  0  0  0  0  0  0  0  0  0  # atno 17370 bound_to 10713
  156.0924  130.5906  150.9755 LP  0  0  0  0  0  0  0  0  0  0  0  0  # atno 17371 bound_to 10713
  140.3561  134.2545  155.7192 LP  0  0  0  0  0  0  0  0  0  0  0  0  # atno 17394 bound_to 11000
  141.2028  133.7927  157.0370 LP  0  0  0  0  0  0  0  0  0  0  0  0  # atno 17395 bound_to 11000

$$$$
