AV-unprocessed.smi:3311|AV-procd|sdf|12723|dock7
  -GOLD-   2272019 63D 1   1.00000     0.00000
 Structure written by MMmdl.
 43 44  0  0  0  0  0  0  0  0  1 V2000
  146.6078  142.0758  155.8247 C   0  0  0  0  0  0  0  0  0  0  0  0
  148.0495  141.5732  156.0137 C   0  0  2  0  0  0  0  0  0  0  0  0
  148.7635  142.5558  156.8361 N   0  0  0  0  0  0  0  0  0  0  0  0
  149.8818  142.0157  157.6133 C   0  0  0  0  0  0  0  0  0  0  0  0
  150.7736  143.1217  158.2200 C   0  0  0  0  0  0  0  0  0  0  0  0
  151.3899  143.7941  157.1365 O   0  0  0  0  0  0  0  0  0  0  0  0
  149.9758  144.1339  159.0807 C   0  0  0  0  0  0  0  0  0  0  0  0
  150.8788  145.1526  159.7987 C   0  0  0  0  0  0  0  0  0  0  0  0
  151.9549  144.4547  160.6413 C   0  0  0  0  0  0  0  0  0  0  0  0
  152.7893  143.4959  159.7809 C   0  0  0  0  0  0  0  0  0  0  0  0
  151.8962  142.4692  159.0612 C   0  0  0  0  0  0  0  0  0  0  0  0
  148.7707  141.3417  154.6532 C   0  0  2  0  0  0  0  0  0  0  0  0
  147.8025  141.0883  153.4822 C   0  0  0  0  0  0  0  0  0  0  0  0
  149.7387  140.2529  154.7227 N   0  0  0  0  0  0  0  0  0  0  0  0
  150.8964  140.1687  155.4718 C   0  0  0  0  0  0  0  0  0  0  0  0
  151.4856  138.9718  155.1806 C   0  0  0  0  0  0  0  0  0  0  0  0
  150.6071  138.3863  154.2273 C   0  0  0  0  0  0  0  0  0  0  0  0
  149.5634  139.1526  153.9575 N   0  0  0  0  0  0  0  0  0  0  0  0
  145.9779  141.3288  155.3424 H   0  0  0  0  0  0  0  0  0  0  0  0
  146.5775  142.9832  155.2207 H   0  0  0  0  0  0  0  0  0  0  0  0
  146.1448  142.3025  156.7859 H   0  0  0  0  0  0  0  0  0  0  0  0
  147.9891  140.6247  156.5500 H   0  0  0  0  0  0  0  0  0  0  0  0
  149.1144  143.2973  156.2375 H   0  0  0  0  0  0  0  0  0  0  0  0
  149.4851  141.3900  158.4136 H   0  0  0  0  0  0  0  0  0  0  0  0
  150.4995  141.3605  157.0018 H   0  0  0  0  0  0  0  0  0  0  0  0
  150.7126  144.1312  156.5705 H   0  0  0  0  0  0  0  0  0  0  0  0
  149.2512  144.6727  158.4690 H   0  0  0  0  0  0  0  0  0  0  0  0
  149.3962  143.5895  159.8274 H   0  0  0  0  0  0  0  0  0  0  0  0
  151.3538  145.8055  159.0655 H   0  0  0  0  0  0  0  0  0  0  0  0
  150.2724  145.7984  160.4344 H   0  0  0  0  0  0  0  0  0  0  0  0
  152.6033  145.1975  161.1069 H   0  0  0  0  0  0  0  0  0  0  0  0
  151.4826  143.9018  161.4543 H   0  0  0  0  0  0  0  0  0  0  0  0
  153.3648  144.0647  159.0499 H   0  0  0  0  0  0  0  0  0  0  0  0
  153.5169  142.9778  160.4059 H   0  0  0  0  0  0  0  0  0  0  0  0
  151.4474  141.8169  159.8118 H   0  0  0  0  0  0  0  0  0  0  0  0
  152.5126  141.8238  158.4335 H   0  0  0  0  0  0  0  0  0  0  0  0
  149.3236  142.2519  154.4110 H   0  0  0  0  0  0  0  0  0  0  0  0
  147.1962  141.9668  153.2632 H   0  0  0  0  0  0  0  0  0  0  0  0
  147.1270  140.2591  153.6935 H   0  0  0  0  0  0  0  0  0  0  0  0
  148.3486  140.8482  152.5694 H   0  0  0  0  0  0  0  0  0  0  0  0
  151.2045  140.9612  156.1375 H   0  0  0  0  0  0  0  0  0  0  0  0
  152.4065  138.5769  155.5830 H   0  0  0  0  0  0  0  0  0  0  0  0
  150.6961  137.4342  153.7254 H   0  0  0  0  0  0  0  0  0  0  0  0
  1  2  1  0  0  0  0
  1 19  1  0  0  0  0
  1 20  1  0  0  0  0
  1 21  1  0  0  0  0
  2  3  1  0  0  0  0
  2 12  1  0  0  0  0
  2 22  1  0  0  0  0
  3  4  1  0  0  0  0
  3 23  1  0  0  0  0
  4  5  1  0  0  0  0
  4 24  1  0  0  0  0
  4 25  1  0  0  0  0
  5 11  1  0  0  0  0
  5  6  1  0  0  0  0
  5  7  1  0  0  0  0
  6 26  1  0  0  0  0
  7  8  1  0  0  0  0
  7 27  1  0  0  0  0
  7 28  1  0  0  0  0
  8  9  1  0  0  0  0
  8 29  1  0  0  0  0
  8 30  1  0  0  0  0
  9 10  1  0  0  0  0
  9 31  1  0  0  0  0
  9 32  1  0  0  0  0
 10 11  1  0  0  0  0
 10 33  1  0  0  0  0
 10 34  1  0  0  0  0
 11 35  1  0  0  0  0
 11 36  1  0  0  0  0
 12 13  1  0  0  0  0
 12 14  1  0  0  0  0
 12 37  1  0  0  0  0
 13 38  1  0  0  0  0
 13 39  1  0  0  0  0
 13 40  1  0  0  0  0
 14 18  1  0  0  0  0
 14 15  1  0  0  0  0
 15 16  2  0  0  0  0
 15 41  1  0  0  0  0
 16 17  1  0  0  0  0
 16 42  1  0  0  0  0
 17 18  2  0  0  0  0
 17 43  1  0  0  0  0
M  END
> <s_m_source_file>
AV-unprocessed.smi

> <i_m_source_file_index>
3311

> <i_lp_mmshare_version>
43012

> <i_f3d_flags>
0

> <s_epik_input>
bjFbY0hdW2NIXVtjSF1uMVtDQEBIXShbQ0gzXSlbQ0BIXShbQ0gzXSlbTkhdW0NIMl1DMihbT0hdKVtDSDJdW0NIMl1bQ0gyXVtDSDJdW0NIMl0y

> <s_epik_cmdline>
J2VwaWtfcHl0aG9uJywgJy1waCcsICc3LjAnLCAnLXRuJywgJzgnLCAnLW1hJywgJzIwMCcsICctbWV0YWxfYmluZGluZycsICctaW1hZScsICc8aW5maWxlLm1hZT4nLCAnLW9tYWUnLCAnPG91dGZpbGUubWFlPic=

> <r_lp_tautomer_probability>
1

> <r_epik_Ionization_Penalty>
2.222

> <r_epik_Ionization_Penalty_Charging>
0

> <r_epik_Ionization_Penalty_Neutral>
2.222

> <r_epik_State_Penalty>
2.36562

> <r_epik_Charging_Adjusted_Penalty>
2.36562

> <i_epik_Tot_Q>
0

> <i_epik_Tot_abs_Q>
0

> <r_epik_Metal_State_Penalty>
2.36435

> <b_epik_Metal_Only>
0

> <s_lp_Force_Field>
OPLS_2005

> <r_lp_Energy>
30.3398

> <b_lp_Chiralities_Consistent>
1

> <s_lp_Variant>
AV-unprocessed.smi:3311-5

> <Gold.Version>
5.8.1

> <Gold.Id.Protein>
6NUR|6NUR_protein|mol2

> <Gold.PLP.Fitness>
46.8268

> <Gold.PLP.PLP>
-40.0790

> <Gold.PLP.part.hbond>
-2.0000

> <Gold.PLP.part.metal>
0.0000

> <Gold.PLP.part.buried>
-6.1581

> <Gold.PLP.part.nonpolar>
-34.0027

> <Gold.PLP.part.repulsive>
1.4911

> <Gold.PLP.ligand.clash>
0.0000

> <Gold.PLP.ligand.torsion>
1.3254

> <Gold.PLP.Chemscore.Hbond>
2.0000

> <Gold.PLP.Chemscore.CHOScore>
1.1081

> <Gold.PLP.Chemscore.Metal>
0.0000

> <Gold.Chemscore.Hbonds>
donor molecule, donor type, donor heavy atom, donor atom, acceptor molecule, acceptor atom, score
      L1  H     3    23       P1  8028  0.93
      L1  H     6    26       P1  8028  0.83
      L1  C    17    43       P1  7948  0.25
      L1  C    17    43       P1  7949  0.44

> <Gold.PLP.Chemscore.Internal.Correction>
0.0743

> <Gold.Rescore>
     Score         DG    S(hbond)    S(metal)    S(lipo)     H(rot)  DE(clash)    DE(int)     intcor
     17.35     -19.11       1.94        0.00     106.20       2.07       0.17       1.59       ----

> <Gold.Chemscore.Fitness>
17.3500

> <Gold.Chemscore.DG>
-19.1056

> <Gold.Chemscore.ZeroCoef>
-5.4800

> <Gold.Chemscore.Hbond>
1.9448

> <Gold.Chemscore.Metal>
0.0000

> <Gold.Chemscore.Lipo>
106.2006

> <Gold.Chemscore.Internal_Hbond>
0.0000

> <Gold.Chemscore.DEClash>
0.1669

> <Gold.Chemscore.DEInternal>
1.5886

> <Gold.Chemscore.Rot>
2.0686

> <Gold.Chemscore.Internal.Correction>
   9.000000E+99

> <Gold.Chemscore.Hbonds>
donor molecule, donor type, donor heavy atom, donor atom, acceptor molecule, acceptor atom, score
      L1  H     3    23       P1  8028  0.85
      L1  H     6    26       P1  8028  0.80

> <Gold.Chemscore.Hbond.Weighted>
-6.4958

> <Gold.Chemscore.Metal.Weighted>
-0.0000

> <Gold.Chemscore.Lipo.Weighted>
-12.4255

> <Gold.Chemscore.Internal_Hbond.Weighted>
0.0000

> <Gold.Chemscore.DEClash.Weighted>
0.1669

> <Gold.Chemscore.DEInternal.Weighted>
1.5886

> <Gold.Chemscore.Rot.Weighted>
5.2957

> <Gold.Chemscore.Internal.Correction.Weighted>
   9.000000E+99

> <Gold.Protein.RotatedTorsions>
[ 6907 6896 6895 6894 ] final  176.87 input  -60.11 | X-H torsion
[ 7974 7965 7964 7962 ] final   39.79 input  175.53 | X-H torsion
[ 8008 7997 7996 7995 ] final  -63.12 input   59.86 | X-H torsion
[ 10167 10162 10161 10158 ] final -161.00 input  -65.29 | X-H torsion
[ 10718 10713 10712 10709 ] final -108.05 input   66.30 | X-H torsion
[ 10763 10752 10751 10750 ] final  -84.29 input  -60.55 | X-H torsion
[ 11005 11000 10999 10996 ] final -116.78 input  -57.11 | X-H torsion

> <Gold.Protein.ActiveResidues>
 VAL166  LYS551  ARG553  GLY616  TRP617  ASP618  TYR619  PRO620  LYS621  CYS622 
 ASP623  PHE694  ASN695  SER759  ASP760  ASP761  ALA762  ILE779  LEU786  VAL792 
 PHE793  MET794  SER795  GLU796  ALA797  LYS798  CYS799  TRP800  GLU811  SER814 

> <Gold.Protein.RotatedAtoms>
  151.7132  133.3312  159.3295 H   0  0  0  0  0  0  0  0  0  0  0  0  # atno 6907 bound_to 6896
  150.7685  134.6514  159.6299 H   0  0  0  0  0  0  0  0  0  0  0  0  # atno 6908 bound_to 6896
  152.3698  134.6753  160.0231 H   0  0  0  0  0  0  0  0  0  0  0  0  # atno 6909 bound_to 6896
  146.0956  139.5609  142.9447 H   0  0  0  0  0  0  0  0  0  0  0  0  # atno 7974 bound_to 7965
  154.4537  140.0981  156.6693 H   0  0  0  0  0  0  0  0  0  0  0  0  # atno 8008 bound_to 7997
  155.5206  140.3479  155.4387 H   0  0  0  0  0  0  0  0  0  0  0  0  # atno 8009 bound_to 7997
  156.0733  140.1355  156.9791 H   0  0  0  0  0  0  0  0  0  0  0  0  # atno 8010 bound_to 7997
  139.6497  144.0106  152.2153 H   0  0  0  0  0  0  0  0  0  0  0  0  # atno 10167 bound_to 10162
  156.0466  130.5693  150.7907 H   0  0  0  0  0  0  0  0  0  0  0  0  # atno 10718 bound_to 10713
  154.5977  135.5526  153.7343 H   0  0  0  0  0  0  0  0  0  0  0  0  # atno 10763 bound_to 10752
  153.0142  135.6359  154.1758 H   0  0  0  0  0  0  0  0  0  0  0  0  # atno 10764 bound_to 10752
  154.1699  135.2892  155.3064 H   0  0  0  0  0  0  0  0  0  0  0  0  # atno 10765 bound_to 10752
  141.0399  133.9852  157.3011 H   0  0  0  0  0  0  0  0  0  0  0  0  # atno 11005 bound_to 11000
  145.5955  141.0363  143.2047 LP  0  0  0  0  0  0  0  0  0  0  0  0  # atno 17320 bound_to 7965
  144.7393  139.7495  143.7317 LP  0  0  0  0  0  0  0  0  0  0  0  0  # atno 17321 bound_to 7965
  139.9817  144.6423  150.7894 LP  0  0  0  0  0  0  0  0  0  0  0  0  # atno 17342 bound_to 10162
  140.7532  143.3004  151.3096 LP  0  0  0  0  0  0  0  0  0  0  0  0  # atno 17343 bound_to 10162
  157.5349  131.0938  150.9906 LP  0  0  0  0  0  0  0  0  0  0  0  0  # atno 17370 bound_to 10713
  157.0203  130.5671  149.5330 LP  0  0  0  0  0  0  0  0  0  0  0  0  # atno 17371 bound_to 10713
  139.9268  135.0201  156.8262 LP  0  0  0  0  0  0  0  0  0  0  0  0  # atno 17394 bound_to 11000
  140.6254  133.9955  155.7637 LP  0  0  0  0  0  0  0  0  0  0  0  0  # atno 17395 bound_to 11000

$$$$
