AV-unprocessed.smi:1608|AV-procd|sdf|6468|dock5
  -GOLD-   22720 7123D 1   1.00000     0.00000
 Structure written by MMmdl.
 42 43  0  0  0  0  0  0  0  0  1 V2000
  145.7858  132.0486  149.8177 C   0  0  0  0  0  0  0  0  0  0  0  0
  145.2138  133.0764  150.6910 N   0  0  0  0  0  0  0  0  0  0  0  0
  146.0862  134.0429  151.2258 C   0  0  0  0  0  0  0  0  0  0  0  0
  145.6679  135.0228  152.0472 C   0  0  0  0  0  0  0  0  0  0  0  0
  146.6229  135.9312  152.5247 N   0  0  0  0  0  0  0  0  0  0  0  0
  146.4334  137.0828  153.1944 C   0  0  0  0  0  0  0  0  0  0  0  0
  145.3483  137.5371  153.5559 O   0  0  0  0  0  0  0  0  0  0  0  0
  147.6033  137.6873  153.4478 N   0  0  0  0  0  0  0  0  0  0  0  0
  147.7644  138.9394  154.1809 C   0  0  1  0  0  0  0  0  0  0  0  0
  149.2544  139.2681  154.3717 C   0  0  0  0  0  0  0  0  0  0  0  0
  149.4019  140.6140  155.0900 C   0  0  0  0  0  0  0  0  0  0  0  0
  148.6644  141.7336  154.3353 C   0  0  0  0  0  0  0  0  0  0  0  0
  147.2519  141.3828  154.0835 N   0  0  0  0  0  0  0  0  0  0  0  0
  145.9969  142.0586  155.0822 S   0  0  0  0  0  0  0  0  0  0  0  0
  145.3552  143.4780  154.1035 C   0  0  0  0  0  0  0  0  0  0  0  0
  144.9250  141.0576  155.1938 O   0  0  0  0  0  0  0  0  0  0  0  0
  146.6279  142.5892  156.3003 O   0  0  0  0  0  0  0  0  0  0  0  0
  147.0488  140.0765  153.4252 C   0  0  0  0  0  0  0  0  0  0  0  0
  144.2449  135.0622  152.3517 C   0  0  0  0  0  0  0  0  0  0  0  0
  143.4037  134.1422  151.8397 C   0  0  0  0  0  0  0  0  0  0  0  0
  143.8768  133.0694  150.9612 C   0  0  0  0  0  0  0  0  0  0  0  0
  143.1189  132.2191  150.4943 O   0  0  0  0  0  0  0  0  0  0  0  0
  146.8670  132.1402  149.7098 H   0  0  0  0  0  0  0  0  0  0  0  0
  145.3516  132.1118  148.8190 H   0  0  0  0  0  0  0  0  0  0  0  0
  145.5837  131.0522  150.2135 H   0  0  0  0  0  0  0  0  0  0  0  0
  147.1202  133.9306  150.9322 H   0  0  0  0  0  0  0  0  0  0  0  0
  147.5813  135.6711  152.3437 H   0  0  0  0  0  0  0  0  0  0  0  0
  148.4477  137.2452  153.1154 H   0  0  0  0  0  0  0  0  0  0  0  0
  147.3005  138.8305  155.1613 H   0  0  0  0  0  0  0  0  0  0  0  0
  149.7486  138.4856  154.9486 H   0  0  0  0  0  0  0  0  0  0  0  0
  149.7568  139.3101  153.4042 H   0  0  0  0  0  0  0  0  0  0  0  0
  149.0187  140.5295  156.1060 H   0  0  0  0  0  0  0  0  0  0  0  0
  150.4577  140.8683  155.1849 H   0  0  0  0  0  0  0  0  0  0  0  0
  148.7315  142.6712  154.8865 H   0  0  0  0  0  0  0  0  0  0  0  0
  149.1515  141.9066  153.3751 H   0  0  0  0  0  0  0  0  0  0  0  0
  144.5464  143.9543  154.6570 H   0  0  0  0  0  0  0  0  0  0  0  0
  144.9689  143.1265  153.1484 H   0  0  0  0  0  0  0  0  0  0  0  0
  146.1470  144.2070  153.9413 H   0  0  0  0  0  0  0  0  0  0  0  0
  147.4353  140.1453  152.4073 H   0  0  0  0  0  0  0  0  0  0  0  0
  145.9838  139.8631  153.3342 H   0  0  0  0  0  0  0  0  0  0  0  0
  143.8202  135.8321  152.9750 H   0  0  0  0  0  0  0  0  0  0  0  0
  142.3513  134.2000  152.0760 H   0  0  0  0  0  0  0  0  0  0  0  0
  1  2  1  0  0  0  0
  1 23  1  0  0  0  0
  1 24  1  0  0  0  0
  1 25  1  0  0  0  0
  2 21  1  0  0  0  0
  2  3  1  0  0  0  0
  3  4  2  0  0  0  0
  3 26  1  0  0  0  0
  4  5  1  0  0  0  0
  4 19  1  0  0  0  0
  5  6  1  0  0  0  0
  5 27  1  0  0  0  0
  6  7  2  0  0  0  0
  6  8  1  0  0  0  0
  8  9  1  0  0  0  0
  8 28  1  0  0  0  0
  9 18  1  0  0  0  0
  9 10  1  0  0  0  0
  9 29  1  0  0  0  0
 10 11  1  0  0  0  0
 10 30  1  0  0  0  0
 10 31  1  0  0  0  0
 11 12  1  0  0  0  0
 11 32  1  0  0  0  0
 11 33  1  0  0  0  0
 12 13  1  0  0  0  0
 12 34  1  0  0  0  0
 12 35  1  0  0  0  0
 13 14  1  0  0  0  0
 13 18  1  0  0  0  0
 14 15  1  0  0  0  0
 14 16  2  0  0  0  0
 14 17  2  0  0  0  0
 15 36  1  0  0  0  0
 15 37  1  0  0  0  0
 15 38  1  0  0  0  0
 18 39  1  0  0  0  0
 18 40  1  0  0  0  0
 19 20  2  0  0  0  0
 19 41  1  0  0  0  0
 20 21  1  0  0  0  0
 20 42  1  0  0  0  0
 21 22  2  0  0  0  0
M  END
> <s_m_source_file>
AV-unprocessed.smi

> <i_m_source_file_index>
1608

> <i_lp_mmshare_version>
43012

> <i_f3d_flags>
0

> <s_epik_input>
Tz1jMVtjSF1bY0hdYyhbY0hdbjFbQ0gzXSlbTkhdQyg9TylbTkhdW0NAQEhdMltDSDJdW0NIMl1bQ0gyXU4oW0NIMl0yKVMoPU8pKD1PKVtDSDNd

> <s_epik_cmdline>
J2VwaWtfcHl0aG9uJywgJy1waCcsICc3LjAnLCAnLXRuJywgJzgnLCAnLW1hJywgJzIwMCcsICctbWV0YWxfYmluZGluZycsICctaW1hZScsICc8aW5maWxlLm1hZT4nLCAnLW9tYWUnLCAnPG91dGZpbGUubWFlPic=

> <r_lp_tautomer_probability>
1

> <r_epik_Ionization_Penalty>
2.44111e-05

> <r_epik_Ionization_Penalty_Charging>
5.7429e-06

> <r_epik_Ionization_Penalty_Neutral>
1.86682e-05

> <r_epik_State_Penalty>
-0

> <r_epik_Charging_Adjusted_Penalty>
5.7429e-06

> <i_epik_Tot_Q>
0

> <i_epik_Tot_abs_Q>
0

> <r_epik_Metal_State_Penalty>
-0

> <b_epik_Metal_Only>
0

> <s_lp_Force_Field>
OPLS_2005

> <r_lp_Energy>
11.6091

> <b_lp_Chiralities_Consistent>
1

> <s_lp_Variant>
AV-unprocessed.smi:1608-2

> <Gold.Version>
5.8.1

> <Gold.Id.Protein>
6NUR|6NUR_protein|mol2

> <Gold.PLP.Fitness>
40.3825

> <Gold.PLP.PLP>
-35.2898

> <Gold.PLP.part.hbond>
-1.6359

> <Gold.PLP.part.metal>
0.0000

> <Gold.PLP.part.buried>
-5.2825

> <Gold.PLP.part.nonpolar>
-31.4215

> <Gold.PLP.part.repulsive>
0.9958

> <Gold.PLP.ligand.clash>
0.0000

> <Gold.PLP.ligand.torsion>
1.0610

> <Gold.PLP.Chemscore.Hbond>
1.7200

> <Gold.PLP.Chemscore.CHOScore>
0.0000

> <Gold.PLP.Chemscore.Metal>
0.0000

> <Gold.Chemscore.Hbonds>
donor molecule, donor type, donor heavy atom, donor atom, acceptor molecule, acceptor atom, score
      L1  H     5    27       P1  7948  0.88
      L1  H     8    28       P1  7948  0.80

> <Gold.PLP.Chemscore.Internal.Correction>
2.0546

> <Gold.Rescore>
     Score         DG    S(hbond)    S(metal)    S(lipo)     H(rot)  DE(clash)    DE(int)     intcor
     12.73     -15.94       1.64        0.00      64.51       1.00       0.25       2.96       ----

> <Gold.Chemscore.Fitness>
12.7259

> <Gold.Chemscore.DG>
-15.9402

> <Gold.Chemscore.ZeroCoef>
-5.4800

> <Gold.Chemscore.Hbond>
1.6386

> <Gold.Chemscore.Metal>
0.0000

> <Gold.Chemscore.Lipo>
64.5057

> <Gold.Chemscore.Internal_Hbond>
0.0000

> <Gold.Chemscore.DEClash>
0.2513

> <Gold.Chemscore.DEInternal>
2.9629

> <Gold.Chemscore.Rot>
1.0000

> <Gold.Chemscore.Internal.Correction>
   9.000000E+99

> <Gold.Chemscore.Hbonds>
donor molecule, donor type, donor heavy atom, donor atom, acceptor molecule, acceptor atom, score
      L1  H     5    27       P1  7948  0.81
      L1  H     8    28       P1  7948  0.79

> <Gold.Chemscore.Hbond.Weighted>
-5.4730

> <Gold.Chemscore.Metal.Weighted>
-0.0000

> <Gold.Chemscore.Lipo.Weighted>
-7.5472

> <Gold.Chemscore.Internal_Hbond.Weighted>
0.0000

> <Gold.Chemscore.DEClash.Weighted>
0.2513

> <Gold.Chemscore.DEInternal.Weighted>
2.9629

> <Gold.Chemscore.Rot.Weighted>
2.5600

> <Gold.Chemscore.Internal.Correction.Weighted>
   9.000000E+99

> <Gold.Protein.RotatedTorsions>
[ 6907 6896 6895 6894 ] final    2.75 input  -60.11 | X-H torsion
[ 7974 7965 7964 7962 ] final  -38.20 input  175.53 | X-H torsion
[ 8008 7997 7996 7995 ] final  108.37 input   59.86 | X-H torsion
[ 10167 10162 10161 10158 ] final  149.52 input  -65.29 | X-H torsion
[ 10718 10713 10712 10709 ] final -149.80 input   66.30 | X-H torsion
[ 10763 10752 10751 10750 ] final   85.07 input  -60.55 | X-H torsion
[ 11005 11000 10999 10996 ] final  -88.88 input  -57.11 | X-H torsion

> <Gold.Protein.ActiveResidues>
 VAL166  LYS551  ARG553  GLY616  TRP617  ASP618  TYR619  PRO620  LYS621  CYS622 
 ASP623  PHE694  ASN695  SER759  ASP760  ASP761  ALA762  ILE779  LEU786  VAL792 
 PHE793  MET794  SER795  GLU796  ALA797  LYS798  CYS799  TRP800  GLU811  SER814 

> <Gold.Protein.RotatedAtoms>
  151.6138  135.1038  160.0086 H   0  0  0  0  0  0  0  0  0  0  0  0  # atno 6907 bound_to 6896
  152.4194  133.7087  159.6477 H   0  0  0  0  0  0  0  0  0  0  0  0  # atno 6908 bound_to 6896
  150.8081  133.8398  159.3217 H   0  0  0  0  0  0  0  0  0  0  0  0  # atno 6909 bound_to 6896
  146.0507  140.6485  142.9043 H   0  0  0  0  0  0  0  0  0  0  0  0  # atno 7974 bound_to 7965
  156.1897  140.3077  155.9309 H   0  0  0  0  0  0  0  0  0  0  0  0  # atno 8008 bound_to 7997
  155.3200  140.0455  157.3056 H   0  0  0  0  0  0  0  0  0  0  0  0  # atno 8009 bound_to 7997
  154.5438  140.2270  155.8606 H   0  0  0  0  0  0  0  0  0  0  0  0  # atno 8010 bound_to 7997
  139.4860  144.5595  151.7257 H   0  0  0  0  0  0  0  0  0  0  0  0  # atno 10167 bound_to 10162
  156.4378  130.8107  151.2336 H   0  0  0  0  0  0  0  0  0  0  0  0  # atno 10718 bound_to 10713
  153.1440  135.4631  154.9539 H   0  0  0  0  0  0  0  0  0  0  0  0  # atno 10763 bound_to 10752
  154.7771  135.3176  154.8071 H   0  0  0  0  0  0  0  0  0  0  0  0  # atno 10764 bound_to 10752
  153.8588  135.6914  153.4839 H   0  0  0  0  0  0  0  0  0  0  0  0  # atno 10765 bound_to 10752
  141.1594  133.7596  156.9515 H   0  0  0  0  0  0  0  0  0  0  0  0  # atno 11005 bound_to 11000
  144.7121  140.4077  143.7072 LP  0  0  0  0  0  0  0  0  0  0  0  0  # atno 17320 bound_to 7965
  145.6729  139.1603  143.2744 LP  0  0  0  0  0  0  0  0  0  0  0  0  # atno 17321 bound_to 7965
  140.5162  144.0949  150.6009 LP  0  0  0  0  0  0  0  0  0  0  0  0  # atno 17342 bound_to 10162
  140.3892  143.2761  152.0081 LP  0  0  0  0  0  0  0  0  0  0  0  0  # atno 17343 bound_to 10162
  157.7507  131.0178  150.3599 LP  0  0  0  0  0  0  0  0  0  0  0  0  # atno 17370 bound_to 10713
  156.3950  130.3905  149.7001 LP  0  0  0  0  0  0  0  0  0  0  0  0  # atno 17371 bound_to 10713
  140.1254  134.9390  157.2263 LP  0  0  0  0  0  0  0  0  0  0  0  0  # atno 17394 bound_to 11000
  140.3019  134.3122  155.7287 LP  0  0  0  0  0  0  0  0  0  0  0  0  # atno 17395 bound_to 11000

$$$$
