AV-unprocessed.smi:1078|AV-procd|sdf|4703|dock6
  -GOLD-   22720 3223D 1   1.00000     0.00000
 Structure written by MMmdl.
 40 41  0  0  0  0  0  0  0  0  2 V2000
  146.9923  142.1508  155.0389 C   0  0  0  0  0  0  0  0  0  0  0  0
  148.2663  141.4109  155.4817 C   0  0  1  0  0  0  0  0  0  0  0  0
  149.2002  141.0733  154.2954 C   0  0  0  0  0  0  0  0  0  0  0  0
  149.9350  139.8346  154.4802 N   0  0  0  0  0  0  0  0  0  0  0  0
  149.4535  138.5420  154.4819 C   0  0  0  0  0  0  0  0  0  0  0  0
  150.5193  137.7123  154.6819 C   0  0  0  0  0  0  0  0  0  0  0  0
  151.6259  138.6012  154.7840 C   0  0  0  0  0  0  0  0  0  0  0  0
  151.2734  139.8706  154.6583 N   0  0  0  0  0  0  0  0  0  0  0  0
  148.9674  142.2216  156.5025 N   0  3  0  0  0  0  0  0  0  0  0  0
  150.3503  141.8003  156.8141 C   0  0  0  0  0  0  0  0  0  0  0  0
  150.8843  142.5102  158.0720 C   0  0  0  0  0  0  0  0  0  0  0  0
  151.5654  143.8446  157.7048 C   0  0  0  0  0  0  0  0  0  0  0  0
  152.1045  144.5701  158.9483 C   0  0  0  0  0  0  0  0  0  0  0  0
  153.0703  143.6755  159.7395 C   0  0  0  0  0  0  0  0  0  0  0  0
  152.4064  142.3416  160.1128 C   0  0  0  0  0  0  0  0  0  0  0  0
  151.8651  141.6203  158.8678 C   0  0  0  0  0  0  0  0  0  0  0  0
  146.3856  141.5428  154.3672 H   0  0  0  0  0  0  0  0  0  0  0  0
  147.2336  143.0795  154.5207 H   0  0  0  0  0  0  0  0  0  0  0  0
  146.3662  142.4009  155.8960 H   0  0  0  0  0  0  0  0  0  0  0  0
  147.9504  140.4813  155.9577 H   0  0  0  0  0  0  0  0  0  0  0  0
  148.6210  140.9916  153.3744 H   0  0  0  0  0  0  0  0  0  0  0  0
  149.9297  141.8676  154.1354 H   0  0  0  0  0  0  0  0  0  0  0  0
  148.4051  138.3212  154.3447 H   0  0  0  0  0  0  0  0  0  0  0  0
  150.5105  136.6339  154.7431 H   0  0  0  0  0  0  0  0  0  0  0  0
  152.6674  138.3631  154.9430 H   0  0  0  0  0  0  0  0  0  0  0  0
  148.9726  143.1883  156.2093 H   0  0  0  0  0  0  0  0  0  0  0  0
  150.3880  140.7185  156.9493 H   0  0  0  0  0  0  0  0  0  0  0  0
  150.9910  142.0376  155.9649 H   0  0  0  0  0  0  0  0  0  0  0  0
  150.0335  142.7427  158.7150 H   0  0  0  0  0  0  0  0  0  0  0  0
  152.3850  143.6616  157.0083 H   0  0  0  0  0  0  0  0  0  0  0  0
  150.8602  144.4947  157.1855 H   0  0  0  0  0  0  0  0  0  0  0  0
  152.6098  145.4898  158.6517 H   0  0  0  0  0  0  0  0  0  0  0  0
  151.2729  144.8669  159.5889 H   0  0  0  0  0  0  0  0  0  0  0  0
  153.9638  143.4851  159.1436 H   0  0  0  0  0  0  0  0  0  0  0  0
  153.4030  144.1916  160.6405 H   0  0  0  0  0  0  0  0  0  0  0  0
  153.1234  141.7032  160.6298 H   0  0  0  0  0  0  0  0  0  0  0  0
  151.5913  142.5224  160.8149 H   0  0  0  0  0  0  0  0  0  0  0  0
  151.3760  140.6960  159.1761 H   0  0  0  0  0  0  0  0  0  0  0  0
  152.6993  141.3277  158.2286 H   0  0  0  0  0  0  0  0  0  0  0  0
  148.4368  142.1520  157.3592 H   0  0  0  0  0  0  0  0  0  0  0  0
  1  2  1  0  0  0  0
  1 17  1  0  0  0  0
  1 18  1  0  0  0  0
  1 19  1  0  0  0  0
  2  3  1  0  0  0  0
  2  9  1  0  0  0  0
  2 20  1  0  0  0  0
  3  4  1  0  0  0  0
  3 21  1  0  0  0  0
  3 22  1  0  0  0  0
  4  8  1  0  0  0  0
  4  5  1  0  0  0  0
  5  6  2  0  0  0  0
  5 23  1  0  0  0  0
  6  7  1  0  0  0  0
  6 24  1  0  0  0  0
  7  8  2  0  0  0  0
  7 25  1  0  0  0  0
  9 10  1  0  0  0  0
  9 26  1  0  0  0  0
  9 40  1  0  0  0  0
 10 11  1  0  0  0  0
 10 27  1  0  0  0  0
 10 28  1  0  0  0  0
 11 16  1  0  0  0  0
 11 12  1  0  0  0  0
 11 29  1  0  0  0  0
 12 13  1  0  0  0  0
 12 30  1  0  0  0  0
 12 31  1  0  0  0  0
 13 14  1  0  0  0  0
 13 32  1  0  0  0  0
 13 33  1  0  0  0  0
 14 15  1  0  0  0  0
 14 34  1  0  0  0  0
 14 35  1  0  0  0  0
 15 16  1  0  0  0  0
 15 36  1  0  0  0  0
 15 37  1  0  0  0  0
 16 38  1  0  0  0  0
 16 39  1  0  0  0  0
M  CHG  1   9   1
M  END
> <s_m_source_file>
AV-unprocessed.smi

> <i_m_source_file_index>
1078

> <i_lp_mmshare_version>
43012

> <i_f3d_flags>
0

> <s_epik_input>
bjFbY0hdW2NIXVtjSF1uMVtDSDJdW0NAQEhdKFtDSDNdKVtOSF1bQ0gyXVtDSF0yW0NIMl1bQ0gyXVtDSDJdW0NIMl1bQ0gyXTI=

> <s_epik_cmdline>
J2VwaWtfcHl0aG9uJywgJy1waCcsICc3LjAnLCAnLXRuJywgJzgnLCAnLW1hJywgJzIwMCcsICctbWV0YWxfYmluZGluZycsICctaW1hZScsICc8aW5maWxlLm1hZT4nLCAnLW9tYWUnLCAnPG91dGZpbGUubWFlPic=

> <r_lp_tautomer_probability>
1

> <r_epik_Ionization_Penalty>
0.00174474

> <r_epik_Ionization_Penalty_Charging>
0.00174052

> <r_epik_Ionization_Penalty_Neutral>
4.21324e-06

> <r_epik_State_Penalty>
0.00117783

> <r_epik_Charging_Adjusted_Penalty>
0.00291835

> <i_epik_Tot_Q>
1

> <i_epik_Tot_abs_Q>
1

> <r_epik_Metal_State_Penalty>
-0

> <b_epik_Metal_Only>
0

> <s_lp_Force_Field>
OPLS_2005

> <r_lp_Energy>
15.419

> <b_lp_Chiralities_Consistent>
1

> <s_lp_Variant>
AV-unprocessed.smi:1078-2

> <Gold.Version>
5.8.1

> <Gold.Id.Protein>
6NUR|6NUR_protein|mol2

> <Gold.PLP.Fitness>
48.6255

> <Gold.PLP.PLP>
-41.6187

> <Gold.PLP.part.hbond>
-1.9944

> <Gold.PLP.part.metal>
0.0000

> <Gold.PLP.part.buried>
-3.6741

> <Gold.PLP.part.nonpolar>
-36.4874

> <Gold.PLP.part.repulsive>
0.1063

> <Gold.PLP.ligand.clash>
0.0000

> <Gold.PLP.ligand.torsion>
1.0128

> <Gold.PLP.Chemscore.Hbond>
3.0000

> <Gold.PLP.Chemscore.CHOScore>
0.0000

> <Gold.PLP.Chemscore.Metal>
0.0000

> <Gold.Chemscore.Hbonds>
donor molecule, donor type, donor heavy atom, donor atom, acceptor molecule, acceptor atom, score
      L1  H     9    26       P1  8028  2.00
      P1  H  7989  7998       L1     8  0.95

> <Gold.PLP.Chemscore.Internal.Correction>
0.0324

> <Gold.Rescore>
     Score         DG    S(hbond)    S(metal)    S(lipo)     H(rot)  DE(clash)    DE(int)     intcor
     19.92     -21.06       1.94        0.00     111.31       1.54       0.11       1.04       ----

> <Gold.Chemscore.Fitness>
19.9177

> <Gold.Chemscore.DG>
-21.0628

> <Gold.Chemscore.ZeroCoef>
-5.4800

> <Gold.Chemscore.Hbond>
1.9448

> <Gold.Chemscore.Metal>
0.0000

> <Gold.Chemscore.Lipo>
111.3144

> <Gold.Chemscore.Internal_Hbond>
0.0000

> <Gold.Chemscore.DEClash>
0.1068

> <Gold.Chemscore.DEInternal>
1.0383

> <Gold.Chemscore.Rot>
1.5378

> <Gold.Chemscore.Internal.Correction>
   9.000000E+99

> <Gold.Chemscore.Hbonds>
donor molecule, donor type, donor heavy atom, donor atom, acceptor molecule, acceptor atom, score
      L1  H     9    26       P1  8028  0.99
      P1  H  7989  7998       L1     8  0.21

> <Gold.Chemscore.Hbond.Weighted>
-6.4957

> <Gold.Chemscore.Metal.Weighted>
-0.0000

> <Gold.Chemscore.Lipo.Weighted>
-13.0238

> <Gold.Chemscore.Internal_Hbond.Weighted>
0.0000

> <Gold.Chemscore.DEClash.Weighted>
0.1068

> <Gold.Chemscore.DEInternal.Weighted>
1.0383

> <Gold.Chemscore.Rot.Weighted>
3.9368

> <Gold.Chemscore.Internal.Correction.Weighted>
   9.000000E+99

> <Gold.Protein.RotatedTorsions>
[ 6907 6896 6895 6894 ] final  -88.35 input  -60.11 | X-H torsion
[ 7974 7965 7964 7962 ] final   27.80 input  175.53 | X-H torsion
[ 8008 7997 7996 7995 ] final -103.79 input   59.86 | X-H torsion
[ 10167 10162 10161 10158 ] final   18.15 input  -65.29 | X-H torsion
[ 10718 10713 10712 10709 ] final  145.11 input   66.30 | X-H torsion
[ 10763 10752 10751 10750 ] final  -74.62 input  -60.55 | X-H torsion
[ 11005 11000 10999 10996 ] final   42.05 input  -57.11 | X-H torsion

> <Gold.Protein.ActiveResidues>
 VAL166  LYS551  ARG553  GLY616  TRP617  ASP618  TYR619  PRO620  LYS621  CYS622 
 ASP623  PHE694  ASN695  SER759  ASP760  ASP761  ALA762  ILE779  LEU786  VAL792 
 PHE793  MET794  SER795  GLU796  ALA797  LYS798  CYS799  TRP800  GLU811  SER814 

> <Gold.Protein.RotatedAtoms>
  150.6868  134.2754  159.4605 H   0  0  0  0  0  0  0  0  0  0  0  0  # atno 6907 bound_to 6896
  152.0673  134.9553  160.0584 H   0  0  0  0  0  0  0  0  0  0  0  0  # atno 6908 bound_to 6896
  152.0957  133.4189  159.4601 H   0  0  0  0  0  0  0  0  0  0  0  0  # atno 6909 bound_to 6896
  146.1764  139.7142  142.8931 H   0  0  0  0  0  0  0  0  0  0  0  0  # atno 7974 bound_to 7965
  154.8760  140.0421  157.1754 H   0  0  0  0  0  0  0  0  0  0  0  0  # atno 8008 bound_to 7997
  154.8689  140.2955  155.5473 H   0  0  0  0  0  0  0  0  0  0  0  0  # atno 8009 bound_to 7997
  156.2999  140.2433  156.3674 H   0  0  0  0  0  0  0  0  0  0  0  0  # atno 8010 bound_to 7997
  140.5674  143.9224  150.6687 H   0  0  0  0  0  0  0  0  0  0  0  0  # atno 10167 bound_to 10162
  157.3491  131.0948  151.1016 H   0  0  0  0  0  0  0  0  0  0  0  0  # atno 10718 bound_to 10713
  154.4756  135.5858  153.6352 H   0  0  0  0  0  0  0  0  0  0  0  0  # atno 10763 bound_to 10752
  152.9840  135.6077  154.3311 H   0  0  0  0  0  0  0  0  0  0  0  0  # atno 10764 bound_to 10752
  154.3198  135.2844  155.2504 H   0  0  0  0  0  0  0  0  0  0  0  0  # atno 10765 bound_to 10752
  140.1776  134.4144  155.8219 H   0  0  0  0  0  0  0  0  0  0  0  0  # atno 11005 bound_to 11000
  145.4199  141.0405  143.2969 LP  0  0  0  0  0  0  0  0  0  0  0  0  # atno 17320 bound_to 7965
  144.8243  139.5737  143.6972 LP  0  0  0  0  0  0  0  0  0  0  0  0  # atno 17321 bound_to 7965
  140.2691  143.3469  152.1254 LP  0  0  0  0  0  0  0  0  0  0  0  0  # atno 17342 bound_to 10162
  139.5100  144.6877  151.5844 LP  0  0  0  0  0  0  0  0  0  0  0  0  # atno 17343 bound_to 10162
  157.2198  130.6476  149.5806 LP  0  0  0  0  0  0  0  0  0  0  0  0  # atno 17370 bound_to 10713
  155.9719  130.4633  150.6176 LP  0  0  0  0  0  0  0  0  0  0  0  0  # atno 17371 bound_to 10713
  141.2221  133.6985  156.7874 LP  0  0  0  0  0  0  0  0  0  0  0  0  # atno 17394 bound_to 11000
  140.2305  134.8689  157.3471 LP  0  0  0  0  0  0  0  0  0  0  0  0  # atno 17395 bound_to 11000

$$$$
