AV-unprocessed.smi:515|AV-procd|sdf|2783|dock1
  -GOLD-   2262023253D 1   1.00000     0.00000
 Structure written by MMmdl.
 47 49  0  0  0  0  0  0  0  0  3 V2000
  152.3532  131.3179  157.2243 C   0  0  0  0  0  0  0  0  0  0  0  0
  150.9580  131.7624  156.7797 C   0  0  0  0  0  0  0  0  0  0  0  0
  150.5407  132.8292  157.6120 O   0  0  0  0  0  0  0  0  0  0  0  0
  149.5759  133.6704  157.0034 C   0  0  0  0  0  0  0  0  0  0  0  0
  150.0917  134.1435  155.6360 C   0  0  0  0  0  0  0  0  0  0  0  0
  149.5526  135.4504  155.2678 N   0  0  0  0  0  0  0  0  0  0  0  0
  148.3035  135.7223  154.8059 C   0  0  0  0  0  0  0  0  0  0  0  0
  147.2457  134.6772  154.5921 C   0  0  0  0  0  0  0  0  0  0  0  0
  146.8997  134.7845  153.1522 N   0  3  0  0  0  0  0  0  0  0  0  0
  146.5394  133.4905  152.5179 C   0  0  0  0  0  0  0  0  0  0  0  0
  146.2452  133.6913  151.0222 C   0  0  0  0  0  0  0  0  0  0  0  0
  145.2092  134.6525  150.8638 O   0  0  0  0  0  0  0  0  0  0  0  0
  145.5761  135.9216  151.3905 C   0  0  0  0  0  0  0  0  0  0  0  0
  145.8471  135.7958  152.8990 C   0  0  0  0  0  0  0  0  0  0  0  0
  148.0827  137.0145  154.5513 N   0  0  0  0  0  0  0  0  0  0  0  0
  149.2883  137.6136  154.8819 C   0  0  0  0  0  0  0  0  0  0  0  0
  150.1894  136.6950  155.3205 C   0  0  0  0  0  0  0  0  0  0  0  0
  151.5617  137.0352  155.7608 C   0  0  0  0  0  0  0  0  0  0  0  0
  152.3374  136.1678  156.1562 O   0  0  0  0  0  0  0  0  0  0  0  0
  151.8158  138.3787  155.6670 N   0  5  0  0  0  0  0  0  0  0  0  0
  150.9340  139.3422  155.2270 C   0  0  0  0  0  0  0  0  0  0  0  0
  151.2428  140.5334  155.1789 O   0  0  0  0  0  0  0  0  0  0  0  0
  149.6741  138.9803  154.8281 N   0  0  0  0  0  0  0  0  0  0  0  0
  148.7147  139.9824  154.3552 C   0  0  0  0  0  0  0  0  0  0  0  0
  152.7169  130.4964  156.6071 H   0  0  0  0  0  0  0  0  0  0  0  0
  152.3439  130.9801  158.2610 H   0  0  0  0  0  0  0  0  0  0  0  0
  153.0676  132.1380  157.1469 H   0  0  0  0  0  0  0  0  0  0  0  0
  150.9810  132.0843  155.7376 H   0  0  0  0  0  0  0  0  0  0  0  0
  150.2592  130.9281  156.8553 H   0  0  0  0  0  0  0  0  0  0  0  0
  148.6339  133.1349  156.8792 H   0  0  0  0  0  0  0  0  0  0  0  0
  149.3806  134.5303  157.6459 H   0  0  0  0  0  0  0  0  0  0  0  0
  151.1791  134.1821  155.6323 H   0  0  0  0  0  0  0  0  0  0  0  0
  149.8393  133.4166  154.8651 H   0  0  0  0  0  0  0  0  0  0  0  0
  147.5701  133.6732  154.8626 H   0  0  0  0  0  0  0  0  0  0  0  0
  146.3870  134.9265  155.2169 H   0  0  0  0  0  0  0  0  0  0  0  0
  147.3497  132.7696  152.6279 H   0  0  0  0  0  0  0  0  0  0  0  0
  145.6657  133.0685  153.0173 H   0  0  0  0  0  0  0  0  0  0  0  0
  147.1414  134.0117  150.4882 H   0  0  0  0  0  0  0  0  0  0  0  0
  145.9263  132.7508  150.5729 H   0  0  0  0  0  0  0  0  0  0  0  0
  146.4531  136.3069  150.8676 H   0  0  0  0  0  0  0  0  0  0  0  0
  144.7636  136.6264  151.2123 H   0  0  0  0  0  0  0  0  0  0  0  0
  144.9323  135.5122  153.4223 H   0  0  0  0  0  0  0  0  0  0  0  0
  146.1589  136.7623  153.2968 H   0  0  0  0  0  0  0  0  0  0  0  0
  148.4560  140.6690  155.1619 H   0  0  0  0  0  0  0  0  0  0  0  0
  147.7884  139.5392  153.9912 H   0  0  0  0  0  0  0  0  0  0  0  0
  149.1367  140.5642  153.5347 H   0  0  0  0  0  0  0  0  0  0  0  0
  147.7329  135.1189  152.6883 H   0  0  0  0  0  0  0  0  0  0  0  0
  1  2  1  0  0  0  0
  1 25  1  0  0  0  0
  1 26  1  0  0  0  0
  1 27  1  0  0  0  0
  2  3  1  0  0  0  0
  2 28  1  0  0  0  0
  2 29  1  0  0  0  0
  3  4  1  0  0  0  0
  4  5  1  0  0  0  0
  4 30  1  0  0  0  0
  4 31  1  0  0  0  0
  5  6  1  0  0  0  0
  5 32  1  0  0  0  0
  5 33  1  0  0  0  0
  6 17  1  0  0  0  0
  6  7  1  0  0  0  0
  7  8  1  0  0  0  0
  7 15  2  0  0  0  0
  8  9  1  0  0  0  0
  8 34  1  0  0  0  0
  8 35  1  0  0  0  0
  9 14  1  0  0  0  0
  9 10  1  0  0  0  0
  9 47  1  0  0  0  0
 10 11  1  0  0  0  0
 10 36  1  0  0  0  0
 10 37  1  0  0  0  0
 11 12  1  0  0  0  0
 11 38  1  0  0  0  0
 11 39  1  0  0  0  0
 12 13  1  0  0  0  0
 13 14  1  0  0  0  0
 13 40  1  0  0  0  0
 13 41  1  0  0  0  0
 14 42  1  0  0  0  0
 14 43  1  0  0  0  0
 15 16  1  0  0  0  0
 16 23  1  0  0  0  0
 16 17  2  0  0  0  0
 17 18  1  0  0  0  0
 18 19  2  0  0  0  0
 18 20  1  0  0  0  0
 20 21  1  0  0  0  0
 21 22  2  0  0  0  0
 21 23  1  0  0  0  0
 23 24  1  0  0  0  0
 24 44  1  0  0  0  0
 24 45  1  0  0  0  0
 24 46  1  0  0  0  0
M  CHG  1   9   1
M  CHG  1  20  -1
M  END
> <s_m_source_file>
AV-unprocessed.smi

> <i_m_source_file_index>
515

> <i_lp_mmshare_version>
43012

> <i_f3d_flags>
0

> <s_epik_input>
W0NIM11uMWMoPU8pW25IXWMoPU8pYyhjMTIpbihbQ0gyXVtDSDJdT1tDSDJdW0NIM10pYyhuMilbQ0gyXU4zW0NIMl1bQ0gyXU9bQ0gyXVtDSDJdMw==

> <s_epik_cmdline>
J2VwaWtfcHl0aG9uJywgJy1waCcsICc3LjAnLCAnLXRuJywgJzgnLCAnLW1hJywgJzIwMCcsICctbWV0YWxfYmluZGluZycsICctaW1hZScsICc8aW5maWxlLm1hZT4nLCAnLW9tYWUnLCAnPG91dGZpbGUubWFlPic=

> <r_epik_Ionization_Penalty>
5.22184

> <r_epik_Ionization_Penalty_Charging>
1.12852

> <r_epik_Ionization_Penalty_Neutral>
4.09332

> <r_epik_State_Penalty>
5.27165

> <r_epik_Charging_Adjusted_Penalty>
6.40017

> <i_epik_Tot_Q>
0

> <i_epik_Tot_abs_Q>
2

> <r_epik_Metal_State_Penalty>
1.73647

> <b_epik_Metal_Only>
1

> <s_lp_Force_Field>
OPLS_2005

> <r_lp_Energy>
35.0341

> <b_lp_Chiralities_Consistent>
1

> <s_lp_Variant>
AV-unprocessed.smi:515-4

> <Gold.Version>
5.8.1

> <Gold.Id.Protein>
6NUR|6NUR_protein|mol2

> <Gold.PLP.Fitness>
41.6262

> <Gold.PLP.PLP>
-28.7458

> <Gold.PLP.part.hbond>
-3.8719

> <Gold.PLP.part.metal>
0.0000

> <Gold.PLP.part.buried>
-3.7409

> <Gold.PLP.part.nonpolar>
-23.2337

> <Gold.PLP.part.repulsive>
1.4656

> <Gold.PLP.ligand.clash>
0.0000

> <Gold.PLP.ligand.torsion>
0.9339

> <Gold.PLP.Chemscore.Hbond>
4.8960

> <Gold.PLP.Chemscore.CHOScore>
0.0000

> <Gold.PLP.Chemscore.Metal>
0.0000

> <Gold.Chemscore.Hbonds>
donor molecule, donor type, donor heavy atom, donor atom, acceptor molecule, acceptor atom, score
      L1  H     9    47       P1  7948  2.00
      P1  H  6896  6909       L1     3  1.00
      P1  H  7989  7998       L1    22  0.93
      P1  H 10752 10763       L1    19  1.00

> <Gold.PLP.Chemscore.Internal.Correction>
0.0601

> <Gold.Rescore>
     Score         DG    S(hbond)    S(metal)    S(lipo)     H(rot)  DE(clash)    DE(int)     intcor
     16.03     -18.63       3.82        0.00      50.79       2.17       1.45       1.14       ----

> <Gold.Chemscore.Fitness>
16.0325

> <Gold.Chemscore.DG>
-18.6287

> <Gold.Chemscore.ZeroCoef>
-5.4800

> <Gold.Chemscore.Hbond>
3.8231

> <Gold.Chemscore.Metal>
0.0000

> <Gold.Chemscore.Lipo>
50.7907

> <Gold.Chemscore.Internal_Hbond>
0.0000

> <Gold.Chemscore.DEClash>
1.4523

> <Gold.Chemscore.DEInternal>
1.1439

> <Gold.Chemscore.Rot>
2.1731

> <Gold.Chemscore.Internal.Correction>
   9.000000E+99

> <Gold.Chemscore.Hbonds>
donor molecule, donor type, donor heavy atom, donor atom, acceptor molecule, acceptor atom, score
      L1  H     9    47       P1  7948  0.99
      P1  H  6896  6909       L1     3  0.65
      P1  H  7989  7998       L1    22  0.54
      P1  H 10752 10763       L1    19  0.94

> <Gold.Chemscore.Hbond.Weighted>
-12.7693

> <Gold.Chemscore.Metal.Weighted>
-0.0000

> <Gold.Chemscore.Lipo.Weighted>
-5.9425

> <Gold.Chemscore.Internal_Hbond.Weighted>
0.0000

> <Gold.Chemscore.DEClash.Weighted>
1.4523

> <Gold.Chemscore.DEInternal.Weighted>
1.1439

> <Gold.Chemscore.Rot.Weighted>
5.5631

> <Gold.Chemscore.Internal.Correction.Weighted>
   9.000000E+99

> <Gold.Protein.RotatedTorsions>
[ 6907 6896 6895 6894 ] final  -17.74 input  -60.11 | X-H torsion
[ 7974 7965 7964 7962 ] final  158.94 input  175.53 | X-H torsion
[ 8008 7997 7996 7995 ] final -159.29 input   59.86 | X-H torsion
[ 10167 10162 10161 10158 ] final  118.12 input  -65.29 | X-H torsion
[ 10718 10713 10712 10709 ] final  -49.58 input   66.30 | X-H torsion
[ 10763 10752 10751 10750 ] final  110.96 input  -60.55 | X-H torsion
[ 11005 11000 10999 10996 ] final   -8.71 input  -57.11 | X-H torsion

> <Gold.Protein.ActiveResidues>
 VAL166  LYS551  ARG553  GLY616  TRP617  ASP618  TYR619  PRO620  LYS621  CYS622 
 ASP623  PHE694  ASN695  SER759  ASP760  ASP761  ALA762  ILE779  LEU786  VAL792 
 PHE793  MET794  SER795  GLU796  ALA797  LYS798  CYS799  TRP800  GLU811  SER814 

> <Gold.Protein.RotatedAtoms>
  151.2887  135.0735  159.9196 H   0  0  0  0  0  0  0  0  0  0  0  0  # atno 6907 bound_to 6896
  152.5320  133.9954  159.7880 H   0  0  0  0  0  0  0  0  0  0  0  0  # atno 6908 bound_to 6896
  151.0220  133.5817  159.2701 H   0  0  0  0  0  0  0  0  0  0  0  0  # atno 6909 bound_to 6896
  144.7818  139.7548  143.6257 H   0  0  0  0  0  0  0  0  0  0  0  0  # atno 7974 bound_to 7965
  155.7603  140.0838  157.2158 H   0  0  0  0  0  0  0  0  0  0  0  0  # atno 8008 bound_to 7997
  154.4004  140.1544  156.2882 H   0  0  0  0  0  0  0  0  0  0  0  0  # atno 8009 bound_to 7997
  155.8845  140.3418  155.5914 H   0  0  0  0  0  0  0  0  0  0  0  0  # atno 8010 bound_to 7997
  139.6132  144.7086  151.2796 H   0  0  0  0  0  0  0  0  0  0  0  0  # atno 10167 bound_to 10162
  156.1880  130.4152  149.9411 H   0  0  0  0  0  0  0  0  0  0  0  0  # atno 10718 bound_to 10713
  153.4564  135.3732  155.2313 H   0  0  0  0  0  0  0  0  0  0  0  0  # atno 10763 bound_to 10752
  154.8757  135.3898  154.3977 H   0  0  0  0  0  0  0  0  0  0  0  0  # atno 10764 bound_to 10752
  153.4544  135.7086  153.6153 H   0  0  0  0  0  0  0  0  0  0  0  0  # atno 10765 bound_to 10752
  140.7264  133.8786  155.8859 H   0  0  0  0  0  0  0  0  0  0  0  0  # atno 11005 bound_to 11000
  146.2029  139.5335  142.9731 LP  0  0  0  0  0  0  0  0  0  0  0  0  # atno 17320 bound_to 7965
  145.6031  141.0352  143.2007 LP  0  0  0  0  0  0  0  0  0  0  0  0  # atno 17321 bound_to 7965
  140.7333  143.6797  150.8011 LP  0  0  0  0  0  0  0  0  0  0  0  0  # atno 17342 bound_to 10162
  140.0395  143.5360  152.2724 LP  0  0  0  0  0  0  0  0  0  0  0  0  # atno 17343 bound_to 10162
  156.7161  130.8988  151.3614 LP  0  0  0  0  0  0  0  0  0  0  0  0  # atno 17370 bound_to 10713
  157.6911  130.9234  150.0517 LP  0  0  0  0  0  0  0  0  0  0  0  0  # atno 17371 bound_to 10713
  140.9959  134.1215  157.4364 LP  0  0  0  0  0  0  0  0  0  0  0  0  # atno 17394 bound_to 11000
  139.8836  135.0054  156.6313 LP  0  0  0  0  0  0  0  0  0  0  0  0  # atno 17395 bound_to 11000

$$$$
