AV-unprocessed.smi:506|AV-procd|sdf|2750|dock5
  -GOLD-   2262023213D 1   1.00000     0.00000
 Structure written by MMmdl.
 40 42  0  0  0  0  0  0  0  0  1 V2000
  151.4493  145.5136  160.2639 C   0  0  0  0  0  0  0  0  0  0  0  0
  151.9813  144.7272  161.3199 O   0  0  0  0  0  0  0  0  0  0  0  0
  152.5691  143.5224  160.9988 C   0  0  0  0  0  0  0  0  0  0  0  0
  153.0899  142.7592  162.0621 C   0  0  0  0  0  0  0  0  0  0  0  0
  153.7064  141.5168  161.8226 C   0  0  0  0  0  0  0  0  0  0  0  0
  153.8186  141.0085  160.5140 C   0  0  0  0  0  0  0  0  0  0  0  0
  154.4376  139.7864  160.3691 O   0  0  0  0  0  0  0  0  0  0  0  0
  154.5150  139.2165  159.0693 C   0  0  0  0  0  0  0  0  0  0  0  0
  153.1112  138.7852  158.6212 C   0  0  0  0  0  0  0  0  0  0  0  0
  153.0715  138.4335  157.2088 N   0  0  0  0  0  0  0  0  0  0  0  0
  153.9021  137.6057  156.5266 C   0  0  0  0  0  0  0  0  0  0  0  0
  155.0495  136.9039  157.1859 C   0  0  0  0  0  0  0  0  0  0  0  0
  155.8240  136.1527  156.2759 O   0  0  0  0  0  0  0  0  0  0  0  0
  153.6349  137.4559  155.2287 N   0  0  0  0  0  0  0  0  0  0  0  0
  152.5248  138.2587  155.0526 C   0  0  0  0  0  0  0  0  0  0  0  0
  151.7584  138.5247  153.8953 C   0  0  0  0  0  0  0  0  0  0  0  0
  150.6458  139.3891  153.9589 C   0  0  0  0  0  0  0  0  0  0  0  0
  150.2845  139.9991  155.1776 C   0  0  0  0  0  0  0  0  0  0  0  0
  151.0359  139.7493  156.3419 C   0  0  0  0  0  0  0  0  0  0  0  0
  152.1456  138.8854  156.2734 C   0  0  0  0  0  0  0  0  0  0  0  0
  153.2956  141.7709  159.4411 C   0  0  0  0  0  0  0  0  0  0  0  0
  152.6778  143.0140  159.6809 C   0  0  0  0  0  0  0  0  0  0  0  0
  151.0224  146.4278  160.6764 H   0  0  0  0  0  0  0  0  0  0  0  0
  150.6532  144.9866  159.7364 H   0  0  0  0  0  0  0  0  0  0  0  0
  152.2242  145.8033  159.5528 H   0  0  0  0  0  0  0  0  0  0  0  0
  153.0162  143.1300  163.0737 H   0  0  0  0  0  0  0  0  0  0  0  0
  154.0994  140.9482  162.6529 H   0  0  0  0  0  0  0  0  0  0  0  0
  154.9143  139.9445  158.3618 H   0  0  0  0  0  0  0  0  0  0  0  0
  155.1808  138.3522  159.0758 H   0  0  0  0  0  0  0  0  0  0  0  0
  152.7841  137.9224  159.2022 H   0  0  0  0  0  0  0  0  0  0  0  0
  152.3883  139.5762  158.8191 H   0  0  0  0  0  0  0  0  0  0  0  0
  155.6862  137.6286  157.6927 H   0  0  0  0  0  0  0  0  0  0  0  0
  154.6669  136.2322  157.9552 H   0  0  0  0  0  0  0  0  0  0  0  0
  156.5898  136.6564  156.0468 H   0  0  0  0  0  0  0  0  0  0  0  0
  152.0260  138.0616  152.9572 H   0  0  0  0  0  0  0  0  0  0  0  0
  150.0663  139.5840  153.0685 H   0  0  0  0  0  0  0  0  0  0  0  0
  149.4296  140.6581  155.2185 H   0  0  0  0  0  0  0  0  0  0  0  0
  150.7595  140.2119  157.2778 H   0  0  0  0  0  0  0  0  0  0  0  0
  153.3539  141.4230  158.4211 H   0  0  0  0  0  0  0  0  0  0  0  0
  152.2939  143.5600  158.8326 H   0  0  0  0  0  0  0  0  0  0  0  0
  1  2  1  0  0  0  0
  1 23  1  0  0  0  0
  1 24  1  0  0  0  0
  1 25  1  0  0  0  0
  2  3  1  0  0  0  0
  3 22  1  0  0  0  0
  3  4  2  0  0  0  0
  4  5  1  0  0  0  0
  4 26  1  0  0  0  0
  5  6  2  0  0  0  0
  5 27  1  0  0  0  0
  6  7  1  0  0  0  0
  6 21  1  0  0  0  0
  7  8  1  0  0  0  0
  8  9  1  0  0  0  0
  8 28  1  0  0  0  0
  8 29  1  0  0  0  0
  9 10  1  0  0  0  0
  9 30  1  0  0  0  0
  9 31  1  0  0  0  0
 10 20  1  0  0  0  0
 10 11  1  0  0  0  0
 11 12  1  0  0  0  0
 11 14  2  0  0  0  0
 12 13  1  0  0  0  0
 12 32  1  0  0  0  0
 12 33  1  0  0  0  0
 13 34  1  0  0  0  0
 14 15  1  0  0  0  0
 15 20  2  0  0  0  0
 15 16  1  0  0  0  0
 16 17  2  0  0  0  0
 16 35  1  0  0  0  0
 17 18  1  0  0  0  0
 17 36  1  0  0  0  0
 18 19  2  0  0  0  0
 18 37  1  0  0  0  0
 19 20  1  0  0  0  0
 19 38  1  0  0  0  0
 21 22  2  0  0  0  0
 21 39  1  0  0  0  0
 22 40  1  0  0  0  0
M  END
> <s_m_source_file>
AV-unprocessed.smi

> <i_m_source_file_index>
506

> <i_lp_mmshare_version>
43012

> <i_f3d_flags>
0

> <s_epik_input>
W0NIM11PYzFbY0hdW2NIXWMoW2NIXVtjSF0xKU9bQ0gyXVtDSDJdbihjKG4yKVtDSDJdW09IXSljKGMyMylbY0hdW2NIXVtjSF1bY0hdMw==

> <s_epik_cmdline>
J2VwaWtfcHl0aG9uJywgJy1waCcsICc3LjAnLCAnLXRuJywgJzgnLCAnLW1hJywgJzIwMCcsICctbWV0YWxfYmluZGluZycsICctaW1hZScsICc8aW5maWxlLm1hZT4nLCAnLW9tYWUnLCAnPG91dGZpbGUubWFlPic=

> <r_lp_tautomer_probability>
1

> <r_epik_Ionization_Penalty>
0.0483634

> <r_epik_Ionization_Penalty_Charging>
0

> <r_epik_Ionization_Penalty_Neutral>
0.0483634

> <r_epik_State_Penalty>
0.0411758

> <r_epik_Charging_Adjusted_Penalty>
0.0411758

> <i_epik_Tot_Q>
0

> <i_epik_Tot_abs_Q>
0

> <r_epik_Metal_State_Penalty>
4.26388e-05

> <b_epik_Metal_Only>
0

> <s_lp_Force_Field>
OPLS_2005

> <r_lp_Energy>
17.7354

> <b_lp_Chiralities_Consistent>
1

> <s_lp_Variant>
AV-unprocessed.smi:506-1

> <Gold.Version>
5.8.1

> <Gold.Id.Protein>
6NUR|6NUR_protein|mol2

> <Gold.PLP.Fitness>
46.8223

> <Gold.PLP.PLP>
-43.4294

> <Gold.PLP.part.hbond>
-1.4449

> <Gold.PLP.part.metal>
0.0000

> <Gold.PLP.part.buried>
-5.0985

> <Gold.PLP.part.nonpolar>
-37.5238

> <Gold.PLP.part.repulsive>
1.2664

> <Gold.PLP.ligand.clash>
0.0000

> <Gold.PLP.ligand.torsion>
0.1815

> <Gold.PLP.Chemscore.Hbond>
1.2240

> <Gold.PLP.Chemscore.CHOScore>
0.0000

> <Gold.PLP.Chemscore.Metal>
0.0000

> <Gold.Chemscore.Hbonds>
donor molecule, donor type, donor heavy atom, donor atom, acceptor molecule, acceptor atom, score
      P1  H 10752 10763       L1    13  1.00
      P1  H 10752 10765       L1    14  0.02

> <Gold.PLP.Chemscore.Internal.Correction>
0.0838

> <Gold.Rescore>
     Score         DG    S(hbond)    S(metal)    S(lipo)     H(rot)  DE(clash)    DE(int)     intcor
     16.73     -17.66       0.86        0.00     133.35       2.46       0.15       0.78       ----

> <Gold.Chemscore.Fitness>
16.7266

> <Gold.Chemscore.DG>
-17.6614

> <Gold.Chemscore.ZeroCoef>
-5.4800

> <Gold.Chemscore.Hbond>
0.8586

> <Gold.Chemscore.Metal>
0.0000

> <Gold.Chemscore.Lipo>
133.3474

> <Gold.Chemscore.Internal_Hbond>
0.0000

> <Gold.Chemscore.DEClash>
0.1505

> <Gold.Chemscore.DEInternal>
0.7842

> <Gold.Chemscore.Rot>
2.4562

> <Gold.Chemscore.Internal.Correction>
   9.000000E+99

> <Gold.Chemscore.Hbonds>
donor molecule, donor type, donor heavy atom, donor atom, acceptor molecule, acceptor atom, score
      P1  H 10752 10763       L1    13  0.80
      P1  H 10752 10765       L1    14  0.03

> <Gold.Chemscore.Hbond.Weighted>
-2.8677

> <Gold.Chemscore.Metal.Weighted>
-0.0000

> <Gold.Chemscore.Lipo.Weighted>
-15.6016

> <Gold.Chemscore.Internal_Hbond.Weighted>
0.0000

> <Gold.Chemscore.DEClash.Weighted>
0.1505

> <Gold.Chemscore.DEInternal.Weighted>
0.7842

> <Gold.Chemscore.Rot.Weighted>
6.2880

> <Gold.Chemscore.Internal.Correction.Weighted>
   9.000000E+99

> <Gold.Protein.RotatedTorsions>
[ 6907 6896 6895 6894 ] final   88.68 input  -60.11 | X-H torsion
[ 7974 7965 7964 7962 ] final  -70.63 input  175.53 | X-H torsion
[ 8008 7997 7996 7995 ] final  164.33 input   59.86 | X-H torsion
[ 10167 10162 10161 10158 ] final   48.37 input  -65.29 | X-H torsion
[ 10718 10713 10712 10709 ] final  -10.37 input   66.30 | X-H torsion
[ 10763 10752 10751 10750 ] final -163.35 input  -60.55 | X-H torsion
[ 11005 11000 10999 10996 ] final  123.11 input  -57.11 | X-H torsion

> <Gold.Protein.ActiveResidues>
 VAL166  LYS551  ARG553  GLY616  TRP617  ASP618  TYR619  PRO620  LYS621  CYS622 
 ASP623  PHE694  ASN695  SER759  ASP760  ASP761  ALA762  ILE779  LEU786  VAL792 
 PHE793  MET794  SER795  GLU796  ALA797  LYS798  CYS799  TRP800  GLU811  SER814 

> <Gold.Protein.RotatedAtoms>
  152.5428  134.2084  159.8739 H   0  0  0  0  0  0  0  0  0  0  0  0  # atno 6907 bound_to 6896
  151.2068  133.4572  159.2605 H   0  0  0  0  0  0  0  0  0  0  0  0  # atno 6908 bound_to 6896
  151.0935  134.9943  159.8470 H   0  0  0  0  0  0  0  0  0  0  0  0  # atno 6909 bound_to 6896
  145.6884  140.9162  143.0794 H   0  0  0  0  0  0  0  0  0  0  0  0  # atno 7974 bound_to 7965
  156.1888  140.1699  156.8133 H   0  0  0  0  0  0  0  0  0  0  0  0  # atno 8008 bound_to 7997
  154.5446  140.0730  156.8599 H   0  0  0  0  0  0  0  0  0  0  0  0  # atno 8009 bound_to 7997
  155.3147  140.3369  155.4245 H   0  0  0  0  0  0  0  0  0  0  0  0  # atno 8010 bound_to 7997
  140.2940  144.3013  150.6234 H   0  0  0  0  0  0  0  0  0  0  0  0  # atno 10167 bound_to 10162
  156.6744  130.5019  149.5990 H   0  0  0  0  0  0  0  0  0  0  0  0  # atno 10718 bound_to 10713
  154.7130  135.3010  154.9167 H   0  0  0  0  0  0  0  0  0  0  0  0  # atno 10763 bound_to 10752
  154.0063  135.6700  153.4766 H   0  0  0  0  0  0  0  0  0  0  0  0  # atno 10764 bound_to 10752
  153.0770  135.5029  154.8340 H   0  0  0  0  0  0  0  0  0  0  0  0  # atno 10765 bound_to 10752
  139.9298  134.9641  156.8209 H   0  0  0  0  0  0  0  0  0  0  0  0  # atno 11005 bound_to 11000
  144.7004  139.8789  143.7446 LP  0  0  0  0  0  0  0  0  0  0  0  0  # atno 17320 bound_to 7965
  146.0903  139.3893  143.0410 LP  0  0  0  0  0  0  0  0  0  0  0  0  # atno 17321 bound_to 7965
  140.5708  143.2181  151.7602 LP  0  0  0  0  0  0  0  0  0  0  0  0  # atno 17342 bound_to 10162
  139.4931  144.4219  151.9968 LP  0  0  0  0  0  0  0  0  0  0  0  0  # atno 17343 bound_to 10162
  156.1914  130.6562  151.1066 LP  0  0  0  0  0  0  0  0  0  0  0  0  # atno 17370 bound_to 10713
  157.7066  131.0754  150.6647 LP  0  0  0  0  0  0  0  0  0  0  0  0  # atno 17371 bound_to 10713
  140.6234  133.9972  155.7629 LP  0  0  0  0  0  0  0  0  0  0  0  0  # atno 17394 bound_to 11000
  141.0879  133.9962  157.3284 LP  0  0  0  0  0  0  0  0  0  0  0  0  # atno 17395 bound_to 11000

$$$$
