AV-unprocessed.smi:1914|AV-procd|sdf|7756|dock8
  -GOLD-   22720 9493D 1   1.00000     0.00000
 Structure written by MMmdl.
 44 45  0  0  0  0  0  0  0  0  2 V2000
  144.3590  134.3689  150.7792 C   0  0  0  0  0  0  0  0  0  0  0  0
  145.6714  134.1748  151.5516 C   0  0  2  0  0  0  0  0  0  0  0  0
  145.9197  132.6916  151.8726 C   0  0  0  0  0  0  0  0  0  0  0  0
  147.2219  132.5309  152.6668 C   0  0  0  0  0  0  0  0  0  0  0  0
  147.2072  133.4066  153.9297 C   0  0  0  0  0  0  0  0  0  0  0  0
  146.9709  134.8337  153.5895 N   0  3  2  0  0  0  0  0  0  0  0  0
  147.0885  135.7177  154.7766 C   0  0  0  0  0  0  0  0  0  0  0  0
  148.1927  135.2574  155.7486 C   0  0  0  0  0  0  0  0  0  0  0  0
  148.0575  135.8991  157.0508 N   0  0  0  0  0  0  0  0  0  0  0  0
  148.7195  135.5337  158.1591 C   0  0  0  0  0  0  0  0  0  0  0  0
  149.5389  134.6142  158.1798 O   0  0  0  0  0  0  0  0  0  0  0  0
  148.4141  136.3423  159.4278 C   0  0  0  0  0  0  0  0  0  0  0  0
  147.9860  135.5036  160.5598 N   0  0  0  0  0  0  0  0  0  0  0  0
  147.8648  134.1193  160.3255 C   0  0  0  0  0  0  0  0  0  0  0  0
  147.4825  133.2670  161.2897 C   0  0  0  0  0  0  0  0  0  0  0  0
  147.1917  133.8024  162.5985 C   0  0  0  0  0  0  0  0  0  0  0  0
  147.3005  135.1253  162.8324 C   0  0  0  0  0  0  0  0  0  0  0  0
  147.7149  136.0611  161.7807 C   0  0  0  0  0  0  0  0  0  0  0  0
  147.8114  137.2721  161.9834 O   0  0  0  0  0  0  0  0  0  0  0  0
  145.6944  135.0130  152.8460 C   0  0  0  0  0  0  0  0  0  0  0  0
  143.5005  134.0427  151.3673 H   0  0  0  0  0  0  0  0  0  0  0  0
  144.3623  133.7978  149.8503 H   0  0  0  0  0  0  0  0  0  0  0  0
  144.2061  135.4169  150.5198 H   0  0  0  0  0  0  0  0  0  0  0  0
  146.4831  134.5224  150.9105 H   0  0  0  0  0  0  0  0  0  0  0  0
  145.0860  132.2895  152.4503 H   0  0  0  0  0  0  0  0  0  0  0  0
  145.9717  132.1079  150.9527 H   0  0  0  0  0  0  0  0  0  0  0  0
  147.3645  131.4850  152.9403 H   0  0  0  0  0  0  0  0  0  0  0  0
  148.0712  132.8050  152.0395 H   0  0  0  0  0  0  0  0  0  0  0  0
  146.4339  133.0625  154.6190 H   0  0  0  0  0  0  0  0  0  0  0  0
  148.1625  133.3014  154.4458 H   0  0  0  0  0  0  0  0  0  0  0  0
  147.2556  136.7475  154.4576 H   0  0  0  0  0  0  0  0  0  0  0  0
  146.1385  135.7143  155.3127 H   0  0  0  0  0  0  0  0  0  0  0  0
  148.1739  134.1724  155.8640 H   0  0  0  0  0  0  0  0  0  0  0  0
  149.1800  135.5119  155.3661 H   0  0  0  0  0  0  0  0  0  0  0  0
  147.4095  136.6710  157.1177 H   0  0  0  0  0  0  0  0  0  0  0  0
  149.3055  136.9148  159.6870 H   0  0  0  0  0  0  0  0  0  0  0  0
  147.6477  137.0892  159.2111 H   0  0  0  0  0  0  0  0  0  0  0  0
  148.0940  133.7994  159.3194 H   0  0  0  0  0  0  0  0  0  0  0  0
  147.3919  132.2091  161.0907 H   0  0  0  0  0  0  0  0  0  0  0  0
  146.8845  133.1392  163.3935 H   0  0  0  0  0  0  0  0  0  0  0  0
  147.0778  135.5078  163.8177 H   0  0  0  0  0  0  0  0  0  0  0  0
  145.5560  136.0621  152.5874 H   0  0  0  0  0  0  0  0  0  0  0  0
  144.8577  134.7357  153.4897 H   0  0  0  0  0  0  0  0  0  0  0  0
  147.7179  135.0984  152.9632 H   0  0  0  0  0  0  0  0  0  0  0  0
  1  2  1  0  0  0  0
  1 21  1  0  0  0  0
  1 22  1  0  0  0  0
  1 23  1  0  0  0  0
  2 20  1  0  0  0  0
  2  3  1  0  0  0  0
  2 24  1  0  0  0  0
  3  4  1  0  0  0  0
  3 25  1  0  0  0  0
  3 26  1  0  0  0  0
  4  5  1  0  0  0  0
  4 27  1  0  0  0  0
  4 28  1  0  0  0  0
  5  6  1  0  0  0  0
  5 29  1  0  0  0  0
  5 30  1  0  0  0  0
  6  7  1  0  0  0  0
  6 20  1  0  0  0  0
  6 44  1  0  0  0  0
  7  8  1  0  0  0  0
  7 31  1  0  0  0  0
  7 32  1  0  0  0  0
  8  9  1  0  0  0  0
  8 33  1  0  0  0  0
  8 34  1  0  0  0  0
  9 10  1  0  0  0  0
  9 35  1  0  0  0  0
 10 11  2  0  0  0  0
 10 12  1  0  0  0  0
 12 13  1  0  0  0  0
 12 36  1  0  0  0  0
 12 37  1  0  0  0  0
 13 18  1  0  0  0  0
 13 14  1  0  0  0  0
 14 15  2  0  0  0  0
 14 38  1  0  0  0  0
 15 16  1  0  0  0  0
 15 39  1  0  0  0  0
 16 17  2  0  0  0  0
 16 40  1  0  0  0  0
 17 18  1  0  0  0  0
 17 41  1  0  0  0  0
 18 19  2  0  0  0  0
 20 42  1  0  0  0  0
 20 43  1  0  0  0  0
M  CHG  1   6   1
M  END
> <s_m_source_file>
AV-unprocessed.smi

> <i_m_source_file_index>
1914

> <i_lp_mmshare_version>
43012

> <i_f3d_flags>
0

> <s_epik_input>
W0NIM11bQ0BASF0xW0NIMl1bQ0gyXVtDSDJdTihbQ0gyXTEpW0NIMl1bQ0gyXVtOSF1DKD1PKVtDSDJdbjJbY0hdW2NIXVtjSF1bY0hdYzI9Tw==

> <s_epik_cmdline>
J2VwaWtfcHl0aG9uJywgJy1waCcsICc3LjAnLCAnLXRuJywgJzgnLCAnLW1hJywgJzIwMCcsICctbWV0YWxfYmluZGluZycsICctaW1hZScsICc8aW5maWxlLm1hZT4nLCAnLW9tYWUnLCAnPG91dGZpbGUubWFlPic=

> <r_lp_tautomer_probability>
1

> <r_epik_Ionization_Penalty>
0.00192477

> <r_epik_Ionization_Penalty_Charging>
0.00192469

> <r_epik_Ionization_Penalty_Neutral>
8.16761e-08

> <r_epik_State_Penalty>
0.00131115

> <r_epik_Charging_Adjusted_Penalty>
0.00323584

> <i_epik_Tot_Q>
1

> <i_epik_Tot_abs_Q>
1

> <r_epik_Metal_State_Penalty>
-0

> <b_epik_Metal_Only>
0

> <s_lp_Force_Field>
OPLS_2005

> <r_lp_Energy>
24.8324

> <b_lp_Chiralities_Consistent>
1

> <s_lp_Variant>
AV-unprocessed.smi:1914-1

> <Gold.Version>
5.8.1

> <Gold.Id.Protein>
6NUR|6NUR_protein|mol2

> <Gold.PLP.Fitness>
49.1915

> <Gold.PLP.PLP>
-37.2548

> <Gold.PLP.part.hbond>
-4.0000

> <Gold.PLP.part.metal>
0.0000

> <Gold.PLP.part.buried>
-3.6213

> <Gold.PLP.part.nonpolar>
-29.7929

> <Gold.PLP.part.repulsive>
0.0000

> <Gold.PLP.ligand.clash>
0.9141

> <Gold.PLP.ligand.torsion>
0.3401

> <Gold.PLP.Chemscore.Hbond>
4.5040

> <Gold.PLP.Chemscore.CHOScore>
0.0000

> <Gold.PLP.Chemscore.Metal>
0.0000

> <Gold.Chemscore.Hbonds>
donor molecule, donor type, donor heavy atom, donor atom, acceptor molecule, acceptor atom, score
      L1  H     6    44       P1  7948  2.00
      P1  H  6896  6908       L1    11  1.00
      P1  H  6931  6943       L1    19  1.00
      P1  H  6934  6947       L1    19  0.43

> <Gold.PLP.Chemscore.Internal.Correction>
0.0191

> <Gold.Rescore>
     Score         DG    S(hbond)    S(metal)    S(lipo)     H(rot)  DE(clash)    DE(int)     intcor
     18.72     -20.52       3.58        0.00      67.09       1.86       0.00       1.80       ----

> <Gold.Chemscore.Fitness>
18.7215

> <Gold.Chemscore.DG>
-20.5236

> <Gold.Chemscore.ZeroCoef>
-5.4800

> <Gold.Chemscore.Hbond>
3.5786

> <Gold.Chemscore.Metal>
0.0000

> <Gold.Chemscore.Lipo>
67.0856

> <Gold.Chemscore.Internal_Hbond>
0.0000

> <Gold.Chemscore.DEClash>
0.0029

> <Gold.Chemscore.DEInternal>
1.7992

> <Gold.Chemscore.Rot>
1.8586

> <Gold.Chemscore.Internal.Correction>
   9.000000E+99

> <Gold.Chemscore.Hbonds>
donor molecule, donor type, donor heavy atom, donor atom, acceptor molecule, acceptor atom, score
      L1  H     6    44       P1  7948  0.97
      P1  H  6896  6908       L1    11  1.00
      P1  H  6931  6943       L1    19  0.91
      P1  H  6934  6947       L1    19  0.43

> <Gold.Chemscore.Hbond.Weighted>
-11.9527

> <Gold.Chemscore.Metal.Weighted>
-0.0000

> <Gold.Chemscore.Lipo.Weighted>
-7.8490

> <Gold.Chemscore.Internal_Hbond.Weighted>
0.0000

> <Gold.Chemscore.DEClash.Weighted>
0.0029

> <Gold.Chemscore.DEInternal.Weighted>
1.7992

> <Gold.Chemscore.Rot.Weighted>
4.7581

> <Gold.Chemscore.Internal.Correction.Weighted>
   9.000000E+99

> <Gold.Protein.RotatedTorsions>
[ 6907 6896 6895 6894 ] final  149.08 input  -60.11 | X-H torsion
[ 7974 7965 7964 7962 ] final  -11.67 input  175.53 | X-H torsion
[ 8008 7997 7996 7995 ] final   11.96 input   59.86 | X-H torsion
[ 10167 10162 10161 10158 ] final  165.72 input  -65.29 | X-H torsion
[ 10718 10713 10712 10709 ] final  -88.27 input   66.30 | X-H torsion
[ 10763 10752 10751 10750 ] final  -11.72 input  -60.55 | X-H torsion
[ 11005 11000 10999 10996 ] final  172.82 input  -57.11 | X-H torsion

> <Gold.Protein.ActiveResidues>
 VAL166  LYS551  ARG553  GLY616  TRP617  ASP618  TYR619  PRO620  LYS621  CYS622 
 ASP623  PHE694  ASN695  SER759  ASP760  ASP761  ALA762  ILE779  LEU786  VAL792 
 PHE793  MET794  SER795  GLU796  ALA797  LYS798  CYS799  TRP800  GLU811  SER814 

> <Gold.Protein.RotatedAtoms>
  152.1329  133.4418  159.4729 H   0  0  0  0  0  0  0  0  0  0  0  0  # atno 6907 bound_to 6896
  150.6879  134.2399  159.4477 H   0  0  0  0  0  0  0  0  0  0  0  0  # atno 6908 bound_to 6896
  152.0284  134.9781  160.0622 H   0  0  0  0  0  0  0  0  0  0  0  0  # atno 6909 bound_to 6896
  146.2179  140.2944  142.8371 H   0  0  0  0  0  0  0  0  0  0  0  0  # atno 7974 bound_to 7965
  154.8141  140.2873  155.5832 H   0  0  0  0  0  0  0  0  0  0  0  0  # atno 8008 bound_to 7997
  156.2991  140.2562  156.2965 H   0  0  0  0  0  0  0  0  0  0  0  0  # atno 8009 bound_to 7997
  154.9413  140.0381  157.2088 H   0  0  0  0  0  0  0  0  0  0  0  0  # atno 8010 bound_to 7997
  139.4911  144.4102  151.9308 H   0  0  0  0  0  0  0  0  0  0  0  0  # atno 10167 bound_to 10162
  155.9984  130.4829  150.4993 H   0  0  0  0  0  0  0  0  0  0  0  0  # atno 10718 bound_to 10713
  153.4880  135.7017  153.5900 H   0  0  0  0  0  0  0  0  0  0  0  0  # atno 10763 bound_to 10752
  153.4085  135.3854  155.2035 H   0  0  0  0  0  0  0  0  0  0  0  0  # atno 10764 bound_to 10752
  154.8718  135.3899  154.4337 H   0  0  0  0  0  0  0  0  0  0  0  0  # atno 10765 bound_to 10752
  140.3339  134.7334  157.4154 H   0  0  0  0  0  0  0  0  0  0  0  0  # atno 11005 bound_to 11000
  144.9103  140.7749  143.5812 LP  0  0  0  0  0  0  0  0  0  0  0  0  # atno 17320 bound_to 7965
  145.2875  139.1896  143.4758 LP  0  0  0  0  0  0  0  0  0  0  0  0  # atno 17321 bound_to 7965
  140.3543  144.3051  150.5944 LP  0  0  0  0  0  0  0  0  0  0  0  0  # atno 17342 bound_to 10162
  140.5458  143.2215  151.8010 LP  0  0  0  0  0  0  0  0  0  0  0  0  # atno 17343 bound_to 10162
  157.2979  131.0639  151.2088 LP  0  0  0  0  0  0  0  0  0  0  0  0  # atno 17370 bound_to 10713
  157.3078  130.6874  149.6199 LP  0  0  0  0  0  0  0  0  0  0  0  0  # atno 17371 bound_to 10713
  140.0838  134.5695  155.8513 LP  0  0  0  0  0  0  0  0  0  0  0  0  # atno 17394 bound_to 11000
  141.2056  133.6648  156.6192 LP  0  0  0  0  0  0  0  0  0  0  0  0  # atno 17395 bound_to 11000

$$$$
