AV-unprocessed.smi:1855|AV-procd|sdf|7531|dock1
  -GOLD-   22720 9243D 1   1.00000     0.00000
 Structure written by MMmdl.
 43 45  0  0  0  0  0  0  0  0  1 V2000
  144.9828  143.8334  157.8334 C   0  0  0  0  0  0  0  0  0  0  0  0
  146.1255  143.0174  157.6257 O   0  0  0  0  0  0  0  0  0  0  0  0
  146.4551  142.6661  156.3326 C   0  0  0  0  0  0  0  0  0  0  0  0
  145.7166  143.0734  155.1928 C   0  0  0  0  0  0  0  0  0  0  0  0
  146.1152  142.6731  153.9042 C   0  0  0  0  0  0  0  0  0  0  0  0
  147.2524  141.8636  153.7398 C   0  0  0  0  0  0  0  0  0  0  0  0
  147.9919  141.4533  154.8637 C   0  0  0  0  0  0  0  0  0  0  0  0
  147.5982  141.8513  156.1657 C   0  0  0  0  0  0  0  0  0  0  0  0
  148.2719  141.4912  157.3121 O   0  0  0  0  0  0  0  0  0  0  0  0
  149.4790  140.7517  157.1983 C   0  0  0  0  0  0  0  0  0  0  0  0
  150.6492  141.7381  157.0757 C   0  0  0  0  0  0  0  0  0  0  0  0
  151.4688  141.7645  158.2799 N   0  0  0  0  0  0  0  0  0  0  0  0
  152.2399  140.7733  158.7944 C   0  0  0  0  0  0  0  0  0  0  0  0
  152.3630  139.4289  158.1378 C   0  0  0  0  0  0  0  0  0  0  0  0
  153.2834  138.5985  158.9084 N   0  0  0  0  0  0  0  0  0  0  0  0
  152.9567  137.4570  159.5312 C   0  0  0  0  0  0  0  0  0  0  0  0
  151.8335  136.9563  159.5251 O   0  0  0  0  0  0  0  0  0  0  0  0
  152.8813  141.0657  159.9264 N   0  0  0  0  0  0  0  0  0  0  0  0
  152.4902  142.3674  160.1705 C   0  0  0  0  0  0  0  0  0  0  0  0
  152.8258  143.2436  161.2274 C   0  0  0  0  0  0  0  0  0  0  0  0
  152.2874  144.5463  161.2728 C   0  0  0  0  0  0  0  0  0  0  0  0
  151.4094  144.9912  160.2636 C   0  0  0  0  0  0  0  0  0  0  0  0
  151.0671  144.1360  159.1987 C   0  0  0  0  0  0  0  0  0  0  0  0
  151.6053  142.8356  159.1588 C   0  0  0  0  0  0  0  0  0  0  0  0
  144.8593  144.0101  158.9017 H   0  0  0  0  0  0  0  0  0  0  0  0
  144.0750  143.3483  157.4728 H   0  0  0  0  0  0  0  0  0  0  0  0
  145.0927  144.8044  157.3488 H   0  0  0  0  0  0  0  0  0  0  0  0
  144.8387  143.6951  155.2807 H   0  0  0  0  0  0  0  0  0  0  0  0
  145.5478  142.9886  153.0411 H   0  0  0  0  0  0  0  0  0  0  0  0
  147.5590  141.5572  152.7505 H   0  0  0  0  0  0  0  0  0  0  0  0
  148.8607  140.8341  154.7009 H   0  0  0  0  0  0  0  0  0  0  0  0
  149.6218  140.1179  158.0748 H   0  0  0  0  0  0  0  0  0  0  0  0
  149.4460  140.1099  156.3169 H   0  0  0  0  0  0  0  0  0  0  0  0
  151.2682  141.4884  156.2147 H   0  0  0  0  0  0  0  0  0  0  0  0
  150.2699  142.7443  156.8948 H   0  0  0  0  0  0  0  0  0  0  0  0
  151.3807  138.9591  158.0642 H   0  0  0  0  0  0  0  0  0  0  0  0
  152.7348  139.5427  157.1196 H   0  0  0  0  0  0  0  0  0  0  0  0
  154.2375  138.9207  158.9793 H   0  0  0  0  0  0  0  0  0  0  0  0
  153.8297  137.0294  160.0481 H   0  0  0  0  0  0  0  0  0  0  0  0
  153.4958  142.9108  162.0064 H   0  0  0  0  0  0  0  0  0  0  0  0
  152.5480  145.2065  162.0870 H   0  0  0  0  0  0  0  0  0  0  0  0
  150.9972  145.9886  160.3076 H   0  0  0  0  0  0  0  0  0  0  0  0
  150.3906  144.4723  158.4271 H   0  0  0  0  0  0  0  0  0  0  0  0
  1  2  1  0  0  0  0
  1 25  1  0  0  0  0
  1 26  1  0  0  0  0
  1 27  1  0  0  0  0
  2  3  1  0  0  0  0
  3  8  1  0  0  0  0
  3  4  2  0  0  0  0
  4  5  1  0  0  0  0
  4 28  1  0  0  0  0
  5  6  2  0  0  0  0
  5 29  1  0  0  0  0
  6  7  1  0  0  0  0
  6 30  1  0  0  0  0
  7  8  2  0  0  0  0
  7 31  1  0  0  0  0
  8  9  1  0  0  0  0
  9 10  1  0  0  0  0
 10 11  1  0  0  0  0
 10 32  1  0  0  0  0
 10 33  1  0  0  0  0
 11 12  1  0  0  0  0
 11 34  1  0  0  0  0
 11 35  1  0  0  0  0
 12 24  1  0  0  0  0
 12 13  1  0  0  0  0
 13 14  1  0  0  0  0
 13 18  2  0  0  0  0
 14 15  1  0  0  0  0
 14 36  1  0  0  0  0
 14 37  1  0  0  0  0
 15 16  1  0  0  0  0
 15 38  1  0  0  0  0
 16 17  2  0  0  0  0
 16 39  1  0  0  0  0
 18 19  1  0  0  0  0
 19 24  2  0  0  0  0
 19 20  1  0  0  0  0
 20 21  2  0  0  0  0
 20 40  1  0  0  0  0
 21 22  1  0  0  0  0
 21 41  1  0  0  0  0
 22 23  2  0  0  0  0
 22 42  1  0  0  0  0
 23 24  1  0  0  0  0
 23 43  1  0  0  0  0
M  END
> <s_m_source_file>
AV-unprocessed.smi

> <i_m_source_file_index>
1855

> <i_lp_mmshare_version>
43012

> <i_f3d_flags>
0

> <s_epik_input>
W0NIM11PYzFbY0hdW2NIXVtjSF1bY0hdYzFPW0NIMl1bQ0gyXW4oYyhuMilbQ0gyXVtOSF1bQ0hdPU8pYyhjMjMpW2NIXVtjSF1bY0hdW2NIXTM=

> <s_epik_cmdline>
J2VwaWtfcHl0aG9uJywgJy1waCcsICc3LjAnLCAnLXRuJywgJzgnLCAnLW1hJywgJzIwMCcsICctbWV0YWxfYmluZGluZycsICctaW1hZScsICc8aW5maWxlLm1hZT4nLCAnLW9tYWUnLCAnPG91dGZpbGUubWFlPic=

> <r_lp_tautomer_probability>
1

> <r_epik_Ionization_Penalty>
0.0587233

> <r_epik_Ionization_Penalty_Charging>
0

> <r_epik_Ionization_Penalty_Neutral>
0.0587233

> <r_epik_State_Penalty>
0.0508012

> <r_epik_Charging_Adjusted_Penalty>
0.0508012

> <i_epik_Tot_Q>
0

> <i_epik_Tot_abs_Q>
0

> <r_epik_Metal_State_Penalty>
0.0461886

> <b_epik_Metal_Only>
0

> <s_lp_Force_Field>
OPLS_2005

> <r_lp_Energy>
14.9723

> <b_lp_Chiralities_Consistent>
1

> <s_lp_Variant>
AV-unprocessed.smi:1855-1

> <Gold.Version>
5.8.1

> <Gold.Id.Protein>
6NUR|6NUR_protein|mol2

> <Gold.PLP.Fitness>
47.2676

> <Gold.PLP.PLP>
-45.2300

> <Gold.PLP.part.hbond>
-1.0000

> <Gold.PLP.part.metal>
0.0000

> <Gold.PLP.part.buried>
-7.2359

> <Gold.PLP.part.nonpolar>
-36.5505

> <Gold.PLP.part.repulsive>
0.3090

> <Gold.PLP.ligand.clash>
0.0000

> <Gold.PLP.ligand.torsion>
0.5843

> <Gold.PLP.Chemscore.Hbond>
1.0000

> <Gold.PLP.Chemscore.CHOScore>
0.0000

> <Gold.PLP.Chemscore.Metal>
0.0000

> <Gold.Chemscore.Hbonds>
donor molecule, donor type, donor heavy atom, donor atom, acceptor molecule, acceptor atom, score
      P1  H  6896  6907       L1    17  1.00

> <Gold.PLP.Chemscore.Internal.Correction>
0.2060

> <Gold.Rescore>
     Score         DG    S(hbond)    S(metal)    S(lipo)     H(rot)  DE(clash)    DE(int)     intcor
     14.66     -15.50       1.00        0.00     117.16       2.74       0.23       0.61       ----

> <Gold.Chemscore.Fitness>
14.6595

> <Gold.Chemscore.DG>
-15.5021

> <Gold.Chemscore.ZeroCoef>
-5.4800

> <Gold.Chemscore.Hbond>
0.9953

> <Gold.Chemscore.Metal>
0.0000

> <Gold.Chemscore.Lipo>
117.1623

> <Gold.Chemscore.Internal_Hbond>
0.0000

> <Gold.Chemscore.DEClash>
0.2288

> <Gold.Chemscore.DEInternal>
0.6138

> <Gold.Chemscore.Rot>
2.7383

> <Gold.Chemscore.Internal.Correction>
   9.000000E+99

> <Gold.Chemscore.Hbonds>
donor molecule, donor type, donor heavy atom, donor atom, acceptor molecule, acceptor atom, score
      P1  H  6896  6907       L1    17  0.98

> <Gold.Chemscore.Hbond.Weighted>
-3.3242

> <Gold.Chemscore.Metal.Weighted>
-0.0000

> <Gold.Chemscore.Lipo.Weighted>
-13.7080

> <Gold.Chemscore.Internal_Hbond.Weighted>
0.0000

> <Gold.Chemscore.DEClash.Weighted>
0.2288

> <Gold.Chemscore.DEInternal.Weighted>
0.6138

> <Gold.Chemscore.Rot.Weighted>
7.0102

> <Gold.Chemscore.Internal.Correction.Weighted>
   9.000000E+99

> <Gold.Protein.RotatedTorsions>
[ 6907 6896 6895 6894 ] final  -11.06 input  -60.11 | X-H torsion
[ 7974 7965 7964 7962 ] final  -12.76 input  175.53 | X-H torsion
[ 8008 7997 7996 7995 ] final  -94.16 input   59.86 | X-H torsion
[ 10167 10162 10161 10158 ] final -139.77 input  -65.29 | X-H torsion
[ 10718 10713 10712 10709 ] final  -33.62 input   66.30 | X-H torsion
[ 10763 10752 10751 10750 ] final   52.51 input  -60.55 | X-H torsion
[ 11005 11000 10999 10996 ] final  155.62 input  -57.11 | X-H torsion

> <Gold.Protein.ActiveResidues>
 VAL166  LYS551  ARG553  GLY616  TRP617  ASP618  TYR619  PRO620  LYS621  CYS622 
 ASP623  PHE694  ASN695  SER759  ASP760  ASP761  ALA762  ILE779  LEU786  VAL792 
 PHE793  MET794  SER795  GLU796  ALA797  LYS798  CYS799  TRP800  GLU811  SER814 

> <Gold.Protein.RotatedAtoms>
  151.3921  135.0957  159.9529 H   0  0  0  0  0  0  0  0  0  0  0  0  # atno 6907 bound_to 6896
  152.5076  133.8970  159.7432 H   0  0  0  0  0  0  0  0  0  0  0  0  # atno 6908 bound_to 6896
  150.9425  133.6584  159.2816 H   0  0  0  0  0  0  0  0  0  0  0  0  # atno 6909 bound_to 6896
  146.2140  140.3105  142.8382 H   0  0  0  0  0  0  0  0  0  0  0  0  # atno 7974 bound_to 7965
  154.7449  140.0492  157.0843 H   0  0  0  0  0  0  0  0  0  0  0  0  # atno 8008 bound_to 7997
  155.0131  140.3138  155.4802 H   0  0  0  0  0  0  0  0  0  0  0  0  # atno 8009 bound_to 7997
  156.2872  140.2180  156.5246 H   0  0  0  0  0  0  0  0  0  0  0  0  # atno 8010 bound_to 7997
  139.8347  143.7400  152.2665 H   0  0  0  0  0  0  0  0  0  0  0  0  # atno 10167 bound_to 10162
  156.3604  130.4323  149.7628 H   0  0  0  0  0  0  0  0  0  0  0  0  # atno 10718 bound_to 10713
  152.9789  135.5810  154.4591 H   0  0  0  0  0  0  0  0  0  0  0  0  # atno 10763 bound_to 10752
  154.4169  135.2771  155.2003 H   0  0  0  0  0  0  0  0  0  0  0  0  # atno 10764 bound_to 10752
  154.3768  135.6155  153.5823 H   0  0  0  0  0  0  0  0  0  0  0  0  # atno 10765 bound_to 10752
  140.1598  134.8617  157.2560 H   0  0  0  0  0  0  0  0  0  0  0  0  # atno 11005 bound_to 11000
  144.8992  140.7621  143.5878 LP  0  0  0  0  0  0  0  0  0  0  0  0  # atno 17320 bound_to 7965
  145.3030  139.1844  143.4679 LP  0  0  0  0  0  0  0  0  0  0  0  0  # atno 17321 bound_to 7965
  139.7619  144.7504  151.0351 LP  0  0  0  0  0  0  0  0  0  0  0  0  # atno 17342 bound_to 10162
  140.7803  143.4741  151.0106 LP  0  0  0  0  0  0  0  0  0  0  0  0  # atno 17343 bound_to 10162
  156.4794  130.8034  151.3049 LP  0  0  0  0  0  0  0  0  0  0  0  0  # atno 17370 bound_to 10713
  157.7473  131.0010  150.2949 LP  0  0  0  0  0  0  0  0  0  0  0  0  # atno 17371 bound_to 10713
  140.2503  134.3691  155.7445 LP  0  0  0  0  0  0  0  0  0  0  0  0  # atno 17394 bound_to 11000
  141.2208  133.7313  156.8925 LP  0  0  0  0  0  0  0  0  0  0  0  0  # atno 17395 bound_to 11000

$$$$
