AV-unprocessed.smi:1100|AV-procd|sdf|4761|dock5
  -GOLD-   22720 3293D 1   1.00000     0.00000
 Structure written by MMmdl.
 44 45  0  0  0  0  0  0  0  0  2 V2000
  147.2471  139.3342  154.7157 C   0  0  0  0  0  0  0  0  0  0  0  0
  147.1255  140.4769  153.6783 C   0  0  2  0  0  0  0  0  0  0  0  0
  148.4898  141.1985  153.5155 C   0  0  0  0  0  0  0  0  0  0  0  0
  148.9480  141.8428  154.7430 N   0  0  0  0  0  0  0  0  0  0  0  0
  149.8847  141.3484  155.5647 C   0  0  0  0  0  0  0  0  0  0  0  0
  150.4623  140.2820  155.3568 O   0  0  0  0  0  0  0  0  0  0  0  0
  150.0767  142.1612  156.6194 N   0  0  0  0  0  0  0  0  0  0  0  0
  150.9734  142.0257  157.6885 C   0  0  0  0  0  0  0  0  0  0  0  0
  151.7610  140.8373  157.9844 C   0  0  0  0  0  0  0  0  0  0  0  0
  152.5941  140.8070  159.0435 C   0  0  0  0  0  0  0  0  0  0  0  0
  152.7466  141.9574  159.9374 C   0  0  0  0  0  0  0  0  0  0  0  0
  153.4946  141.9360  160.9152 O   0  0  0  0  0  0  0  0  0  0  0  0
  152.0063  143.0567  159.6137 N   0  0  0  0  0  0  0  0  0  0  0  0
  152.0911  144.2632  160.4401 C   0  0  0  0  0  0  0  0  0  0  0  0
  151.1356  143.0803  158.5082 C   0  0  0  0  0  0  0  0  0  0  0  0
  146.0521  141.4719  154.0043 N   0  3  0  0  0  0  0  0  0  0  0  0
  145.7344  141.5101  155.4581 C   0  0  0  0  0  0  0  0  0  0  0  0
  144.5658  142.4665  155.7446 C   0  0  0  0  0  0  0  0  0  0  0  0
  144.8918  143.7663  155.2752 O   0  0  0  0  0  0  0  0  0  0  0  0
  145.1008  143.7757  153.8708 C   0  0  0  0  0  0  0  0  0  0  0  0
  146.2818  142.8580  153.5108 C   0  0  0  0  0  0  0  0  0  0  0  0
  148.0490  138.6415  154.4607 H   0  0  0  0  0  0  0  0  0  0  0  0
  146.3420  138.7287  154.7653 H   0  0  0  0  0  0  0  0  0  0  0  0
  147.4561  139.7210  155.7136 H   0  0  0  0  0  0  0  0  0  0  0  0
  146.8579  140.0084  152.7297 H   0  0  0  0  0  0  0  0  0  0  0  0
  149.2733  140.5210  153.1778 H   0  0  0  0  0  0  0  0  0  0  0  0
  148.4077  141.9676  152.7468 H   0  0  0  0  0  0  0  0  0  0  0  0
  148.5196  142.7249  154.9838 H   0  0  0  0  0  0  0  0  0  0  0  0
  149.4963  142.9861  156.6598 H   0  0  0  0  0  0  0  0  0  0  0  0
  151.7140  139.9568  157.3650 H   0  0  0  0  0  0  0  0  0  0  0  0
  153.1702  139.9138  159.2361 H   0  0  0  0  0  0  0  0  0  0  0  0
  151.5433  145.1044  160.0139 H   0  0  0  0  0  0  0  0  0  0  0  0
  153.1278  144.5824  160.5568 H   0  0  0  0  0  0  0  0  0  0  0  0
  151.6806  144.0722  161.4324 H   0  0  0  0  0  0  0  0  0  0  0  0
  150.6011  144.0099  158.3740 H   0  0  0  0  0  0  0  0  0  0  0  0
  145.4713  140.5218  155.8306 H   0  0  0  0  0  0  0  0  0  0  0  0
  146.6158  141.8307  156.0159 H   0  0  0  0  0  0  0  0  0  0  0  0
  143.6461  142.1127  155.2759 H   0  0  0  0  0  0  0  0  0  0  0  0
  144.3769  142.5172  156.8170 H   0  0  0  0  0  0  0  0  0  0  0  0
  144.1923  143.4626  153.3533 H   0  0  0  0  0  0  0  0  0  0  0  0
  145.3100  144.7974  153.5530 H   0  0  0  0  0  0  0  0  0  0  0  0
  147.2063  143.2514  153.9368 H   0  0  0  0  0  0  0  0  0  0  0  0
  146.3869  142.8733  152.4264 H   0  0  0  0  0  0  0  0  0  0  0  0
  145.2199  141.1501  153.5312 H   0  0  0  0  0  0  0  0  0  0  0  0
  1  2  1  0  0  0  0
  1 22  1  0  0  0  0
  1 23  1  0  0  0  0
  1 24  1  0  0  0  0
  2  3  1  0  0  0  0
  2 16  1  0  0  0  0
  2 25  1  0  0  0  0
  3  4  1  0  0  0  0
  3 26  1  0  0  0  0
  3 27  1  0  0  0  0
  4  5  1  0  0  0  0
  4 28  1  0  0  0  0
  5  6  2  0  0  0  0
  5  7  1  0  0  0  0
  7  8  1  0  0  0  0
  7 29  1  0  0  0  0
  8 15  2  0  0  0  0
  8  9  1  0  0  0  0
  9 10  2  0  0  0  0
  9 30  1  0  0  0  0
 10 11  1  0  0  0  0
 10 31  1  0  0  0  0
 11 12  2  0  0  0  0
 11 13  1  0  0  0  0
 13 14  1  0  0  0  0
 13 15  1  0  0  0  0
 14 32  1  0  0  0  0
 14 33  1  0  0  0  0
 14 34  1  0  0  0  0
 15 35  1  0  0  0  0
 16 21  1  0  0  0  0
 16 17  1  0  0  0  0
 16 44  1  0  0  0  0
 17 18  1  0  0  0  0
 17 36  1  0  0  0  0
 17 37  1  0  0  0  0
 18 19  1  0  0  0  0
 18 38  1  0  0  0  0
 18 39  1  0  0  0  0
 19 20  1  0  0  0  0
 20 21  1  0  0  0  0
 20 40  1  0  0  0  0
 20 41  1  0  0  0  0
 21 42  1  0  0  0  0
 21 43  1  0  0  0  0
M  CHG  1  16   1
M  END
> <s_m_source_file>
AV-unprocessed.smi

> <i_m_source_file_index>
1100

> <i_lp_mmshare_version>
43012

> <i_f3d_flags>
0

> <s_epik_input>
W0NIMl0xW0NIMl1PW0NIMl1bQ0gyXU4xW0NASF0oW0NIM10pW0NIMl1bTkhdQyg9TylbTkhdYzJbY0hdW2NIXWMoPU8pbihbQ0gzXSlbY0hdMg==

> <s_epik_cmdline>
J2VwaWtfcHl0aG9uJywgJy1waCcsICc3LjAnLCAnLXRuJywgJzgnLCAnLW1hJywgJzIwMCcsICctbWV0YWxfYmluZGluZycsICctaW1hZScsICc8aW5maWxlLm1hZT4nLCAnLW9tYWUnLCAnPG91dGZpbGUubWFlPic=

> <r_lp_tautomer_probability>
1

> <r_epik_Ionization_Penalty>
0.602556

> <r_epik_Ionization_Penalty_Charging>
0.602536

> <r_epik_Ionization_Penalty_Neutral>
1.99507e-05

> <r_epik_State_Penalty>
0.617039

> <r_epik_Charging_Adjusted_Penalty>
1.21958

> <i_epik_Tot_Q>
1

> <i_epik_Tot_abs_Q>
1

> <r_epik_Metal_State_Penalty>
0.619464

> <b_epik_Metal_Only>
0

> <s_lp_Force_Field>
OPLS_2005

> <r_lp_Energy>
33.1854

> <b_lp_Chiralities_Consistent>
1

> <s_lp_Variant>
AV-unprocessed.smi:1100-3

> <Gold.Version>
5.8.1

> <Gold.Id.Protein>
6NUR|6NUR_protein|mol2

> <Gold.PLP.Fitness>
50.2062

> <Gold.PLP.PLP>
-38.5389

> <Gold.PLP.part.hbond>
-3.9709

> <Gold.PLP.part.metal>
0.0000

> <Gold.PLP.part.buried>
-4.1385

> <Gold.PLP.part.nonpolar>
-30.8947

> <Gold.PLP.part.repulsive>
0.5136

> <Gold.PLP.ligand.clash>
0.0000

> <Gold.PLP.ligand.torsion>
1.0703

> <Gold.PLP.Chemscore.Hbond>
4.5815

> <Gold.PLP.Chemscore.CHOScore>
0.0000

> <Gold.PLP.Chemscore.Metal>
0.0000

> <Gold.Chemscore.Hbonds>
donor molecule, donor type, donor heavy atom, donor atom, acceptor molecule, acceptor atom, score
      L1  H     4    28       P1  8028  0.71
      L1  H     7    29       P1  8028  0.78
      L1  H    16    44       P1 10175  2.00
      P1  H  7989  7998       L1     6  0.39

> <Gold.PLP.Chemscore.Internal.Correction>
0.0636

> <Gold.Rescore>
     Score         DG    S(hbond)    S(metal)    S(lipo)     H(rot)  DE(clash)    DE(int)     intcor
     17.20     -20.69       2.90        0.00      80.94       1.54       1.36       2.13       ----

> <Gold.Chemscore.Fitness>
17.1988

> <Gold.Chemscore.DG>
-20.6907

> <Gold.Chemscore.ZeroCoef>
-5.4800

> <Gold.Chemscore.Hbond>
2.8989

> <Gold.Chemscore.Metal>
0.0000

> <Gold.Chemscore.Lipo>
80.9417

> <Gold.Chemscore.Internal_Hbond>
0.0000

> <Gold.Chemscore.DEClash>
1.3581

> <Gold.Chemscore.DEInternal>
2.1337

> <Gold.Chemscore.Rot>
1.5398

> <Gold.Chemscore.Internal.Correction>
   9.000000E+99

> <Gold.Chemscore.Hbonds>
donor molecule, donor type, donor heavy atom, donor atom, acceptor molecule, acceptor atom, score
      L1  H     4    28       P1  8028  0.69
      L1  H     7    29       P1  8028  0.74
      L1  H    16    44       P1 10175  0.44
      P1  H  7989  7998       L1     6  0.08

> <Gold.Chemscore.Hbond.Weighted>
-9.6825

> <Gold.Chemscore.Metal.Weighted>
-0.0000

> <Gold.Chemscore.Lipo.Weighted>
-9.4702

> <Gold.Chemscore.Internal_Hbond.Weighted>
0.0000

> <Gold.Chemscore.DEClash.Weighted>
1.3581

> <Gold.Chemscore.DEInternal.Weighted>
2.1337

> <Gold.Chemscore.Rot.Weighted>
3.9420

> <Gold.Chemscore.Internal.Correction.Weighted>
   9.000000E+99

> <Gold.Protein.RotatedTorsions>
[ 6907 6896 6895 6894 ] final  173.55 input  -60.11 | X-H torsion
[ 7974 7965 7964 7962 ] final  -51.61 input  175.53 | X-H torsion
[ 8008 7997 7996 7995 ] final   64.08 input   59.86 | X-H torsion
[ 10167 10162 10161 10158 ] final  -52.07 input  -65.29 | X-H torsion
[ 10718 10713 10712 10709 ] final  -47.71 input   66.30 | X-H torsion
[ 10763 10752 10751 10750 ] final  137.90 input  -60.55 | X-H torsion
[ 11005 11000 10999 10996 ] final   61.79 input  -57.11 | X-H torsion

> <Gold.Protein.ActiveResidues>
 VAL166  LYS551  ARG553  GLY616  TRP617  ASP618  TYR619  PRO620  LYS621  CYS622 
 ASP623  PHE694  ASN695  SER759  ASP760  ASP761  ALA762  ILE779  LEU786  VAL792 
 PHE793  MET794  SER795  GLU796  ALA797  LYS798  CYS799  TRP800  GLU811  SER814 

> <Gold.Protein.RotatedAtoms>
  151.7665  133.3337  159.3431 H   0  0  0  0  0  0  0  0  0  0  0  0  # atno 6907 bound_to 6896
  150.7478  134.6058  159.6070 H   0  0  0  0  0  0  0  0  0  0  0  0  # atno 6908 bound_to 6896
  152.3370  134.7186  160.0325 H   0  0  0  0  0  0  0  0  0  0  0  0  # atno 6909 bound_to 6896
  145.9171  140.7866  142.9666 H   0  0  0  0  0  0  0  0  0  0  0  0  # atno 7974 bound_to 7965
  155.6404  140.3497  155.4713 H   0  0  0  0  0  0  0  0  0  0  0  0  # atno 8008 bound_to 7997
  155.9931  140.1198  157.0643 H   0  0  0  0  0  0  0  0  0  0  0  0  # atno 8009 bound_to 7997
  154.4225  140.1115  156.5579 H   0  0  0  0  0  0  0  0  0  0  0  0  # atno 8010 bound_to 7997
  140.6556  143.2597  151.4595 H   0  0  0  0  0  0  0  0  0  0  0  0  # atno 10167 bound_to 10162
  156.2058  130.4158  149.9179 H   0  0  0  0  0  0  0  0  0  0  0  0  # atno 10718 bound_to 10713
  153.8808  135.3044  155.3445 H   0  0  0  0  0  0  0  0  0  0  0  0  # atno 10763 bound_to 10752
  154.7762  135.4860  153.9753 H   0  0  0  0  0  0  0  0  0  0  0  0  # atno 10764 bound_to 10752
  153.1353  135.6812  153.9210 H   0  0  0  0  0  0  0  0  0  0  0  0  # atno 10765 bound_to 10752
  140.0137  134.6257  155.9742 H   0  0  0  0  0  0  0  0  0  0  0  0  # atno 11005 bound_to 11000
  144.6749  140.1917  143.7396 LP  0  0  0  0  0  0  0  0  0  0  0  0  # atno 17320 bound_to 7965
  145.8598  139.2217  143.1723 LP  0  0  0  0  0  0  0  0  0  0  0  0  # atno 17321 bound_to 7965
  139.5778  144.1778  152.1927 LP  0  0  0  0  0  0  0  0  0  0  0  0  # atno 17342 bound_to 10162
  140.1094  144.5470  150.6935 LP  0  0  0  0  0  0  0  0  0  0  0  0  # atno 17343 bound_to 10162
  156.6874  130.8882  151.3584 LP  0  0  0  0  0  0  0  0  0  0  0  0  # atno 17370 bound_to 10713
  157.7011  130.9334  150.0790 LP  0  0  0  0  0  0  0  0  0  0  0  0  # atno 17371 bound_to 10713
  141.1728  133.6538  156.4716 LP  0  0  0  0  0  0  0  0  0  0  0  0  # atno 17394 bound_to 11000
  140.4509  134.6929  157.5039 LP  0  0  0  0  0  0  0  0  0  0  0  0  # atno 17395 bound_to 11000

$$$$
