AV-unprocessed.smi:1572|AV-procd|sdf|6327|dock1
  -GOLD-   22720 6533D 1   1.00000     0.00000
 Structure written by MMmdl.
 43 44  0  0  0  0  0  0  0  0  2 V2000
  143.7986  132.6120  149.8885 C   0  0  0  0  0  0  0  0  0  0  0  0
  145.0160  133.4556  149.8685 N   0  3  0  0  0  0  0  0  0  0  0  0
  146.2698  132.7067  150.1109 C   0  0  0  0  0  0  0  0  0  0  0  0
  146.4369  132.3517  151.6021 C   0  0  0  0  0  0  0  0  0  0  0  0
  146.4469  133.5742  152.4226 N   0  0  0  0  0  0  0  0  0  0  0  0
  146.8482  133.3687  153.8410 C   0  0  0  0  0  0  0  0  0  0  0  0
  145.9211  132.3109  154.4921 C   0  0  0  0  0  0  0  0  0  0  0  0
  148.3119  132.8804  153.9601 C   0  0  0  0  0  0  0  0  0  0  0  0
  146.7021  134.6929  154.6497 C   0  0  0  0  0  0  0  0  0  0  0  0
  147.5278  135.7828  154.1289 N   0  0  0  0  0  0  0  0  0  0  0  0
  147.7610  136.9521  154.7420 C   0  0  0  0  0  0  0  0  0  0  0  0
  147.3048  137.2440  155.8472 O   0  0  0  0  0  0  0  0  0  0  0  0
  148.5395  137.7454  153.9887 N   0  0  0  0  0  0  0  0  0  0  0  0
  148.9956  139.0541  154.2842 C   0  0  0  0  0  0  0  0  0  0  0  0
  150.2556  139.1977  154.7115 N   0  0  0  0  0  0  0  0  0  0  0  0
  150.5709  140.5271  154.9645 N   0  0  0  0  0  0  0  0  0  0  0  0
  149.5346  141.3345  154.7182 C   0  0  0  0  0  0  0  0  0  0  0  0
  148.0696  140.5520  154.1521 S   0  0  0  0  0  0  0  0  0  0  0  0
  145.1454  134.2388  152.2384 C   0  0  0  0  0  0  0  0  0  0  0  0
  144.9452  134.6344  150.7614 C   0  0  0  0  0  0  0  0  0  0  0  0
  143.6294  132.1608  150.8662 H   0  0  0  0  0  0  0  0  0  0  0  0
  143.8798  131.8094  149.1550 H   0  0  0  0  0  0  0  0  0  0  0  0
  142.9198  133.2047  149.6327 H   0  0  0  0  0  0  0  0  0  0  0  0
  146.2891  131.8046  149.4980 H   0  0  0  0  0  0  0  0  0  0  0  0
  147.1120  133.3184  149.7837 H   0  0  0  0  0  0  0  0  0  0  0  0
  145.6447  131.6755  151.9242 H   0  0  0  0  0  0  0  0  0  0  0  0
  147.3728  131.8058  151.6965 H   0  0  0  0  0  0  0  0  0  0  0  0
  146.0396  132.2985  155.5761 H   0  0  0  0  0  0  0  0  0  0  0  0
  146.1413  131.2973  154.1576 H   0  0  0  0  0  0  0  0  0  0  0  0
  144.8688  132.5091  154.2847 H   0  0  0  0  0  0  0  0  0  0  0  0
  148.5805  132.7265  155.0059 H   0  0  0  0  0  0  0  0  0  0  0  0
  149.0233  133.6017  153.5584 H   0  0  0  0  0  0  0  0  0  0  0  0
  148.4766  131.9299  153.4535 H   0  0  0  0  0  0  0  0  0  0  0  0
  145.6534  134.9945  154.6784 H   0  0  0  0  0  0  0  0  0  0  0  0
  146.9610  134.5473  155.6979 H   0  0  0  0  0  0  0  0  0  0  0  0
  147.9415  135.6368  153.2200 H   0  0  0  0  0  0  0  0  0  0  0  0
  148.8365  137.3748  153.0984 H   0  0  0  0  0  0  0  0  0  0  0  0
  149.6341  142.3987  154.8716 H   0  0  0  0  0  0  0  0  0  0  0  0
  144.3315  133.5962  152.5742 H   0  0  0  0  0  0  0  0  0  0  0  0
  145.0843  135.1549  152.8218 H   0  0  0  0  0  0  0  0  0  0  0  0
  145.7181  135.3450  150.4651 H   0  0  0  0  0  0  0  0  0  0  0  0
  143.9910  135.1454  150.6284 H   0  0  0  0  0  0  0  0  0  0  0  0
  145.0757  133.8149  148.9264 H   0  0  0  0  0  0  0  0  0  0  0  0
  1  2  1  0  0  0  0
  1 21  1  0  0  0  0
  1 22  1  0  0  0  0
  1 23  1  0  0  0  0
  2 20  1  0  0  0  0
  2  3  1  0  0  0  0
  2 43  1  0  0  0  0
  3  4  1  0  0  0  0
  3 24  1  0  0  0  0
  3 25  1  0  0  0  0
  4  5  1  0  0  0  0
  4 26  1  0  0  0  0
  4 27  1  0  0  0  0
  5  6  1  0  0  0  0
  5 19  1  0  0  0  0
  6  7  1  0  0  0  0
  6  8  1  0  0  0  0
  6  9  1  0  0  0  0
  7 28  1  0  0  0  0
  7 29  1  0  0  0  0
  7 30  1  0  0  0  0
  8 31  1  0  0  0  0
  8 32  1  0  0  0  0
  8 33  1  0  0  0  0
  9 10  1  0  0  0  0
  9 34  1  0  0  0  0
  9 35  1  0  0  0  0
 10 11  1  0  0  0  0
 10 36  1  0  0  0  0
 11 12  2  0  0  0  0
 11 13  1  0  0  0  0
 13 14  1  0  0  0  0
 13 37  1  0  0  0  0
 14 18  1  0  0  0  0
 14 15  2  0  0  0  0
 15 16  1  0  0  0  0
 16 17  2  0  0  0  0
 17 18  1  0  0  0  0
 17 38  1  0  0  0  0
 19 20  1  0  0  0  0
 19 39  1  0  0  0  0
 19 40  1  0  0  0  0
 20 41  1  0  0  0  0
 20 42  1  0  0  0  0
M  CHG  1   2   1
M  END
> <s_m_source_file>
AV-unprocessed.smi

> <i_m_source_file_index>
1572

> <i_lp_mmshare_version>
43012

> <i_f3d_flags>
0

> <s_epik_input>
W0NIM11OMVtDSDJdW0NIMl1OKFtDSDJdW0NIMl0xKUMoW0NIM10pKFtDSDNdKVtDSDJdW05IXUMoPU8pW05IXWMybm5bY0hdczI=

> <s_epik_cmdline>
J2VwaWtfcHl0aG9uJywgJy1waCcsICc3LjAnLCAnLXRuJywgJzgnLCAnLW1hJywgJzIwMCcsICctbWV0YWxfYmluZGluZycsICctaW1hZScsICc8aW5maWxlLm1hZT4nLCAnLW9tYWUnLCAnPG91dGZpbGUubWFlPic=

> <r_lp_tautomer_probability>
1

> <r_epik_Ionization_Penalty>
0.0267369

> <r_epik_Ionization_Penalty_Charging>
0.0242302

> <r_epik_Ionization_Penalty_Neutral>
0.00250668

> <r_epik_State_Penalty>
0.128805

> <r_epik_Charging_Adjusted_Penalty>
0.153036

> <i_epik_Tot_Q>
1

> <i_epik_Tot_abs_Q>
1

> <r_epik_Metal_State_Penalty>
0.462629

> <b_epik_Metal_Only>
0

> <s_lp_Force_Field>
OPLS_2005

> <r_lp_Energy>
23.6119

> <b_lp_Chiralities_Consistent>
1

> <s_lp_Variant>
AV-unprocessed.smi:1572-1

> <Gold.Version>
5.8.1

> <Gold.Id.Protein>
6NUR|6NUR_protein|mol2

> <Gold.PLP.Fitness>
41.6706

> <Gold.PLP.PLP>
-28.5120

> <Gold.PLP.part.hbond>
-4.0000

> <Gold.PLP.part.metal>
0.0000

> <Gold.PLP.part.buried>
-2.7716

> <Gold.PLP.part.nonpolar>
-22.5479

> <Gold.PLP.part.repulsive>
0.4497

> <Gold.PLP.ligand.clash>
0.0000

> <Gold.PLP.ligand.torsion>
0.8605

> <Gold.PLP.Chemscore.Hbond>
3.9360

> <Gold.PLP.Chemscore.CHOScore>
1.0000

> <Gold.PLP.Chemscore.Metal>
0.0000

> <Gold.Chemscore.Hbonds>
donor molecule, donor type, donor heavy atom, donor atom, acceptor molecule, acceptor atom, score
      L1  H     2    43       P1  7921  0.94
      L1  H    10    36       P1  7948  1.00
      L1  H    13    37       P1  7948  1.00
      P1  H  7989  7998       L1    16  1.00
      L1  C    17    38       P1  8028  0.94

> <Gold.PLP.Chemscore.Internal.Correction>
0.0716

> <Gold.Rescore>
     Score         DG    S(hbond)    S(metal)    S(lipo)     H(rot)  DE(clash)    DE(int)     intcor
     17.50     -18.52       2.96        0.00      64.02       1.70       0.25       0.77       ----

> <Gold.Chemscore.Fitness>
17.5036

> <Gold.Chemscore.DG>
-18.5199

> <Gold.Chemscore.ZeroCoef>
-5.4800

> <Gold.Chemscore.Hbond>
2.9610

> <Gold.Chemscore.Metal>
0.0000

> <Gold.Chemscore.Lipo>
64.0244

> <Gold.Chemscore.Internal_Hbond>
0.0000

> <Gold.Chemscore.DEClash>
0.2463

> <Gold.Chemscore.DEInternal>
0.7701

> <Gold.Chemscore.Rot>
1.6956

> <Gold.Chemscore.Internal.Correction>
   9.000000E+99

> <Gold.Chemscore.Hbonds>
donor molecule, donor type, donor heavy atom, donor atom, acceptor molecule, acceptor atom, score
      L1  H     2    43       P1  7921  0.84
      L1  H    10    36       P1  7948  0.95
      L1  H    13    37       P1  7948  0.99
      P1  H  7989  7998       L1    16  0.06

> <Gold.Chemscore.Hbond.Weighted>
-9.8898

> <Gold.Chemscore.Metal.Weighted>
-0.0000

> <Gold.Chemscore.Lipo.Weighted>
-7.4909

> <Gold.Chemscore.Internal_Hbond.Weighted>
0.0000

> <Gold.Chemscore.DEClash.Weighted>
0.2463

> <Gold.Chemscore.DEInternal.Weighted>
0.7701

> <Gold.Chemscore.Rot.Weighted>
4.3407

> <Gold.Chemscore.Internal.Correction.Weighted>
   9.000000E+99

> <Gold.Protein.RotatedTorsions>
[ 6907 6896 6895 6894 ] final  -53.62 input  -60.11 | X-H torsion
[ 7974 7965 7964 7962 ] final  -66.98 input  175.53 | X-H torsion
[ 8008 7997 7996 7995 ] final  -37.87 input   59.86 | X-H torsion
[ 10167 10162 10161 10158 ] final -150.38 input  -65.29 | X-H torsion
[ 10718 10713 10712 10709 ] final  123.26 input   66.30 | X-H torsion
[ 10763 10752 10751 10750 ] final -149.44 input  -60.55 | X-H torsion
[ 11005 11000 10999 10996 ] final  134.43 input  -57.11 | X-H torsion

> <Gold.Protein.ActiveResidues>
 VAL166  LYS551  ARG553  GLY616  TRP617  ASP618  TYR619  PRO620  LYS621  CYS622 
 ASP623  PHE694  ASN695  SER759  ASP760  ASP761  ALA762  ILE779  LEU786  VAL792 
 PHE793  MET794  SER795  GLU796  ALA797  LYS798  CYS799  TRP800  GLU811  SER814 

> <Gold.Protein.RotatedAtoms>
  150.8410  134.7702  159.6932 H   0  0  0  0  0  0  0  0  0  0  0  0  # atno 6907 bound_to 6896
  152.4497  134.5415  159.9850 H   0  0  0  0  0  0  0  0  0  0  0  0  # atno 6908 bound_to 6896
  151.5555  133.3373  159.2997 H   0  0  0  0  0  0  0  0  0  0  0  0  # atno 6909 bound_to 6896
  145.7349  140.8980  143.0560 H   0  0  0  0  0  0  0  0  0  0  0  0  # atno 7974 bound_to 7965
  154.4046  140.1593  156.2607 H   0  0  0  0  0  0  0  0  0  0  0  0  # atno 8008 bound_to 7997
  155.9038  140.3431  155.6024 H   0  0  0  0  0  0  0  0  0  0  0  0  # atno 8009 bound_to 7997
  155.7416  140.0793  157.2233 H   0  0  0  0  0  0  0  0  0  0  0  0  # atno 8010 bound_to 7997
  139.7359  143.8736  152.2548 H   0  0  0  0  0  0  0  0  0  0  0  0  # atno 10167 bound_to 10162
  157.5679  131.1085  150.8421 H   0  0  0  0  0  0  0  0  0  0  0  0  # atno 10718 bound_to 10713
  154.8177  135.3309  154.7129 H   0  0  0  0  0  0  0  0  0  0  0  0  # atno 10763 bound_to 10752
  153.7768  135.6921  153.4900 H   0  0  0  0  0  0  0  0  0  0  0  0  # atno 10764 bound_to 10752
  153.2007  135.4517  155.0211 H   0  0  0  0  0  0  0  0  0  0  0  0  # atno 10765 bound_to 10752
  139.9914  134.9513  156.9865 H   0  0  0  0  0  0  0  0  0  0  0  0  # atno 11005 bound_to 11000
  144.6884  139.9382  143.7474 LP  0  0  0  0  0  0  0  0  0  0  0  0  # atno 17320 bound_to 7965
  146.0502  139.3504  143.0644 LP  0  0  0  0  0  0  0  0  0  0  0  0  # atno 17321 bound_to 7965
  139.8673  144.7086  150.9029 LP  0  0  0  0  0  0  0  0  0  0  0  0  # atno 17342 bound_to 10162
  140.7778  143.3767  151.1550 LP  0  0  0  0  0  0  0  0  0  0  0  0  # atno 17343 bound_to 10162
  156.8901  130.5210  149.5286 LP  0  0  0  0  0  0  0  0  0  0  0  0  # atno 17370 bound_to 10713
  156.0726  130.5755  150.9412 LP  0  0  0  0  0  0  0  0  0  0  0  0  # atno 17371 bound_to 10713
  140.4900  134.1202  155.7231 LP  0  0  0  0  0  0  0  0  0  0  0  0  # atno 17394 bound_to 11000
  141.1569  133.8866  157.1953 LP  0  0  0  0  0  0  0  0  0  0  0  0  # atno 17395 bound_to 11000

$$$$
