AV-unprocessed.smi:2910|AV-procd|sdf|11176|dock2
  -GOLD-   2272016 63D 1   1.00000     0.00000
 Structure written by MMmdl.
 47 48  0  0  0  0  0  0  0  0  1 V2000
  152.7362  142.8865  162.7763 C   0  0  0  0  0  0  0  0  0  0  0  0
  152.4221  142.9779  161.3123 C   0  0  0  0  0  0  0  0  0  0  0  0
  152.4822  141.9415  160.3359 C   0  0  0  0  0  0  0  0  0  0  0  0
  152.1007  142.5846  159.1901 C   0  0  0  0  0  0  0  0  0  0  0  0
  151.9820  142.0881  157.9300 N   0  0  0  0  0  0  0  0  0  0  0  0
  151.2818  141.0198  157.5109 C   0  0  0  0  0  0  0  0  0  0  0  0
  150.5792  140.3036  158.2241 O   0  0  0  0  0  0  0  0  0  0  0  0
  151.4425  140.8263  156.1929 N   0  0  0  0  0  0  0  0  0  0  0  0
  150.8408  139.7507  155.3996 C   0  0  1  0  0  0  0  0  0  0  0  0
  151.0464  138.4059  156.1375 C   0  0  0  0  0  0  0  0  0  0  0  0
  150.7587  137.1633  155.2764 C   0  0  0  0  0  0  0  0  0  0  0  0
  151.7131  137.0694  154.2412 O   0  0  0  0  0  0  0  0  0  0  0  0
  149.3482  140.0788  155.1034 C   0  0  0  0  0  0  0  0  0  0  0  0
  148.6897  139.0450  154.1563 C   0  0  0  0  0  0  0  0  0  0  0  0
  147.2217  139.3814  153.8478 C   0  0  0  0  0  0  0  0  0  0  0  0
  147.0819  140.7916  153.2620 C   0  0  0  0  0  0  0  0  0  0  0  0
  147.6989  141.8301  154.2061 C   0  0  0  0  0  0  0  0  0  0  0  0
  149.1685  141.5012  154.5115 C   0  0  0  0  0  0  0  0  0  0  0  0
  151.8386  143.9036  159.4867 N   0  0  0  0  0  0  0  0  0  0  0  0
  151.4058  144.9757  158.6117 C   0  0  0  0  0  0  0  0  0  0  0  0
  152.0372  144.1420  160.8012 N   0  0  0  0  0  0  0  0  0  0  0  0
  153.0195  141.8715  163.0555 H   0  0  0  0  0  0  0  0  0  0  0  0
  151.8748  143.1692  163.3820 H   0  0  0  0  0  0  0  0  0  0  0  0
  153.5629  143.5459  163.0417 H   0  0  0  0  0  0  0  0  0  0  0  0
  152.7633  140.9086  160.4748 H   0  0  0  0  0  0  0  0  0  0  0  0
  152.4981  142.5878  157.2212 H   0  0  0  0  0  0  0  0  0  0  0  0
  152.0395  141.4692  155.6933 H   0  0  0  0  0  0  0  0  0  0  0  0
  151.3528  139.6736  154.4387 H   0  0  0  0  0  0  0  0  0  0  0  0
  152.0654  138.3521  156.5236 H   0  0  0  0  0  0  0  0  0  0  0  0
  150.3886  138.3590  157.0043 H   0  0  0  0  0  0  0  0  0  0  0  0
  150.8010  136.2575  155.8820 H   0  0  0  0  0  0  0  0  0  0  0  0
  149.7667  137.2113  154.8273 H   0  0  0  0  0  0  0  0  0  0  0  0
  151.2626  136.8742  153.4336 H   0  0  0  0  0  0  0  0  0  0  0  0
  148.8078  140.0489  156.0510 H   0  0  0  0  0  0  0  0  0  0  0  0
  149.2532  138.9898  153.2238 H   0  0  0  0  0  0  0  0  0  0  0  0
  148.7158  138.0474  154.5922 H   0  0  0  0  0  0  0  0  0  0  0  0
  146.8122  138.6491  153.1516 H   0  0  0  0  0  0  0  0  0  0  0  0
  146.6297  139.3043  154.7607 H   0  0  0  0  0  0  0  0  0  0  0  0
  147.5755  140.8377  152.2904 H   0  0  0  0  0  0  0  0  0  0  0  0
  146.0305  141.0222  153.0881 H   0  0  0  0  0  0  0  0  0  0  0  0
  147.6258  142.8237  153.7631 H   0  0  0  0  0  0  0  0  0  0  0  0
  147.1305  141.8634  155.1366 H   0  0  0  0  0  0  0  0  0  0  0  0
  149.5472  142.2585  155.1976 H   0  0  0  0  0  0  0  0  0  0  0  0
  149.7585  141.5939  153.5985 H   0  0  0  0  0  0  0  0  0  0  0  0
  152.0990  145.0675  157.7750 H   0  0  0  0  0  0  0  0  0  0  0  0
  151.3761  145.9240  159.1506 H   0  0  0  0  0  0  0  0  0  0  0  0
  150.4096  144.7544  158.2280 H   0  0  0  0  0  0  0  0  0  0  0  0
  1  2  1  0  0  0  0
  1 22  1  0  0  0  0
  1 23  1  0  0  0  0
  1 24  1  0  0  0  0
  2 21  2  0  0  0  0
  2  3  1  0  0  0  0
  3  4  2  0  0  0  0
  3 25  1  0  0  0  0
  4  5  1  0  0  0  0
  4 19  1  0  0  0  0
  5  6  1  0  0  0  0
  5 26  1  0  0  0  0
  6  7  2  0  0  0  0
  6  8  1  0  0  0  0
  8  9  1  0  0  0  0
  8 27  1  0  0  0  0
  9 10  1  0  0  0  0
  9 13  1  0  0  0  0
  9 28  1  0  0  0  0
 10 11  1  0  0  0  0
 10 29  1  0  0  0  0
 10 30  1  0  0  0  0
 11 12  1  0  0  0  0
 11 31  1  0  0  0  0
 11 32  1  0  0  0  0
 12 33  1  0  0  0  0
 13 18  1  0  0  0  0
 13 14  1  0  0  0  0
 13 34  1  0  0  0  0
 14 15  1  0  0  0  0
 14 35  1  0  0  0  0
 14 36  1  0  0  0  0
 15 16  1  0  0  0  0
 15 37  1  0  0  0  0
 15 38  1  0  0  0  0
 16 17  1  0  0  0  0
 16 39  1  0  0  0  0
 16 40  1  0  0  0  0
 17 18  1  0  0  0  0
 17 41  1  0  0  0  0
 17 42  1  0  0  0  0
 18 43  1  0  0  0  0
 18 44  1  0  0  0  0
 19 20  1  0  0  0  0
 19 21  1  0  0  0  0
 20 45  1  0  0  0  0
 20 46  1  0  0  0  0
 20 47  1  0  0  0  0
M  END
> <s_m_source_file>
AV-unprocessed.smi

> <i_m_source_file_index>
2910

> <i_lp_mmshare_version>
43012

> <i_f3d_flags>
0

> <s_epik_input>
W0NIM11jMVtjSF1jKG4objEpW0NIM10pW05IXUMoPU8pW05IXVtDQEhdKFtDSDJdW0NIMl1bT0hdKVtDSF0yW0NIMl1bQ0gyXVtDSDJdW0NIMl1bQ0gyXTI=

> <s_epik_cmdline>
J2VwaWtfcHl0aG9uJywgJy1waCcsICc3LjAnLCAnLXRuJywgJzgnLCAnLW1hJywgJzIwMCcsICctbWV0YWxfYmluZGluZycsICctaW1hZScsICc8aW5maWxlLm1hZT4nLCAnLW9tYWUnLCAnPG91dGZpbGUubWFlPic=

> <r_lp_tautomer_probability>
1

> <r_epik_Ionization_Penalty>
0.000101449

> <r_epik_Ionization_Penalty_Charging>
0

> <r_epik_Ionization_Penalty_Neutral>
0.000101449

> <r_epik_State_Penalty>
-0

> <r_epik_Charging_Adjusted_Penalty>
0

> <i_epik_Tot_Q>
0

> <i_epik_Tot_abs_Q>
0

> <r_epik_Metal_State_Penalty>
-0

> <b_epik_Metal_Only>
0

> <s_lp_Force_Field>
OPLS_2005

> <r_lp_Energy>
16.2271

> <b_lp_Chiralities_Consistent>
1

> <s_lp_Variant>
AV-unprocessed.smi:2910-2

> <Gold.Version>
5.8.1

> <Gold.Id.Protein>
6NUR|6NUR_protein|mol2

> <Gold.PLP.Fitness>
51.8356

> <Gold.PLP.PLP>
-47.2745

> <Gold.PLP.part.hbond>
-2.0000

> <Gold.PLP.part.metal>
0.0000

> <Gold.PLP.part.buried>
-2.1933

> <Gold.PLP.part.nonpolar>
-42.8887

> <Gold.PLP.part.repulsive>
0.3194

> <Gold.PLP.ligand.clash>
0.0000

> <Gold.PLP.ligand.torsion>
0.8018

> <Gold.PLP.Chemscore.Hbond>
2.0000

> <Gold.PLP.Chemscore.CHOScore>
0.0000

> <Gold.PLP.Chemscore.Metal>
0.0000

> <Gold.Chemscore.Hbonds>
donor molecule, donor type, donor heavy atom, donor atom, acceptor molecule, acceptor atom, score
      L1  H    12    33       P1  7949  0.73
      P1  H 10752 10764       L1    12  1.00

> <Gold.PLP.Chemscore.Internal.Correction>
0.1647

> <Gold.Rescore>
     Score         DG    S(hbond)    S(metal)    S(lipo)     H(rot)  DE(clash)    DE(int)     intcor
     15.34     -17.69       1.67        0.00     106.56       2.27       1.49       0.86       ----

> <Gold.Chemscore.Fitness>
15.3397

> <Gold.Chemscore.DG>
-17.6915

> <Gold.Chemscore.ZeroCoef>
-5.4800

> <Gold.Chemscore.Hbond>
1.6667

> <Gold.Chemscore.Metal>
0.0000

> <Gold.Chemscore.Lipo>
106.5559

> <Gold.Chemscore.Internal_Hbond>
0.0000

> <Gold.Chemscore.DEClash>
1.4935

> <Gold.Chemscore.DEInternal>
0.8583

> <Gold.Chemscore.Rot>
2.2743

> <Gold.Chemscore.Internal.Correction>
   9.000000E+99

> <Gold.Chemscore.Hbonds>
donor molecule, donor type, donor heavy atom, donor atom, acceptor molecule, acceptor atom, score
      L1  H    12    33       P1  7949  0.46
      P1  H 10752 10764       L1    12  0.32

> <Gold.Chemscore.Hbond.Weighted>
-5.5667

> <Gold.Chemscore.Metal.Weighted>
-0.0000

> <Gold.Chemscore.Lipo.Weighted>
-12.4670

> <Gold.Chemscore.Internal_Hbond.Weighted>
0.0000

> <Gold.Chemscore.DEClash.Weighted>
1.4935

> <Gold.Chemscore.DEInternal.Weighted>
0.8583

> <Gold.Chemscore.Rot.Weighted>
5.8223

> <Gold.Chemscore.Internal.Correction.Weighted>
   9.000000E+99

> <Gold.Protein.RotatedTorsions>
[ 6907 6896 6895 6894 ] final -163.80 input  -60.11 | X-H torsion
[ 7974 7965 7964 7962 ] final  -83.33 input  175.53 | X-H torsion
[ 8008 7997 7996 7995 ] final  -33.92 input   59.86 | X-H torsion
[ 10167 10162 10161 10158 ] final  147.13 input  -65.29 | X-H torsion
[ 10718 10713 10712 10709 ] final -169.88 input   66.30 | X-H torsion
[ 10763 10752 10751 10750 ] final  -73.78 input  -60.55 | X-H torsion
[ 11005 11000 10999 10996 ] final  -89.40 input  -57.11 | X-H torsion

> <Gold.Protein.ActiveResidues>
 VAL166  LYS551  ARG553  GLY616  TRP617  ASP618  TYR619  PRO620  LYS621  CYS622 
 ASP623  PHE694  ASN695  SER759  ASP760  ASP761  ALA762  ILE779  LEU786  VAL792 
 PHE793  MET794  SER795  GLU796  ALA797  LYS798  CYS799  TRP800  GLU811  SER814 

> <Gold.Protein.RotatedAtoms>
  151.4017  133.3755  159.2732 H   0  0  0  0  0  0  0  0  0  0  0  0  # atno 6907 bound_to 6896
  150.9429  134.8837  159.7634 H   0  0  0  0  0  0  0  0  0  0  0  0  # atno 6908 bound_to 6896
  152.5079  134.3968  159.9455 H   0  0  0  0  0  0  0  0  0  0  0  0  # atno 6909 bound_to 6896
  145.5214  140.9531  143.1653 H   0  0  0  0  0  0  0  0  0  0  0  0  # atno 7974 bound_to 7965
  154.4135  140.1698  156.1965 H   0  0  0  0  0  0  0  0  0  0  0  0  # atno 8008 bound_to 7997
  155.9560  140.3397  155.6425 H   0  0  0  0  0  0  0  0  0  0  0  0  # atno 8009 bound_to 7997
  155.6810  140.0722  157.2475 H   0  0  0  0  0  0  0  0  0  0  0  0  # atno 8010 bound_to 7997
  139.4895  144.5778  151.6930 H   0  0  0  0  0  0  0  0  0  0  0  0  # atno 10167 bound_to 10162
  156.7179  130.9259  151.3095 H   0  0  0  0  0  0  0  0  0  0  0  0  # atno 10718 bound_to 10713
  154.4641  135.5886  153.6276 H   0  0  0  0  0  0  0  0  0  0  0  0  # atno 10763 bound_to 10752
  152.9826  135.6051  154.3449 H   0  0  0  0  0  0  0  0  0  0  0  0  # atno 10764 bound_to 10752
  154.3324  135.2842  155.2444 H   0  0  0  0  0  0  0  0  0  0  0  0  # atno 10765 bound_to 10752
  141.1585  133.7628  156.9589 H   0  0  0  0  0  0  0  0  0  0  0  0  # atno 11005 bound_to 11000
  144.7674  139.6814  143.7209 LP  0  0  0  0  0  0  0  0  0  0  0  0  # atno 17320 bound_to 7965
  146.2103  139.5455  142.9685 LP  0  0  0  0  0  0  0  0  0  0  0  0  # atno 17321 bound_to 7965
  140.5378  144.0627  150.6077 LP  0  0  0  0  0  0  0  0  0  0  0  0  # atno 17342 bound_to 10162
  140.3639  143.2892  152.0353 LP  0  0  0  0  0  0  0  0  0  0  0  0  # atno 17343 bound_to 10162
  157.6910  130.9233  150.0513 LP  0  0  0  0  0  0  0  0  0  0  0  0  # atno 17370 bound_to 10713
  156.1615  130.3644  149.9293 LP  0  0  0  0  0  0  0  0  0  0  0  0  # atno 17371 bound_to 10713
  140.1206  134.9419  157.2198 LP  0  0  0  0  0  0  0  0  0  0  0  0  # atno 17394 bound_to 11000
  140.3077  134.3059  155.7274 LP  0  0  0  0  0  0  0  0  0  0  0  0  # atno 17395 bound_to 11000

$$$$
