AV-unprocessed.smi:416|AV-procd|sdf|2526|dock2
  -GOLD-   2262022483D 1   1.00000     0.00000
 Structure written by MMmdl.
 43 44  0  0  0  0  0  0  0  0  1 V2000
  143.9069  132.1194  150.3773 C   0  0  0  0  0  0  0  0  0  0  0  0
  145.4039  131.7713  150.5032 C   0  0  0  0  0  0  0  0  0  0  0  0
  145.5432  130.3479  151.0830 C   0  0  0  0  0  0  0  0  0  0  0  0
  146.0492  131.8008  149.0972 C   0  0  0  0  0  0  0  0  0  0  0  0
  146.0613  132.7766  151.4801 C   0  0  0  0  0  0  0  0  0  0  0  0
  145.4337  133.7739  151.8395 O   0  0  0  0  0  0  0  0  0  0  0  0
  147.3142  132.5286  151.9001 N   0  0  0  0  0  0  0  0  0  0  0  0
  148.1008  133.3719  152.7947 C   0  0  0  0  0  0  0  0  0  0  0  0
  149.0818  132.5848  153.6484 C   0  0  0  0  0  0  0  0  0  0  0  0
  149.8644  133.2296  154.6262 C   0  0  0  0  0  0  0  0  0  0  0  0
  150.7653  132.4672  155.3941 C   0  0  0  0  0  0  0  0  0  0  0  0
  150.8672  131.0745  155.1608 C   0  0  0  0  0  0  0  0  0  0  0  0
  151.7661  130.2883  155.9152 N   0  0  0  0  0  0  0  0  0  0  0  0
  152.9603  129.8307  155.2084 C   0  0  0  0  0  0  0  0  0  0  0  0
  153.9873  129.2617  156.2022 C   0  0  0  0  0  0  0  0  0  0  0  0
  153.3846  128.2376  156.9862 O   0  0  0  0  0  0  0  0  0  0  0  0
  152.2941  128.7339  157.7547 C   0  0  0  0  0  0  0  0  0  0  0  0
  151.2058  129.2821  156.8164 C   0  0  0  0  0  0  0  0  0  0  0  0
  150.1091  130.4585  154.2201 N   0  0  0  0  0  0  0  0  0  0  0  0
  149.2474  131.1936  153.4868 C   0  0  0  0  0  0  0  0  0  0  0  0
  143.3940  131.4209  149.7153 H   0  0  0  0  0  0  0  0  0  0  0  0
  143.7639  133.1205  149.9678 H   0  0  0  0  0  0  0  0  0  0  0  0
  143.3982  132.0830  151.3417 H   0  0  0  0  0  0  0  0  0  0  0  0
  145.0539  130.2532  152.0536 H   0  0  0  0  0  0  0  0  0  0  0  0
  146.5902  130.0707  151.2132 H   0  0  0  0  0  0  0  0  0  0  0  0
  145.0905  129.6073  150.4228 H   0  0  0  0  0  0  0  0  0  0  0  0
  145.5814  131.0695  148.4370 H   0  0  0  0  0  0  0  0  0  0  0  0
  147.1132  131.5628  149.1355 H   0  0  0  0  0  0  0  0  0  0  0  0
  145.9397  132.7758  148.6203 H   0  0  0  0  0  0  0  0  0  0  0  0
  147.7626  131.6898  151.5605 H   0  0  0  0  0  0  0  0  0  0  0  0
  148.6483  134.1343  152.2382 H   0  0  0  0  0  0  0  0  0  0  0  0
  147.4057  133.9101  153.4398 H   0  0  0  0  0  0  0  0  0  0  0  0
  149.7752  134.2930  154.7934 H   0  0  0  0  0  0  0  0  0  0  0  0
  151.3521  132.9557  156.1573 H   0  0  0  0  0  0  0  0  0  0  0  0
  152.6709  129.0621  154.4907 H   0  0  0  0  0  0  0  0  0  0  0  0
  153.4287  130.6334  154.6412 H   0  0  0  0  0  0  0  0  0  0  0  0
  154.8374  128.8424  155.6641 H   0  0  0  0  0  0  0  0  0  0  0  0
  154.3779  130.0484  156.8499 H   0  0  0  0  0  0  0  0  0  0  0  0
  151.8917  127.9246  158.3639 H   0  0  0  0  0  0  0  0  0  0  0  0
  152.6411  129.5073  158.4418 H   0  0  0  0  0  0  0  0  0  0  0  0
  150.4015  129.7141  157.4132 H   0  0  0  0  0  0  0  0  0  0  0  0
  150.7765  128.4695  156.2284 H   0  0  0  0  0  0  0  0  0  0  0  0
  148.6776  130.6500  152.7481 H   0  0  0  0  0  0  0  0  0  0  0  0
  1  2  1  0  0  0  0
  1 21  1  0  0  0  0
  1 22  1  0  0  0  0
  1 23  1  0  0  0  0
  2  3  1  0  0  0  0
  2  4  1  0  0  0  0
  2  5  1  0  0  0  0
  3 24  1  0  0  0  0
  3 25  1  0  0  0  0
  3 26  1  0  0  0  0
  4 27  1  0  0  0  0
  4 28  1  0  0  0  0
  4 29  1  0  0  0  0
  5  6  2  0  0  0  0
  5  7  1  0  0  0  0
  7  8  1  0  0  0  0
  7 30  1  0  0  0  0
  8  9  1  0  0  0  0
  8 31  1  0  0  0  0
  8 32  1  0  0  0  0
  9 20  1  0  0  0  0
  9 10  2  0  0  0  0
 10 11  1  0  0  0  0
 10 33  1  0  0  0  0
 11 12  2  0  0  0  0
 11 34  1  0  0  0  0
 12 13  1  0  0  0  0
 12 19  1  0  0  0  0
 13 18  1  0  0  0  0
 13 14  1  0  0  0  0
 14 15  1  0  0  0  0
 14 35  1  0  0  0  0
 14 36  1  0  0  0  0
 15 16  1  0  0  0  0
 15 37  1  0  0  0  0
 15 38  1  0  0  0  0
 16 17  1  0  0  0  0
 17 18  1  0  0  0  0
 17 39  1  0  0  0  0
 17 40  1  0  0  0  0
 18 41  1  0  0  0  0
 18 42  1  0  0  0  0
 19 20  2  0  0  0  0
 20 43  1  0  0  0  0
M  END
> <s_m_source_file>
AV-unprocessed.smi

> <i_m_source_file_index>
416

> <i_lp_mmshare_version>
43012

> <i_f3d_flags>
0

> <s_epik_input>
W0NIM11DKFtDSDNdKShbQ0gzXSlDKD1PKVtOSF1bQ0gyXWMxW2NIXVtjSF1jKG5bY0hdMSlOMltDSDJdW0NIMl1PW0NIMl1bQ0gyXTI=

> <s_epik_cmdline>
J2VwaWtfcHl0aG9uJywgJy1waCcsICc3LjAnLCAnLXRuJywgJzgnLCAnLW1hJywgJzIwMCcsICctbWV0YWxfYmluZGluZycsICctaW1hZScsICc8aW5maWxlLm1hZT4nLCAnLW9tYWUnLCAnPG91dGZpbGUubWFlPic=

> <r_lp_tautomer_probability>
1

> <r_epik_Ionization_Penalty>
0.00522353

> <r_epik_Ionization_Penalty_Charging>
0

> <r_epik_Ionization_Penalty_Neutral>
0.00522353

> <r_epik_State_Penalty>
0.0038086

> <r_epik_Charging_Adjusted_Penalty>
0.0038086

> <i_epik_Tot_Q>
0

> <i_epik_Tot_abs_Q>
0

> <r_epik_Metal_State_Penalty>
-0

> <b_epik_Metal_Only>
0

> <s_lp_Force_Field>
OPLS_2005

> <r_lp_Energy>
22.6444

> <b_lp_Chiralities_Consistent>
1

> <s_lp_Variant>
AV-unprocessed.smi:416-1

> <Gold.Version>
5.8.1

> <Gold.Id.Protein>
6NUR|6NUR_protein|mol2

> <Gold.PLP.Fitness>
38.0949

> <Gold.PLP.PLP>
-33.7186

> <Gold.PLP.part.hbond>
-1.0000

> <Gold.PLP.part.metal>
0.0000

> <Gold.PLP.part.buried>
-4.6880

> <Gold.PLP.part.nonpolar>
-27.0608

> <Gold.PLP.part.repulsive>
0.1980

> <Gold.PLP.ligand.clash>
0.0000

> <Gold.PLP.ligand.torsion>
0.6651

> <Gold.PLP.Chemscore.Hbond>
0.9357

> <Gold.PLP.Chemscore.CHOScore>
0.8509

> <Gold.PLP.Chemscore.Metal>
0.0000

> <Gold.Chemscore.Hbonds>
donor molecule, donor type, donor heavy atom, donor atom, acceptor molecule, acceptor atom, score
      L1  H     7    30       P1 10747  0.96
      L1  C    20    43       P1 10747  0.89

> <Gold.PLP.Chemscore.Internal.Correction>
0.3466

> <Gold.Rescore>
     Score         DG    S(hbond)    S(metal)    S(lipo)     H(rot)  DE(clash)    DE(int)     intcor
     13.36     -14.16       0.98        0.00      79.33       1.52       0.29       0.51       ----

> <Gold.Chemscore.Fitness>
13.3574

> <Gold.Chemscore.DG>
-14.1566

> <Gold.Chemscore.ZeroCoef>
-5.4800

> <Gold.Chemscore.Hbond>
0.9819

> <Gold.Chemscore.Metal>
0.0000

> <Gold.Chemscore.Lipo>
79.3283

> <Gold.Chemscore.Internal_Hbond>
0.0000

> <Gold.Chemscore.DEClash>
0.2931

> <Gold.Chemscore.DEInternal>
0.5062

> <Gold.Chemscore.Rot>
1.5173

> <Gold.Chemscore.Internal.Correction>
   9.000000E+99

> <Gold.Chemscore.Hbonds>
donor molecule, donor type, donor heavy atom, donor atom, acceptor molecule, acceptor atom, score
      L1  H     7    30       P1 10747  0.91

> <Gold.Chemscore.Hbond.Weighted>
-3.2795

> <Gold.Chemscore.Metal.Weighted>
-0.0000

> <Gold.Chemscore.Lipo.Weighted>
-9.2814

> <Gold.Chemscore.Internal_Hbond.Weighted>
0.0000

> <Gold.Chemscore.DEClash.Weighted>
0.2931

> <Gold.Chemscore.DEInternal.Weighted>
0.5062

> <Gold.Chemscore.Rot.Weighted>
3.8843

> <Gold.Chemscore.Internal.Correction.Weighted>
   9.000000E+99

> <Gold.Protein.RotatedTorsions>
[ 6907 6896 6895 6894 ] final -177.84 input  -60.11 | X-H torsion
[ 7974 7965 7964 7962 ] final   73.99 input  175.53 | X-H torsion
[ 8008 7997 7996 7995 ] final  -40.37 input   59.86 | X-H torsion
[ 10167 10162 10161 10158 ] final  -89.38 input  -65.29 | X-H torsion
[ 10718 10713 10712 10709 ] final   96.88 input   66.30 | X-H torsion
[ 10763 10752 10751 10750 ] final -172.18 input  -60.55 | X-H torsion
[ 11005 11000 10999 10996 ] final -109.48 input  -57.11 | X-H torsion

> <Gold.Protein.ActiveResidues>
 VAL166  LYS551  ARG553  GLY616  TRP617  ASP618  TYR619  PRO620  LYS621  CYS622 
 ASP623  PHE694  ASN695  SER759  ASP760  ASP761  ALA762  ILE779  LEU786  VAL792 
 PHE793  MET794  SER795  GLU796  ALA797  LYS798  CYS799  TRP800  GLU811  SER814 

> <Gold.Protein.RotatedAtoms>
  151.6275  133.3334  159.3101 H   0  0  0  0  0  0  0  0  0  0  0  0  # atno 6907 bound_to 6896
  150.8074  134.7211  159.6668 H   0  0  0  0  0  0  0  0  0  0  0  0  # atno 6908 bound_to 6896
  152.4169  134.6029  160.0056 H   0  0  0  0  0  0  0  0  0  0  0  0  # atno 6909 bound_to 6896
  145.7339  139.2694  143.1525 H   0  0  0  0  0  0  0  0  0  0  0  0  # atno 7974 bound_to 7965
  154.4013  140.1527  156.3015 H   0  0  0  0  0  0  0  0  0  0  0  0  # atno 8008 bound_to 7997
  155.8696  140.3449  155.5790 H   0  0  0  0  0  0  0  0  0  0  0  0  # atno 8009 bound_to 7997
  155.7789  140.0840  157.2060 H   0  0  0  0  0  0  0  0  0  0  0  0  # atno 8010 bound_to 7997
  140.3654  143.2821  151.9564 H   0  0  0  0  0  0  0  0  0  0  0  0  # atno 10167 bound_to 10162
  157.6921  131.0592  150.4559 H   0  0  0  0  0  0  0  0  0  0  0  0  # atno 10718 bound_to 10713
  154.6222  135.2876  155.0313 H   0  0  0  0  0  0  0  0  0  0  0  0  # atno 10763 bound_to 10752
  154.1504  135.6504  153.4966 H   0  0  0  0  0  0  0  0  0  0  0  0  # atno 10764 bound_to 10752
  153.0241  135.5354  154.7016 H   0  0  0  0  0  0  0  0  0  0  0  0  # atno 10765 bound_to 10752
  141.0845  133.9162  157.2216 H   0  0  0  0  0  0  0  0  0  0  0  0  # atno 11005 bound_to 11000
  146.0512  140.8068  142.9781 LP  0  0  0  0  0  0  0  0  0  0  0  0  # atno 17320 bound_to 7965
  144.6886  140.3055  143.7256 LP  0  0  0  0  0  0  0  0  0  0  0  0  # atno 17321 bound_to 7965
  139.4809  144.5955  151.7698 LP  0  0  0  0  0  0  0  0  0  0  0  0  # atno 17342 bound_to 10162
  140.5086  144.1060  150.5989 LP  0  0  0  0  0  0  0  0  0  0  0  0  # atno 17343 bound_to 10162
  156.4907  130.4094  149.6408 LP  0  0  0  0  0  0  0  0  0  0  0  0  # atno 17370 bound_to 10713
  156.3420  130.7387  151.2333 LP  0  0  0  0  0  0  0  0  0  0  0  0  # atno 17371 bound_to 10713
  139.9662  135.0141  156.9392 LP  0  0  0  0  0  0  0  0  0  0  0  0  # atno 17394 bound_to 11000
  140.5394  134.0735  155.7337 LP  0  0  0  0  0  0  0  0  0  0  0  0  # atno 17395 bound_to 11000

$$$$
