AV-unprocessed.smi:840|AV-procd|sdf|3913|dock6
  -GOLD-   22720 1373D 1   1.00000     0.00000
 Structure written by MMmdl.
 36 37  0  0  0  0  0  0  0  0  2 V2000
  151.3264  139.5950  156.0692 C   0  0  0  0  0  0  0  0  0  0  0  0
  151.6269  138.9478  157.4313 C   0  0  2  0  0  0  0  0  0  0  0  0
  150.3649  138.8150  158.1588 N   0  0  0  0  0  0  0  0  0  0  0  0
  149.7969  137.6638  158.5498 C   0  0  0  0  0  0  0  0  0  0  0  0
  150.3486  136.5895  158.2984 O   0  0  0  0  0  0  0  0  0  0  0  0
  148.6250  137.8292  159.2044 N   0  5  0  0  0  0  0  0  0  0  0  0
  148.1640  136.8611  160.0129 C   0  0  0  0  0  0  0  0  0  0  0  0
  147.7172  137.0975  161.2518 N   0  0  0  0  0  0  0  0  0  0  0  0
  147.2767  135.9490  161.9117 C   0  0  0  0  0  0  0  0  0  0  0  0
  147.3829  134.8122  161.1550 C   0  0  0  0  0  0  0  0  0  0  0  0
  148.0442  135.1528  159.5815 S   0  0  0  0  0  0  0  0  0  0  0  0
  152.5989  139.8615  158.1945 C   0  0  0  0  0  0  0  0  0  0  0  0
  153.7260  139.4674  158.4990 O   0  0  0  0  0  0  0  0  0  0  0  0
  152.1366  141.0809  158.5092 N   0  0  0  0  0  0  0  0  0  0  0  0
  152.8905  142.1092  159.2206 C   0  0  0  0  0  0  0  0  0  0  0  0
  153.0091  141.7634  160.7177 C   0  0  0  0  0  0  0  0  0  0  0  0
  152.5984  143.0252  161.4797 C   0  0  0  0  0  0  0  0  0  0  0  0
  151.6140  143.7258  160.5489 C   0  0  0  0  0  0  0  0  0  0  0  0
  152.1811  143.4763  159.1515 C   0  0  0  0  0  0  0  0  0  0  0  0
  152.2360  139.7185  155.4798 H   0  0  0  0  0  0  0  0  0  0  0  0
  150.8633  140.5769  156.1785 H   0  0  0  0  0  0  0  0  0  0  0  0
  150.6449  138.9739  155.4870 H   0  0  0  0  0  0  0  0  0  0  0  0
  152.0723  137.9631  157.2756 H   0  0  0  0  0  0  0  0  0  0  0  0
  149.8842  139.6704  158.3947 H   0  0  0  0  0  0  0  0  0  0  0  0
  146.9008  136.0338  162.9203 H   0  0  0  0  0  0  0  0  0  0  0  0
  147.1139  133.8020  161.4240 H   0  0  0  0  0  0  0  0  0  0  0  0
  151.2002  141.3198  158.2173 H   0  0  0  0  0  0  0  0  0  0  0  0
  153.8891  142.1950  158.7877 H   0  0  0  0  0  0  0  0  0  0  0  0
  152.3280  140.9526  160.9819 H   0  0  0  0  0  0  0  0  0  0  0  0
  154.0146  141.4374  160.9857 H   0  0  0  0  0  0  0  0  0  0  0  0
  152.1686  142.8044  162.4572 H   0  0  0  0  0  0  0  0  0  0  0  0
  153.4713  143.6610  161.6348 H   0  0  0  0  0  0  0  0  0  0  0  0
  150.6312  143.2603  160.6351 H   0  0  0  0  0  0  0  0  0  0  0  0
  151.5025  144.7869  160.7742 H   0  0  0  0  0  0  0  0  0  0  0  0
  152.9153  144.2486  158.9191 H   0  0  0  0  0  0  0  0  0  0  0  0
  151.4088  143.5292  158.3824 H   0  0  0  0  0  0  0  0  0  0  0  0
  1  2  1  0  0  0  0
  1 20  1  0  0  0  0
  1 21  1  0  0  0  0
  1 22  1  0  0  0  0
  2  3  1  0  0  0  0
  2 12  1  0  0  0  0
  2 23  1  0  0  0  0
  3  4  1  0  0  0  0
  3 24  1  0  0  0  0
  4  5  2  0  0  0  0
  4  6  1  0  0  0  0
  6  7  1  0  0  0  0
  7 11  1  0  0  0  0
  7  8  2  0  0  0  0
  8  9  1  0  0  0  0
  9 10  2  0  0  0  0
  9 25  1  0  0  0  0
 10 11  1  0  0  0  0
 10 26  1  0  0  0  0
 12 13  2  0  0  0  0
 12 14  1  0  0  0  0
 14 15  1  0  0  0  0
 14 27  1  0  0  0  0
 15 19  1  0  0  0  0
 15 16  1  0  0  0  0
 15 28  1  0  0  0  0
 16 17  1  0  0  0  0
 16 29  1  0  0  0  0
 16 30  1  0  0  0  0
 17 18  1  0  0  0  0
 17 31  1  0  0  0  0
 17 32  1  0  0  0  0
 18 19  1  0  0  0  0
 18 33  1  0  0  0  0
 18 34  1  0  0  0  0
 19 35  1  0  0  0  0
 19 36  1  0  0  0  0
M  CHG  1   6  -1
M  END
> <s_m_source_file>
AV-unprocessed.smi

> <i_m_source_file_index>
840

> <i_lp_mmshare_version>
43012

> <i_f3d_flags>
0

> <s_epik_input>
W0NIMl0xW0NIMl1bQ0gyXVtDSDJdW0NIXTFbTkhdQyg9TylbQ0BIXShbQ0gzXSlbTkhdQyg9TylbTkhdYzJuW2NIXVtjSF1zMg==

> <s_epik_cmdline>
J2VwaWtfcHl0aG9uJywgJy1waCcsICc3LjAnLCAnLXRuJywgJzgnLCAnLW1hJywgJzIwMCcsICctbWV0YWxfYmluZGluZycsICctaW1hZScsICc8aW5maWxlLm1hZT4nLCAnLW9tYWUnLCAnPG91dGZpbGUubWFlPic=

> <r_lp_tautomer_probability>
1

> <r_epik_Ionization_Penalty>
6.35467

> <r_epik_Ionization_Penalty_Charging>
5.47395

> <r_epik_Ionization_Penalty_Neutral>
0.880717

> <r_epik_State_Penalty>
5.4739

> <r_epik_Charging_Adjusted_Penalty>
10.9479

> <i_epik_Tot_Q>
-1

> <i_epik_Tot_abs_Q>
1

> <r_epik_Metal_State_Penalty>
1.48639

> <b_epik_Metal_Only>
1

> <s_lp_Force_Field>
OPLS_2005

> <r_lp_Energy>
14.0087

> <b_lp_Chiralities_Consistent>
1

> <s_lp_Variant>
AV-unprocessed.smi:840-3

> <Gold.Version>
5.8.1

> <Gold.Id.Protein>
6NUR|6NUR_protein|mol2

> <Gold.PLP.Fitness>
48.7425

> <Gold.PLP.PLP>
-38.9326

> <Gold.PLP.part.hbond>
-5.6101

> <Gold.PLP.part.metal>
0.0000

> <Gold.PLP.part.buried>
-2.4691

> <Gold.PLP.part.nonpolar>
-30.0311

> <Gold.PLP.part.repulsive>
0.2096

> <Gold.PLP.ligand.clash>
0.0000

> <Gold.PLP.ligand.torsion>
0.7227

> <Gold.PLP.Chemscore.Hbond>
3.7360

> <Gold.PLP.Chemscore.CHOScore>
0.0000

> <Gold.PLP.Chemscore.Metal>
0.0000

> <Gold.Chemscore.Hbonds>
donor molecule, donor type, donor heavy atom, donor atom, acceptor molecule, acceptor atom, score
      P1  H  6896  6907       L1     5  0.42
      P1  H  6931  6943       L1     8  1.00
      P1  H  6934  6947       L1     8  0.68
      P1  H  7997  8008       L1    13  0.99

> <Gold.PLP.Chemscore.Internal.Correction>
0.0473

> <Gold.Rescore>
     Score         DG    S(hbond)    S(metal)    S(lipo)     H(rot)  DE(clash)    DE(int)     intcor
     19.23     -20.22       2.65        0.00      85.67       1.62       0.12       0.87       ----

> <Gold.Chemscore.Fitness>
19.2286

> <Gold.Chemscore.DG>
-20.2220

> <Gold.Chemscore.ZeroCoef>
-5.4800

> <Gold.Chemscore.Hbond>
2.6548

> <Gold.Chemscore.Metal>
0.0000

> <Gold.Chemscore.Lipo>
85.6680

> <Gold.Chemscore.Internal_Hbond>
0.0000

> <Gold.Chemscore.DEClash>
0.1214

> <Gold.Chemscore.DEInternal>
0.8719

> <Gold.Chemscore.Rot>
1.6204

> <Gold.Chemscore.Internal.Correction>
   9.000000E+99

> <Gold.Chemscore.Hbonds>
donor molecule, donor type, donor heavy atom, donor atom, acceptor molecule, acceptor atom, score
      P1  H  6896  6907       L1     5  0.40
      P1  H  6931  6943       L1     8  0.28
      P1  H  6934  6947       L1     8  0.09
      P1  H  7997  8008       L1    13  0.81

> <Gold.Chemscore.Hbond.Weighted>
-8.8669

> <Gold.Chemscore.Metal.Weighted>
-0.0000

> <Gold.Chemscore.Lipo.Weighted>
-10.0232

> <Gold.Chemscore.Internal_Hbond.Weighted>
0.0000

> <Gold.Chemscore.DEClash.Weighted>
0.1214

> <Gold.Chemscore.DEInternal.Weighted>
0.8719

> <Gold.Chemscore.Rot.Weighted>
4.1481

> <Gold.Chemscore.Internal.Correction.Weighted>
   9.000000E+99

> <Gold.Protein.RotatedTorsions>
[ 6907 6896 6895 6894 ] final  -40.09 input  -60.11 | X-H torsion
[ 7974 7965 7964 7962 ] final  -69.17 input  175.53 | X-H torsion
[ 8008 7997 7996 7995 ] final -116.84 input   59.86 | X-H torsion
[ 10167 10162 10161 10158 ] final  156.30 input  -65.29 | X-H torsion
[ 10718 10713 10712 10709 ] final   56.61 input   66.30 | X-H torsion
[ 10763 10752 10751 10750 ] final -142.69 input  -60.55 | X-H torsion
[ 11005 11000 10999 10996 ] final  -94.39 input  -57.11 | X-H torsion

> <Gold.Protein.ActiveResidues>
 VAL166  LYS551  ARG553  GLY616  TRP617  ASP618  TYR619  PRO620  LYS621  CYS622 
 ASP623  PHE694  ASN695  SER759  ASP760  ASP761  ALA762  ILE779  LEU786  VAL792 
 PHE793  MET794  SER795  GLU796  ALA797  LYS798  CYS799  TRP800  GLU811  SER814 

> <Gold.Protein.RotatedAtoms>
  150.9826  134.9178  159.7852 H   0  0  0  0  0  0  0  0  0  0  0  0  # atno 6907 bound_to 6896
  152.5226  134.3390  159.9220 H   0  0  0  0  0  0  0  0  0  0  0  0  # atno 6908 bound_to 6896
  151.3397  133.3926  159.2704 H   0  0  0  0  0  0  0  0  0  0  0  0  # atno 6909 bound_to 6896
  145.7072  140.9093  143.0699 H   0  0  0  0  0  0  0  0  0  0  0  0  # atno 7974 bound_to 7965
  155.0742  140.0393  157.2618 H   0  0  0  0  0  0  0  0  0  0  0  0  # atno 8008 bound_to 7997
  154.6958  140.2663  155.6743 H   0  0  0  0  0  0  0  0  0  0  0  0  # atno 8009 bound_to 7997
  156.2744  140.2750  156.1552 H   0  0  0  0  0  0  0  0  0  0  0  0  # atno 8010 bound_to 7997
  139.4821  144.5021  151.8152 H   0  0  0  0  0  0  0  0  0  0  0  0  # atno 10167 bound_to 10162
  157.5445  130.8721  149.8871 H   0  0  0  0  0  0  0  0  0  0  0  0  # atno 10718 bound_to 10713
  154.8499  135.3489  154.6068 H   0  0  0  0  0  0  0  0  0  0  0  0  # atno 10763 bound_to 10752
  153.6677  135.6986  153.5162 H   0  0  0  0  0  0  0  0  0  0  0  0  # atno 10764 bound_to 10752
  153.2767  135.4276  155.0997 H   0  0  0  0  0  0  0  0  0  0  0  0  # atno 10765 bound_to 10752
  141.1471  133.7953  157.0291 H   0  0  0  0  0  0  0  0  0  0  0  0  # atno 11005 bound_to 11000
  144.6952  139.9027  143.7459 LP  0  0  0  0  0  0  0  0  0  0  0  0  # atno 17320 bound_to 7965
  146.0745  139.3733  143.0503 LP  0  0  0  0  0  0  0  0  0  0  0  0  # atno 17321 bound_to 7965
  140.4516  144.1847  150.5898 LP  0  0  0  0  0  0  0  0  0  0  0  0  # atno 17342 bound_to 10162
  140.4579  143.2460  151.9260 LP  0  0  0  0  0  0  0  0  0  0  0  0  # atno 17343 bound_to 10162
  156.0524  130.3715  150.1170 LP  0  0  0  0  0  0  0  0  0  0  0  0  # atno 17370 bound_to 10713
  156.9347  130.9725  151.3527 LP  0  0  0  0  0  0  0  0  0  0  0  0  # atno 17371 bound_to 10713
  140.0765  134.9672  157.1554 LP  0  0  0  0  0  0  0  0  0  0  0  0  # atno 17394 bound_to 11000
  140.3636  134.2467  155.7184 LP  0  0  0  0  0  0  0  0  0  0  0  0  # atno 17395 bound_to 11000

$$$$
