AV-unprocessed.smi:3350|AV-procd|sdf|12942|dock3
  -GOLD-   2272019373D 1   1.00000     0.00000
 Structure written by MMmdl.
 41 42  0  0  0  0  0  0  0  0  1 V2000
  146.8539  141.3627  155.5501 C   0  0  0  0  0  0  0  0  0  0  0  0
  148.3405  141.0178  155.7104 C   0  0  1  0  0  0  0  0  0  0  0  0
  148.9641  140.5834  154.3677 C   0  0  0  0  0  0  0  0  0  0  0  0
  150.0928  139.6851  154.5387 N   0  0  0  0  0  0  0  0  0  0  0  0
  150.1660  138.3375  154.2550 C   0  0  0  0  0  0  0  0  0  0  0  0
  151.4228  137.9202  154.5873 C   0  0  0  0  0  0  0  0  0  0  0  0
  152.0539  139.1003  155.0707 C   0  0  0  0  0  0  0  0  0  0  0  0
  151.2567  140.1557  155.0377 N   0  0  0  0  0  0  0  0  0  0  0  0
  149.0401  142.1788  156.2589 N   0  0  0  0  0  0  0  0  0  0  0  0
  149.5288  142.2802  157.5036 C   0  0  0  0  0  0  0  0  0  0  0  0
  149.4411  141.3958  158.3557 O   0  0  0  0  0  0  0  0  0  0  0  0
  150.1308  143.4612  157.7021 N   0  0  0  0  0  0  0  0  0  0  0  0
  150.7739  143.8892  158.9419 C   0  0  1  0  0  0  0  0  0  0  0  0
  149.6952  144.4594  159.8758 C   0  0  0  0  0  0  0  0  0  0  0  0
  151.5321  142.7050  159.5771 C   0  0  2  0  0  0  0  0  0  0  0  0
  152.3106  143.0519  160.8481 C   0  0  0  0  0  0  0  0  0  0  0  0
  153.4252  142.0167  160.8885 C   0  0  0  0  0  0  0  0  0  0  0  0
  153.4039  141.3912  159.4918 C   0  0  0  0  0  0  0  0  0  0  0  0
  152.5676  142.2429  158.7227 O   0  0  0  0  0  0  0  0  0  0  0  0
  146.2907  140.5066  155.1777 H   0  0  0  0  0  0  0  0  0  0  0  0
  146.7095  142.1855  154.8491 H   0  0  0  0  0  0  0  0  0  0  0  0
  146.4134  141.6559  156.5038 H   0  0  0  0  0  0  0  0  0  0  0  0
  148.4024  140.1816  156.4093 H   0  0  0  0  0  0  0  0  0  0  0  0
  148.2195  140.0666  153.7612 H   0  0  0  0  0  0  0  0  0  0  0  0
  149.2811  141.4547  153.7918 H   0  0  0  0  0  0  0  0  0  0  0  0
  149.3254  137.7936  153.8498 H   0  0  0  0  0  0  0  0  0  0  0  0
  151.8289  136.9235  154.5000 H   0  0  0  0  0  0  0  0  0  0  0  0
  153.0613  139.2213  155.4405 H   0  0  0  0  0  0  0  0  0  0  0  0
  149.1723  142.9619  155.6359 H   0  0  0  0  0  0  0  0  0  0  0  0
  150.1471  144.1175  156.9355 H   0  0  0  0  0  0  0  0  0  0  0  0
  151.4842  144.6906  158.7300 H   0  0  0  0  0  0  0  0  0  0  0  0
  150.1316  144.8547  160.7932 H   0  0  0  0  0  0  0  0  0  0  0  0
  148.9676  143.6967  160.1552 H   0  0  0  0  0  0  0  0  0  0  0  0
  149.1545  145.2762  159.3963 H   0  0  0  0  0  0  0  0  0  0  0  0
  150.8477  141.8779  159.7769 H   0  0  0  0  0  0  0  0  0  0  0  0
  152.7454  144.0489  160.7635 H   0  0  0  0  0  0  0  0  0  0  0  0
  151.6854  143.0332  161.7412 H   0  0  0  0  0  0  0  0  0  0  0  0
  154.3841  142.4901  161.1017 H   0  0  0  0  0  0  0  0  0  0  0  0
  153.2468  141.2605  161.6537 H   0  0  0  0  0  0  0  0  0  0  0  0
  154.3983  141.3113  159.0520 H   0  0  0  0  0  0  0  0  0  0  0  0
  152.9645  140.3931  159.5248 H   0  0  0  0  0  0  0  0  0  0  0  0
  1  2  1  0  0  0  0
  1 20  1  0  0  0  0
  1 21  1  0  0  0  0
  1 22  1  0  0  0  0
  2  3  1  0  0  0  0
  2  9  1  0  0  0  0
  2 23  1  0  0  0  0
  3  4  1  0  0  0  0
  3 24  1  0  0  0  0
  3 25  1  0  0  0  0
  4  8  1  0  0  0  0
  4  5  1  0  0  0  0
  5  6  2  0  0  0  0
  5 26  1  0  0  0  0
  6  7  1  0  0  0  0
  6 27  1  0  0  0  0
  7  8  2  0  0  0  0
  7 28  1  0  0  0  0
  9 10  1  0  0  0  0
  9 29  1  0  0  0  0
 10 11  2  0  0  0  0
 10 12  1  0  0  0  0
 12 13  1  0  0  0  0
 12 30  1  0  0  0  0
 13 14  1  0  0  0  0
 13 15  1  0  0  0  0
 13 31  1  0  0  0  0
 14 32  1  0  0  0  0
 14 33  1  0  0  0  0
 14 34  1  0  0  0  0
 15 19  1  0  0  0  0
 15 16  1  0  0  0  0
 15 35  1  0  0  0  0
 16 17  1  0  0  0  0
 16 36  1  0  0  0  0
 16 37  1  0  0  0  0
 17 18  1  0  0  0  0
 17 38  1  0  0  0  0
 17 39  1  0  0  0  0
 18 19  1  0  0  0  0
 18 40  1  0  0  0  0
 18 41  1  0  0  0  0
M  END
> <s_m_source_file>
AV-unprocessed.smi

> <i_m_source_file_index>
3350

> <i_lp_mmshare_version>
43012

> <i_f3d_flags>
0

> <s_epik_input>
bjFbY0hdW2NIXVtjSF1uMVtDSDJdW0NAQEhdKFtDSDNdKVtOSF1DKD1PKVtOSF1bQ0BIXShbQ0gzXSlbQ0BASF0yW0NIMl1bQ0gyXVtDSDJdTzI=

> <s_epik_cmdline>
J2VwaWtfcHl0aG9uJywgJy1waCcsICc3LjAnLCAnLXRuJywgJzgnLCAnLW1hJywgJzIwMCcsICctbWV0YWxfYmluZGluZycsICctaW1hZScsICc8aW5maWxlLm1hZT4nLCAnLW9tYWUnLCAnPG91dGZpbGUubWFlPic=

> <r_lp_tautomer_probability>
1

> <r_epik_Ionization_Penalty>
6.42349e-05

> <r_epik_Ionization_Penalty_Charging>
0

> <r_epik_Ionization_Penalty_Neutral>
6.42349e-05

> <r_epik_State_Penalty>
-0

> <r_epik_Charging_Adjusted_Penalty>
0

> <i_epik_Tot_Q>
0

> <i_epik_Tot_abs_Q>
0

> <r_epik_Metal_State_Penalty>
-0

> <b_epik_Metal_Only>
0

> <s_lp_Force_Field>
OPLS_2005

> <r_lp_Energy>
15.8996

> <b_lp_Chiralities_Consistent>
1

> <s_lp_Variant>
AV-unprocessed.smi:3350-4

> <Gold.Version>
5.8.1

> <Gold.Id.Protein>
6NUR|6NUR_protein|mol2

> <Gold.PLP.Fitness>
46.2633

> <Gold.PLP.PLP>
-38.1479

> <Gold.PLP.part.hbond>
-3.0000

> <Gold.PLP.part.metal>
0.0000

> <Gold.PLP.part.buried>
-4.2664

> <Gold.PLP.part.nonpolar>
-31.8844

> <Gold.PLP.part.repulsive>
0.1651

> <Gold.PLP.ligand.clash>
0.0000

> <Gold.PLP.ligand.torsion>
0.8360

> <Gold.PLP.Chemscore.Hbond>
2.2220

> <Gold.PLP.Chemscore.CHOScore>
1.0000

> <Gold.PLP.Chemscore.Metal>
0.0000

> <Gold.Chemscore.Hbonds>
donor molecule, donor type, donor heavy atom, donor atom, acceptor molecule, acceptor atom, score
      L1  H     9    29       P1  8028  0.75
      L1  H    12    30       P1  8028  0.72
      P1  H  7989  7998       L1     8  0.55
      L1  C     5    26       P1  7948  1.00

> <Gold.PLP.Chemscore.Internal.Correction>
0.1215

> <Gold.Rescore>
     Score         DG    S(hbond)    S(metal)    S(lipo)     H(rot)  DE(clash)    DE(int)     intcor
     15.41     -17.82       1.96        0.00      89.31       1.82       0.04       2.37       ----

> <Gold.Chemscore.Fitness>
15.4123

> <Gold.Chemscore.DG>
-17.8221

> <Gold.Chemscore.ZeroCoef>
-5.4800

> <Gold.Chemscore.Hbond>
1.9613

> <Gold.Chemscore.Metal>
0.0000

> <Gold.Chemscore.Lipo>
89.3146

> <Gold.Chemscore.Internal_Hbond>
0.0000

> <Gold.Chemscore.DEClash>
0.0421

> <Gold.Chemscore.DEInternal>
2.3677

> <Gold.Chemscore.Rot>
1.8197

> <Gold.Chemscore.Internal.Correction>
   9.000000E+99

> <Gold.Chemscore.Hbonds>
donor molecule, donor type, donor heavy atom, donor atom, acceptor molecule, acceptor atom, score
      L1  H     9    29       P1  8028  0.76
      L1  H    12    30       P1  8028  0.68
      P1  H  7989  7998       L1     8  0.01

> <Gold.Chemscore.Hbond.Weighted>
-6.5506

> <Gold.Chemscore.Metal.Weighted>
-0.0000

> <Gold.Chemscore.Lipo.Weighted>
-10.4498

> <Gold.Chemscore.Internal_Hbond.Weighted>
0.0000

> <Gold.Chemscore.DEClash.Weighted>
0.0421

> <Gold.Chemscore.DEInternal.Weighted>
2.3677

> <Gold.Chemscore.Rot.Weighted>
4.6583

> <Gold.Chemscore.Internal.Correction.Weighted>
   9.000000E+99

> <Gold.Protein.RotatedTorsions>
[ 6907 6896 6895 6894 ] final   79.33 input  -60.11 | X-H torsion
[ 7974 7965 7964 7962 ] final  136.54 input  175.53 | X-H torsion
[ 8008 7997 7996 7995 ] final -158.16 input   59.86 | X-H torsion
[ 10167 10162 10161 10158 ] final   36.12 input  -65.29 | X-H torsion
[ 10718 10713 10712 10709 ] final -111.19 input   66.30 | X-H torsion
[ 10763 10752 10751 10750 ] final  -47.59 input  -60.55 | X-H torsion
[ 11005 11000 10999 10996 ] final -114.12 input  -57.11 | X-H torsion

> <Gold.Protein.ActiveResidues>
 VAL166  LYS551  ARG553  GLY616  TRP617  ASP618  TYR619  PRO620  LYS621  CYS622 
 ASP623  PHE694  ASN695  SER759  ASP760  ASP761  ALA762  ILE779  LEU786  VAL792 
 PHE793  MET794  SER795  GLU796  ALA797  LYS798  CYS799  TRP800  GLU811  SER814 

> <Gold.Protein.RotatedAtoms>
  152.5194  134.3528  159.9256 H   0  0  0  0  0  0  0  0  0  0  0  0  # atno 6907 bound_to 6896
  151.3479  133.3930  159.2685 H   0  0  0  0  0  0  0  0  0  0  0  0  # atno 6908 bound_to 6896
  150.9751  134.9135  159.7869 H   0  0  0  0  0  0  0  0  0  0  0  0  # atno 6909 bound_to 6896
  144.9555  139.4769  143.5505 H   0  0  0  0  0  0  0  0  0  0  0  0  # atno 7974 bound_to 7965
  155.7434  140.0817  157.2235 H   0  0  0  0  0  0  0  0  0  0  0  0  # atno 8008 bound_to 7997
  154.4019  140.1573  156.2697 H   0  0  0  0  0  0  0  0  0  0  0  0  # atno 8009 bound_to 7997
  155.8998  140.3410  155.6021 H   0  0  0  0  0  0  0  0  0  0  0  0  # atno 8010 bound_to 7997
  140.4157  144.1530  150.6143 H   0  0  0  0  0  0  0  0  0  0  0  0  # atno 10167 bound_to 10162
  156.0633  130.5854  150.8340 H   0  0  0  0  0  0  0  0  0  0  0  0  # atno 10718 bound_to 10713
  154.0639  135.6614  153.4815 H   0  0  0  0  0  0  0  0  0  0  0  0  # atno 10763 bound_to 10752
  153.0416  135.5141  154.7632 H   0  0  0  0  0  0  0  0  0  0  0  0  # atno 10764 bound_to 10752
  154.6677  135.3024  154.9750 H   0  0  0  0  0  0  0  0  0  0  0  0  # atno 10765 bound_to 10752
  141.0572  133.9594  157.2733 H   0  0  0  0  0  0  0  0  0  0  0  0  # atno 11005 bound_to 11000
  146.3336  139.8670  142.8846 LP  0  0  0  0  0  0  0  0  0  0  0  0  # atno 17320 bound_to 7965
  145.2778  141.0129  143.3734 LP  0  0  0  0  0  0  0  0  0  0  0  0  # atno 17321 bound_to 7965
  140.4589  143.2457  151.9247 LP  0  0  0  0  0  0  0  0  0  0  0  0  # atno 17342 bound_to 10162
  139.4782  144.5488  151.8418 LP  0  0  0  0  0  0  0  0  0  0  0  0  # atno 17343 bound_to 10162
  157.5657  131.0946  150.9493 LP  0  0  0  0  0  0  0  0  0  0  0  0  # atno 17370 bound_to 10713
  156.9720  130.5494  149.5291 LP  0  0  0  0  0  0  0  0  0  0  0  0  # atno 17371 bound_to 10713
  139.9400  135.0192  156.8678 LP  0  0  0  0  0  0  0  0  0  0  0  0  # atno 17394 bound_to 11000
  140.5941  134.0234  155.7511 LP  0  0  0  0  0  0  0  0  0  0  0  0  # atno 17395 bound_to 11000

$$$$
