AV-unprocessed.smi:2243|AV-procd|sdf|9068|dock9
  -GOLD-   2272012273D 1   1.00000     0.00000
 Structure written by MMmdl.
 34 35  0  0  0  0  0  0  0  0  1 V2000
  151.8058  145.6774  160.1511 C   0  0  0  0  0  0  0  0  0  0  0  0
  151.2440  144.4957  159.3422 C   0  0  2  0  0  0  0  0  0  0  0  0
  150.0086  144.0529  159.9907 N   0  0  0  0  0  0  0  0  0  0  0  0
  149.0183  144.8363  160.4462 C   0  0  0  0  0  0  0  0  0  0  0  0
  149.0654  146.0667  160.3494 O   0  0  0  0  0  0  0  0  0  0  0  0
  148.0122  144.0525  160.9934 N   0  0  0  0  0  0  0  0  0  0  0  0
  146.8267  144.0489  160.4646 C   0  0  0  0  0  0  0  0  0  0  0  0
  146.2705  144.7116  159.3736 N   0  0  0  0  0  0  0  0  0  0  0  0
  144.9619  144.3321  159.2658 C   0  0  0  0  0  0  0  0  0  0  0  0
  144.7017  143.4688  160.2428 C   0  0  0  0  0  0  0  0  0  0  0  0
  145.8231  143.2763  160.9926 O   0  0  0  0  0  0  0  0  0  0  0  0
  152.2401  143.3130  159.2086 C   0  0  0  0  0  0  0  0  0  0  0  0
  151.6301  142.1034  158.4714 C   0  0  0  0  0  0  0  0  0  0  0  0
  152.6138  140.9228  158.4227 C   0  0  0  0  0  0  0  0  0  0  0  0
  153.0067  140.5597  159.7401 O   0  0  0  0  0  0  0  0  0  0  0  0
  153.6924  141.6071  160.4146 C   0  0  0  0  0  0  0  0  0  0  0  0
  152.7670  142.8235  160.5749 C   0  0  0  0  0  0  0  0  0  0  0  0
  152.6517  146.1458  159.6493 H   0  0  0  0  0  0  0  0  0  0  0  0
  152.1350  145.3607  161.1414 H   0  0  0  0  0  0  0  0  0  0  0  0
  151.0506  146.4527  160.2853 H   0  0  0  0  0  0  0  0  0  0  0  0
  151.0251  144.8654  158.3392 H   0  0  0  0  0  0  0  0  0  0  0  0
  149.8961  143.0557  160.1024 H   0  0  0  0  0  0  0  0  0  0  0  0
  146.7162  145.3661  158.7465 H   0  0  0  0  0  0  0  0  0  0  0  0
  144.3390  144.7318  158.4792 H   0  0  0  0  0  0  0  0  0  0  0  0
  143.8106  142.9286  160.5262 H   0  0  0  0  0  0  0  0  0  0  0  0
  153.0975  143.6591  158.6288 H   0  0  0  0  0  0  0  0  0  0  0  0
  150.7131  141.7893  158.9714 H   0  0  0  0  0  0  0  0  0  0  0  0
  151.3550  142.3700  157.4515 H   0  0  0  0  0  0  0  0  0  0  0  0
  152.1410  140.0626  157.9486 H   0  0  0  0  0  0  0  0  0  0  0  0
  153.4918  141.1720  157.8246 H   0  0  0  0  0  0  0  0  0  0  0  0
  154.0084  141.2464  161.3936 H   0  0  0  0  0  0  0  0  0  0  0  0
  154.5977  141.8763  159.8680 H   0  0  0  0  0  0  0  0  0  0  0  0
  153.3132  143.6155  161.0874 H   0  0  0  0  0  0  0  0  0  0  0  0
  151.9280  142.5578  161.2194 H   0  0  0  0  0  0  0  0  0  0  0  0
  1  2  1  0  0  0  0
  1 18  1  0  0  0  0
  1 19  1  0  0  0  0
  1 20  1  0  0  0  0
  2  3  1  0  0  0  0
  2 12  1  0  0  0  0
  2 21  1  0  0  0  0
  3 22  1  0  0  0  0
  3  4  1  0  0  0  0
  4  6  1  0  0  0  0
  4  5  2  0  0  0  0
  6  7  2  0  0  0  0
  7 11  1  0  0  0  0
  7  8  1  0  0  0  0
  8 23  1  0  0  0  0
  8  9  1  0  0  0  0
  9 24  1  0  0  0  0
  9 10  2  0  0  0  0
 10 25  1  0  0  0  0
 10 11  1  0  0  0  0
 12 17  1  0  0  0  0
 12 13  1  0  0  0  0
 12 26  1  0  0  0  0
 13 14  1  0  0  0  0
 13 27  1  0  0  0  0
 13 28  1  0  0  0  0
 14 15  1  0  0  0  0
 14 29  1  0  0  0  0
 14 30  1  0  0  0  0
 15 16  1  0  0  0  0
 16 17  1  0  0  0  0
 16 31  1  0  0  0  0
 16 32  1  0  0  0  0
 17 33  1  0  0  0  0
 17 34  1  0  0  0  0
M  END
> <s_m_source_file>
AV-unprocessed.smi

> <i_m_source_file_index>
2243

> <i_lp_mmshare_version>
43012

> <i_f3d_flags>
0

> <s_epik_input>
W0NIMl0xW0NIMl1PW0NIMl1bQ0gyXVtDSF0xW0NASF0oW0NIM10pW05IXUMoPU8pW05IXWMybltjSF1bY0hdbzI=

> <s_epik_cmdline>
J2VwaWtfcHl0aG9uJywgJy1waCcsICc3LjAnLCAnLXRuJywgJzgnLCAnLW1hJywgJzIwMCcsICctbWV0YWxfYmluZGluZycsICctaW1hZScsICc8aW5maWxlLm1hZT4nLCAnLW9tYWUnLCAnPG91dGZpbGUubWFlPic=

> <r_lp_tautomer_probability>
0.107061

> <r_epik_Ionization_Penalty>
1.44639

> <r_epik_Ionization_Penalty_Charging>
1.44602

> <r_epik_Ionization_Penalty_Neutral>
0.000368208

> <r_epik_State_Penalty>
2.61815

> <r_epik_Charging_Adjusted_Penalty>
4.06418

> <i_epik_Tot_Q>
0

> <i_epik_Tot_abs_Q>
0

> <r_epik_Metal_State_Penalty>
3.54171

> <b_epik_Metal_Only>
0

> <s_lp_Force_Field>
OPLS_2005

> <r_lp_Energy>
34.9147

> <b_lp_Chiralities_Consistent>
1

> <s_lp_Variant>
AV-unprocessed.smi:2243-7

> <Gold.Version>
5.8.1

> <Gold.Id.Protein>
6NUR|6NUR_protein|mol2

> <Gold.PLP.Fitness>
36.5006

> <Gold.PLP.PLP>
-32.0452

> <Gold.PLP.part.hbond>
-2.0172

> <Gold.PLP.part.metal>
0.0000

> <Gold.PLP.part.buried>
-5.1387

> <Gold.PLP.part.nonpolar>
-25.0221

> <Gold.PLP.part.repulsive>
0.6144

> <Gold.PLP.ligand.clash>
0.0000

> <Gold.PLP.ligand.torsion>
0.7795

> <Gold.PLP.Chemscore.Hbond>
2.0000

> <Gold.PLP.Chemscore.CHOScore>
0.0000

> <Gold.PLP.Chemscore.Metal>
0.0000

> <Gold.Chemscore.Hbonds>
donor molecule, donor type, donor heavy atom, donor atom, acceptor molecule, acceptor atom, score
      L1  H     8    23       P1  8029  1.00
      P1  H  6933  6944       L1     6  1.00

> <Gold.PLP.Chemscore.Internal.Correction>
0.0144

> <Gold.Rescore>
     Score         DG    S(hbond)    S(metal)    S(lipo)     H(rot)  DE(clash)    DE(int)     intcor
     13.35     -17.09       1.88        0.00      74.52       1.32       1.63       2.10       ----

> <Gold.Chemscore.Fitness>
13.3547

> <Gold.Chemscore.DG>
-17.0876

> <Gold.Chemscore.ZeroCoef>
-5.4800

> <Gold.Chemscore.Hbond>
1.8765

> <Gold.Chemscore.Metal>
0.0000

> <Gold.Chemscore.Lipo>
74.5248

> <Gold.Chemscore.Internal_Hbond>
0.0000

> <Gold.Chemscore.DEClash>
1.6300

> <Gold.Chemscore.DEInternal>
2.1028

> <Gold.Chemscore.Rot>
1.3201

> <Gold.Chemscore.Internal.Correction>
   9.000000E+99

> <Gold.Chemscore.Hbonds>
donor molecule, donor type, donor heavy atom, donor atom, acceptor molecule, acceptor atom, score
      L1  H     8    23       P1  8029  0.98
      P1  H  6933  6944       L1     6  0.71

> <Gold.Chemscore.Hbond.Weighted>
-6.2675

> <Gold.Chemscore.Metal.Weighted>
-0.0000

> <Gold.Chemscore.Lipo.Weighted>
-8.7194

> <Gold.Chemscore.Internal_Hbond.Weighted>
0.0000

> <Gold.Chemscore.DEClash.Weighted>
1.6300

> <Gold.Chemscore.DEInternal.Weighted>
2.1028

> <Gold.Chemscore.Rot.Weighted>
3.3794

> <Gold.Chemscore.Internal.Correction.Weighted>
   9.000000E+99

> <Gold.Protein.RotatedTorsions>
[ 6907 6896 6895 6894 ] final  -32.64 input  -60.11 | X-H torsion
[ 7974 7965 7964 7962 ] final  139.13 input  175.53 | X-H torsion
[ 8008 7997 7996 7995 ] final  116.26 input   59.86 | X-H torsion
[ 10167 10162 10161 10158 ] final  105.61 input  -65.29 | X-H torsion
[ 10718 10713 10712 10709 ] final  -76.20 input   66.30 | X-H torsion
[ 10763 10752 10751 10750 ] final  -82.10 input  -60.55 | X-H torsion
[ 11005 11000 10999 10996 ] final  152.06 input  -57.11 | X-H torsion

> <Gold.Protein.ActiveResidues>
 VAL166  LYS551  ARG553  GLY616  TRP617  ASP618  TYR619  PRO620  LYS621  CYS622 
 ASP623  PHE694  ASN695  SER759  ASP760  ASP761  ALA762  ILE779  LEU786  VAL792 
 PHE793  MET794  SER795  GLU796  ALA797  LYS798  CYS799  TRP800  GLU811  SER814 

> <Gold.Protein.RotatedAtoms>
  151.0761  134.9829  159.8332 H   0  0  0  0  0  0  0  0  0  0  0  0  # atno 6907 bound_to 6896
  152.5414  134.2239  159.8808 H   0  0  0  0  0  0  0  0  0  0  0  0  # atno 6908 bound_to 6896
  151.2267  133.4429  159.2636 H   0  0  0  0  0  0  0  0  0  0  0  0  # atno 6909 bound_to 6896
  144.9307  139.5051  143.5619 H   0  0  0  0  0  0  0  0  0  0  0  0  # atno 7974 bound_to 7965
  156.2429  140.2921  156.0496 H   0  0  0  0  0  0  0  0  0  0  0  0  # atno 8008 bound_to 7997
  155.1896  140.0406  157.2915 H   0  0  0  0  0  0  0  0  0  0  0  0  # atno 8009 bound_to 7997
  154.6204  140.2474  155.7564 H   0  0  0  0  0  0  0  0  0  0  0  0  # atno 8010 bound_to 7997
  139.7078  144.7083  151.1077 H   0  0  0  0  0  0  0  0  0  0  0  0  # atno 10167 bound_to 10162
  156.0183  130.4459  150.3157 H   0  0  0  0  0  0  0  0  0  0  0  0  # atno 10718 bound_to 10713
  154.5717  135.5603  153.7101 H   0  0  0  0  0  0  0  0  0  0  0  0  # atno 10763 bound_to 10752
  153.0051  135.6298  154.2105 H   0  0  0  0  0  0  0  0  0  0  0  0  # atno 10764 bound_to 10752
  154.2045  135.2876  155.2959 H   0  0  0  0  0  0  0  0  0  0  0  0  # atno 10765 bound_to 10752
  140.1274  134.8824  157.2156 H   0  0  0  0  0  0  0  0  0  0  0  0  # atno 11005 bound_to 11000
  146.3245  139.8255  142.8918 LP  0  0  0  0  0  0  0  0  0  0  0  0  # atno 17320 bound_to 7965
  145.3147  141.0229  143.3535 LP  0  0  0  0  0  0  0  0  0  0  0  0  # atno 17321 bound_to 7965
  140.7726  143.5334  150.9396 LP  0  0  0  0  0  0  0  0  0  0  0  0  # atno 17342 bound_to 10162
  139.9018  143.6826  152.3130 LP  0  0  0  0  0  0  0  0  0  0  0  0  # atno 17343 bound_to 10162
  157.1258  131.0259  151.2990 LP  0  0  0  0  0  0  0  0  0  0  0  0  # atno 17370 bound_to 10713
  157.4591  130.7642  149.7219 LP  0  0  0  0  0  0  0  0  0  0  0  0  # atno 17371 bound_to 10713
  140.2886  134.3266  155.7322 LP  0  0  0  0  0  0  0  0  0  0  0  0  # atno 17394 bound_to 11000
  141.2164  133.7521  156.9470 LP  0  0  0  0  0  0  0  0  0  0  0  0  # atno 17395 bound_to 11000

$$$$
