AV-unprocessed.smi:2322|AV-procd|sdf|9287|dock3
  -GOLD-   2272012513D 1   1.00000     0.00000
 Structure written by MMmdl.
 38 40  0  0  0  0  0  0  0  0  1 V2000
  150.9148  138.4206  154.4242 C   0  0  0  0  0  0  0  0  0  0  0  0
  150.0313  139.5702  154.3937 N   0  0  0  0  0  0  0  0  0  0  0  0
  150.3799  140.7291  154.9999 N   0  0  0  0  0  0  0  0  0  0  0  0
  149.3322  141.5150  154.7545 C   0  0  0  0  0  0  0  0  0  0  0  0
  148.3193  140.9529  154.0314 N   0  0  0  0  0  0  0  0  0  0  0  0
  148.8247  139.7365  153.8420 C   0  0  0  0  0  0  0  0  0  0  0  0
  148.2185  138.6557  153.1352 N   0  0  0  0  0  0  0  0  0  0  0  0
  146.9253  138.2913  153.0067 C   0  0  0  0  0  0  0  0  0  0  0  0
  146.0286  138.9336  153.5508 O   0  0  0  0  0  0  0  0  0  0  0  0
  146.6879  137.2025  152.2572 N   0  0  0  0  0  0  0  0  0  0  0  0
  145.3738  136.6372  151.9708 C   0  0  2  0  0  0  0  0  0  0  0  0
  144.6202  136.3118  153.2709 C   0  0  0  0  0  0  0  0  0  0  0  0
  143.3114  135.5662  152.9645 C   0  0  0  0  0  0  0  0  0  0  0  0
  143.5830  134.3925  152.2055 O   0  0  0  0  0  0  0  0  0  0  0  0
  144.1681  134.6679  150.9361 C   0  0  2  0  0  0  0  0  0  0  0  0
  144.3057  133.3580  150.1858 C   0  0  0  0  0  0  0  0  0  0  0  0
  143.3917  132.1947  150.4933 C   0  0  0  0  0  0  0  0  0  0  0  0
  144.8517  132.1265  150.8702 C   0  0  0  0  0  0  0  0  0  0  0  0
  145.5307  135.3551  151.1411 C   0  0  0  0  0  0  0  0  0  0  0  0
  150.4935  137.6532  155.0739 H   0  0  0  0  0  0  0  0  0  0  0  0
  151.8986  138.7038  154.8008 H   0  0  0  0  0  0  0  0  0  0  0  0
  151.0279  138.0148  153.4187 H   0  0  0  0  0  0  0  0  0  0  0  0
  149.2968  142.5340  155.1107 H   0  0  0  0  0  0  0  0  0  0  0  0
  148.8707  138.0615  152.6443 H   0  0  0  0  0  0  0  0  0  0  0  0
  147.4842  136.7331  151.8491 H   0  0  0  0  0  0  0  0  0  0  0  0
  144.7900  137.3530  151.3885 H   0  0  0  0  0  0  0  0  0  0  0  0
  145.2438  135.6910  153.9159 H   0  0  0  0  0  0  0  0  0  0  0  0
  144.4069  137.2250  153.8274 H   0  0  0  0  0  0  0  0  0  0  0  0
  142.8192  135.2782  153.8936 H   0  0  0  0  0  0  0  0  0  0  0  0
  142.6157  136.2088  152.4229 H   0  0  0  0  0  0  0  0  0  0  0  0
  143.5053  135.3249  150.3694 H   0  0  0  0  0  0  0  0  0  0  0  0
  144.5760  133.4800  149.1384 H   0  0  0  0  0  0  0  0  0  0  0  0
  142.6700  132.3162  151.2989 H   0  0  0  0  0  0  0  0  0  0  0  0
  143.0581  131.5847  149.6565 H   0  0  0  0  0  0  0  0  0  0  0  0
  145.4931  131.4708  150.2850 H   0  0  0  0  0  0  0  0  0  0  0  0
  145.1015  132.2014  151.9267 H   0  0  0  0  0  0  0  0  0  0  0  0
  145.9826  135.5872  150.1759 H   0  0  0  0  0  0  0  0  0  0  0  0
  146.2111  134.6683  151.6473 H   0  0  0  0  0  0  0  0  0  0  0  0
  1  2  1  0  0  0  0
  1 20  1  0  0  0  0
  1 21  1  0  0  0  0
  1 22  1  0  0  0  0
  2  6  1  0  0  0  0
  2  3  1  0  0  0  0
  3  4  2  0  0  0  0
  4  5  1  0  0  0  0
  4 23  1  0  0  0  0
  5  6  2  0  0  0  0
  6  7  1  0  0  0  0
  7  8  1  0  0  0  0
  7 24  1  0  0  0  0
  8  9  2  0  0  0  0
  8 10  1  0  0  0  0
 10 11  1  0  0  0  0
 10 25  1  0  0  0  0
 11 19  1  0  0  0  0
 11 12  1  0  0  0  0
 11 26  1  0  0  0  0
 12 13  1  0  0  0  0
 12 27  1  0  0  0  0
 12 28  1  0  0  0  0
 13 14  1  0  0  0  0
 13 29  1  0  0  0  0
 13 30  1  0  0  0  0
 14 15  1  0  0  0  0
 15 16  1  0  0  0  0
 15 19  1  0  0  0  0
 15 31  1  0  0  0  0
 16 18  1  0  0  0  0
 16 17  1  0  0  0  0
 16 32  1  0  0  0  0
 17 18  1  0  0  0  0
 17 33  1  0  0  0  0
 17 34  1  0  0  0  0
 18 35  1  0  0  0  0
 18 36  1  0  0  0  0
 19 37  1  0  0  0  0
 19 38  1  0  0  0  0
M  END
> <s_m_source_file>
AV-unprocessed.smi

> <i_m_source_file_index>
2322

> <i_lp_mmshare_version>
43012

> <i_f3d_flags>
0

> <s_epik_input>
W0NIM11uMW5bY0hdbmMxW05IXUMoPU8pW05IXVtDQEBIXTJbQ0gyXVtDSDJdT1tDQEhdKFtDSDJdMilbQ0hdM1tDSDJdW0NIMl0z

> <s_epik_cmdline>
J2VwaWtfcHl0aG9uJywgJy1waCcsICc3LjAnLCAnLXRuJywgJzgnLCAnLW1hJywgJzIwMCcsICctbWV0YWxfYmluZGluZycsICctaW1hZScsICc8aW5maWxlLm1hZT4nLCAnLW9tYWUnLCAnPG91dGZpbGUubWFlPic=

> <r_lp_tautomer_probability>
1

> <r_epik_Ionization_Penalty>
2.16399e-05

> <r_epik_Ionization_Penalty_Charging>
0

> <r_epik_Ionization_Penalty_Neutral>
2.16399e-05

> <r_epik_State_Penalty>
-0

> <r_epik_Charging_Adjusted_Penalty>
0

> <i_epik_Tot_Q>
0

> <i_epik_Tot_abs_Q>
0

> <r_epik_Metal_State_Penalty>
-0

> <b_epik_Metal_Only>
0

> <s_lp_Force_Field>
OPLS_2005

> <r_lp_Energy>
20.3547

> <b_lp_Chiralities_Consistent>
1

> <s_lp_Variant>
AV-unprocessed.smi:2322-3

> <Gold.Version>
5.8.1

> <Gold.Id.Protein>
6NUR|6NUR_protein|mol2

> <Gold.PLP.Fitness>
42.2295

> <Gold.PLP.PLP>
-33.7836

> <Gold.PLP.part.hbond>
-3.8320

> <Gold.PLP.part.metal>
0.0000

> <Gold.PLP.part.buried>
-3.4375

> <Gold.PLP.part.nonpolar>
-28.5486

> <Gold.PLP.part.repulsive>
1.1004

> <Gold.PLP.ligand.clash>
0.0000

> <Gold.PLP.ligand.torsion>
0.8039

> <Gold.PLP.Chemscore.Hbond>
1.9920

> <Gold.PLP.Chemscore.CHOScore>
1.0000

> <Gold.PLP.Chemscore.Metal>
0.0000

> <Gold.Chemscore.Hbonds>
donor molecule, donor type, donor heavy atom, donor atom, acceptor molecule, acceptor atom, score
      L1  H     7    24       P1  7948  0.82
      L1  H    10    25       P1  7948  0.99
      P1  H  7989  7998       L1     3  0.17
      L1  C     4    23       P1  8028  1.00

> <Gold.PLP.Chemscore.Internal.Correction>
1.0778

> <Gold.Rescore>
     Score         DG    S(hbond)    S(metal)    S(lipo)     H(rot)  DE(clash)    DE(int)     intcor
     13.97     -15.50       1.90        0.00      60.06       1.31       0.10       1.44       ----

> <Gold.Chemscore.Fitness>
13.9654

> <Gold.Chemscore.DG>
-15.5028

> <Gold.Chemscore.ZeroCoef>
-5.4800

> <Gold.Chemscore.Hbond>
1.8988

> <Gold.Chemscore.Metal>
0.0000

> <Gold.Chemscore.Lipo>
60.0615

> <Gold.Chemscore.Internal_Hbond>
0.0000

> <Gold.Chemscore.DEClash>
0.0953

> <Gold.Chemscore.DEInternal>
1.4421

> <Gold.Chemscore.Rot>
1.3072

> <Gold.Chemscore.Internal.Correction>
   9.000000E+99

> <Gold.Chemscore.Hbonds>
donor molecule, donor type, donor heavy atom, donor atom, acceptor molecule, acceptor atom, score
      L1  H     7    24       P1  7948  0.80
      L1  H    10    25       P1  7948  0.91

> <Gold.Chemscore.Hbond.Weighted>
-6.3420

> <Gold.Chemscore.Metal.Weighted>
-0.0000

> <Gold.Chemscore.Lipo.Weighted>
-7.0272

> <Gold.Chemscore.Internal_Hbond.Weighted>
0.0000

> <Gold.Chemscore.DEClash.Weighted>
0.0953

> <Gold.Chemscore.DEInternal.Weighted>
1.4421

> <Gold.Chemscore.Rot.Weighted>
3.3464

> <Gold.Chemscore.Internal.Correction.Weighted>
   9.000000E+99

> <Gold.Protein.RotatedTorsions>
[ 6907 6896 6895 6894 ] final   34.42 input  -60.11 | X-H torsion
[ 7974 7965 7964 7962 ] final  146.35 input  175.53 | X-H torsion
[ 8008 7997 7996 7995 ] final  134.43 input   59.86 | X-H torsion
[ 10167 10162 10161 10158 ] final  -97.95 input  -65.29 | X-H torsion
[ 10718 10713 10712 10709 ] final  -87.38 input   66.30 | X-H torsion
[ 10763 10752 10751 10750 ] final  -80.00 input  -60.55 | X-H torsion
[ 11005 11000 10999 10996 ] final  -70.80 input  -57.11 | X-H torsion

> <Gold.Protein.ActiveResidues>
 VAL166  LYS551  ARG553  GLY616  TRP617  ASP618  TYR619  PRO620  LYS621  CYS622 
 ASP623  PHE694  ASN695  SER759  ASP760  ASP761  ALA762  ILE779  LEU786  VAL792 
 PHE793  MET794  SER795  GLU796  ALA797  LYS798  CYS799  TRP800  GLU811  SER814 

> <Gold.Protein.RotatedAtoms>
  152.1022  134.9334  160.0569 H   0  0  0  0  0  0  0  0  0  0  0  0  # atno 6907 bound_to 6896
  152.0544  133.4028  159.4399 H   0  0  0  0  0  0  0  0  0  0  0  0  # atno 6908 bound_to 6896
  150.6840  134.3192  159.4823 H   0  0  0  0  0  0  0  0  0  0  0  0  # atno 6909 bound_to 6896
  144.8678  139.5895  143.5901 H   0  0  0  0  0  0  0  0  0  0  0  0  # atno 7974 bound_to 7965
  156.2999  140.2496  156.3416 H   0  0  0  0  0  0  0  0  0  0  0  0  # atno 8008 bound_to 7997
  154.9050  140.0405  157.1933 H   0  0  0  0  0  0  0  0  0  0  0  0  # atno 8009 bound_to 7997
  154.8462  140.2899  155.5631 H   0  0  0  0  0  0  0  0  0  0  0  0  # atno 8010 bound_to 7997
  140.2781  143.3300  152.0468 H   0  0  0  0  0  0  0  0  0  0  0  0  # atno 10167 bound_to 10162
  155.9985  130.4798  150.4859 H   0  0  0  0  0  0  0  0  0  0  0  0  # atno 10718 bound_to 10713
  154.5457  135.5676  153.6878 H   0  0  0  0  0  0  0  0  0  0  0  0  # atno 10763 bound_to 10752
  152.9975  135.6238  154.2442 H   0  0  0  0  0  0  0  0  0  0  0  0  # atno 10764 bound_to 10752
  154.2375  135.2863  155.2846 H   0  0  0  0  0  0  0  0  0  0  0  0  # atno 10765 bound_to 10752
  141.1581  133.6800  156.6809 H   0  0  0  0  0  0  0  0  0  0  0  0  # atno 11005 bound_to 11000
  146.2908  139.7134  142.9162 LP  0  0  0  0  0  0  0  0  0  0  0  0  # atno 17320 bound_to 7965
  145.4188  141.0404  143.2975 LP  0  0  0  0  0  0  0  0  0  0  0  0  # atno 17321 bound_to 7965
  139.4970  144.6610  151.6463 LP  0  0  0  0  0  0  0  0  0  0  0  0  # atno 17342 bound_to 10162
  140.5834  143.9905  150.6281 LP  0  0  0  0  0  0  0  0  0  0  0  0  # atno 17343 bound_to 10162
  157.2859  131.0616  151.2166 LP  0  0  0  0  0  0  0  0  0  0  0  0  # atno 17370 bound_to 10713
  157.3196  130.6930  149.6261 LP  0  0  0  0  0  0  0  0  0  0  0  0  # atno 17371 bound_to 10713
  140.3103  134.8091  157.4171 LP  0  0  0  0  0  0  0  0  0  0  0  0  # atno 17394 bound_to 11000
  140.1184  134.5252  155.8205 LP  0  0  0  0  0  0  0  0  0  0  0  0  # atno 17395 bound_to 11000

$$$$
