AV-unprocessed.smi:2928|AV-procd|sdf|11233|dock9
  -GOLD-   2272016123D 1   1.00000     0.00000
 Structure written by MMmdl.
 55 58  0  0  0  0  0  0  0  0  2 V2000
  153.3941  144.5399  157.5271 C   0  0  0  0  0  0  0  0  0  0  0  0
  152.0268  144.4294  158.0892 N   0  3  2  0  0  0  0  0  0  0  0  0
  151.8686  144.9810  159.4570 C   0  0  2  0  0  0  0  0  0  0  0  0
  152.5946  144.1019  160.5070 C   0  0  0  0  0  0  0  0  0  0  0  0
  152.2280  142.6072  160.4346 C   0  0  0  0  0  0  0  0  0  0  0  0
  152.1320  142.0933  158.9854 C   0  0  0  0  0  0  0  0  0  0  0  0
  151.4283  143.0744  158.0135 C   0  0  1  0  0  0  0  0  0  0  0  0
  149.8986  143.1920  158.2067 C   0  0  0  0  0  0  0  0  0  0  0  0
  149.4693  143.9736  159.4753 C   0  0  2  0  0  0  0  0  0  0  0  0
  148.0793  144.4091  159.3582 N   0  0  0  0  0  0  0  0  0  0  0  0
  147.1010  144.1193  160.2283 C   0  0  0  0  0  0  0  0  0  0  0  0
  147.2636  143.4117  161.2221 O   0  0  0  0  0  0  0  0  0  0  0  0
  145.9400  144.6846  159.8575 N   0  0  0  0  0  0  0  0  0  0  0  0
  144.6711  144.6077  160.4996 C   0  0  0  0  0  0  0  0  0  0  0  0
  144.4426  143.7504  161.6043 C   0  0  0  0  0  0  0  0  0  0  0  0
  143.1906  143.7661  162.2427 C   0  0  0  0  0  0  0  0  0  0  0  0
  142.2118  144.6527  161.7646 C   0  0  0  0  0  0  0  0  0  0  0  0
  142.4170  145.4847  160.7243 N   0  0  0  0  0  0  0  0  0  0  0  0
  143.6149  145.4709  160.0894 C   0  0  0  0  0  0  0  0  0  0  0  0
  143.7699  146.3526  158.9955 N   0  0  0  0  0  0  0  0  0  0  0  0
  144.6992  147.4682  159.1511 C   0  0  0  0  0  0  0  0  0  0  0  0
  145.3555  147.6819  157.7821 C   0  0  0  0  0  0  0  0  0  0  0  0
  144.3994  146.9993  156.8086 C   0  0  0  0  0  0  0  0  0  0  0  0
  143.8733  145.8313  157.6370 C   0  0  0  0  0  0  0  0  0  0  0  0
  150.3642  145.2101  159.7317 C   0  0  0  0  0  0  0  0  0  0  0  0
  154.1215  143.9526  158.0863 H   0  0  0  0  0  0  0  0  0  0  0  0
  153.7237  145.5793  157.5335 H   0  0  0  0  0  0  0  0  0  0  0  0
  153.4080  144.1970  156.4922 H   0  0  0  0  0  0  0  0  0  0  0  0
  152.3401  145.9647  159.4762 H   0  0  0  0  0  0  0  0  0  0  0  0
  153.6709  144.1991  160.3627 H   0  0  0  0  0  0  0  0  0  0  0  0
  152.4030  144.4808  161.5114 H   0  0  0  0  0  0  0  0  0  0  0  0
  152.9724  142.0242  160.9779 H   0  0  0  0  0  0  0  0  0  0  0  0
  151.2987  142.4186  160.9652 H   0  0  0  0  0  0  0  0  0  0  0  0
  153.1414  141.9017  158.6208 H   0  0  0  0  0  0  0  0  0  0  0  0
  151.6313  141.1246  158.9701 H   0  0  0  0  0  0  0  0  0  0  0  0
  151.5842  142.6965  157.0020 H   0  0  0  0  0  0  0  0  0  0  0  0
  149.4959  143.7041  157.3309 H   0  0  0  0  0  0  0  0  0  0  0  0
  149.4435  142.2007  158.2026 H   0  0  0  0  0  0  0  0  0  0  0  0
  149.5247  143.3191  160.3418 H   0  0  0  0  0  0  0  0  0  0  0  0
  147.8498  144.9933  158.5674 H   0  0  0  0  0  0  0  0  0  0  0  0
  145.9405  145.1604  158.9671 H   0  0  0  0  0  0  0  0  0  0  0  0
  145.2115  143.0985  161.9893 H   0  0  0  0  0  0  0  0  0  0  0  0
  142.9906  143.1236  163.0874 H   0  0  0  0  0  0  0  0  0  0  0  0
  141.2399  144.7001  162.2331 H   0  0  0  0  0  0  0  0  0  0  0  0
  144.1387  148.3584  159.4369 H   0  0  0  0  0  0  0  0  0  0  0  0
  145.4451  147.2754  159.9238 H   0  0  0  0  0  0  0  0  0  0  0  0
  145.5192  148.7344  157.5501 H   0  0  0  0  0  0  0  0  0  0  0  0
  146.3226  147.1779  157.7568 H   0  0  0  0  0  0  0  0  0  0  0  0
  143.5820  147.6747  156.5525 H   0  0  0  0  0  0  0  0  0  0  0  0
  144.8822  146.6823  155.8839 H   0  0  0  0  0  0  0  0  0  0  0  0
  144.5853  145.0063  157.5913 H   0  0  0  0  0  0  0  0  0  0  0  0
  142.9098  145.4748  157.2720 H   0  0  0  0  0  0  0  0  0  0  0  0
  150.2167  145.5739  160.7493 H   0  0  0  0  0  0  0  0  0  0  0  0
  150.0340  146.0198  159.0783 H   0  0  0  0  0  0  0  0  0  0  0  0
  151.4582  145.0126  157.4917 H   0  0  0  0  0  0  0  0  0  0  0  0
  1  2  1  0  0  0  0
  1 26  1  0  0  0  0
  1 27  1  0  0  0  0
  1 28  1  0  0  0  0
  2  7  1  0  0  0  0
  2  3  1  0  0  0  0
  2 55  1  0  0  0  0
  3 25  1  0  0  0  0
  3  4  1  0  0  0  0
  3 29  1  0  0  0  0
  4  5  1  0  0  0  0
  4 30  1  0  0  0  0
  4 31  1  0  0  0  0
  5  6  1  0  0  0  0
  5 32  1  0  0  0  0
  5 33  1  0  0  0  0
  6  7  1  0  0  0  0
  6 34  1  0  0  0  0
  6 35  1  0  0  0  0
  7  8  1  0  0  0  0
  7 36  1  0  0  0  0
  8  9  1  0  0  0  0
  8 37  1  0  0  0  0
  8 38  1  0  0  0  0
  9 10  1  0  0  0  0
  9 25  1  0  0  0  0
  9 39  1  0  0  0  0
 10 11  1  0  0  0  0
 10 40  1  0  0  0  0
 11 12  2  0  0  0  0
 11 13  1  0  0  0  0
 13 14  1  0  0  0  0
 13 41  1  0  0  0  0
 14 19  1  0  0  0  0
 14 15  2  0  0  0  0
 15 16  1  0  0  0  0
 15 42  1  0  0  0  0
 16 17  2  0  0  0  0
 16 43  1  0  0  0  0
 17 18  1  0  0  0  0
 17 44  1  0  0  0  0
 18 19  2  0  0  0  0
 19 20  1  0  0  0  0
 20 24  1  0  0  0  0
 20 21  1  0  0  0  0
 21 22  1  0  0  0  0
 21 45  1  0  0  0  0
 21 46  1  0  0  0  0
 22 23  1  0  0  0  0
 22 47  1  0  0  0  0
 22 48  1  0  0  0  0
 23 24  1  0  0  0  0
 23 49  1  0  0  0  0
 23 50  1  0  0  0  0
 24 51  1  0  0  0  0
 24 52  1  0  0  0  0
 25 53  1  0  0  0  0
 25 54  1  0  0  0  0
M  CHG  1   2   1
M  END
> <s_m_source_file>
AV-unprocessed.smi

> <i_m_source_file_index>
2928

> <i_lp_mmshare_version>
43012

> <i_f3d_flags>
0

> <s_epik_input>
W0NIMl0xW0NIMl1bQ0gyXVtDQEhdKE4oW0NIM10pW0NIXTEyKVtDSDJdW0NASF0oW0NIMl0yKVtOSF1DKD1PKVtOSF1jM1tjSF1bY0hdW2NIXW5jM040W0NIMl1bQ0gyXVtDSDJdW0NIMl00

> <s_epik_cmdline>
J2VwaWtfcHl0aG9uJywgJy1waCcsICc3LjAnLCAnLXRuJywgJzgnLCAnLW1hJywgJzIwMCcsICctbWV0YWxfYmluZGluZycsICctaW1hZScsICc8aW5maWxlLm1hZT4nLCAnLW9tYWUnLCAnPG91dGZpbGUubWFlPic=

> <r_lp_tautomer_probability>
1

> <r_epik_Ionization_Penalty>
0.07954

> <r_epik_Ionization_Penalty_Charging>
0.00089841

> <r_epik_Ionization_Penalty_Neutral>
0.0786416

> <r_epik_State_Penalty>
0.0689917

> <r_epik_Charging_Adjusted_Penalty>
0.0698901

> <i_epik_Tot_Q>
1

> <i_epik_Tot_abs_Q>
1

> <r_epik_Metal_State_Penalty>
0.0608947

> <b_epik_Metal_Only>
0

> <s_lp_Force_Field>
OPLS_2005

> <r_lp_Energy>
63.7088

> <b_lp_Chiralities_Consistent>
1

> <s_lp_Variant>
AV-unprocessed.smi:2928-3

> <Gold.Version>
5.8.1

> <Gold.Id.Protein>
6NUR|6NUR_protein|mol2

> <Gold.PLP.Fitness>
46.2162

> <Gold.PLP.PLP>
-40.3121

> <Gold.PLP.part.hbond>
-1.9738

> <Gold.PLP.part.metal>
0.0000

> <Gold.PLP.part.buried>
-5.3384

> <Gold.PLP.part.nonpolar>
-33.9149

> <Gold.PLP.part.repulsive>
0.4290

> <Gold.PLP.ligand.clash>
0.0000

> <Gold.PLP.ligand.torsion>
0.1969

> <Gold.PLP.Chemscore.Hbond>
2.0000

> <Gold.PLP.Chemscore.CHOScore>
0.0000

> <Gold.PLP.Chemscore.Metal>
0.0000

> <Gold.Chemscore.Hbonds>
donor molecule, donor type, donor heavy atom, donor atom, acceptor molecule, acceptor atom, score
      L1  H    10    40       P1  8029  1.00
      P1  H  6933  6944       L1    12  1.00

> <Gold.PLP.Chemscore.Internal.Correction>
0.2979

> <Gold.Rescore>
     Score         DG    S(hbond)    S(metal)    S(lipo)     H(rot)  DE(clash)    DE(int)     intcor
     22.40     -25.75       2.03        0.00     141.06       1.18       1.87       1.48       ----

> <Gold.Chemscore.Fitness>
22.4014

> <Gold.Chemscore.DG>
-25.7497

> <Gold.Chemscore.ZeroCoef>
-5.4800

> <Gold.Chemscore.Hbond>
2.0301

> <Gold.Chemscore.Metal>
0.0000

> <Gold.Chemscore.Lipo>
141.0582

> <Gold.Chemscore.Internal_Hbond>
0.0000

> <Gold.Chemscore.DEClash>
1.8688

> <Gold.Chemscore.DEInternal>
1.4795

> <Gold.Chemscore.Rot>
1.1776

> <Gold.Chemscore.Internal.Correction>
   9.000000E+99

> <Gold.Chemscore.Hbonds>
donor molecule, donor type, donor heavy atom, donor atom, acceptor molecule, acceptor atom, score
      L1  H    10    40       P1  8029  0.99
      P1  H  6933  6944       L1    12  0.99

> <Gold.Chemscore.Hbond.Weighted>
-6.7806

> <Gold.Chemscore.Metal.Weighted>
-0.0000

> <Gold.Chemscore.Lipo.Weighted>
-16.5038

> <Gold.Chemscore.Internal_Hbond.Weighted>
0.0000

> <Gold.Chemscore.DEClash.Weighted>
1.8688

> <Gold.Chemscore.DEInternal.Weighted>
1.4795

> <Gold.Chemscore.Rot.Weighted>
3.0147

> <Gold.Chemscore.Internal.Correction.Weighted>
   9.000000E+99

> <Gold.Protein.RotatedTorsions>
[ 6907 6896 6895 6894 ] final -118.56 input  -60.11 | X-H torsion
[ 7974 7965 7964 7962 ] final  -24.25 input  175.53 | X-H torsion
[ 8008 7997 7996 7995 ] final -148.71 input   59.86 | X-H torsion
[ 10167 10162 10161 10158 ] final  -66.28 input  -65.29 | X-H torsion
[ 10718 10713 10712 10709 ] final  179.66 input   66.30 | X-H torsion
[ 10763 10752 10751 10750 ] final    2.28 input  -60.55 | X-H torsion
[ 11005 11000 10999 10996 ] final   50.65 input  -57.11 | X-H torsion

> <Gold.Protein.ActiveResidues>
 VAL166  LYS551  ARG553  GLY616  TRP617  ASP618  TYR619  PRO620  LYS621  CYS622 
 ASP623  PHE694  ASN695  SER759  ASP760  ASP761  ALA762  ILE779  LEU786  VAL792 
 PHE793  MET794  SER795  GLU796  ALA797  LYS798  CYS799  TRP800  GLU811  SER814 

> <Gold.Protein.RotatedAtoms>
  150.8230  133.8220  159.3130 H   0  0  0  0  0  0  0  0  0  0  0  0  # atno 6907 bound_to 6896
  151.5973  135.1048  160.0062 H   0  0  0  0  0  0  0  0  0  0  0  0  # atno 6908 bound_to 6896
  152.4317  133.7249  159.6611 H   0  0  0  0  0  0  0  0  0  0  0  0  # atno 6909 bound_to 6896
  146.1566  140.4727  142.8589 H   0  0  0  0  0  0  0  0  0  0  0  0  # atno 7974 bound_to 7965
  155.5961  140.0657  157.2746 H   0  0  0  0  0  0  0  0  0  0  0  0  # atno 8008 bound_to 7997
  154.4292  140.1826  156.1171 H   0  0  0  0  0  0  0  0  0  0  0  0  # atno 8009 bound_to 7997
  156.0195  140.3318  155.7028 H   0  0  0  0  0  0  0  0  0  0  0  0  # atno 8010 bound_to 7997
  140.5669  143.2315  151.6617 H   0  0  0  0  0  0  0  0  0  0  0  0  # atno 10167 bound_to 10162
  156.8724  130.9788  151.3071 H   0  0  0  0  0  0  0  0  0  0  0  0  # atno 10718 bound_to 10713
  153.2975  135.6953  153.7234 H   0  0  0  0  0  0  0  0  0  0  0  0  # atno 10763 bound_to 10752
  153.6161  135.3435  155.2996 H   0  0  0  0  0  0  0  0  0  0  0  0  # atno 10764 bound_to 10752
  154.8541  135.4375  154.2076 H   0  0  0  0  0  0  0  0  0  0  0  0  # atno 10765 bound_to 10752
  140.0999  134.5095  155.8772 H   0  0  0  0  0  0  0  0  0  0  0  0  # atno 11005 bound_to 11000
  144.7971  140.6144  143.6503 LP  0  0  0  0  0  0  0  0  0  0  0  0  # atno 17320 bound_to 7965
  145.4693  139.1505  143.3823 LP  0  0  0  0  0  0  0  0  0  0  0  0  # atno 17321 bound_to 7965
  139.5097  144.3567  152.0601 LP  0  0  0  0  0  0  0  0  0  0  0  0  # atno 17342 bound_to 10162
  140.2700  144.3975  150.6155 LP  0  0  0  0  0  0  0  0  0  0  0  0  # atno 17343 bound_to 10162
  157.6188  130.8639  149.9073 LP  0  0  0  0  0  0  0  0  0  0  0  0  # atno 17370 bound_to 10713
  156.0719  130.3684  150.0757 LP  0  0  0  0  0  0  0  0  0  0  0  0  # atno 17371 bound_to 10713
  141.2103  133.6693  156.6498 LP  0  0  0  0  0  0  0  0  0  0  0  0  # atno 17394 bound_to 11000
  140.3234  134.7989  157.4270 LP  0  0  0  0  0  0  0  0  0  0  0  0  # atno 17395 bound_to 11000

$$$$
