AV-unprocessed.smi:2518|AV-procd|sdf|9901|dock8
  -GOLD-   2272013543D 1   1.00000     0.00000
 Structure written by MMmdl.
 41 43  0  0  0  0  0  0  0  0  1 V2000
  151.3354  145.7717  160.2525 C   0  0  0  0  0  0  0  0  0  0  0  0
  151.7361  144.3173  160.1166 C   0  0  0  0  0  0  0  0  0  0  0  0
  151.6122  143.6533  158.8801 C   0  0  0  0  0  0  0  0  0  0  0  0
  151.9863  142.3007  158.7649 C   0  0  0  0  0  0  0  0  0  0  0  0
  152.4865  141.5914  159.8761 C   0  0  0  0  0  0  0  0  0  0  0  0
  152.8250  140.2707  159.6737 O   0  0  0  0  0  0  0  0  0  0  0  0
  152.6482  139.7208  158.3745 C   0  0  0  0  0  0  0  0  0  0  0  0
  153.3623  138.3618  158.3117 C   0  0  2  0  0  0  0  0  0  0  0  0
  154.4678  138.4809  157.4369 O   0  0  0  0  0  0  0  0  0  0  0  0
  152.4284  137.2453  157.8038 C   0  0  0  0  0  0  0  0  0  0  0  0
  151.7500  137.6036  156.5671 N   0  0  0  0  0  0  0  0  0  0  0  0
  152.2253  137.1316  155.3855 N   0  0  0  0  0  0  0  0  0  0  0  0
  151.4217  137.6280  154.4473 C   0  0  0  0  0  0  0  0  0  0  0  0
  150.3970  138.4435  155.0008 C   0  0  0  0  0  0  0  0  0  0  0  0
  149.2852  139.2161  154.4578 C   0  0  0  0  0  0  0  0  0  0  0  0
  148.5304  139.8688  155.2848 N   0  0  0  0  0  0  0  0  0  0  0  0
  148.7641  139.8417  156.6643 N   0  0  0  0  0  0  0  0  0  0  0  0
  147.8103  140.6406  157.4330 C   0  0  0  0  0  0  0  0  0  0  0  0
  149.7707  139.1417  157.2736 C   0  0  0  0  0  0  0  0  0  0  0  0
  149.9594  139.1138  158.4898 O   0  0  0  0  0  0  0  0  0  0  0  0
  150.6428  138.3961  156.3333 C   0  0  0  0  0  0  0  0  0  0  0  0
  152.6108  142.2664  161.1167 C   0  0  0  0  0  0  0  0  0  0  0  0
  152.2364  143.6193  161.2333 C   0  0  0  0  0  0  0  0  0  0  0  0
  150.9925  146.1811  159.3017 H   0  0  0  0  0  0  0  0  0  0  0  0
  152.1830  146.3668  160.5933 H   0  0  0  0  0  0  0  0  0  0  0  0
  150.5290  145.8747  160.9789 H   0  0  0  0  0  0  0  0  0  0  0  0
  151.2298  144.1764  158.0159 H   0  0  0  0  0  0  0  0  0  0  0  0
  151.8860  141.8008  157.8127 H   0  0  0  0  0  0  0  0  0  0  0  0
  151.5798  139.5760  158.2052 H   0  0  0  0  0  0  0  0  0  0  0  0
  153.0228  140.3899  157.5973 H   0  0  0  0  0  0  0  0  0  0  0  0
  153.7257  138.0933  159.3047 H   0  0  0  0  0  0  0  0  0  0  0  0
  155.2359  138.1563  157.8819 H   0  0  0  0  0  0  0  0  0  0  0  0
  153.0040  136.3364  157.6222 H   0  0  0  0  0  0  0  0  0  0  0  0
  151.6887  136.9841  158.5598 H   0  0  0  0  0  0  0  0  0  0  0  0
  151.6089  137.3842  153.4121 H   0  0  0  0  0  0  0  0  0  0  0  0
  149.0997  139.2402  153.3840 H   0  0  0  0  0  0  0  0  0  0  0  0
  148.0383  140.6948  158.4981 H   0  0  0  0  0  0  0  0  0  0  0  0
  146.8074  140.2243  157.3318 H   0  0  0  0  0  0  0  0  0  0  0  0
  147.7876  141.6637  157.0555 H   0  0  0  0  0  0  0  0  0  0  0  0
  152.9917  141.7689  161.9954 H   0  0  0  0  0  0  0  0  0  0  0  0
  152.3346  144.1210  162.1849 H   0  0  0  0  0  0  0  0  0  0  0  0
  1  2  1  0  0  0  0
  1 24  1  0  0  0  0
  1 25  1  0  0  0  0
  1 26  1  0  0  0  0
  2 23  1  0  0  0  0
  2  3  2  0  0  0  0
  3  4  1  0  0  0  0
  3 27  1  0  0  0  0
  4  5  2  0  0  0  0
  4 28  1  0  0  0  0
  5  6  1  0  0  0  0
  5 22  1  0  0  0  0
  6  7  1  0  0  0  0
  7  8  1  0  0  0  0
  7 29  1  0  0  0  0
  7 30  1  0  0  0  0
  8  9  1  0  0  0  0
  8 10  1  0  0  0  0
  8 31  1  0  0  0  0
  9 32  1  0  0  0  0
 10 11  1  0  0  0  0
 10 33  1  0  0  0  0
 10 34  1  0  0  0  0
 11 21  1  0  0  0  0
 11 12  1  0  0  0  0
 12 13  2  0  0  0  0
 13 14  1  0  0  0  0
 13 35  1  0  0  0  0
 14 21  2  0  0  0  0
 14 15  1  0  0  0  0
 15 16  2  0  0  0  0
 15 36  1  0  0  0  0
 16 17  1  0  0  0  0
 17 18  1  0  0  0  0
 17 19  1  0  0  0  0
 18 37  1  0  0  0  0
 18 38  1  0  0  0  0
 18 39  1  0  0  0  0
 19 20  2  0  0  0  0
 19 21  1  0  0  0  0
 22 23  2  0  0  0  0
 22 40  1  0  0  0  0
 23 41  1  0  0  0  0
M  END
> <s_m_source_file>
AV-unprocessed.smi

> <i_m_source_file_index>
2518

> <i_lp_mmshare_version>
43012

> <i_f3d_flags>
0

> <s_epik_input>
W0NIM11jMVtjSF1bY0hdYyhbY0hdW2NIXTEpT1tDSDJdW0NASF0oW09IXSlbQ0gyXW4obltjSF0yKWMoYzIzKWMoPU8pbihbQ0gzXSluW2NIXTM=

> <s_epik_cmdline>
J2VwaWtfcHl0aG9uJywgJy1waCcsICc3LjAnLCAnLXRuJywgJzgnLCAnLW1hJywgJzIwMCcsICctbWV0YWxfYmluZGluZycsICctaW1hZScsICc8aW5maWxlLm1hZT4nLCAnLW9tYWUnLCAnPG91dGZpbGUubWFlPic=

> <r_lp_tautomer_probability>
1

> <r_epik_Ionization_Penalty>
2.246e-06

> <r_epik_Ionization_Penalty_Charging>
1.41975e-10

> <r_epik_Ionization_Penalty_Neutral>
2.24586e-06

> <r_epik_State_Penalty>
-0

> <r_epik_Charging_Adjusted_Penalty>
1.41975e-10

> <i_epik_Tot_Q>
0

> <i_epik_Tot_abs_Q>
0

> <r_epik_Metal_State_Penalty>
-0

> <b_epik_Metal_Only>
0

> <s_lp_Force_Field>
OPLS_2005

> <r_lp_Energy>
32.1328

> <b_lp_Chiralities_Consistent>
1

> <s_lp_Variant>
AV-unprocessed.smi:2518-1

> <Gold.Version>
5.8.1

> <Gold.Id.Protein>
6NUR|6NUR_protein|mol2

> <Gold.PLP.Fitness>
48.0695

> <Gold.PLP.PLP>
-41.2338

> <Gold.PLP.part.hbond>
-2.0000

> <Gold.PLP.part.metal>
0.0000

> <Gold.PLP.part.buried>
-5.5724

> <Gold.PLP.part.nonpolar>
-33.9846

> <Gold.PLP.part.repulsive>
0.1221

> <Gold.PLP.ligand.clash>
2.0875

> <Gold.PLP.ligand.torsion>
1.0770

> <Gold.PLP.Chemscore.Hbond>
1.6800

> <Gold.PLP.Chemscore.CHOScore>
2.0000

> <Gold.PLP.Chemscore.Metal>
0.0000

> <Gold.Chemscore.Hbonds>
donor molecule, donor type, donor heavy atom, donor atom, acceptor molecule, acceptor atom, score
      P1  H  7997  8009       L1     9  0.69
      P1  H 10752 10763       L1    12  0.83
      L1  C    13    35       P1  7949  1.00
      L1  C    15    36       P1  7957  1.00

> <Gold.PLP.Chemscore.Internal.Correction>
0.0372

> <Gold.Rescore>
     Score         DG    S(hbond)    S(metal)    S(lipo)     H(rot)  DE(clash)    DE(int)     intcor
     15.03     -16.26       1.03        0.00     114.12       2.35       0.04       1.18       ----

> <Gold.Chemscore.Fitness>
15.0323

> <Gold.Chemscore.DG>
-16.2552

> <Gold.Chemscore.ZeroCoef>
-5.4800

> <Gold.Chemscore.Hbond>
1.0289

> <Gold.Chemscore.Metal>
0.0000

> <Gold.Chemscore.Lipo>
114.1213

> <Gold.Chemscore.Internal_Hbond>
0.0000

> <Gold.Chemscore.DEClash>
0.0407

> <Gold.Chemscore.DEInternal>
1.1823

> <Gold.Chemscore.Rot>
2.3490

> <Gold.Chemscore.Internal.Correction>
   9.000000E+99

> <Gold.Chemscore.Hbonds>
donor molecule, donor type, donor heavy atom, donor atom, acceptor molecule, acceptor atom, score
      P1  H  7997  8009       L1     9  0.28
      P1  H 10752 10763       L1    12  0.64

> <Gold.Chemscore.Hbond.Weighted>
-3.4366

> <Gold.Chemscore.Metal.Weighted>
-0.0000

> <Gold.Chemscore.Lipo.Weighted>
-13.3522

> <Gold.Chemscore.Internal_Hbond.Weighted>
0.0000

> <Gold.Chemscore.DEClash.Weighted>
0.0407

> <Gold.Chemscore.DEInternal.Weighted>
1.1823

> <Gold.Chemscore.Rot.Weighted>
6.0136

> <Gold.Chemscore.Internal.Correction.Weighted>
   9.000000E+99

> <Gold.Protein.RotatedTorsions>
[ 6907 6896 6895 6894 ] final   68.79 input  -60.11 | X-H torsion
[ 7974 7965 7964 7962 ] final   19.92 input  175.53 | X-H torsion
[ 8008 7997 7996 7995 ] final  143.30 input   59.86 | X-H torsion
[ 10167 10162 10161 10158 ] final  133.56 input  -65.29 | X-H torsion
[ 10718 10713 10712 10709 ] final   79.90 input   66.30 | X-H torsion
[ 10763 10752 10751 10750 ] final   73.25 input  -60.55 | X-H torsion
[ 11005 11000 10999 10996 ] final  161.61 input  -57.11 | X-H torsion

> <Gold.Protein.ActiveResidues>
 VAL166  LYS551  ARG553  GLY616  TRP617  ASP618  TYR619  PRO620  LYS621  CYS622 
 ASP623  PHE694  ASN695  SER759  ASP760  ASP761  ALA762  ILE779  LEU786  VAL792 
 PHE793  MET794  SER795  GLU796  ALA797  LYS798  CYS799  TRP800  GLU811  SER814 

> <Gold.Protein.RotatedAtoms>
  152.4643  134.5111  159.9753 H   0  0  0  0  0  0  0  0  0  0  0  0  # atno 6907 bound_to 6896
  151.5152  133.3471  159.2899 H   0  0  0  0  0  0  0  0  0  0  0  0  # atno 6908 bound_to 6896
  150.8621  134.8004  159.7152 H   0  0  0  0  0  0  0  0  0  0  0  0  # atno 6909 bound_to 6896
  146.2131  139.8244  142.8673 H   0  0  0  0  0  0  0  0  0  0  0  0  # atno 7974 bound_to 7965
  156.2933  140.2266  156.4868 H   0  0  0  0  0  0  0  0  0  0  0  0  # atno 8008 bound_to 7997
  154.7806  140.0460  157.1145 H   0  0  0  0  0  0  0  0  0  0  0  0  # atno 8009 bound_to 7997
  154.9764  140.3073  155.4969 H   0  0  0  0  0  0  0  0  0  0  0  0  # atno 8010 bound_to 7997
  139.5292  144.6610  151.5014 H   0  0  0  0  0  0  0  0  0  0  0  0  # atno 10167 bound_to 10162
  157.6790  130.9935  150.2000 H   0  0  0  0  0  0  0  0  0  0  0  0  # atno 10718 bound_to 10713
  153.0510  135.5070  154.7866 H   0  0  0  0  0  0  0  0  0  0  0  0  # atno 10763 bound_to 10752
  154.6728  135.2956  154.9721 H   0  0  0  0  0  0  0  0  0  0  0  0  # atno 10764 bound_to 10752
  154.0533  135.6701  153.4855 H   0  0  0  0  0  0  0  0  0  0  0  0  # atno 10765 bound_to 10752
  140.2175  134.8221  157.3185 H   0  0  0  0  0  0  0  0  0  0  0  0  # atno 11005 bound_to 11000
  145.3062  141.0208  143.3580 LP  0  0  0  0  0  0  0  0  0  0  0  0  # atno 17320 bound_to 7965
  144.8969  139.4700  143.6651 LP  0  0  0  0  0  0  0  0  0  0  0  0  # atno 17321 bound_to 7965
  140.6458  143.8798  150.6735 LP  0  0  0  0  0  0  0  0  0  0  0  0  # atno 17342 bound_to 10162
  140.2147  143.3856  152.1691 LP  0  0  0  0  0  0  0  0  0  0  0  0  # atno 17343 bound_to 10162
  156.2693  130.3720  149.8048 LP  0  0  0  0  0  0  0  0  0  0  0  0  # atno 17370 bound_to 10713
  156.5770  130.8449  151.3372 LP  0  0  0  0  0  0  0  0  0  0  0  0  # atno 17371 bound_to 10713
  140.1885  134.4401  155.7730 LP  0  0  0  0  0  0  0  0  0  0  0  0  # atno 17394 bound_to 11000
  141.2224  133.7016  156.7987 LP  0  0  0  0  0  0  0  0  0  0  0  0  # atno 17395 bound_to 11000

$$$$
