AV-unprocessed.smi:2657|AV-procd|sdf|10307|dock4
  -GOLD-   2272014323D 1   1.00000     0.00000
 Structure written by MMmdl.
 46 48  0  0  0  0  0  0  0  0  1 V2000
  139.6806  137.7991  154.0928 O   0  0  0  0  0  0  0  0  0  0  0  0
  140.5185  138.6364  153.7592 C   0  0  0  0  0  0  0  0  0  0  0  0
  140.3424  139.9559  153.9159 N   0  0  0  0  0  0  0  0  0  0  0  0
  139.1720  140.5727  154.5289 C   0  0  0  0  0  0  0  0  0  0  0  0
  138.2057  141.1386  153.4677 C   0  0  0  0  0  0  0  0  0  0  0  0
  137.3490  142.2016  154.0059 N   0  0  0  0  0  0  0  0  0  0  0  0
  136.0213  142.0916  154.1568 C   0  0  0  0  0  0  0  0  0  0  0  0
  135.3361  141.1045  153.8907 O   0  0  0  0  0  0  0  0  0  0  0  0
  135.4251  143.3785  154.7098 C   0  0  0  0  0  0  0  0  0  0  0  0
  136.6490  144.2847  154.8734 C   0  0  0  0  0  0  0  0  0  0  0  0
  137.7937  143.4083  154.3840 C   0  0  0  0  0  0  0  0  0  0  0  0
  138.9607  143.7971  154.3507 O   0  0  0  0  0  0  0  0  0  0  0  0
  141.7170  138.3717  153.2112 N   0  0  0  0  0  0  0  0  0  0  0  0
  142.3246  137.1175  152.9254 C   0  0  0  0  0  0  0  0  0  0  0  0
  141.7406  135.8533  153.1765 C   0  0  0  0  0  0  0  0  0  0  0  0
  142.4593  134.6904  152.8397 C   0  0  0  0  0  0  0  0  0  0  0  0
  143.7420  134.8106  152.2551 C   0  0  0  0  0  0  0  0  0  0  0  0
  144.4786  133.6564  151.9096 N   0  0  0  0  0  0  0  0  0  0  0  0
  145.9179  133.7985  151.6960 C   0  0  0  0  0  0  0  0  0  0  0  0
  146.5892  132.4166  151.6241 C   0  0  0  0  0  0  0  0  0  0  0  0
  145.9595  131.6294  150.6191 O   0  0  0  0  0  0  0  0  0  0  0  0
  144.5824  131.4095  150.9056 C   0  0  0  0  0  0  0  0  0  0  0  0
  143.8379  132.7549  150.9550 C   0  0  0  0  0  0  0  0  0  0  0  0
  144.2987  136.0232  152.0173 N   0  0  0  0  0  0  0  0  0  0  0  0
  143.6068  137.1352  152.3412 C   0  0  0  0  0  0  0  0  0  0  0  0
  141.0798  140.5759  153.6142 H   0  0  0  0  0  0  0  0  0  0  0  0
  138.6621  139.7808  155.0780 H   0  0  0  0  0  0  0  0  0  0  0  0
  139.4499  141.3188  155.2757 H   0  0  0  0  0  0  0  0  0  0  0  0
  138.7491  141.4694  152.5806 H   0  0  0  0  0  0  0  0  0  0  0  0
  137.5593  140.3323  153.1169 H   0  0  0  0  0  0  0  0  0  0  0  0
  134.7027  143.7953  154.0071 H   0  0  0  0  0  0  0  0  0  0  0  0
  134.9255  143.1919  155.6609 H   0  0  0  0  0  0  0  0  0  0  0  0
  136.5719  145.1869  154.2660 H   0  0  0  0  0  0  0  0  0  0  0  0
  136.8059  144.5722  155.9136 H   0  0  0  0  0  0  0  0  0  0  0  0
  142.2907  139.1774  153.0086 H   0  0  0  0  0  0  0  0  0  0  0  0
  140.7629  135.7394  153.6152 H   0  0  0  0  0  0  0  0  0  0  0  0
  142.0238  133.7244  153.0464 H   0  0  0  0  0  0  0  0  0  0  0  0
  146.0931  134.3471  150.7693 H   0  0  0  0  0  0  0  0  0  0  0  0
  146.3656  134.3746  152.5067 H   0  0  0  0  0  0  0  0  0  0  0  0
  147.6461  132.5252  151.3803 H   0  0  0  0  0  0  0  0  0  0  0  0
  146.5355  131.9076  152.5879 H   0  0  0  0  0  0  0  0  0  0  0  0
  144.1559  130.7737  150.1297 H   0  0  0  0  0  0  0  0  0  0  0  0
  144.4779  130.8728  151.8499 H   0  0  0  0  0  0  0  0  0  0  0  0
  142.7945  132.5718  151.2074 H   0  0  0  0  0  0  0  0  0  0  0  0
  143.8480  133.2225  149.9696 H   0  0  0  0  0  0  0  0  0  0  0  0
  144.0985  138.0729  152.1273 H   0  0  0  0  0  0  0  0  0  0  0  0
  1  2  2  0  0  0  0
  2  3  1  0  0  0  0
  2 13  1  0  0  0  0
  3  4  1  0  0  0  0
  3 26  1  0  0  0  0
  4  5  1  0  0  0  0
  4 27  1  0  0  0  0
  4 28  1  0  0  0  0
  5  6  1  0  0  0  0
  5 29  1  0  0  0  0
  5 30  1  0  0  0  0
  6 11  1  0  0  0  0
  6  7  1  0  0  0  0
  7  8  2  0  0  0  0
  7  9  1  0  0  0  0
  9 10  1  0  0  0  0
  9 31  1  0  0  0  0
  9 32  1  0  0  0  0
 10 11  1  0  0  0  0
 10 33  1  0  0  0  0
 10 34  1  0  0  0  0
 11 12  2  0  0  0  0
 13 14  1  0  0  0  0
 13 35  1  0  0  0  0
 14 25  1  0  0  0  0
 14 15  2  0  0  0  0
 15 16  1  0  0  0  0
 15 36  1  0  0  0  0
 16 17  2  0  0  0  0
 16 37  1  0  0  0  0
 17 18  1  0  0  0  0
 17 24  1  0  0  0  0
 18 23  1  0  0  0  0
 18 19  1  0  0  0  0
 19 20  1  0  0  0  0
 19 38  1  0  0  0  0
 19 39  1  0  0  0  0
 20 21  1  0  0  0  0
 20 40  1  0  0  0  0
 20 41  1  0  0  0  0
 21 22  1  0  0  0  0
 22 23  1  0  0  0  0
 22 42  1  0  0  0  0
 22 43  1  0  0  0  0
 23 44  1  0  0  0  0
 23 45  1  0  0  0  0
 24 25  2  0  0  0  0
 25 46  1  0  0  0  0
M  END
> <s_m_source_file>
AV-unprocessed.smi

> <i_m_source_file_index>
2657

> <i_lp_mmshare_version>
43012

> <i_f3d_flags>
0

> <s_epik_input>
Tz1DMVtDSDJdW0NIMl1DKD1PKU4xW0NIMl1bQ0gyXVtOSF1DKD1PKVtOSF1jMltjSF1bY0hdYyhuW2NIXTIpTjNbQ0gyXVtDSDJdT1tDSDJdW0NIMl0z

> <s_epik_cmdline>
J2VwaWtfcHl0aG9uJywgJy1waCcsICc3LjAnLCAnLXRuJywgJzgnLCAnLW1hJywgJzIwMCcsICctbWV0YWxfYmluZGluZycsICctaW1hZScsICc8aW5maWxlLm1hZT4nLCAnLW9tYWUnLCAnPG91dGZpbGUubWFlPic=

> <r_lp_tautomer_probability>
1

> <r_epik_Ionization_Penalty>
0.00195667

> <r_epik_Ionization_Penalty_Charging>
0

> <r_epik_Ionization_Penalty_Neutral>
0.00195667

> <r_epik_State_Penalty>
0.0013118

> <r_epik_Charging_Adjusted_Penalty>
0.0013118

> <i_epik_Tot_Q>
0

> <i_epik_Tot_abs_Q>
0

> <r_epik_Metal_State_Penalty>
-0

> <b_epik_Metal_Only>
0

> <s_lp_Force_Field>
OPLS_2005

> <r_lp_Energy>
27.686

> <b_lp_Chiralities_Consistent>
1

> <s_lp_Variant>
AV-unprocessed.smi:2657-1

> <Gold.Version>
5.8.1

> <Gold.Id.Protein>
6NUR|6NUR_protein|mol2

> <Gold.PLP.Fitness>
46.5656

> <Gold.PLP.PLP>
-36.4854

> <Gold.PLP.part.hbond>
-3.0000

> <Gold.PLP.part.metal>
0.0000

> <Gold.PLP.part.buried>
-7.1900

> <Gold.PLP.part.nonpolar>
-26.7390

> <Gold.PLP.part.repulsive>
0.5117

> <Gold.PLP.ligand.clash>
0.0000

> <Gold.PLP.ligand.torsion>
0.5512

> <Gold.PLP.Chemscore.Hbond>
2.0000

> <Gold.PLP.Chemscore.CHOScore>
1.6104

> <Gold.PLP.Chemscore.Metal>
0.0000

> <Gold.Chemscore.Hbonds>
donor molecule, donor type, donor heavy atom, donor atom, acceptor molecule, acceptor atom, score
      L1  H    13    35       P1 10175  1.00
      P1  H 10162 10167       L1    12  0.44
      L1  C    25    46       P1 10171  0.60
      L1  C    25    46       P1 10175  1.00

> <Gold.PLP.Chemscore.Internal.Correction>
0.3515

> <Gold.Rescore>
     Score         DG    S(hbond)    S(metal)    S(lipo)     H(rot)  DE(clash)    DE(int)     intcor
     12.53     -14.73       1.99        0.00      65.49       1.97       0.06       2.14       ----

> <Gold.Chemscore.Fitness>
12.5268

> <Gold.Chemscore.DG>
-14.7288

> <Gold.Chemscore.ZeroCoef>
-5.4800

> <Gold.Chemscore.Hbond>
1.9880

> <Gold.Chemscore.Metal>
0.0000

> <Gold.Chemscore.Lipo>
65.4945

> <Gold.Chemscore.Internal_Hbond>
0.0000

> <Gold.Chemscore.DEClash>
0.0577

> <Gold.Chemscore.DEInternal>
2.1443

> <Gold.Chemscore.Rot>
1.9742

> <Gold.Chemscore.Internal.Correction>
   9.000000E+99

> <Gold.Chemscore.Hbonds>
donor molecule, donor type, donor heavy atom, donor atom, acceptor molecule, acceptor atom, score
      L1  H    13    35       P1 10175  0.99
      P1  H 10162 10167       L1    12  0.30

> <Gold.Chemscore.Hbond.Weighted>
-6.6400

> <Gold.Chemscore.Metal.Weighted>
-0.0000

> <Gold.Chemscore.Lipo.Weighted>
-7.6629

> <Gold.Chemscore.Internal_Hbond.Weighted>
0.0000

> <Gold.Chemscore.DEClash.Weighted>
0.0577

> <Gold.Chemscore.DEInternal.Weighted>
2.1443

> <Gold.Chemscore.Rot.Weighted>
5.0540

> <Gold.Chemscore.Internal.Correction.Weighted>
   9.000000E+99

> <Gold.Protein.RotatedTorsions>
[ 6907 6896 6895 6894 ] final  123.03 input  -60.11 | X-H torsion
[ 7974 7965 7964 7962 ] final   80.61 input  175.53 | X-H torsion
[ 8008 7997 7996 7995 ] final  -82.15 input   59.86 | X-H torsion
[ 10167 10162 10161 10158 ] final -172.10 input  -65.29 | X-H torsion
[ 10718 10713 10712 10709 ] final  -79.52 input   66.30 | X-H torsion
[ 10763 10752 10751 10750 ] final  -58.96 input  -60.55 | X-H torsion
[ 11005 11000 10999 10996 ] final  127.06 input  -57.11 | X-H torsion

> <Gold.Protein.ActiveResidues>
 VAL166  LYS551  ARG553  GLY616  TRP617  ASP618  TYR619  PRO620  LYS621  CYS622 
 ASP623  PHE694  ASN695  SER759  ASP760  ASP761  ALA762  ILE779  LEU786  VAL792 
 PHE793  MET794  SER795  GLU796  ALA797  LYS798  CYS799  TRP800  GLU811  SER814 

> <Gold.Protein.RotatedAtoms>
  152.4195  133.7093  159.6469 H   0  0  0  0  0  0  0  0  0  0  0  0  # atno 6907 bound_to 6896
  150.8071  133.8479  159.3206 H   0  0  0  0  0  0  0  0  0  0  0  0  # atno 6908 bound_to 6896
  151.6199  135.1035  160.0151 H   0  0  0  0  0  0  0  0  0  0  0  0  # atno 6909 bound_to 6896
  145.6489  139.2443  143.1988 H   0  0  0  0  0  0  0  0  0  0  0  0  # atno 7974 bound_to 7965
  154.6056  140.0637  156.9427 H   0  0  0  0  0  0  0  0  0  0  0  0  # atno 8008 bound_to 7997
  155.2058  140.3318  155.4318 H   0  0  0  0  0  0  0  0  0  0  0  0  # atno 8009 bound_to 7997
  156.2346  140.1856  156.7138 H   0  0  0  0  0  0  0  0  0  0  0  0  # atno 8010 bound_to 7997
  139.5764  144.1523  152.1456 H   0  0  0  0  0  0  0  0  0  0  0  0  # atno 10167 bound_to 10162
  156.0091  130.4548  150.3661 H   0  0  0  0  0  0  0  0  0  0  0  0  # atno 10718 bound_to 10713
  154.2463  135.6334  153.5224 H   0  0  0  0  0  0  0  0  0  0  0  0  # atno 10763 bound_to 10752
  152.9920  135.5554  154.5856 H   0  0  0  0  0  0  0  0  0  0  0  0  # atno 10764 bound_to 10752
  154.5373  135.2892  155.1102 H   0  0  0  0  0  0  0  0  0  0  0  0  # atno 10765 bound_to 10752
  139.9488  134.9625  156.8799 H   0  0  0  0  0  0  0  0  0  0  0  0  # atno 11005 bound_to 11000
  146.1219  140.7297  142.9453 LP  0  0  0  0  0  0  0  0  0  0  0  0  # atno 17320 bound_to 7965
  144.7130  140.4107  143.7066 LP  0  0  0  0  0  0  0  0  0  0  0  0  # atno 17321 bound_to 7965
  140.1067  144.5493  150.6952 LP  0  0  0  0  0  0  0  0  0  0  0  0  # atno 17342 bound_to 10162
  140.7046  143.2459  151.4764 LP  0  0  0  0  0  0  0  0  0  0  0  0  # atno 17343 bound_to 10162
  157.1747  131.0377  151.2778 LP  0  0  0  0  0  0  0  0  0  0  0  0  # atno 17370 bound_to 10713
  157.4198  130.7431  149.6904 LP  0  0  0  0  0  0  0  0  0  0  0  0  # atno 17371 bound_to 10713
  140.5769  134.0389  155.7450 LP  0  0  0  0  0  0  0  0  0  0  0  0  # atno 17394 bound_to 11000
  141.1145  133.9562  157.2847 LP  0  0  0  0  0  0  0  0  0  0  0  0  # atno 17395 bound_to 11000

$$$$
