AV-unprocessed.smi:2469|AV-procd|sdf|9734|dock5
  -GOLD-   2272013373D 1   1.00000     0.00000
 Structure written by MMmdl.
 32 33  0  0  0  0  0  0  0  0  1 V2000
  149.0630  138.9163  153.4189 O   0  0  0  0  0  0  0  0  0  0  0  0
  149.7248  138.0026  154.2675 C   0  0  0  0  0  0  0  0  0  0  0  0
  151.2439  138.1139  154.0885 C   0  0  0  0  0  0  0  0  0  0  0  0
  151.8324  138.4788  155.3341 O   0  0  0  0  0  0  0  0  0  0  0  0
  151.4839  139.6883  155.8994 C   0  0  0  0  0  0  0  0  0  0  0  0
  151.8945  139.9585  157.2199 C   0  0  0  0  0  0  0  0  0  0  0  0
  151.5461  141.1921  157.8021 C   0  0  0  0  0  0  0  0  0  0  0  0
  150.7975  142.1226  157.0443 C   0  0  0  0  0  0  0  0  0  0  0  0
  150.3991  143.3778  157.5287 N   0  0  0  0  0  0  0  0  0  0  0  0
  150.8544  143.8843  158.8173 C   0  0  1  0  0  0  0  0  0  0  0  0
  151.9457  144.9318  158.7104 C   0  0  0  0  0  0  0  0  0  0  0  0
  151.8452  145.6210  160.0683 C   0  0  0  0  0  0  0  0  0  0  0  0
  150.4778  145.5195  160.4589 O   0  0  0  0  0  0  0  0  0  0  0  0
  149.7746  144.6710  159.5565 C   0  0  0  0  0  0  0  0  0  0  0  0
  150.4336  141.7532  155.7321 C   0  0  0  0  0  0  0  0  0  0  0  0
  150.7632  140.5727  155.1667 N   0  0  0  0  0  0  0  0  0  0  0  0
  149.6496  139.1536  152.7170 H   0  0  0  0  0  0  0  0  0  0  0  0
  149.4338  138.1650  155.3058 H   0  0  0  0  0  0  0  0  0  0  0  0
  149.3945  137.0005  153.9926 H   0  0  0  0  0  0  0  0  0  0  0  0
  151.6317  137.1388  153.7894 H   0  0  0  0  0  0  0  0  0  0  0  0
  151.4919  138.8258  153.2990 H   0  0  0  0  0  0  0  0  0  0  0  0
  152.4667  139.2318  157.7772 H   0  0  0  0  0  0  0  0  0  0  0  0
  151.8575  141.4017  158.8140 H   0  0  0  0  0  0  0  0  0  0  0  0
  149.9192  144.0142  156.9081 H   0  0  0  0  0  0  0  0  0  0  0  0
  151.1839  143.0626  159.4546 H   0  0  0  0  0  0  0  0  0  0  0  0
  152.9349  144.5150  158.5202 H   0  0  0  0  0  0  0  0  0  0  0  0
  151.7170  145.6440  157.9157 H   0  0  0  0  0  0  0  0  0  0  0  0
  152.4556  145.0996  160.8066 H   0  0  0  0  0  0  0  0  0  0  0  0
  152.1728  146.6602  160.0309 H   0  0  0  0  0  0  0  0  0  0  0  0
  149.2110  145.3020  158.8670 H   0  0  0  0  0  0  0  0  0  0  0  0
  149.0681  144.0259  160.0792 H   0  0  0  0  0  0  0  0  0  0  0  0
  149.8601  142.4270  155.1122 H   0  0  0  0  0  0  0  0  0  0  0  0
  1  2  1  0  0  0  0
  1 17  1  0  0  0  0
  2  3  1  0  0  0  0
  2 18  1  0  0  0  0
  2 19  1  0  0  0  0
  3  4  1  0  0  0  0
  3 20  1  0  0  0  0
  3 21  1  0  0  0  0
  4  5  1  0  0  0  0
  5 16  1  0  0  0  0
  5  6  2  0  0  0  0
  6  7  1  0  0  0  0
  6 22  1  0  0  0  0
  7  8  2  0  0  0  0
  7 23  1  0  0  0  0
  8  9  1  0  0  0  0
  8 15  1  0  0  0  0
  9 10  1  0  0  0  0
  9 24  1  0  0  0  0
 10 14  1  0  0  0  0
 10 11  1  0  0  0  0
 10 25  1  0  0  0  0
 11 12  1  0  0  0  0
 11 26  1  0  0  0  0
 11 27  1  0  0  0  0
 12 13  1  0  0  0  0
 12 28  1  0  0  0  0
 12 29  1  0  0  0  0
 13 14  1  0  0  0  0
 14 30  1  0  0  0  0
 14 31  1  0  0  0  0
 15 16  2  0  0  0  0
 15 32  1  0  0  0  0
M  END
> <s_m_source_file>
AV-unprocessed.smi

> <i_m_source_file_index>
2469

> <i_lp_mmshare_version>
43012

> <i_f3d_flags>
0

> <s_epik_input>
W09IXVtDSDJdW0NIMl1PYzFbY0hdW2NIXWMoW2NIXW4xKVtOSF1bQ0BASF0yW0NIMl1bQ0gyXU9bQ0gyXTI=

> <s_epik_cmdline>
J2VwaWtfcHl0aG9uJywgJy1waCcsICc3LjAnLCAnLXRuJywgJzgnLCAnLW1hJywgJzIwMCcsICctbWV0YWxfYmluZGluZycsICctaW1hZScsICc8aW5maWxlLm1hZT4nLCAnLW9tYWUnLCAnPG91dGZpbGUubWFlPic=

> <r_lp_tautomer_probability>
1

> <r_epik_Ionization_Penalty>
0.000432265

> <r_epik_Ionization_Penalty_Charging>
0

> <r_epik_Ionization_Penalty_Neutral>
0.000432265

> <r_epik_State_Penalty>
-0

> <r_epik_Charging_Adjusted_Penalty>
0

> <i_epik_Tot_Q>
0

> <i_epik_Tot_abs_Q>
0

> <r_epik_Metal_State_Penalty>
-0

> <b_epik_Metal_Only>
0

> <s_lp_Force_Field>
OPLS_2005

> <r_lp_Energy>
23.2185

> <b_lp_Chiralities_Consistent>
1

> <s_lp_Variant>
AV-unprocessed.smi:2469-2

> <Gold.Version>
5.8.1

> <Gold.Id.Protein>
6NUR|6NUR_protein|mol2

> <Gold.PLP.Fitness>
45.0395

> <Gold.PLP.PLP>
-34.8300

> <Gold.PLP.part.hbond>
-4.8868

> <Gold.PLP.part.metal>
0.0000

> <Gold.PLP.part.buried>
-5.5561

> <Gold.PLP.part.nonpolar>
-26.0814

> <Gold.PLP.part.repulsive>
0.9584

> <Gold.PLP.ligand.clash>
0.0000

> <Gold.PLP.ligand.torsion>
0.7527

> <Gold.PLP.Chemscore.Hbond>
2.9200

> <Gold.PLP.Chemscore.CHOScore>
0.9680

> <Gold.PLP.Chemscore.Metal>
0.0000

> <Gold.Chemscore.Hbonds>
donor molecule, donor type, donor heavy atom, donor atom, acceptor molecule, acceptor atom, score
      L1  H     1    17       P1  7957  0.80
      L1  H     9    24       P1  8028  1.00
      P1  H  7989  7998       L1    16  0.96
      L1  C    15    32       P1  8028  0.97

> <Gold.PLP.Chemscore.Internal.Correction>
0.0508

> <Gold.Rescore>
     Score         DG    S(hbond)    S(metal)    S(lipo)     H(rot)  DE(clash)    DE(int)     intcor
     15.59     -17.02       2.30        0.00      83.92       2.32       0.66       0.77       ----

> <Gold.Chemscore.Fitness>
15.5893

> <Gold.Chemscore.DG>
-17.0230

> <Gold.Chemscore.ZeroCoef>
-5.4800

> <Gold.Chemscore.Hbond>
2.2964

> <Gold.Chemscore.Metal>
0.0000

> <Gold.Chemscore.Lipo>
83.9190

> <Gold.Chemscore.Internal_Hbond>
0.0000

> <Gold.Chemscore.DEClash>
0.6621

> <Gold.Chemscore.DEInternal>
0.7715

> <Gold.Chemscore.Rot>
2.3225

> <Gold.Chemscore.Internal.Correction>
   9.000000E+99

> <Gold.Chemscore.Hbonds>
donor molecule, donor type, donor heavy atom, donor atom, acceptor molecule, acceptor atom, score
      L1  H     1    17       P1  7957  0.77
      L1  H     9    24       P1  8028  0.94
      P1  H  7989  7998       L1    16  0.48

> <Gold.Chemscore.Hbond.Weighted>
-7.6701

> <Gold.Chemscore.Metal.Weighted>
-0.0000

> <Gold.Chemscore.Lipo.Weighted>
-9.8185

> <Gold.Chemscore.Internal_Hbond.Weighted>
0.0000

> <Gold.Chemscore.DEClash.Weighted>
0.6621

> <Gold.Chemscore.DEInternal.Weighted>
0.7715

> <Gold.Chemscore.Rot.Weighted>
5.9456

> <Gold.Chemscore.Internal.Correction.Weighted>
   9.000000E+99

> <Gold.Protein.RotatedTorsions>
[ 6907 6896 6895 6894 ] final  122.98 input  -60.11 | X-H torsion
[ 7974 7965 7964 7962 ] final  127.65 input  175.53 | X-H torsion
[ 8008 7997 7996 7995 ] final -116.67 input   59.86 | X-H torsion
[ 10167 10162 10161 10158 ] final  -11.96 input  -65.29 | X-H torsion
[ 10718 10713 10712 10709 ] final  -37.69 input   66.30 | X-H torsion
[ 10763 10752 10751 10750 ] final  -35.36 input  -60.55 | X-H torsion
[ 11005 11000 10999 10996 ] final  146.60 input  -57.11 | X-H torsion

> <Gold.Protein.ActiveResidues>
 VAL166  LYS551  ARG553  GLY616  TRP617  ASP618  TYR619  PRO620  LYS621  CYS622 
 ASP623  PHE694  ASN695  SER759  ASP760  ASP761  ALA762  ILE779  LEU786  VAL792 
 PHE793  MET794  SER795  GLU796  ALA797  LYS798  CYS799  TRP800  GLU811  SER814 

> <Gold.Protein.RotatedAtoms>
  152.4199  133.7100  159.6472 H   0  0  0  0  0  0  0  0  0  0  0  0  # atno 6907 bound_to 6896
  150.8075  133.8471  159.3204 H   0  0  0  0  0  0  0  0  0  0  0  0  # atno 6908 bound_to 6896
  151.6191  135.1035  160.0149 H   0  0  0  0  0  0  0  0  0  0  0  0  # atno 6909 bound_to 6896
  145.0483  139.3905  143.5067 H   0  0  0  0  0  0  0  0  0  0  0  0  # atno 7974 bound_to 7965
  155.0716  140.0393  157.2610 H   0  0  0  0  0  0  0  0  0  0  0  0  # atno 8008 bound_to 7997
  154.6978  140.2667  155.6724 H   0  0  0  0  0  0  0  0  0  0  0  0  # atno 8009 bound_to 7997
  156.2750  140.2746  156.1578 H   0  0  0  0  0  0  0  0  0  0  0  0  # atno 8010 bound_to 7997
  140.7150  143.5583  150.9223 H   0  0  0  0  0  0  0  0  0  0  0  0  # atno 10167 bound_to 10162
  156.3123  130.4254  149.8038 H   0  0  0  0  0  0  0  0  0  0  0  0  # atno 10718 bound_to 10713
  153.8619  135.6839  153.4782 H   0  0  0  0  0  0  0  0  0  0  0  0  # atno 10763 bound_to 10752
  153.1337  135.4687  154.9386 H   0  0  0  0  0  0  0  0  0  0  0  0  # atno 10764 bound_to 10752
  154.7754  135.3252  154.8051 H   0  0  0  0  0  0  0  0  0  0  0  0  # atno 10765 bound_to 10752
  140.0806  134.9099  157.1495 H   0  0  0  0  0  0  0  0  0  0  0  0  # atno 11005 bound_to 11000
  146.3516  140.0119  142.8666 LP  0  0  0  0  0  0  0  0  0  0  0  0  # atno 17320 bound_to 7965
  145.1560  140.9648  143.4405 LP  0  0  0  0  0  0  0  0  0  0  0  0  # atno 17321 bound_to 7965
  139.9308  143.6495  152.3076 LP  0  0  0  0  0  0  0  0  0  0  0  0  # atno 17342 bound_to 10162
  139.6945  144.7643  151.1380 LP  0  0  0  0  0  0  0  0  0  0  0  0  # atno 17343 bound_to 10162
  156.5377  130.8286  151.3258 LP  0  0  0  0  0  0  0  0  0  0  0  0  # atno 17370 bound_to 10713
  157.7394  130.9830  150.2310 LP  0  0  0  0  0  0  0  0  0  0  0  0  # atno 17371 bound_to 10713
  140.3493  134.2617  155.7201 LP  0  0  0  0  0  0  0  0  0  0  0  0  # atno 17394 bound_to 11000
  141.2045  133.7884  157.0282 LP  0  0  0  0  0  0  0  0  0  0  0  0  # atno 17395 bound_to 11000

$$$$
