AV-unprocessed.smi:109|AV-procd|sdf|1033|dock4
  -GOLD-   2262018 43D 1   1.00000     0.00000
 Structure written by MMmdl.
 58 61  0  0  0  0  0  0  0  0  1 V2000
  144.5144  140.5355  155.2147 O   0  0  0  0  0  0  0  0  0  0  0  0
  144.1858  139.1876  155.4721 C   0  0  0  0  0  0  0  0  0  0  0  0
  145.4031  138.4549  156.0621 C   0  0  0  0  0  0  0  0  0  0  0  0
  146.6950  138.5911  155.2189 C   0  0  2  0  0  0  0  0  0  0  0  0
  147.5786  137.4558  155.4950 N   0  0  0  0  0  0  0  0  0  0  0  0
  147.2264  136.1802  155.2181 C   0  0  0  0  0  0  0  0  0  0  0  0
  147.4959  135.1651  156.0792 N   0  0  0  0  0  0  0  0  0  0  0  0
  147.1383  133.9152  155.7729 C   0  0  0  0  0  0  0  0  0  0  0  0
  146.5145  133.4713  154.6801 N   0  0  0  0  0  0  0  0  0  0  0  0
  146.2410  134.4854  153.8092 C   0  0  0  0  0  0  0  0  0  0  0  0
  146.5614  135.8576  154.0072 C   0  0  0  0  0  0  0  0  0  0  0  0
  146.1312  136.6040  152.9186 N   0  0  0  0  0  0  0  0  0  0  0  0
  145.5859  135.7203  152.1269 C   0  0  0  0  0  0  0  0  0  0  0  0
  145.6067  134.4210  152.5834 N   0  0  0  0  0  0  0  0  0  0  0  0
  145.0560  133.2108  151.8891 C   0  0  1  0  0  0  0  0  0  0  0  0
  144.3378  133.6111  150.7584 O   0  0  0  0  0  0  0  0  0  0  0  0
  144.9076  133.0518  149.5748 C   0  0  2  0  0  0  0  0  0  0  0  0
  143.8011  132.8000  148.5403 C   0  0  0  0  0  0  0  0  0  0  0  0
  143.4457  134.0134  147.9131 O   0  0  0  0  0  0  0  0  0  0  0  0
  145.5748  131.7749  150.0884 C   0  0  1  0  0  0  0  0  0  0  0  0
  146.5607  131.2673  149.2089 O   0  0  0  0  0  0  0  0  0  0  0  0
  146.1429  132.2198  151.4288 C   0  0  1  0  0  0  0  0  0  0  0  0
  147.4331  132.8000  151.3149 O   0  0  0  0  0  0  0  0  0  0  0  0
  147.4671  139.9195  155.4664 C   0  0  0  0  0  0  0  0  0  0  0  0
  148.5139  140.2308  154.3666 C   0  0  0  0  0  0  0  0  0  0  0  0
  149.3086  141.5157  154.6529 C   0  0  0  0  0  0  0  0  0  0  0  0
  149.9914  141.4599  156.0243 C   0  0  0  0  0  0  0  0  0  0  0  0
  148.9605  141.1913  157.1263 C   0  0  0  0  0  0  0  0  0  0  0  0
  148.1738  139.9015  156.8468 C   0  0  0  0  0  0  0  0  0  0  0  0
  144.3627  132.7721  152.6078 H   0  0  0  0  0  0  0  0  0  0  0  0
  145.6704  133.7230  149.1768 H   0  0  0  0  0  0  0  0  0  0  0  0
  144.8178  131.0071  150.2569 H   0  0  0  0  0  0  0  0  0  0  0  0
  146.2039  131.3909  152.1345 H   0  0  0  0  0  0  0  0  0  0  0  0
  144.2075  140.7595  154.3493 H   0  0  0  0  0  0  0  0  0  0  0  0
  143.3379  139.1648  156.1564 H   0  0  0  0  0  0  0  0  0  0  0  0
  143.8693  138.7170  154.5410 H   0  0  0  0  0  0  0  0  0  0  0  0
  145.5631  138.8700  157.0556 H   0  0  0  0  0  0  0  0  0  0  0  0
  145.1659  137.3996  156.2039 H   0  0  0  0  0  0  0  0  0  0  0  0
  146.4010  138.6009  154.1697 H   0  0  0  0  0  0  0  0  0  0  0  0
  148.4582  137.6899  155.9329 H   0  0  0  0  0  0  0  0  0  0  0  0
  147.3876  133.1637  156.5075 H   0  0  0  0  0  0  0  0  0  0  0  0
  145.1467  135.9952  151.1790 H   0  0  0  0  0  0  0  0  0  0  0  0
  144.1568  132.1222  147.7639 H   0  0  0  0  0  0  0  0  0  0  0  0
  142.9265  132.3378  148.9992 H   0  0  0  0  0  0  0  0  0  0  0  0
  144.2225  134.3896  147.5277 H   0  0  0  0  0  0  0  0  0  0  0  0
  147.4043  131.3418  149.6282 H   0  0  0  0  0  0  0  0  0  0  0  0
  148.0081  132.1678  150.9098 H   0  0  0  0  0  0  0  0  0  0  0  0
  146.7425  140.7355  155.4714 H   0  0  0  0  0  0  0  0  0  0  0  0
  149.2029  139.3911  154.2659 H   0  0  0  0  0  0  0  0  0  0  0  0
  148.0338  140.3576  153.3977 H   0  0  0  0  0  0  0  0  0  0  0  0
  150.0553  141.6708  153.8736 H   0  0  0  0  0  0  0  0  0  0  0  0
  148.6389  142.3758  154.6130 H   0  0  0  0  0  0  0  0  0  0  0  0
  150.7480  140.6741  156.0276 H   0  0  0  0  0  0  0  0  0  0  0  0
  150.5139  142.3963  156.2209 H   0  0  0  0  0  0  0  0  0  0  0  0
  149.4609  141.1183  158.0924 H   0  0  0  0  0  0  0  0  0  0  0  0
  148.2707  142.0332  157.1978 H   0  0  0  0  0  0  0  0  0  0  0  0
  147.4502  139.7641  157.6503 H   0  0  0  0  0  0  0  0  0  0  0  0
  148.8507  139.0476  156.8990 H   0  0  0  0  0  0  0  0  0  0  0  0
  1  2  1  0  0  0  0
  1 34  1  0  0  0  0
  2  3  1  0  0  0  0
  2 35  1  0  0  0  0
  2 36  1  0  0  0  0
  3  4  1  0  0  0  0
  3 37  1  0  0  0  0
  3 38  1  0  0  0  0
  4  5  1  0  0  0  0
  4 24  1  0  0  0  0
  4 39  1  0  0  0  0
  5  6  1  0  0  0  0
  5 40  1  0  0  0  0
  6 11  1  0  0  0  0
  6  7  2  0  0  0  0
  7  8  1  0  0  0  0
  8  9  2  0  0  0  0
  8 41  1  0  0  0  0
  9 10  1  0  0  0  0
 10 14  1  0  0  0  0
 10 11  2  0  0  0  0
 11 12  1  0  0  0  0
 12 13  2  0  0  0  0
 13 14  1  0  0  0  0
 13 42  1  0  0  0  0
 14 15  1  0  0  0  0
 15 30  1  0  0  0  0
 15 22  1  0  0  0  0
 15 16  1  0  0  0  0
 16 17  1  0  0  0  0
 17 31  1  0  0  0  0
 17 18  1  0  0  0  0
 17 20  1  0  0  0  0
 18 19  1  0  0  0  0
 18 43  1  0  0  0  0
 18 44  1  0  0  0  0
 19 45  1  0  0  0  0
 20 32  1  0  0  0  0
 20 21  1  0  0  0  0
 20 22  1  0  0  0  0
 21 46  1  0  0  0  0
 22 33  1  0  0  0  0
 22 23  1  0  0  0  0
 23 47  1  0  0  0  0
 24 29  1  0  0  0  0
 24 25  1  0  0  0  0
 24 48  1  0  0  0  0
 25 26  1  0  0  0  0
 25 49  1  0  0  0  0
 25 50  1  0  0  0  0
 26 27  1  0  0  0  0
 26 51  1  0  0  0  0
 26 52  1  0  0  0  0
 27 28  1  0  0  0  0
 27 53  1  0  0  0  0
 27 54  1  0  0  0  0
 28 29  1  0  0  0  0
 28 55  1  0  0  0  0
 28 56  1  0  0  0  0
 29 57  1  0  0  0  0
 29 58  1  0  0  0  0
M  END
> <s_m_source_file>
AV-unprocessed.smi

> <i_m_source_file_index>
109

> <i_lp_mmshare_version>
43012

> <i_f3d_flags>
0

> <s_epik_input>
W0NIMl0xW0NIMl1bQ0gyXVtDSDJdW0NIMl1bQ0hdMVtDQEhdKFtDSDJdW0NIMl1bT0hdKVtOSF1jKG5bY0hdbjIpYyhjMjMpbltjSF1uM1tDQEBIXTRPW0NASF0oW0NIMl1bT0hdKVtDQEBIXShbT0hdKVtDQEhdNFtPSF0=

> <s_epik_cmdline>
J2VwaWtfcHl0aG9uJywgJy1waCcsICc3LjAnLCAnLXRuJywgJzgnLCAnLW1hJywgJzIwMCcsICctbWV0YWxfYmluZGluZycsICctaW1hZScsICc8aW5maWxlLm1hZT4nLCAnLW9tYWUnLCAnPG91dGZpbGUubWFlPic=

> <r_lp_tautomer_probability>
1

> <r_epik_Ionization_Penalty>
0.000793976

> <r_epik_Ionization_Penalty_Charging>
0

> <r_epik_Ionization_Penalty_Neutral>
0.000793976

> <r_epik_State_Penalty>
-0

> <r_epik_Charging_Adjusted_Penalty>
0

> <i_epik_Tot_Q>
0

> <i_epik_Tot_abs_Q>
0

> <r_epik_Metal_State_Penalty>
-0

> <b_epik_Metal_Only>
0

> <s_epik_Chemistry_Notes>
This compound contains an acetal/aminal-like group ( X-CH(R)-Y where X, Y are N, S, or O) that may be acid/base labile, releasing an aldehyde.

> <s_lp_Force_Field>
OPLS_2005

> <r_lp_Energy>
57.1061

> <b_lp_Chiralities_Consistent>
1

> <s_lp_Variant>
AV-unprocessed.smi:109-3

> <Gold.Version>
5.8.1

> <Gold.Id.Protein>
6NUR|6NUR_protein|mol2

> <Gold.PLP.Fitness>
47.5819

> <Gold.PLP.PLP>
-34.3590

> <Gold.PLP.part.hbond>
-7.0000

> <Gold.PLP.part.metal>
0.0000

> <Gold.PLP.part.buried>
-3.7635

> <Gold.PLP.part.nonpolar>
-25.0827

> <Gold.PLP.part.repulsive>
1.1351

> <Gold.PLP.ligand.clash>
0.0000

> <Gold.PLP.ligand.torsion>
1.0349

> <Gold.PLP.Chemscore.Hbond>
5.0000

> <Gold.PLP.Chemscore.CHOScore>
0.0000

> <Gold.PLP.Chemscore.Metal>
0.0000

> <Gold.Chemscore.Hbonds>
donor molecule, donor type, donor heavy atom, donor atom, acceptor molecule, acceptor atom, score
      L1  H     1    34       P1 10175  1.00
      L1  H    19    45       P1  7921  1.00
      L1  H    21    46       P1 10747  1.00
      L1  H    23    47       P1 10747  1.00
      P1  H 10192 10197       L1    19  1.00

> <Gold.PLP.Chemscore.Internal.Correction>
0.2927

> <Gold.Rescore>
     Score         DG    S(hbond)    S(metal)    S(lipo)     H(rot)  DE(clash)    DE(int)     intcor
     13.42     -15.35       4.68        0.00      70.50       5.47       0.34       1.59       ----

> <Gold.Chemscore.Fitness>
13.4211

> <Gold.Chemscore.DG>
-15.3541

> <Gold.Chemscore.ZeroCoef>
-5.4800

> <Gold.Chemscore.Hbond>
4.6764

> <Gold.Chemscore.Metal>
0.0000

> <Gold.Chemscore.Lipo>
70.4984

> <Gold.Chemscore.Internal_Hbond>
0.0000

> <Gold.Chemscore.DEClash>
0.3444

> <Gold.Chemscore.DEInternal>
1.5886

> <Gold.Chemscore.Rot>
5.4662

> <Gold.Chemscore.Internal.Correction>
   9.000000E+99

> <Gold.Chemscore.Hbonds>
donor molecule, donor type, donor heavy atom, donor atom, acceptor molecule, acceptor atom, score
      L1  H     1    34       P1 10175  0.97
      L1  H    19    45       P1  7921  0.96
      L1  H    21    46       P1 10747  0.99
      L1  H    23    47       P1 10747  1.00
      P1  H 10192 10197       L1    19  0.34

> <Gold.Chemscore.Hbond.Weighted>
-15.6193

> <Gold.Chemscore.Metal.Weighted>
-0.0000

> <Gold.Chemscore.Lipo.Weighted>
-8.2483

> <Gold.Chemscore.Internal_Hbond.Weighted>
0.0000

> <Gold.Chemscore.DEClash.Weighted>
0.3444

> <Gold.Chemscore.DEInternal.Weighted>
1.5886

> <Gold.Chemscore.Rot.Weighted>
13.9935

> <Gold.Chemscore.Internal.Correction.Weighted>
   9.000000E+99

> <Gold.Protein.RotatedTorsions>
[ 6907 6896 6895 6894 ] final  -82.57 input  -60.11 | X-H torsion
[ 7974 7965 7964 7962 ] final  -94.99 input  175.53 | X-H torsion
[ 8008 7997 7996 7995 ] final    0.94 input   59.86 | X-H torsion
[ 10167 10162 10161 10158 ] final -158.62 input  -65.29 | X-H torsion
[ 10718 10713 10712 10709 ] final  163.84 input   66.30 | X-H torsion
[ 10763 10752 10751 10750 ] final  125.67 input  -60.55 | X-H torsion
[ 11005 11000 10999 10996 ] final  -60.15 input  -57.11 | X-H torsion

> <Gold.Protein.ActiveResidues>
 VAL166  LYS551  ARG553  GLY616  TRP617  ASP618  TYR619  PRO620  LYS621  CYS622 
 ASP623  PHE694  ASN695  SER759  ASP760  ASP761  ALA762  ILE779  LEU786  VAL792 
 PHE793  MET794  SER795  GLU796  ALA797  LYS798  CYS799  TRP800  GLU811  SER814 

> <Gold.Protein.RotatedAtoms>
  150.6896  134.3645  159.4964 H   0  0  0  0  0  0  0  0  0  0  0  0  # atno 6907 bound_to 6896
  152.1469  134.9016  160.0559 H   0  0  0  0  0  0  0  0  0  0  0  0  # atno 6908 bound_to 6896
  152.0128  133.3833  159.4264 H   0  0  0  0  0  0  0  0  0  0  0  0  # atno 6909 bound_to 6896
  145.3659  140.9498  143.2474 H   0  0  0  0  0  0  0  0  0  0  0  0  # atno 7974 bound_to 7965
  154.6739  140.2618  155.6978 H   0  0  0  0  0  0  0  0  0  0  0  0  # atno 8008 bound_to 7997
  156.2670  140.2824  156.1181 H   0  0  0  0  0  0  0  0  0  0  0  0  # atno 8009 bound_to 7997
  155.1128  140.0376  157.2719 H   0  0  0  0  0  0  0  0  0  0  0  0  # atno 8010 bound_to 7997
  139.6678  143.9798  152.2265 H   0  0  0  0  0  0  0  0  0  0  0  0  # atno 10167 bound_to 10162
  157.1028  131.0447  151.2491 H   0  0  0  0  0  0  0  0  0  0  0  0  # atno 10718 bound_to 10713
  153.6810  135.3314  155.3178 H   0  0  0  0  0  0  0  0  0  0  0  0  # atno 10763 bound_to 10752
  154.8466  135.4409  154.1607 H   0  0  0  0  0  0  0  0  0  0  0  0  # atno 10764 bound_to 10752
  153.2623  135.6992  153.7643 H   0  0  0  0  0  0  0  0  0  0  0  0  # atno 10765 bound_to 10752
  141.1276  133.6620  156.5179 H   0  0  0  0  0  0  0  0  0  0  0  0  # atno 11005 bound_to 11000
  144.8612  139.5175  143.6811 LP  0  0  0  0  0  0  0  0  0  0  0  0  # atno 17320 bound_to 7965
  146.2907  139.7130  142.9163 LP  0  0  0  0  0  0  0  0  0  0  0  0  # atno 17321 bound_to 7965
  139.9555  144.6592  150.8130 LP  0  0  0  0  0  0  0  0  0  0  0  0  # atno 17342 bound_to 10162
  140.7606  143.3155  151.2743 LP  0  0  0  0  0  0  0  0  0  0  0  0  # atno 17343 bound_to 10162
  157.4626  130.7662  149.7250 LP  0  0  0  0  0  0  0  0  0  0  0  0  # atno 17370 bound_to 10713
  155.9869  130.3971  150.3188 LP  0  0  0  0  0  0  0  0  0  0  0  0  # atno 17371 bound_to 10713
  140.4316  134.7097  157.4945 LP  0  0  0  0  0  0  0  0  0  0  0  0  # atno 17394 bound_to 11000
  140.0290  134.6434  155.9133 LP  0  0  0  0  0  0  0  0  0  0  0  0  # atno 17395 bound_to 11000

$$$$
