AV-unprocessed.smi:2678|AV-procd|sdf|10369|dock7
  -GOLD-   2272014393D 1   1.00000     0.00000
 Structure written by MMmdl.
 46 47  0  0  0  0  0  0  0  0  1 V2000
  148.6353  129.8083  153.5540 C   0  0  0  0  0  0  0  0  0  0  0  0
  147.4225  129.3579  152.7292 C   0  0  0  0  0  0  0  0  0  0  0  0
  147.6857  128.0214  152.0173 C   0  0  0  0  0  0  0  0  0  0  0  0
  147.0823  130.3958  151.7603 N   0  0  0  0  0  0  0  0  0  0  0  0
  145.8421  130.6939  151.3410 C   0  0  0  0  0  0  0  0  0  0  0  0
  144.8419  130.0979  151.7407 O   0  0  0  0  0  0  0  0  0  0  0  0
  145.7252  131.8414  150.3197 C   0  0  1  0  0  0  0  0  0  0  0  0
  144.2616  132.1392  149.9182 C   0  0  0  0  0  0  0  0  0  0  0  0
  143.4847  132.9437  150.9764 C   0  0  0  0  0  0  0  0  0  0  0  0
  144.2301  134.2320  151.3554 C   0  0  0  0  0  0  0  0  0  0  0  0
  145.6523  133.9267  151.8566 C   0  0  2  0  0  0  0  0  0  0  0  0
  146.3376  135.1802  152.1786 N   0  0  0  0  0  0  0  0  0  0  0  0
  145.8932  136.2015  152.9341 C   0  0  0  0  0  0  0  0  0  0  0  0
  144.7758  136.1742  153.4448 O   0  0  0  0  0  0  0  0  0  0  0  0
  146.7637  137.2244  153.0438 N   0  0  0  0  0  0  0  0  0  0  0  0
  146.6180  138.4515  153.7441 C   0  0  0  0  0  0  0  0  0  0  0  0
  145.5839  138.7255  154.6716 C   0  0  0  0  0  0  0  0  0  0  0  0
  145.5629  139.9788  155.3137 C   0  0  0  0  0  0  0  0  0  0  0  0
  146.5778  140.9074  155.0110 C   0  0  0  0  0  0  0  0  0  0  0  0
  147.5765  140.6544  154.1390 N   0  0  0  0  0  0  0  0  0  0  0  0
  147.5910  139.4503  153.5283 C   0  0  0  0  0  0  0  0  0  0  0  0
  146.4418  133.1284  150.7915 C   0  0  0  0  0  0  0  0  0  0  0  0
  148.8933  129.0636  154.3078 H   0  0  0  0  0  0  0  0  0  0  0  0
  148.4321  130.7454  154.0735 H   0  0  0  0  0  0  0  0  0  0  0  0
  149.5119  129.9595  152.9230 H   0  0  0  0  0  0  0  0  0  0  0  0
  146.5845  129.2271  153.4165 H   0  0  0  0  0  0  0  0  0  0  0  0
  147.9368  127.2395  152.7345 H   0  0  0  0  0  0  0  0  0  0  0  0
  148.5131  128.1036  151.3118 H   0  0  0  0  0  0  0  0  0  0  0  0
  146.8082  127.6862  151.4634 H   0  0  0  0  0  0  0  0  0  0  0  0
  147.8496  130.9328  151.3828 H   0  0  0  0  0  0  0  0  0  0  0  0
  146.2391  131.5061  149.4170 H   0  0  0  0  0  0  0  0  0  0  0  0
  144.2637  132.7013  148.9835 H   0  0  0  0  0  0  0  0  0  0  0  0
  143.7320  131.2099  149.7029 H   0  0  0  0  0  0  0  0  0  0  0  0
  142.4939  133.1909  150.5944 H   0  0  0  0  0  0  0  0  0  0  0  0
  143.3206  132.3376  151.8674 H   0  0  0  0  0  0  0  0  0  0  0  0
  144.2749  134.8927  150.4883 H   0  0  0  0  0  0  0  0  0  0  0  0
  143.6694  134.7666  152.1231 H   0  0  0  0  0  0  0  0  0  0  0  0
  145.5566  133.3387  152.7697 H   0  0  0  0  0  0  0  0  0  0  0  0
  147.2526  135.2943  151.7670 H   0  0  0  0  0  0  0  0  0  0  0  0
  147.6148  137.1328  152.5081 H   0  0  0  0  0  0  0  0  0  0  0  0
  144.8206  138.0031  154.9135 H   0  0  0  0  0  0  0  0  0  0  0  0
  144.7879  140.2209  156.0257 H   0  0  0  0  0  0  0  0  0  0  0  0
  146.5905  141.8770  155.4864 H   0  0  0  0  0  0  0  0  0  0  0  0
  148.4058  139.2812  152.8390 H   0  0  0  0  0  0  0  0  0  0  0  0
  147.4346  132.8772  151.1672 H   0  0  0  0  0  0  0  0  0  0  0  0
  146.6106  133.7671  149.9233 H   0  0  0  0  0  0  0  0  0  0  0  0
  1  2  1  0  0  0  0
  1 23  1  0  0  0  0
  1 24  1  0  0  0  0
  1 25  1  0  0  0  0
  2  3  1  0  0  0  0
  2  4  1  0  0  0  0
  2 26  1  0  0  0  0
  3 27  1  0  0  0  0
  3 28  1  0  0  0  0
  3 29  1  0  0  0  0
  4  5  1  0  0  0  0
  4 30  1  0  0  0  0
  5  6  2  0  0  0  0
  5  7  1  0  0  0  0
  7 22  1  0  0  0  0
  7  8  1  0  0  0  0
  7 31  1  0  0  0  0
  8  9  1  0  0  0  0
  8 32  1  0  0  0  0
  8 33  1  0  0  0  0
  9 10  1  0  0  0  0
  9 34  1  0  0  0  0
  9 35  1  0  0  0  0
 10 11  1  0  0  0  0
 10 36  1  0  0  0  0
 10 37  1  0  0  0  0
 11 12  1  0  0  0  0
 11 22  1  0  0  0  0
 11 38  1  0  0  0  0
 12 13  1  0  0  0  0
 12 39  1  0  0  0  0
 13 14  2  0  0  0  0
 13 15  1  0  0  0  0
 15 16  1  0  0  0  0
 15 40  1  0  0  0  0
 16 21  1  0  0  0  0
 16 17  2  0  0  0  0
 17 18  1  0  0  0  0
 17 41  1  0  0  0  0
 18 19  2  0  0  0  0
 18 42  1  0  0  0  0
 19 20  1  0  0  0  0
 19 43  1  0  0  0  0
 20 21  2  0  0  0  0
 21 44  1  0  0  0  0
 22 45  1  0  0  0  0
 22 46  1  0  0  0  0
M  END
> <s_m_source_file>
AV-unprocessed.smi

> <i_m_source_file_index>
2678

> <i_lp_mmshare_version>
43012

> <i_f3d_flags>
0

> <s_epik_input>
W0NIM11bQ0hdKFtDSDNdKVtOSF1DKD1PKVtDQEBIXTFbQ0gyXVtDSDJdW0NIMl1bQ0BIXShbQ0gyXTEpW05IXUMoPU8pW05IXWMyW2NIXVtjSF1bY0hdbltjSF0y

> <s_epik_cmdline>
J2VwaWtfcHl0aG9uJywgJy1waCcsICc3LjAnLCAnLXRuJywgJzgnLCAnLW1hJywgJzIwMCcsICctbWV0YWxfYmluZGluZycsICctaW1hZScsICc8aW5maWxlLm1hZT4nLCAnLW9tYWUnLCAnPG91dGZpbGUubWFlPic=

> <r_epik_Ionization_Penalty>
0.00482944

> <r_epik_Ionization_Penalty_Charging>
0

> <r_epik_Ionization_Penalty_Neutral>
0.00482944

> <r_epik_State_Penalty>
0.00347168

> <r_epik_Charging_Adjusted_Penalty>
0.00347168

> <i_epik_Tot_Q>
0

> <i_epik_Tot_abs_Q>
0

> <r_epik_Metal_State_Penalty>
-0

> <b_epik_Metal_Only>
0

> <s_lp_Force_Field>
OPLS_2005

> <r_lp_Energy>
20.538

> <b_lp_Chiralities_Consistent>
1

> <s_lp_Variant>
AV-unprocessed.smi:2678-4

> <Gold.Version>
5.8.1

> <Gold.Id.Protein>
6NUR|6NUR_protein|mol2

> <Gold.PLP.Fitness>
43.1606

> <Gold.PLP.PLP>
-32.9650

> <Gold.PLP.part.hbond>
-2.5370

> <Gold.PLP.part.metal>
0.0000

> <Gold.PLP.part.buried>
-2.7874

> <Gold.PLP.part.nonpolar>
-28.2334

> <Gold.PLP.part.repulsive>
0.4571

> <Gold.PLP.ligand.clash>
0.0000

> <Gold.PLP.ligand.torsion>
0.5390

> <Gold.PLP.Chemscore.Hbond>
2.7392

> <Gold.PLP.Chemscore.CHOScore>
1.0000

> <Gold.PLP.Chemscore.Metal>
0.0000

> <Gold.Chemscore.Hbonds>
donor molecule, donor type, donor heavy atom, donor atom, acceptor molecule, acceptor atom, score
      L1  H     4    30       P1 10747  0.82
      L1  H    12    39       P1  7948  0.96
      L1  H    15    40       P1  7948  1.00
      L1  C    21    44       P1  7957  1.00

> <Gold.PLP.Chemscore.Internal.Correction>
0.0559

> <Gold.Rescore>
     Score         DG    S(hbond)    S(metal)    S(lipo)     H(rot)  DE(clash)    DE(int)     intcor
     17.45     -20.37       2.64        0.00      83.98       1.46       0.05       2.88       ----

> <Gold.Chemscore.Fitness>
17.4489

> <Gold.Chemscore.DG>
-20.3737

> <Gold.Chemscore.ZeroCoef>
-5.4800

> <Gold.Chemscore.Hbond>
2.6367

> <Gold.Chemscore.Metal>
0.0000

> <Gold.Chemscore.Lipo>
83.9781

> <Gold.Chemscore.Internal_Hbond>
0.0000

> <Gold.Chemscore.DEClash>
0.0481

> <Gold.Chemscore.DEInternal>
2.8767

> <Gold.Chemscore.Rot>
1.4603

> <Gold.Chemscore.Internal.Correction>
   9.000000E+99

> <Gold.Chemscore.Hbonds>
donor molecule, donor type, donor heavy atom, donor atom, acceptor molecule, acceptor atom, score
      L1  H     4    30       P1 10747  0.79
      L1  H    12    39       P1  7948  0.90
      L1  H    15    40       P1  7948  0.98

> <Gold.Chemscore.Hbond.Weighted>
-8.8066

> <Gold.Chemscore.Metal.Weighted>
-0.0000

> <Gold.Chemscore.Lipo.Weighted>
-9.8254

> <Gold.Chemscore.Internal_Hbond.Weighted>
0.0000

> <Gold.Chemscore.DEClash.Weighted>
0.0481

> <Gold.Chemscore.DEInternal.Weighted>
2.8767

> <Gold.Chemscore.Rot.Weighted>
3.7383

> <Gold.Chemscore.Internal.Correction.Weighted>
   9.000000E+99

> <Gold.Protein.RotatedTorsions>
[ 6907 6896 6895 6894 ] final  -15.83 input  -60.11 | X-H torsion
[ 7974 7965 7964 7962 ] final   15.58 input  175.53 | X-H torsion
[ 8008 7997 7996 7995 ] final -117.11 input   59.86 | X-H torsion
[ 10167 10162 10161 10158 ] final  112.42 input  -65.29 | X-H torsion
[ 10718 10713 10712 10709 ] final  165.88 input   66.30 | X-H torsion
[ 10763 10752 10751 10750 ] final  146.81 input  -60.55 | X-H torsion
[ 11005 11000 10999 10996 ] final -140.92 input  -57.11 | X-H torsion

> <Gold.Protein.ActiveResidues>
 VAL166  LYS551  ARG553  GLY616  TRP617  ASP618  TYR619  PRO620  LYS621  CYS622 
 ASP623  PHE694  ASN695  SER759  ASP760  ASP761  ALA762  ILE779  LEU786  VAL792 
 PHE793  MET794  SER795  GLU796  ALA797  LYS798  CYS799  TRP800  GLU811  SER814 

> <Gold.Protein.RotatedAtoms>
  151.3179  135.0811  159.9295 H   0  0  0  0  0  0  0  0  0  0  0  0  # atno 6907 bound_to 6896
  152.5263  133.9669  159.7754 H   0  0  0  0  0  0  0  0  0  0  0  0  # atno 6908 bound_to 6896
  150.9984  133.6028  159.2728 H   0  0  0  0  0  0  0  0  0  0  0  0  # atno 6909 bound_to 6896
  146.2274  139.8873  142.8560 H   0  0  0  0  0  0  0  0  0  0  0  0  # atno 7974 bound_to 7965
  155.0785  140.0394  157.2631 H   0  0  0  0  0  0  0  0  0  0  0  0  # atno 8008 bound_to 7997
  154.6926  140.2656  155.6773 H   0  0  0  0  0  0  0  0  0  0  0  0  # atno 8009 bound_to 7997
  156.2734  140.2756  156.1509 H   0  0  0  0  0  0  0  0  0  0  0  0  # atno 8010 bound_to 7997
  139.6537  144.7129  151.1998 H   0  0  0  0  0  0  0  0  0  0  0  0  # atno 10167 bound_to 10162
  157.0739  131.0373  151.2601 H   0  0  0  0  0  0  0  0  0  0  0  0  # atno 10718 bound_to 10713
  154.0281  135.2900  155.3372 H   0  0  0  0  0  0  0  0  0  0  0  0  # atno 10763 bound_to 10752
  154.7005  135.5190  153.8523 H   0  0  0  0  0  0  0  0  0  0  0  0  # atno 10764 bound_to 10752
  153.0652  135.6628  154.0496 H   0  0  0  0  0  0  0  0  0  0  0  0  # atno 10765 bound_to 10752
  140.8375  134.2442  157.4827 H   0  0  0  0  0  0  0  0  0  0  0  0  # atno 11005 bound_to 11000
  145.2453  141.0024  143.3912 LP  0  0  0  0  0  0  0  0  0  0  0  0  # atno 17320 bound_to 7965
  144.9419  139.4180  143.6445 LP  0  0  0  0  0  0  0  0  0  0  0  0  # atno 17321 bound_to 7965
  140.7549  143.6107  150.8608 LP  0  0  0  0  0  0  0  0  0  0  0  0  # atno 17342 bound_to 10162
  139.9758  143.6006  152.2959 LP  0  0  0  0  0  0  0  0  0  0  0  0  # atno 17343 bound_to 10162
  157.4856  130.7791  149.7456 LP  0  0  0  0  0  0  0  0  0  0  0  0  # atno 17370 bound_to 10713
  155.9942  130.3919  150.2867 LP  0  0  0  0  0  0  0  0  0  0  0  0  # atno 17371 bound_to 10713
  139.8704  134.9618  156.4408 LP  0  0  0  0  0  0  0  0  0  0  0  0  # atno 17394 bound_to 11000
  140.8931  133.7833  155.9595 LP  0  0  0  0  0  0  0  0  0  0  0  0  # atno 17395 bound_to 11000

$$$$
