AV-unprocessed.smi:1475|AV-procd|sdf|5979|dock8
  -GOLD-   22720 6 73D 1   1.00000     0.00000
 Structure written by MMmdl.
 50 51  0  0  0  0  0  0  0  0  2 V2000
  150.7935  142.3249  156.6044 C   0  0  0  0  0  0  0  0  0  0  0  0
  149.8998  141.5476  155.6834 C   0  0  0  0  0  0  0  0  0  0  0  0
  148.9157  142.0436  154.7833 C   0  0  0  0  0  0  0  0  0  0  0  0
  148.3989  140.9232  154.1963 C   0  0  0  0  0  0  0  0  0  0  0  0
  147.3284  140.7860  153.1637 C   0  0  0  0  0  0  0  0  0  0  0  0
  149.0638  139.8397  154.7442 N   0  0  0  0  0  0  0  0  0  0  0  0
  148.8911  138.4182  154.4733 C   0  0  0  0  0  0  0  0  0  0  0  0
  147.4152  138.0063  154.4161 C   0  0  0  0  0  0  0  0  0  0  0  0
  146.5839  138.6161  155.0876 O   0  0  0  0  0  0  0  0  0  0  0  0
  147.0976  136.9664  153.6296 N   0  0  0  0  0  0  0  0  0  0  0  0
  145.7486  136.4536  153.4422 C   0  0  0  0  0  0  0  0  0  0  0  0
  145.7671  134.9182  153.3766 C   0  0  0  0  0  0  0  0  0  0  0  0
  146.6477  134.4062  152.2923 N   0  3  1  0  0  0  0  0  0  0  0  0
  147.3986  133.1799  152.6695 C   0  0  0  0  0  0  0  0  0  0  0  0
  146.5011  131.9246  152.6688 C   0  0  2  0  0  0  0  0  0  0  0  0
  147.2930  130.6699  153.0632 C   0  0  0  0  0  0  0  0  0  0  0  0
  145.8324  131.7559  151.2931 C   0  0  0  0  0  0  0  0  0  0  0  0
  145.0627  133.0271  150.8936 C   0  0  2  0  0  0  0  0  0  0  0  0
  144.4318  132.8831  149.5016 C   0  0  0  0  0  0  0  0  0  0  0  0
  145.9897  134.2609  150.9646 C   0  0  0  0  0  0  0  0  0  0  0  0
  149.9823  140.2278  155.6560 N   0  0  0  0  0  0  0  0  0  0  0  0
  150.7843  143.3867  156.3581 H   0  0  0  0  0  0  0  0  0  0  0  0
  151.8258  141.9793  156.5392 H   0  0  0  0  0  0  0  0  0  0  0  0
  150.4719  142.2210  157.6407 H   0  0  0  0  0  0  0  0  0  0  0  0
  148.6325  143.0690  154.5962 H   0  0  0  0  0  0  0  0  0  0  0  0
  146.9140  141.7597  152.9014 H   0  0  0  0  0  0  0  0  0  0  0  0
  146.5123  140.1618  153.5280 H   0  0  0  0  0  0  0  0  0  0  0  0
  147.7224  140.3345  152.2532 H   0  0  0  0  0  0  0  0  0  0  0  0
  149.3730  138.1663  153.5287 H   0  0  0  0  0  0  0  0  0  0  0  0
  149.4040  137.8485  155.2498 H   0  0  0  0  0  0  0  0  0  0  0  0
  147.8402  136.5180  153.1127 H   0  0  0  0  0  0  0  0  0  0  0  0
  145.1321  136.8082  154.2680 H   0  0  0  0  0  0  0  0  0  0  0  0
  145.3248  136.8594  152.5219 H   0  0  0  0  0  0  0  0  0  0  0  0
  146.1362  134.5487  154.3346 H   0  0  0  0  0  0  0  0  0  0  0  0
  144.7553  134.5272  153.2719 H   0  0  0  0  0  0  0  0  0  0  0  0
  148.2140  133.0468  151.9568 H   0  0  0  0  0  0  0  0  0  0  0  0
  147.8709  133.3161  153.6433 H   0  0  0  0  0  0  0  0  0  0  0  0
  145.7167  132.0586  153.4150 H   0  0  0  0  0  0  0  0  0  0  0  0
  148.0939  130.4653  152.3519 H   0  0  0  0  0  0  0  0  0  0  0  0
  146.6466  129.7924  153.0973 H   0  0  0  0  0  0  0  0  0  0  0  0
  147.7443  130.7836  154.0492 H   0  0  0  0  0  0  0  0  0  0  0  0
  146.5905  131.5333  150.5405 H   0  0  0  0  0  0  0  0  0  0  0  0
  145.1545  130.9016  151.3111 H   0  0  0  0  0  0  0  0  0  0  0  0
  144.2438  133.1630  151.6000 H   0  0  0  0  0  0  0  0  0  0  0  0
  145.1923  132.7457  148.7321 H   0  0  0  0  0  0  0  0  0  0  0  0
  143.8504  133.7681  149.2412 H   0  0  0  0  0  0  0  0  0  0  0  0
  143.7601  132.0251  149.4619 H   0  0  0  0  0  0  0  0  0  0  0  0
  145.4411  135.1652  150.7047 H   0  0  0  0  0  0  0  0  0  0  0  0
  146.7742  134.1655  150.2127 H   0  0  0  0  0  0  0  0  0  0  0  0
  147.3516  135.1214  152.1760 H   0  0  0  0  0  0  0  0  0  0  0  0
  1  2  1  0  0  0  0
  1 22  1  0  0  0  0
  1 23  1  0  0  0  0
  1 24  1  0  0  0  0
  2 21  2  0  0  0  0
  2  3  1  0  0  0  0
  3  4  2  0  0  0  0
  3 25  1  0  0  0  0
  4  5  1  0  0  0  0
  4  6  1  0  0  0  0
  5 26  1  0  0  0  0
  5 27  1  0  0  0  0
  5 28  1  0  0  0  0
  6  7  1  0  0  0  0
  6 21  1  0  0  0  0
  7  8  1  0  0  0  0
  7 29  1  0  0  0  0
  7 30  1  0  0  0  0
  8  9  2  0  0  0  0
  8 10  1  0  0  0  0
 10 11  1  0  0  0  0
 10 31  1  0  0  0  0
 11 12  1  0  0  0  0
 11 32  1  0  0  0  0
 11 33  1  0  0  0  0
 12 13  1  0  0  0  0
 12 34  1  0  0  0  0
 12 35  1  0  0  0  0
 13 20  1  0  0  0  0
 13 14  1  0  0  0  0
 13 50  1  0  0  0  0
 14 15  1  0  0  0  0
 14 36  1  0  0  0  0
 14 37  1  0  0  0  0
 15 16  1  0  0  0  0
 15 17  1  0  0  0  0
 15 38  1  0  0  0  0
 16 39  1  0  0  0  0
 16 40  1  0  0  0  0
 16 41  1  0  0  0  0
 17 18  1  0  0  0  0
 17 42  1  0  0  0  0
 17 43  1  0  0  0  0
 18 19  1  0  0  0  0
 18 20  1  0  0  0  0
 18 44  1  0  0  0  0
 19 45  1  0  0  0  0
 19 46  1  0  0  0  0
 19 47  1  0  0  0  0
 20 48  1  0  0  0  0
 20 49  1  0  0  0  0
M  CHG  1  13   1
M  END
> <s_m_source_file>
AV-unprocessed.smi

> <i_m_source_file_index>
1475

> <i_lp_mmshare_version>
43012

> <i_f3d_flags>
0

> <s_epik_input>
W0NIM11jMVtjSF1jKFtDSDNdKW4objEpW0NIMl1DKD1PKVtOSF1bQ0gyXVtDSDJdTjJbQ0gyXVtDQEBIXShbQ0gzXSlbQ0gyXVtDQEBIXShbQ0gzXSlbQ0gyXTI=

> <s_epik_cmdline>
J2VwaWtfcHl0aG9uJywgJy1waCcsICc3LjAnLCAnLXRuJywgJzgnLCAnLW1hJywgJzIwMCcsICctbWV0YWxfYmluZGluZycsICctaW1hZScsICc8aW5maWxlLm1hZT4nLCAnLW9tYWUnLCAnPG91dGZpbGUubWFlPic=

> <r_lp_tautomer_probability>
1

> <r_epik_Ionization_Penalty>
0.00206431

> <r_epik_Ionization_Penalty_Charging>
0.00187095

> <r_epik_Ionization_Penalty_Neutral>
0.000193364

> <r_epik_State_Penalty>
-0

> <r_epik_Charging_Adjusted_Penalty>
0.00187095

> <i_epik_Tot_Q>
1

> <i_epik_Tot_abs_Q>
1

> <r_epik_Metal_State_Penalty>
-0

> <b_epik_Metal_Only>
0

> <s_lp_Force_Field>
OPLS_2005

> <r_lp_Energy>
18.0361

> <b_lp_Chiralities_Consistent>
1

> <s_lp_Variant>
AV-unprocessed.smi:1475-4

> <Gold.Version>
5.8.1

> <Gold.Id.Protein>
6NUR|6NUR_protein|mol2

> <Gold.PLP.Fitness>
41.1687

> <Gold.PLP.PLP>
-34.4149

> <Gold.PLP.part.hbond>
-2.0000

> <Gold.PLP.part.metal>
0.0000

> <Gold.PLP.part.buried>
-1.2470

> <Gold.PLP.part.nonpolar>
-30.8200

> <Gold.PLP.part.repulsive>
0.0990

> <Gold.PLP.ligand.clash>
0.0000

> <Gold.PLP.ligand.torsion>
1.1470

> <Gold.PLP.Chemscore.Hbond>
3.0000

> <Gold.PLP.Chemscore.CHOScore>
0.0000

> <Gold.PLP.Chemscore.Metal>
0.0000

> <Gold.Chemscore.Hbonds>
donor molecule, donor type, donor heavy atom, donor atom, acceptor molecule, acceptor atom, score
      L1  H    10    31       P1  7948  1.00
      L1  H    13    50       P1  7948  2.00

> <Gold.PLP.Chemscore.Internal.Correction>
0.0478

> <Gold.Rescore>
     Score         DG    S(hbond)    S(metal)    S(lipo)     H(rot)  DE(clash)    DE(int)     intcor
     16.71     -19.32       1.99        0.00      97.25       1.64       1.46       1.16       ----

> <Gold.Chemscore.Fitness>
16.7075

> <Gold.Chemscore.DG>
-19.3195

> <Gold.Chemscore.ZeroCoef>
-5.4800

> <Gold.Chemscore.Hbond>
1.9939

> <Gold.Chemscore.Metal>
0.0000

> <Gold.Chemscore.Lipo>
97.2492

> <Gold.Chemscore.Internal_Hbond>
0.0000

> <Gold.Chemscore.DEClash>
1.4559

> <Gold.Chemscore.DEInternal>
1.1561

> <Gold.Chemscore.Rot>
1.6399

> <Gold.Chemscore.Internal.Correction>
   9.000000E+99

> <Gold.Chemscore.Hbonds>
donor molecule, donor type, donor heavy atom, donor atom, acceptor molecule, acceptor atom, score
      L1  H    10    31       P1  7948  0.99
      L1  H    13    50       P1  7948  0.98

> <Gold.Chemscore.Hbond.Weighted>
-6.6595

> <Gold.Chemscore.Metal.Weighted>
-0.0000

> <Gold.Chemscore.Lipo.Weighted>
-11.3782

> <Gold.Chemscore.Internal_Hbond.Weighted>
0.0000

> <Gold.Chemscore.DEClash.Weighted>
1.4559

> <Gold.Chemscore.DEInternal.Weighted>
1.1561

> <Gold.Chemscore.Rot.Weighted>
4.1982

> <Gold.Chemscore.Internal.Correction.Weighted>
   9.000000E+99

> <Gold.Protein.RotatedTorsions>
[ 6907 6896 6895 6894 ] final -170.21 input  -60.11 | X-H torsion
[ 7974 7965 7964 7962 ] final  168.76 input  175.53 | X-H torsion
[ 8008 7997 7996 7995 ] final  111.20 input   59.86 | X-H torsion
[ 10167 10162 10161 10158 ] final  171.75 input  -65.29 | X-H torsion
[ 10718 10713 10712 10709 ] final    0.76 input   66.30 | X-H torsion
[ 10763 10752 10751 10750 ] final  -90.18 input  -60.55 | X-H torsion
[ 11005 11000 10999 10996 ] final   81.46 input  -57.11 | X-H torsion

> <Gold.Protein.ActiveResidues>
 VAL166  LYS551  ARG553  GLY616  TRP617  ASP618  TYR619  PRO620  LYS621  CYS622 
 ASP623  PHE694  ASN695  SER759  ASP760  ASP761  ALA762  ILE779  LEU786  VAL792 
 PHE793  MET794  SER795  GLU796  ALA797  LYS798  CYS799  TRP800  GLU811  SER814 

> <Gold.Protein.RotatedAtoms>
  151.5040  133.3498  159.2873 H   0  0  0  0  0  0  0  0  0  0  0  0  # atno 6907 bound_to 6896
  150.8755  134.8139  159.7197 H   0  0  0  0  0  0  0  0  0  0  0  0  # atno 6908 bound_to 6896
  152.4727  134.4930  159.9753 H   0  0  0  0  0  0  0  0  0  0  0  0  # atno 6909 bound_to 6896
  144.7378  139.8954  143.6406 H   0  0  0  0  0  0  0  0  0  0  0  0  # atno 7974 bound_to 7965
  156.2107  140.3024  155.9727 H   0  0  0  0  0  0  0  0  0  0  0  0  # atno 8008 bound_to 7997
  155.2730  140.0434  157.3026 H   0  0  0  0  0  0  0  0  0  0  0  0  # atno 8009 bound_to 7997
  154.5696  140.2344  155.8220 H   0  0  0  0  0  0  0  0  0  0  0  0  # atno 8010 bound_to 7997
  139.5056  144.3451  151.9979 H   0  0  0  0  0  0  0  0  0  0  0  0  # atno 10167 bound_to 10162
  156.8381  130.5511  149.5680 H   0  0  0  0  0  0  0  0  0  0  0  0  # atno 10718 bound_to 10713
  154.6631  135.5314  153.8043 H   0  0  0  0  0  0  0  0  0  0  0  0  # atno 10763 bound_to 10752
  153.0454  135.6510  154.0841 H   0  0  0  0  0  0  0  0  0  0  0  0  # atno 10764 bound_to 10752
  154.0748  135.2951  155.3281 H   0  0  0  0  0  0  0  0  0  0  0  0  # atno 10765 bound_to 10752
  139.9097  134.7998  156.2044 H   0  0  0  0  0  0  0  0  0  0  0  0  # atno 11005 bound_to 11000
  146.1111  139.4116  143.0287 LP  0  0  0  0  0  0  0  0  0  0  0  0  # atno 17320 bound_to 7965
  145.7442  140.9997  143.1285 LP  0  0  0  0  0  0  0  0  0  0  0  0  # atno 17321 bound_to 7965
  140.2888  144.3777  150.6095 LP  0  0  0  0  0  0  0  0  0  0  0  0  # atno 17342 bound_to 10162
  140.5962  143.2167  151.7159 LP  0  0  0  0  0  0  0  0  0  0  0  0  # atno 17343 bound_to 10162
  156.0896  130.5885  150.9709 LP  0  0  0  0  0  0  0  0  0  0  0  0  # atno 17370 bound_to 10713
  157.6370  131.0915  150.8328 LP  0  0  0  0  0  0  0  0  0  0  0  0  # atno 17371 bound_to 10713
  141.0504  133.6891  156.1762 LP  0  0  0  0  0  0  0  0  0  0  0  0  # atno 17394 bound_to 11000
  140.6819  134.4758  157.5589 LP  0  0  0  0  0  0  0  0  0  0  0  0  # atno 17395 bound_to 11000

$$$$
