AV-unprocessed.smi:1127|AV-procd|sdf|4840|dock9
  -GOLD-   22720 3403D 1   1.00000     0.00000
 Structure written by MMmdl.
 42 43  0  0  0  0  0  0  0  0  1 V2000
  146.4278  138.7911  151.8222 C   0  0  0  0  0  0  0  0  0  0  0  0
  147.2727  138.3855  153.4227 S   0  0  2  0  0  0  0  0  0  0  0  0
  146.2435  137.6852  154.3118 O   0  0  0  0  0  0  0  0  0  0  0  0
  147.2942  140.1098  154.0286 C   0  0  0  0  0  0  0  0  0  0  0  0
  146.6123  141.1075  153.4580 N   0  0  0  0  0  0  0  0  0  0  0  0
  146.9165  142.2244  154.2126 N   0  0  0  0  0  0  0  0  0  0  0  0
  147.7464  141.7792  155.1583 C   0  0  0  0  0  0  0  0  0  0  0  0
  148.0223  140.4665  155.1036 N   0  0  0  0  0  0  0  0  0  0  0  0
  148.8819  139.6823  155.9725 C   0  0  0  0  0  0  0  0  0  0  0  0
  150.2247  140.3805  156.1837 C   0  0  0  0  0  0  0  0  0  0  0  0
  151.0588  140.3969  155.2792 O   0  0  0  0  0  0  0  0  0  0  0  0
  150.4223  140.9379  157.3882 N   0  0  0  0  0  0  0  0  0  0  0  0
  151.6329  141.6299  157.8251 C   0  0  0  0  0  0  0  0  0  0  0  0
  152.0896  141.0471  159.1824 C   0  0  0  0  0  0  0  0  0  0  0  0
  153.4176  141.5723  159.7607 C   0  0  0  0  0  0  0  0  0  0  0  0
  153.4635  143.0437  160.2205 C   0  0  0  0  0  0  0  0  0  0  0  0
  152.2086  143.5614  160.9529 C   0  0  0  0  0  0  0  0  0  0  0  0
  151.2594  144.4098  160.0819 C   0  0  0  0  0  0  0  0  0  0  0  0
  150.4801  143.6680  158.9780 C   0  0  0  0  0  0  0  0  0  0  0  0
  151.3516  143.1482  157.8149 C   0  0  0  0  0  0  0  0  0  0  0  0
  146.7152  139.7814  151.4683 H   0  0  0  0  0  0  0  0  0  0  0  0
  145.3456  138.7691  151.9507 H   0  0  0  0  0  0  0  0  0  0  0  0
  146.6998  138.0615  151.0598 H   0  0  0  0  0  0  0  0  0  0  0  0
  148.1662  142.4303  155.9110 H   0  0  0  0  0  0  0  0  0  0  0  0
  148.3842  139.5483  156.9339 H   0  0  0  0  0  0  0  0  0  0  0  0
  149.0205  138.6887  155.5443 H   0  0  0  0  0  0  0  0  0  0  0  0
  149.6742  140.8739  158.0630 H   0  0  0  0  0  0  0  0  0  0  0  0
  152.4157  141.4425  157.0878 H   0  0  0  0  0  0  0  0  0  0  0  0
  151.2975  141.1434  159.9222 H   0  0  0  0  0  0  0  0  0  0  0  0
  152.2112  139.9703  159.0594 H   0  0  0  0  0  0  0  0  0  0  0  0
  153.6559  140.9518  160.6253 H   0  0  0  0  0  0  0  0  0  0  0  0
  154.2225  141.3944  159.0469 H   0  0  0  0  0  0  0  0  0  0  0  0
  154.3138  143.1371  160.8973 H   0  0  0  0  0  0  0  0  0  0  0  0
  153.7161  143.6999  159.3892 H   0  0  0  0  0  0  0  0  0  0  0  0
  151.6716  142.7527  161.4484 H   0  0  0  0  0  0  0  0  0  0  0  0
  152.5491  144.2061  161.7639 H   0  0  0  0  0  0  0  0  0  0  0  0
  150.5288  144.8737  160.7456 H   0  0  0  0  0  0  0  0  0  0  0  0
  151.8140  145.2387  159.6407 H   0  0  0  0  0  0  0  0  0  0  0  0
  149.8675  142.8736  159.4038 H   0  0  0  0  0  0  0  0  0  0  0  0
  149.7656  144.3785  158.5610 H   0  0  0  0  0  0  0  0  0  0  0  0
  152.2825  143.7086  157.7551 H   0  0  0  0  0  0  0  0  0  0  0  0
  150.8482  143.3888  156.8770 H   0  0  0  0  0  0  0  0  0  0  0  0
  1  2  1  0  0  0  0
  1 21  1  0  0  0  0
  1 22  1  0  0  0  0
  1 23  1  0  0  0  0
  2  3  2  0  0  0  0
  2  4  1  0  0  0  0
  4  8  1  0  0  0  0
  4  5  2  0  0  0  0
  5  6  1  0  0  0  0
  6  7  2  0  0  0  0
  7  8  1  0  0  0  0
  7 24  1  0  0  0  0
  8  9  1  0  0  0  0
  9 10  1  0  0  0  0
  9 25  1  0  0  0  0
  9 26  1  0  0  0  0
 10 11  2  0  0  0  0
 10 12  1  0  0  0  0
 12 13  1  0  0  0  0
 12 27  1  0  0  0  0
 13 20  1  0  0  0  0
 13 14  1  0  0  0  0
 13 28  1  0  0  0  0
 14 15  1  0  0  0  0
 14 29  1  0  0  0  0
 14 30  1  0  0  0  0
 15 16  1  0  0  0  0
 15 31  1  0  0  0  0
 15 32  1  0  0  0  0
 16 17  1  0  0  0  0
 16 33  1  0  0  0  0
 16 34  1  0  0  0  0
 17 18  1  0  0  0  0
 17 35  1  0  0  0  0
 17 36  1  0  0  0  0
 18 19  1  0  0  0  0
 18 37  1  0  0  0  0
 18 38  1  0  0  0  0
 19 20  1  0  0  0  0
 19 39  1  0  0  0  0
 19 40  1  0  0  0  0
 20 41  1  0  0  0  0
 20 42  1  0  0  0  0
M  END
> <s_m_source_file>
AV-unprocessed.smi

> <i_m_source_file_index>
1127

> <i_lp_mmshare_version>
43012

> <i_f3d_flags>
0

> <s_epik_input>
W0NIM11bU0BdKD1PKWMxbm5bY0hdbjFbQ0gyXUMoPU8pW05IXVtDSF0yW0NIMl1bQ0gyXVtDSDJdW0NIMl1bQ0gyXVtDSDJdW0NIMl0y

> <s_epik_cmdline>
J2VwaWtfcHl0aG9uJywgJy1waCcsICc3LjAnLCAnLXRuJywgJzgnLCAnLW1hJywgJzIwMCcsICctbWV0YWxfYmluZGluZycsICctaW1hZScsICc8aW5maWxlLm1hZT4nLCAnLW9tYWUnLCAnPG91dGZpbGUubWFlPic=

> <r_lp_tautomer_probability>
1

> <r_epik_Ionization_Penalty>
7.34999e-08

> <r_epik_Ionization_Penalty_Charging>
0

> <r_epik_Ionization_Penalty_Neutral>
7.34999e-08

> <r_epik_State_Penalty>
-0

> <r_epik_Charging_Adjusted_Penalty>
0

> <i_epik_Tot_Q>
0

> <i_epik_Tot_abs_Q>
0

> <r_epik_Metal_State_Penalty>
-0

> <b_epik_Metal_Only>
0

> <s_lp_Force_Field>
OPLS_2005

> <r_lp_Energy>
17.7529

> <b_lp_Chiralities_Consistent>
1

> <s_lp_Variant>
AV-unprocessed.smi:1127-1

> <Gold.Version>
5.8.1

> <Gold.Id.Protein>
6NUR|6NUR_protein|mol2

> <Gold.PLP.Fitness>
38.9464

> <Gold.PLP.PLP>
-34.3108

> <Gold.PLP.part.hbond>
-1.0000

> <Gold.PLP.part.metal>
0.0000

> <Gold.PLP.part.buried>
-3.2552

> <Gold.PLP.part.nonpolar>
-30.5785

> <Gold.PLP.part.repulsive>
0.5417

> <Gold.PLP.ligand.clash>
0.0000

> <Gold.PLP.ligand.torsion>
1.2021

> <Gold.PLP.Chemscore.Hbond>
1.0000

> <Gold.PLP.Chemscore.CHOScore>
1.0000

> <Gold.PLP.Chemscore.Metal>
0.0000

> <Gold.Chemscore.Hbonds>
donor molecule, donor type, donor heavy atom, donor atom, acceptor molecule, acceptor atom, score
      P1  H  7989  7998       L1    11  1.00
      L1  C     7    24       P1  8028  0.95

> <Gold.PLP.Chemscore.Internal.Correction>
1.0397

> <Gold.Rescore>
     Score         DG    S(hbond)    S(metal)    S(lipo)     H(rot)  DE(clash)    DE(int)     intcor
     13.82     -14.92       0.96        0.00      90.72       1.70       0.08       1.02       ----

> <Gold.Chemscore.Fitness>
13.8211

> <Gold.Chemscore.DG>
-14.9248

> <Gold.Chemscore.ZeroCoef>
-5.4800

> <Gold.Chemscore.Hbond>
0.9560

> <Gold.Chemscore.Metal>
0.0000

> <Gold.Chemscore.Lipo>
90.7247

> <Gold.Chemscore.Internal_Hbond>
0.0000

> <Gold.Chemscore.DEClash>
0.0839

> <Gold.Chemscore.DEInternal>
1.0198

> <Gold.Chemscore.Rot>
1.7044

> <Gold.Chemscore.Internal.Correction>
   9.000000E+99

> <Gold.Chemscore.Hbonds>
donor molecule, donor type, donor heavy atom, donor atom, acceptor molecule, acceptor atom, score
      P1  H  7989  7998       L1    11  0.95

> <Gold.Chemscore.Hbond.Weighted>
-3.1932

> <Gold.Chemscore.Metal.Weighted>
-0.0000

> <Gold.Chemscore.Lipo.Weighted>
-10.6148

> <Gold.Chemscore.Internal_Hbond.Weighted>
0.0000

> <Gold.Chemscore.DEClash.Weighted>
0.0839

> <Gold.Chemscore.DEInternal.Weighted>
1.0198

> <Gold.Chemscore.Rot.Weighted>
4.3631

> <Gold.Chemscore.Internal.Correction.Weighted>
   9.000000E+99

> <Gold.Protein.RotatedTorsions>
[ 6907 6896 6895 6894 ] final   59.32 input  -60.11 | X-H torsion
[ 7974 7965 7964 7962 ] final -140.59 input  175.53 | X-H torsion
[ 8008 7997 7996 7995 ] final  -32.14 input   59.86 | X-H torsion
[ 10167 10162 10161 10158 ] final -120.17 input  -65.29 | X-H torsion
[ 10718 10713 10712 10709 ] final  -79.38 input   66.30 | X-H torsion
[ 10763 10752 10751 10750 ] final   80.30 input  -60.55 | X-H torsion
[ 11005 11000 10999 10996 ] final -119.83 input  -57.11 | X-H torsion

> <Gold.Protein.ActiveResidues>
 VAL166  LYS551  ARG553  GLY616  TRP617  ASP618  TYR619  PRO620  LYS621  CYS622 
 ASP623  PHE694  ASN695  SER759  ASP760  ASP761  ALA762  ILE779  LEU786  VAL792 
 PHE793  MET794  SER795  GLU796  ALA797  LYS798  CYS799  TRP800  GLU811  SER814 

> <Gold.Protein.RotatedAtoms>
  152.3904  134.6450  160.0109 H   0  0  0  0  0  0  0  0  0  0  0  0  # atno 6907 bound_to 6896
  151.6686  133.3309  159.3199 H   0  0  0  0  0  0  0  0  0  0  0  0  # atno 6908 bound_to 6896
  150.7821  134.6819  159.6493 H   0  0  0  0  0  0  0  0  0  0  0  0  # atno 6909 bound_to 6896
  144.8585  140.6182  143.5343 H   0  0  0  0  0  0  0  0  0  0  0  0  # atno 7974 bound_to 7965
  154.4190  140.1745  156.1680 H   0  0  0  0  0  0  0  0  0  0  0  0  # atno 8008 bound_to 7997
  155.9784  140.3379  155.6616 H   0  0  0  0  0  0  0  0  0  0  0  0  # atno 8009 bound_to 7997
  155.6533  140.0693  157.2570 H   0  0  0  0  0  0  0  0  0  0  0  0  # atno 8010 bound_to 7997
  140.0387  143.5175  152.2141 H   0  0  0  0  0  0  0  0  0  0  0  0  # atno 10167 bound_to 10162
  156.0094  130.4544  150.3639 H   0  0  0  0  0  0  0  0  0  0  0  0  # atno 10718 bound_to 10713
  153.1022  135.4807  154.8888 H   0  0  0  0  0  0  0  0  0  0  0  0  # atno 10763 bound_to 10752
  154.7392  135.3078  154.8761 H   0  0  0  0  0  0  0  0  0  0  0  0  # atno 10764 bound_to 10752
  153.9374  135.6838  153.4798 H   0  0  0  0  0  0  0  0  0  0  0  0  # atno 10765 bound_to 10752
  141.0187  134.0156  157.3313 H   0  0  0  0  0  0  0  0  0  0  0  0  # atno 11005 bound_to 11000
  145.4358  139.1542  143.3997 LP  0  0  0  0  0  0  0  0  0  0  0  0  # atno 17320 bound_to 7965
  146.2842  140.4476  142.8764 LP  0  0  0  0  0  0  0  0  0  0  0  0  # atno 17321 bound_to 7965
  139.6028  144.7587  151.3132 LP  0  0  0  0  0  0  0  0  0  0  0  0  # atno 17342 bound_to 10162
  140.7270  143.6976  150.7871 LP  0  0  0  0  0  0  0  0  0  0  0  0  # atno 17343 bound_to 10162
  157.1726  131.0372  151.2788 LP  0  0  0  0  0  0  0  0  0  0  0  0  # atno 17370 bound_to 10713
  157.4215  130.7440  149.6917 LP  0  0  0  0  0  0  0  0  0  0  0  0  # atno 17371 bound_to 10713
  139.9133  135.0193  156.7780 LP  0  0  0  0  0  0  0  0  0  0  0  0  # atno 17394 bound_to 11000
  140.6610  133.9645  155.7805 LP  0  0  0  0  0  0  0  0  0  0  0  0  # atno 17395 bound_to 11000

$$$$
