AV-unprocessed.smi:3117|AV-procd|sdf|11879|dock1
  -GOLD-   2272017263D 1   1.00000     0.00000
 Structure written by MMmdl.
 37 37  0  0  0  0  0  0  0  0  2 V2000
  151.6854  140.6983  156.0755 C   0  0  0  0  0  0  0  0  0  0  0  0
  151.0623  142.0404  156.5005 C   0  0  1  0  0  0  0  0  0  0  0  0
  149.9001  142.3229  155.6285 N   0  3  0  0  0  0  0  0  0  0  0  0
  148.8655  141.2656  155.6072 C   0  0  0  0  0  0  0  0  0  0  0  0
  148.3049  141.0219  154.1899 C   0  0  0  0  0  0  0  0  0  0  0  0
  147.7096  139.6075  154.0891 C   0  0  0  0  0  0  0  0  0  0  0  0
  147.2548  142.0726  153.7844 C   0  0  0  0  0  0  0  0  0  0  0  0
  149.3796  141.0805  153.2720 O   0  0  0  0  0  0  0  0  0  0  0  0
  150.6428  142.0671  157.9953 C   0  0  2  0  0  0  0  0  0  0  0  0
  149.7613  143.2798  158.3522 C   0  0  0  0  0  0  0  0  0  0  0  0
  151.7962  142.0118  158.8853 N   0  0  0  0  0  0  0  0  0  0  0  0
  152.2000  142.9414  159.8219 C   0  0  0  0  0  0  0  0  0  0  0  0
  153.3316  142.4593  160.4151 C   0  0  0  0  0  0  0  0  0  0  0  0
  153.5498  141.2130  159.7647 C   0  0  0  0  0  0  0  0  0  0  0  0
  152.6304  140.9479  158.8510 N   0  0  0  0  0  0  0  0  0  0  0  0
  152.6072  140.4882  156.6182 H   0  0  0  0  0  0  0  0  0  0  0  0
  151.9360  140.7029  155.0141 H   0  0  0  0  0  0  0  0  0  0  0  0
  150.9994  139.8690  156.2510 H   0  0  0  0  0  0  0  0  0  0  0  0
  151.8210  142.8085  156.3386 H   0  0  0  0  0  0  0  0  0  0  0  0
  149.4649  143.1778  155.9439 H   0  0  0  0  0  0  0  0  0  0  0  0
  149.2912  140.3419  156.0017 H   0  0  0  0  0  0  0  0  0  0  0  0
  148.0578  141.5529  156.2822 H   0  0  0  0  0  0  0  0  0  0  0  0
  146.8679  139.4845  154.7716 H   0  0  0  0  0  0  0  0  0  0  0  0
  148.4480  138.8443  154.3381 H   0  0  0  0  0  0  0  0  0  0  0  0
  147.3473  139.3974  153.0819 H   0  0  0  0  0  0  0  0  0  0  0  0
  146.4107  142.0709  154.4748 H   0  0  0  0  0  0  0  0  0  0  0  0
  146.8612  141.8742  152.7866 H   0  0  0  0  0  0  0  0  0  0  0  0
  147.6698  143.0808  153.7737 H   0  0  0  0  0  0  0  0  0  0  0  0
  149.2438  140.4237  152.6056 H   0  0  0  0  0  0  0  0  0  0  0  0
  150.0555  141.1687  158.1932 H   0  0  0  0  0  0  0  0  0  0  0  0
  148.8176  143.2647  157.8067 H   0  0  0  0  0  0  0  0  0  0  0  0
  150.2624  144.2207  158.1230 H   0  0  0  0  0  0  0  0  0  0  0  0
  149.5170  143.2854  159.4149 H   0  0  0  0  0  0  0  0  0  0  0  0
  151.6546  143.8586  159.9886 H   0  0  0  0  0  0  0  0  0  0  0  0
  153.9160  142.9262  161.1942 H   0  0  0  0  0  0  0  0  0  0  0  0
  154.3425  140.4978  159.9280 H   0  0  0  0  0  0  0  0  0  0  0  0
  150.2327  142.4637  154.6850 H   0  0  0  0  0  0  0  0  0  0  0  0
  1  2  1  0  0  0  0
  1 16  1  0  0  0  0
  1 17  1  0  0  0  0
  1 18  1  0  0  0  0
  2  3  1  0  0  0  0
  2  9  1  0  0  0  0
  2 19  1  0  0  0  0
  3  4  1  0  0  0  0
  3 20  1  0  0  0  0
  3 37  1  0  0  0  0
  4  5  1  0  0  0  0
  4 21  1  0  0  0  0
  4 22  1  0  0  0  0
  5  6  1  0  0  0  0
  5  7  1  0  0  0  0
  5  8  1  0  0  0  0
  6 23  1  0  0  0  0
  6 24  1  0  0  0  0
  6 25  1  0  0  0  0
  7 26  1  0  0  0  0
  7 27  1  0  0  0  0
  7 28  1  0  0  0  0
  8 29  1  0  0  0  0
  9 10  1  0  0  0  0
  9 11  1  0  0  0  0
  9 30  1  0  0  0  0
 10 31  1  0  0  0  0
 10 32  1  0  0  0  0
 10 33  1  0  0  0  0
 11 15  1  0  0  0  0
 11 12  1  0  0  0  0
 12 13  2  0  0  0  0
 12 34  1  0  0  0  0
 13 14  1  0  0  0  0
 13 35  1  0  0  0  0
 14 15  2  0  0  0  0
 14 36  1  0  0  0  0
M  CHG  1   3   1
M  END
> <s_m_source_file>
AV-unprocessed.smi

> <i_m_source_file_index>
3117

> <i_lp_mmshare_version>
43012

> <i_f3d_flags>
0

> <s_epik_input>
W0NIM11DKFtDSDNdKShbT0hdKVtDSDJdW05IXVtDQEBIXShbQ0gzXSlbQ0BIXShbQ0gzXSluMVtjSF1bY0hdW2NIXW4x

> <s_epik_cmdline>
J2VwaWtfcHl0aG9uJywgJy1waCcsICc3LjAnLCAnLXRuJywgJzgnLCAnLW1hJywgJzIwMCcsICctbWV0YWxfYmluZGluZycsICctaW1hZScsICc8aW5maWxlLm1hZT4nLCAnLW9tYWUnLCAnPG91dGZpbGUubWFlPic=

> <r_lp_tautomer_probability>
1

> <r_epik_Ionization_Penalty>
0.0164263

> <r_epik_Ionization_Penalty_Charging>
0.0164138

> <r_epik_Ionization_Penalty_Neutral>
1.24697e-05

> <r_epik_State_Penalty>
0.0129543

> <r_epik_Charging_Adjusted_Penalty>
0.0293681

> <i_epik_Tot_Q>
1

> <i_epik_Tot_abs_Q>
1

> <r_epik_Metal_State_Penalty>
0.0129806

> <b_epik_Metal_Only>
0

> <s_lp_Force_Field>
OPLS_2005

> <r_lp_Energy>
13.915

> <b_lp_Chiralities_Consistent>
1

> <s_lp_Variant>
AV-unprocessed.smi:3117-2

> <Gold.Version>
5.8.1

> <Gold.Id.Protein>
6NUR|6NUR_protein|mol2

> <Gold.PLP.Fitness>
44.7365

> <Gold.PLP.PLP>
-34.5557

> <Gold.PLP.part.hbond>
-3.5531

> <Gold.PLP.part.metal>
0.0000

> <Gold.PLP.part.buried>
-5.4602

> <Gold.PLP.part.nonpolar>
-24.9414

> <Gold.PLP.part.repulsive>
0.1683

> <Gold.PLP.ligand.clash>
0.0000

> <Gold.PLP.ligand.torsion>
0.7885

> <Gold.PLP.Chemscore.Hbond>
3.8863

> <Gold.PLP.Chemscore.CHOScore>
0.0000

> <Gold.PLP.Chemscore.Metal>
0.0000

> <Gold.Chemscore.Hbonds>
donor molecule, donor type, donor heavy atom, donor atom, acceptor molecule, acceptor atom, score
      L1  H     3    20       P1  8028  2.00
      L1  H     8    29       P1  7957  0.85
      P1  H  7989  7998       L1     8  0.07
      P1  H  8011  8017       L1     8  1.00

> <Gold.PLP.Chemscore.Internal.Correction>
0.0989

> <Gold.Rescore>
     Score         DG    S(hbond)    S(metal)    S(lipo)     H(rot)  DE(clash)    DE(int)     intcor
     15.13     -16.31       2.07        0.00      83.09       2.27       0.02       1.16       ----

> <Gold.Chemscore.Fitness>
15.1308

> <Gold.Chemscore.DG>
-16.3119

> <Gold.Chemscore.ZeroCoef>
-5.4800

> <Gold.Chemscore.Hbond>
2.0743

> <Gold.Chemscore.Metal>
0.0000

> <Gold.Chemscore.Lipo>
83.0877

> <Gold.Chemscore.Internal_Hbond>
0.0000

> <Gold.Chemscore.DEClash>
0.0162

> <Gold.Chemscore.DEInternal>
1.1649

> <Gold.Chemscore.Rot>
2.2725

> <Gold.Chemscore.Internal.Correction>
   9.000000E+99

> <Gold.Chemscore.Hbonds>
donor molecule, donor type, donor heavy atom, donor atom, acceptor molecule, acceptor atom, score
      L1  H     3    20       P1  8028  0.95
      L1  H     8    29       P1  7957  0.79
      P1  H  7989  7998       L1     8  0.02
      P1  H  8011  8017       L1     8  0.30

> <Gold.Chemscore.Hbond.Weighted>
-6.9283

> <Gold.Chemscore.Metal.Weighted>
-0.0000

> <Gold.Chemscore.Lipo.Weighted>
-9.7213

> <Gold.Chemscore.Internal_Hbond.Weighted>
0.0000

> <Gold.Chemscore.DEClash.Weighted>
0.0162

> <Gold.Chemscore.DEInternal.Weighted>
1.1649

> <Gold.Chemscore.Rot.Weighted>
5.8176

> <Gold.Chemscore.Internal.Correction.Weighted>
   9.000000E+99

> <Gold.Protein.RotatedTorsions>
[ 6907 6896 6895 6894 ] final  103.67 input  -60.11 | X-H torsion
[ 7974 7965 7964 7962 ] final  -59.29 input  175.53 | X-H torsion
[ 8008 7997 7996 7995 ] final -122.04 input   59.86 | X-H torsion
[ 10167 10162 10161 10158 ] final  171.21 input  -65.29 | X-H torsion
[ 10718 10713 10712 10709 ] final   -5.60 input   66.30 | X-H torsion
[ 10763 10752 10751 10750 ] final  -29.51 input  -60.55 | X-H torsion
[ 11005 11000 10999 10996 ] final   95.59 input  -57.11 | X-H torsion

> <Gold.Protein.ActiveResidues>
 VAL166  LYS551  ARG553  GLY616  TRP617  ASP618  TYR619  PRO620  LYS621  CYS622 
 ASP623  PHE694  ASN695  SER759  ASP760  ASP761  ALA762  ILE779  LEU786  VAL792 
 PHE793  MET794  SER795  GLU796  ALA797  LYS798  CYS799  TRP800  GLU811  SER814 

> <Gold.Protein.RotatedAtoms>
  152.5288  133.9790  159.7797 H   0  0  0  0  0  0  0  0  0  0  0  0  # atno 6907 bound_to 6896
  151.0048  133.6014  159.2697 H   0  0  0  0  0  0  0  0  0  0  0  0  # atno 6908 bound_to 6896
  151.3110  135.0800  159.9325 H   0  0  0  0  0  0  0  0  0  0  0  0  # atno 6909 bound_to 6896
  145.8292  140.8491  143.0092 H   0  0  0  0  0  0  0  0  0  0  0  0  # atno 7974 bound_to 7965
  155.1577  140.0405  157.2835 H   0  0  0  0  0  0  0  0  0  0  0  0  # atno 8008 bound_to 7997
  154.6358  140.2535  155.7353 H   0  0  0  0  0  0  0  0  0  0  0  0  # atno 8009 bound_to 7997
  156.2508  140.2866  156.0730 H   0  0  0  0  0  0  0  0  0  0  0  0  # atno 8010 bound_to 7997
  139.5040  144.3510  151.9922 H   0  0  0  0  0  0  0  0  0  0  0  0  # atno 10167 bound_to 10162
  156.7441  130.5219  149.5818 H   0  0  0  0  0  0  0  0  0  0  0  0  # atno 10718 bound_to 10713
  153.7659  135.6916  153.4916 H   0  0  0  0  0  0  0  0  0  0  0  0  # atno 10763 bound_to 10752
  153.1907  135.4472  155.0144 H   0  0  0  0  0  0  0  0  0  0  0  0  # atno 10764 bound_to 10752
  154.8136  135.3388  154.7171 H   0  0  0  0  0  0  0  0  0  0  0  0  # atno 10765 bound_to 10752
  139.8788  134.8907  156.4034 H   0  0  0  0  0  0  0  0  0  0  0  0  # atno 11005 bound_to 11000
  144.6741  140.0647  143.7475 LP  0  0  0  0  0  0  0  0  0  0  0  0  # atno 17320 bound_to 7965
  145.9590  139.2787  143.1167 LP  0  0  0  0  0  0  0  0  0  0  0  0  # atno 17321 bound_to 7965
  140.2947  144.3714  150.6078 LP  0  0  0  0  0  0  0  0  0  0  0  0  # atno 17342 bound_to 10162
  140.5919  143.2168  151.7236 LP  0  0  0  0  0  0  0  0  0  0  0  0  # atno 17343 bound_to 10162
  156.1445  130.6267  151.0512 LP  0  0  0  0  0  0  0  0  0  0  0  0  # atno 17370 bound_to 10713
  157.6805  131.0839  150.7381 LP  0  0  0  0  0  0  0  0  0  0  0  0  # atno 17371 bound_to 10713
  140.9251  133.7618  155.9954 LP  0  0  0  0  0  0  0  0  0  0  0  0  # atno 17394 bound_to 11000
  140.8395  134.3083  157.5319 LP  0  0  0  0  0  0  0  0  0  0  0  0  # atno 17395 bound_to 11000

$$$$
