AV-unprocessed.smi:2556|AV-procd|sdf|10023|dock3
  -GOLD-   2272014 63D 1   1.00000     0.00000
 Structure written by MMmdl.
 35 37  0  0  0  0  0  0  0  0  1 V2000
  147.3987  135.5959  162.8698 C   0  0  0  0  0  0  0  0  0  0  0  0
  146.7878  135.5302  161.5407 N   0  0  0  0  0  0  0  0  0  0  0  0
  147.3460  136.1553  160.4526 C   0  0  0  0  0  0  0  0  0  0  0  0
  148.3908  136.8019  160.5213 O   0  0  0  0  0  0  0  0  0  0  0  0
  146.6977  136.0425  159.2523 N   0  0  0  0  0  0  0  0  0  0  0  0
  145.5454  135.3764  158.9957 C   0  0  0  0  0  0  0  0  0  0  0  0
  145.0240  135.3229  157.8840 O   0  0  0  0  0  0  0  0  0  0  0  0
  144.9857  134.7244  160.1849 C   0  0  0  0  0  0  0  0  0  0  0  0
  145.5781  134.7940  161.4058 C   0  0  0  0  0  0  0  0  0  0  0  0
  144.8516  134.0890  162.3587 N   0  0  0  0  0  0  0  0  0  0  0  0
  143.8316  133.6183  161.6387 C   0  0  0  0  0  0  0  0  0  0  0  0
  143.8357  133.9519  160.3316 N   0  0  0  0  0  0  0  0  0  0  0  0
  142.8407  133.5658  159.3430 C   0  0  0  0  0  0  0  0  0  0  0  0
  143.3457  132.4657  158.3876 C   0  0  2  0  0  0  0  0  0  0  0  0
  143.4072  132.9560  157.0623 O   0  0  0  0  0  0  0  0  0  0  0  0
  142.4931  131.2115  158.4932 C   0  0  0  0  0  0  0  0  0  0  0  0
  141.3746  131.1872  159.3538 C   0  0  0  0  0  0  0  0  0  0  0  0
  140.5765  130.0302  159.4476 C   0  0  0  0  0  0  0  0  0  0  0  0
  140.8908  128.8925  158.6799 C   0  0  0  0  0  0  0  0  0  0  0  0
  142.0031  128.9122  157.8170 C   0  0  0  0  0  0  0  0  0  0  0  0
  142.8022  130.0684  157.7235 C   0  0  0  0  0  0  0  0  0  0  0  0
  147.1279  136.5093  158.4674 H   0  0  0  0  0  0  0  0  0  0  0  0
  148.3534  136.1220  162.8950 H   0  0  0  0  0  0  0  0  0  0  0  0
  147.5742  134.5889  163.2498 H   0  0  0  0  0  0  0  0  0  0  0  0
  146.7261  136.1026  163.5624 H   0  0  0  0  0  0  0  0  0  0  0  0
  143.0542  133.0093  162.0767 H   0  0  0  0  0  0  0  0  0  0  0  0
  141.9603  133.2085  159.8788 H   0  0  0  0  0  0  0  0  0  0  0  0
  142.5161  134.4477  158.7914 H   0  0  0  0  0  0  0  0  0  0  0  0
  144.3681  132.2073  158.6665 H   0  0  0  0  0  0  0  0  0  0  0  0
  143.4536  132.2191  156.4726 H   0  0  0  0  0  0  0  0  0  0  0  0
  141.1227  132.0554  159.9453 H   0  0  0  0  0  0  0  0  0  0  0  0
  139.7219  130.0160  160.1079 H   0  0  0  0  0  0  0  0  0  0  0  0
  140.2780  128.0061  158.7514 H   0  0  0  0  0  0  0  0  0  0  0  0
  142.2429  128.0411  157.2252 H   0  0  0  0  0  0  0  0  0  0  0  0
  143.6519  130.0765  157.0562 H   0  0  0  0  0  0  0  0  0  0  0  0
  1  2  1  0  0  0  0
  1 23  1  0  0  0  0
  1 24  1  0  0  0  0
  1 25  1  0  0  0  0
  2  9  1  0  0  0  0
  2  3  1  0  0  0  0
  3  4  2  0  0  0  0
  3  5  1  0  0  0  0
  5 22  1  0  0  0  0
  5  6  1  0  0  0  0
  6  7  2  0  0  0  0
  6  8  1  0  0  0  0
  8 12  1  0  0  0  0
  8  9  2  0  0  0  0
  9 10  1  0  0  0  0
 10 11  2  0  0  0  0
 11 12  1  0  0  0  0
 11 26  1  0  0  0  0
 12 13  1  0  0  0  0
 13 14  1  0  0  0  0
 13 27  1  0  0  0  0
 13 28  1  0  0  0  0
 14 15  1  0  0  0  0
 14 16  1  0  0  0  0
 14 29  1  0  0  0  0
 15 30  1  0  0  0  0
 16 21  1  0  0  0  0
 16 17  2  0  0  0  0
 17 18  1  0  0  0  0
 17 31  1  0  0  0  0
 18 19  2  0  0  0  0
 18 32  1  0  0  0  0
 19 20  1  0  0  0  0
 19 33  1  0  0  0  0
 20 21  2  0  0  0  0
 20 34  1  0  0  0  0
 21 35  1  0  0  0  0
M  END
> <s_m_source_file>
AV-unprocessed.smi

> <i_m_source_file_index>
2556

> <i_lp_mmshare_version>
43012

> <i_f3d_flags>
0

> <s_epik_input>
Tz1jMVtuSF1jKD1PKW4oW0NIM10pYyhjMTIpbltjSF1uMltDSDJdW0NASF0oW09IXSljM1tjSF1bY0hdW2NIXVtjSF1bY0hdMw==

> <s_epik_cmdline>
J2VwaWtfcHl0aG9uJywgJy1waCcsICc3LjAnLCAnLXRuJywgJzgnLCAnLW1hJywgJzIwMCcsICctbWV0YWxfYmluZGluZycsICctaW1hZScsICc8aW5maWxlLm1hZT4nLCAnLW9tYWUnLCAnPG91dGZpbGUubWFlPic=

> <r_lp_tautomer_probability>
1

> <r_epik_Ionization_Penalty>
0.000177505

> <r_epik_Ionization_Penalty_Charging>
0.000176585

> <r_epik_Ionization_Penalty_Neutral>
9.19728e-07

> <r_epik_State_Penalty>
-0

> <r_epik_Charging_Adjusted_Penalty>
0.000176585

> <i_epik_Tot_Q>
0

> <i_epik_Tot_abs_Q>
0

> <r_epik_Metal_State_Penalty>
0.122509

> <b_epik_Metal_Only>
0

> <s_lp_Force_Field>
OPLS_2005

> <r_lp_Energy>
28.9299

> <b_lp_Chiralities_Consistent>
1

> <s_lp_Variant>
AV-unprocessed.smi:2556-1

> <Gold.Version>
5.8.1

> <Gold.Id.Protein>
6NUR|6NUR_protein|mol2

> <Gold.PLP.Fitness>
42.5428

> <Gold.PLP.PLP>
-33.6822

> <Gold.PLP.part.hbond>
-4.0000

> <Gold.PLP.part.metal>
0.0000

> <Gold.PLP.part.buried>
-3.5428

> <Gold.PLP.part.nonpolar>
-25.9899

> <Gold.PLP.part.repulsive>
0.1007

> <Gold.PLP.ligand.clash>
0.0000

> <Gold.PLP.ligand.torsion>
0.9344

> <Gold.PLP.Chemscore.Hbond>
3.5684

> <Gold.PLP.Chemscore.CHOScore>
0.0000

> <Gold.PLP.Chemscore.Metal>
0.0000

> <Gold.Chemscore.Hbonds>
donor molecule, donor type, donor heavy atom, donor atom, acceptor molecule, acceptor atom, score
      L1  H    15    30       P1 10957  0.74
      P1  H  6931  6943       L1     4  0.74
      P1  H 11000 11005       L1    15  0.09

> <Gold.PLP.Chemscore.Internal.Correction>
0.0241

> <Gold.Rescore>
     Score         DG    S(hbond)    S(metal)    S(lipo)     H(rot)  DE(clash)    DE(int)     intcor
     15.29     -16.40       3.18        0.00      53.07       2.31       0.04       1.07       ----

> <Gold.Chemscore.Fitness>
15.2937

> <Gold.Chemscore.DG>
-16.4004

> <Gold.Chemscore.ZeroCoef>
-5.4800

> <Gold.Chemscore.Hbond>
3.1822

> <Gold.Chemscore.Metal>
0.0000

> <Gold.Chemscore.Lipo>
53.0696

> <Gold.Chemscore.Internal_Hbond>
0.0000

> <Gold.Chemscore.DEClash>
0.0369

> <Gold.Chemscore.DEInternal>
1.0697

> <Gold.Chemscore.Rot>
2.3115

> <Gold.Chemscore.Internal.Correction>
   9.000000E+99

> <Gold.Chemscore.Hbonds>
donor molecule, donor type, donor heavy atom, donor atom, acceptor molecule, acceptor atom, score
      L1  H    15    30       P1 10957  0.74
      P1  H  6931  6943       L1     4  0.72
      P1  H 11000 11005       L1    15  0.01

> <Gold.Chemscore.Hbond.Weighted>
-10.6286

> <Gold.Chemscore.Metal.Weighted>
-0.0000

> <Gold.Chemscore.Lipo.Weighted>
-6.2091

> <Gold.Chemscore.Internal_Hbond.Weighted>
0.0000

> <Gold.Chemscore.DEClash.Weighted>
0.0369

> <Gold.Chemscore.DEInternal.Weighted>
1.0697

> <Gold.Chemscore.Rot.Weighted>
5.9174

> <Gold.Chemscore.Internal.Correction.Weighted>
   9.000000E+99

> <Gold.Protein.RotatedTorsions>
[ 6907 6896 6895 6894 ] final   93.78 input  -60.11 | X-H torsion
[ 7974 7965 7964 7962 ] final   89.49 input  175.53 | X-H torsion
[ 8008 7997 7996 7995 ] final    2.82 input   59.86 | X-H torsion
[ 10167 10162 10161 10158 ] final -168.30 input  -65.29 | X-H torsion
[ 10718 10713 10712 10709 ] final  -55.49 input   66.30 | X-H torsion
[ 10763 10752 10751 10750 ] final   87.01 input  -60.55 | X-H torsion
[ 11005 11000 10999 10996 ] final -100.80 input  -57.11 | X-H torsion

> <Gold.Protein.ActiveResidues>
 VAL166  LYS551  ARG553  GLY616  TRP617  ASP618  TYR619  PRO620  LYS621  CYS622 
 ASP623  PHE694  ASN695  SER759  ASP760  ASP761  ALA762  ILE779  LEU786  VAL792 
 PHE793  MET794  SER795  GLU796  ALA797  LYS798  CYS799  TRP800  GLU811  SER814 

> <Gold.Protein.RotatedAtoms>
  152.5451  134.1295  159.8432 H   0  0  0  0  0  0  0  0  0  0  0  0  # atno 6907 bound_to 6896
  151.1342  133.5008  159.2606 H   0  0  0  0  0  0  0  0  0  0  0  0  # atno 6908 bound_to 6896
  151.1642  135.0298  159.8778 H   0  0  0  0  0  0  0  0  0  0  0  0  # atno 6909 bound_to 6896
  145.5317  139.2283  143.2615 H   0  0  0  0  0  0  0  0  0  0  0  0  # atno 7974 bound_to 7965
  154.6962  140.2663  155.6764 H   0  0  0  0  0  0  0  0  0  0  0  0  # atno 8008 bound_to 7997
  156.2749  140.2781  156.1481 H   0  0  0  0  0  0  0  0  0  0  0  0  # atno 8009 bound_to 7997
  155.0827  140.0373  157.2634 H   0  0  0  0  0  0  0  0  0  0  0  0  # atno 8010 bound_to 7997
  139.5994  144.1043  152.1726 H   0  0  0  0  0  0  0  0  0  0  0  0  # atno 10167 bound_to 10162
  156.1364  130.4156  150.0178 H   0  0  0  0  0  0  0  0  0  0  0  0  # atno 10718 bound_to 10713
  153.1626  135.4559  154.9793 H   0  0  0  0  0  0  0  0  0  0  0  0  # atno 10763 bound_to 10752
  154.7908  135.3220  154.7783 H   0  0  0  0  0  0  0  0  0  0  0  0  # atno 10764 bound_to 10752
  153.8270  135.6942  153.4874 H   0  0  0  0  0  0  0  0  0  0  0  0  # atno 10765 bound_to 10752
  141.1256  133.8427  157.1149 H   0  0  0  0  0  0  0  0  0  0  0  0  # atno 11005 bound_to 11000
  146.2040  140.6134  142.9089 LP  0  0  0  0  0  0  0  0  0  0  0  0  # atno 17320 bound_to 7965
  144.7622  140.5449  143.6727 LP  0  0  0  0  0  0  0  0  0  0  0  0  # atno 17321 bound_to 7965
  140.0636  144.5837  150.7244 LP  0  0  0  0  0  0  0  0  0  0  0  0  # atno 17342 bound_to 10162
  140.7237  143.2615  151.4191 LP  0  0  0  0  0  0  0  0  0  0  0  0  # atno 17343 bound_to 10162
  156.8076  130.9313  151.3645 LP  0  0  0  0  0  0  0  0  0  0  0  0  # atno 17370 bound_to 10713
  157.6536  130.8905  149.9683 LP  0  0  0  0  0  0  0  0  0  0  0  0  # atno 17371 bound_to 10713
  140.0252  134.9927  157.0672 LP  0  0  0  0  0  0  0  0  0  0  0  0  # atno 17394 bound_to 11000
  140.4374  134.1717  155.7171 LP  0  0  0  0  0  0  0  0  0  0  0  0  # atno 17395 bound_to 11000

$$$$
