AV-unprocessed.smi:47|AV-procd|sdf|424|dock2
  -GOLD-   2262016303D 1   1.00000     0.00000
 Structure written by MMmdl.
 32 34  0  0  0  0  0  0  0  0  2 V2000
  145.2781  141.4222  154.4091 O   0  0  0  0  0  0  0  0  0  0  0  0
  146.5768  141.6748  153.9162 C   0  0  2  0  0  0  0  0  0  0  0  0
  147.1671  140.4621  153.1881 C   0  0  0  0  0  0  0  0  0  0  0  0
  148.6254  140.5129  153.4170 N   0  3  0  0  0  0  0  0  0  0  0  0
  148.9142  141.6067  154.3673 C   0  0  2  0  0  0  0  0  0  0  0  0
  149.9966  141.2518  155.3372 C   0  0  0  0  0  0  0  0  0  0  0  0
  150.8271  140.2440  155.0940 N   0  0  0  0  0  0  0  0  0  0  0  0
  151.6461  140.2957  156.1646 N   0  0  0  0  0  0  0  0  0  0  0  0
  151.2967  141.3071  156.9700 C   0  0  0  0  0  0  0  0  0  0  0  0
  151.9781  141.6527  158.2195 C   0  0  0  0  0  0  0  0  0  0  0  0
  151.8064  142.9313  158.7997 C   0  0  0  0  0  0  0  0  0  0  0  0
  152.4607  143.2643  160.0016 C   0  0  0  0  0  0  0  0  0  0  0  0
  153.2920  142.3228  160.6367 C   0  0  0  0  0  0  0  0  0  0  0  0
  153.4689  141.0476  160.0683 C   0  0  0  0  0  0  0  0  0  0  0  0
  152.8157  140.7138  158.8659 C   0  0  0  0  0  0  0  0  0  0  0  0
  150.2431  141.9616  156.4792 N   0  0  0  0  0  0  0  0  0  0  0  0
  147.5773  141.9319  155.0382 C   0  0  0  0  0  0  0  0  0  0  0  0
  146.5508  142.5337  153.2439 H   0  0  0  0  0  0  0  0  0  0  0  0
  149.2303  142.4677  153.7756 H   0  0  0  0  0  0  0  0  0  0  0  0
  152.4110  139.6498  156.3002 H   0  0  0  0  0  0  0  0  0  0  0  0
  144.7330  141.1302  153.6941 H   0  0  0  0  0  0  0  0  0  0  0  0
  146.7955  139.5308  153.6179 H   0  0  0  0  0  0  0  0  0  0  0  0
  146.9273  140.4605  152.1244 H   0  0  0  0  0  0  0  0  0  0  0  0
  148.9184  139.6375  153.8279 H   0  0  0  0  0  0  0  0  0  0  0  0
  151.1740  143.6704  158.3302 H   0  0  0  0  0  0  0  0  0  0  0  0
  152.3247  144.2436  160.4367 H   0  0  0  0  0  0  0  0  0  0  0  0
  153.7931  142.5786  161.5588 H   0  0  0  0  0  0  0  0  0  0  0  0
  154.1062  140.3240  160.5551 H   0  0  0  0  0  0  0  0  0  0  0  0
  152.9654  139.7290  158.4480 H   0  0  0  0  0  0  0  0  0  0  0  0
  147.5340  142.9451  155.4394 H   0  0  0  0  0  0  0  0  0  0  0  0
  147.3942  141.2362  155.8596 H   0  0  0  0  0  0  0  0  0  0  0  0
  149.1240  140.6663  152.5524 H   0  0  0  0  0  0  0  0  0  0  0  0
  1  2  1  0  0  0  0
  1 21  1  0  0  0  0
  2 18  1  0  0  0  0
  2 17  1  0  0  0  0
  2  3  1  0  0  0  0
  3  4  1  0  0  0  0
  3 22  1  0  0  0  0
  3 23  1  0  0  0  0
  4  5  1  0  0  0  0
  4 24  1  0  0  0  0
  4 32  1  0  0  0  0
  5 19  1  0  0  0  0
  5  6  1  0  0  0  0
  5 17  1  0  0  0  0
  6 16  1  0  0  0  0
  6  7  2  0  0  0  0
  7  8  1  0  0  0  0
  8 20  1  0  0  0  0
  8  9  1  0  0  0  0
  9 10  1  0  0  0  0
  9 16  2  0  0  0  0
 10 15  1  0  0  0  0
 10 11  2  0  0  0  0
 11 12  1  0  0  0  0
 11 25  1  0  0  0  0
 12 13  2  0  0  0  0
 12 26  1  0  0  0  0
 13 14  1  0  0  0  0
 13 27  1  0  0  0  0
 14 15  2  0  0  0  0
 14 28  1  0  0  0  0
 15 29  1  0  0  0  0
 17 30  1  0  0  0  0
 17 31  1  0  0  0  0
M  CHG  1   4   1
M  END
> <s_m_source_file>
AV-unprocessed.smi

> <i_m_source_file_index>
47

> <i_lp_mmshare_version>
43012

> <i_f3d_flags>
0

> <s_epik_input>
W09IXVtDQEhdMVtDSDJdW05IXVtDQEBIXShbQ0gyXTEpYzJuW25IXWMobjIpLWMzW2NIXVtjSF1bY0hdW2NIXVtjSF0z

> <s_epik_cmdline>
J2VwaWtfcHl0aG9uJywgJy1waCcsICc3LjAnLCAnLXRuJywgJzgnLCAnLW1hJywgJzIwMCcsICctbWV0YWxfYmluZGluZycsICctaW1hZScsICc8aW5maWxlLm1hZT4nLCAnLW9tYWUnLCAnPG91dGZpbGUubWFlPic=

> <r_lp_tautomer_probability>
0.948284

> <r_epik_Ionization_Penalty>
0.163822

> <r_epik_Ionization_Penalty_Charging>
0.0371552

> <r_epik_Ionization_Penalty_Neutral>
0.126667

> <r_epik_State_Penalty>
0.318338

> <r_epik_Charging_Adjusted_Penalty>
0.355493

> <i_epik_Tot_Q>
1

> <i_epik_Tot_abs_Q>
1

> <r_epik_Metal_State_Penalty>
0.81572

> <b_epik_Metal_Only>
0

> <s_lp_Force_Field>
OPLS_2005

> <r_lp_Energy>
24.6025

> <b_lp_Chiralities_Consistent>
1

> <s_lp_Variant>
AV-unprocessed.smi:47-2

> <Gold.Version>
5.8.1

> <Gold.Id.Protein>
6NUR|6NUR_protein|mol2

> <Gold.PLP.Fitness>
44.8937

> <Gold.PLP.PLP>
-37.1011

> <Gold.PLP.part.hbond>
-3.0000

> <Gold.PLP.part.metal>
0.0000

> <Gold.PLP.part.buried>
-3.2685

> <Gold.PLP.part.nonpolar>
-31.2089

> <Gold.PLP.part.repulsive>
0.4625

> <Gold.PLP.ligand.clash>
0.0000

> <Gold.PLP.ligand.torsion>
0.5734

> <Gold.PLP.Chemscore.Hbond>
2.9760

> <Gold.PLP.Chemscore.CHOScore>
0.0000

> <Gold.PLP.Chemscore.Metal>
0.0000

> <Gold.Chemscore.Hbonds>
donor molecule, donor type, donor heavy atom, donor atom, acceptor molecule, acceptor atom, score
      L1  H     1    21       P1 10175  1.00
      L1  H     4    32       P1  7957  0.94
      P1  H  7989  7998       L1     7  1.00

> <Gold.PLP.Chemscore.Internal.Correction>
0.0115

> <Gold.Rescore>
     Score         DG    S(hbond)    S(metal)    S(lipo)     H(rot)  DE(clash)    DE(int)     intcor
     19.18     -19.69       2.31        0.00      88.26       1.50       0.12       0.39       ----

> <Gold.Chemscore.Fitness>
19.1814

> <Gold.Chemscore.DG>
-19.6920

> <Gold.Chemscore.ZeroCoef>
-5.4800

> <Gold.Chemscore.Hbond>
2.3103

> <Gold.Chemscore.Metal>
0.0000

> <Gold.Chemscore.Lipo>
88.2631

> <Gold.Chemscore.Internal_Hbond>
0.0000

> <Gold.Chemscore.DEClash>
0.1182

> <Gold.Chemscore.DEInternal>
0.3924

> <Gold.Chemscore.Rot>
1.4966

> <Gold.Chemscore.Internal.Correction>
   9.000000E+99

> <Gold.Chemscore.Hbonds>
donor molecule, donor type, donor heavy atom, donor atom, acceptor molecule, acceptor atom, score
      L1  H     1    21       P1 10175  0.55
      L1  H     4    32       P1  7957  0.89
      P1  H  7989  7998       L1     7  0.22

> <Gold.Chemscore.Hbond.Weighted>
-7.7164

> <Gold.Chemscore.Metal.Weighted>
-0.0000

> <Gold.Chemscore.Lipo.Weighted>
-10.3268

> <Gold.Chemscore.Internal_Hbond.Weighted>
0.0000

> <Gold.Chemscore.DEClash.Weighted>
0.1182

> <Gold.Chemscore.DEInternal.Weighted>
0.3924

> <Gold.Chemscore.Rot.Weighted>
3.8312

> <Gold.Chemscore.Internal.Correction.Weighted>
   9.000000E+99

> <Gold.Protein.RotatedTorsions>
[ 6907 6896 6895 6894 ] final  175.32 input  -60.11 | X-H torsion
[ 7974 7965 7964 7962 ] final   86.47 input  175.53 | X-H torsion
[ 8008 7997 7996 7995 ] final   70.08 input   59.86 | X-H torsion
[ 10167 10162 10161 10158 ] final  147.22 input  -65.29 | X-H torsion
[ 10718 10713 10712 10709 ] final  107.16 input   66.30 | X-H torsion
[ 10763 10752 10751 10750 ] final    7.82 input  -60.55 | X-H torsion
[ 11005 11000 10999 10996 ] final   44.95 input  -57.11 | X-H torsion

> <Gold.Protein.ActiveResidues>
 VAL166  LYS551  ARG553  GLY616  TRP617  ASP618  TYR619  PRO620  LYS621  CYS622 
 ASP623  PHE694  ASN695  SER759  ASP760  ASP761  ALA762  ILE779  LEU786  VAL792 
 PHE793  MET794  SER795  GLU796  ALA797  LYS798  CYS799  TRP800  GLU811  SER814 

> <Gold.Protein.RotatedAtoms>
  151.7381  133.3320  159.3358 H   0  0  0  0  0  0  0  0  0  0  0  0  # atno 6907 bound_to 6896
  150.7585  134.6303  159.6192 H   0  0  0  0  0  0  0  0  0  0  0  0  # atno 6908 bound_to 6896
  152.3548  134.6957  160.0277 H   0  0  0  0  0  0  0  0  0  0  0  0  # atno 6909 bound_to 6896
  145.5718  139.2314  143.2402 H   0  0  0  0  0  0  0  0  0  0  0  0  # atno 7974 bound_to 7965
  155.7334  140.3491  155.5070 H   0  0  0  0  0  0  0  0  0  0  0  0  # atno 8008 bound_to 7997
  155.9161  140.1059  157.1264 H   0  0  0  0  0  0  0  0  0  0  0  0  # atno 8009 bound_to 7997
  154.4063  140.1258  156.4606 H   0  0  0  0  0  0  0  0  0  0  0  0  # atno 8010 bound_to 7997
  139.4894  144.5772  151.6943 H   0  0  0  0  0  0  0  0  0  0  0  0  # atno 10167 bound_to 10162
  157.6640  131.0866  150.6114 H   0  0  0  0  0  0  0  0  0  0  0  0  # atno 10718 bound_to 10713
  153.2320  135.6894  153.7879 H   0  0  0  0  0  0  0  0  0  0  0  0  # atno 10763 bound_to 10752
  153.7040  135.3293  155.3232 H   0  0  0  0  0  0  0  0  0  0  0  0  # atno 10764 bound_to 10752
  154.8318  135.4574  154.1209 H   0  0  0  0  0  0  0  0  0  0  0  0  # atno 10765 bound_to 10752
  140.1504  134.4469  155.8386 H   0  0  0  0  0  0  0  0  0  0  0  0  # atno 11005 bound_to 11000
  146.1779  140.6544  142.9203 LP  0  0  0  0  0  0  0  0  0  0  0  0  # atno 17320 bound_to 7965
  144.7434  140.5004  143.6853 LP  0  0  0  0  0  0  0  0  0  0  0  0  # atno 17321 bound_to 7965
  140.5370  144.0639  150.6074 LP  0  0  0  0  0  0  0  0  0  0  0  0  # atno 17342 bound_to 10162
  140.3649  143.2887  152.0343 LP  0  0  0  0  0  0  0  0  0  0  0  0  # atno 17343 bound_to 10162
  156.6416  130.4460  149.5750 LP  0  0  0  0  0  0  0  0  0  0  0  0  # atno 17370 bound_to 10713
  156.2205  130.6734  151.1363 LP  0  0  0  0  0  0  0  0  0  0  0  0  # atno 17371 bound_to 10713
  141.2198  133.6870  156.7411 LP  0  0  0  0  0  0  0  0  0  0  0  0  # atno 17394 bound_to 11000
  140.2611  134.8465  157.3760 LP  0  0  0  0  0  0  0  0  0  0  0  0  # atno 17395 bound_to 11000

$$$$
