AV-unprocessed.smi:249|AV-procd|sdf|1913|dock2
  -GOLD-   2262021 03D 1   1.00000     0.00000
 Structure written by MMmdl.
 64 67  0  0  0  0  0  0  0  0  2 V2000
  145.3089  126.8315  155.4861 C   0  0  0  0  0  0  0  0  0  0  0  0
  146.0982  127.2525  154.2374 C   0  0  0  0  0  0  0  0  0  0  0  0
  146.1678  128.7273  154.0530 N   0  3  1  0  0  0  0  0  0  0  0  0
  146.9035  129.3959  155.1599 C   0  0  0  0  0  0  0  0  0  0  0  0
  146.7623  130.9244  155.0863 C   0  0  0  0  0  0  0  0  0  0  0  0
  147.2294  131.4529  153.7162 C   0  0  2  0  0  0  0  0  0  0  0  0
  147.1907  132.9161  153.5978 N   0  0  0  0  0  0  0  0  0  0  0  0
  146.8669  133.5025  152.3041 C   0  0  0  0  0  0  0  0  0  0  0  0
  147.9865  133.7070  154.3579 C   0  0  0  0  0  0  0  0  0  0  0  0
  149.0691  133.1856  154.9908 N   0  0  0  0  0  0  0  0  0  0  0  0
  149.8581  133.9715  155.7298 C   0  0  0  0  0  0  0  0  0  0  0  0
  149.7446  135.2794  155.9686 N   0  0  0  0  0  0  0  0  0  0  0  0
  148.6580  135.8066  155.3352 C   0  0  0  0  0  0  0  0  0  0  0  0
  147.7413  135.0985  154.5087 C   0  0  0  0  0  0  0  0  0  0  0  0
  146.7667  135.9635  154.0276 N   0  0  0  0  0  0  0  0  0  0  0  0
  147.0870  137.1191  154.5427 C   0  0  0  0  0  0  0  0  0  0  0  0
  148.1948  137.1111  155.3613 N   0  0  0  0  0  0  0  0  0  0  0  0
  148.7610  138.2520  156.0593 C   0  0  0  0  0  0  0  0  0  0  0  0
  149.5271  139.2570  155.1578 C   0  0  1  0  0  0  0  0  0  0  0  0
  148.5095  140.1969  154.4700 C   0  0  0  0  0  0  0  0  0  0  0  0
  149.1097  140.9479  153.4337 O   0  0  0  0  0  0  0  0  0  0  0  0
  150.6698  140.0389  155.8720 C   0  0  1  0  0  0  0  0  0  0  0  0
  150.2539  140.8998  157.0564 C   0  0  0  0  0  0  0  0  0  0  0  0
  151.5625  141.0985  157.8144 C   0  0  0  0  0  0  0  0  0  0  0  0
  152.3590  139.9557  157.5304 O   0  0  0  0  0  0  0  0  0  0  0  0
  151.7084  139.1447  156.5604 C   0  0  0  0  0  0  0  0  0  0  0  0
  146.4740  130.7213  152.5856 C   0  0  0  0  0  0  0  0  0  0  0  0
  146.6051  129.1884  152.6979 C   0  0  1  0  0  0  0  0  0  0  0  0
  148.0093  128.6896  152.2936 C   0  0  0  0  0  0  0  0  0  0  0  0
  145.4023  125.7580  155.6526 H   0  0  0  0  0  0  0  0  0  0  0  0
  144.2450  127.0467  155.3892 H   0  0  0  0  0  0  0  0  0  0  0  0
  145.6796  127.3370  156.3783 H   0  0  0  0  0  0  0  0  0  0  0  0
  147.1146  126.8727  154.3480 H   0  0  0  0  0  0  0  0  0  0  0  0
  145.6945  126.7703  153.3470 H   0  0  0  0  0  0  0  0  0  0  0  0
  146.5102  129.0555  156.1185 H   0  0  0  0  0  0  0  0  0  0  0  0
  147.9553  129.1088  155.1395 H   0  0  0  0  0  0  0  0  0  0  0  0
  145.7222  131.1891  155.2731 H   0  0  0  0  0  0  0  0  0  0  0  0
  147.3445  131.3807  155.8874 H   0  0  0  0  0  0  0  0  0  0  0  0
  148.2832  131.1921  153.6142 H   0  0  0  0  0  0  0  0  0  0  0  0
  146.2729  134.4085  152.4257 H   0  0  0  0  0  0  0  0  0  0  0  0
  146.2901  132.8071  151.6938 H   0  0  0  0  0  0  0  0  0  0  0  0
  147.7759  133.7578  151.7578 H   0  0  0  0  0  0  0  0  0  0  0  0
  150.6995  133.4826  156.1980 H   0  0  0  0  0  0  0  0  0  0  0  0
  146.5097  138.0122  154.3515 H   0  0  0  0  0  0  0  0  0  0  0  0
  147.9380  138.7592  156.5641 H   0  0  0  0  0  0  0  0  0  0  0  0
  149.4190  137.8809  156.8461 H   0  0  0  0  0  0  0  0  0  0  0  0
  149.9873  138.6873  154.3504 H   0  0  0  0  0  0  0  0  0  0  0  0
  147.6705  139.6367  154.0577 H   0  0  0  0  0  0  0  0  0  0  0  0
  148.0814  140.8885  155.1963 H   0  0  0  0  0  0  0  0  0  0  0  0
  149.3311  140.3611  152.7266 H   0  0  0  0  0  0  0  0  0  0  0  0
  151.1861  140.6711  155.1477 H   0  0  0  0  0  0  0  0  0  0  0  0
  149.8159  141.8551  156.7723 H   0  0  0  0  0  0  0  0  0  0  0  0
  149.5371  140.3674  157.6835 H   0  0  0  0  0  0  0  0  0  0  0  0
  152.0850  141.9829  157.4482 H   0  0  0  0  0  0  0  0  0  0  0  0
  151.4050  141.2179  158.8864 H   0  0  0  0  0  0  0  0  0  0  0  0
  151.2214  138.3181  157.0800 H   0  0  0  0  0  0  0  0  0  0  0  0
  152.4314  138.7248  155.8607 H   0  0  0  0  0  0  0  0  0  0  0  0
  145.4137  130.9726  152.6135 H   0  0  0  0  0  0  0  0  0  0  0  0
  146.8378  131.0577  151.6139 H   0  0  0  0  0  0  0  0  0  0  0  0
  145.9053  128.7814  151.9688 H   0  0  0  0  0  0  0  0  0  0  0  0
  148.2810  129.0682  151.3078 H   0  0  0  0  0  0  0  0  0  0  0  0
  148.0508  127.6024  152.2323 H   0  0  0  0  0  0  0  0  0  0  0  0
  148.7837  129.0137  152.9877 H   0  0  0  0  0  0  0  0  0  0  0  0
  145.2143  129.0479  154.1452 H   0  0  0  0  0  0  0  0  0  0  0  0
  1  2  1  0  0  0  0
  1 30  1  0  0  0  0
  1 31  1  0  0  0  0
  1 32  1  0  0  0  0
  2  3  1  0  0  0  0
  2 33  1  0  0  0  0
  2 34  1  0  0  0  0
  3 28  1  0  0  0  0
  3  4  1  0  0  0  0
  3 64  1  0  0  0  0
  4  5  1  0  0  0  0
  4 35  1  0  0  0  0
  4 36  1  0  0  0  0
  5  6  1  0  0  0  0
  5 37  1  0  0  0  0
  5 38  1  0  0  0  0
  6  7  1  0  0  0  0
  6 27  1  0  0  0  0
  6 39  1  0  0  0  0
  7  8  1  0  0  0  0
  7  9  1  0  0  0  0
  8 40  1  0  0  0  0
  8 41  1  0  0  0  0
  8 42  1  0  0  0  0
  9 14  1  0  0  0  0
  9 10  2  0  0  0  0
 10 11  1  0  0  0  0
 11 12  2  0  0  0  0
 11 43  1  0  0  0  0
 12 13  1  0  0  0  0
 13 17  1  0  0  0  0
 13 14  2  0  0  0  0
 14 15  1  0  0  0  0
 15 16  2  0  0  0  0
 16 17  1  0  0  0  0
 16 44  1  0  0  0  0
 17 18  1  0  0  0  0
 18 19  1  0  0  0  0
 18 45  1  0  0  0  0
 18 46  1  0  0  0  0
 19 20  1  0  0  0  0
 19 22  1  0  0  0  0
 19 47  1  0  0  0  0
 20 21  1  0  0  0  0
 20 48  1  0  0  0  0
 20 49  1  0  0  0  0
 21 50  1  0  0  0  0
 22 26  1  0  0  0  0
 22 23  1  0  0  0  0
 22 51  1  0  0  0  0
 23 24  1  0  0  0  0
 23 52  1  0  0  0  0
 23 53  1  0  0  0  0
 24 25  1  0  0  0  0
 24 54  1  0  0  0  0
 24 55  1  0  0  0  0
 25 26  1  0  0  0  0
 26 56  1  0  0  0  0
 26 57  1  0  0  0  0
 27 28  1  0  0  0  0
 27 58  1  0  0  0  0
 27 59  1  0  0  0  0
 28 29  1  0  0  0  0
 28 60  1  0  0  0  0
 29 61  1  0  0  0  0
 29 62  1  0  0  0  0
 29 63  1  0  0  0  0
M  CHG  1   3   1
M  END
> <s_m_source_file>
AV-unprocessed.smi

> <i_m_source_file_index>
249

> <i_lp_mmshare_version>
43012

> <i_f3d_flags>
0

> <s_epik_input>
W0NIM11bQ0gyXU4xW0NIMl1bQ0gyXVtDQEhdKFtDSDJdW0NASF0xW0NIM10pTihbQ0gzXSljKG5bY0hdbjIpYyhjMjMpbltjSF1uM1tDSDJdW0NASF0oW0NIMl1bT0hdKVtDQEBIXTRbQ0gyXVtDSDJdT1tDSDJdNA==

> <s_epik_cmdline>
J2VwaWtfcHl0aG9uJywgJy1waCcsICc3LjAnLCAnLXRuJywgJzgnLCAnLW1hJywgJzIwMCcsICctbWV0YWxfYmluZGluZycsICctaW1hZScsICc8aW5maWxlLm1hZT4nLCAnLW9tYWUnLCAnPG91dGZpbGUubWFlPic=

> <r_lp_tautomer_probability>
1

> <r_epik_Ionization_Penalty>
0.00294688

> <r_epik_Ionization_Penalty_Charging>
0.00169971

> <r_epik_Ionization_Penalty_Neutral>
0.00124717

> <r_epik_State_Penalty>
-0

> <r_epik_Charging_Adjusted_Penalty>
0.00169971

> <i_epik_Tot_Q>
1

> <i_epik_Tot_abs_Q>
1

> <r_epik_Metal_State_Penalty>
-0

> <b_epik_Metal_Only>
0

> <s_lp_Force_Field>
OPLS_2005

> <r_lp_Energy>
54.9966

> <b_lp_Chiralities_Consistent>
1

> <s_lp_Variant>
AV-unprocessed.smi:249-16

> <Gold.Version>
5.8.1

> <Gold.Id.Protein>
6NUR|6NUR_protein|mol2

> <Gold.PLP.Fitness>
48.7433

> <Gold.PLP.PLP>
-36.8063

> <Gold.PLP.part.hbond>
-4.0837

> <Gold.PLP.part.metal>
0.0000

> <Gold.PLP.part.buried>
-4.7761

> <Gold.PLP.part.nonpolar>
-28.6410

> <Gold.PLP.part.repulsive>
0.7054

> <Gold.PLP.ligand.clash>
0.0000

> <Gold.PLP.ligand.torsion>
1.4119

> <Gold.PLP.Chemscore.Hbond>
4.4520

> <Gold.PLP.Chemscore.CHOScore>
0.0000

> <Gold.PLP.Chemscore.Metal>
0.0000

> <Gold.Chemscore.Hbonds>
donor molecule, donor type, donor heavy atom, donor atom, acceptor molecule, acceptor atom, score
      L1  H     3    64       P1 10956  1.66
      L1  H    21    50       P1  7957  1.00
      P1  H  7997  8008       L1    25  0.25
      P1  H  8011  8017       L1    21  0.40

> <Gold.PLP.Chemscore.Internal.Correction>
1.4047

> <Gold.Rescore>
     Score         DG    S(hbond)    S(metal)    S(lipo)     H(rot)  DE(clash)    DE(int)     intcor
     15.46     -17.87       2.90        0.00      81.16       2.65       0.15       2.26       ----

> <Gold.Chemscore.Fitness>
15.4649

> <Gold.Chemscore.DG>
-17.8742

> <Gold.Chemscore.ZeroCoef>
-5.4800

> <Gold.Chemscore.Hbond>
2.9000

> <Gold.Chemscore.Metal>
0.0000

> <Gold.Chemscore.Lipo>
81.1637

> <Gold.Chemscore.Internal_Hbond>
0.0000

> <Gold.Chemscore.DEClash>
0.1534

> <Gold.Chemscore.DEInternal>
2.2559

> <Gold.Chemscore.Rot>
2.6515

> <Gold.Chemscore.Internal.Correction>
   9.000000E+99

> <Gold.Chemscore.Hbonds>
donor molecule, donor type, donor heavy atom, donor atom, acceptor molecule, acceptor atom, score
      L1  H     3    64       P1 10956  0.82
      L1  H    21    50       P1  7957  0.95
      P1  H  7997  8008       L1    25  0.04
      P1  H  8011  8017       L1    21  0.01

> <Gold.Chemscore.Hbond.Weighted>
-9.6860

> <Gold.Chemscore.Metal.Weighted>
-0.0000

> <Gold.Chemscore.Lipo.Weighted>
-9.4961

> <Gold.Chemscore.Internal_Hbond.Weighted>
0.0000

> <Gold.Chemscore.DEClash.Weighted>
0.1534

> <Gold.Chemscore.DEInternal.Weighted>
2.2559

> <Gold.Chemscore.Rot.Weighted>
6.7880

> <Gold.Chemscore.Internal.Correction.Weighted>
   9.000000E+99

> <Gold.Protein.RotatedTorsions>
[ 6907 6896 6895 6894 ] final -109.26 input  -60.11 | X-H torsion
[ 7974 7965 7964 7962 ] final  -89.55 input  175.53 | X-H torsion
[ 8008 7997 7996 7995 ] final  -44.44 input   59.86 | X-H torsion
[ 10167 10162 10161 10158 ] final  -30.40 input  -65.29 | X-H torsion
[ 10718 10713 10712 10709 ] final -164.43 input   66.30 | X-H torsion
[ 10763 10752 10751 10750 ] final -105.66 input  -60.55 | X-H torsion
[ 11005 11000 10999 10996 ] final   14.65 input  -57.11 | X-H torsion

> <Gold.Protein.ActiveResidues>
 VAL166  LYS551  ARG553  GLY616  TRP617  ASP618  TYR619  PRO620  LYS621  CYS622 
 ASP623  PHE694  ASN695  SER759  ASP760  ASP761  ALA762  ILE779  LEU786  VAL792 
 PHE793  MET794  SER795  GLU796  ALA797  LYS798  CYS799  TRP800  GLU811  SER814 

> <Gold.Protein.RotatedAtoms>
  150.7551  133.9556  159.3499 H   0  0  0  0  0  0  0  0  0  0  0  0  # atno 6907 bound_to 6896
  151.7477  135.0838  160.0335 H   0  0  0  0  0  0  0  0  0  0  0  0  # atno 6908 bound_to 6896
  152.3487  133.6116  159.5965 H   0  0  0  0  0  0  0  0  0  0  0  0  # atno 6909 bound_to 6896
  145.4382  140.9558  143.2090 H   0  0  0  0  0  0  0  0  0  0  0  0  # atno 7974 bound_to 7965
  154.3997  140.1422  156.3683 H   0  0  0  0  0  0  0  0  0  0  0  0  # atno 8008 bound_to 7997
  155.8116  140.3472  155.5440 H   0  0  0  0  0  0  0  0  0  0  0  0  # atno 8009 bound_to 7997
  155.8380  140.0922  157.1742 H   0  0  0  0  0  0  0  0  0  0  0  0  # atno 8010 bound_to 7997
  140.7249  143.3851  151.1529 H   0  0  0  0  0  0  0  0  0  0  0  0  # atno 10167 bound_to 10162
  156.6390  130.8961  151.2992 H   0  0  0  0  0  0  0  0  0  0  0  0  # atno 10718 bound_to 10713
  154.7961  135.4740  154.0165 H   0  0  0  0  0  0  0  0  0  0  0  0  # atno 10763 bound_to 10752
  153.1706  135.6824  153.8620 H   0  0  0  0  0  0  0  0  0  0  0  0  # atno 10764 bound_to 10752
  153.8203  135.3205  155.3387 H   0  0  0  0  0  0  0  0  0  0  0  0  # atno 10765 bound_to 10752
  140.4671  134.1068  155.7726 H   0  0  0  0  0  0  0  0  0  0  0  0  # atno 11005 bound_to 11000
  144.8138  139.5913  143.7017 LP  0  0  0  0  0  0  0  0  0  0  0  0  # atno 17320 bound_to 7965
  146.2570  139.6325  142.9388 LP  0  0  0  0  0  0  0  0  0  0  0  0  # atno 17321 bound_to 7965
  139.7447  143.8870  152.3060 LP  0  0  0  0  0  0  0  0  0  0  0  0  # atno 17342 bound_to 10162
  139.8703  144.7071  150.8995 LP  0  0  0  0  0  0  0  0  0  0  0  0  # atno 17343 bound_to 10162
  157.7177  130.9518  150.1317 LP  0  0  0  0  0  0  0  0  0  0  0  0  # atno 17370 bound_to 10713
  156.2174  130.3671  149.8597 LP  0  0  0  0  0  0  0  0  0  0  0  0  # atno 17371 bound_to 10713
  141.1594  133.8821  157.1889 LP  0  0  0  0  0  0  0  0  0  0  0  0  # atno 17394 bound_to 11000
  139.9908  135.0065  156.9971 LP  0  0  0  0  0  0  0  0  0  0  0  0  # atno 17395 bound_to 11000

$$$$
