AV-unprocessed.smi:220|AV-procd|sdf|1684|dock6
  -GOLD-   2262020123D 1   1.00000     0.00000
 Structure written by MMmdl.
 51 55  0  0  0  0  0  0  0  0  1 V2000
  150.2292  141.3280  156.1958 N   0  0  0  0  0  0  0  0  0  0  0  0
  151.2362  140.9003  156.9609 C   0  0  0  0  0  0  0  0  0  0  0  0
  152.1613  140.2287  156.5067 O   0  0  0  0  0  0  0  0  0  0  0  0
  151.1893  141.2951  158.4494 C   0  0  2  0  0  0  0  0  0  0  0  0
  151.2100  142.8262  158.6733 C   0  0  2  0  0  0  0  0  0  0  0  0
  152.0503  143.6937  157.7199 C   0  0  0  0  0  0  0  0  0  0  0  0
  152.4126  144.9227  158.5544 C   0  0  0  0  0  0  0  0  0  0  0  0
  152.5561  144.4128  159.9949 C   0  0  0  0  0  0  0  0  0  0  0  0
  151.9079  143.0176  160.0177 C   0  0  2  0  0  0  0  0  0  0  0  0
  152.9040  141.8522  160.0667 C   0  0  0  0  0  0  0  0  0  0  0  0
  152.3236  140.8051  159.2346 N   0  0  0  0  0  0  0  0  0  0  0  0
  152.5996  139.4947  159.4792 C   0  0  0  0  0  0  0  0  0  0  0  0
  151.9899  138.5712  158.6899 N   0  0  0  0  0  0  0  0  0  0  0  0
  152.1992  137.2665  158.8794 C   0  0  0  0  0  0  0  0  0  0  0  0
  152.9739  136.6711  159.7855 N   0  0  0  0  0  0  0  0  0  0  0  0
  153.6007  137.5856  160.5784 C   0  0  0  0  0  0  0  0  0  0  0  0
  153.4720  139.0036  160.4983 C   0  0  0  0  0  0  0  0  0  0  0  0
  154.2716  139.5921  161.4727 N   0  0  0  0  0  0  0  0  0  0  0  0
  154.8243  138.5888  162.0954 C   0  0  0  0  0  0  0  0  0  0  0  0
  154.4899  137.3450  161.6131 N   0  0  0  0  0  0  0  0  0  0  0  0
  154.9594  136.0590  162.1102 C   0  0  0  0  0  0  0  0  0  0  0  0
  154.7681  135.8559  163.6290 C   0  0  0  0  0  0  0  0  0  0  0  0
  154.8290  134.3615  163.9883 C   0  0  0  0  0  0  0  0  0  0  0  0
  154.5143  134.1514  165.3497 O   0  0  0  0  0  0  0  0  0  0  0  0
  155.6074  136.7741  164.5302 C   0  0  0  0  0  0  0  0  0  0  0  0
  154.4608  137.5575  164.9210 O   0  0  0  0  0  0  0  0  0  0  0  0
  153.5915  136.6284  164.2407 C   0  0  0  0  0  0  0  0  0  0  0  0
  150.2147  141.0967  155.2130 H   0  0  0  0  0  0  0  0  0  0  0  0
  149.4877  141.8811  156.6002 H   0  0  0  0  0  0  0  0  0  0  0  0
  150.2770  140.9025  158.8998 H   0  0  0  0  0  0  0  0  0  0  0  0
  150.1953  143.2251  158.7148 H   0  0  0  0  0  0  0  0  0  0  0  0
  152.9663  143.1753  157.4320 H   0  0  0  0  0  0  0  0  0  0  0  0
  151.5145  143.9542  156.8064 H   0  0  0  0  0  0  0  0  0  0  0  0
  153.3161  145.4156  158.1946 H   0  0  0  0  0  0  0  0  0  0  0  0
  151.5996  145.6483  158.5036 H   0  0  0  0  0  0  0  0  0  0  0  0
  153.6039  144.3681  160.2941 H   0  0  0  0  0  0  0  0  0  0  0  0
  152.0546  145.0898  160.6873 H   0  0  0  0  0  0  0  0  0  0  0  0
  151.1887  142.9204  160.8322 H   0  0  0  0  0  0  0  0  0  0  0  0
  153.8697  142.1284  159.6412 H   0  0  0  0  0  0  0  0  0  0  0  0
  153.0674  141.5287  161.0958 H   0  0  0  0  0  0  0  0  0  0  0  0
  151.6692  136.6055  158.2097 H   0  0  0  0  0  0  0  0  0  0  0  0
  155.4953  138.7355  162.9284 H   0  0  0  0  0  0  0  0  0  0  0  0
  154.4337  135.2806  161.5557 H   0  0  0  0  0  0  0  0  0  0  0  0
  156.0095  135.9474  161.8376 H   0  0  0  0  0  0  0  0  0  0  0  0
  154.1596  133.7665  163.3674 H   0  0  0  0  0  0  0  0  0  0  0  0
  155.8302  133.9652  163.8159 H   0  0  0  0  0  0  0  0  0  0  0  0
  153.6408  133.7951  165.4058 H   0  0  0  0  0  0  0  0  0  0  0  0
  156.0606  136.2659  165.3825 H   0  0  0  0  0  0  0  0  0  0  0  0
  156.3480  137.3739  164.0028 H   0  0  0  0  0  0  0  0  0  0  0  0
  152.9537  137.1193  163.5047 H   0  0  0  0  0  0  0  0  0  0  0  0
  152.9937  136.0443  164.9420 H   0  0  0  0  0  0  0  0  0  0  0  0
  1  2  1  0  0  0  0
  1 28  1  0  0  0  0
  1 29  1  0  0  0  0
  2  3  2  0  0  0  0
  2  4  1  0  0  0  0
  4 11  1  0  0  0  0
  4  5  1  0  0  0  0
  4 30  1  0  0  0  0
  5  9  1  0  0  0  0
  5  6  1  0  0  0  0
  5 31  1  0  0  0  0
  6  7  1  0  0  0  0
  6 32  1  0  0  0  0
  6 33  1  0  0  0  0
  7  8  1  0  0  0  0
  7 34  1  0  0  0  0
  7 35  1  0  0  0  0
  8  9  1  0  0  0  0
  8 36  1  0  0  0  0
  8 37  1  0  0  0  0
  9 10  1  0  0  0  0
  9 38  1  0  0  0  0
 10 11  1  0  0  0  0
 10 39  1  0  0  0  0
 10 40  1  0  0  0  0
 11 12  1  0  0  0  0
 12 17  1  0  0  0  0
 12 13  2  0  0  0  0
 13 14  1  0  0  0  0
 14 15  2  0  0  0  0
 14 41  1  0  0  0  0
 15 16  1  0  0  0  0
 16 20  1  0  0  0  0
 16 17  2  0  0  0  0
 17 18  1  0  0  0  0
 18 19  2  0  0  0  0
 19 20  1  0  0  0  0
 19 42  1  0  0  0  0
 20 21  1  0  0  0  0
 21 22  1  0  0  0  0
 21 43  1  0  0  0  0
 21 44  1  0  0  0  0
 22 27  1  0  0  0  0
 22 23  1  0  0  0  0
 22 25  1  0  0  0  0
 23 24  1  0  0  0  0
 23 45  1  0  0  0  0
 23 46  1  0  0  0  0
 24 47  1  0  0  0  0
 25 26  1  0  0  0  0
 25 48  1  0  0  0  0
 25 49  1  0  0  0  0
 26 27  1  0  0  0  0
 27 50  1  0  0  0  0
 27 51  1  0  0  0  0
M  END
> <s_m_source_file>
AV-unprocessed.smi

> <i_m_source_file_index>
220

> <i_lp_mmshare_version>
43012

> <i_f3d_flags>
0

> <s_epik_input>
W0NIMl0xW0NIMl1bQ0gyXVtDQEhdKFtDQEhdMTIpW0NIMl1OKFtDQEBIXTJDKD1PKVtOSDJdKWMobltjSF1uMyljKGMzNCluW2NIXW40W0NIMl1DNShbQ0gyXVtPSF0pW0NIMl1PW0NIMl01

> <s_epik_cmdline>
J2VwaWtfcHl0aG9uJywgJy1waCcsICc3LjAnLCAnLXRuJywgJzgnLCAnLW1hJywgJzIwMCcsICctbWV0YWxfYmluZGluZycsICctaW1hZScsICc8aW5maWxlLm1hZT4nLCAnLW9tYWUnLCAnPG91dGZpbGUubWFlPic=

> <r_lp_tautomer_probability>
1

> <r_epik_Ionization_Penalty>
0.00118987

> <r_epik_Ionization_Penalty_Charging>
0

> <r_epik_Ionization_Penalty_Neutral>
0.00118987

> <r_epik_State_Penalty>
0.000654261

> <r_epik_Charging_Adjusted_Penalty>
0.000654261

> <i_epik_Tot_Q>
0

> <i_epik_Tot_abs_Q>
0

> <r_epik_Metal_State_Penalty>
-0

> <b_epik_Metal_Only>
0

> <s_lp_Force_Field>
OPLS_2005

> <r_lp_Energy>
60.6153

> <b_lp_Chiralities_Consistent>
1

> <s_lp_Variant>
AV-unprocessed.smi:220-3

> <Gold.Version>
5.8.1

> <Gold.Id.Protein>
6NUR|6NUR_protein|mol2

> <Gold.PLP.Fitness>
55.1714

> <Gold.PLP.PLP>
-49.7961

> <Gold.PLP.part.hbond>
-3.0000

> <Gold.PLP.part.metal>
0.0000

> <Gold.PLP.part.buried>
-6.3395

> <Gold.PLP.part.nonpolar>
-39.8733

> <Gold.PLP.part.repulsive>
0.1809

> <Gold.PLP.ligand.clash>
0.0000

> <Gold.PLP.ligand.torsion>
0.5213

> <Gold.PLP.Chemscore.Hbond>
2.0000

> <Gold.PLP.Chemscore.CHOScore>
0.0000

> <Gold.PLP.Chemscore.Metal>
0.0000

> <Gold.Chemscore.Hbonds>
donor molecule, donor type, donor heavy atom, donor atom, acceptor molecule, acceptor atom, score
      P1  H  6896  6907       L1    15  1.00
      P1  H  7997  8010       L1     3  0.60

> <Gold.PLP.Chemscore.Internal.Correction>
0.4179

> <Gold.Rescore>
     Score         DG    S(hbond)    S(metal)    S(lipo)     H(rot)  DE(clash)    DE(int)     intcor
     11.46     -17.84       1.72        0.00     119.53       2.89       1.45       4.93       ----

> <Gold.Chemscore.Fitness>
11.4561

> <Gold.Chemscore.DG>
-17.8357

> <Gold.Chemscore.ZeroCoef>
-5.4800

> <Gold.Chemscore.Hbond>
1.7249

> <Gold.Chemscore.Metal>
0.0000

> <Gold.Chemscore.Lipo>
119.5296

> <Gold.Chemscore.Internal_Hbond>
0.0000

> <Gold.Chemscore.DEClash>
1.4465

> <Gold.Chemscore.DEInternal>
4.9330

> <Gold.Chemscore.Rot>
2.8869

> <Gold.Chemscore.Internal.Correction>
   9.000000E+99

> <Gold.Chemscore.Hbonds>
donor molecule, donor type, donor heavy atom, donor atom, acceptor molecule, acceptor atom, score
      P1  H  6896  6907       L1    15  0.45
      P1  H  7997  8010       L1     3  0.58

> <Gold.Chemscore.Hbond.Weighted>
-5.7612

> <Gold.Chemscore.Metal.Weighted>
-0.0000

> <Gold.Chemscore.Lipo.Weighted>
-13.9850

> <Gold.Chemscore.Internal_Hbond.Weighted>
0.0000

> <Gold.Chemscore.DEClash.Weighted>
1.4465

> <Gold.Chemscore.DEInternal.Weighted>
4.9330

> <Gold.Chemscore.Rot.Weighted>
7.3905

> <Gold.Chemscore.Internal.Correction.Weighted>
   9.000000E+99

> <Gold.Protein.RotatedTorsions>
[ 6907 6896 6895 6894 ] final   37.06 input  -60.11 | X-H torsion
[ 7974 7965 7964 7962 ] final  -78.64 input  175.53 | X-H torsion
[ 8008 7997 7996 7995 ] final   82.27 input   59.86 | X-H torsion
[ 10167 10162 10161 10158 ] final -128.92 input  -65.29 | X-H torsion
[ 10718 10713 10712 10709 ] final   87.21 input   66.30 | X-H torsion
[ 10763 10752 10751 10750 ] final  171.76 input  -60.55 | X-H torsion
[ 11005 11000 10999 10996 ] final  171.35 input  -57.11 | X-H torsion

> <Gold.Protein.ActiveResidues>
 VAL166  LYS551  ARG553  GLY616  TRP617  ASP618  TYR619  PRO620  LYS621  CYS622 
 ASP623  PHE694  ASN695  SER759  ASP760  ASP761  ALA762  ILE779  LEU786  VAL792 
 PHE793  MET794  SER795  GLU796  ALA797  LYS798  CYS799  TRP800  GLU811  SER814 

> <Gold.Protein.RotatedAtoms>
  152.1382  134.9083  160.0555 H   0  0  0  0  0  0  0  0  0  0  0  0  # atno 6907 bound_to 6896
  152.0161  133.3875  159.4247 H   0  0  0  0  0  0  0  0  0  0  0  0  # atno 6908 bound_to 6896
  150.6862  134.3598  159.4989 H   0  0  0  0  0  0  0  0  0  0  0  0  # atno 6909 bound_to 6896
  145.5838  140.9443  143.1329 H   0  0  0  0  0  0  0  0  0  0  0  0  # atno 7974 bound_to 7965
  155.9083  140.3429  155.6079 H   0  0  0  0  0  0  0  0  0  0  0  0  # atno 8008 bound_to 7997
  155.7417  140.0808  157.2261 H   0  0  0  0  0  0  0  0  0  0  0  0  # atno 8009 bound_to 7997
  154.4052  140.1569  156.2611 H   0  0  0  0  0  0  0  0  0  0  0  0  # atno 8010 bound_to 7997
  139.9453  143.6117  152.2492 H   0  0  0  0  0  0  0  0  0  0  0  0  # atno 10167 bound_to 10162
  157.6937  131.0246  150.3089 H   0  0  0  0  0  0  0  0  0  0  0  0  # atno 10718 bound_to 10713
  154.4165  135.2757  155.2003 H   0  0  0  0  0  0  0  0  0  0  0  0  # atno 10763 bound_to 10752
  154.3967  135.6054  153.5877 H   0  0  0  0  0  0  0  0  0  0  0  0  # atno 10764 bound_to 10752
  152.9832  135.5916  154.4455 H   0  0  0  0  0  0  0  0  0  0  0  0  # atno 10765 bound_to 10752
  140.3180  134.7461  157.4042 H   0  0  0  0  0  0  0  0  0  0  0  0  # atno 11005 bound_to 11000
  144.7382  139.7524  143.7321 LP  0  0  0  0  0  0  0  0  0  0  0  0  # atno 17320 bound_to 7965
  146.1697  139.4843  142.9935 LP  0  0  0  0  0  0  0  0  0  0  0  0  # atno 17321 bound_to 7965
  139.6672  144.7662  151.1851 LP  0  0  0  0  0  0  0  0  0  0  0  0  # atno 17342 bound_to 10162
  140.7599  143.5920  150.8787 LP  0  0  0  0  0  0  0  0  0  0  0  0  # atno 17343 bound_to 10162
  156.3593  130.3844  149.7264 LP  0  0  0  0  0  0  0  0  0  0  0  0  # atno 17370 bound_to 10713
  156.4716  130.7999  151.3017 LP  0  0  0  0  0  0  0  0  0  0  0  0  # atno 17371 bound_to 10713
  140.0966  134.5529  155.8392 LP  0  0  0  0  0  0  0  0  0  0  0  0  # atno 17394 bound_to 11000
  141.2093  133.6682  156.6430 LP  0  0  0  0  0  0  0  0  0  0  0  0  # atno 17395 bound_to 11000

$$$$
