AV-unprocessed.smi:555|AV-procd|sdf|2911|dock4
  -GOLD-   2262023403D 1   1.00000     0.00000
 Structure written by MMmdl.
 50 51  0  0  0  0  0  0  0  0  2 V2000
  153.3544  138.0601  157.6728 C   0  0  0  0  0  0  0  0  0  0  0  0
  153.4174  139.3868  158.1663 O   0  0  0  0  0  0  0  0  0  0  0  0
  152.6586  139.5616  159.3505 C   0  0  0  0  0  0  0  0  0  0  0  0
  152.7893  141.0202  159.8141 C   0  0  0  0  0  0  0  0  0  0  0  0
  152.1797  141.9450  158.8535 N   0  0  0  0  0  0  0  0  0  0  0  0
  151.5965  141.3211  157.7638 N   0  0  0  0  0  0  0  0  0  0  0  0
  151.0346  142.0254  156.8351 C   0  0  0  0  0  0  0  0  0  0  0  0
  150.4037  141.3905  155.6449 C   0  0  0  0  0  0  0  0  0  0  0  0
  150.9020  140.4128  155.0855 O   0  0  0  0  0  0  0  0  0  0  0  0
  149.2551  141.9581  155.2346 N   0  0  0  0  0  0  0  0  0  0  0  0
  148.4441  141.5172  154.1013 C   0  0  2  0  0  0  0  0  0  0  0  0
  147.1011  142.2576  154.0824 C   0  0  0  0  0  0  0  0  0  0  0  0
  146.1838  141.8304  155.2432 C   0  0  0  0  0  0  0  0  0  0  0  0
  145.9508  140.3555  155.2692 N   0  3  2  0  0  0  0  0  0  0  0  0
  144.9919  139.9170  156.3369 C   0  0  0  0  0  0  0  0  0  0  0  0
  143.6106  140.5909  156.1942 C   0  0  0  0  0  0  0  0  0  0  0  0
  145.5183  140.1852  157.7633 C   0  0  0  0  0  0  0  0  0  0  0  0
  147.2468  139.6156  155.3089 C   0  0  0  0  0  0  0  0  0  0  0  0
  148.1752  140.0047  154.1448 C   0  0  0  0  0  0  0  0  0  0  0  0
  151.0021  143.4757  156.9172 C   0  0  0  0  0  0  0  0  0  0  0  0
  151.5790  144.0701  157.9848 C   0  0  0  0  0  0  0  0  0  0  0  0
  152.2271  143.2977  159.0460 C   0  0  0  0  0  0  0  0  0  0  0  0
  152.7702  143.8164  160.0208 O   0  0  0  0  0  0  0  0  0  0  0  0
  153.9502  137.9787  156.7637 H   0  0  0  0  0  0  0  0  0  0  0  0
  152.3293  137.7775  157.4294 H   0  0  0  0  0  0  0  0  0  0  0  0
  153.7508  137.3497  158.3993 H   0  0  0  0  0  0  0  0  0  0  0  0
  151.6125  139.3144  159.1625 H   0  0  0  0  0  0  0  0  0  0  0  0
  153.0230  138.8871  160.1271 H   0  0  0  0  0  0  0  0  0  0  0  0
  152.3128  141.1339  160.7896 H   0  0  0  0  0  0  0  0  0  0  0  0
  153.8394  141.2705  159.9742 H   0  0  0  0  0  0  0  0  0  0  0  0
  148.9240  142.7618  155.7490 H   0  0  0  0  0  0  0  0  0  0  0  0
  148.9814  141.7582  153.1823 H   0  0  0  0  0  0  0  0  0  0  0  0
  147.2656  143.3355  154.1144 H   0  0  0  0  0  0  0  0  0  0  0  0
  146.5948  142.0580  153.1369 H   0  0  0  0  0  0  0  0  0  0  0  0
  146.6039  142.1500  156.1981 H   0  0  0  0  0  0  0  0  0  0  0  0
  145.2471  142.3690  155.1128 H   0  0  0  0  0  0  0  0  0  0  0  0
  144.8503  138.8394  156.2375 H   0  0  0  0  0  0  0  0  0  0  0  0
  142.9707  140.3591  157.0463 H   0  0  0  0  0  0  0  0  0  0  0  0
  143.0676  140.2479  155.3145 H   0  0  0  0  0  0  0  0  0  0  0  0
  143.7010  141.6762  156.1393 H   0  0  0  0  0  0  0  0  0  0  0  0
  144.7513  139.9774  158.5101 H   0  0  0  0  0  0  0  0  0  0  0  0
  145.8225  141.2251  157.8881 H   0  0  0  0  0  0  0  0  0  0  0  0
  146.3631  139.5462  158.0197 H   0  0  0  0  0  0  0  0  0  0  0  0
  147.7411  139.7962  156.2649 H   0  0  0  0  0  0  0  0  0  0  0  0
  147.0848  138.5420  155.2365 H   0  0  0  0  0  0  0  0  0  0  0  0
  147.7158  139.6959  153.2049 H   0  0  0  0  0  0  0  0  0  0  0  0
  149.1128  139.4520  154.2147 H   0  0  0  0  0  0  0  0  0  0  0  0
  150.5300  144.0710  156.1488 H   0  0  0  0  0  0  0  0  0  0  0  0
  151.5624  145.1476  158.0592 H   0  0  0  0  0  0  0  0  0  0  0  0
  145.5171  140.1236  154.3867 H   0  0  0  0  0  0  0  0  0  0  0  0
  1  2  1  0  0  0  0
  1 24  1  0  0  0  0
  1 25  1  0  0  0  0
  1 26  1  0  0  0  0
  2  3  1  0  0  0  0
  3  4  1  0  0  0  0
  3 27  1  0  0  0  0
  3 28  1  0  0  0  0
  4  5  1  0  0  0  0
  4 29  1  0  0  0  0
  4 30  1  0  0  0  0
  5 22  1  0  0  0  0
  5  6  1  0  0  0  0
  6  7  2  0  0  0  0
  7  8  1  0  0  0  0
  7 20  1  0  0  0  0
  8  9  2  0  0  0  0
  8 10  1  0  0  0  0
 10 11  1  0  0  0  0
 10 31  1  0  0  0  0
 11 19  1  0  0  0  0
 11 12  1  0  0  0  0
 11 32  1  0  0  0  0
 12 13  1  0  0  0  0
 12 33  1  0  0  0  0
 12 34  1  0  0  0  0
 13 14  1  0  0  0  0
 13 35  1  0  0  0  0
 13 36  1  0  0  0  0
 14 15  1  0  0  0  0
 14 18  1  0  0  0  0
 14 50  1  0  0  0  0
 15 16  1  0  0  0  0
 15 17  1  0  0  0  0
 15 37  1  0  0  0  0
 16 38  1  0  0  0  0
 16 39  1  0  0  0  0
 16 40  1  0  0  0  0
 17 41  1  0  0  0  0
 17 42  1  0  0  0  0
 17 43  1  0  0  0  0
 18 19  1  0  0  0  0
 18 44  1  0  0  0  0
 18 45  1  0  0  0  0
 19 46  1  0  0  0  0
 19 47  1  0  0  0  0
 20 21  2  0  0  0  0
 20 48  1  0  0  0  0
 21 22  1  0  0  0  0
 21 49  1  0  0  0  0
 22 23  2  0  0  0  0
M  CHG  1  14   1
M  END
> <s_m_source_file>
AV-unprocessed.smi

> <i_m_source_file_index>
555

> <i_lp_mmshare_version>
43012

> <i_f3d_flags>
0

> <s_epik_input>
W0NIM11PW0NIMl1bQ0gyXW4xbmMoW2NIXVtjSF1jMT1PKUMoPU8pW05IXVtDSF0yW0NIMl1bQ0gyXU4oW0NIXShbQ0gzXSlbQ0gzXSlbQ0gyXVtDSDJdMg==

> <s_epik_cmdline>
J2VwaWtfcHl0aG9uJywgJy1waCcsICc3LjAnLCAnLXRuJywgJzgnLCAnLW1hJywgJzIwMCcsICctbWV0YWxfYmluZGluZycsICctaW1hZScsICc8aW5maWxlLm1hZT4nLCAnLW9tYWUnLCAnPG91dGZpbGUubWFlPic=

> <r_lp_tautomer_probability>
1

> <r_epik_Ionization_Penalty>
0.00560205

> <r_epik_Ionization_Penalty_Charging>
0.00559911

> <r_epik_Ionization_Penalty_Neutral>
2.94673e-06

> <r_epik_State_Penalty>
0.00410202

> <r_epik_Charging_Adjusted_Penalty>
0.00970113

> <i_epik_Tot_Q>
1

> <i_epik_Tot_abs_Q>
1

> <r_epik_Metal_State_Penalty>
-0

> <b_epik_Metal_Only>
0

> <s_lp_Force_Field>
OPLS_2005

> <r_lp_Energy>
41.3332

> <b_lp_Chiralities_Consistent>
1

> <s_lp_Variant>
AV-unprocessed.smi:555-2

> <Gold.Version>
5.8.1

> <Gold.Id.Protein>
6NUR|6NUR_protein|mol2

> <Gold.PLP.Fitness>
44.8472

> <Gold.PLP.PLP>
-37.6148

> <Gold.PLP.part.hbond>
-3.0000

> <Gold.PLP.part.metal>
0.0000

> <Gold.PLP.part.buried>
-2.4855

> <Gold.PLP.part.nonpolar>
-31.8841

> <Gold.PLP.part.repulsive>
0.2522

> <Gold.PLP.ligand.clash>
0.0000

> <Gold.PLP.ligand.torsion>
0.7228

> <Gold.PLP.Chemscore.Hbond>
2.8320

> <Gold.PLP.Chemscore.CHOScore>
0.0000

> <Gold.PLP.Chemscore.Metal>
0.0000

> <Gold.Chemscore.Hbonds>
donor molecule, donor type, donor heavy atom, donor atom, acceptor molecule, acceptor atom, score
      L1  H    10    31       P1  8028  0.82
      P1  H  7989  7998       L1     9  1.00
      P1  H  7997  8010       L1     2  1.00

> <Gold.PLP.Chemscore.Internal.Correction>
0.1820

> <Gold.Rescore>
     Score         DG    S(hbond)    S(metal)    S(lipo)     H(rot)  DE(clash)    DE(int)     intcor
     14.50     -17.65       2.39        0.00      73.78       1.74       0.67       2.47       ----

> <Gold.Chemscore.Fitness>
14.4993

> <Gold.Chemscore.DG>
-17.6464

> <Gold.Chemscore.ZeroCoef>
-5.4800

> <Gold.Chemscore.Hbond>
2.3947

> <Gold.Chemscore.Metal>
0.0000

> <Gold.Chemscore.Lipo>
73.7797

> <Gold.Chemscore.Internal_Hbond>
0.0000

> <Gold.Chemscore.DEClash>
0.6724

> <Gold.Chemscore.DEInternal>
2.4747

> <Gold.Chemscore.Rot>
1.7438

> <Gold.Chemscore.Internal.Correction>
   9.000000E+99

> <Gold.Chemscore.Hbonds>
donor molecule, donor type, donor heavy atom, donor atom, acceptor molecule, acceptor atom, score
      L1  H    10    31       P1  8028  0.80
      P1  H  7989  7998       L1     9  0.76
      P1  H  7997  8010       L1     2  0.25

> <Gold.Chemscore.Hbond.Weighted>
-7.9983

> <Gold.Chemscore.Metal.Weighted>
-0.0000

> <Gold.Chemscore.Lipo.Weighted>
-8.6322

> <Gold.Chemscore.Internal_Hbond.Weighted>
0.0000

> <Gold.Chemscore.DEClash.Weighted>
0.6724

> <Gold.Chemscore.DEInternal.Weighted>
2.4747

> <Gold.Chemscore.Rot.Weighted>
4.4642

> <Gold.Chemscore.Internal.Correction.Weighted>
   9.000000E+99

> <Gold.Protein.RotatedTorsions>
[ 6907 6896 6895 6894 ] final  154.08 input  -60.11 | X-H torsion
[ 7974 7965 7964 7962 ] final -138.30 input  175.53 | X-H torsion
[ 8008 7997 7996 7995 ] final   18.04 input   59.86 | X-H torsion
[ 10167 10162 10161 10158 ] final  -96.94 input  -65.29 | X-H torsion
[ 10718 10713 10712 10709 ] final  116.58 input   66.30 | X-H torsion
[ 10763 10752 10751 10750 ] final  -43.84 input  -60.55 | X-H torsion
[ 11005 11000 10999 10996 ] final   75.15 input  -57.11 | X-H torsion

> <Gold.Protein.ActiveResidues>
 VAL166  LYS551  ARG553  GLY616  TRP617  ASP618  TYR619  PRO620  LYS621  CYS622 
 ASP623  PHE694  ASN695  SER759  ASP760  ASP761  ALA762  ILE779  LEU786  VAL792 
 PHE793  MET794  SER795  GLU796  ALA797  LYS798  CYS799  TRP800  GLU811  SER814 

> <Gold.Protein.RotatedAtoms>
  152.0635  133.4073  159.4427 H   0  0  0  0  0  0  0  0  0  0  0  0  # atno 6907 bound_to 6896
  150.6865  134.3173  159.4781 H   0  0  0  0  0  0  0  0  0  0  0  0  # atno 6908 bound_to 6896
  152.0997  134.9350  160.0620 H   0  0  0  0  0  0  0  0  0  0  0  0  # atno 6909 bound_to 6896
  144.8769  140.6451  143.5230 H   0  0  0  0  0  0  0  0  0  0  0  0  # atno 7974 bound_to 7965
  154.9001  140.2999  155.5322 H   0  0  0  0  0  0  0  0  0  0  0  0  # atno 8008 bound_to 7997
  156.3019  140.2408  156.3963 H   0  0  0  0  0  0  0  0  0  0  0  0  # atno 8009 bound_to 7997
  154.8530  140.0408  157.1605 H   0  0  0  0  0  0  0  0  0  0  0  0  # atno 8010 bound_to 7997
  140.2886  143.3236  152.0368 H   0  0  0  0  0  0  0  0  0  0  0  0  # atno 10167 bound_to 10162
  157.6151  131.1027  150.7492 H   0  0  0  0  0  0  0  0  0  0  0  0  # atno 10718 bound_to 10713
  154.0021  135.6692  153.4760 H   0  0  0  0  0  0  0  0  0  0  0  0  # atno 10763 bound_to 10752
  153.0658  135.5002  154.8192 H   0  0  0  0  0  0  0  0  0  0  0  0  # atno 10764 bound_to 10752
  154.7046  135.3085  154.9253 H   0  0  0  0  0  0  0  0  0  0  0  0  # atno 10765 bound_to 10752
  139.9357  134.7493  156.1236 H   0  0  0  0  0  0  0  0  0  0  0  0  # atno 11005 bound_to 11000
  145.4025  139.1595  143.4170 LP  0  0  0  0  0  0  0  0  0  0  0  0  # atno 17320 bound_to 7965
  146.2969  140.4123  142.8718 LP  0  0  0  0  0  0  0  0  0  0  0  0  # atno 17321 bound_to 7965
  139.4944  144.6541  151.6612 LP  0  0  0  0  0  0  0  0  0  0  0  0  # atno 17342 bound_to 10162
  140.5751  144.0042  150.6237 LP  0  0  0  0  0  0  0  0  0  0  0  0  # atno 17343 bound_to 10162
  156.7861  130.4875  149.5392 LP  0  0  0  0  0  0  0  0  0  0  0  0  # atno 17370 bound_to 10713
  156.1270  130.6151  151.0278 LP  0  0  0  0  0  0  0  0  0  0  0  0  # atno 17371 bound_to 10713
  141.0969  133.6692  156.2666 LP  0  0  0  0  0  0  0  0  0  0  0  0  # atno 17394 bound_to 11000
  140.6082  134.5485  157.5529 LP  0  0  0  0  0  0  0  0  0  0  0  0  # atno 17395 bound_to 11000

$$$$
