AV-unprocessed.smi:698|AV-procd|sdf|3398|dock2
  -GOLD-   22720 0383D 1   1.00000     0.00000
 Structure written by MMmdl.
 33 34  0  0  0  0  0  0  0  0  1 V2000
  154.4393  139.6379  160.7779 C   0  0  0  0  0  0  0  0  0  0  0  0
  153.4703  140.3883  159.8613 C   0  0  0  0  0  0  0  0  0  0  0  0
  153.4572  141.7630  160.2349 O   0  0  0  0  0  0  0  0  0  0  0  0
  152.7039  142.6412  159.4829 C   0  0  0  0  0  0  0  0  0  0  0  0
  152.6886  144.0012  159.8458 C   0  0  0  0  0  0  0  0  0  0  0  0
  151.9199  144.8923  159.0761 C   0  0  0  0  0  0  0  0  0  0  0  0
  151.1960  144.3919  157.9771 C   0  0  0  0  0  0  0  0  0  0  0  0
  151.2584  143.0135  157.6755 C   0  0  0  0  0  0  0  0  0  0  0  0
  150.4929  142.6058  156.5511 N   0  0  0  0  0  0  0  0  0  0  0  0
  150.4290  141.3868  155.9831 C   0  0  0  0  0  0  0  0  0  0  0  0
  151.0404  140.3952  156.3840 O   0  0  0  0  0  0  0  0  0  0  0  0
  149.4995  141.2748  154.7686 C   0  0  1  0  0  0  0  0  0  0  0  0
  149.3473  139.8473  154.2080 C   0  0  0  0  0  0  0  0  0  0  0  0
  147.9125  139.4822  154.5369 C   0  0  0  0  0  0  0  0  0  0  0  0
  147.2343  140.8446  154.5370 C   0  0  0  0  0  0  0  0  0  0  0  0
  148.1917  141.6758  155.1729 O   0  0  0  0  0  0  0  0  0  0  0  0
  152.0056  142.1646  158.4230 N   0  0  0  0  0  0  0  0  0  0  0  0
  154.4852  138.5812  160.5136 H   0  0  0  0  0  0  0  0  0  0  0  0
  154.1268  139.7091  161.8199 H   0  0  0  0  0  0  0  0  0  0  0  0
  155.4472  140.0464  160.7005 H   0  0  0  0  0  0  0  0  0  0  0  0
  153.7903  140.2803  158.8235 H   0  0  0  0  0  0  0  0  0  0  0  0
  152.4719  139.9573  159.9531 H   0  0  0  0  0  0  0  0  0  0  0  0
  153.2548  144.3527  160.6957 H   0  0  0  0  0  0  0  0  0  0  0  0
  151.8850  145.9427  159.3243 H   0  0  0  0  0  0  0  0  0  0  0  0
  150.5993  145.0630  157.3763 H   0  0  0  0  0  0  0  0  0  0  0  0
  149.9220  143.3235  156.1296 H   0  0  0  0  0  0  0  0  0  0  0  0
  149.8427  141.9402  153.9744 H   0  0  0  0  0  0  0  0  0  0  0  0
  149.4886  139.8633  153.1267 H   0  0  0  0  0  0  0  0  0  0  0  0
  150.0561  139.1248  154.6146 H   0  0  0  0  0  0  0  0  0  0  0  0
  147.4720  138.7850  153.8239 H   0  0  0  0  0  0  0  0  0  0  0  0
  147.8572  139.0377  155.5315 H   0  0  0  0  0  0  0  0  0  0  0  0
  147.0621  141.1960  153.5186 H   0  0  0  0  0  0  0  0  0  0  0  0
  146.2835  140.8447  155.0701 H   0  0  0  0  0  0  0  0  0  0  0  0
  1  2  1  0  0  0  0
  1 18  1  0  0  0  0
  1 19  1  0  0  0  0
  1 20  1  0  0  0  0
  2  3  1  0  0  0  0
  2 21  1  0  0  0  0
  2 22  1  0  0  0  0
  3  4  1  0  0  0  0
  4 17  1  0  0  0  0
  4  5  2  0  0  0  0
  5  6  1  0  0  0  0
  5 23  1  0  0  0  0
  6  7  2  0  0  0  0
  6 24  1  0  0  0  0
  7  8  1  0  0  0  0
  7 25  1  0  0  0  0
  8  9  1  0  0  0  0
  8 17  2  0  0  0  0
  9 10  1  0  0  0  0
  9 26  1  0  0  0  0
 10 11  2  0  0  0  0
 10 12  1  0  0  0  0
 12 16  1  0  0  0  0
 12 13  1  0  0  0  0
 12 27  1  0  0  0  0
 13 14  1  0  0  0  0
 13 28  1  0  0  0  0
 13 29  1  0  0  0  0
 14 15  1  0  0  0  0
 14 30  1  0  0  0  0
 14 31  1  0  0  0  0
 15 16  1  0  0  0  0
 15 32  1  0  0  0  0
 15 33  1  0  0  0  0
M  END
> <s_m_source_file>
AV-unprocessed.smi

> <i_m_source_file_index>
698

> <i_lp_mmshare_version>
43012

> <i_f3d_flags>
0

> <s_epik_input>
W0NIM11bQ0gyXU9jMVtjSF1bY0hdW2NIXWMobjEpW05IXUMoPU8pW0NAQEhdMltDSDJdW0NIMl1bQ0gyXU8y

> <s_epik_cmdline>
J2VwaWtfcHl0aG9uJywgJy1waCcsICc3LjAnLCAnLXRuJywgJzgnLCAnLW1hJywgJzIwMCcsICctbWV0YWxfYmluZGluZycsICctaW1hZScsICc8aW5maWxlLm1hZT4nLCAnLW9tYWUnLCAnPG91dGZpbGUubWFlPic=

> <r_lp_tautomer_probability>
1

> <r_epik_Ionization_Penalty>
3.42089e-05

> <r_epik_Ionization_Penalty_Charging>
0

> <r_epik_Ionization_Penalty_Neutral>
3.42089e-05

> <r_epik_State_Penalty>
-0

> <r_epik_Charging_Adjusted_Penalty>
0

> <i_epik_Tot_Q>
0

> <i_epik_Tot_abs_Q>
0

> <r_epik_Metal_State_Penalty>
-0

> <b_epik_Metal_Only>
0

> <s_lp_Force_Field>
OPLS_2005

> <r_lp_Energy>
20.5333

> <b_lp_Chiralities_Consistent>
1

> <s_lp_Variant>
AV-unprocessed.smi:698-2

> <Gold.Version>
5.8.1

> <Gold.Id.Protein>
6NUR|6NUR_protein|mol2

> <Gold.PLP.Fitness>
38.8877

> <Gold.PLP.PLP>
-35.9420

> <Gold.PLP.part.hbond>
-1.0000

> <Gold.PLP.part.metal>
0.0000

> <Gold.PLP.part.buried>
-4.5986

> <Gold.PLP.part.nonpolar>
-30.4463

> <Gold.PLP.part.repulsive>
0.2957

> <Gold.PLP.ligand.clash>
0.0000

> <Gold.PLP.ligand.torsion>
0.0335

> <Gold.PLP.Chemscore.Hbond>
1.0000

> <Gold.PLP.Chemscore.CHOScore>
0.0000

> <Gold.PLP.Chemscore.Metal>
0.0000

> <Gold.Chemscore.Hbonds>
donor molecule, donor type, donor heavy atom, donor atom, acceptor molecule, acceptor atom, score
      L1  H     9    26       P1  8028  1.00

> <Gold.PLP.Chemscore.Internal.Correction>
0.0127

> <Gold.Rescore>
     Score         DG    S(hbond)    S(metal)    S(lipo)     H(rot)  DE(clash)    DE(int)     intcor
     12.97     -14.45       0.99        0.00      79.30       1.42       0.08       1.40       ----

> <Gold.Chemscore.Fitness>
12.9689

> <Gold.Chemscore.DG>
-14.4495

> <Gold.Chemscore.ZeroCoef>
-5.4800

> <Gold.Chemscore.Hbond>
0.9947

> <Gold.Chemscore.Metal>
0.0000

> <Gold.Chemscore.Lipo>
79.3029

> <Gold.Chemscore.Internal_Hbond>
0.0000

> <Gold.Chemscore.DEClash>
0.0841

> <Gold.Chemscore.DEInternal>
1.3965

> <Gold.Chemscore.Rot>
1.4185

> <Gold.Chemscore.Internal.Correction>
   9.000000E+99

> <Gold.Chemscore.Hbonds>
donor molecule, donor type, donor heavy atom, donor atom, acceptor molecule, acceptor atom, score
      L1  H     9    26       P1  8028  1.00

> <Gold.Chemscore.Hbond.Weighted>
-3.3224

> <Gold.Chemscore.Metal.Weighted>
-0.0000

> <Gold.Chemscore.Lipo.Weighted>
-9.2784

> <Gold.Chemscore.Internal_Hbond.Weighted>
0.0000

> <Gold.Chemscore.DEClash.Weighted>
0.0841

> <Gold.Chemscore.DEInternal.Weighted>
1.3965

> <Gold.Chemscore.Rot.Weighted>
3.6313

> <Gold.Chemscore.Internal.Correction.Weighted>
   9.000000E+99

> <Gold.Protein.RotatedTorsions>
[ 6907 6896 6895 6894 ] final  -55.48 input  -60.11 | X-H torsion
[ 7974 7965 7964 7962 ] final  -45.94 input  175.53 | X-H torsion
[ 8008 7997 7996 7995 ] final  156.21 input   59.86 | X-H torsion
[ 10167 10162 10161 10158 ] final   65.80 input  -65.29 | X-H torsion
[ 10718 10713 10712 10709 ] final   50.43 input   66.30 | X-H torsion
[ 10763 10752 10751 10750 ] final  -49.82 input  -60.55 | X-H torsion
[ 11005 11000 10999 10996 ] final  146.85 input  -57.11 | X-H torsion

> <Gold.Protein.ActiveResidues>
 VAL166  LYS551  ARG553  GLY616  TRP617  ASP618  TYR619  PRO620  LYS621  CYS622 
 ASP623  PHE694  ASN695  SER759  ASP760  ASP761  ALA762  ILE779  LEU786  VAL792 
 PHE793  MET794  SER795  GLU796  ALA797  LYS798  CYS799  TRP800  GLU811  SER814 

> <Gold.Protein.RotatedAtoms>
  150.8248  134.7474  159.6803 H   0  0  0  0  0  0  0  0  0  0  0  0  # atno 6907 bound_to 6896
  152.4360  134.5682  159.9923 H   0  0  0  0  0  0  0  0  0  0  0  0  # atno 6908 bound_to 6896
  151.5857  133.3335  159.3053 H   0  0  0  0  0  0  0  0  0  0  0  0  # atno 6909 bound_to 6896
  145.9770  140.7323  142.9382 H   0  0  0  0  0  0  0  0  0  0  0  0  # atno 7974 bound_to 7965
  156.2435  140.1918  156.6920 H   0  0  0  0  0  0  0  0  0  0  0  0  # atno 8008 bound_to 7997
  154.6244  140.0604  156.9682 H   0  0  0  0  0  0  0  0  0  0  0  0  # atno 8009 bound_to 7997
  155.1810  140.3276  155.4378 H   0  0  0  0  0  0  0  0  0  0  0  0  # atno 8010 bound_to 7997
  140.1073  144.4849  150.6999 H   0  0  0  0  0  0  0  0  0  0  0  0  # atno 10167 bound_to 10162
  157.4883  130.8359  149.8173 H   0  0  0  0  0  0  0  0  0  0  0  0  # atno 10718 bound_to 10713
  154.1003  135.6564  153.4867 H   0  0  0  0  0  0  0  0  0  0  0  0  # atno 10763 bound_to 10752
  153.0291  135.5223  154.7293 H   0  0  0  0  0  0  0  0  0  0  0  0  # atno 10764 bound_to 10752
  154.6443  135.2992  155.0035 H   0  0  0  0  0  0  0  0  0  0  0  0  # atno 10765 bound_to 10752
  140.0827  134.9088  157.1526 H   0  0  0  0  0  0  0  0  0  0  0  0  # atno 11005 bound_to 11000
  144.6851  140.2844  143.7287 LP  0  0  0  0  0  0  0  0  0  0  0  0  # atno 17320 bound_to 7965
  145.7824  139.1896  143.2150 LP  0  0  0  0  0  0  0  0  0  0  0  0  # atno 17321 bound_to 7965
  140.6945  143.2395  151.5040 LP  0  0  0  0  0  0  0  0  0  0  0  0  # atno 17342 bound_to 10162
  139.5638  144.2092  152.1733 LP  0  0  0  0  0  0  0  0  0  0  0  0  # atno 17343 bound_to 10162
  156.0159  130.3814  150.2112 LP  0  0  0  0  0  0  0  0  0  0  0  0  # atno 17370 bound_to 10713
  157.0300  131.0004  151.3315 LP  0  0  0  0  0  0  0  0  0  0  0  0  # atno 17371 bound_to 10713
  140.3465  134.2646  155.7204 LP  0  0  0  0  0  0  0  0  0  0  0  0  # atno 17394 bound_to 11000
  141.2052  133.7866  157.0246 LP  0  0  0  0  0  0  0  0  0  0  0  0  # atno 17395 bound_to 11000

$$$$
