AV-unprocessed.smi:287|AV-procd|sdf|2200|dock6
  -GOLD-   2262022 13D 1   1.00000     0.00000
 Structure written by MMmdl.
 55 58  0  0  0  0  0  0  0  0  1 V2000
  135.8437  142.4196  152.8608 C   0  0  0  0  0  0  0  0  0  0  0  0
  136.7546  141.3131  153.2688 C   0  0  0  0  0  0  0  0  0  0  0  0
  138.1089  141.1478  153.2464 C   0  0  0  0  0  0  0  0  0  0  0  0
  138.3899  139.8593  153.7922 C   0  0  0  0  0  0  0  0  0  0  0  0
  139.7660  139.2314  153.9683 C   0  0  2  0  0  0  0  0  0  0  0  0
  140.6662  140.1776  154.7789 C   0  0  0  0  0  0  0  0  0  0  0  0
  140.4347  139.0355  152.7371 O   0  0  0  0  0  0  0  0  0  0  0  0
  139.7125  137.8400  154.6416 C   0  0  0  0  0  0  0  0  0  0  0  0
  141.0359  137.2810  154.8977 N   0  0  0  0  0  0  0  0  0  0  0  0
  141.5286  136.3084  154.1034 C   0  0  0  0  0  0  0  0  0  0  0  0
  140.8646  135.1347  153.9381 N   0  0  0  0  0  0  0  0  0  0  0  0
  141.3777  134.1842  153.1513 C   0  0  0  0  0  0  0  0  0  0  0  0
  142.5148  134.2035  152.4531 N   0  0  0  0  0  0  0  0  0  0  0  0
  143.1830  135.3829  152.6119 C   0  0  0  0  0  0  0  0  0  0  0  0
  142.7577  136.4769  153.4157 C   0  0  0  0  0  0  0  0  0  0  0  0
  143.6860  137.5068  153.3405 N   0  0  0  0  0  0  0  0  0  0  0  0
  144.6067  137.0429  152.5388 C   0  0  0  0  0  0  0  0  0  0  0  0
  144.3837  135.7732  152.0538 N   0  0  0  0  0  0  0  0  0  0  0  0
  145.2542  134.9879  151.1287 C   0  0  1  0  0  0  0  0  0  0  0  0
  146.3962  134.6059  151.8257 O   0  0  0  0  0  0  0  0  0  0  0  0
  146.8159  133.3324  151.3590 C   0  0  1  0  0  0  0  0  0  0  0  0
  147.7668  132.6621  152.3661 C   0  0  0  0  0  0  0  0  0  0  0  0
  147.6265  131.2589  152.3041 O   0  0  0  0  0  0  0  0  0  0  0  0
  145.4905  132.5980  151.1007 C   0  0  1  0  0  0  0  0  0  0  0  0
  144.9977  131.9777  152.2737 O   0  0  0  0  0  0  0  0  0  0  0  0
  144.5463  133.7096  150.6453 C   0  0  2  0  0  0  0  0  0  0  0  0
  144.4446  133.6902  149.2351 O   0  0  0  0  0  0  0  0  0  0  0  0
  137.1575  139.3272  154.0852 C   0  0  0  0  0  0  0  0  0  0  0  0
  136.7014  138.0217  154.6486 C   0  0  0  0  0  0  0  0  0  0  0  0
  136.1616  140.2045  153.7781 O   0  0  0  0  0  0  0  0  0  0  0  0
  145.5109  135.6798  150.3250 H   0  0  0  0  0  0  0  0  0  0  0  0
  147.3198  133.4681  150.3997 H   0  0  0  0  0  0  0  0  0  0  0  0
  145.6125  131.8170  150.3487 H   0  0  0  0  0  0  0  0  0  0  0  0
  143.5491  133.6164  151.0797 H   0  0  0  0  0  0  0  0  0  0  0  0
  136.4093  143.2641  152.4668 H   0  0  0  0  0  0  0  0  0  0  0  0
  135.2590  142.7718  153.7107 H   0  0  0  0  0  0  0  0  0  0  0  0
  135.1516  142.0858  152.0877 H   0  0  0  0  0  0  0  0  0  0  0  0
  138.8219  141.8748  152.8869 H   0  0  0  0  0  0  0  0  0  0  0  0
  140.2481  140.3680  155.7680 H   0  0  0  0  0  0  0  0  0  0  0  0
  140.7796  141.1413  154.2800 H   0  0  0  0  0  0  0  0  0  0  0  0
  141.6635  139.7592  154.9201 H   0  0  0  0  0  0  0  0  0  0  0  0
  140.2333  139.7622  152.1679 H   0  0  0  0  0  0  0  0  0  0  0  0
  139.1283  137.8796  155.5623 H   0  0  0  0  0  0  0  0  0  0  0  0
  139.1974  137.1454  153.9761 H   0  0  0  0  0  0  0  0  0  0  0  0
  141.5555  137.6996  155.6565 H   0  0  0  0  0  0  0  0  0  0  0  0
  140.7951  133.2788  153.0698 H   0  0  0  0  0  0  0  0  0  0  0  0
  145.4811  137.6203  152.2762 H   0  0  0  0  0  0  0  0  0  0  0  0
  148.8036  132.9471  152.1838 H   0  0  0  0  0  0  0  0  0  0  0  0
  147.5165  132.9681  153.3821 H   0  0  0  0  0  0  0  0  0  0  0  0
  148.0685  130.9465  151.5294 H   0  0  0  0  0  0  0  0  0  0  0  0
  144.1118  131.6906  152.1145 H   0  0  0  0  0  0  0  0  0  0  0  0
  145.0648  134.3090  148.8808 H   0  0  0  0  0  0  0  0  0  0  0  0
  137.1392  137.1893  154.0975 H   0  0  0  0  0  0  0  0  0  0  0  0
  135.6169  137.9249  154.5948 H   0  0  0  0  0  0  0  0  0  0  0  0
  136.9958  137.9283  155.6938 H   0  0  0  0  0  0  0  0  0  0  0  0
  1  2  1  0  0  0  0
  1 35  1  0  0  0  0
  1 36  1  0  0  0  0
  1 37  1  0  0  0  0
  2 30  1  0  0  0  0
  2  3  2  0  0  0  0
  3  4  1  0  0  0  0
  3 38  1  0  0  0  0
  4  5  1  0  0  0  0
  4 28  2  0  0  0  0
  5  6  1  0  0  0  0
  5  7  1  0  0  0  0
  5  8  1  0  0  0  0
  6 39  1  0  0  0  0
  6 40  1  0  0  0  0
  6 41  1  0  0  0  0
  7 42  1  0  0  0  0
  8  9  1  0  0  0  0
  8 43  1  0  0  0  0
  8 44  1  0  0  0  0
  9 10  1  0  0  0  0
  9 45  1  0  0  0  0
 10 15  1  0  0  0  0
 10 11  2  0  0  0  0
 11 12  1  0  0  0  0
 12 13  2  0  0  0  0
 12 46  1  0  0  0  0
 13 14  1  0  0  0  0
 14 18  1  0  0  0  0
 14 15  2  0  0  0  0
 15 16  1  0  0  0  0
 16 17  2  0  0  0  0
 17 18  1  0  0  0  0
 17 47  1  0  0  0  0
 18 19  1  0  0  0  0
 19 31  1  0  0  0  0
 19 26  1  0  0  0  0
 19 20  1  0  0  0  0
 20 21  1  0  0  0  0
 21 32  1  0  0  0  0
 21 22  1  0  0  0  0
 21 24  1  0  0  0  0
 22 23  1  0  0  0  0
 22 48  1  0  0  0  0
 22 49  1  0  0  0  0
 23 50  1  0  0  0  0
 24 33  1  0  0  0  0
 24 25  1  0  0  0  0
 24 26  1  0  0  0  0
 25 51  1  0  0  0  0
 26 34  1  0  0  0  0
 26 27  1  0  0  0  0
 27 52  1  0  0  0  0
 28 29  1  0  0  0  0
 28 30  1  0  0  0  0
 29 53  1  0  0  0  0
 29 54  1  0  0  0  0
 29 55  1  0  0  0  0
M  END
> <s_m_source_file>
AV-unprocessed.smi

> <i_m_source_file_index>
287

> <i_lp_mmshare_version>
43012

> <i_f3d_flags>
0

> <s_epik_input>
W0NIM11jMVtjSF1jKGMobzEpW0NIM10pW0NAQF0oW0NIM10pKFtPSF0pW0NIMl1bTkhdYyhuW2NIXW4yKWMoYzIzKW5bY0hdbjNbQ0BASF00T1tDQEhdKFtDSDJdW09IXSlbQ0BASF0oW09IXSlbQ0BIXTRbT0hd

> <s_epik_cmdline>
J2VwaWtfcHl0aG9uJywgJy1waCcsICc3LjAnLCAnLXRuJywgJzgnLCAnLW1hJywgJzIwMCcsICctbWV0YWxfYmluZGluZycsICctaW1hZScsICc8aW5maWxlLm1hZT4nLCAnLW9tYWUnLCAnPG91dGZpbGUubWFlPic=

> <r_lp_tautomer_probability>
1

> <r_epik_Ionization_Penalty>
0.000992612

> <r_epik_Ionization_Penalty_Charging>
0

> <r_epik_Ionization_Penalty_Neutral>
0.000992612

> <r_epik_State_Penalty>
-0

> <r_epik_Charging_Adjusted_Penalty>
0

> <i_epik_Tot_Q>
0

> <i_epik_Tot_abs_Q>
0

> <r_epik_Metal_State_Penalty>
-0

> <b_epik_Metal_Only>
0

> <s_epik_Chemistry_Notes>
This compound contains an acetal/aminal-like group ( X-CH(R)-Y where X, Y are N, S, or O) that may be acid/base labile, releasing an aldehyde.

> <s_lp_Force_Field>
OPLS_2005

> <r_lp_Energy>
38.4634

> <b_lp_Chiralities_Consistent>
1

> <s_lp_Variant>
AV-unprocessed.smi:287-24

> <Gold.Version>
5.8.1

> <Gold.Id.Protein>
6NUR|6NUR_protein|mol2

> <Gold.PLP.Fitness>
57.5151

> <Gold.PLP.PLP>
-47.7395

> <Gold.PLP.part.hbond>
-3.4817

> <Gold.PLP.part.metal>
0.0000

> <Gold.PLP.part.buried>
-8.5439

> <Gold.PLP.part.nonpolar>
-37.0443

> <Gold.PLP.part.repulsive>
2.1705

> <Gold.PLP.ligand.clash>
0.0000

> <Gold.PLP.ligand.torsion>
1.2757

> <Gold.PLP.Chemscore.Hbond>
3.9920

> <Gold.PLP.Chemscore.CHOScore>
0.0458

> <Gold.PLP.Chemscore.Metal>
0.0000

> <Gold.Chemscore.Hbonds>
donor molecule, donor type, donor heavy atom, donor atom, acceptor molecule, acceptor atom, score
      L1  H     7    42       P1 10160  0.97
      L1  H    23    50       P1 10747  1.00
      L1  H    27    52       P1  7921  1.00
      P1  H 11000 11005       L1    11  0.98
      L1  C    12    46       P1 10957  0.02

> <Gold.PLP.Chemscore.Internal.Correction>
0.2136

> <Gold.Rescore>
     Score         DG    S(hbond)    S(metal)    S(lipo)     H(rot)  DE(clash)    DE(int)     intcor
      8.79     -14.47       3.57        0.00      90.08       5.27       1.72       3.96       ----

> <Gold.Chemscore.Fitness>
8.7941

> <Gold.Chemscore.DG>
-14.4730

> <Gold.Chemscore.ZeroCoef>
-5.4800

> <Gold.Chemscore.Hbond>
3.5742

> <Gold.Chemscore.Metal>
0.0000

> <Gold.Chemscore.Lipo>
90.0772

> <Gold.Chemscore.Internal_Hbond>
0.0000

> <Gold.Chemscore.DEClash>
1.7161

> <Gold.Chemscore.DEInternal>
3.9628

> <Gold.Chemscore.Rot>
5.2672

> <Gold.Chemscore.Internal.Correction>
   9.000000E+99

> <Gold.Chemscore.Hbonds>
donor molecule, donor type, donor heavy atom, donor atom, acceptor molecule, acceptor atom, score
      L1  H     7    42       P1 10160  0.85
      L1  H    23    50       P1 10747  0.94
      L1  H    27    52       P1  7921  0.94
      P1  H 11000 11005       L1    11  0.51

> <Gold.Chemscore.Hbond.Weighted>
-11.9379

> <Gold.Chemscore.Metal.Weighted>
-0.0000

> <Gold.Chemscore.Lipo.Weighted>
-10.5390

> <Gold.Chemscore.Internal_Hbond.Weighted>
0.0000

> <Gold.Chemscore.DEClash.Weighted>
1.7161

> <Gold.Chemscore.DEInternal.Weighted>
3.9628

> <Gold.Chemscore.Rot.Weighted>
13.4839

> <Gold.Chemscore.Internal.Correction.Weighted>
   9.000000E+99

> <Gold.Protein.RotatedTorsions>
[ 6907 6896 6895 6894 ] final -158.65 input  -60.11 | X-H torsion
[ 7974 7965 7964 7962 ] final -137.03 input  175.53 | X-H torsion
[ 8008 7997 7996 7995 ] final  155.43 input   59.86 | X-H torsion
[ 10167 10162 10161 10158 ] final   95.59 input  -65.29 | X-H torsion
[ 10718 10713 10712 10709 ] final -165.54 input   66.30 | X-H torsion
[ 10763 10752 10751 10750 ] final -141.96 input  -60.55 | X-H torsion
[ 11005 11000 10999 10996 ] final   26.09 input  -57.11 | X-H torsion

> <Gold.Protein.ActiveResidues>
 VAL166  LYS551  ARG553  GLY616  TRP617  ASP618  TYR619  PRO620  LYS621  CYS622 
 ASP623  PHE694  ASN695  SER759  ASP760  ASP761  ALA762  ILE779  LEU786  VAL792 
 PHE793  MET794  SER795  GLU796  ALA797  LYS798  CYS799  TRP800  GLU811  SER814 

> <Gold.Protein.RotatedAtoms>
  151.3215  133.4038  159.2654 H   0  0  0  0  0  0  0  0  0  0  0  0  # atno 6907 bound_to 6896
  151.0030  134.9338  159.7975 H   0  0  0  0  0  0  0  0  0  0  0  0  # atno 6908 bound_to 6896
  152.5280  134.3180  159.9190 H   0  0  0  0  0  0  0  0  0  0  0  0  # atno 6909 bound_to 6896
  144.8877  140.6598  143.5165 H   0  0  0  0  0  0  0  0  0  0  0  0  # atno 7974 bound_to 7965
  156.2478  140.1939  156.6800 H   0  0  0  0  0  0  0  0  0  0  0  0  # atno 8008 bound_to 7997
  154.6329  140.0593  156.9779 H   0  0  0  0  0  0  0  0  0  0  0  0  # atno 8009 bound_to 7997
  155.1683  140.3266  155.4400 H   0  0  0  0  0  0  0  0  0  0  0  0  # atno 8010 bound_to 7997
  139.7974  144.6827  150.9810 H   0  0  0  0  0  0  0  0  0  0  0  0  # atno 10167 bound_to 10162
  156.6549  130.9022  151.3019 H   0  0  0  0  0  0  0  0  0  0  0  0  # atno 10718 bound_to 10713
  154.8526  135.3509  154.5952 H   0  0  0  0  0  0  0  0  0  0  0  0  # atno 10763 bound_to 10752
  153.6561  135.6992  153.5197 H   0  0  0  0  0  0  0  0  0  0  0  0  # atno 10764 bound_to 10752
  153.2855  135.4250  155.1076 H   0  0  0  0  0  0  0  0  0  0  0  0  # atno 10765 bound_to 10752
  140.3408  134.2335  155.7690 H   0  0  0  0  0  0  0  0  0  0  0  0  # atno 11005 bound_to 11000
  145.3840  139.1631  143.4265 LP  0  0  0  0  0  0  0  0  0  0  0  0  # atno 17320 bound_to 7965
  146.3034  140.3923  142.8696 LP  0  0  0  0  0  0  0  0  0  0  0  0  # atno 17321 bound_to 7965
  140.7820  143.4317  151.0685 LP  0  0  0  0  0  0  0  0  0  0  0  0  # atno 17342 bound_to 10162
  139.7990  143.8110  152.3161 LP  0  0  0  0  0  0  0  0  0  0  0  0  # atno 17343 bound_to 10162
  157.7129  130.9461  150.1150 LP  0  0  0  0  0  0  0  0  0  0  0  0  # atno 17370 bound_to 10713
  156.2055  130.3663  149.8734 LP  0  0  0  0  0  0  0  0  0  0  0  0  # atno 17371 bound_to 10713
  141.2039  133.7900  157.0316 LP  0  0  0  0  0  0  0  0  0  0  0  0  # atno 17394 bound_to 11000
  140.0783  134.9663  157.1582 LP  0  0  0  0  0  0  0  0  0  0  0  0  # atno 17395 bound_to 11000

$$$$
