AV-unprocessed.smi:729|AV-procd|sdf|3520|dock2
  -GOLD-   22720 0513D 1   1.00000     0.00000
 Structure written by MMmdl.
 21 21  0  0  0  0  0  0  0  0  2 V2000
  152.6307  139.3435  158.8221 C   0  0  0  0  0  0  0  0  0  0  0  0
  151.8896  140.2916  157.8855 C   0  0  0  0  0  0  0  0  0  0  0  0
  151.6746  141.5723  158.2381 C   0  0  0  0  0  0  0  0  0  0  0  0
  151.0029  142.4648  157.3277 C   0  0  0  0  0  0  0  0  0  0  0  0
  150.7742  143.7362  157.6790 O   0  0  0  0  0  0  0  0  0  0  0  0
  150.6159  142.0140  156.1212 C   0  0  0  0  0  0  0  0  0  0  0  0
  150.8431  140.6299  155.6996 C   0  0  0  0  0  0  0  0  0  0  0  0
  150.4929  140.2465  154.5826 O   0  0  0  0  0  0  0  0  0  0  0  0
  151.4445  139.8039  156.6176 N   0  0  0  0  0  0  0  0  0  0  0  0
  151.6824  138.3887  156.2415 C   0  0  0  0  0  0  0  0  0  0  0  0
  152.3758  138.2358  154.8823 C   0  0  0  0  0  0  0  0  0  0  0  0
  151.8923  137.4017  154.0857 O   0  0  0  0  0  0  0  0  0  0  0  0
  153.3820  138.9468  154.6672 O   0  5  0  0  0  0  0  0  0  0  0  0
  153.0801  139.8967  159.6472 H   0  0  0  0  0  0  0  0  0  0  0  0
  153.4446  138.8182  158.3245 H   0  0  0  0  0  0  0  0  0  0  0  0
  151.9473  138.6168  159.2605 H   0  0  0  0  0  0  0  0  0  0  0  0
  152.0172  141.9396  159.1948 H   0  0  0  0  0  0  0  0  0  0  0  0
  150.1871  144.1061  157.0377 H   0  0  0  0  0  0  0  0  0  0  0  0
  150.1164  142.6868  155.4389 H   0  0  0  0  0  0  0  0  0  0  0  0
  152.2885  137.8433  156.9652 H   0  0  0  0  0  0  0  0  0  0  0  0
  150.7420  137.8392  156.2424 H   0  0  0  0  0  0  0  0  0  0  0  0
  1  2  1  0  0  0  0
  1 14  1  0  0  0  0
  1 15  1  0  0  0  0
  1 16  1  0  0  0  0
  2  9  1  0  0  0  0
  2  3  2  0  0  0  0
  3  4  1  0  0  0  0
  3 17  1  0  0  0  0
  4  5  1  0  0  0  0
  4  6  2  0  0  0  0
  5 18  1  0  0  0  0
  6  7  1  0  0  0  0
  6 19  1  0  0  0  0
  7  8  2  0  0  0  0
  7  9  1  0  0  0  0
  9 10  1  0  0  0  0
 10 11  1  0  0  0  0
 10 20  1  0  0  0  0
 10 21  1  0  0  0  0
 11 12  2  0  0  0  0
 11 13  1  0  0  0  0
M  CHG  1  13  -1
M  END
> <s_m_source_file>
AV-unprocessed.smi

> <i_m_source_file_index>
729

> <i_lp_mmshare_version>
43012

> <i_f3d_flags>
0

> <s_epik_input>
W0NIM11jMVtjSF1jKFtPSF0pW2NIXWMoPU8pbjFbQ0gyXUMoPU8pW09IXQ==

> <s_epik_cmdline>
J2VwaWtfcHl0aG9uJywgJy1waCcsICc3LjAnLCAnLXRuJywgJzgnLCAnLW1hJywgJzIwMCcsICctbWV0YWxfYmluZGluZycsICctaW1hZScsICc8aW5maWxlLm1hZT4nLCAnLW9tYWUnLCAnPG91dGZpbGUubWFlPic=

> <r_lp_tautomer_probability>
0.999984

> <r_epik_Ionization_Penalty>
0.418052

> <r_epik_Ionization_Penalty_Charging>
0.00125892

> <r_epik_Ionization_Penalty_Neutral>
0.416793

> <r_epik_State_Penalty>
0.458518

> <r_epik_Charging_Adjusted_Penalty>
0.459777

> <i_epik_Tot_Q>
-1

> <i_epik_Tot_abs_Q>
1

> <r_epik_Metal_State_Penalty>
0.458518

> <b_epik_Metal_Only>
0

> <s_lp_Force_Field>
OPLS_2005

> <r_lp_Energy>
10.5639

> <b_lp_Chiralities_Consistent>
1

> <s_lp_Variant>
AV-unprocessed.smi:729-2

> <Gold.Version>
5.8.1

> <Gold.Id.Protein>
6NUR|6NUR_protein|mol2

> <Gold.PLP.Fitness>
42.5134

> <Gold.PLP.PLP>
-25.0836

> <Gold.PLP.part.hbond>
-4.0000

> <Gold.PLP.part.metal>
0.0000

> <Gold.PLP.part.buried>
-4.8527

> <Gold.PLP.part.nonpolar>
-17.5587

> <Gold.PLP.part.repulsive>
0.6000

> <Gold.PLP.ligand.clash>
0.0000

> <Gold.PLP.ligand.torsion>
0.2152

> <Gold.PLP.Chemscore.Hbond>
5.9520

> <Gold.PLP.Chemscore.CHOScore>
0.0000

> <Gold.PLP.Chemscore.Metal>
0.0000

> <Gold.Chemscore.Hbonds>
donor molecule, donor type, donor heavy atom, donor atom, acceptor molecule, acceptor atom, score
      L1  H     5    18       P1  8028  1.00
      P1  H  7989  7998       L1     8  1.00
      P1  H  7997  8008       L1    13  1.92
      P1  H 10752 10765       L1    12  2.00

> <Gold.PLP.Chemscore.Internal.Correction>
0.0041

> <Gold.Rescore>
     Score         DG    S(hbond)    S(metal)    S(lipo)     H(rot)  DE(clash)    DE(int)     intcor
     14.88     -16.51       3.54        0.00      40.11       2.14       0.00       1.62       ----

> <Gold.Chemscore.Fitness>
14.8841

> <Gold.Chemscore.DG>
-16.5103

> <Gold.Chemscore.ZeroCoef>
-5.4800

> <Gold.Chemscore.Hbond>
3.5396

> <Gold.Chemscore.Metal>
0.0000

> <Gold.Chemscore.Lipo>
40.1052

> <Gold.Chemscore.Internal_Hbond>
0.0000

> <Gold.Chemscore.DEClash>
0.0015

> <Gold.Chemscore.DEInternal>
1.6247

> <Gold.Chemscore.Rot>
2.1423

> <Gold.Chemscore.Internal.Correction>
   9.000000E+99

> <Gold.Chemscore.Hbonds>
donor molecule, donor type, donor heavy atom, donor atom, acceptor molecule, acceptor atom, score
      L1  H     5    18       P1  8028  0.91
      P1  H  7989  7998       L1     8  0.55
      P1  H  7997  8008       L1    13  0.89
      P1  H 10752 10765       L1    12  0.66

> <Gold.Chemscore.Hbond.Weighted>
-11.8223

> <Gold.Chemscore.Metal.Weighted>
-0.0000

> <Gold.Chemscore.Lipo.Weighted>
-4.6923

> <Gold.Chemscore.Internal_Hbond.Weighted>
0.0000

> <Gold.Chemscore.DEClash.Weighted>
0.0015

> <Gold.Chemscore.DEInternal.Weighted>
1.6247

> <Gold.Chemscore.Rot.Weighted>
5.4843

> <Gold.Chemscore.Internal.Correction.Weighted>
   9.000000E+99

> <Gold.Protein.RotatedTorsions>
[ 6907 6896 6895 6894 ] final  156.74 input  -60.11 | X-H torsion
[ 7974 7965 7964 7962 ] final   14.39 input  175.53 | X-H torsion
[ 8008 7997 7996 7995 ] final    2.17 input   59.86 | X-H torsion
[ 10167 10162 10161 10158 ] final   74.73 input  -65.29 | X-H torsion
[ 10718 10713 10712 10709 ] final  -93.75 input   66.30 | X-H torsion
[ 10763 10752 10751 10750 ] final  150.44 input  -60.55 | X-H torsion
[ 11005 11000 10999 10996 ] final   95.74 input  -57.11 | X-H torsion

> <Gold.Protein.ActiveResidues>
 VAL166  LYS551  ARG553  GLY616  TRP617  ASP618  TYR619  PRO620  LYS621  CYS622 
 ASP623  PHE694  ASN695  SER759  ASP760  ASP761  ALA762  ILE779  LEU786  VAL792 
 PHE793  MET794  SER795  GLU796  ALA797  LYS798  CYS799  TRP800  GLU811  SER814 

> <Gold.Protein.RotatedAtoms>
  152.0253  133.3915  159.4274 H   0  0  0  0  0  0  0  0  0  0  0  0  # atno 6907 bound_to 6896
  150.6886  134.3581  159.4947 H   0  0  0  0  0  0  0  0  0  0  0  0  # atno 6908 bound_to 6896
  152.1360  134.9098  160.0607 H   0  0  0  0  0  0  0  0  0  0  0  0  # atno 6909 bound_to 6896
  146.2306  139.9049  142.8533 H   0  0  0  0  0  0  0  0  0  0  0  0  # atno 7974 bound_to 7965
  154.6884  140.2648  155.6837 H   0  0  0  0  0  0  0  0  0  0  0  0  # atno 8008 bound_to 7997
  156.2723  140.2796  156.1377 H   0  0  0  0  0  0  0  0  0  0  0  0  # atno 8009 bound_to 7997
  155.0931  140.0373  157.2664 H   0  0  0  0  0  0  0  0  0  0  0  0  # atno 8010 bound_to 7997
  140.0106  144.5617  150.7662 H   0  0  0  0  0  0  0  0  0  0  0  0  # atno 10167 bound_to 10162
  156.0017  130.5039  150.5823 H   0  0  0  0  0  0  0  0  0  0  0  0  # atno 10718 bound_to 10713
  154.0876  135.2855  155.3278 H   0  0  0  0  0  0  0  0  0  0  0  0  # atno 10763 bound_to 10752
  154.6642  135.5323  153.8059 H   0  0  0  0  0  0  0  0  0  0  0  0  # atno 10764 bound_to 10752
  153.0425  135.6541  154.1047 H   0  0  0  0  0  0  0  0  0  0  0  0  # atno 10765 bound_to 10752
  139.8786  134.8914  156.4055 H   0  0  0  0  0  0  0  0  0  0  0  0  # atno 11005 bound_to 11000
  145.2287  140.9964  143.4003 LP  0  0  0  0  0  0  0  0  0  0  0  0  # atno 17320 bound_to 7965
  144.9549  139.4043  143.6384 LP  0  0  0  0  0  0  0  0  0  0  0  0  # atno 17321 bound_to 7965
  140.7383  143.2776  151.3694 LP  0  0  0  0  0  0  0  0  0  0  0  0  # atno 17342 bound_to 10162
  139.6208  144.0911  152.2389 LP  0  0  0  0  0  0  0  0  0  0  0  0  # atno 17343 bound_to 10162
  157.3701  131.0764  151.1565 LP  0  0  0  0  0  0  0  0  0  0  0  0  # atno 17370 bound_to 10713
  157.2321  130.6530  149.5854 LP  0  0  0  0  0  0  0  0  0  0  0  0  # atno 17371 bound_to 10713
  140.9237  133.7627  155.9938 LP  0  0  0  0  0  0  0  0  0  0  0  0  # atno 17394 bound_to 11000
  140.8411  134.3066  157.5313 LP  0  0  0  0  0  0  0  0  0  0  0  0  # atno 17395 bound_to 11000

$$$$
