AV-unprocessed.smi:1280|AV-procd|sdf|5357|dock9
  -GOLD-   22720 4493D 1   1.00000     0.00000
 Structure written by MMmdl.
 45 46  0  0  0  0  0  0  0  0  1 V2000
  144.9251  137.5517  153.0546 C   0  0  0  0  0  0  0  0  0  0  0  0
  144.7047  138.3853  154.6773 S   0  0  0  0  0  0  0  0  0  0  0  0
  143.2642  138.5500  154.9250 O   0  0  0  0  0  0  0  0  0  0  0  0
  145.5566  137.7226  155.6764 O   0  0  0  0  0  0  0  0  0  0  0  0
  145.3694  139.9487  154.3861 N   0  0  0  0  0  0  0  0  0  0  0  0
  146.7770  140.0308  154.0029 C   0  0  0  0  0  0  0  0  0  0  0  0
  147.3570  141.3952  154.3950 C   0  0  0  0  0  0  0  0  0  0  0  0
  148.8699  141.4795  154.1398 C   0  0  0  0  0  0  0  0  0  0  0  0
  149.5767  142.0301  155.2888 N   0  0  0  0  0  0  0  0  0  0  0  0
  150.6884  141.5110  155.8350 C   0  0  0  0  0  0  0  0  0  0  0  0
  151.2677  140.5226  155.3843 O   0  0  0  0  0  0  0  0  0  0  0  0
  151.2524  142.2556  157.0170 C   0  0  0  0  0  0  0  0  0  0  0  0
  151.3419  143.6639  156.9437 C   0  0  0  0  0  0  0  0  0  0  0  0
  151.8558  144.3869  158.0343 C   0  0  0  0  0  0  0  0  0  0  0  0
  152.2726  143.6704  159.1687 C   0  0  0  0  0  0  0  0  0  0  0  0
  152.2145  142.3263  159.2527 N   0  0  0  0  0  0  0  0  0  0  0  0
  151.7282  141.6174  158.2036 C   0  0  0  0  0  0  0  0  0  0  0  0
  151.7584  140.2139  158.3322 N   0  0  0  0  0  0  0  0  0  0  0  0
  152.5541  139.7363  159.4564 C   0  0  0  0  0  0  0  0  0  0  0  0
  152.7742  138.2191  159.3309 C   0  0  0  0  0  0  0  0  0  0  0  0
  151.5156  137.5582  159.2277 O   0  0  0  0  0  0  0  0  0  0  0  0
  150.7773  137.9815  158.0845 C   0  0  0  0  0  0  0  0  0  0  0  0
  150.4999  139.4916  158.1793 C   0  0  0  0  0  0  0  0  0  0  0  0
  144.5352  136.5358  153.1144 H   0  0  0  0  0  0  0  0  0  0  0  0
  145.9841  137.5181  152.8006 H   0  0  0  0  0  0  0  0  0  0  0  0
  144.3830  138.1019  152.2858 H   0  0  0  0  0  0  0  0  0  0  0  0
  144.7873  140.4707  153.7312 H   0  0  0  0  0  0  0  0  0  0  0  0
  147.3284  139.2254  154.4893 H   0  0  0  0  0  0  0  0  0  0  0  0
  146.8617  139.8800  152.9261 H   0  0  0  0  0  0  0  0  0  0  0  0
  146.8464  142.1789  153.8333 H   0  0  0  0  0  0  0  0  0  0  0  0
  147.1552  141.5883  155.4496 H   0  0  0  0  0  0  0  0  0  0  0  0
  149.2703  140.4844  153.9442 H   0  0  0  0  0  0  0  0  0  0  0  0
  149.0770  142.0771  153.2503 H   0  0  0  0  0  0  0  0  0  0  0  0
  149.1835  142.8575  155.7137 H   0  0  0  0  0  0  0  0  0  0  0  0
  151.0086  144.1941  156.0631 H   0  0  0  0  0  0  0  0  0  0  0  0
  151.9250  145.4641  158.0029 H   0  0  0  0  0  0  0  0  0  0  0  0
  152.6698  144.1889  160.0288 H   0  0  0  0  0  0  0  0  0  0  0  0
  153.5152  140.2492  159.4985 H   0  0  0  0  0  0  0  0  0  0  0  0
  152.0306  139.9635  160.3862 H   0  0  0  0  0  0  0  0  0  0  0  0
  153.3905  137.9879  158.4603 H   0  0  0  0  0  0  0  0  0  0  0  0
  153.3040  137.8422  160.2059 H   0  0  0  0  0  0  0  0  0  0  0  0
  151.3301  137.7441  157.1740 H   0  0  0  0  0  0  0  0  0  0  0  0
  149.8389  137.4286  158.0420 H   0  0  0  0  0  0  0  0  0  0  0  0
  149.8516  139.6948  159.0330 H   0  0  0  0  0  0  0  0  0  0  0  0
  149.9797  139.8350  157.2842 H   0  0  0  0  0  0  0  0  0  0  0  0
  1  2  1  0  0  0  0
  1 24  1  0  0  0  0
  1 25  1  0  0  0  0
  1 26  1  0  0  0  0
  2  3  2  0  0  0  0
  2  4  2  0  0  0  0
  2  5  1  0  0  0  0
  5  6  1  0  0  0  0
  5 27  1  0  0  0  0
  6  7  1  0  0  0  0
  6 28  1  0  0  0  0
  6 29  1  0  0  0  0
  7  8  1  0  0  0  0
  7 30  1  0  0  0  0
  7 31  1  0  0  0  0
  8  9  1  0  0  0  0
  8 32  1  0  0  0  0
  8 33  1  0  0  0  0
  9 10  1  0  0  0  0
  9 34  1  0  0  0  0
 10 11  2  0  0  0  0
 10 12  1  0  0  0  0
 12 17  1  0  0  0  0
 12 13  2  0  0  0  0
 13 14  1  0  0  0  0
 13 35  1  0  0  0  0
 14 15  2  0  0  0  0
 14 36  1  0  0  0  0
 15 16  1  0  0  0  0
 15 37  1  0  0  0  0
 16 17  2  0  0  0  0
 17 18  1  0  0  0  0
 18 23  1  0  0  0  0
 18 19  1  0  0  0  0
 19 20  1  0  0  0  0
 19 38  1  0  0  0  0
 19 39  1  0  0  0  0
 20 21  1  0  0  0  0
 20 40  1  0  0  0  0
 20 41  1  0  0  0  0
 21 22  1  0  0  0  0
 22 23  1  0  0  0  0
 22 42  1  0  0  0  0
 22 43  1  0  0  0  0
 23 44  1  0  0  0  0
 23 45  1  0  0  0  0
M  END
> <s_m_source_file>
AV-unprocessed.smi

> <i_m_source_file_index>
1280

> <i_lp_mmshare_version>
43012

> <i_f3d_flags>
0

> <s_epik_input>
W0NIM11TKD1PKSg9TylbTkhdW0NIMl1bQ0gyXVtDSDJdW05IXUMoPU8pYzFbY0hdW2NIXVtjSF1uYzFOMltDSDJdW0NIMl1PW0NIMl1bQ0gyXTI=

> <s_epik_cmdline>
J2VwaWtfcHl0aG9uJywgJy1waCcsICc3LjAnLCAnLXRuJywgJzgnLCAnLW1hJywgJzIwMCcsICctbWV0YWxfYmluZGluZycsICctaW1hZScsICc8aW5maWxlLm1hZT4nLCAnLW9tYWUnLCAnPG91dGZpbGUubWFlPic=

> <r_lp_tautomer_probability>
1

> <r_epik_Ionization_Penalty>
2.29251e-05

> <r_epik_Ionization_Penalty_Charging>
0

> <r_epik_Ionization_Penalty_Neutral>
2.29251e-05

> <r_epik_State_Penalty>
-0

> <r_epik_Charging_Adjusted_Penalty>
0

> <i_epik_Tot_Q>
0

> <i_epik_Tot_abs_Q>
0

> <r_epik_Metal_State_Penalty>
0.00766126

> <b_epik_Metal_Only>
0

> <s_lp_Force_Field>
OPLS_2005

> <r_lp_Energy>
17.2463

> <b_lp_Chiralities_Consistent>
1

> <s_lp_Variant>
AV-unprocessed.smi:1280-1

> <Gold.Version>
5.8.1

> <Gold.Id.Protein>
6NUR|6NUR_protein|mol2

> <Gold.PLP.Fitness>
42.0014

> <Gold.PLP.PLP>
-35.9304

> <Gold.PLP.part.hbond>
-3.0000

> <Gold.PLP.part.metal>
0.0000

> <Gold.PLP.part.buried>
-4.5055

> <Gold.PLP.part.nonpolar>
-28.0571

> <Gold.PLP.part.repulsive>
0.2980

> <Gold.PLP.ligand.clash>
0.0000

> <Gold.PLP.ligand.torsion>
1.5106

> <Gold.PLP.Chemscore.Hbond>
2.8880

> <Gold.PLP.Chemscore.CHOScore>
0.0000

> <Gold.PLP.Chemscore.Metal>
0.0000

> <Gold.Chemscore.Hbonds>
donor molecule, donor type, donor heavy atom, donor atom, acceptor molecule, acceptor atom, score
      L1  H     5    27       P1 10175  1.00
      L1  H     9    34       P1  8028  0.98
      P1  H  7989  7998       L1    11  0.90

> <Gold.PLP.Chemscore.Internal.Correction>
0.4283

> <Gold.Rescore>
     Score         DG    S(hbond)    S(metal)    S(lipo)     H(rot)  DE(clash)    DE(int)     intcor
     13.78     -17.78       2.63        0.00      86.45       2.58       1.54       2.45       ----

> <Gold.Chemscore.Fitness>
13.7824

> <Gold.Chemscore.DG>
-17.7755

> <Gold.Chemscore.ZeroCoef>
-5.4800

> <Gold.Chemscore.Hbond>
2.6331

> <Gold.Chemscore.Metal>
0.0000

> <Gold.Chemscore.Lipo>
86.4515

> <Gold.Chemscore.Internal_Hbond>
0.0000

> <Gold.Chemscore.DEClash>
1.5406

> <Gold.Chemscore.DEInternal>
2.4525

> <Gold.Chemscore.Rot>
2.5835

> <Gold.Chemscore.Internal.Correction>
   9.000000E+99

> <Gold.Chemscore.Hbonds>
donor molecule, donor type, donor heavy atom, donor atom, acceptor molecule, acceptor atom, score
      L1  H     5    27       P1 10175  0.94
      L1  H     9    34       P1  8028  0.93
      P1  H  7989  7998       L1    11  0.52

> <Gold.Chemscore.Hbond.Weighted>
-8.7944

> <Gold.Chemscore.Metal.Weighted>
-0.0000

> <Gold.Chemscore.Lipo.Weighted>
-10.1148

> <Gold.Chemscore.Internal_Hbond.Weighted>
0.0000

> <Gold.Chemscore.DEClash.Weighted>
1.5406

> <Gold.Chemscore.DEInternal.Weighted>
2.4525

> <Gold.Chemscore.Rot.Weighted>
6.6137

> <Gold.Chemscore.Internal.Correction.Weighted>
   9.000000E+99

> <Gold.Protein.RotatedTorsions>
[ 6907 6896 6895 6894 ] final   39.78 input  -60.11 | X-H torsion
[ 7974 7965 7964 7962 ] final   24.71 input  175.53 | X-H torsion
[ 8008 7997 7996 7995 ] final  -52.96 input   59.86 | X-H torsion
[ 10167 10162 10161 10158 ] final -141.18 input  -65.29 | X-H torsion
[ 10718 10713 10712 10709 ] final  142.08 input   66.30 | X-H torsion
[ 10763 10752 10751 10750 ] final  -49.74 input  -60.55 | X-H torsion
[ 11005 11000 10999 10996 ] final -172.10 input  -57.11 | X-H torsion

> <Gold.Protein.ActiveResidues>
 VAL166  LYS551  ARG553  GLY616  TRP617  ASP618  TYR619  PRO620  LYS621  CYS622 
 ASP623  PHE694  ASN695  SER759  ASP760  ASP761  ALA762  ILE779  LEU786  VAL792 
 PHE793  MET794  SER795  GLU796  ALA797  LYS798  CYS799  TRP800  GLU811  SER814 

> <Gold.Protein.RotatedAtoms>
  152.1740  134.8810  160.0531 H   0  0  0  0  0  0  0  0  0  0  0  0  # atno 6907 bound_to 6896
  151.9759  133.3736  159.4097 H   0  0  0  0  0  0  0  0  0  0  0  0  # atno 6908 bound_to 6896
  150.6906  134.4013  159.5164 H   0  0  0  0  0  0  0  0  0  0  0  0  # atno 6909 bound_to 6896
  146.1924  139.7566  142.8822 H   0  0  0  0  0  0  0  0  0  0  0  0  # atno 7974 bound_to 7965
  154.4120  140.1211  156.5076 H   0  0  0  0  0  0  0  0  0  0  0  0  # atno 8008 bound_to 7997
  155.6831  140.3496  155.4844 H   0  0  0  0  0  0  0  0  0  0  0  0  # atno 8009 bound_to 7997
  155.9534  140.1109  157.0947 H   0  0  0  0  0  0  0  0  0  0  0  0  # atno 8010 bound_to 7997
  139.8210  143.7574  152.2666 H   0  0  0  0  0  0  0  0  0  0  0  0  # atno 10167 bound_to 10162
  157.3846  131.0997  151.0706 H   0  0  0  0  0  0  0  0  0  0  0  0  # atno 10718 bound_to 10713
  154.0991  135.6566  153.4865 H   0  0  0  0  0  0  0  0  0  0  0  0  # atno 10763 bound_to 10752
  153.0295  135.5220  154.7304 H   0  0  0  0  0  0  0  0  0  0  0  0  # atno 10764 bound_to 10752
  154.6451  135.2993  155.0025 H   0  0  0  0  0  0  0  0  0  0  0  0  # atno 10765 bound_to 10752
  140.5008  134.5895  157.4987 H   0  0  0  0  0  0  0  0  0  0  0  0  # atno 11005 bound_to 11000
  145.3750  141.0349  143.3209 LP  0  0  0  0  0  0  0  0  0  0  0  0  # atno 17320 bound_to 7965
  144.8513  139.5318  143.6855 LP  0  0  0  0  0  0  0  0  0  0  0  0  # atno 17321 bound_to 7965
  139.7752  144.7463  151.0166 LP  0  0  0  0  0  0  0  0  0  0  0  0  # atno 17342 bound_to 10162
  140.7813  143.4601  151.0290 LP  0  0  0  0  0  0  0  0  0  0  0  0  # atno 17343 bound_to 10162
  157.1762  130.6289  149.5656 LP  0  0  0  0  0  0  0  0  0  0  0  0  # atno 17370 bound_to 10713
  155.9783  130.4769  150.6651 LP  0  0  0  0  0  0  0  0  0  0  0  0  # atno 17371 bound_to 10713
  139.9715  134.7286  156.0033 LP  0  0  0  0  0  0  0  0  0  0  0  0  # atno 17394 bound_to 11000
  141.1436  133.6560  156.3803 LP  0  0  0  0  0  0  0  0  0  0  0  0  # atno 17395 bound_to 11000

$$$$
