AV-unprocessed.smi:1795|AV-procd|sdf|7247|dock5
  -GOLD-   22720 8493D 1   1.00000     0.00000
 Structure written by MMmdl.
 48 49  0  0  0  0  0  0  0  0  2 V2000
  144.8063  139.9199  157.7942 C   0  0  0  0  0  0  0  0  0  0  0  0
  144.8130  140.7099  156.4805 C   0  0  2  0  0  0  0  0  0  0  0  0
  146.0066  140.3311  155.5827 C   0  0  0  0  0  0  0  0  0  0  0  0
  146.0570  141.1675  154.3506 N   0  3  2  0  0  0  0  0  0  0  0  0
  147.1961  140.8498  153.4249 C   0  0  2  0  0  0  0  0  0  0  0  0
  147.3865  139.3197  153.2835 C   0  0  0  0  0  0  0  0  0  0  0  0
  148.5352  141.5176  153.8529 C   0  0  0  0  0  0  0  0  0  0  0  0
  148.7707  141.4698  155.2937 N   0  0  0  0  0  0  0  0  0  0  0  0
  149.9133  141.0716  155.8739 C   0  0  0  0  0  0  0  0  0  0  0  0
  150.8922  140.6849  155.2343 O   0  0  0  0  0  0  0  0  0  0  0  0
  149.9354  141.0947  157.4089 C   0  0  0  0  0  0  0  0  0  0  0  0
  151.0692  141.8551  157.9605 N   0  0  0  0  0  0  0  0  0  0  0  0
  151.1502  143.2223  157.6277 C   0  0  0  0  0  0  0  0  0  0  0  0
  152.1419  144.0057  158.0806 C   0  0  0  0  0  0  0  0  0  0  0  0
  153.1460  143.4124  158.9318 C   0  0  0  0  0  0  0  0  0  0  0  0
  153.0765  142.1064  159.2585 C   0  0  0  0  0  0  0  0  0  0  0  0
  151.9929  141.2469  158.7677 C   0  0  0  0  0  0  0  0  0  0  0  0
  151.9188  140.0539  159.0642 O   0  0  0  0  0  0  0  0  0  0  0  0
  145.9995  142.6077  154.7269 C   0  0  0  0  0  0  0  0  0  0  0  0
  144.7975  142.9083  155.6409 C   0  0  2  0  0  0  0  0  0  0  0  0
  144.7681  144.3727  156.0932 C   0  0  0  0  0  0  0  0  0  0  0  0
  144.8832  142.0917  156.7992 O   0  0  0  0  0  0  0  0  0  0  0  0
  144.7420  138.8475  157.6082 H   0  0  0  0  0  0  0  0  0  0  0  0
  143.9539  140.2005  158.4134 H   0  0  0  0  0  0  0  0  0  0  0  0
  145.7121  140.1059  158.3719 H   0  0  0  0  0  0  0  0  0  0  0  0
  143.8787  140.5086  155.9533 H   0  0  0  0  0  0  0  0  0  0  0  0
  146.9442  140.4368  156.1313 H   0  0  0  0  0  0  0  0  0  0  0  0
  145.8892  139.2785  155.3301 H   0  0  0  0  0  0  0  0  0  0  0  0
  146.9317  141.2480  152.4438 H   0  0  0  0  0  0  0  0  0  0  0  0
  148.2399  139.0690  152.6540 H   0  0  0  0  0  0  0  0  0  0  0  0
  146.5350  138.8322  152.8126 H   0  0  0  0  0  0  0  0  0  0  0  0
  147.5492  138.8514  154.2547 H   0  0  0  0  0  0  0  0  0  0  0  0
  149.3940  141.0393  153.3819 H   0  0  0  0  0  0  0  0  0  0  0  0
  148.5486  142.5631  153.5426 H   0  0  0  0  0  0  0  0  0  0  0  0
  148.0139  141.7693  155.8917 H   0  0  0  0  0  0  0  0  0  0  0  0
  148.9951  141.5050  157.7823 H   0  0  0  0  0  0  0  0  0  0  0  0
  149.9565  140.0629  157.7625 H   0  0  0  0  0  0  0  0  0  0  0  0
  150.3571  143.5903  156.9929 H   0  0  0  0  0  0  0  0  0  0  0  0
  152.1853  145.0528  157.8188 H   0  0  0  0  0  0  0  0  0  0  0  0
  153.9558  144.0189  159.3098 H   0  0  0  0  0  0  0  0  0  0  0  0
  153.8358  141.6800  159.8978 H   0  0  0  0  0  0  0  0  0  0  0  0
  146.9286  142.8887  155.2259 H   0  0  0  0  0  0  0  0  0  0  0  0
  145.9064  143.2385  153.8454 H   0  0  0  0  0  0  0  0  0  0  0  0
  143.8677  142.6919  155.1116 H   0  0  0  0  0  0  0  0  0  0  0  0
  144.6937  145.0460  155.2390 H   0  0  0  0  0  0  0  0  0  0  0  0
  145.6700  144.6337  156.6478 H   0  0  0  0  0  0  0  0  0  0  0  0
  143.9124  144.5637  156.7413 H   0  0  0  0  0  0  0  0  0  0  0  0
  145.2084  140.9655  153.8414 H   0  0  0  0  0  0  0  0  0  0  0  0
  1  2  1  0  0  0  0
  1 23  1  0  0  0  0
  1 24  1  0  0  0  0
  1 25  1  0  0  0  0
  2 22  1  0  0  0  0
  2  3  1  0  0  0  0
  2 26  1  0  0  0  0
  3  4  1  0  0  0  0
  3 27  1  0  0  0  0
  3 28  1  0  0  0  0
  4  5  1  0  0  0  0
  4 19  1  0  0  0  0
  4 48  1  0  0  0  0
  5  6  1  0  0  0  0
  5  7  1  0  0  0  0
  5 29  1  0  0  0  0
  6 30  1  0  0  0  0
  6 31  1  0  0  0  0
  6 32  1  0  0  0  0
  7  8  1  0  0  0  0
  7 33  1  0  0  0  0
  7 34  1  0  0  0  0
  8  9  1  0  0  0  0
  8 35  1  0  0  0  0
  9 10  2  0  0  0  0
  9 11  1  0  0  0  0
 11 12  1  0  0  0  0
 11 36  1  0  0  0  0
 11 37  1  0  0  0  0
 12 17  1  0  0  0  0
 12 13  1  0  0  0  0
 13 14  2  0  0  0  0
 13 38  1  0  0  0  0
 14 15  1  0  0  0  0
 14 39  1  0  0  0  0
 15 16  2  0  0  0  0
 15 40  1  0  0  0  0
 16 17  1  0  0  0  0
 16 41  1  0  0  0  0
 17 18  2  0  0  0  0
 19 20  1  0  0  0  0
 19 42  1  0  0  0  0
 19 43  1  0  0  0  0
 20 21  1  0  0  0  0
 20 22  1  0  0  0  0
 20 44  1  0  0  0  0
 21 45  1  0  0  0  0
 21 46  1  0  0  0  0
 21 47  1  0  0  0  0
M  CHG  1   4   1
M  END
> <s_m_source_file>
AV-unprocessed.smi

> <i_m_source_file_index>
1795

> <i_lp_mmshare_version>
43012

> <i_f3d_flags>
0

> <s_epik_input>
W0NIM11bQ0BASF0xW0NIMl1OKFtDSDJdW0NASF0oTzEpW0NIM10pW0NASF0oW0NIM10pW0NIMl1bTkhdQyg9TylbQ0gyXW4yW2NIXVtjSF1bY0hdW2NIXWMyPU8=

> <s_epik_cmdline>
J2VwaWtfcHl0aG9uJywgJy1waCcsICc3LjAnLCAnLXRuJywgJzgnLCAnLW1hJywgJzIwMCcsICctbWV0YWxfYmluZGluZycsICctaW1hZScsICc8aW5maWxlLm1hZT4nLCAnLW9tYWUnLCAnPG91dGZpbGUubWFlPic=

> <r_lp_tautomer_probability>
1

> <r_epik_Ionization_Penalty>
0.656654

> <r_epik_Ionization_Penalty_Charging>
0.656654

> <r_epik_Ionization_Penalty_Neutral>
8.90321e-08

> <r_epik_State_Penalty>
0.675641

> <r_epik_Charging_Adjusted_Penalty>
1.33229

> <i_epik_Tot_Q>
1

> <i_epik_Tot_abs_Q>
1

> <r_epik_Metal_State_Penalty>
0.675691

> <b_epik_Metal_Only>
0

> <s_lp_Force_Field>
OPLS_2005

> <r_lp_Energy>
28.0815

> <b_lp_Chiralities_Consistent>
1

> <s_lp_Variant>
AV-unprocessed.smi:1795-11

> <Gold.Version>
5.8.1

> <Gold.Id.Protein>
6NUR|6NUR_protein|mol2

> <Gold.PLP.Fitness>
49.0349

> <Gold.PLP.PLP>
-38.4783

> <Gold.PLP.part.hbond>
-2.3327

> <Gold.PLP.part.metal>
0.0000

> <Gold.PLP.part.buried>
-2.5719

> <Gold.PLP.part.nonpolar>
-33.3374

> <Gold.PLP.part.repulsive>
0.2055

> <Gold.PLP.ligand.clash>
0.0000

> <Gold.PLP.ligand.torsion>
0.5711

> <Gold.PLP.Chemscore.Hbond>
2.8800

> <Gold.PLP.Chemscore.CHOScore>
1.0000

> <Gold.PLP.Chemscore.Metal>
0.0000

> <Gold.Chemscore.Hbonds>
donor molecule, donor type, donor heavy atom, donor atom, acceptor molecule, acceptor atom, score
      L1  H     4    48       P1 10175  1.69
      P1  H  7989  7998       L1    10  0.88
      L1  C    13    38       P1  8028  1.00

> <Gold.PLP.Chemscore.Internal.Correction>
0.0588

> <Gold.Rescore>
     Score         DG    S(hbond)    S(metal)    S(lipo)     H(rot)  DE(clash)    DE(int)     intcor
     16.15     -17.11       1.85        0.00      87.83       1.89       0.18       0.78       ----

> <Gold.Chemscore.Fitness>
16.1518

> <Gold.Chemscore.DG>
-17.1149

> <Gold.Chemscore.ZeroCoef>
-5.4800

> <Gold.Chemscore.Hbond>
1.8531

> <Gold.Chemscore.Metal>
0.0000

> <Gold.Chemscore.Lipo>
87.8315

> <Gold.Chemscore.Internal_Hbond>
0.0000

> <Gold.Chemscore.DEClash>
0.1798

> <Gold.Chemscore.DEInternal>
0.7833

> <Gold.Chemscore.Rot>
1.8870

> <Gold.Chemscore.Internal.Correction>
   9.000000E+99

> <Gold.Chemscore.Hbonds>
donor molecule, donor type, donor heavy atom, donor atom, acceptor molecule, acceptor atom, score
      L1  H     4    48       P1 10175  0.70
      P1  H  7989  7998       L1    10  0.86

> <Gold.Chemscore.Hbond.Weighted>
-6.1894

> <Gold.Chemscore.Metal.Weighted>
-0.0000

> <Gold.Chemscore.Lipo.Weighted>
-10.2763

> <Gold.Chemscore.Internal_Hbond.Weighted>
0.0000

> <Gold.Chemscore.DEClash.Weighted>
0.1798

> <Gold.Chemscore.DEInternal.Weighted>
0.7833

> <Gold.Chemscore.Rot.Weighted>
4.8308

> <Gold.Chemscore.Internal.Correction.Weighted>
   9.000000E+99

> <Gold.Protein.RotatedTorsions>
[ 6907 6896 6895 6894 ] final  -47.53 input  -60.11 | X-H torsion
[ 7974 7965 7964 7962 ] final -146.48 input  175.53 | X-H torsion
[ 8008 7997 7996 7995 ] final  158.79 input   59.86 | X-H torsion
[ 10167 10162 10161 10158 ] final  -62.83 input  -65.29 | X-H torsion
[ 10718 10713 10712 10709 ] final   37.38 input   66.30 | X-H torsion
[ 10763 10752 10751 10750 ] final  -26.99 input  -60.55 | X-H torsion
[ 11005 11000 10999 10996 ] final  161.32 input  -57.11 | X-H torsion

> <Gold.Protein.ActiveResidues>
 VAL166  LYS551  ARG553  GLY616  TRP617  ASP618  TYR619  PRO620  LYS621  CYS622 
 ASP623  PHE694  ASN695  SER759  ASP760  ASP761  ALA762  ILE779  LEU786  VAL792 
 PHE793  MET794  SER795  GLU796  ALA797  LYS798  CYS799  TRP800  GLU811  SER814 

> <Gold.Protein.RotatedAtoms>
  150.8998  134.8409  159.7351 H   0  0  0  0  0  0  0  0  0  0  0  0  # atno 6907 bound_to 6896
  152.4886  134.4520  159.9587 H   0  0  0  0  0  0  0  0  0  0  0  0  # atno 6908 bound_to 6896
  151.4573  133.3563  159.2839 H   0  0  0  0  0  0  0  0  0  0  0  0  # atno 6909 bound_to 6896
  144.8156  140.5450  143.5613 H   0  0  0  0  0  0  0  0  0  0  0  0  # atno 7974 bound_to 7965
  156.2280  140.1849  156.7314 H   0  0  0  0  0  0  0  0  0  0  0  0  # atno 8008 bound_to 7997
  154.5974  140.0641  156.9350 H   0  0  0  0  0  0  0  0  0  0  0  0  # atno 8009 bound_to 7997
  155.2232  140.3309  155.4315 H   0  0  0  0  0  0  0  0  0  0  0  0  # atno 8010 bound_to 7997
  140.5912  143.2342  151.6135 H   0  0  0  0  0  0  0  0  0  0  0  0  # atno 10167 bound_to 10162
  157.3463  130.7574  149.6947 H   0  0  0  0  0  0  0  0  0  0  0  0  # atno 10718 bound_to 10713
  153.7249  135.6942  153.5003 H   0  0  0  0  0  0  0  0  0  0  0  0  # atno 10763 bound_to 10752
  153.2177  135.4380  155.0452 H   0  0  0  0  0  0  0  0  0  0  0  0  # atno 10764 bound_to 10752
  154.8272  135.3452  154.6781 H   0  0  0  0  0  0  0  0  0  0  0  0  # atno 10765 bound_to 10752
  140.2146  134.8242  157.3157 H   0  0  0  0  0  0  0  0  0  0  0  0  # atno 11005 bound_to 11000
  145.5221  139.1476  143.3546 LP  0  0  0  0  0  0  0  0  0  0  0  0  # atno 17320 bound_to 7965
  146.2459  140.5362  142.8914 LP  0  0  0  0  0  0  0  0  0  0  0  0  # atno 17321 bound_to 7965
  139.5229  144.3150  152.0960 LP  0  0  0  0  0  0  0  0  0  0  0  0  # atno 17342 bound_to 10162
  140.2314  144.4364  150.6298 LP  0  0  0  0  0  0  0  0  0  0  0  0  # atno 17343 bound_to 10162
  155.9715  130.4153  150.4176 LP  0  0  0  0  0  0  0  0  0  0  0  0  # atno 17370 bound_to 10713
  157.2232  131.0487  151.2535 LP  0  0  0  0  0  0  0  0  0  0  0  0  # atno 17371 bound_to 10713
  140.1914  134.4367  155.7714 LP  0  0  0  0  0  0  0  0  0  0  0  0  # atno 17394 bound_to 11000
  141.2225  133.7029  156.8033 LP  0  0  0  0  0  0  0  0  0  0  0  0  # atno 17395 bound_to 11000

$$$$
