AV-unprocessed.smi:303|AV-procd|sdf|2275|dock9
  -GOLD-   2262022173D 1   1.00000     0.00000
 Structure written by MMmdl.
 46 47  0  0  0  0  0  0  0  0  2 V2000
  152.8322  142.5926  159.1215 C   0  0  0  0  0  0  0  0  0  0  0  0
  151.5591  142.1715  158.3781 C   0  0  0  0  0  0  0  0  0  0  0  0
  151.6242  140.4044  157.8373 S   0  0  0  0  0  0  0  0  0  0  0  0
  153.0074  139.9279  157.9909 O   0  0  0  0  0  0  0  0  0  0  0  0
  150.5232  139.6692  158.4795 O   0  0  0  0  0  0  0  0  0  0  0  0
  151.2846  140.4685  156.1302 N   0  0  0  0  0  0  0  0  0  0  0  0
  151.4771  139.2662  155.2975 C   0  0  0  0  0  0  0  0  0  0  0  0
  150.1346  138.5884  154.9744 C   0  0  0  0  0  0  0  0  0  0  0  0
  149.1534  139.5741  154.3154 C   0  0  0  0  0  0  0  0  0  0  0  0
  147.8117  138.8919  154.0178 C   0  0  0  0  0  0  0  0  0  0  0  0
  147.1572  138.3831  154.9289 O   0  0  0  0  0  0  0  0  0  0  0  0
  147.4160  138.8782  152.7354 N   0  0  0  0  0  0  0  0  0  0  0  0
  146.1907  138.2562  152.2472 C   0  0  0  0  0  0  0  0  0  0  0  0
  146.4835  137.2257  151.1431 C   0  0  0  0  0  0  0  0  0  0  0  0
  145.8190  135.8893  151.4094 C   0  0  0  0  0  0  0  0  0  0  0  0
  144.4269  135.7026  151.2663 C   0  0  0  0  0  0  0  0  0  0  0  0
  143.8712  134.4330  151.5298 C   0  0  0  0  0  0  0  0  0  0  0  0
  144.7183  133.3782  151.9285 C   0  0  0  0  0  0  0  0  0  0  0  0
  146.1018  133.6197  152.0528 C   0  0  0  0  0  0  0  0  0  0  0  0
  146.5961  134.8500  151.7918 N   0  3  0  0  0  0  0  0  0  0  0  0
  148.9677  140.7914  155.2401 C   0  0  0  0  0  0  0  0  0  0  0  0
  150.3158  141.4462  155.5912 C   0  0  0  0  0  0  0  0  0  0  0  0
  152.7597  143.6272  159.4568 H   0  0  0  0  0  0  0  0  0  0  0  0
  153.7078  142.5145  158.4769 H   0  0  0  0  0  0  0  0  0  0  0  0
  153.0065  141.9695  159.9982 H   0  0  0  0  0  0  0  0  0  0  0  0
  150.6707  142.3336  158.9830 H   0  0  0  0  0  0  0  0  0  0  0  0
  151.4496  142.7829  157.4825 H   0  0  0  0  0  0  0  0  0  0  0  0
  151.9720  139.5616  154.3717 H   0  0  0  0  0  0  0  0  0  0  0  0
  152.1469  138.5649  155.7947 H   0  0  0  0  0  0  0  0  0  0  0  0
  150.3115  137.7388  154.3133 H   0  0  0  0  0  0  0  0  0  0  0  0
  149.7014  138.1779  155.8866 H   0  0  0  0  0  0  0  0  0  0  0  0
  149.5882  139.9181  153.3751 H   0  0  0  0  0  0  0  0  0  0  0  0
  148.0102  139.3223  152.0499 H   0  0  0  0  0  0  0  0  0  0  0  0
  145.6551  137.7883  153.0754 H   0  0  0  0  0  0  0  0  0  0  0  0
  145.5413  139.0431  151.8626 H   0  0  0  0  0  0  0  0  0  0  0  0
  146.1424  137.6045  150.1784 H   0  0  0  0  0  0  0  0  0  0  0  0
  147.5588  137.0689  151.0471 H   0  0  0  0  0  0  0  0  0  0  0  0
  143.7912  136.5205  150.9588 H   0  0  0  0  0  0  0  0  0  0  0  0
  142.8079  134.2706  151.4276 H   0  0  0  0  0  0  0  0  0  0  0  0
  144.3122  132.3988  152.1361 H   0  0  0  0  0  0  0  0  0  0  0  0
  146.8221  132.8724  152.3519 H   0  0  0  0  0  0  0  0  0  0  0  0
  148.3292  141.5305  154.7544 H   0  0  0  0  0  0  0  0  0  0  0  0
  148.4471  140.5051  156.1531 H   0  0  0  0  0  0  0  0  0  0  0  0
  150.1663  142.2647  156.2944 H   0  0  0  0  0  0  0  0  0  0  0  0
  150.7458  141.8909  154.6931 H   0  0  0  0  0  0  0  0  0  0  0  0
  147.6002  135.0020  151.8895 H   0  0  0  0  0  0  0  0  0  0  0  0
  1  2  1  0  0  0  0
  1 23  1  0  0  0  0
  1 24  1  0  0  0  0
  1 25  1  0  0  0  0
  2  3  1  0  0  0  0
  2 26  1  0  0  0  0
  2 27  1  0  0  0  0
  3  4  2  0  0  0  0
  3  5  2  0  0  0  0
  3  6  1  0  0  0  0
  6 22  1  0  0  0  0
  6  7  1  0  0  0  0
  7  8  1  0  0  0  0
  7 28  1  0  0  0  0
  7 29  1  0  0  0  0
  8  9  1  0  0  0  0
  8 30  1  0  0  0  0
  8 31  1  0  0  0  0
  9 10  1  0  0  0  0
  9 21  1  0  0  0  0
  9 32  1  0  0  0  0
 10 11  2  0  0  0  0
 10 12  1  0  0  0  0
 12 13  1  0  0  0  0
 12 33  1  0  0  0  0
 13 14  1  0  0  0  0
 13 34  1  0  0  0  0
 13 35  1  0  0  0  0
 14 15  1  0  0  0  0
 14 36  1  0  0  0  0
 14 37  1  0  0  0  0
 15 20  1  0  0  0  0
 15 16  2  0  0  0  0
 16 17  1  0  0  0  0
 16 38  1  0  0  0  0
 17 18  2  0  0  0  0
 17 39  1  0  0  0  0
 18 19  1  0  0  0  0
 18 40  1  0  0  0  0
 19 20  2  0  0  0  0
 19 41  1  0  0  0  0
 20 46  1  0  0  0  0
 21 22  1  0  0  0  0
 21 42  1  0  0  0  0
 21 43  1  0  0  0  0
 22 44  1  0  0  0  0
 22 45  1  0  0  0  0
M  CHG  1  20   1
M  END
> <s_m_source_file>
AV-unprocessed.smi

> <i_m_source_file_index>
303

> <i_lp_mmshare_version>
43012

> <i_f3d_flags>
0

> <s_epik_input>
W0NIM11bQ0gyXVMoPU8pKD1PKU4xW0NIMl1bQ0gyXVtDSF0oW0NIMl1bQ0gyXTEpQyg9TylbTkhdW0NIMl1bQ0gyXWMyW2NIXVtjSF1bY0hdW2NIXW4y

> <s_epik_cmdline>
J2VwaWtfcHl0aG9uJywgJy1waCcsICc3LjAnLCAnLXRuJywgJzgnLCAnLW1hJywgJzIwMCcsICctbWV0YWxfYmluZGluZycsICctaW1hZScsICc8aW5maWxlLm1hZT4nLCAnLW9tYWUnLCAnPG91dGZpbGUubWFlPic=

> <r_epik_Ionization_Penalty>
1.82741

> <r_epik_Ionization_Penalty_Charging>
1.82741

> <r_epik_Ionization_Penalty_Neutral>
1.89562e-08

> <r_epik_State_Penalty>
1.94311

> <r_epik_Charging_Adjusted_Penalty>
3.77052

> <i_epik_Tot_Q>
1

> <i_epik_Tot_abs_Q>
1

> <r_epik_Metal_State_Penalty>
1.96983

> <b_epik_Metal_Only>
0

> <s_lp_Force_Field>
OPLS_2005

> <r_lp_Energy>
6.79825

> <b_lp_Chiralities_Consistent>
1

> <s_lp_Variant>
AV-unprocessed.smi:303-2

> <Gold.Version>
5.8.1

> <Gold.Id.Protein>
6NUR|6NUR_protein|mol2

> <Gold.PLP.Fitness>
49.6927

> <Gold.PLP.PLP>
-39.3600

> <Gold.PLP.part.hbond>
-3.5535

> <Gold.PLP.part.metal>
0.0000

> <Gold.PLP.part.buried>
1.4551

> <Gold.PLP.part.nonpolar>
-37.1562

> <Gold.PLP.part.repulsive>
0.1842

> <Gold.PLP.ligand.clash>
0.0000

> <Gold.PLP.ligand.torsion>
1.8039

> <Gold.PLP.Chemscore.Hbond>
3.9200

> <Gold.PLP.Chemscore.CHOScore>
0.0000

> <Gold.PLP.Chemscore.Metal>
0.0000

> <Gold.Chemscore.Hbonds>
donor molecule, donor type, donor heavy atom, donor atom, acceptor molecule, acceptor atom, score
      L1  H    12    33       P1  7957  1.00
      L1  H    20    46       P1  7948  1.86
      P1  H  7997  8009       L1     4  1.00

> <Gold.PLP.Chemscore.Internal.Correction>
2.1806

> <Gold.Rescore>
     Score         DG    S(hbond)    S(metal)    S(lipo)     H(rot)  DE(clash)    DE(int)     intcor
     18.76     -22.20       2.88        0.00      99.15       1.76       1.56       1.87       ----

> <Gold.Chemscore.Fitness>
18.7631

> <Gold.Chemscore.DG>
-22.1980

> <Gold.Chemscore.ZeroCoef>
-5.4800

> <Gold.Chemscore.Hbond>
2.8808

> <Gold.Chemscore.Metal>
0.0000

> <Gold.Chemscore.Lipo>
99.1493

> <Gold.Chemscore.Internal_Hbond>
0.0000

> <Gold.Chemscore.DEClash>
1.5608

> <Gold.Chemscore.DEInternal>
1.8741

> <Gold.Chemscore.Rot>
1.7596

> <Gold.Chemscore.Internal.Correction>
   9.000000E+99

> <Gold.Chemscore.Hbonds>
donor molecule, donor type, donor heavy atom, donor atom, acceptor molecule, acceptor atom, score
      L1  H    12    33       P1  7957  0.99
      L1  H    20    46       P1  7948  0.75
      P1  H  7997  8009       L1     4  0.97

> <Gold.Chemscore.Hbond.Weighted>
-9.6220

> <Gold.Chemscore.Metal.Weighted>
-0.0000

> <Gold.Chemscore.Lipo.Weighted>
-11.6005

> <Gold.Chemscore.Internal_Hbond.Weighted>
0.0000

> <Gold.Chemscore.DEClash.Weighted>
1.5608

> <Gold.Chemscore.DEInternal.Weighted>
1.8741

> <Gold.Chemscore.Rot.Weighted>
4.5045

> <Gold.Chemscore.Internal.Correction.Weighted>
   9.000000E+99

> <Gold.Protein.RotatedTorsions>
[ 6907 6896 6895 6894 ] final  147.45 input  -60.11 | X-H torsion
[ 7974 7965 7964 7962 ] final   19.76 input  175.53 | X-H torsion
[ 8008 7997 7996 7995 ] final  151.98 input   59.86 | X-H torsion
[ 10167 10162 10161 10158 ] final -128.81 input  -65.29 | X-H torsion
[ 10718 10713 10712 10709 ] final  175.07 input   66.30 | X-H torsion
[ 10763 10752 10751 10750 ] final   -1.59 input  -60.55 | X-H torsion
[ 11005 11000 10999 10996 ] final    1.96 input  -57.11 | X-H torsion

> <Gold.Protein.ActiveResidues>
 VAL166  LYS551  ARG553  GLY616  TRP617  ASP618  TYR619  PRO620  LYS621  CYS622 
 ASP623  PHE694  ASN695  SER759  ASP760  ASP761  ALA762  ILE779  LEU786  VAL792 
 PHE793  MET794  SER795  GLU796  ALA797  LYS798  CYS799  TRP800  GLU811  SER814 

> <Gold.Protein.RotatedAtoms>
  152.1546  133.4543  159.4830 H   0  0  0  0  0  0  0  0  0  0  0  0  # atno 6907 bound_to 6896
  150.6899  134.2147  159.4382 H   0  0  0  0  0  0  0  0  0  0  0  0  # atno 6908 bound_to 6896
  152.0046  134.9909  160.0617 H   0  0  0  0  0  0  0  0  0  0  0  0  # atno 6909 bound_to 6896
  146.2137  139.8266  142.8668 H   0  0  0  0  0  0  0  0  0  0  0  0  # atno 7974 bound_to 7965
  156.2649  140.2033  156.6262 H   0  0  0  0  0  0  0  0  0  0  0  0  # atno 8008 bound_to 7997
  154.6718  140.0549  157.0198 H   0  0  0  0  0  0  0  0  0  0  0  0  # atno 8009 bound_to 7997
  155.1125  140.3217  155.4520 H   0  0  0  0  0  0  0  0  0  0  0  0  # atno 8010 bound_to 7997
  139.9464  143.6105  152.2488 H   0  0  0  0  0  0  0  0  0  0  0  0  # atno 10167 bound_to 10162
  156.9403  130.9999  151.2970 H   0  0  0  0  0  0  0  0  0  0  0  0  # atno 10718 bound_to 10713
  153.3469  135.6983  153.6821 H   0  0  0  0  0  0  0  0  0  0  0  0  # atno 10763 bound_to 10752
  153.5563  135.3543  155.2781 H   0  0  0  0  0  0  0  0  0  0  0  0  # atno 10764 bound_to 10752
  154.8646  135.4238  154.2695 H   0  0  0  0  0  0  0  0  0  0  0  0  # atno 10765 bound_to 10752
  140.6096  133.9760  155.8171 H   0  0  0  0  0  0  0  0  0  0  0  0  # atno 11005 bound_to 11000
  145.3040  141.0202  143.3592 LP  0  0  0  0  0  0  0  0  0  0  0  0  # atno 17320 bound_to 7965
  144.8984  139.4681  143.6644 LP  0  0  0  0  0  0  0  0  0  0  0  0  # atno 17321 bound_to 7965
  139.6663  144.7662  151.1866 LP  0  0  0  0  0  0  0  0  0  0  0  0  # atno 17342 bound_to 10162
  140.7596  143.5932  150.8775 LP  0  0  0  0  0  0  0  0  0  0  0  0  # atno 17343 bound_to 10162
  157.5789  130.8362  149.8494 LP  0  0  0  0  0  0  0  0  0  0  0  0  # atno 17370 bound_to 10713
  156.0407  130.3739  150.1443 LP  0  0  0  0  0  0  0  0  0  0  0  0  # atno 17371 bound_to 10713
  141.0817  134.0052  157.3376 LP  0  0  0  0  0  0  0  0  0  0  0  0  # atno 17394 bound_to 11000
  139.9198  135.0199  156.8020 LP  0  0  0  0  0  0  0  0  0  0  0  0  # atno 17395 bound_to 11000

$$$$
