AV-unprocessed.smi:1402|AV-procd|sdf|5696|dock8
  -GOLD-   22720 5323D 1   1.00000     0.00000
 Structure written by MMmdl.
 44 45  0  0  0  0  0  0  0  0  1 V2000
  154.2929  132.3689  164.4787 C   0  0  0  0  0  0  0  0  0  0  0  0
  154.4942  133.3406  163.3539 C   0  0  0  0  0  0  0  0  0  0  0  0
  154.3488  134.7578  163.3815 C   0  0  0  0  0  0  0  0  0  0  0  0
  154.6408  135.1161  162.0937 C   0  0  0  0  0  0  0  0  0  0  0  0
  154.6640  136.3591  161.5434 N   0  0  0  0  0  0  0  0  0  0  0  0
  154.8782  137.5385  162.1518 C   0  0  0  0  0  0  0  0  0  0  0  0
  155.1380  137.6871  163.3463 O   0  0  0  0  0  0  0  0  0  0  0  0
  154.7563  138.5571  161.2885 N   0  0  0  0  0  0  0  0  0  0  0  0
  154.8263  139.9689  161.6482 C   0  0  0  0  0  0  0  0  0  0  0  0
  154.7394  140.8719  160.4003 C   0  0  0  0  0  0  0  0  0  0  0  0
  153.3520  141.2240  160.0759 N   0  0  0  0  0  0  0  0  0  0  0  0
  152.6629  142.0937  161.0417 C   0  0  0  0  0  0  0  0  0  0  0  0
  152.4118  143.5278  160.5208 C   0  0  0  0  0  0  0  0  0  0  0  0
  152.1973  143.6727  159.0009 C   0  0  0  0  0  0  0  0  0  0  0  0
  151.1293  142.7350  158.3989 C   0  0  0  0  0  0  0  0  0  0  0  0
  151.3062  141.2210  158.6686 C   0  0  0  0  0  0  0  0  0  0  0  0
  152.7564  140.7891  158.9384 C   0  0  0  0  0  0  0  0  0  0  0  0
  153.3240  140.0727  158.1136 O   0  0  0  0  0  0  0  0  0  0  0  0
  154.9490  133.9808  161.3748 N   0  0  0  0  0  0  0  0  0  0  0  0
  155.3245  133.8260  159.9826 C   0  0  0  0  0  0  0  0  0  0  0  0
  154.8528  132.8855  162.1586 N   0  0  0  0  0  0  0  0  0  0  0  0
  154.0433  132.8849  165.4060 H   0  0  0  0  0  0  0  0  0  0  0  0
  155.1939  131.7821  164.6580 H   0  0  0  0  0  0  0  0  0  0  0  0
  153.4813  131.6760  164.2564 H   0  0  0  0  0  0  0  0  0  0  0  0
  154.0752  135.3863  164.2156 H   0  0  0  0  0  0  0  0  0  0  0  0
  154.4298  136.4004  160.5625 H   0  0  0  0  0  0  0  0  0  0  0  0
  154.5492  138.3432  160.3239 H   0  0  0  0  0  0  0  0  0  0  0  0
  154.0765  140.2365  162.3954 H   0  0  0  0  0  0  0  0  0  0  0  0
  155.7902  140.1247  162.1335 H   0  0  0  0  0  0  0  0  0  0  0  0
  155.3089  141.7851  160.5783 H   0  0  0  0  0  0  0  0  0  0  0  0
  155.2318  140.4123  159.5409 H   0  0  0  0  0  0  0  0  0  0  0  0
  151.7155  141.6338  161.3234 H   0  0  0  0  0  0  0  0  0  0  0  0
  153.2169  142.1456  161.9798 H   0  0  0  0  0  0  0  0  0  0  0  0
  151.5575  143.9497  161.0515 H   0  0  0  0  0  0  0  0  0  0  0  0
  153.2641  144.1499  160.7956 H   0  0  0  0  0  0  0  0  0  0  0  0
  151.9230  144.7052  158.7828 H   0  0  0  0  0  0  0  0  0  0  0  0
  153.1468  143.5193  158.4861 H   0  0  0  0  0  0  0  0  0  0  0  0
  150.1469  143.0391  158.7618 H   0  0  0  0  0  0  0  0  0  0  0  0
  151.1044  142.8965  157.3207 H   0  0  0  0  0  0  0  0  0  0  0  0
  150.6849  140.9144  159.5097 H   0  0  0  0  0  0  0  0  0  0  0  0
  150.9187  140.6587  157.8179 H   0  0  0  0  0  0  0  0  0  0  0  0
  155.3951  134.7963  159.4912 H   0  0  0  0  0  0  0  0  0  0  0  0
  154.5760  133.2243  159.4663 H   0  0  0  0  0  0  0  0  0  0  0  0
  156.2915  133.3269  159.9156 H   0  0  0  0  0  0  0  0  0  0  0  0
  1  2  1  0  0  0  0
  1 22  1  0  0  0  0
  1 23  1  0  0  0  0
  1 24  1  0  0  0  0
  2 21  2  0  0  0  0
  2  3  1  0  0  0  0
  3  4  2  0  0  0  0
  3 25  1  0  0  0  0
  4  5  1  0  0  0  0
  4 19  1  0  0  0  0
  5  6  1  0  0  0  0
  5 26  1  0  0  0  0
  6  7  2  0  0  0  0
  6  8  1  0  0  0  0
  8  9  1  0  0  0  0
  8 27  1  0  0  0  0
  9 10  1  0  0  0  0
  9 28  1  0  0  0  0
  9 29  1  0  0  0  0
 10 11  1  0  0  0  0
 10 30  1  0  0  0  0
 10 31  1  0  0  0  0
 11 17  1  0  0  0  0
 11 12  1  0  0  0  0
 12 13  1  0  0  0  0
 12 32  1  0  0  0  0
 12 33  1  0  0  0  0
 13 14  1  0  0  0  0
 13 34  1  0  0  0  0
 13 35  1  0  0  0  0
 14 15  1  0  0  0  0
 14 36  1  0  0  0  0
 14 37  1  0  0  0  0
 15 16  1  0  0  0  0
 15 38  1  0  0  0  0
 15 39  1  0  0  0  0
 16 17  1  0  0  0  0
 16 40  1  0  0  0  0
 16 41  1  0  0  0  0
 17 18  2  0  0  0  0
 19 20  1  0  0  0  0
 19 21  1  0  0  0  0
 20 42  1  0  0  0  0
 20 43  1  0  0  0  0
 20 44  1  0  0  0  0
M  END
> <s_m_source_file>
AV-unprocessed.smi

> <i_m_source_file_index>
1402

> <i_lp_mmshare_version>
43012

> <i_f3d_flags>
0

> <s_epik_input>
W0NIM11jMVtjSF1jKG4objEpW0NIM10pW05IXUMoPU8pW05IXVtDSDJdW0NIMl1OMltDSDJdW0NIMl1bQ0gyXVtDSDJdW0NIMl1DMj1P

> <s_epik_cmdline>
J2VwaWtfcHl0aG9uJywgJy1waCcsICc3LjAnLCAnLXRuJywgJzgnLCAnLW1hJywgJzIwMCcsICctbWV0YWxfYmluZGluZycsICctaW1hZScsICc8aW5maWxlLm1hZT4nLCAnLW9tYWUnLCAnPG91dGZpbGUubWFlPic=

> <r_lp_tautomer_probability>
1

> <r_epik_Ionization_Penalty>
9.00432e-05

> <r_epik_Ionization_Penalty_Charging>
0

> <r_epik_Ionization_Penalty_Neutral>
9.00432e-05

> <r_epik_State_Penalty>
-0

> <r_epik_Charging_Adjusted_Penalty>
0

> <i_epik_Tot_Q>
0

> <i_epik_Tot_abs_Q>
0

> <r_epik_Metal_State_Penalty>
-0

> <b_epik_Metal_Only>
0

> <s_lp_Force_Field>
OPLS_2005

> <r_lp_Energy>
25.7606

> <b_lp_Chiralities_Consistent>
1

> <s_lp_Variant>
AV-unprocessed.smi:1402-1

> <Gold.Version>
5.8.1

> <Gold.Id.Protein>
6NUR|6NUR_protein|mol2

> <Gold.PLP.Fitness>
44.9629

> <Gold.PLP.PLP>
-42.7191

> <Gold.PLP.part.hbond>
-1.0000

> <Gold.PLP.part.metal>
0.0000

> <Gold.PLP.part.buried>
-4.1076

> <Gold.PLP.part.nonpolar>
-37.4031

> <Gold.PLP.part.repulsive>
0.0421

> <Gold.PLP.ligand.clash>
0.0000

> <Gold.PLP.ligand.torsion>
0.3849

> <Gold.PLP.Chemscore.Hbond>
1.0000

> <Gold.PLP.Chemscore.CHOScore>
0.0000

> <Gold.PLP.Chemscore.Metal>
0.0000

> <Gold.Chemscore.Hbonds>
donor molecule, donor type, donor heavy atom, donor atom, acceptor molecule, acceptor atom, score
      P1  H  7997  8008       L1    18  0.85

> <Gold.PLP.Chemscore.Internal.Correction>
0.0134

> <Gold.Rescore>
     Score         DG    S(hbond)    S(metal)    S(lipo)     H(rot)  DE(clash)    DE(int)     intcor
     15.53     -16.95       0.99        0.00     103.56       1.54       0.06       1.36       ----

> <Gold.Chemscore.Fitness>
15.5310

> <Gold.Chemscore.DG>
-16.9527

> <Gold.Chemscore.ZeroCoef>
-5.4800

> <Gold.Chemscore.Hbond>
0.9883

> <Gold.Chemscore.Metal>
0.0000

> <Gold.Chemscore.Lipo>
103.5558

> <Gold.Chemscore.Internal_Hbond>
0.0000

> <Gold.Chemscore.DEClash>
0.0574

> <Gold.Chemscore.DEInternal>
1.3643

> <Gold.Chemscore.Rot>
1.5407

> <Gold.Chemscore.Internal.Correction>
   9.000000E+99

> <Gold.Chemscore.Hbonds>
donor molecule, donor type, donor heavy atom, donor atom, acceptor molecule, acceptor atom, score
      P1  H  7997  8008       L1    18  0.83

> <Gold.Chemscore.Hbond.Weighted>
-3.3008

> <Gold.Chemscore.Metal.Weighted>
-0.0000

> <Gold.Chemscore.Lipo.Weighted>
-12.1160

> <Gold.Chemscore.Internal_Hbond.Weighted>
0.0000

> <Gold.Chemscore.DEClash.Weighted>
0.0574

> <Gold.Chemscore.DEInternal.Weighted>
1.3643

> <Gold.Chemscore.Rot.Weighted>
3.9441

> <Gold.Chemscore.Internal.Correction.Weighted>
   9.000000E+99

> <Gold.Protein.RotatedTorsions>
[ 6907 6896 6895 6894 ] final -166.20 input  -60.11 | X-H torsion
[ 7974 7965 7964 7962 ] final -156.05 input  175.53 | X-H torsion
[ 8008 7997 7996 7995 ] final -101.61 input   59.86 | X-H torsion
[ 10167 10162 10161 10158 ] final  130.65 input  -65.29 | X-H torsion
[ 10718 10713 10712 10709 ] final   53.90 input   66.30 | X-H torsion
[ 10763 10752 10751 10750 ] final  -69.55 input  -60.55 | X-H torsion
[ 11005 11000 10999 10996 ] final  -68.69 input  -57.11 | X-H torsion

> <Gold.Protein.ActiveResidues>
 VAL166  LYS551  ARG553  GLY616  TRP617  ASP618  TYR619  PRO620  LYS621  CYS622 
 ASP623  PHE694  ASN695  SER759  ASP760  ASP761  ALA762  ILE779  LEU786  VAL792 
 PHE793  MET794  SER795  GLU796  ALA797  LYS798  CYS799  TRP800  GLU811  SER814 

> <Gold.Protein.RotatedAtoms>
  151.4399  133.3646  159.2780 H   0  0  0  0  0  0  0  0  0  0  0  0  # atno 6907 bound_to 6896
  150.9165  134.8584  159.7471 H   0  0  0  0  0  0  0  0  0  0  0  0  # atno 6908 bound_to 6896
  152.4960  134.4333  159.9571 H   0  0  0  0  0  0  0  0  0  0  0  0  # atno 6909 bound_to 6896
  144.7611  140.4163  143.5976 H   0  0  0  0  0  0  0  0  0  0  0  0  # atno 7974 bound_to 7965
  154.8449  140.0433  157.1566 H   0  0  0  0  0  0  0  0  0  0  0  0  # atno 8008 bound_to 7997
  154.9006  140.2999  155.5299 H   0  0  0  0  0  0  0  0  0  0  0  0  # atno 8009 bound_to 7997
  156.2994  140.2376  156.4033 H   0  0  0  0  0  0  0  0  0  0  0  0  # atno 8010 bound_to 7997
  139.5420  144.6739  151.4593 H   0  0  0  0  0  0  0  0  0  0  0  0  # atno 10167 bound_to 10162
  157.5209  130.8564  149.8557 H   0  0  0  0  0  0  0  0  0  0  0  0  # atno 10718 bound_to 10713
  154.4050  135.6022  153.5919 H   0  0  0  0  0  0  0  0  0  0  0  0  # atno 10763 bound_to 10752
  152.9789  135.5916  154.4138 H   0  0  0  0  0  0  0  0  0  0  0  0  # atno 10764 bound_to 10752
  154.3942  135.2842  155.2114 H   0  0  0  0  0  0  0  0  0  0  0  0  # atno 10765 bound_to 10752
  141.1537  133.6746  156.6484 H   0  0  0  0  0  0  0  0  0  0  0  0  # atno 11005 bound_to 11000
  145.6617  139.1582  143.2804 LP  0  0  0  0  0  0  0  0  0  0  0  0  # atno 17320 bound_to 7965
  146.1674  140.6697  142.9249 LP  0  0  0  0  0  0  0  0  0  0  0  0  # atno 17321 bound_to 7965
  140.6654  143.8409  150.6936 LP  0  0  0  0  0  0  0  0  0  0  0  0  # atno 17342 bound_to 10162
  140.1817  143.4109  152.1928 LP  0  0  0  0  0  0  0  0  0  0  0  0  # atno 17343 bound_to 10162
  156.0352  130.3753  150.1579 LP  0  0  0  0  0  0  0  0  0  0  0  0  # atno 17370 bound_to 10713
  156.9766  130.9851  151.3447 LP  0  0  0  0  0  0  0  0  0  0  0  0  # atno 17371 bound_to 10713
  140.3339  134.7906  157.4347 LP  0  0  0  0  0  0  0  0  0  0  0  0  # atno 17394 bound_to 11000
  140.0994  134.5493  155.8367 LP  0  0  0  0  0  0  0  0  0  0  0  0  # atno 17395 bound_to 11000

$$$$
