AV-unprocessed.smi:2402|AV-procd|sdf|9506|dock3
  -GOLD-   2272013133D 1   1.00000     0.00000
 Structure written by MMmdl.
 38 39  0  0  0  0  0  0  0  0  1 V2000
  151.9149  145.9546  160.1551 C   0  0  0  0  0  0  0  0  0  0  0  0
  151.9837  144.5664  159.5542 C   0  0  0  0  0  0  0  0  0  0  0  0
  152.8767  143.6027  160.0606 C   0  0  0  0  0  0  0  0  0  0  0  0
  152.8936  142.3303  159.4565 C   0  0  0  0  0  0  0  0  0  0  0  0
  153.8293  141.2461  159.9480 C   0  0  0  0  0  0  0  0  0  0  0  0
  152.0981  141.9976  158.4178 N   0  0  0  0  0  0  0  0  0  0  0  0
  151.2358  142.9182  157.9198 C   0  0  0  0  0  0  0  0  0  0  0  0
  150.3663  142.6711  156.8241 N   0  0  0  0  0  0  0  0  0  0  0  0
  150.3174  141.5852  156.0324 C   0  0  0  0  0  0  0  0  0  0  0  0
  151.0124  140.5766  156.1610 O   0  0  0  0  0  0  0  0  0  0  0  0
  149.4061  141.7324  155.0599 N   0  0  0  0  0  0  0  0  0  0  0  0
  149.1348  140.7471  154.0189 C   0  0  1  0  0  0  0  0  0  0  0  0
  149.1072  139.3576  154.5975 C   0  0  0  0  0  0  0  0  0  0  0  0
  147.9491  138.7348  154.3884 C   0  0  0  0  0  0  0  0  0  0  0  0
  146.9562  139.5910  153.6460 C   0  0  2  0  0  0  0  0  0  0  0  0
  146.3954  138.9187  152.3784 C   0  0  0  0  0  0  0  0  0  0  0  0
  147.4130  138.6383  151.4379 O   0  0  0  0  0  0  0  0  0  0  0  0
  147.7259  140.9119  153.3878 C   0  0  0  0  0  0  0  0  0  0  0  0
  151.1528  144.2169  158.4704 C   0  0  0  0  0  0  0  0  0  0  0  0
  149.9104  140.7865  153.2520 H   0  0  0  0  0  0  0  0  0  0  0  0
  146.1291  139.7900  154.3284 H   0  0  0  0  0  0  0  0  0  0  0  0
  152.5662  146.0430  161.0251 H   0  0  0  0  0  0  0  0  0  0  0  0
  150.8956  146.1816  160.4683 H   0  0  0  0  0  0  0  0  0  0  0  0
  152.2234  146.6987  159.4206 H   0  0  0  0  0  0  0  0  0  0  0  0
  153.5320  143.8323  160.8883 H   0  0  0  0  0  0  0  0  0  0  0  0
  154.3679  141.5629  160.8416 H   0  0  0  0  0  0  0  0  0  0  0  0
  154.5607  141.0012  159.1775 H   0  0  0  0  0  0  0  0  0  0  0  0
  153.2699  140.3424  160.1912 H   0  0  0  0  0  0  0  0  0  0  0  0
  149.7260  143.4184  156.6013 H   0  0  0  0  0  0  0  0  0  0  0  0
  148.8749  142.5901  155.0261 H   0  0  0  0  0  0  0  0  0  0  0  0
  149.9571  138.9315  155.1100 H   0  0  0  0  0  0  0  0  0  0  0  0
  147.7141  137.7324  154.7145 H   0  0  0  0  0  0  0  0  0  0  0  0
  145.8938  137.9856  152.6371 H   0  0  0  0  0  0  0  0  0  0  0  0
  145.6493  139.5613  151.9101 H   0  0  0  0  0  0  0  0  0  0  0  0
  148.1624  139.1791  151.6353 H   0  0  0  0  0  0  0  0  0  0  0  0
  147.1820  141.7527  153.8210 H   0  0  0  0  0  0  0  0  0  0  0  0
  147.8178  141.1216  152.3216 H   0  0  0  0  0  0  0  0  0  0  0  0
  150.4616  144.9420  158.0647 H   0  0  0  0  0  0  0  0  0  0  0  0
  1  2  1  0  0  0  0
  1 22  1  0  0  0  0
  1 23  1  0  0  0  0
  1 24  1  0  0  0  0
  2 19  1  0  0  0  0
  2  3  2  0  0  0  0
  3  4  1  0  0  0  0
  3 25  1  0  0  0  0
  4  5  1  0  0  0  0
  4  6  2  0  0  0  0
  5 26  1  0  0  0  0
  5 27  1  0  0  0  0
  5 28  1  0  0  0  0
  6  7  1  0  0  0  0
  7  8  1  0  0  0  0
  7 19  2  0  0  0  0
  8  9  1  0  0  0  0
  8 29  1  0  0  0  0
  9 10  2  0  0  0  0
  9 11  1  0  0  0  0
 11 12  1  0  0  0  0
 11 30  1  0  0  0  0
 12 20  1  0  0  0  0
 12 18  1  0  0  0  0
 12 13  1  0  0  0  0
 13 14  2  0  0  0  0
 13 31  1  0  0  0  0
 14 15  1  0  0  0  0
 14 32  1  0  0  0  0
 15 21  1  0  0  0  0
 15 16  1  0  0  0  0
 15 18  1  0  0  0  0
 16 17  1  0  0  0  0
 16 33  1  0  0  0  0
 16 34  1  0  0  0  0
 17 35  1  0  0  0  0
 18 36  1  0  0  0  0
 18 37  1  0  0  0  0
 19 38  1  0  0  0  0
M  END
> <s_m_source_file>
AV-unprocessed.smi

> <i_m_source_file_index>
2402

> <i_lp_mmshare_version>
43012

> <i_f3d_flags>
0

> <s_epik_input>
W0NIM11jMVtjSF1jKFtDSDNdKW5jKFtjSF0xKVtOSF1DKD1PKVtOSF1bQ0BASF0yW0NIXT1bQ0hdW0NAQEhdKFtDSDJdMilbQ0gyXVtPSF0=

> <s_epik_cmdline>
J2VwaWtfcHl0aG9uJywgJy1waCcsICc3LjAnLCAnLXRuJywgJzgnLCAnLW1hJywgJzIwMCcsICctbWV0YWxfYmluZGluZycsICctaW1hZScsICc8aW5maWxlLm1hZT4nLCAnLW9tYWUnLCAnPG91dGZpbGUubWFlPic=

> <r_lp_tautomer_probability>
1

> <r_epik_Ionization_Penalty>
0.000257495

> <r_epik_Ionization_Penalty_Charging>
0

> <r_epik_Ionization_Penalty_Neutral>
0.000257495

> <r_epik_State_Penalty>
-0

> <r_epik_Charging_Adjusted_Penalty>
0

> <i_epik_Tot_Q>
0

> <i_epik_Tot_abs_Q>
0

> <r_epik_Metal_State_Penalty>
-0

> <b_epik_Metal_Only>
0

> <s_lp_Force_Field>
OPLS_2005

> <r_lp_Energy>
20.4004

> <b_lp_Chiralities_Consistent>
1

> <s_lp_Variant>
AV-unprocessed.smi:2402-2

> <Gold.Version>
5.8.1

> <Gold.Id.Protein>
6NUR|6NUR_protein|mol2

> <Gold.PLP.Fitness>
53.6274

> <Gold.PLP.PLP>
-44.4282

> <Gold.PLP.part.hbond>
-4.9057

> <Gold.PLP.part.metal>
0.0000

> <Gold.PLP.part.buried>
-0.7837

> <Gold.PLP.part.nonpolar>
-38.5198

> <Gold.PLP.part.repulsive>
0.2475

> <Gold.PLP.ligand.clash>
0.0165

> <Gold.PLP.ligand.torsion>
0.2892

> <Gold.PLP.Chemscore.Hbond>
3.2611

> <Gold.PLP.Chemscore.CHOScore>
0.0000

> <Gold.PLP.Chemscore.Metal>
0.0000

> <Gold.Chemscore.Hbonds>
donor molecule, donor type, donor heavy atom, donor atom, acceptor molecule, acceptor atom, score
      L1  H     8    29       P1  8028  1.00
      L1  H    11    30       P1  8028  0.49
      L1  H    17    35       P1  7957  0.99
      P1  H  7954  7966       L1    17  0.69

> <Gold.PLP.Chemscore.Internal.Correction>
0.0108

> <Gold.Rescore>
     Score         DG    S(hbond)    S(metal)    S(lipo)     H(rot)  DE(clash)    DE(int)     intcor
     19.45     -23.26       2.79        0.00     111.39       1.78       0.70       3.11       ----

> <Gold.Chemscore.Fitness>
19.4500

> <Gold.Chemscore.DG>
-23.2601

> <Gold.Chemscore.ZeroCoef>
-5.4800

> <Gold.Chemscore.Hbond>
2.7891

> <Gold.Chemscore.Metal>
0.0000

> <Gold.Chemscore.Lipo>
111.3900

> <Gold.Chemscore.Internal_Hbond>
0.0000

> <Gold.Chemscore.DEClash>
0.6955

> <Gold.Chemscore.DEInternal>
3.1146

> <Gold.Chemscore.Rot>
1.7844

> <Gold.Chemscore.Internal.Correction>
   9.000000E+99

> <Gold.Chemscore.Hbonds>
donor molecule, donor type, donor heavy atom, donor atom, acceptor molecule, acceptor atom, score
      L1  H     8    29       P1  8028  1.00
      L1  H    11    30       P1  8028  0.49
      L1  H    17    35       P1  7957  0.89
      P1  H  7954  7966       L1    17  0.07

> <Gold.Chemscore.Hbond.Weighted>
-9.3156

> <Gold.Chemscore.Metal.Weighted>
-0.0000

> <Gold.Chemscore.Lipo.Weighted>
-13.0326

> <Gold.Chemscore.Internal_Hbond.Weighted>
0.0000

> <Gold.Chemscore.DEClash.Weighted>
0.6955

> <Gold.Chemscore.DEInternal.Weighted>
3.1146

> <Gold.Chemscore.Rot.Weighted>
4.5681

> <Gold.Chemscore.Internal.Correction.Weighted>
   9.000000E+99

> <Gold.Protein.RotatedTorsions>
[ 6907 6896 6895 6894 ] final   29.47 input  -60.11 | X-H torsion
[ 7974 7965 7964 7962 ] final   12.83 input  175.53 | X-H torsion
[ 8008 7997 7996 7995 ] final    4.98 input   59.86 | X-H torsion
[ 10167 10162 10161 10158 ] final  157.68 input  -65.29 | X-H torsion
[ 10718 10713 10712 10709 ] final -147.96 input   66.30 | X-H torsion
[ 10763 10752 10751 10750 ] final  -22.16 input  -60.55 | X-H torsion
[ 11005 11000 10999 10996 ] final   73.57 input  -57.11 | X-H torsion

> <Gold.Protein.ActiveResidues>
 VAL166  LYS551  ARG553  GLY616  TRP617  ASP618  TYR619  PRO620  LYS621  CYS622 
 ASP623  PHE694  ASN695  SER759  ASP760  ASP761  ALA762  ILE779  LEU786  VAL792 
 PHE793  MET794  SER795  GLU796  ALA797  LYS798  CYS799  TRP800  GLU811  SER814 

> <Gold.Protein.RotatedAtoms>
  152.0321  134.9762  160.0572 H   0  0  0  0  0  0  0  0  0  0  0  0  # atno 6907 bound_to 6896
  152.1234  133.4361  159.4695 H   0  0  0  0  0  0  0  0  0  0  0  0  # atno 6908 bound_to 6896
  150.6851  134.2426  159.4522 H   0  0  0  0  0  0  0  0  0  0  0  0  # atno 6909 bound_to 6896
  146.2343  139.9279  142.8500 H   0  0  0  0  0  0  0  0  0  0  0  0  # atno 7974 bound_to 7965
  154.7227  140.2715  155.6527 H   0  0  0  0  0  0  0  0  0  0  0  0  # atno 8008 bound_to 7997
  156.2828  140.2731  156.1828 H   0  0  0  0  0  0  0  0  0  0  0  0  # atno 8009 bound_to 7997
  155.0486  140.0371  157.2525 H   0  0  0  0  0  0  0  0  0  0  0  0  # atno 8010 bound_to 7997
  139.4824  144.4895  151.8329 H   0  0  0  0  0  0  0  0  0  0  0  0  # atno 10167 bound_to 10162
  156.4142  130.7997  151.2216 H   0  0  0  0  0  0  0  0  0  0  0  0  # atno 10718 bound_to 10713
  153.6476  135.6982  153.5220 H   0  0  0  0  0  0  0  0  0  0  0  0  # atno 10763 bound_to 10752
  153.2732  135.4208  155.1007 H   0  0  0  0  0  0  0  0  0  0  0  0  # atno 10764 bound_to 10752
  154.8484  135.3583  154.6020 H   0  0  0  0  0  0  0  0  0  0  0  0  # atno 10765 bound_to 10752
  139.9433  134.7358  156.1043 H   0  0  0  0  0  0  0  0  0  0  0  0  # atno 11005 bound_to 11000
  145.2073  140.9880  143.4121 LP  0  0  0  0  0  0  0  0  0  0  0  0  # atno 17320 bound_to 7965
  144.9722  139.3869  143.6303 LP  0  0  0  0  0  0  0  0  0  0  0  0  # atno 17321 bound_to 7965
  140.4378  144.2028  150.5890 LP  0  0  0  0  0  0  0  0  0  0  0  0  # atno 17342 bound_to 10162
  140.4714  143.2411  151.9083 LP  0  0  0  0  0  0  0  0  0  0  0  0  # atno 17343 bound_to 10162
  157.7507  131.0248  150.3892 LP  0  0  0  0  0  0  0  0  0  0  0  0  # atno 17370 bound_to 10713
  156.4196  130.3950  149.6834 LP  0  0  0  0  0  0  0  0  0  0  0  0  # atno 17371 bound_to 10713
  141.1075  133.6654  156.2900 LP  0  0  0  0  0  0  0  0  0  0  0  0  # atno 17394 bound_to 11000
  140.5896  134.5663  157.5497 LP  0  0  0  0  0  0  0  0  0  0  0  0  # atno 17395 bound_to 11000

$$$$
