AV-unprocessed.smi:1982|AV-procd|sdf|8020|dock3
  -GOLD-   2272010213D 1   1.00000     0.00000
 Structure written by MMmdl.
 36 37  0  0  0  0  0  0  0  0  1 V2000
  147.7739  141.7160  154.9165 C   0  0  0  0  0  0  0  0  0  0  0  0
  148.8017  140.6462  155.3263 C   0  0  2  0  0  0  0  0  0  0  0  0
  150.0702  141.3275  155.8807 C   0  0  0  0  0  0  0  0  0  0  0  0
  151.1290  140.3084  156.3226 C   0  0  0  0  0  0  0  0  0  0  0  0
  151.4940  139.3617  155.1705 C   0  0  0  0  0  0  0  0  0  0  0  0
  150.2514  138.6573  154.5933 C   0  0  1  0  0  0  0  0  0  0  0  0
  149.7129  137.6921  155.5504 N   0  0  0  0  0  0  0  0  0  0  0  0
  150.3511  136.6145  156.0321 C   0  0  0  0  0  0  0  0  0  0  0  0
  151.5202  136.3389  155.7657 O   0  0  0  0  0  0  0  0  0  0  0  0
  149.5396  135.7027  156.9540 C   0  0  0  0  0  0  0  0  0  0  0  0
  149.0471  136.4335  158.1080 N   0  0  0  0  0  0  0  0  0  0  0  0
  148.1138  137.3818  158.2120 C   0  0  0  0  0  0  0  0  0  0  0  0
  147.9885  137.8092  159.4591 N   0  0  0  0  0  0  0  0  0  0  0  0
  148.9221  137.0519  160.1472 N   0  0  0  0  0  0  0  0  0  0  0  0
  149.5530  136.2332  159.3510 N   0  0  0  0  0  0  0  0  0  0  0  0
  149.1611  139.6748  154.1669 C   0  0  1  0  0  0  0  0  0  0  0  0
  147.9284  138.9561  153.5794 C   0  0  0  0  0  0  0  0  0  0  0  0
  148.1217  142.2938  154.0596 H   0  0  0  0  0  0  0  0  0  0  0  0
  147.5902  142.4144  155.7335 H   0  0  0  0  0  0  0  0  0  0  0  0
  146.8119  141.2747  154.6569 H   0  0  0  0  0  0  0  0  0  0  0  0
  148.3573  140.0649  156.1355 H   0  0  0  0  0  0  0  0  0  0  0  0
  150.4969  141.9841  155.1211 H   0  0  0  0  0  0  0  0  0  0  0  0
  149.8112  141.9655  156.7264 H   0  0  0  0  0  0  0  0  0  0  0  0
  152.0217  140.8290  156.6703 H   0  0  0  0  0  0  0  0  0  0  0  0
  150.7570  139.7352  157.1726 H   0  0  0  0  0  0  0  0  0  0  0  0
  151.9813  139.9332  154.3797 H   0  0  0  0  0  0  0  0  0  0  0  0
  152.2264  138.6268  155.5071 H   0  0  0  0  0  0  0  0  0  0  0  0
  150.5619  138.1164  153.6975 H   0  0  0  0  0  0  0  0  0  0  0  0
  148.7546  137.8335  155.8361 H   0  0  0  0  0  0  0  0  0  0  0  0
  148.6877  135.2847  156.4161 H   0  0  0  0  0  0  0  0  0  0  0  0
  150.1569  134.8668  157.2864 H   0  0  0  0  0  0  0  0  0  0  0  0
  147.5378  137.7606  157.3802 H   0  0  0  0  0  0  0  0  0  0  0  0
  149.5884  140.2741  153.3613 H   0  0  0  0  0  0  0  0  0  0  0  0
  147.3596  138.4338  154.3495 H   0  0  0  0  0  0  0  0  0  0  0  0
  148.2252  138.2202  152.8314 H   0  0  0  0  0  0  0  0  0  0  0  0
  147.2536  139.6541  153.0846 H   0  0  0  0  0  0  0  0  0  0  0  0
  1  2  1  0  0  0  0
  1 18  1  0  0  0  0
  1 19  1  0  0  0  0
  1 20  1  0  0  0  0
  2 16  1  0  0  0  0
  2  3  1  0  0  0  0
  2 21  1  0  0  0  0
  3  4  1  0  0  0  0
  3 22  1  0  0  0  0
  3 23  1  0  0  0  0
  4  5  1  0  0  0  0
  4 24  1  0  0  0  0
  4 25  1  0  0  0  0
  5  6  1  0  0  0  0
  5 26  1  0  0  0  0
  5 27  1  0  0  0  0
  6  7  1  0  0  0  0
  6 16  1  0  0  0  0
  6 28  1  0  0  0  0
  7  8  1  0  0  0  0
  7 29  1  0  0  0  0
  8  9  2  0  0  0  0
  8 10  1  0  0  0  0
 10 11  1  0  0  0  0
 10 30  1  0  0  0  0
 10 31  1  0  0  0  0
 11 15  1  0  0  0  0
 11 12  1  0  0  0  0
 12 13  2  0  0  0  0
 12 32  1  0  0  0  0
 13 14  1  0  0  0  0
 14 15  2  0  0  0  0
 16 17  1  0  0  0  0
 16 33  1  0  0  0  0
 17 34  1  0  0  0  0
 17 35  1  0  0  0  0
 17 36  1  0  0  0  0
M  END
> <s_m_source_file>
AV-unprocessed.smi

> <i_m_source_file_index>
1982

> <i_lp_mmshare_version>
43012

> <i_f3d_flags>
0

> <s_epik_input>
W0NIM11bQ0BASF0xW0NIMl1bQ0gyXVtDSDJdW0NASF0oW0NASF0xW0NIM10pW05IXUMoPU8pW0NIMl1uMltjSF1ubm4y

> <s_epik_cmdline>
J2VwaWtfcHl0aG9uJywgJy1waCcsICc3LjAnLCAnLXRuJywgJzgnLCAnLW1hJywgJzIwMCcsICctbWV0YWxfYmluZGluZycsICctaW1hZScsICc8aW5maWxlLm1hZT4nLCAnLW9tYWUnLCAnPG91dGZpbGUubWFlPic=

> <r_lp_tautomer_probability>
1

> <r_epik_Ionization_Penalty>
5.03816e-07

> <r_epik_Ionization_Penalty_Charging>
0

> <r_epik_Ionization_Penalty_Neutral>
5.03816e-07

> <r_epik_State_Penalty>
-0

> <r_epik_Charging_Adjusted_Penalty>
0

> <i_epik_Tot_Q>
0

> <i_epik_Tot_abs_Q>
0

> <r_epik_Metal_State_Penalty>
-0

> <b_epik_Metal_Only>
0

> <s_lp_Force_Field>
OPLS_2005

> <r_lp_Energy>
12.4205

> <b_lp_Chiralities_Consistent>
1

> <s_lp_Variant>
AV-unprocessed.smi:1982-1

> <Gold.Version>
5.8.1

> <Gold.Id.Protein>
6NUR|6NUR_protein|mol2

> <Gold.PLP.Fitness>
33.5521

> <Gold.PLP.PLP>
-24.7648

> <Gold.PLP.part.hbond>
-4.6550

> <Gold.PLP.part.metal>
0.0000

> <Gold.PLP.part.buried>
-1.3101

> <Gold.PLP.part.nonpolar>
-19.8644

> <Gold.PLP.part.repulsive>
0.0451

> <Gold.PLP.ligand.clash>
0.0000

> <Gold.PLP.ligand.torsion>
0.1273

> <Gold.PLP.Chemscore.Hbond>
3.0096

> <Gold.PLP.Chemscore.CHOScore>
0.0000

> <Gold.PLP.Chemscore.Metal>
0.0000

> <Gold.Chemscore.Hbonds>
donor molecule, donor type, donor heavy atom, donor atom, acceptor molecule, acceptor atom, score
      P1  H  6896  6909       L1    15  1.00
      P1  H  6931  6943       L1    14  0.41
      P1  H  6934  6947       L1    13  0.43
      P1  H 10752 10765       L1     9  1.00

> <Gold.PLP.Chemscore.Internal.Correction>
0.0131

> <Gold.Rescore>
     Score         DG    S(hbond)    S(metal)    S(lipo)     H(rot)  DE(clash)    DE(int)     intcor
     14.34     -14.64       2.36        0.00      52.60       1.91       0.08       0.22       ----

> <Gold.Chemscore.Fitness>
14.3437

> <Gold.Chemscore.DG>
-14.6423

> <Gold.Chemscore.ZeroCoef>
-5.4800

> <Gold.Chemscore.Hbond>
2.3614

> <Gold.Chemscore.Metal>
0.0000

> <Gold.Chemscore.Lipo>
52.5988

> <Gold.Chemscore.Internal_Hbond>
0.0000

> <Gold.Chemscore.DEClash>
0.0813

> <Gold.Chemscore.DEInternal>
0.2173

> <Gold.Chemscore.Rot>
1.9058

> <Gold.Chemscore.Internal.Correction>
   9.000000E+99

> <Gold.Chemscore.Hbonds>
donor molecule, donor type, donor heavy atom, donor atom, acceptor molecule, acceptor atom, score
      P1  H  6896  6909       L1    15  0.94
      P1  H  6931  6943       L1    14  0.08
      P1  H  6934  6947       L1    13  0.19
      P1  H 10752 10765       L1     9  1.00

> <Gold.Chemscore.Hbond.Weighted>
-7.8871

> <Gold.Chemscore.Metal.Weighted>
-0.0000

> <Gold.Chemscore.Lipo.Weighted>
-6.1541

> <Gold.Chemscore.Internal_Hbond.Weighted>
0.0000

> <Gold.Chemscore.DEClash.Weighted>
0.0813

> <Gold.Chemscore.DEInternal.Weighted>
0.2173

> <Gold.Chemscore.Rot.Weighted>
4.8788

> <Gold.Chemscore.Internal.Correction.Weighted>
   9.000000E+99

> <Gold.Protein.RotatedTorsions>
[ 6907 6896 6895 6894 ] final   56.31 input  -60.11 | X-H torsion
[ 7974 7965 7964 7962 ] final   31.83 input  175.53 | X-H torsion
[ 8008 7997 7996 7995 ] final  -11.04 input   59.86 | X-H torsion
[ 10167 10162 10161 10158 ] final  109.21 input  -65.29 | X-H torsion
[ 10718 10713 10712 10709 ] final  171.84 input   66.30 | X-H torsion
[ 10763 10752 10751 10750 ] final -166.40 input  -60.55 | X-H torsion
[ 11005 11000 10999 10996 ] final -179.74 input  -57.11 | X-H torsion

> <Gold.Protein.ActiveResidues>
 VAL166  LYS551  ARG553  GLY616  TRP617  ASP618  TYR619  PRO620  LYS621  CYS622 
 ASP623  PHE694  ASN695  SER759  ASP760  ASP761  ALA762  ILE779  LEU786  VAL792 
 PHE793  MET794  SER795  GLU796  ALA797  LYS798  CYS799  TRP800  GLU811  SER814 

> <Gold.Protein.RotatedAtoms>
  152.3623  134.6854  160.0202 H   0  0  0  0  0  0  0  0  0  0  0  0  # atno 6907 bound_to 6896
  151.7173  133.3308  159.3314 H   0  0  0  0  0  0  0  0  0  0  0  0  # atno 6908 bound_to 6896
  150.7614  134.6414  159.6283 H   0  0  0  0  0  0  0  0  0  0  0  0  # atno 6909 bound_to 6896
  146.1525  139.6606  142.9089 H   0  0  0  0  0  0  0  0  0  0  0  0  # atno 7974 bound_to 7965
  154.5500  140.2313  155.8500 H   0  0  0  0  0  0  0  0  0  0  0  0  # atno 8008 bound_to 7997
  156.1938  140.3070  155.9347 H   0  0  0  0  0  0  0  0  0  0  0  0  # atno 8009 bound_to 7997
  155.3089  140.0434  157.3024 H   0  0  0  0  0  0  0  0  0  0  0  0  # atno 8010 bound_to 7997
  139.6785  144.7120  151.1559 H   0  0  0  0  0  0  0  0  0  0  0  0  # atno 10167 bound_to 10162
  156.9876  131.0138  151.2865 H   0  0  0  0  0  0  0  0  0  0  0  0  # atno 10718 bound_to 10713
  154.6837  135.2959  154.9578 H   0  0  0  0  0  0  0  0  0  0  0  0  # atno 10763 bound_to 10752
  154.0564  135.6637  153.4810 H   0  0  0  0  0  0  0  0  0  0  0  0  # atno 10764 bound_to 10752
  153.0564  135.5142  154.7893 H   0  0  0  0  0  0  0  0  0  0  0  0  # atno 10765 bound_to 10752
  140.4153  134.6655  157.4635 H   0  0  0  0  0  0  0  0  0  0  0  0  # atno 11005 bound_to 11000
  145.4788  141.0437  143.2658 LP  0  0  0  0  0  0  0  0  0  0  0  0  # atno 17320 bound_to 7965
  144.7922  139.6305  143.7108 LP  0  0  0  0  0  0  0  0  0  0  0  0  # atno 17321 bound_to 7965
  140.7644  143.5735  150.8970 LP  0  0  0  0  0  0  0  0  0  0  0  0  # atno 17342 bound_to 10162
  139.9406  143.6387  152.3054 LP  0  0  0  0  0  0  0  0  0  0  0  0  # atno 17343 bound_to 10162
  157.5482  130.8164  149.8111 LP  0  0  0  0  0  0  0  0  0  0  0  0  # atno 17370 bound_to 10713
  156.0220  130.3792  150.1935 LP  0  0  0  0  0  0  0  0  0  0  0  0  # atno 17371 bound_to 10713
  140.0238  134.6507  155.9201 LP  0  0  0  0  0  0  0  0  0  0  0  0  # atno 17394 bound_to 11000
  141.1805  133.6546  156.5002 LP  0  0  0  0  0  0  0  0  0  0  0  0  # atno 17395 bound_to 11000

$$$$
