AV-unprocessed.smi:1389|AV-procd|sdf|5650|dock4
  -GOLD-   22720 5273D 1   1.00000     0.00000
 Structure written by MMmdl.
 52 54  0  0  0  0  0  0  0  0  2 V2000
  152.5339  144.2955  159.5766 C   0  0  0  0  0  0  0  0  0  0  0  0
  151.0702  144.0109  159.1673 C   0  0  2  0  0  0  0  0  0  0  0  0
  150.1390  144.6888  160.2071 C   0  0  0  0  0  0  0  0  0  0  0  0
  148.8185  144.9674  159.6466 N   0  0  0  0  0  0  0  0  0  0  0  0
  147.6579  144.4676  160.0923 C   0  0  0  0  0  0  0  0  0  0  0  0
  147.5688  143.6178  160.9784 O   0  0  0  0  0  0  0  0  0  0  0  0
  146.6157  145.0388  159.4683 N   0  0  0  0  0  0  0  0  0  0  0  0
  145.2339  144.8595  159.7547 C   0  0  0  0  0  0  0  0  0  0  0  0
  144.7929  144.3233  160.9908 C   0  0  0  0  0  0  0  0  0  0  0  0
  143.4148  144.1607  161.2299 C   0  0  0  0  0  0  0  0  0  0  0  0
  142.5003  144.5278  160.2264 C   0  0  0  0  0  0  0  0  0  0  0  0
  142.9539  145.0201  159.0546 N   0  3  0  0  0  0  0  0  0  0  0  0
  144.2674  145.2003  158.7698 C   0  0  0  0  0  0  0  0  0  0  0  0
  144.6297  145.7051  157.5033 N   0  0  0  0  0  0  0  0  0  0  0  0
  144.1681  144.8957  156.3793 C   0  0  0  0  0  0  0  0  0  0  0  0
  143.8450  145.8735  155.2482 C   0  0  0  0  0  0  0  0  0  0  0  0
  143.4762  147.1509  155.9922 C   0  0  0  0  0  0  0  0  0  0  0  0
  144.4172  147.1185  157.1951 C   0  0  0  0  0  0  0  0  0  0  0  0
  150.7808  142.5763  158.9525 N   0  0  0  0  0  0  0  0  0  0  0  0
  151.8853  141.8593  158.3088 C   0  0  0  0  0  0  0  0  0  0  0  0
  151.5689  140.3699  158.0850 C   0  0  0  0  0  0  0  0  0  0  0  0
  150.3797  140.2397  157.3168 O   0  0  0  0  0  0  0  0  0  0  0  0
  149.2664  140.8725  157.9345 C   0  0  0  0  0  0  0  0  0  0  0  0
  149.5755  142.3640  158.1450 C   0  0  0  0  0  0  0  0  0  0  0  0
  152.6748  145.3447  159.8384 H   0  0  0  0  0  0  0  0  0  0  0  0
  153.2307  144.0908  158.7643 H   0  0  0  0  0  0  0  0  0  0  0  0
  152.8350  143.6972  160.4373 H   0  0  0  0  0  0  0  0  0  0  0  0
  150.9087  144.5296  158.2212 H   0  0  0  0  0  0  0  0  0  0  0  0
  149.9966  144.0206  161.0570 H   0  0  0  0  0  0  0  0  0  0  0  0
  150.5937  145.5812  160.6368 H   0  0  0  0  0  0  0  0  0  0  0  0
  148.7839  145.6548  158.9083 H   0  0  0  0  0  0  0  0  0  0  0  0
  146.8378  145.7874  158.8288 H   0  0  0  0  0  0  0  0  0  0  0  0
  145.4943  144.0259  161.7557 H   0  0  0  0  0  0  0  0  0  0  0  0
  143.0659  143.7568  162.1691 H   0  0  0  0  0  0  0  0  0  0  0  0
  141.4280  144.4360  160.3209 H   0  0  0  0  0  0  0  0  0  0  0  0
  144.9265  144.1749  156.0725 H   0  0  0  0  0  0  0  0  0  0  0  0
  143.2715  144.3407  156.6612 H   0  0  0  0  0  0  0  0  0  0  0  0
  144.7346  146.0459  154.6407 H   0  0  0  0  0  0  0  0  0  0  0  0
  143.0514  145.5165  154.5915 H   0  0  0  0  0  0  0  0  0  0  0  0
  143.5936  148.0488  155.3850 H   0  0  0  0  0  0  0  0  0  0  0  0
  142.4396  147.0995  156.3281 H   0  0  0  0  0  0  0  0  0  0  0  0
  144.0326  147.7134  158.0231 H   0  0  0  0  0  0  0  0  0  0  0  0
  145.3825  147.5456  156.9212 H   0  0  0  0  0  0  0  0  0  0  0  0
  152.1254  142.3283  157.3535 H   0  0  0  0  0  0  0  0  0  0  0  0
  152.7840  141.9123  158.9216 H   0  0  0  0  0  0  0  0  0  0  0  0
  152.3889  139.8842  157.5561 H   0  0  0  0  0  0  0  0  0  0  0  0
  151.4523  139.8527  159.0387 H   0  0  0  0  0  0  0  0  0  0  0  0
  148.3902  140.7531  157.2973 H   0  0  0  0  0  0  0  0  0  0  0  0
  149.0406  140.3872  158.8855 H   0  0  0  0  0  0  0  0  0  0  0  0
  148.7061  142.8158  158.6162 H   0  0  0  0  0  0  0  0  0  0  0  0
  149.6903  142.8488  157.1745 H   0  0  0  0  0  0  0  0  0  0  0  0
  142.2681  145.2686  158.3416 H   0  0  0  0  0  0  0  0  0  0  0  0
  1  2  1  0  0  0  0
  1 25  1  0  0  0  0
  1 26  1  0  0  0  0
  1 27  1  0  0  0  0
  2  3  1  0  0  0  0
  2 19  1  0  0  0  0
  2 28  1  0  0  0  0
  3  4  1  0  0  0  0
  3 29  1  0  0  0  0
  3 30  1  0  0  0  0
  4  5  1  0  0  0  0
  4 31  1  0  0  0  0
  5  6  2  0  0  0  0
  5  7  1  0  0  0  0
  7  8  1  0  0  0  0
  7 32  1  0  0  0  0
  8 13  1  0  0  0  0
  8  9  2  0  0  0  0
  9 10  1  0  0  0  0
  9 33  1  0  0  0  0
 10 11  2  0  0  0  0
 10 34  1  0  0  0  0
 11 12  1  0  0  0  0
 11 35  1  0  0  0  0
 12 13  2  0  0  0  0
 12 52  1  0  0  0  0
 13 14  1  0  0  0  0
 14 18  1  0  0  0  0
 14 15  1  0  0  0  0
 15 16  1  0  0  0  0
 15 36  1  0  0  0  0
 15 37  1  0  0  0  0
 16 17  1  0  0  0  0
 16 38  1  0  0  0  0
 16 39  1  0  0  0  0
 17 18  1  0  0  0  0
 17 40  1  0  0  0  0
 17 41  1  0  0  0  0
 18 42  1  0  0  0  0
 18 43  1  0  0  0  0
 19 24  1  0  0  0  0
 19 20  1  0  0  0  0
 20 21  1  0  0  0  0
 20 44  1  0  0  0  0
 20 45  1  0  0  0  0
 21 22  1  0  0  0  0
 21 46  1  0  0  0  0
 21 47  1  0  0  0  0
 22 23  1  0  0  0  0
 23 24  1  0  0  0  0
 23 48  1  0  0  0  0
 23 49  1  0  0  0  0
 24 50  1  0  0  0  0
 24 51  1  0  0  0  0
M  CHG  1  12   1
M  END
> <s_m_source_file>
AV-unprocessed.smi

> <i_m_source_file_index>
1389

> <i_lp_mmshare_version>
43012

> <i_f3d_flags>
0

> <s_epik_input>
W0NIMl0xW0NIMl1PW0NIMl1bQ0gyXU4xW0NASF0oW0NIM10pW0NIMl1bTkhdQyg9TylbTkhdYzJbY0hdW2NIXVtjSF1uYzJOM1tDSDJdW0NIMl1bQ0gyXVtDSDJdMw==

> <s_epik_cmdline>
J2VwaWtfcHl0aG9uJywgJy1waCcsICc3LjAnLCAnLXRuJywgJzgnLCAnLW1hJywgJzIwMCcsICctbWV0YWxfYmluZGluZycsICctaW1hZScsICc8aW5maWxlLm1hZT4nLCAnLW9tYWUnLCAnPG91dGZpbGUubWFlPic=

> <r_epik_Ionization_Penalty>
1.37675

> <r_epik_Ionization_Penalty_Charging>
1.11074

> <r_epik_Ionization_Penalty_Neutral>
0.26601

> <r_epik_State_Penalty>
1.46015

> <r_epik_Charging_Adjusted_Penalty>
2.57089

> <i_epik_Tot_Q>
1

> <i_epik_Tot_abs_Q>
1

> <r_epik_Metal_State_Penalty>
1.54223

> <b_epik_Metal_Only>
0

> <s_lp_Force_Field>
OPLS_2005

> <r_lp_Energy>
66.6842

> <b_lp_Chiralities_Consistent>
1

> <s_lp_Variant>
AV-unprocessed.smi:1389-5

> <Gold.Version>
5.8.1

> <Gold.Id.Protein>
6NUR|6NUR_protein|mol2

> <Gold.PLP.Fitness>
41.7283

> <Gold.PLP.PLP>
-35.2702

> <Gold.PLP.part.hbond>
-3.0000

> <Gold.PLP.part.metal>
0.0000

> <Gold.PLP.part.buried>
-7.8640

> <Gold.PLP.part.nonpolar>
-25.4108

> <Gold.PLP.part.repulsive>
0.4936

> <Gold.PLP.ligand.clash>
0.0000

> <Gold.PLP.ligand.torsion>
0.7617

> <Gold.PLP.Chemscore.Hbond>
2.5840

> <Gold.PLP.Chemscore.CHOScore>
0.0000

> <Gold.PLP.Chemscore.Metal>
0.0000

> <Gold.Chemscore.Hbonds>
donor molecule, donor type, donor heavy atom, donor atom, acceptor molecule, acceptor atom, score
      L1  H     4    31       P1  8029  0.80
      L1  H     7    32       P1  8029  0.74
      P1  H  6933  6944       L1     6  1.00

> <Gold.PLP.Chemscore.Internal.Correction>
0.2293

> <Gold.Rescore>
     Score         DG    S(hbond)    S(metal)    S(lipo)     H(rot)  DE(clash)    DE(int)     intcor
     19.11     -21.39       2.64        0.00      95.60       1.60       0.07       2.21       ----

> <Gold.Chemscore.Fitness>
19.1114

> <Gold.Chemscore.DG>
-21.3860

> <Gold.Chemscore.ZeroCoef>
-5.4800

> <Gold.Chemscore.Hbond>
2.6423

> <Gold.Chemscore.Metal>
0.0000

> <Gold.Chemscore.Lipo>
95.6029

> <Gold.Chemscore.Internal_Hbond>
0.0000

> <Gold.Chemscore.DEClash>
0.0668

> <Gold.Chemscore.DEInternal>
2.2078

> <Gold.Chemscore.Rot>
1.6035

> <Gold.Chemscore.Internal.Correction>
   9.000000E+99

> <Gold.Chemscore.Hbonds>
donor molecule, donor type, donor heavy atom, donor atom, acceptor molecule, acceptor atom, score
      L1  H     4    31       P1  8029  0.80
      L1  H     7    32       P1  8029  0.72
      P1  H  6933  6944       L1     6  0.99

> <Gold.Chemscore.Hbond.Weighted>
-8.8254

> <Gold.Chemscore.Metal.Weighted>
-0.0000

> <Gold.Chemscore.Lipo.Weighted>
-11.1855

> <Gold.Chemscore.Internal_Hbond.Weighted>
0.0000

> <Gold.Chemscore.DEClash.Weighted>
0.0668

> <Gold.Chemscore.DEInternal.Weighted>
2.2078

> <Gold.Chemscore.Rot.Weighted>
4.1049

> <Gold.Chemscore.Internal.Correction.Weighted>
   9.000000E+99

> <Gold.Protein.RotatedTorsions>
[ 6907 6896 6895 6894 ] final  140.59 input  -60.11 | X-H torsion
[ 7974 7965 7964 7962 ] final   -8.72 input  175.53 | X-H torsion
[ 8008 7997 7996 7995 ] final   73.10 input   59.86 | X-H torsion
[ 10167 10162 10161 10158 ] final  -60.87 input  -65.29 | X-H torsion
[ 10718 10713 10712 10709 ] final  153.10 input   66.30 | X-H torsion
[ 10763 10752 10751 10750 ] final  112.21 input  -60.55 | X-H torsion
[ 11005 11000 10999 10996 ] final -109.88 input  -57.11 | X-H torsion

> <Gold.Protein.ActiveResidues>
 VAL166  LYS551  ARG553  GLY616  TRP617  ASP618  TYR619  PRO620  LYS621  CYS622 
 ASP623  PHE694  ASN695  SER759  ASP760  ASP761  ALA762  ILE779  LEU786  VAL792 
 PHE793  MET794  SER795  GLU796  ALA797  LYS798  CYS799  TRP800  GLU811  SER814 

> <Gold.Protein.RotatedAtoms>
  152.2412  133.5136  159.5270 H   0  0  0  0  0  0  0  0  0  0  0  0  # atno 6907 bound_to 6896
  150.7065  134.1087  159.4001 H   0  0  0  0  0  0  0  0  0  0  0  0  # atno 6908 bound_to 6896
  151.9008  135.0379  160.0557 H   0  0  0  0  0  0  0  0  0  0  0  0  # atno 6909 bound_to 6896
  146.2272  140.2509  142.8347 H   0  0  0  0  0  0  0  0  0  0  0  0  # atno 7974 bound_to 7965
  155.7787  140.3482  155.5286 H   0  0  0  0  0  0  0  0  0  0  0  0  # atno 8008 bound_to 7997
  155.8750  140.0993  157.1545 H   0  0  0  0  0  0  0  0  0  0  0  0  # atno 8009 bound_to 7997
  154.4020  140.1333  156.4113 H   0  0  0  0  0  0  0  0  0  0  0  0  # atno 8010 bound_to 7997
  140.6043  143.2369  151.5857 H   0  0  0  0  0  0  0  0  0  0  0  0  # atno 10167 bound_to 10162
  157.2492  131.0775  151.1741 H   0  0  0  0  0  0  0  0  0  0  0  0  # atno 10718 bound_to 10713
  153.4745  135.3693  155.2409 H   0  0  0  0  0  0  0  0  0  0  0  0  # atno 10763 bound_to 10752
  154.8756  135.3939  154.3773 H   0  0  0  0  0  0  0  0  0  0  0  0  # atno 10764 bound_to 10752
  153.4366  135.7083  153.6260 H   0  0  0  0  0  0  0  0  0  0  0  0  # atno 10765 bound_to 10752
  141.0823  133.9199  157.2262 H   0  0  0  0  0  0  0  0  0  0  0  0  # atno 11005 bound_to 11000
  144.9412  140.8080  143.5629 LP  0  0  0  0  0  0  0  0  0  0  0  0  # atno 17320 bound_to 7965
  145.2461  139.2051  143.4967 LP  0  0  0  0  0  0  0  0  0  0  0  0  # atno 17321 bound_to 7965
  139.5313  144.2907  152.1155 LP  0  0  0  0  0  0  0  0  0  0  0  0  # atno 17342 bound_to 10162
  140.2093  144.4579  150.6393 LP  0  0  0  0  0  0  0  0  0  0  0  0  # atno 17343 bound_to 10162
  157.3296  130.6978  149.6317 LP  0  0  0  0  0  0  0  0  0  0  0  0  # atno 17370 bound_to 10713
  155.9667  130.4311  150.4906 LP  0  0  0  0  0  0  0  0  0  0  0  0  # atno 17371 bound_to 10713
  139.9638  135.0147  156.9331 LP  0  0  0  0  0  0  0  0  0  0  0  0  # atno 17394 bound_to 11000
  140.5441  134.0691  155.7350 LP  0  0  0  0  0  0  0  0  0  0  0  0  # atno 17395 bound_to 11000

$$$$
