AV-unprocessed.smi:2134|AV-procd|sdf|8697|dock8
  -GOLD-   2272011453D 1   1.00000     0.00000
 Structure written by MMmdl.
 35 36  0  0  0  0  0  0  0  0  3 V2000
  150.4264  132.1387  157.4806 C   0  0  0  0  0  0  0  0  0  0  0  0
  150.3100  133.3802  156.7164 N   0  0  0  0  0  0  0  0  0  0  0  0
  150.1987  134.5044  157.5073 N   0  0  0  0  0  0  0  0  0  0  0  0
  150.3216  135.7049  157.0321 C   0  0  0  0  0  0  0  0  0  0  0  0
  150.2248  136.8747  157.9547 C   0  0  0  0  0  0  0  0  0  0  0  0
  149.9782  136.5988  159.1349 O   0  0  0  0  0  0  0  0  0  0  0  0
  150.3981  138.1275  157.4377 N   0  5  0  0  0  0  0  0  0  0  0  0
  150.5130  139.3585  158.2198 C   0  0  0  0  0  0  0  0  0  0  0  0
  151.8870  140.0145  157.9606 C   0  0  0  0  0  0  0  0  0  0  0  0
  151.8965  141.5327  158.1112 C   0  0  0  0  0  0  0  0  0  0  0  0
  152.7256  142.1618  159.0683 C   0  0  0  0  0  0  0  0  0  0  0  0
  152.7042  143.5670  159.1883 C   0  0  0  0  0  0  0  0  0  0  0  0
  151.8555  144.3151  158.3471 C   0  0  0  0  0  0  0  0  0  0  0  0
  151.0807  143.6829  157.4391 N   0  3  0  0  0  0  0  0  0  0  0  0
  151.0753  142.3406  157.2907 C   0  0  0  0  0  0  0  0  0  0  0  0
  150.6064  135.9179  155.5569 C   0  0  0  0  0  0  0  0  0  0  0  0
  150.0829  134.7547  154.6923 C   0  0  0  0  0  0  0  0  0  0  0  0
  150.2967  133.3929  155.3590 C   0  0  0  0  0  0  0  0  0  0  0  0
  150.4217  132.3892  154.6574 O   0  0  0  0  0  0  0  0  0  0  0  0
  150.4575  131.2408  156.8622 H   0  0  0  0  0  0  0  0  0  0  0  0
  149.5796  132.0353  158.1601 H   0  0  0  0  0  0  0  0  0  0  0  0
  151.3370  132.1553  158.0807 H   0  0  0  0  0  0  0  0  0  0  0  0
  149.7309  140.0779  157.9728 H   0  0  0  0  0  0  0  0  0  0  0  0
  150.4129  139.1613  159.2874 H   0  0  0  0  0  0  0  0  0  0  0  0
  152.6194  139.5943  158.6505 H   0  0  0  0  0  0  0  0  0  0  0  0
  152.2388  139.7559  156.9608 H   0  0  0  0  0  0  0  0  0  0  0  0
  153.3651  141.5727  159.7096 H   0  0  0  0  0  0  0  0  0  0  0  0
  153.3265  144.0624  159.9188 H   0  0  0  0  0  0  0  0  0  0  0  0
  151.7722  145.3917  158.3741 H   0  0  0  0  0  0  0  0  0  0  0  0
  150.4046  141.9505  156.5386 H   0  0  0  0  0  0  0  0  0  0  0  0
  150.1425  136.8392  155.2031 H   0  0  0  0  0  0  0  0  0  0  0  0
  151.6807  136.0373  155.4116 H   0  0  0  0  0  0  0  0  0  0  0  0
  149.0115  134.8739  154.5273 H   0  0  0  0  0  0  0  0  0  0  0  0
  150.5558  134.7705  153.7099 H   0  0  0  0  0  0  0  0  0  0  0  0
  150.4704  144.2412  156.8422 H   0  0  0  0  0  0  0  0  0  0  0  0
  1  2  1  0  0  0  0
  1 20  1  0  0  0  0
  1 21  1  0  0  0  0
  1 22  1  0  0  0  0
  2 18  1  0  0  0  0
  2  3  1  0  0  0  0
  3  4  2  0  0  0  0
  4  5  1  0  0  0  0
  4 16  1  0  0  0  0
  5  6  2  0  0  0  0
  5  7  1  0  0  0  0
  7  8  1  0  0  0  0
  8  9  1  0  0  0  0
  8 23  1  0  0  0  0
  8 24  1  0  0  0  0
  9 10  1  0  0  0  0
  9 25  1  0  0  0  0
  9 26  1  0  0  0  0
 10 15  1  0  0  0  0
 10 11  2  0  0  0  0
 11 12  1  0  0  0  0
 11 27  1  0  0  0  0
 12 13  2  0  0  0  0
 12 28  1  0  0  0  0
 13 14  1  0  0  0  0
 13 29  1  0  0  0  0
 14 15  2  0  0  0  0
 14 35  1  0  0  0  0
 15 30  1  0  0  0  0
 16 17  1  0  0  0  0
 16 31  1  0  0  0  0
 16 32  1  0  0  0  0
 17 18  1  0  0  0  0
 17 33  1  0  0  0  0
 17 34  1  0  0  0  0
 18 19  2  0  0  0  0
M  CHG  1   7  -1
M  CHG  1  14   1
M  END
> <s_m_source_file>
AV-unprocessed.smi

> <i_m_source_file_index>
2134

> <i_lp_mmshare_version>
43012

> <i_f3d_flags>
0

> <s_epik_input>
Tz1DMVtDSDJdW0NIMl1DKD1OTjFbQ0gzXSlDKD1PKVtOSF1bQ0gyXVtDSDJdYzJbY0hdW2NIXVtjSF1uW2NIXTI=

> <s_epik_cmdline>
J2VwaWtfcHl0aG9uJywgJy1waCcsICc3LjAnLCAnLXRuJywgJzgnLCAnLW1hJywgJzIwMCcsICctbWV0YWxfYmluZGluZycsICctaW1hZScsICc8aW5maWxlLm1hZT4nLCAnLW9tYWUnLCAnPG91dGZpbGUubWFlPic=

> <r_epik_Ionization_Penalty>
7.05425

> <r_epik_Ionization_Penalty_Charging>
7.05425

> <r_epik_Ionization_Penalty_Neutral>
3.33049e-09

> <r_epik_State_Penalty>
7.67337

> <r_epik_Charging_Adjusted_Penalty>
14.7276

> <i_epik_Tot_Q>
0

> <i_epik_Tot_abs_Q>
2

> <r_epik_Metal_State_Penalty>
3.75463

> <b_epik_Metal_Only>
1

> <s_epik_Chemistry_Notes>
This compound has an imine and may undergo hydrolysis.

> <s_lp_Force_Field>
OPLS_2005

> <r_lp_Energy>
23.3893

> <b_lp_Chiralities_Consistent>
1

> <s_lp_Variant>
AV-unprocessed.smi:2134-4

> <Gold.Version>
5.8.1

> <Gold.Id.Protein>
6NUR|6NUR_protein|mol2

> <Gold.PLP.Fitness>
41.4451

> <Gold.PLP.PLP>
-32.8192

> <Gold.PLP.part.hbond>
-3.0000

> <Gold.PLP.part.metal>
0.0000

> <Gold.PLP.part.buried>
-4.4439

> <Gold.PLP.part.nonpolar>
-24.9660

> <Gold.PLP.part.repulsive>
0.0177

> <Gold.PLP.ligand.clash>
0.0000

> <Gold.PLP.ligand.torsion>
0.1967

> <Gold.PLP.Chemscore.Hbond>
3.0000

> <Gold.PLP.Chemscore.CHOScore>
0.0000

> <Gold.PLP.Chemscore.Metal>
0.0000

> <Gold.Chemscore.Hbonds>
donor molecule, donor type, donor heavy atom, donor atom, acceptor molecule, acceptor atom, score
      L1  H    14    35       P1  8028  2.00
      P1  H  6896  6909       L1     6  0.98

> <Gold.PLP.Chemscore.Internal.Correction>
0.0193

> <Gold.Rescore>
     Score         DG    S(hbond)    S(metal)    S(lipo)     H(rot)  DE(clash)    DE(int)     intcor
     17.19     -17.41       1.96        0.00      78.60       1.49       0.02       0.20       ----

> <Gold.Chemscore.Fitness>
17.1950

> <Gold.Chemscore.DG>
-17.4146

> <Gold.Chemscore.ZeroCoef>
-5.4800

> <Gold.Chemscore.Hbond>
1.9585

> <Gold.Chemscore.Metal>
0.0000

> <Gold.Chemscore.Lipo>
78.5963

> <Gold.Chemscore.Internal_Hbond>
0.0000

> <Gold.Chemscore.DEClash>
0.0242

> <Gold.Chemscore.DEInternal>
0.1954

> <Gold.Chemscore.Rot>
1.4854

> <Gold.Chemscore.Internal.Correction>
   9.000000E+99

> <Gold.Chemscore.Hbonds>
donor molecule, donor type, donor heavy atom, donor atom, acceptor molecule, acceptor atom, score
      L1  H    14    35       P1  8028  0.93
      P1  H  6896  6909       L1     6  0.70

> <Gold.Chemscore.Hbond.Weighted>
-6.5415

> <Gold.Chemscore.Metal.Weighted>
-0.0000

> <Gold.Chemscore.Lipo.Weighted>
-9.1958

> <Gold.Chemscore.Internal_Hbond.Weighted>
0.0000

> <Gold.Chemscore.DEClash.Weighted>
0.0242

> <Gold.Chemscore.DEInternal.Weighted>
0.1954

> <Gold.Chemscore.Rot.Weighted>
3.8026

> <Gold.Chemscore.Internal.Correction.Weighted>
   9.000000E+99

> <Gold.Protein.RotatedTorsions>
[ 6907 6896 6895 6894 ] final   63.60 input  -60.11 | X-H torsion
[ 7974 7965 7964 7962 ] final   18.66 input  175.53 | X-H torsion
[ 8008 7997 7996 7995 ] final -165.90 input   59.86 | X-H torsion
[ 10167 10162 10161 10158 ] final  -62.73 input  -65.29 | X-H torsion
[ 10718 10713 10712 10709 ] final  102.02 input   66.30 | X-H torsion
[ 10763 10752 10751 10750 ] final  158.34 input  -60.55 | X-H torsion
[ 11005 11000 10999 10996 ] final  -44.98 input  -57.11 | X-H torsion

> <Gold.Protein.ActiveResidues>
 VAL166  LYS551  ARG553  GLY616  TRP617  ASP618  TYR619  PRO620  LYS621  CYS622 
 ASP623  PHE694  ASN695  SER759  ASP760  ASP761  ALA762  ILE779  LEU786  VAL792 
 PHE793  MET794  SER795  GLU796  ALA797  LYS798  CYS799  TRP800  GLU811  SER814 

> <Gold.Protein.RotatedAtoms>
  152.4266  134.5856  159.9959 H   0  0  0  0  0  0  0  0  0  0  0  0  # atno 6907 bound_to 6896
  151.5991  133.3352  159.3051 H   0  0  0  0  0  0  0  0  0  0  0  0  # atno 6908 bound_to 6896
  150.8156  134.7373  159.6792 H   0  0  0  0  0  0  0  0  0  0  0  0  # atno 6909 bound_to 6896
  146.2177  139.8425  142.8638 H   0  0  0  0  0  0  0  0  0  0  0  0  # atno 7974 bound_to 7965
  155.8564  140.0971  157.1642 H   0  0  0  0  0  0  0  0  0  0  0  0  # atno 8008 bound_to 7997
  154.3988  140.1373  156.3969 H   0  0  0  0  0  0  0  0  0  0  0  0  # atno 8009 bound_to 7997
  155.7905  140.3456  155.5349 H   0  0  0  0  0  0  0  0  0  0  0  0  # atno 8010 bound_to 7997
  140.5919  143.2343  151.6121 H   0  0  0  0  0  0  0  0  0  0  0  0  # atno 10167 bound_to 10162
  157.6814  131.0742  150.5341 H   0  0  0  0  0  0  0  0  0  0  0  0  # atno 10718 bound_to 10713
  154.2144  135.2784  155.2947 H   0  0  0  0  0  0  0  0  0  0  0  0  # atno 10763 bound_to 10752
  154.5752  135.5606  153.7136 H   0  0  0  0  0  0  0  0  0  0  0  0  # atno 10764 bound_to 10752
  153.0056  135.6331  154.2284 H   0  0  0  0  0  0  0  0  0  0  0  0  # atno 10765 bound_to 10752
  141.0486  133.6751  156.2949 H   0  0  0  0  0  0  0  0  0  0  0  0  # atno 11005 bound_to 11000
  145.2884  141.0160  143.3677 LP  0  0  0  0  0  0  0  0  0  0  0  0  # atno 17320 bound_to 7965
  144.9096  139.4545  143.6593 LP  0  0  0  0  0  0  0  0  0  0  0  0  # atno 17321 bound_to 7965
  139.5233  144.3137  152.0970 LP  0  0  0  0  0  0  0  0  0  0  0  0  # atno 17342 bound_to 10162
  140.2303  144.4375  150.6303 LP  0  0  0  0  0  0  0  0  0  0  0  0  # atno 17343 bound_to 10162
  156.5650  130.4265  149.6045 LP  0  0  0  0  0  0  0  0  0  0  0  0  # atno 17370 bound_to 10713
  156.2789  130.7059  151.1878 LP  0  0  0  0  0  0  0  0  0  0  0  0  # atno 17371 bound_to 10713
  140.6099  134.5469  157.5532 LP  0  0  0  0  0  0  0  0  0  0  0  0  # atno 17394 bound_to 11000
  139.9332  134.7925  156.0874 LP  0  0  0  0  0  0  0  0  0  0  0  0  # atno 17395 bound_to 11000

$$$$
