AV-unprocessed.smi:3275|AV-procd|sdf|12531|dock5
  -GOLD-   2272018443D 1   1.00000     0.00000
 Structure written by MMmdl.
 35 36  0  0  0  0  0  0  0  0  2 V2000
  151.4758  136.9034  155.4043 O   0  0  0  0  0  0  0  0  0  0  0  0
  151.6728  138.2712  155.6905 C   0  0  0  0  0  0  0  0  0  0  0  0
  151.3422  138.5501  157.1602 C   0  0  0  0  0  0  0  0  0  0  0  0
  152.4738  138.2180  157.9513 O   0  0  0  0  0  0  0  0  0  0  0  0
  152.6135  138.9923  159.1353 C   0  0  1  0  0  0  0  0  0  0  0  0
  153.9496  138.6920  159.8473 C   0  0  0  0  0  0  0  0  0  0  0  0
  154.1563  139.6551  161.0278 C   0  0  0  0  0  0  0  0  0  0  0  0
  154.0414  141.1201  160.5748 C   0  0  0  0  0  0  0  0  0  0  0  0
  152.7795  141.3437  159.8742 N   0  0  0  0  0  0  0  0  0  0  0  0
  152.4436  142.7014  159.7252 C   0  0  0  0  0  0  0  0  0  0  0  0
  152.2057  143.2680  158.4477 C   0  0  0  0  0  0  0  0  0  0  0  0
  151.8833  144.6356  158.3392 C   0  0  0  0  0  0  0  0  0  0  0  0
  151.8030  145.3975  159.4499 N   0  3  0  0  0  0  0  0  0  0  0  0
  152.0189  144.9059  160.6881 C   0  0  0  0  0  0  0  0  0  0  0  0
  152.3443  143.5451  160.8624 C   0  0  0  0  0  0  0  0  0  0  0  0
  152.5853  142.9413  162.4653 Cl  0  0  0  0  0  0  0  0  0  0  0  0
  152.5546  140.4737  158.7217 C   0  0  0  0  0  0  0  0  0  0  0  0
  150.5645  136.6956  155.5432 H   0  0  0  0  0  0  0  0  0  0  0  0
  152.7079  138.5358  155.4738 H   0  0  0  0  0  0  0  0  0  0  0  0
  151.0376  138.8679  155.0356 H   0  0  0  0  0  0  0  0  0  0  0  0
  151.0903  139.6035  157.2914 H   0  0  0  0  0  0  0  0  0  0  0  0
  150.4754  137.9621  157.4619 H   0  0  0  0  0  0  0  0  0  0  0  0
  151.7802  138.7922  159.8119 H   0  0  0  0  0  0  0  0  0  0  0  0
  153.9778  137.6650  160.2099 H   0  0  0  0  0  0  0  0  0  0  0  0
  154.7741  138.7978  159.1412 H   0  0  0  0  0  0  0  0  0  0  0  0
  153.4099  139.4530  161.7971 H   0  0  0  0  0  0  0  0  0  0  0  0
  155.1296  139.4815  161.4873 H   0  0  0  0  0  0  0  0  0  0  0  0
  154.1279  141.7798  161.4386 H   0  0  0  0  0  0  0  0  0  0  0  0
  154.8662  141.3685  159.9053 H   0  0  0  0  0  0  0  0  0  0  0  0
  152.2772  142.6732  157.5492 H   0  0  0  0  0  0  0  0  0  0  0  0
  151.6920  145.1394  157.4028 H   0  0  0  0  0  0  0  0  0  0  0  0
  151.9200  145.6109  161.5005 H   0  0  0  0  0  0  0  0  0  0  0  0
  153.3151  140.6688  157.9646 H   0  0  0  0  0  0  0  0  0  0  0  0
  151.5852  140.6949  158.2730 H   0  0  0  0  0  0  0  0  0  0  0  0
  151.5681  146.3855  159.3499 H   0  0  0  0  0  0  0  0  0  0  0  0
  1  2  1  0  0  0  0
  1 18  1  0  0  0  0
  2  3  1  0  0  0  0
  2 19  1  0  0  0  0
  2 20  1  0  0  0  0
  3  4  1  0  0  0  0
  3 21  1  0  0  0  0
  3 22  1  0  0  0  0
  4  5  1  0  0  0  0
  5 17  1  0  0  0  0
  5  6  1  0  0  0  0
  5 23  1  0  0  0  0
  6  7  1  0  0  0  0
  6 24  1  0  0  0  0
  6 25  1  0  0  0  0
  7  8  1  0  0  0  0
  7 26  1  0  0  0  0
  7 27  1  0  0  0  0
  8  9  1  0  0  0  0
  8 28  1  0  0  0  0
  8 29  1  0  0  0  0
  9 10  1  0  0  0  0
  9 17  1  0  0  0  0
 10 15  1  0  0  0  0
 10 11  2  0  0  0  0
 11 12  1  0  0  0  0
 11 30  1  0  0  0  0
 12 13  2  0  0  0  0
 12 31  1  0  0  0  0
 13 14  1  0  0  0  0
 13 35  1  0  0  0  0
 14 15  2  0  0  0  0
 14 32  1  0  0  0  0
 15 16  1  0  0  0  0
 17 33  1  0  0  0  0
 17 34  1  0  0  0  0
M  CHG  1  13   1
M  END
> <s_m_source_file>
AV-unprocessed.smi

> <i_m_source_file_index>
3275

> <i_lp_mmshare_version>
43012

> <i_f3d_flags>
0

> <s_epik_input>
W09IXVtDSDJdW0NIMl1PW0NAQEhdMVtDSDJdW0NIMl1bQ0gyXU4oW0NIMl0xKWMyW2NIXVtjSF1uW2NIXWMyQ2w=

> <s_epik_cmdline>
J2VwaWtfcHl0aG9uJywgJy1waCcsICc3LjAnLCAnLXRuJywgJzgnLCAnLW1hJywgJzIwMCcsICctbWV0YWxfYmluZGluZycsICctaW1hZScsICc8aW5maWxlLm1hZT4nLCAnLW9tYWUnLCAnPG91dGZpbGUubWFlPic=

> <r_lp_tautomer_probability>
1

> <r_epik_Ionization_Penalty>
0.0778579

> <r_epik_Ionization_Penalty_Charging>
0.0778578

> <r_epik_Ionization_Penalty_Neutral>
8.80348e-08

> <r_epik_State_Penalty>
0.0687871

> <r_epik_Charging_Adjusted_Penalty>
0.146645

> <i_epik_Tot_Q>
1

> <i_epik_Tot_abs_Q>
1

> <r_epik_Metal_State_Penalty>
2.85646

> <b_epik_Metal_Only>
0

> <s_lp_Force_Field>
OPLS_2005

> <r_lp_Energy>
26.1135

> <b_lp_Chiralities_Consistent>
1

> <s_lp_Variant>
AV-unprocessed.smi:3275-2

> <Gold.Version>
5.8.1

> <Gold.Id.Protein>
6NUR|6NUR_protein|mol2

> <Gold.PLP.Fitness>
40.9804

> <Gold.PLP.PLP>
-38.7138

> <Gold.PLP.part.hbond>
-1.0000

> <Gold.PLP.part.metal>
0.0000

> <Gold.PLP.part.buried>
-5.9014

> <Gold.PLP.part.nonpolar>
-32.6036

> <Gold.PLP.part.repulsive>
0.1716

> <Gold.PLP.ligand.clash>
0.0000

> <Gold.PLP.ligand.torsion>
0.5251

> <Gold.PLP.Chemscore.Hbond>
1.0000

> <Gold.PLP.Chemscore.CHOScore>
0.0000

> <Gold.PLP.Chemscore.Metal>
0.0000

> <Gold.Chemscore.Hbonds>
donor molecule, donor type, donor heavy atom, donor atom, acceptor molecule, acceptor atom, score
      P1  H 10752 10764       L1     1  0.80

> <Gold.PLP.Chemscore.Internal.Correction>
0.3168

> <Gold.Rescore>
     Score         DG    S(hbond)    S(metal)    S(lipo)     H(rot)  DE(clash)    DE(int)     intcor
     16.66     -17.59       0.99        0.00     122.00       2.14       0.13       0.80       ----

> <Gold.Chemscore.Fitness>
16.6576

> <Gold.Chemscore.DG>
-17.5884

> <Gold.Chemscore.ZeroCoef>
-5.4800

> <Gold.Chemscore.Hbond>
0.9917

> <Gold.Chemscore.Metal>
0.0000

> <Gold.Chemscore.Lipo>
122.0034

> <Gold.Chemscore.Internal_Hbond>
0.0000

> <Gold.Chemscore.DEClash>
0.1339

> <Gold.Chemscore.DEInternal>
0.7969

> <Gold.Chemscore.Rot>
2.1400

> <Gold.Chemscore.Internal.Correction>
   9.000000E+99

> <Gold.Chemscore.Hbonds>
donor molecule, donor type, donor heavy atom, donor atom, acceptor molecule, acceptor atom, score
      P1  H 10752 10764       L1     1  0.78

> <Gold.Chemscore.Hbond.Weighted>
-3.3123

> <Gold.Chemscore.Metal.Weighted>
-0.0000

> <Gold.Chemscore.Lipo.Weighted>
-14.2744

> <Gold.Chemscore.Internal_Hbond.Weighted>
0.0000

> <Gold.Chemscore.DEClash.Weighted>
0.1339

> <Gold.Chemscore.DEInternal.Weighted>
0.7969

> <Gold.Chemscore.Rot.Weighted>
5.4783

> <Gold.Chemscore.Internal.Correction.Weighted>
   9.000000E+99

> <Gold.Protein.RotatedTorsions>
[ 6907 6896 6895 6894 ] final  166.98 input  -60.11 | X-H torsion
[ 7974 7965 7964 7962 ] final   -0.39 input  175.53 | X-H torsion
[ 8008 7997 7996 7995 ] final  165.13 input   59.86 | X-H torsion
[ 10167 10162 10161 10158 ] final  -33.42 input  -65.29 | X-H torsion
[ 10718 10713 10712 10709 ] final  -55.49 input   66.30 | X-H torsion
[ 10763 10752 10751 10750 ] final  -56.49 input  -60.55 | X-H torsion
[ 11005 11000 10999 10996 ] final  -64.49 input  -57.11 | X-H torsion

> <Gold.Protein.ActiveResidues>
 VAL166  LYS551  ARG553  GLY616  TRP617  ASP618  TYR619  PRO620  LYS621  CYS622 
 ASP623  PHE694  ASN695  SER759  ASP760  ASP761  ALA762  ILE779  LEU786  VAL792 
 PHE793  MET794  SER795  GLU796  ALA797  LYS798  CYS799  TRP800  GLU811  SER814 

> <Gold.Protein.RotatedAtoms>
  151.8704  133.3474  159.3732 H   0  0  0  0  0  0  0  0  0  0  0  0  # atno 6907 bound_to 6896
  150.7154  134.5118  159.5620 H   0  0  0  0  0  0  0  0  0  0  0  0  # atno 6908 bound_to 6896
  152.2650  134.7994  160.0475 H   0  0  0  0  0  0  0  0  0  0  0  0  # atno 6909 bound_to 6896
  146.2427  140.1262  142.8339 H   0  0  0  0  0  0  0  0  0  0  0  0  # atno 7974 bound_to 7965
  156.1825  140.1678  156.8247 H   0  0  0  0  0  0  0  0  0  0  0  0  # atno 8008 bound_to 7997
  154.5376  140.0743  156.8488 H   0  0  0  0  0  0  0  0  0  0  0  0  # atno 8009 bound_to 7997
  155.3279  140.3377  155.4242 H   0  0  0  0  0  0  0  0  0  0  0  0  # atno 8010 bound_to 7997
  140.7204  143.3621  151.1942 H   0  0  0  0  0  0  0  0  0  0  0  0  # atno 10167 bound_to 10162
  156.1364  130.4156  150.0178 H   0  0  0  0  0  0  0  0  0  0  0  0  # atno 10718 bound_to 10713
  154.2074  135.6400  153.5105 H   0  0  0  0  0  0  0  0  0  0  0  0  # atno 10763 bound_to 10752
  152.9998  135.5466  154.6251 H   0  0  0  0  0  0  0  0  0  0  0  0  # atno 10764 bound_to 10752
  154.5679  135.2914  155.0829 H   0  0  0  0  0  0  0  0  0  0  0  0  # atno 10765 bound_to 10752
  141.1426  133.6666  156.5841 H   0  0  0  0  0  0  0  0  0  0  0  0  # atno 11005 bound_to 11000
  145.0364  140.8911  143.5078 LP  0  0  0  0  0  0  0  0  0  0  0  0  # atno 17320 bound_to 7965
  145.1335  139.2617  143.5527 LP  0  0  0  0  0  0  0  0  0  0  0  0  # atno 17321 bound_to 7965
  139.7176  143.9276  152.2972 LP  0  0  0  0  0  0  0  0  0  0  0  0  # atno 17342 bound_to 10162
  139.9022  144.6905  150.8653 LP  0  0  0  0  0  0  0  0  0  0  0  0  # atno 17343 bound_to 10162
  156.8076  130.9313  151.3645 LP  0  0  0  0  0  0  0  0  0  0  0  0  # atno 17370 bound_to 10713
  157.6536  130.8905  149.9683 LP  0  0  0  0  0  0  0  0  0  0  0  0  # atno 17371 bound_to 10713
  140.3814  134.7520  157.4663 LP  0  0  0  0  0  0  0  0  0  0  0  0  # atno 17394 bound_to 11000
  140.0635  134.5963  155.8722 LP  0  0  0  0  0  0  0  0  0  0  0  0  # atno 17395 bound_to 11000

$$$$
