AV-unprocessed.smi:3333|AV-procd|sdf|12833|dock6
  -GOLD-   2272019213D 1   1.00000     0.00000
 Structure written by MMmdl.
 41 43  0  0  0  0  0  0  0  0  1 V2000
  145.3156  145.2531  152.9017 C   0  0  0  0  0  0  0  0  0  0  0  0
  144.6219  144.7665  154.1784 C   0  0  0  0  0  0  0  0  0  0  0  0
  145.3575  143.6496  154.8400 C   0  0  0  0  0  0  0  0  0  0  0  0
  146.5321  143.1827  154.4087 N   0  0  0  0  0  0  0  0  0  0  0  0
  146.9982  142.1056  155.1717 C   0  0  0  0  0  0  0  0  0  0  0  0
  148.3026  141.4471  154.8270 C   0  0  0  0  0  0  0  0  0  0  0  0
  149.0422  141.0626  156.1085 C   0  0  0  0  0  0  0  0  0  0  0  0
  149.3938  139.8975  156.2930 O   0  0  0  0  0  0  0  0  0  0  0  0
  149.2873  142.0575  156.9749 N   0  0  0  0  0  0  0  0  0  0  0  0
  150.0662  141.9335  158.2007 C   0  0  0  0  0  0  0  0  0  0  0  0
  151.4417  142.6221  158.0729 C   0  0  2  0  0  0  0  0  0  0  0  0
  152.4574  142.2294  159.1661 C   0  0  0  0  0  0  0  0  0  0  0  0
  152.9671  143.5952  159.6653 C   0  0  2  0  0  0  0  0  0  0  0  0
  151.8705  144.2608  160.5170 C   0  0  0  0  0  0  0  0  0  0  0  0
  150.8319  144.6818  159.4614 C   0  0  0  0  0  0  0  0  0  0  0  0
  151.4534  144.1689  158.1457 C   0  0  1  0  0  0  0  0  0  0  0  0
  152.9338  144.4385  158.3948 C   0  0  0  0  0  0  0  0  0  0  0  0
  146.1498  141.7630  156.1955 C   0  0  0  0  0  0  0  0  0  0  0  0
  144.7285  142.7692  156.2276 S   0  0  0  0  0  0  0  0  0  0  0  0
  144.7527  146.0632  152.4381 H   0  0  0  0  0  0  0  0  0  0  0  0
  145.4068  144.4485  152.1712 H   0  0  0  0  0  0  0  0  0  0  0  0
  146.3165  145.6251  153.1174 H   0  0  0  0  0  0  0  0  0  0  0  0
  144.5217  145.5916  154.8848 H   0  0  0  0  0  0  0  0  0  0  0  0
  143.6113  144.4290  153.9469 H   0  0  0  0  0  0  0  0  0  0  0  0
  148.1425  140.5583  154.2151 H   0  0  0  0  0  0  0  0  0  0  0  0
  148.9291  142.1182  154.2381 H   0  0  0  0  0  0  0  0  0  0  0  0
  148.9599  142.9825  156.7357 H   0  0  0  0  0  0  0  0  0  0  0  0
  149.4891  142.3684  159.0162 H   0  0  0  0  0  0  0  0  0  0  0  0
  150.1962  140.8807  158.4561 H   0  0  0  0  0  0  0  0  0  0  0  0
  151.8639  142.3367  157.1077 H   0  0  0  0  0  0  0  0  0  0  0  0
  152.0125  141.6423  159.9708 H   0  0  0  0  0  0  0  0  0  0  0  0
  153.2704  141.6408  158.7388 H   0  0  0  0  0  0  0  0  0  0  0  0
  153.9363  143.5457  160.1623 H   0  0  0  0  0  0  0  0  0  0  0  0
  151.4549  143.5810  161.2618 H   0  0  0  0  0  0  0  0  0  0  0  0
  152.2599  145.1346  161.0412 H   0  0  0  0  0  0  0  0  0  0  0  0
  149.8396  144.2778  159.6580 H   0  0  0  0  0  0  0  0  0  0  0  0
  150.7386  145.7682  159.4414 H   0  0  0  0  0  0  0  0  0  0  0  0
  151.0500  144.6495  157.2536 H   0  0  0  0  0  0  0  0  0  0  0  0
  153.1604  145.4922  158.5675 H   0  0  0  0  0  0  0  0  0  0  0  0
  153.5846  144.0579  157.6056 H   0  0  0  0  0  0  0  0  0  0  0  0
  146.2706  140.9746  156.9237 H   0  0  0  0  0  0  0  0  0  0  0  0
  1  2  1  0  0  0  0
  1 20  1  0  0  0  0
  1 21  1  0  0  0  0
  1 22  1  0  0  0  0
  2  3  1  0  0  0  0
  2 23  1  0  0  0  0
  2 24  1  0  0  0  0
  3 19  1  0  0  0  0
  3  4  2  0  0  0  0
  4  5  1  0  0  0  0
  5  6  1  0  0  0  0
  5 18  2  0  0  0  0
  6  7  1  0  0  0  0
  6 25  1  0  0  0  0
  6 26  1  0  0  0  0
  7  8  2  0  0  0  0
  7  9  1  0  0  0  0
  9 10  1  0  0  0  0
  9 27  1  0  0  0  0
 10 11  1  0  0  0  0
 10 28  1  0  0  0  0
 10 29  1  0  0  0  0
 11 16  1  0  0  0  0
 11 12  1  0  0  0  0
 11 30  1  0  0  0  0
 12 13  1  0  0  0  0
 12 31  1  0  0  0  0
 12 32  1  0  0  0  0
 13 17  1  0  0  0  0
 13 14  1  0  0  0  0
 13 33  1  0  0  0  0
 14 15  1  0  0  0  0
 14 34  1  0  0  0  0
 14 35  1  0  0  0  0
 15 16  1  0  0  0  0
 15 36  1  0  0  0  0
 15 37  1  0  0  0  0
 16 17  1  0  0  0  0
 16 38  1  0  0  0  0
 17 39  1  0  0  0  0
 17 40  1  0  0  0  0
 18 19  1  0  0  0  0
 18 41  1  0  0  0  0
M  END
> <s_m_source_file>
AV-unprocessed.smi

> <i_m_source_file_index>
3333

> <i_lp_mmshare_version>
43012

> <i_f3d_flags>
0

> <s_epik_input>
W0NIM11bQ0gyXWMxbmMoW2NIXXMxKVtDSDJdQyg9TylbTkhdW0NIMl1bQ0BIXShbQ0gyXVtDQEBIXTIzKVtDQEBIXShbQ0gyXTMpW0NIMl1bQ0gyXTI=

> <s_epik_cmdline>
J2VwaWtfcHl0aG9uJywgJy1waCcsICc3LjAnLCAnLXRuJywgJzgnLCAnLW1hJywgJzIwMCcsICctbWV0YWxfYmluZGluZycsICctaW1hZScsICc8aW5maWxlLm1hZT4nLCAnLW9tYWUnLCAnPG91dGZpbGUubWFlPic=

> <r_lp_tautomer_probability>
1

> <r_epik_Ionization_Penalty>
6.68371e-05

> <r_epik_Ionization_Penalty_Charging>
0

> <r_epik_Ionization_Penalty_Neutral>
6.68371e-05

> <r_epik_State_Penalty>
-0

> <r_epik_Charging_Adjusted_Penalty>
0

> <i_epik_Tot_Q>
0

> <i_epik_Tot_abs_Q>
0

> <r_epik_Metal_State_Penalty>
-0

> <b_epik_Metal_Only>
0

> <s_lp_Force_Field>
OPLS_2005

> <r_lp_Energy>
42.1731

> <b_lp_Chiralities_Consistent>
1

> <s_lp_Variant>
AV-unprocessed.smi:3333-3

> <Gold.Version>
5.8.1

> <Gold.Id.Protein>
6NUR|6NUR_protein|mol2

> <Gold.PLP.Fitness>
47.3074

> <Gold.PLP.PLP>
-45.3464

> <Gold.PLP.part.hbond>
-1.0000

> <Gold.PLP.part.metal>
0.0000

> <Gold.PLP.part.buried>
-6.8383

> <Gold.PLP.part.nonpolar>
-39.5634

> <Gold.PLP.part.repulsive>
0.2184

> <Gold.PLP.ligand.clash>
0.0000

> <Gold.PLP.ligand.torsion>
0.5420

> <Gold.PLP.Chemscore.Hbond>
1.0000

> <Gold.PLP.Chemscore.CHOScore>
0.0000

> <Gold.PLP.Chemscore.Metal>
0.0000

> <Gold.Chemscore.Hbonds>
donor molecule, donor type, donor heavy atom, donor atom, acceptor molecule, acceptor atom, score
      L1  H     9    27       P1  8028  0.98

> <Gold.PLP.Chemscore.Internal.Correction>
0.0450

> <Gold.Rescore>
     Score         DG    S(hbond)    S(metal)    S(lipo)     H(rot)  DE(clash)    DE(int)     intcor
     19.73     -20.50       0.99        0.00     131.24       1.42       0.01       0.76       ----

> <Gold.Chemscore.Fitness>
19.7298

> <Gold.Chemscore.DG>
-20.5042

> <Gold.Chemscore.ZeroCoef>
-5.4800

> <Gold.Chemscore.Hbond>
0.9914

> <Gold.Chemscore.Metal>
0.0000

> <Gold.Chemscore.Lipo>
131.2408

> <Gold.Chemscore.Internal_Hbond>
0.0000

> <Gold.Chemscore.DEClash>
0.0137

> <Gold.Chemscore.DEInternal>
0.7608

> <Gold.Chemscore.Rot>
1.4227

> <Gold.Chemscore.Internal.Correction>
   9.000000E+99

> <Gold.Chemscore.Hbonds>
donor molecule, donor type, donor heavy atom, donor atom, acceptor molecule, acceptor atom, score
      L1  H     9    27       P1  8028  0.87

> <Gold.Chemscore.Hbond.Weighted>
-3.3111

> <Gold.Chemscore.Metal.Weighted>
-0.0000

> <Gold.Chemscore.Lipo.Weighted>
-15.3552

> <Gold.Chemscore.Internal_Hbond.Weighted>
0.0000

> <Gold.Chemscore.DEClash.Weighted>
0.0137

> <Gold.Chemscore.DEInternal.Weighted>
0.7608

> <Gold.Chemscore.Rot.Weighted>
3.6421

> <Gold.Chemscore.Internal.Correction.Weighted>
   9.000000E+99

> <Gold.Protein.RotatedTorsions>
[ 6907 6896 6895 6894 ] final  115.38 input  -60.11 | X-H torsion
[ 7974 7965 7964 7962 ] final  -84.15 input  175.53 | X-H torsion
[ 8008 7997 7996 7995 ] final -100.45 input   59.86 | X-H torsion
[ 10167 10162 10161 10158 ] final   51.92 input  -65.29 | X-H torsion
[ 10718 10713 10712 10709 ] final   -0.55 input   66.30 | X-H torsion
[ 10763 10752 10751 10750 ] final   67.23 input  -60.55 | X-H torsion
[ 11005 11000 10999 10996 ] final   51.78 input  -57.11 | X-H torsion

> <Gold.Protein.ActiveResidues>
 VAL166  LYS551  ARG553  GLY616  TRP617  ASP618  TYR619  PRO620  LYS621  CYS622 
 ASP623  PHE694  ASN695  SER759  ASP760  ASP761  ALA762  ILE779  LEU786  VAL792 
 PHE793  MET794  SER795  GLU796  ALA797  LYS798  CYS799  TRP800  GLU811  SER814 

> <Gold.Protein.RotatedAtoms>
  152.4745  133.8105  159.7000 H   0  0  0  0  0  0  0  0  0  0  0  0  # atno 6907 bound_to 6896
  150.8753  133.7438  159.2955 H   0  0  0  0  0  0  0  0  0  0  0  0  # atno 6908 bound_to 6896
  151.4960  135.1063  159.9868 H   0  0  0  0  0  0  0  0  0  0  0  0  # atno 6909 bound_to 6896
  145.5105  140.9540  143.1710 H   0  0  0  0  0  0  0  0  0  0  0  0  # atno 7974 bound_to 7965
  154.8289  140.0441  157.1463 H   0  0  0  0  0  0  0  0  0  0  0  0  # atno 8008 bound_to 7997
  154.9175  140.3022  155.5213 H   0  0  0  0  0  0  0  0  0  0  0  0  # atno 8009 bound_to 7997
  156.2985  140.2346  156.4221 H   0  0  0  0  0  0  0  0  0  0  0  0  # atno 8010 bound_to 7997
  140.2568  144.3418  150.6330 H   0  0  0  0  0  0  0  0  0  0  0  0  # atno 10167 bound_to 10162
  156.8188  130.5449  149.5700 H   0  0  0  0  0  0  0  0  0  0  0  0  # atno 10718 bound_to 10713
  153.0176  135.5291  154.6947 H   0  0  0  0  0  0  0  0  0  0  0  0  # atno 10763 bound_to 10752
  154.6072  135.2874  155.0474 H   0  0  0  0  0  0  0  0  0  0  0  0  # atno 10764 bound_to 10752
  154.1509  135.6563  153.5015 H   0  0  0  0  0  0  0  0  0  0  0  0  # atno 10765 bound_to 10752
  140.0904  134.5217  155.8858 H   0  0  0  0  0  0  0  0  0  0  0  0  # atno 11005 bound_to 11000
  144.7730  139.6692  143.7187 LP  0  0  0  0  0  0  0  0  0  0  0  0  # atno 17320 bound_to 7965
  146.2169  139.5566  142.9644 LP  0  0  0  0  0  0  0  0  0  0  0  0  # atno 17321 bound_to 7965
  140.5997  143.2167  151.7095 LP  0  0  0  0  0  0  0  0  0  0  0  0  # atno 17342 bound_to 10162
  139.5029  144.3811  152.0375 LP  0  0  0  0  0  0  0  0  0  0  0  0  # atno 17343 bound_to 10162
  156.1001  130.5962  150.9879 LP  0  0  0  0  0  0  0  0  0  0  0  0  # atno 17370 bound_to 10713
  157.6468  131.0903  150.8137 LP  0  0  0  0  0  0  0  0  0  0  0  0  # atno 17371 bound_to 10713
  141.2076  133.6665  156.6315 LP  0  0  0  0  0  0  0  0  0  0  0  0  # atno 17394 bound_to 11000
  140.3361  134.7888  157.4362 LP  0  0  0  0  0  0  0  0  0  0  0  0  # atno 17395 bound_to 11000

$$$$
