AV-unprocessed.smi:2061|AV-procd|sdf|8388|dock8
  -GOLD-   2272011 73D 1   1.00000     0.00000
 Structure written by MMmdl.
 45 46  0  0  0  0  0  0  0  0  3 V2000
  152.8384  142.9698  159.5295 C   0  0  0  0  0  0  0  0  0  0  0  0
  152.0260  142.4115  158.4117 C   0  0  0  0  0  0  0  0  0  0  0  0
  151.1113  142.9645  157.5604 C   0  0  0  0  0  0  0  0  0  0  0  0
  150.7255  141.8669  156.7457 C   0  0  0  0  0  0  0  0  0  0  0  0
  149.7703  142.0351  155.7084 N   0  0  0  0  0  0  0  0  0  0  0  0
  149.5605  141.2660  154.6245 C   0  0  0  0  0  0  0  0  0  0  0  0
  150.2316  140.2425  154.4452 O   0  0  0  0  0  0  0  0  0  0  0  0
  148.5763  141.7589  153.8222 N   0  5  0  0  0  0  0  0  0  0  0  0
  147.1848  141.3031  153.8309 C   0  0  0  0  0  0  0  0  0  0  0  0
  147.0563  139.8764  153.2266 C   0  0  2  0  0  0  0  0  0  0  0  0
  147.1631  139.8295  151.6816 C   0  0  0  0  0  0  0  0  0  0  0  0
  145.8309  139.1954  153.7489 N   0  3  1  0  0  0  0  0  0  0  0  0
  145.5570  137.8255  153.2331 C   0  0  0  0  0  0  0  0  0  0  0  0
  144.1817  137.3407  153.7254 C   0  0  1  0  0  0  0  0  0  0  0  0
  143.8761  135.9092  153.2719 C   0  0  0  0  0  0  0  0  0  0  0  0
  144.1667  137.3672  155.1491 O   0  0  0  0  0  0  0  0  0  0  0  0
  144.3542  138.6767  155.6755 C   0  0  1  0  0  0  0  0  0  0  0  0
  144.2319  138.6021  157.2013 C   0  0  0  0  0  0  0  0  0  0  0  0
  145.7272  139.2142  155.2289 C   0  0  0  0  0  0  0  0  0  0  0  0
  151.3503  140.7448  157.0716 N   0  0  0  0  0  0  0  0  0  0  0  0
  152.1856  141.0878  158.1411 O   0  0  0  0  0  0  0  0  0  0  0  0
  152.8923  144.0567  159.4657 H   0  0  0  0  0  0  0  0  0  0  0  0
  153.8558  142.5794  159.5028 H   0  0  0  0  0  0  0  0  0  0  0  0
  152.4000  142.7078  160.4925 H   0  0  0  0  0  0  0  0  0  0  0  0
  150.7735  143.9895  157.5271 H   0  0  0  0  0  0  0  0  0  0  0  0
  149.1753  142.8461  155.7910 H   0  0  0  0  0  0  0  0  0  0  0  0
  146.7767  141.2952  154.8430 H   0  0  0  0  0  0  0  0  0  0  0  0
  146.5411  141.9834  153.2727 H   0  0  0  0  0  0  0  0  0  0  0  0
  147.9057  139.3100  153.6112 H   0  0  0  0  0  0  0  0  0  0  0  0
  148.1327  140.1887  151.3319 H   0  0  0  0  0  0  0  0  0  0  0  0
  146.3981  140.4301  151.1862 H   0  0  0  0  0  0  0  0  0  0  0  0
  147.0629  138.8072  151.3173 H   0  0  0  0  0  0  0  0  0  0  0  0
  145.5787  137.8173  152.1430 H   0  0  0  0  0  0  0  0  0  0  0  0
  146.3283  137.1344  153.5759 H   0  0  0  0  0  0  0  0  0  0  0  0
  143.4000  137.9999  153.3435 H   0  0  0  0  0  0  0  0  0  0  0  0
  143.8692  135.8355  152.1842 H   0  0  0  0  0  0  0  0  0  0  0  0
  142.8992  135.5862  153.6328 H   0  0  0  0  0  0  0  0  0  0  0  0
  144.6195  135.2073  153.6509 H   0  0  0  0  0  0  0  0  0  0  0  0
  143.5653  139.3293  155.2971 H   0  0  0  0  0  0  0  0  0  0  0  0
  144.3538  139.5869  157.6530 H   0  0  0  0  0  0  0  0  0  0  0  0
  144.9884  137.9421  157.6269 H   0  0  0  0  0  0  0  0  0  0  0  0
  143.2539  138.2209  157.4960 H   0  0  0  0  0  0  0  0  0  0  0  0
  146.5319  138.6162  155.6598 H   0  0  0  0  0  0  0  0  0  0  0  0
  145.8499  140.2331  155.5982 H   0  0  0  0  0  0  0  0  0  0  0  0
  145.0677  139.7732  153.4260 H   0  0  0  0  0  0  0  0  0  0  0  0
  1  2  1  0  0  0  0
  1 22  1  0  0  0  0
  1 23  1  0  0  0  0
  1 24  1  0  0  0  0
  2 21  1  0  0  0  0
  2  3  2  0  0  0  0
  3  4  1  0  0  0  0
  3 25  1  0  0  0  0
  4  5  1  0  0  0  0
  4 20  2  0  0  0  0
  5  6  1  0  0  0  0
  5 26  1  0  0  0  0
  6  7  2  0  0  0  0
  6  8  1  0  0  0  0
  8  9  1  0  0  0  0
  9 10  1  0  0  0  0
  9 27  1  0  0  0  0
  9 28  1  0  0  0  0
 10 11  1  0  0  0  0
 10 12  1  0  0  0  0
 10 29  1  0  0  0  0
 11 30  1  0  0  0  0
 11 31  1  0  0  0  0
 11 32  1  0  0  0  0
 12 19  1  0  0  0  0
 12 13  1  0  0  0  0
 12 45  1  0  0  0  0
 13 14  1  0  0  0  0
 13 33  1  0  0  0  0
 13 34  1  0  0  0  0
 14 15  1  0  0  0  0
 14 16  1  0  0  0  0
 14 35  1  0  0  0  0
 15 36  1  0  0  0  0
 15 37  1  0  0  0  0
 15 38  1  0  0  0  0
 16 17  1  0  0  0  0
 17 18  1  0  0  0  0
 17 19  1  0  0  0  0
 17 39  1  0  0  0  0
 18 40  1  0  0  0  0
 18 41  1  0  0  0  0
 18 42  1  0  0  0  0
 19 43  1  0  0  0  0
 19 44  1  0  0  0  0
 20 21  1  0  0  0  0
M  CHG  1   8  -1
M  CHG  1  12   1
M  END
> <s_m_source_file>
AV-unprocessed.smi

> <i_m_source_file_index>
2061

> <i_lp_mmshare_version>
43012

> <i_f3d_flags>
0

> <s_epik_input>
W0NIM11jMVtjSF1jKG5vMSlbTkhdQyg9TylbTkhdW0NIMl1bQ0BIXShbQ0gzXSlOMltDSDJdW0NAQEhdKFtDSDNdKU9bQ0BASF0oW0NIM10pW0NIMl0y

> <s_epik_cmdline>
J2VwaWtfcHl0aG9uJywgJy1waCcsICc3LjAnLCAnLXRuJywgJzgnLCAnLW1hJywgJzIwMCcsICctbWV0YWxfYmluZGluZycsICctaW1hZScsICc8aW5maWxlLm1hZT4nLCAnLW9tYWUnLCAnPG91dGZpbGUubWFlPic=

> <r_epik_Ionization_Penalty>
6.8073

> <r_epik_Ionization_Penalty_Charging>
6.80729

> <r_epik_Ionization_Penalty_Neutral>
5.65391e-06

> <r_epik_State_Penalty>
7.47323

> <r_epik_Charging_Adjusted_Penalty>
14.2805

> <i_epik_Tot_Q>
0

> <i_epik_Tot_abs_Q>
2

> <r_epik_Metal_State_Penalty>
3.40035

> <b_epik_Metal_Only>
1

> <s_lp_Force_Field>
OPLS_2005

> <r_lp_Energy>
16.5553

> <b_lp_Chiralities_Consistent>
1

> <s_lp_Variant>
AV-unprocessed.smi:2061-29

> <Gold.Version>
5.8.1

> <Gold.Id.Protein>
6NUR|6NUR_protein|mol2

> <Gold.PLP.Fitness>
41.2567

> <Gold.PLP.PLP>
-29.7721

> <Gold.PLP.part.hbond>
-4.0000

> <Gold.PLP.part.metal>
0.0000

> <Gold.PLP.part.buried>
0.0140

> <Gold.PLP.part.nonpolar>
-25.5537

> <Gold.PLP.part.repulsive>
0.4769

> <Gold.PLP.ligand.clash>
0.0000

> <Gold.PLP.ligand.torsion>
1.1227

> <Gold.PLP.Chemscore.Hbond>
4.5320

> <Gold.PLP.Chemscore.CHOScore>
0.0000

> <Gold.PLP.Chemscore.Metal>
0.0000

> <Gold.Chemscore.Hbonds>
donor molecule, donor type, donor heavy atom, donor atom, acceptor molecule, acceptor atom, score
      L1  H     5    26       P1  8028  1.00
      L1  H    12    45       P1 10175  2.00
      P1  H  7989  7998       L1     7  1.00
      P1  H  8011  8017       L1     8  0.48

> <Gold.PLP.Chemscore.Internal.Correction>
0.1341

> <Gold.Rescore>
     Score         DG    S(hbond)    S(metal)    S(lipo)     H(rot)  DE(clash)    DE(int)     intcor
     14.68     -18.57       2.68        0.00      69.39       1.56       1.50       2.38       ----

> <Gold.Chemscore.Fitness>
14.6843

> <Gold.Chemscore.DG>
-18.5695

> <Gold.Chemscore.ZeroCoef>
-5.4800

> <Gold.Chemscore.Hbond>
2.6801

> <Gold.Chemscore.Metal>
0.0000

> <Gold.Chemscore.Lipo>
69.3924

> <Gold.Chemscore.Internal_Hbond>
0.0000

> <Gold.Chemscore.DEClash>
1.5013

> <Gold.Chemscore.DEInternal>
2.3839

> <Gold.Chemscore.Rot>
1.5550

> <Gold.Chemscore.Internal.Correction>
   9.000000E+99

> <Gold.Chemscore.Hbonds>
donor molecule, donor type, donor heavy atom, donor atom, acceptor molecule, acceptor atom, score
      L1  H     5    26       P1  8028  0.95
      L1  H    12    45       P1 10175  1.00
      P1  H  7989  7998       L1     7  0.33
      P1  H  8011  8017       L1     8  0.08

> <Gold.Chemscore.Hbond.Weighted>
-8.9514

> <Gold.Chemscore.Metal.Weighted>
-0.0000

> <Gold.Chemscore.Lipo.Weighted>
-8.1189

> <Gold.Chemscore.Internal_Hbond.Weighted>
0.0000

> <Gold.Chemscore.DEClash.Weighted>
1.5013

> <Gold.Chemscore.DEInternal.Weighted>
2.3839

> <Gold.Chemscore.Rot.Weighted>
3.9809

> <Gold.Chemscore.Internal.Correction.Weighted>
   9.000000E+99

> <Gold.Protein.RotatedTorsions>
[ 6907 6896 6895 6894 ] final  110.34 input  -60.11 | X-H torsion
[ 7974 7965 7964 7962 ] final   48.80 input  175.53 | X-H torsion
[ 8008 7997 7996 7995 ] final   41.02 input   59.86 | X-H torsion
[ 10167 10162 10161 10158 ] final   76.55 input  -65.29 | X-H torsion
[ 10718 10713 10712 10709 ] final -149.75 input   66.30 | X-H torsion
[ 10763 10752 10751 10750 ] final  155.19 input  -60.55 | X-H torsion
[ 11005 11000 10999 10996 ] final  169.16 input  -57.11 | X-H torsion

> <Gold.Protein.ActiveResidues>
 VAL166  LYS551  ARG553  GLY616  TRP617  ASP618  TYR619  PRO620  LYS621  CYS622 
 ASP623  PHE694  ASN695  SER759  ASP760  ASP761  ALA762  ILE779  LEU786  VAL792 
 PHE793  MET794  SER795  GLU796  ALA797  LYS798  CYS799  TRP800  GLU811  SER814 

> <Gold.Protein.RotatedAtoms>
  152.5024  133.8814  159.7348 H   0  0  0  0  0  0  0  0  0  0  0  0  # atno 6907 bound_to 6896
  150.9276  133.6797  159.2824 H   0  0  0  0  0  0  0  0  0  0  0  0  # atno 6908 bound_to 6896
  151.4152  135.0995  159.9650 H   0  0  0  0  0  0  0  0  0  0  0  0  # atno 6909 bound_to 6896
  146.0169  139.4607  142.9921 H   0  0  0  0  0  0  0  0  0  0  0  0  # atno 7974 bound_to 7965
  155.2628  140.3360  155.4272 H   0  0  0  0  0  0  0  0  0  0  0  0  # atno 8008 bound_to 7997
  156.2167  140.1792  156.7615 H   0  0  0  0  0  0  0  0  0  0  0  0  # atno 8009 bound_to 7997
  154.5764  140.0661  156.9025 H   0  0  0  0  0  0  0  0  0  0  0  0  # atno 8010 bound_to 7997
  139.9911  144.5756  150.7817 H   0  0  0  0  0  0  0  0  0  0  0  0  # atno 10167 bound_to 10162
  156.4371  130.8104  151.2333 H   0  0  0  0  0  0  0  0  0  0  0  0  # atno 10718 bound_to 10713
  154.1643  135.2808  155.3099 H   0  0  0  0  0  0  0  0  0  0  0  0  # atno 10763 bound_to 10752
  154.6123  135.5495  153.7489 H   0  0  0  0  0  0  0  0  0  0  0  0  # atno 10764 bound_to 10752
  153.0183  135.6418  154.1785 H   0  0  0  0  0  0  0  0  0  0  0  0  # atno 10765 bound_to 10752
  140.2949  134.7643  157.3868 H   0  0  0  0  0  0  0  0  0  0  0  0  # atno 11005 bound_to 11000
  145.7254  141.0061  143.1380 LP  0  0  0  0  0  0  0  0  0  0  0  0  # atno 17320 bound_to 7965
  144.6974  139.8920  143.7453 LP  0  0  0  0  0  0  0  0  0  0  0  0  # atno 17321 bound_to 7965
  140.7454  143.2875  151.3421 LP  0  0  0  0  0  0  0  0  0  0  0  0  # atno 17342 bound_to 10162
  139.6340  144.0667  152.2500 LP  0  0  0  0  0  0  0  0  0  0  0  0  # atno 17343 bound_to 10162
  157.7507  131.0180  150.3607 LP  0  0  0  0  0  0  0  0  0  0  0  0  # atno 17370 bound_to 10713
  156.3957  130.3906  149.6997 LP  0  0  0  0  0  0  0  0  0  0  0  0  # atno 17371 bound_to 10713
  140.1162  134.5280  155.8223 LP  0  0  0  0  0  0  0  0  0  0  0  0  # atno 17394 bound_to 11000
  141.2139  133.6741  156.6781 LP  0  0  0  0  0  0  0  0  0  0  0  0  # atno 17395 bound_to 11000

$$$$
