AV-unprocessed.smi:249|AV-procd|sdf|1913|dock5
  -GOLD-   2262021 03D 1   1.00000     0.00000
 Structure written by MMmdl.
 64 67  0  0  0  0  0  0  0  0  2 V2000
  145.4727  135.2053  151.6497 C   0  0  0  0  0  0  0  0  0  0  0  0
  146.3116  133.9190  151.6152 C   0  0  0  0  0  0  0  0  0  0  0  0
  147.5614  134.0082  152.4176 N   0  3  1  0  0  0  0  0  0  0  0  0
  147.2975  134.4272  153.8206 C   0  0  0  0  0  0  0  0  0  0  0  0
  148.6022  134.7476  154.5667 C   0  0  0  0  0  0  0  0  0  0  0  0
  149.5678  133.5475  154.5227 C   0  0  2  0  0  0  0  0  0  0  0  0
  150.8099  133.7547  155.2781 N   0  0  0  0  0  0  0  0  0  0  0  0
  151.2031  132.7544  156.2616 C   0  0  0  0  0  0  0  0  0  0  0  0
  151.2556  134.9995  155.5760 C   0  0  0  0  0  0  0  0  0  0  0  0
  151.7667  135.7967  154.6024 N   0  0  0  0  0  0  0  0  0  0  0  0
  152.1942  137.0279  154.8983 C   0  0  0  0  0  0  0  0  0  0  0  0
  152.2061  137.6449  156.0813 N   0  0  0  0  0  0  0  0  0  0  0  0
  151.6942  136.8472  157.0618 C   0  0  0  0  0  0  0  0  0  0  0  0
  151.1911  135.5268  156.8938 C   0  0  0  0  0  0  0  0  0  0  0  0
  150.7442  135.0284  158.1109 N   0  0  0  0  0  0  0  0  0  0  0  0
  150.9725  135.9987  158.9534 C   0  0  0  0  0  0  0  0  0  0  0  0
  151.5646  137.1190  158.4131 N   0  0  0  0  0  0  0  0  0  0  0  0
  151.9278  138.3320  159.1248 C   0  0  0  0  0  0  0  0  0  0  0  0
  152.8825  139.2826  158.3538 C   0  0  1  0  0  0  0  0  0  0  0  0
  152.0634  140.0973  157.3256 C   0  0  0  0  0  0  0  0  0  0  0  0
  150.9620  140.7449  157.9304 O   0  0  0  0  0  0  0  0  0  0  0  0
  153.7741  140.1882  159.2550 C   0  0  1  0  0  0  0  0  0  0  0  0
  153.0446  141.2431  160.0748 C   0  0  0  0  0  0  0  0  0  0  0  0
  154.0497  141.5841  161.1703 C   0  0  0  0  0  0  0  0  0  0  0  0
  154.8364  140.4152  161.3600 O   0  0  0  0  0  0  0  0  0  0  0  0
  154.4909  139.4393  160.3853 C   0  0  0  0  0  0  0  0  0  0  0  0
  149.7999  133.1132  153.0593 C   0  0  0  0  0  0  0  0  0  0  0  0
  148.4753  132.8267  152.3224 C   0  0  1  0  0  0  0  0  0  0  0  0
  147.8277  131.5005  152.7764 C   0  0  0  0  0  0  0  0  0  0  0  0
  144.5092  135.0455  151.1652 H   0  0  0  0  0  0  0  0  0  0  0  0
  145.9607  136.0259  151.1241 H   0  0  0  0  0  0  0  0  0  0  0  0
  145.2779  135.5240  152.6741 H   0  0  0  0  0  0  0  0  0  0  0  0
  145.6980  133.1158  152.0250 H   0  0  0  0  0  0  0  0  0  0  0  0
  146.5321  133.6316  150.5871 H   0  0  0  0  0  0  0  0  0  0  0  0
  146.6668  135.3170  153.8240 H   0  0  0  0  0  0  0  0  0  0  0  0
  146.7385  133.6520  154.3456 H   0  0  0  0  0  0  0  0  0  0  0  0
  149.0552  135.6301  154.1165 H   0  0  0  0  0  0  0  0  0  0  0  0
  148.3730  135.0123  155.5993 H   0  0  0  0  0  0  0  0  0  0  0  0
  149.0706  132.7172  155.0250 H   0  0  0  0  0  0  0  0  0  0  0  0
  152.2862  132.6323  156.2803 H   0  0  0  0  0  0  0  0  0  0  0  0
  150.7639  131.7841  156.0282 H   0  0  0  0  0  0  0  0  0  0  0  0
  150.8721  133.0438  157.2598 H   0  0  0  0  0  0  0  0  0  0  0  0
  152.5838  137.6000  154.0693 H   0  0  0  0  0  0  0  0  0  0  0  0
  150.7288  135.9165  160.0028 H   0  0  0  0  0  0  0  0  0  0  0  0
  150.9999  138.8525  159.3645 H   0  0  0  0  0  0  0  0  0  0  0  0
  152.3742  138.0493  160.0790 H   0  0  0  0  0  0  0  0  0  0  0  0
  153.5551  138.6615  157.7620 H   0  0  0  0  0  0  0  0  0  0  0  0
  152.6828  140.8452  156.8308 H   0  0  0  0  0  0  0  0  0  0  0  0
  151.6909  139.4448  156.5353 H   0  0  0  0  0  0  0  0  0  0  0  0
  151.1024  141.6787  157.8888 H   0  0  0  0  0  0  0  0  0  0  0  0
  154.5264  140.6853  158.6404 H   0  0  0  0  0  0  0  0  0  0  0  0
  152.7695  142.1290  159.5050 H   0  0  0  0  0  0  0  0  0  0  0  0
  152.1387  140.8254  160.5169 H   0  0  0  0  0  0  0  0  0  0  0  0
  154.7058  142.3931  160.8477 H   0  0  0  0  0  0  0  0  0  0  0  0
  153.5632  141.8913  162.0962 H   0  0  0  0  0  0  0  0  0  0  0  0
  153.8220  138.7147  160.8522 H   0  0  0  0  0  0  0  0  0  0  0  0
  155.3777  138.9071  160.0406 H   0  0  0  0  0  0  0  0  0  0  0  0
  150.3292  133.8930  152.5116 H   0  0  0  0  0  0  0  0  0  0  0  0
  150.4435  132.2332  153.0277 H   0  0  0  0  0  0  0  0  0  0  0  0
  148.7454  132.7016  151.2743 H   0  0  0  0  0  0  0  0  0  0  0  0
  148.5420  130.6801  152.7010 H   0  0  0  0  0  0  0  0  0  0  0  0
  146.9764  131.2310  152.1519 H   0  0  0  0  0  0  0  0  0  0  0  0
  147.4850  131.5351  153.8098 H   0  0  0  0  0  0  0  0  0  0  0  0
  148.0791  134.7748  152.0116 H   0  0  0  0  0  0  0  0  0  0  0  0
  1  2  1  0  0  0  0
  1 30  1  0  0  0  0
  1 31  1  0  0  0  0
  1 32  1  0  0  0  0
  2  3  1  0  0  0  0
  2 33  1  0  0  0  0
  2 34  1  0  0  0  0
  3 28  1  0  0  0  0
  3  4  1  0  0  0  0
  3 64  1  0  0  0  0
  4  5  1  0  0  0  0
  4 35  1  0  0  0  0
  4 36  1  0  0  0  0
  5  6  1  0  0  0  0
  5 37  1  0  0  0  0
  5 38  1  0  0  0  0
  6  7  1  0  0  0  0
  6 27  1  0  0  0  0
  6 39  1  0  0  0  0
  7  8  1  0  0  0  0
  7  9  1  0  0  0  0
  8 40  1  0  0  0  0
  8 41  1  0  0  0  0
  8 42  1  0  0  0  0
  9 14  1  0  0  0  0
  9 10  2  0  0  0  0
 10 11  1  0  0  0  0
 11 12  2  0  0  0  0
 11 43  1  0  0  0  0
 12 13  1  0  0  0  0
 13 17  1  0  0  0  0
 13 14  2  0  0  0  0
 14 15  1  0  0  0  0
 15 16  2  0  0  0  0
 16 17  1  0  0  0  0
 16 44  1  0  0  0  0
 17 18  1  0  0  0  0
 18 19  1  0  0  0  0
 18 45  1  0  0  0  0
 18 46  1  0  0  0  0
 19 20  1  0  0  0  0
 19 22  1  0  0  0  0
 19 47  1  0  0  0  0
 20 21  1  0  0  0  0
 20 48  1  0  0  0  0
 20 49  1  0  0  0  0
 21 50  1  0  0  0  0
 22 26  1  0  0  0  0
 22 23  1  0  0  0  0
 22 51  1  0  0  0  0
 23 24  1  0  0  0  0
 23 52  1  0  0  0  0
 23 53  1  0  0  0  0
 24 25  1  0  0  0  0
 24 54  1  0  0  0  0
 24 55  1  0  0  0  0
 25 26  1  0  0  0  0
 26 56  1  0  0  0  0
 26 57  1  0  0  0  0
 27 28  1  0  0  0  0
 27 58  1  0  0  0  0
 27 59  1  0  0  0  0
 28 29  1  0  0  0  0
 28 60  1  0  0  0  0
 29 61  1  0  0  0  0
 29 62  1  0  0  0  0
 29 63  1  0  0  0  0
M  CHG  1   3   1
M  END
> <s_m_source_file>
AV-unprocessed.smi

> <i_m_source_file_index>
249

> <i_lp_mmshare_version>
43012

> <i_f3d_flags>
0

> <s_epik_input>
W0NIM11bQ0gyXU4xW0NIMl1bQ0gyXVtDQEhdKFtDSDJdW0NASF0xW0NIM10pTihbQ0gzXSljKG5bY0hdbjIpYyhjMjMpbltjSF1uM1tDSDJdW0NASF0oW0NIMl1bT0hdKVtDQEBIXTRbQ0gyXVtDSDJdT1tDSDJdNA==

> <s_epik_cmdline>
J2VwaWtfcHl0aG9uJywgJy1waCcsICc3LjAnLCAnLXRuJywgJzgnLCAnLW1hJywgJzIwMCcsICctbWV0YWxfYmluZGluZycsICctaW1hZScsICc8aW5maWxlLm1hZT4nLCAnLW9tYWUnLCAnPG91dGZpbGUubWFlPic=

> <r_lp_tautomer_probability>
1

> <r_epik_Ionization_Penalty>
0.00294688

> <r_epik_Ionization_Penalty_Charging>
0.00169971

> <r_epik_Ionization_Penalty_Neutral>
0.00124717

> <r_epik_State_Penalty>
-0

> <r_epik_Charging_Adjusted_Penalty>
0.00169971

> <i_epik_Tot_Q>
1

> <i_epik_Tot_abs_Q>
1

> <r_epik_Metal_State_Penalty>
-0

> <b_epik_Metal_Only>
0

> <s_lp_Force_Field>
OPLS_2005

> <r_lp_Energy>
54.9966

> <b_lp_Chiralities_Consistent>
1

> <s_lp_Variant>
AV-unprocessed.smi:249-16

> <Gold.Version>
5.8.1

> <Gold.Id.Protein>
6NUR|6NUR_protein|mol2

> <Gold.PLP.Fitness>
54.9527

> <Gold.PLP.PLP>
-45.7379

> <Gold.PLP.part.hbond>
-3.0000

> <Gold.PLP.part.metal>
0.0000

> <Gold.PLP.part.buried>
-6.3905

> <Gold.PLP.part.nonpolar>
-37.2745

> <Gold.PLP.part.repulsive>
0.1699

> <Gold.PLP.ligand.clash>
0.0000

> <Gold.PLP.ligand.torsion>
1.9706

> <Gold.PLP.Chemscore.Hbond>
3.9760

> <Gold.PLP.Chemscore.CHOScore>
0.0000

> <Gold.PLP.Chemscore.Metal>
0.0000

> <Gold.Chemscore.Hbonds>
donor molecule, donor type, donor heavy atom, donor atom, acceptor molecule, acceptor atom, score
      L1  H     3    64       P1  7948  2.00
      P1  H 10752 10763       L1    10  0.01

> <Gold.PLP.Chemscore.Internal.Correction>
1.2280

> <Gold.Rescore>
     Score         DG    S(hbond)    S(metal)    S(lipo)     H(rot)  DE(clash)    DE(int)     intcor
     10.79     -16.18       1.87        0.00      96.18       2.65       0.33       5.05       ----

> <Gold.Chemscore.Fitness>
10.7913

> <Gold.Chemscore.DG>
-16.1750

> <Gold.Chemscore.ZeroCoef>
-5.4800

> <Gold.Chemscore.Hbond>
1.8652

> <Gold.Chemscore.Metal>
0.0000

> <Gold.Chemscore.Lipo>
96.1803

> <Gold.Chemscore.Internal_Hbond>
0.0000

> <Gold.Chemscore.DEClash>
0.3350

> <Gold.Chemscore.DEInternal>
5.0487

> <Gold.Chemscore.Rot>
2.6515

> <Gold.Chemscore.Internal.Correction>
   9.000000E+99

> <Gold.Chemscore.Hbonds>
donor molecule, donor type, donor heavy atom, donor atom, acceptor molecule, acceptor atom, score
      L1  H     3    64       P1  7948  0.25

> <Gold.Chemscore.Hbond.Weighted>
-6.2299

> <Gold.Chemscore.Metal.Weighted>
-0.0000

> <Gold.Chemscore.Lipo.Weighted>
-11.2531

> <Gold.Chemscore.Internal_Hbond.Weighted>
0.0000

> <Gold.Chemscore.DEClash.Weighted>
0.3350

> <Gold.Chemscore.DEInternal.Weighted>
5.0487

> <Gold.Chemscore.Rot.Weighted>
6.7880

> <Gold.Chemscore.Internal.Correction.Weighted>
   9.000000E+99

> <Gold.Protein.RotatedTorsions>
[ 6907 6896 6895 6894 ] final  176.38 input  -60.11 | X-H torsion
[ 7974 7965 7964 7962 ] final  139.23 input  175.53 | X-H torsion
[ 8008 7997 7996 7995 ] final -148.05 input   59.86 | X-H torsion
[ 10167 10162 10161 10158 ] final  104.07 input  -65.29 | X-H torsion
[ 10718 10713 10712 10709 ] final -118.71 input   66.30 | X-H torsion
[ 10763 10752 10751 10750 ] final   55.00 input  -60.55 | X-H torsion
[ 11005 11000 10999 10996 ] final  104.30 input  -57.11 | X-H torsion

> <Gold.Protein.ActiveResidues>
 VAL166  LYS551  ARG553  GLY616  TRP617  ASP618  TYR619  PRO620  LYS621  CYS622 
 ASP623  PHE694  ASN695  SER759  ASP760  ASP761  ALA762  ILE779  LEU786  VAL792 
 PHE793  MET794  SER795  GLU796  ALA797  LYS798  CYS799  TRP800  GLU811  SER814 

> <Gold.Protein.RotatedAtoms>
  151.7210  133.3314  159.3315 H   0  0  0  0  0  0  0  0  0  0  0  0  # atno 6907 bound_to 6896
  150.7653  134.6448  159.6265 H   0  0  0  0  0  0  0  0  0  0  0  0  # atno 6908 bound_to 6896
  152.3652  134.6817  160.0246 H   0  0  0  0  0  0  0  0  0  0  0  0  # atno 6909 bound_to 6896
  144.9298  139.5062  143.5623 H   0  0  0  0  0  0  0  0  0  0  0  0  # atno 7974 bound_to 7965
  155.5853  140.0647  157.2772 H   0  0  0  0  0  0  0  0  0  0  0  0  # atno 8008 bound_to 7997
  154.4320  140.1845  156.1065 H   0  0  0  0  0  0  0  0  0  0  0  0  # atno 8009 bound_to 7997
  156.0274  140.3310  155.7106 H   0  0  0  0  0  0  0  0  0  0  0  0  # atno 8010 bound_to 7997
  139.7209  144.7058  151.0874 H   0  0  0  0  0  0  0  0  0  0  0  0  # atno 10167 bound_to 10162
  156.1126  130.6261  150.9325 H   0  0  0  0  0  0  0  0  0  0  0  0  # atno 10718 bound_to 10713
  152.9811  135.5726  154.4995 H   0  0  0  0  0  0  0  0  0  0  0  0  # atno 10763 bound_to 10752
  154.4516  135.2778  155.1779 H   0  0  0  0  0  0  0  0  0  0  0  0  # atno 10764 bound_to 10752
  154.3404  135.6230  153.5647 H   0  0  0  0  0  0  0  0  0  0  0  0  # atno 10765 bound_to 10752
  139.8791  134.9295  156.5341 H   0  0  0  0  0  0  0  0  0  0  0  0  # atno 11005 bound_to 11000
  146.3242  139.8239  142.8921 LP  0  0  0  0  0  0  0  0  0  0  0  0  # atno 17320 bound_to 7965
  145.3161  141.0232  143.3527 LP  0  0  0  0  0  0  0  0  0  0  0  0  # atno 17321 bound_to 7965
  140.7753  143.5168  150.9585 LP  0  0  0  0  0  0  0  0  0  0  0  0  # atno 17342 bound_to 10162
  139.8854  143.7019  152.3152 LP  0  0  0  0  0  0  0  0  0  0  0  0  # atno 17343 bound_to 10162
  157.6308  131.0921  150.8445 LP  0  0  0  0  0  0  0  0  0  0  0  0  # atno 17370 bound_to 10713
  156.8553  130.5094  149.5308 LP  0  0  0  0  0  0  0  0  0  0  0  0  # atno 17371 bound_to 10713
  140.8359  133.8242  155.9028 LP  0  0  0  0  0  0  0  0  0  0  0  0  # atno 17394 bound_to 11000
  140.9284  134.2053  157.4880 LP  0  0  0  0  0  0  0  0  0  0  0  0  # atno 17395 bound_to 11000

$$$$
