AV-unprocessed.smi:1920|AV-procd|sdf|7782|dock7
  -GOLD-   22720 9523D 1   1.00000     0.00000
 Structure written by MMmdl.
 36 37  0  0  0  0  0  0  0  0  1 V2000
  149.2819  139.6873  156.8595 C   0  0  0  0  0  0  0  0  0  0  0  0
  150.3759  140.4565  156.1027 C   0  0  1  0  0  0  0  0  0  0  0  0
  149.8037  141.6993  155.3949 C   0  0  0  0  0  0  0  0  0  0  0  0
  148.5377  141.4262  154.7395 N   0  0  0  0  0  0  0  0  0  0  0  0
  147.3126  142.0247  155.0024 C   0  0  0  0  0  0  0  0  0  0  0  0
  146.4025  141.4509  154.1436 C   0  0  0  0  0  0  0  0  0  0  0  0
  147.0423  140.5047  153.3463 N   0  0  0  0  0  0  0  0  0  0  0  0
  148.3037  140.5473  153.7553 C   0  0  0  0  0  0  0  0  0  0  0  0
  151.4363  140.8491  157.0285 N   0  0  0  0  0  0  0  0  0  0  0  0
  151.2517  141.4615  158.2079 C   0  0  0  0  0  0  0  0  0  0  0  0
  150.1421  141.7569  158.6517 O   0  0  0  0  0  0  0  0  0  0  0  0
  152.5145  141.7961  159.0083 C   0  0  0  0  0  0  0  0  0  0  0  0
  152.7522  143.3133  159.1707 C   0  0  2  0  0  0  0  0  0  0  0  0
  152.3484  143.8518  160.5227 C   0  0  0  0  0  0  0  0  0  0  0  0
  151.5376  144.9037  160.4349 C   0  0  0  0  0  0  0  0  0  0  0  0
  151.2363  145.2801  159.0109 C   0  0  0  0  0  0  0  0  0  0  0  0
  151.9232  144.1722  158.1818 C   0  0  0  0  0  0  0  0  0  0  0  0
  148.4900  139.3656  156.1826 H   0  0  0  0  0  0  0  0  0  0  0  0
  148.8269  140.3043  157.6350 H   0  0  0  0  0  0  0  0  0  0  0  0
  149.6844  138.7942  157.3384 H   0  0  0  0  0  0  0  0  0  0  0  0
  150.7895  139.7940  155.3398 H   0  0  0  0  0  0  0  0  0  0  0  0
  149.6394  142.5005  156.1168 H   0  0  0  0  0  0  0  0  0  0  0  0
  150.5098  142.0837  154.6571 H   0  0  0  0  0  0  0  0  0  0  0  0
  147.1928  142.7856  155.7594 H   0  0  0  0  0  0  0  0  0  0  0  0
  145.3452  141.6454  154.0388 H   0  0  0  0  0  0  0  0  0  0  0  0
  149.0755  139.9216  153.3314 H   0  0  0  0  0  0  0  0  0  0  0  0
  152.3844  140.6444  156.7475 H   0  0  0  0  0  0  0  0  0  0  0  0
  152.4216  141.3336  159.9915 H   0  0  0  0  0  0  0  0  0  0  0  0
  153.3824  141.3355  158.5331 H   0  0  0  0  0  0  0  0  0  0  0  0
  153.8119  143.5361  159.0369 H   0  0  0  0  0  0  0  0  0  0  0  0
  152.7076  143.4239  161.4474 H   0  0  0  0  0  0  0  0  0  0  0  0
  151.1392  145.4548  161.2739 H   0  0  0  0  0  0  0  0  0  0  0  0
  150.1604  145.3112  158.8371 H   0  0  0  0  0  0  0  0  0  0  0  0
  151.6544  146.2635  158.7941 H   0  0  0  0  0  0  0  0  0  0  0  0
  152.5517  144.5930  157.3963 H   0  0  0  0  0  0  0  0  0  0  0  0
  151.1626  143.5658  157.6881 H   0  0  0  0  0  0  0  0  0  0  0  0
  1  2  1  0  0  0  0
  1 18  1  0  0  0  0
  1 19  1  0  0  0  0
  1 20  1  0  0  0  0
  2  3  1  0  0  0  0
  2  9  1  0  0  0  0
  2 21  1  0  0  0  0
  3  4  1  0  0  0  0
  3 22  1  0  0  0  0
  3 23  1  0  0  0  0
  4  8  1  0  0  0  0
  4  5  1  0  0  0  0
  5  6  2  0  0  0  0
  5 24  1  0  0  0  0
  6  7  1  0  0  0  0
  6 25  1  0  0  0  0
  7  8  2  0  0  0  0
  8 26  1  0  0  0  0
  9 10  1  0  0  0  0
  9 27  1  0  0  0  0
 10 11  2  0  0  0  0
 10 12  1  0  0  0  0
 12 13  1  0  0  0  0
 12 28  1  0  0  0  0
 12 29  1  0  0  0  0
 13 17  1  0  0  0  0
 13 14  1  0  0  0  0
 13 30  1  0  0  0  0
 14 15  2  0  0  0  0
 14 31  1  0  0  0  0
 15 16  1  0  0  0  0
 15 32  1  0  0  0  0
 16 17  1  0  0  0  0
 16 33  1  0  0  0  0
 16 34  1  0  0  0  0
 17 35  1  0  0  0  0
 17 36  1  0  0  0  0
M  END
> <s_m_source_file>
AV-unprocessed.smi

> <i_m_source_file_index>
1920

> <i_lp_mmshare_version>
43012

> <i_f3d_flags>
0

> <s_epik_input>
W2NIXTFuW2NIXVtjSF1uMVtDSDJdW0NAQEhdKFtDSDNdKVtOSF1DKD1PKVtDSDJdW0NAQEhdMltDSF09W0NIXVtDSDJdW0NIMl0y

> <s_epik_cmdline>
J2VwaWtfcHl0aG9uJywgJy1waCcsICc3LjAnLCAnLXRuJywgJzgnLCAnLW1hJywgJzIwMCcsICctbWV0YWxfYmluZGluZycsICctaW1hZScsICc8aW5maWxlLm1hZT4nLCAnLW9tYWUnLCAnPG91dGZpbGUubWFlPic=

> <r_lp_tautomer_probability>
1

> <r_epik_Ionization_Penalty>
0.635367

> <r_epik_Ionization_Penalty_Charging>
0.635367

> <r_epik_Ionization_Penalty_Neutral>
2.1249e-08

> <r_epik_State_Penalty>
0.65258

> <r_epik_Charging_Adjusted_Penalty>
1.28795

> <i_epik_Tot_Q>
0

> <i_epik_Tot_abs_Q>
0

> <r_epik_Metal_State_Penalty>
0.310403

> <b_epik_Metal_Only>
0

> <s_lp_Force_Field>
OPLS_2005

> <r_lp_Energy>
19.6981

> <b_lp_Chiralities_Consistent>
1

> <s_lp_Variant>
AV-unprocessed.smi:1920-6

> <Gold.Version>
5.8.1

> <Gold.Id.Protein>
6NUR|6NUR_protein|mol2

> <Gold.PLP.Fitness>
45.1397

> <Gold.PLP.PLP>
-39.3801

> <Gold.PLP.part.hbond>
0.0000

> <Gold.PLP.part.metal>
0.0000

> <Gold.PLP.part.buried>
-1.0257

> <Gold.PLP.part.nonpolar>
-37.7605

> <Gold.PLP.part.repulsive>
0.3200

> <Gold.PLP.ligand.clash>
0.0000

> <Gold.PLP.ligand.torsion>
0.8906

> <Gold.PLP.Chemscore.Hbond>
0.0000

> <Gold.PLP.Chemscore.CHOScore>
2.5035

> <Gold.PLP.Chemscore.Metal>
0.0000

> <Gold.Chemscore.Hbonds>
donor molecule, donor type, donor heavy atom, donor atom, acceptor molecule, acceptor atom, score
      L1  C     5    24       P1  8028  0.58
      L1  C     6    25       P1 10175  0.94
      L1  C     8    26       P1  7957  0.83

> <Gold.PLP.Chemscore.Internal.Correction>
0.0303

> <Gold.Rescore>
     Score         DG    S(hbond)    S(metal)    S(lipo)     H(rot)  DE(clash)    DE(int)     intcor
     10.45     -12.20       0.00        0.00      99.68       1.93       0.09       1.65       ----

> <Gold.Chemscore.Fitness>
10.4503

> <Gold.Chemscore.DG>
-12.2001

> <Gold.Chemscore.ZeroCoef>
-5.4800

> <Gold.Chemscore.Hbond>
0.0000

> <Gold.Chemscore.Metal>
0.0000

> <Gold.Chemscore.Lipo>
99.6797

> <Gold.Chemscore.Internal_Hbond>
0.0000

> <Gold.Chemscore.DEClash>
0.0949

> <Gold.Chemscore.DEInternal>
1.6549

> <Gold.Chemscore.Rot>
1.9306

> <Gold.Chemscore.Internal.Correction>
   9.000000E+99

> <Gold.Chemscore.Hbond.Weighted>
-0.0000

> <Gold.Chemscore.Metal.Weighted>
-0.0000

> <Gold.Chemscore.Lipo.Weighted>
-11.6625

> <Gold.Chemscore.Internal_Hbond.Weighted>
0.0000

> <Gold.Chemscore.DEClash.Weighted>
0.0949

> <Gold.Chemscore.DEInternal.Weighted>
1.6549

> <Gold.Chemscore.Rot.Weighted>
4.9424

> <Gold.Chemscore.Internal.Correction.Weighted>
   9.000000E+99

> <Gold.Protein.RotatedTorsions>
[ 6907 6896 6895 6894 ] final  168.86 input  -60.11 | X-H torsion
[ 7974 7965 7964 7962 ] final  165.14 input  175.53 | X-H torsion
[ 8008 7997 7996 7995 ] final   64.17 input   59.86 | X-H torsion
[ 10167 10162 10161 10158 ] final   89.78 input  -65.29 | X-H torsion
[ 10718 10713 10712 10709 ] final   48.08 input   66.30 | X-H torsion
[ 10763 10752 10751 10750 ] final  -57.43 input  -60.55 | X-H torsion
[ 11005 11000 10999 10996 ] final -123.18 input  -57.11 | X-H torsion

> <Gold.Protein.ActiveResidues>
 VAL166  LYS551  ARG553  GLY616  TRP617  ASP618  TYR619  PRO620  LYS621  CYS622 
 ASP623  PHE694  ASN695  SER759  ASP760  ASP761  ALA762  ILE779  LEU786  VAL792 
 PHE793  MET794  SER795  GLU796  ALA797  LYS798  CYS799  TRP800  GLU811  SER814 

> <Gold.Protein.RotatedAtoms>
  151.8411  133.3424  159.3642 H   0  0  0  0  0  0  0  0  0  0  0  0  # atno 6907 bound_to 6896
  150.7235  134.5391  159.5747 H   0  0  0  0  0  0  0  0  0  0  0  0  # atno 6908 bound_to 6896
  152.2864  134.7771  160.0437 H   0  0  0  0  0  0  0  0  0  0  0  0  # atno 6909 bound_to 6896
  144.7515  139.8427  143.6364 H   0  0  0  0  0  0  0  0  0  0  0  0  # atno 7974 bound_to 7965
  155.6418  140.3497  155.4717 H   0  0  0  0  0  0  0  0  0  0  0  0  # atno 8008 bound_to 7997
  155.9920  140.1195  157.0653 H   0  0  0  0  0  0  0  0  0  0  0  0  # atno 8009 bound_to 7997
  154.4222  140.1117  156.5564 H   0  0  0  0  0  0  0  0  0  0  0  0  # atno 8010 bound_to 7997
  139.8539  144.6579  150.9138 H   0  0  0  0  0  0  0  0  0  0  0  0  # atno 10167 bound_to 10162
  157.4651  130.8220  149.7927 H   0  0  0  0  0  0  0  0  0  0  0  0  # atno 10718 bound_to 10713
  154.2224  135.6375  153.5149 H   0  0  0  0  0  0  0  0  0  0  0  0  # atno 10763 bound_to 10752
  152.9966  135.5500  154.6100 H   0  0  0  0  0  0  0  0  0  0  0  0  # atno 10764 bound_to 10752
  154.5563  135.2905  155.0935 H   0  0  0  0  0  0  0  0  0  0  0  0  # atno 10765 bound_to 10752
  140.9939  134.0500  157.3621 H   0  0  0  0  0  0  0  0  0  0  0  0  # atno 11005 bound_to 11000
  146.1472  139.4544  143.0072 LP  0  0  0  0  0  0  0  0  0  0  0  0  # atno 17320 bound_to 7965
  145.6927  141.0159  143.1546 LP  0  0  0  0  0  0  0  0  0  0  0  0  # atno 17321 bound_to 7965
  140.7784  143.3803  151.1488 LP  0  0  0  0  0  0  0  0  0  0  0  0  # atno 17342 bound_to 10162
  139.7439  143.8882  152.3058 LP  0  0  0  0  0  0  0  0  0  0  0  0  # atno 17343 bound_to 10162
  156.0046  130.3862  150.2477 LP  0  0  0  0  0  0  0  0  0  0  0  0  # atno 17370 bound_to 10713
  157.0657  131.0102  151.3207 LP  0  0  0  0  0  0  0  0  0  0  0  0  # atno 17371 bound_to 10713
  139.9005  135.0162  156.7245 LP  0  0  0  0  0  0  0  0  0  0  0  0  # atno 17394 bound_to 11000
  140.6997  133.9317  155.8016 LP  0  0  0  0  0  0  0  0  0  0  0  0  # atno 17395 bound_to 11000

$$$$
