AV-unprocessed.smi:307|AV-procd|sdf|2284|dock8
  -GOLD-   2262022183D 1   1.00000     0.00000
 Structure written by MMmdl.
 38 39  0  0  0  0  0  0  0  0  1 V2000
  146.2097  139.0031  153.9104 O   0  0  0  0  0  0  0  0  0  0  0  0
  147.0896  138.4024  153.2980 C   0  0  0  0  0  0  0  0  0  0  0  0
  148.4127  138.5869  153.4762 N   0  0  0  0  0  0  0  0  0  0  0  0
  149.0797  139.5044  154.3324 C   0  0  0  0  0  0  0  0  0  0  0  0
  148.4548  140.5989  154.9767 C   0  0  0  0  0  0  0  0  0  0  0  0
  149.2334  141.4445  155.7901 C   0  0  0  0  0  0  0  0  0  0  0  0
  150.6099  141.1791  155.9296 C   0  0  0  0  0  0  0  0  0  0  0  0
  151.3642  142.0103  156.7315 O   0  0  0  0  0  0  0  0  0  0  0  0
  150.7309  142.6445  157.8397 C   0  0  0  0  0  0  0  0  0  0  0  0
  151.7354  143.5741  158.5303 C   0  0  0  0  0  0  0  0  0  0  0  0
  152.2135  144.4444  157.6416 F   0  0  0  0  0  0  0  0  0  0  0  0
  151.1387  144.2495  159.5121 F   0  0  0  0  0  0  0  0  0  0  0  0
  152.7514  142.8679  159.0261 F   0  0  0  0  0  0  0  0  0  0  0  0
  151.2183  140.1417  155.3037 N   0  0  0  0  0  0  0  0  0  0  0  0
  150.4662  139.3348  154.5258 C   0  0  0  0  0  0  0  0  0  0  0  0
  146.7815  137.4638  152.3841 N   0  0  0  0  0  0  0  0  0  0  0  0
  145.4563  137.0160  151.9495 C   0  0  0  0  0  0  0  0  0  0  0  0
  144.6187  136.5231  153.1434 C   0  0  0  0  0  0  0  0  0  0  0  0
  143.2978  135.9017  152.6616 C   0  0  0  0  0  0  0  0  0  0  0  0
  143.5611  134.8457  151.7439 O   0  0  0  0  0  0  0  0  0  0  0  0
  144.2295  135.2881  150.5676 C   0  0  0  0  0  0  0  0  0  0  0  0
  145.6037  135.8742  150.9322 C   0  0  0  0  0  0  0  0  0  0  0  0
  149.0156  137.9622  152.9611 H   0  0  0  0  0  0  0  0  0  0  0  0
  147.4054  140.8163  154.8565 H   0  0  0  0  0  0  0  0  0  0  0  0
  148.7817  142.2849  156.2963 H   0  0  0  0  0  0  0  0  0  0  0  0
  149.8689  143.2232  157.5031 H   0  0  0  0  0  0  0  0  0  0  0  0
  150.3744  141.8964  158.5500 H   0  0  0  0  0  0  0  0  0  0  0  0
  150.9913  138.5226  154.0446 H   0  0  0  0  0  0  0  0  0  0  0  0
  147.5627  136.9977  151.9455 H   0  0  0  0  0  0  0  0  0  0  0  0
  144.9326  137.8365  151.4556 H   0  0  0  0  0  0  0  0  0  0  0  0
  145.1809  135.7768  153.7067 H   0  0  0  0  0  0  0  0  0  0  0  0
  144.4114  137.3418  153.8330 H   0  0  0  0  0  0  0  0  0  0  0  0
  142.7419  135.5011  153.5095 H   0  0  0  0  0  0  0  0  0  0  0  0
  142.6628  136.6550  152.1927 H   0  0  0  0  0  0  0  0  0  0  0  0
  144.3510  134.4411  149.8923 H   0  0  0  0  0  0  0  0  0  0  0  0
  143.6183  136.0257  150.0454 H   0  0  0  0  0  0  0  0  0  0  0  0
  146.1076  136.2300  150.0329 H   0  0  0  0  0  0  0  0  0  0  0  0
  146.2294  135.0834  151.3488 H   0  0  0  0  0  0  0  0  0  0  0  0
  1  2  2  0  0  0  0
  2  3  1  0  0  0  0
  2 16  1  0  0  0  0
  3  4  1  0  0  0  0
  3 23  1  0  0  0  0
  4 15  1  0  0  0  0
  4  5  2  0  0  0  0
  5  6  1  0  0  0  0
  5 24  1  0  0  0  0
  6  7  2  0  0  0  0
  6 25  1  0  0  0  0
  7  8  1  0  0  0  0
  7 14  1  0  0  0  0
  8  9  1  0  0  0  0
  9 10  1  0  0  0  0
  9 26  1  0  0  0  0
  9 27  1  0  0  0  0
 10 11  1  0  0  0  0
 10 12  1  0  0  0  0
 10 13  1  0  0  0  0
 14 15  2  0  0  0  0
 15 28  1  0  0  0  0
 16 17  1  0  0  0  0
 16 29  1  0  0  0  0
 17 22  1  0  0  0  0
 17 18  1  0  0  0  0
 17 30  1  0  0  0  0
 18 19  1  0  0  0  0
 18 31  1  0  0  0  0
 18 32  1  0  0  0  0
 19 20  1  0  0  0  0
 19 33  1  0  0  0  0
 19 34  1  0  0  0  0
 20 21  1  0  0  0  0
 21 22  1  0  0  0  0
 21 35  1  0  0  0  0
 21 36  1  0  0  0  0
 22 37  1  0  0  0  0
 22 38  1  0  0  0  0
M  END
> <s_m_source_file>
AV-unprocessed.smi

> <i_m_source_file_index>
307

> <i_lp_mmshare_version>
43012

> <i_f3d_flags>
0

> <s_epik_input>
W0NIMl0xW0NIMl1PW0NIMl1bQ0gyXVtDSF0xW05IXUMoPU8pW05IXWMyW2NIXVtjSF1jKG5bY0hdMilPW0NIMl1DKEYpKEYpRg==

> <s_epik_cmdline>
J2VwaWtfcHl0aG9uJywgJy1waCcsICc3LjAnLCAnLXRuJywgJzgnLCAnLW1hJywgJzIwMCcsICctbWV0YWxfYmluZGluZycsICctaW1hZScsICc8aW5maWxlLm1hZT4nLCAnLW9tYWUnLCAnPG91dGZpbGUubWFlPic=

> <r_lp_tautomer_probability>
1

> <r_epik_Ionization_Penalty>
3.97058e-05

> <r_epik_Ionization_Penalty_Charging>
0

> <r_epik_Ionization_Penalty_Neutral>
3.97058e-05

> <r_epik_State_Penalty>
-0

> <r_epik_Charging_Adjusted_Penalty>
0

> <i_epik_Tot_Q>
0

> <i_epik_Tot_abs_Q>
0

> <r_epik_Metal_State_Penalty>
-0

> <b_epik_Metal_Only>
0

> <s_lp_Force_Field>
OPLS_2005

> <r_lp_Energy>
20.0098

> <b_lp_Chiralities_Consistent>
1

> <s_lp_Variant>
AV-unprocessed.smi:307-1

> <Gold.Version>
5.8.1

> <Gold.Id.Protein>
6NUR|6NUR_protein|mol2

> <Gold.PLP.Fitness>
47.1352

> <Gold.PLP.PLP>
-42.4091

> <Gold.PLP.part.hbond>
-4.0000

> <Gold.PLP.part.metal>
0.0000

> <Gold.PLP.part.buried>
-3.6262

> <Gold.PLP.part.nonpolar>
-36.9756

> <Gold.PLP.part.repulsive>
0.5461

> <Gold.PLP.ligand.clash>
0.0000

> <Gold.PLP.ligand.torsion>
0.4340

> <Gold.PLP.Chemscore.Hbond>
1.8480

> <Gold.PLP.Chemscore.CHOScore>
0.0000

> <Gold.PLP.Chemscore.Metal>
0.0000

> <Gold.Chemscore.Hbonds>
donor molecule, donor type, donor heavy atom, donor atom, acceptor molecule, acceptor atom, score
      L1  H     3    23       P1  7948  0.85
      L1  H    16    29       P1  7948  1.00

> <Gold.PLP.Chemscore.Internal.Correction>
0.0501

> <Gold.Rescore>
     Score         DG    S(hbond)    S(metal)    S(lipo)     H(rot)  DE(clash)    DE(int)     intcor
     13.86     -15.64       1.84        0.00      71.81       1.71       0.20       1.59       ----

> <Gold.Chemscore.Fitness>
13.8564

> <Gold.Chemscore.DG>
-15.6391

> <Gold.Chemscore.ZeroCoef>
-5.4800

> <Gold.Chemscore.Hbond>
1.8394

> <Gold.Chemscore.Metal>
0.0000

> <Gold.Chemscore.Lipo>
71.8052

> <Gold.Chemscore.Internal_Hbond>
0.0000

> <Gold.Chemscore.DEClash>
0.1974

> <Gold.Chemscore.DEInternal>
1.5852

> <Gold.Chemscore.Rot>
1.7132

> <Gold.Chemscore.Internal.Correction>
   9.000000E+99

> <Gold.Chemscore.Hbonds>
donor molecule, donor type, donor heavy atom, donor atom, acceptor molecule, acceptor atom, score
      L1  H     3    23       P1  7948  0.78
      L1  H    16    29       P1  7948  0.96

> <Gold.Chemscore.Hbond.Weighted>
-6.1436

> <Gold.Chemscore.Metal.Weighted>
-0.0000

> <Gold.Chemscore.Lipo.Weighted>
-8.4012

> <Gold.Chemscore.Internal_Hbond.Weighted>
0.0000

> <Gold.Chemscore.DEClash.Weighted>
0.1974

> <Gold.Chemscore.DEInternal.Weighted>
1.5852

> <Gold.Chemscore.Rot.Weighted>
4.3858

> <Gold.Chemscore.Internal.Correction.Weighted>
   9.000000E+99

> <Gold.Protein.RotatedTorsions>
[ 6907 6896 6895 6894 ] final  109.65 input  -60.11 | X-H torsion
[ 7974 7965 7964 7962 ] final   75.41 input  175.53 | X-H torsion
[ 8008 7997 7996 7995 ] final   79.03 input   59.86 | X-H torsion
[ 10167 10162 10161 10158 ] final  -69.81 input  -65.29 | X-H torsion
[ 10718 10713 10712 10709 ] final    5.11 input   66.30 | X-H torsion
[ 10763 10752 10751 10750 ] final   62.01 input  -60.55 | X-H torsion
[ 11005 11000 10999 10996 ] final  129.11 input  -57.11 | X-H torsion

> <Gold.Protein.ActiveResidues>
 VAL166  LYS551  ARG553  GLY616  TRP617  ASP618  TYR619  PRO620  LYS621  CYS622 
 ASP623  PHE694  ASN695  SER759  ASP760  ASP761  ALA762  ILE779  LEU786  VAL792 
 PHE793  MET794  SER795  GLU796  ALA797  LYS798  CYS799  TRP800  GLU811  SER814 

> <Gold.Protein.RotatedAtoms>
  152.5057  133.8913  159.7394 H   0  0  0  0  0  0  0  0  0  0  0  0  # atno 6907 bound_to 6896
  150.9351  133.6712  159.2809 H   0  0  0  0  0  0  0  0  0  0  0  0  # atno 6908 bound_to 6896
  151.4043  135.0980  159.9618 H   0  0  0  0  0  0  0  0  0  0  0  0  # atno 6909 bound_to 6896
  145.7160  139.2631  143.1623 H   0  0  0  0  0  0  0  0  0  0  0  0  # atno 7974 bound_to 7965
  155.8640  140.3452  155.5776 H   0  0  0  0  0  0  0  0  0  0  0  0  # atno 8008 bound_to 7997
  155.7901  140.0870  157.2032 H   0  0  0  0  0  0  0  0  0  0  0  0  # atno 8009 bound_to 7997
  154.4013  140.1484  156.3141 H   0  0  0  0  0  0  0  0  0  0  0  0  # atno 8010 bound_to 7997
  140.5401  143.2315  151.7104 H   0  0  0  0  0  0  0  0  0  0  0  0  # atno 10167 bound_to 10162
  156.9025  130.5727  149.5648 H   0  0  0  0  0  0  0  0  0  0  0  0  # atno 10718 bound_to 10713
  152.9969  135.5480  154.6125 H   0  0  0  0  0  0  0  0  0  0  0  0  # atno 10763 bound_to 10752
  154.5442  135.2822  155.1070 H   0  0  0  0  0  0  0  0  0  0  0  0  # atno 10764 bound_to 10752
  154.2335  135.6429  153.5236 H   0  0  0  0  0  0  0  0  0  0  0  0  # atno 10765 bound_to 10752
  139.9597  134.9605  156.9101 H   0  0  0  0  0  0  0  0  0  0  0  0  # atno 11005 bound_to 11000
  146.0669  140.7911  142.9707 LP  0  0  0  0  0  0  0  0  0  0  0  0  # atno 17320 bound_to 7965
  144.6929  140.3283  143.7220 LP  0  0  0  0  0  0  0  0  0  0  0  0  # atno 17321 bound_to 7965
  139.4985  144.3981  152.0209 LP  0  0  0  0  0  0  0  0  0  0  0  0  # atno 17342 bound_to 10162
  140.3090  144.3560  150.6039 LP  0  0  0  0  0  0  0  0  0  0  0  0  # atno 17343 bound_to 10162
  156.0575  130.5634  150.9122 LP  0  0  0  0  0  0  0  0  0  0  0  0  # atno 17370 bound_to 10713
  157.6017  131.0941  150.8948 LP  0  0  0  0  0  0  0  0  0  0  0  0  # atno 17371 bound_to 10713
  140.5527  134.0611  155.7374 LP  0  0  0  0  0  0  0  0  0  0  0  0  # atno 17394 bound_to 11000
  141.1273  133.9361  157.2608 LP  0  0  0  0  0  0  0  0  0  0  0  0  # atno 17395 bound_to 11000

$$$$
