AV-unprocessed.smi:227|AV-procd|sdf|1741|dock3
  -GOLD-   2262020243D 1   1.00000     0.00000
 Structure written by MMmdl.
 54 58  0  0  0  0  0  0  0  0  1 V2000
  150.8811  139.0970  152.8955 O   0  0  0  0  0  0  0  0  0  0  0  0
  149.8177  138.8909  153.8017 C   0  0  0  0  0  0  0  0  0  0  0  0
  150.2972  138.1233  155.0568 C   0  0  2  0  0  0  0  0  0  0  0  0
  149.1132  137.5942  155.9125 C   0  0  0  0  0  0  0  0  0  0  0  0
  148.1100  136.8571  155.1574 N   0  0  0  0  0  0  0  0  0  0  0  0
  146.8930  137.3265  154.7195 C   0  0  0  0  0  0  0  0  0  0  0  0
  146.1712  136.4658  154.0574 N   0  0  0  0  0  0  0  0  0  0  0  0
  146.9370  135.3057  154.0425 C   0  0  0  0  0  0  0  0  0  0  0  0
  146.7672  133.9969  153.4989 C   0  0  0  0  0  0  0  0  0  0  0  0
  145.6803  133.5827  152.7891 N   0  0  0  0  0  0  0  0  0  0  0  0
  144.6485  134.5173  152.3622 C   0  0  1  0  0  0  0  0  0  0  0  0
  145.3130  135.3065  151.2170 C   0  0  0  0  0  0  0  0  0  0  0  0
  146.1957  134.2212  150.5819 C   0  0  0  0  0  0  0  0  0  0  0  0
  145.8588  132.9977  151.4658 C   0  0  2  0  0  0  0  0  0  0  0  0
  144.4395  132.4572  151.1789 C   0  0  2  0  0  0  0  0  0  0  0  0
  144.1028  132.0790  149.7238 C   0  0  0  0  0  0  0  0  0  0  0  0
  142.7125  132.1754  149.4996 O   0  0  0  0  0  0  0  0  0  0  0  0
  143.5762  133.5872  151.7661 C   0  0  0  0  0  0  0  0  0  0  0  0
  147.7592  133.0968  153.7320 N   0  0  0  0  0  0  0  0  0  0  0  0
  148.8477  133.4451  154.4218 C   0  0  0  0  0  0  0  0  0  0  0  0
  149.1456  134.6246  154.9664 N   0  0  0  0  0  0  0  0  0  0  0  0
  148.1535  135.5342  154.7501 C   0  0  0  0  0  0  0  0  0  0  0  0
  151.2932  138.9764  155.8862 C   0  0  1  0  0  0  0  0  0  0  0  0
  151.5574  138.4571  157.2898 C   0  0  0  0  0  0  0  0  0  0  0  0
  152.8483  139.1767  157.6622 C   0  0  0  0  0  0  0  0  0  0  0  0
  153.5711  139.3154  156.4450 O   0  0  0  0  0  0  0  0  0  0  0  0
  152.7256  139.0115  155.3398 C   0  0  0  0  0  0  0  0  0  0  0  0
  150.6261  138.7548  152.0515 H   0  0  0  0  0  0  0  0  0  0  0  0
  149.4369  139.8758  154.0696 H   0  0  0  0  0  0  0  0  0  0  0  0
  149.0045  138.3670  153.2986 H   0  0  0  0  0  0  0  0  0  0  0  0
  150.8455  137.2479  154.7052 H   0  0  0  0  0  0  0  0  0  0  0  0
  149.4877  136.9440  156.7037 H   0  0  0  0  0  0  0  0  0  0  0  0
  148.6159  138.4146  156.4297 H   0  0  0  0  0  0  0  0  0  0  0  0
  146.5532  138.3350  154.9012 H   0  0  0  0  0  0  0  0  0  0  0  0
  144.2309  135.1522  153.1411 H   0  0  0  0  0  0  0  0  0  0  0  0
  144.5884  135.7275  150.5192 H   0  0  0  0  0  0  0  0  0  0  0  0
  145.9244  136.1228  151.6040 H   0  0  0  0  0  0  0  0  0  0  0  0
  145.9997  134.0701  149.5217 H   0  0  0  0  0  0  0  0  0  0  0  0
  147.2487  134.4878  150.6797 H   0  0  0  0  0  0  0  0  0  0  0  0
  146.6130  132.2116  151.4136 H   0  0  0  0  0  0  0  0  0  0  0  0
  144.2936  131.5683  151.7957 H   0  0  0  0  0  0  0  0  0  0  0  0
  144.6083  132.7608  149.0395 H   0  0  0  0  0  0  0  0  0  0  0  0
  144.4469  131.0771  149.4701 H   0  0  0  0  0  0  0  0  0  0  0  0
  142.3366  131.3106  149.5646 H   0  0  0  0  0  0  0  0  0  0  0  0
  142.9165  133.1992  152.5433 H   0  0  0  0  0  0  0  0  0  0  0  0
  142.9576  134.0916  151.0228 H   0  0  0  0  0  0  0  0  0  0  0  0
  149.5851  132.6674  154.5555 H   0  0  0  0  0  0  0  0  0  0  0  0
  150.9344  140.0043  155.9532 H   0  0  0  0  0  0  0  0  0  0  0  0
  150.7516  138.6630  157.9935 H   0  0  0  0  0  0  0  0  0  0  0  0
  151.7240  137.3791  157.2717 H   0  0  0  0  0  0  0  0  0  0  0  0
  152.6299  140.1716  158.0523 H   0  0  0  0  0  0  0  0  0  0  0  0
  153.4264  138.6370  158.4125 H   0  0  0  0  0  0  0  0  0  0  0  0
  153.0151  138.0357  154.9472 H   0  0  0  0  0  0  0  0  0  0  0  0
  152.8515  139.7461  154.5441 H   0  0  0  0  0  0  0  0  0  0  0  0
  1  2  1  0  0  0  0
  1 28  1  0  0  0  0
  2  3  1  0  0  0  0
  2 29  1  0  0  0  0
  2 30  1  0  0  0  0
  3  4  1  0  0  0  0
  3 23  1  0  0  0  0
  3 31  1  0  0  0  0
  4  5  1  0  0  0  0
  4 32  1  0  0  0  0
  4 33  1  0  0  0  0
  5 22  1  0  0  0  0
  5  6  1  0  0  0  0
  6  7  2  0  0  0  0
  6 34  1  0  0  0  0
  7  8  1  0  0  0  0
  8 22  2  0  0  0  0
  8  9  1  0  0  0  0
  9 10  1  0  0  0  0
  9 19  2  0  0  0  0
 10 14  1  0  0  0  0
 10 11  1  0  0  0  0
 11 18  1  0  0  0  0
 11 12  1  0  0  0  0
 11 35  1  0  0  0  0
 12 13  1  0  0  0  0
 12 36  1  0  0  0  0
 12 37  1  0  0  0  0
 13 14  1  0  0  0  0
 13 38  1  0  0  0  0
 13 39  1  0  0  0  0
 14 15  1  0  0  0  0
 14 40  1  0  0  0  0
 15 16  1  0  0  0  0
 15 18  1  0  0  0  0
 15 41  1  0  0  0  0
 16 17  1  0  0  0  0
 16 42  1  0  0  0  0
 16 43  1  0  0  0  0
 17 44  1  0  0  0  0
 18 45  1  0  0  0  0
 18 46  1  0  0  0  0
 19 20  1  0  0  0  0
 20 21  2  0  0  0  0
 20 47  1  0  0  0  0
 21 22  1  0  0  0  0
 23 27  1  0  0  0  0
 23 24  1  0  0  0  0
 23 48  1  0  0  0  0
 24 25  1  0  0  0  0
 24 49  1  0  0  0  0
 24 50  1  0  0  0  0
 25 26  1  0  0  0  0
 25 51  1  0  0  0  0
 25 52  1  0  0  0  0
 26 27  1  0  0  0  0
 27 53  1  0  0  0  0
 27 54  1  0  0  0  0
M  END
> <s_m_source_file>
AV-unprocessed.smi

> <i_m_source_file_index>
227

> <i_lp_mmshare_version>
43012

> <i_f3d_flags>
0

> <s_epik_input>
W0NIMl0xT1tDSDJdW0NIMl1bQ0BIXTFbQ0BIXShbQ0gyXVtPSF0pW0NIMl1uKFtjSF1uMiljKGMyMyluW2NIXW5jM04oW0NASF00NSlbQ0BASF0oW0NIMl1bQ0gyXTQpW0NASF0oW0NIMl01KVtDSDJdW09IXQ==

> <s_epik_cmdline>
J2VwaWtfcHl0aG9uJywgJy1waCcsICc3LjAnLCAnLXRuJywgJzgnLCAnLW1hJywgJzIwMCcsICctbWV0YWxfYmluZGluZycsICctaW1hZScsICc8aW5maWxlLm1hZT4nLCAnLW9tYWUnLCAnPG91dGZpbGUubWFlPic=

> <r_lp_tautomer_probability>
1

> <r_epik_Ionization_Penalty>
0.0055791

> <r_epik_Ionization_Penalty_Charging>
0

> <r_epik_Ionization_Penalty_Neutral>
0.0055791

> <r_epik_State_Penalty>
0.00401299

> <r_epik_Charging_Adjusted_Penalty>
0.00401299

> <i_epik_Tot_Q>
0

> <i_epik_Tot_abs_Q>
0

> <r_epik_Metal_State_Penalty>
-0

> <b_epik_Metal_Only>
0

> <s_lp_Force_Field>
OPLS_2005

> <r_lp_Energy>
87.7083

> <b_lp_Chiralities_Consistent>
1

> <s_lp_Variant>
AV-unprocessed.smi:227-15

> <Gold.Version>
5.8.1

> <Gold.Id.Protein>
6NUR|6NUR_protein|mol2

> <Gold.PLP.Fitness>
44.9520

> <Gold.PLP.PLP>
-35.6506

> <Gold.PLP.part.hbond>
-4.8193

> <Gold.PLP.part.metal>
0.0000

> <Gold.PLP.part.buried>
-6.7740

> <Gold.PLP.part.nonpolar>
-24.0896

> <Gold.PLP.part.repulsive>
0.4017

> <Gold.PLP.ligand.clash>
0.0000

> <Gold.PLP.ligand.torsion>
1.1051

> <Gold.PLP.Chemscore.Hbond>
3.7360

> <Gold.PLP.Chemscore.CHOScore>
0.0000

> <Gold.PLP.Chemscore.Metal>
0.0000

> <Gold.Chemscore.Hbonds>
donor molecule, donor type, donor heavy atom, donor atom, acceptor molecule, acceptor atom, score
      L1  H     1    28       P1  7957  0.02
      L1  H    17    44       P1 10952  0.90
      P1  H  7989  7998       L1     1  0.50

> <Gold.PLP.Chemscore.Internal.Correction>
0.3036

> <Gold.Rescore>
     Score         DG    S(hbond)    S(metal)    S(lipo)     H(rot)  DE(clash)    DE(int)     intcor
     13.82     -16.35       3.22        0.00      80.01       3.61       0.51       2.03       ----

> <Gold.Chemscore.Fitness>
13.8153

> <Gold.Chemscore.DG>
-16.3475

> <Gold.Chemscore.ZeroCoef>
-5.4800

> <Gold.Chemscore.Hbond>
3.2158

> <Gold.Chemscore.Metal>
0.0000

> <Gold.Chemscore.Lipo>
80.0068

> <Gold.Chemscore.Internal_Hbond>
0.0000

> <Gold.Chemscore.DEClash>
0.5054

> <Gold.Chemscore.DEInternal>
2.0268

> <Gold.Chemscore.Rot>
3.6071

> <Gold.Chemscore.Internal.Correction>
   9.000000E+99

> <Gold.Chemscore.Hbonds>
donor molecule, donor type, donor heavy atom, donor atom, acceptor molecule, acceptor atom, score
      L1  H    17    44       P1 10952  0.88
      P1  H  7989  7998       L1     1  0.22
      P1  H  7997  8010       L1    26  0.03

> <Gold.Chemscore.Hbond.Weighted>
-10.7409

> <Gold.Chemscore.Metal.Weighted>
-0.0000

> <Gold.Chemscore.Lipo.Weighted>
-9.3608

> <Gold.Chemscore.Internal_Hbond.Weighted>
0.0000

> <Gold.Chemscore.DEClash.Weighted>
0.5054

> <Gold.Chemscore.DEInternal.Weighted>
2.0268

> <Gold.Chemscore.Rot.Weighted>
9.2342

> <Gold.Chemscore.Internal.Correction.Weighted>
   9.000000E+99

> <Gold.Protein.RotatedTorsions>
[ 6907 6896 6895 6894 ] final  -72.39 input  -60.11 | X-H torsion
[ 7974 7965 7964 7962 ] final -115.94 input  175.53 | X-H torsion
[ 8008 7997 7996 7995 ] final   70.62 input   59.86 | X-H torsion
[ 10167 10162 10161 10158 ] final -127.98 input  -65.29 | X-H torsion
[ 10718 10713 10712 10709 ] final  -58.92 input   66.30 | X-H torsion
[ 10763 10752 10751 10750 ] final  -87.46 input  -60.55 | X-H torsion
[ 11005 11000 10999 10996 ] final    4.31 input  -57.11 | X-H torsion

> <Gold.Protein.ActiveResidues>
 VAL166  LYS551  ARG553  GLY616  TRP617  ASP618  TYR619  PRO620  LYS621  CYS622 
 ASP623  PHE694  ASN695  SER759  ASP760  ASP761  ALA762  ILE779  LEU786  VAL792 
 PHE793  MET794  SER795  GLU796  ALA797  LYS798  CYS799  TRP800  GLU811  SER814 

> <Gold.Protein.RotatedAtoms>
  150.7172  134.5169  159.5634 H   0  0  0  0  0  0  0  0  0  0  0  0  # atno 6907 bound_to 6896
  152.2733  134.7906  160.0419 H   0  0  0  0  0  0  0  0  0  0  0  0  # atno 6908 bound_to 6896
  151.8578  133.3416  159.3731 H   0  0  0  0  0  0  0  0  0  0  0  0  # atno 6909 bound_to 6896
  145.1026  140.8561  143.3917 H   0  0  0  0  0  0  0  0  0  0  0  0  # atno 7974 bound_to 7965
  155.7416  140.3490  155.5107 H   0  0  0  0  0  0  0  0  0  0  0  0  # atno 8008 bound_to 7997
  155.9089  140.1047  157.1316 H   0  0  0  0  0  0  0  0  0  0  0  0  # atno 8009 bound_to 7997
  154.4053  140.1272  156.4518 H   0  0  0  0  0  0  0  0  0  0  0  0  # atno 8010 bound_to 7997
  139.9551  143.6012  152.2463 H   0  0  0  0  0  0  0  0  0  0  0  0  # atno 10167 bound_to 10162
  156.1099  130.4176  150.0644 H   0  0  0  0  0  0  0  0  0  0  0  0  # atno 10718 bound_to 10713
  154.6338  135.5412  153.7711 H   0  0  0  0  0  0  0  0  0  0  0  0  # atno 10763 bound_to 10752
  153.0298  135.6442  154.1261 H   0  0  0  0  0  0  0  0  0  0  0  0  # atno 10764 bound_to 10752
  154.1189  135.2921  155.3193 H   0  0  0  0  0  0  0  0  0  0  0  0  # atno 10765 bound_to 10752
  140.5834  133.9992  155.8057 H   0  0  0  0  0  0  0  0  0  0  0  0  # atno 11005 bound_to 11000
  145.0938  139.2871  143.5721 LP  0  0  0  0  0  0  0  0  0  0  0  0  # atno 17320 bound_to 7965
  146.3529  140.0484  142.8637 LP  0  0  0  0  0  0  0  0  0  0  0  0  # atno 17321 bound_to 7965
  139.6598  144.7662  151.1985 LP  0  0  0  0  0  0  0  0  0  0  0  0  # atno 17342 bound_to 10162
  140.7571  143.6028  150.8682 LP  0  0  0  0  0  0  0  0  0  0  0  0  # atno 17343 bound_to 10162
  156.8610  130.9491  151.3618 LP  0  0  0  0  0  0  0  0  0  0  0  0  # atno 17370 bound_to 10713
  157.6280  130.8706  149.9223 LP  0  0  0  0  0  0  0  0  0  0  0  0  # atno 17371 bound_to 10713
  141.0982  133.9810  157.3124 LP  0  0  0  0  0  0  0  0  0  0  0  0  # atno 17394 bound_to 11000
  139.9307  135.0200  156.8390 LP  0  0  0  0  0  0  0  0  0  0  0  0  # atno 17395 bound_to 11000

$$$$
