AV-unprocessed.smi:205|AV-procd|sdf|1600|dock4
  -GOLD-   2262019513D 1   1.00000     0.00000
 Structure written by MMmdl.
 54 56  0  0  0  0  0  0  0  0  1 V2000
  156.7227  138.8075  167.0180 O   0  0  0  0  0  0  0  0  0  0  0  0
  155.8445  139.2846  166.0208 C   0  0  0  0  0  0  0  0  0  0  0  0
  155.1852  138.1071  165.2930 C   0  0  0  0  0  0  0  0  0  0  0  0
  155.8050  137.9364  164.0292 O   0  0  0  0  0  0  0  0  0  0  0  0
  155.1227  137.0050  163.2066 C   0  0  0  0  0  0  0  0  0  0  0  0
  155.7586  137.0065  161.8046 C   0  0  0  0  0  0  0  0  0  0  0  0
  154.8460  136.5908  160.7383 N   0  0  0  0  0  0  0  0  0  0  0  0
  154.4135  135.1938  160.7175 C   0  0  0  0  0  0  0  0  0  0  0  0
  155.1914  134.3297  159.7078 C   0  0  0  0  0  0  0  0  0  0  0  0
  154.3977  133.2470  159.2708 O   0  0  0  0  0  0  0  0  0  0  0  0
  153.9412  137.4755  160.2497 C   0  0  0  0  0  0  0  0  0  0  0  0
  152.7496  136.9766  159.8333 N   0  0  0  0  0  0  0  0  0  0  0  0
  151.8186  137.7893  159.3268 C   0  0  0  0  0  0  0  0  0  0  0  0
  151.8722  139.1103  159.1491 N   0  0  0  0  0  0  0  0  0  0  0  0
  153.0635  139.6207  159.5747 C   0  0  0  0  0  0  0  0  0  0  0  0
  154.1402  138.8834  160.1454 C   0  0  0  0  0  0  0  0  0  0  0  0
  155.1713  139.7503  160.4894 N   0  0  0  0  0  0  0  0  0  0  0  0
  154.7363  140.9263  160.1295 C   0  0  0  0  0  0  0  0  0  0  0  0
  153.4938  140.9360  159.5380 N   0  0  0  0  0  0  0  0  0  0  0  0
  152.7746  142.0889  159.0808 C   0  0  0  0  0  0  0  0  0  0  0  0
  153.3680  143.4946  159.2135 C   0  0  0  0  0  0  0  0  0  0  0  0
  151.9723  144.0710  159.5367 C   0  0  0  0  0  0  0  0  0  0  0  0
  151.9258  145.0234  160.7414 C   0  0  0  0  0  0  0  0  0  0  0  0
  152.1655  144.3327  161.9509 O   0  0  0  0  0  0  0  0  0  0  0  0
  151.2090  144.7590  158.3833 C   0  0  0  0  0  0  0  0  0  0  0  0
  149.9063  145.1711  158.7445 O   0  0  0  0  0  0  0  0  0  0  0  0
  151.5623  142.6160  159.8559 C   0  0  0  0  0  0  0  0  0  0  0  0
  157.6109  138.9230  166.7170 H   0  0  0  0  0  0  0  0  0  0  0  0
  155.0991  139.9524  166.4539 H   0  0  0  0  0  0  0  0  0  0  0  0
  156.4340  139.8715  165.3160 H   0  0  0  0  0  0  0  0  0  0  0  0
  155.3312  137.1960  165.8751 H   0  0  0  0  0  0  0  0  0  0  0  0
  154.1087  138.2609  165.1959 H   0  0  0  0  0  0  0  0  0  0  0  0
  155.2113  136.0078  163.6400 H   0  0  0  0  0  0  0  0  0  0  0  0
  154.0585  137.2380  163.1663 H   0  0  0  0  0  0  0  0  0  0  0  0
  156.1160  138.0122  161.5811 H   0  0  0  0  0  0  0  0  0  0  0  0
  156.6410  136.3672  161.7944 H   0  0  0  0  0  0  0  0  0  0  0  0
  154.5446  134.7710  161.7142 H   0  0  0  0  0  0  0  0  0  0  0  0
  153.3418  135.1426  160.5217 H   0  0  0  0  0  0  0  0  0  0  0  0
  155.5520  134.9086  158.8572 H   0  0  0  0  0  0  0  0  0  0  0  0
  156.0689  133.9064  160.1967 H   0  0  0  0  0  0  0  0  0  0  0  0
  154.4385  133.2053  158.3276 H   0  0  0  0  0  0  0  0  0  0  0  0
  150.9018  137.3118  159.0137 H   0  0  0  0  0  0  0  0  0  0  0  0
  155.3193  141.8235  160.2791 H   0  0  0  0  0  0  0  0  0  0  0  0
  152.5092  141.8811  158.0434 H   0  0  0  0  0  0  0  0  0  0  0  0
  154.0613  143.5728  160.0527 H   0  0  0  0  0  0  0  0  0  0  0  0
  153.8210  143.8782  158.2986 H   0  0  0  0  0  0  0  0  0  0  0  0
  152.6566  145.8266  160.6403 H   0  0  0  0  0  0  0  0  0  0  0  0
  150.9498  145.5032  160.8228 H   0  0  0  0  0  0  0  0  0  0  0  0
  152.8118  144.8129  162.4461 H   0  0  0  0  0  0  0  0  0  0  0  0
  151.7488  145.6402  158.0349 H   0  0  0  0  0  0  0  0  0  0  0  0
  151.1137  144.0927  157.5256 H   0  0  0  0  0  0  0  0  0  0  0  0
  149.4339  145.3961  157.9575 H   0  0  0  0  0  0  0  0  0  0  0  0
  150.5999  142.3092  159.4452 H   0  0  0  0  0  0  0  0  0  0  0  0
  151.6198  142.3829  160.9205 H   0  0  0  0  0  0  0  0  0  0  0  0
  1  2  1  0  0  0  0
  1 28  1  0  0  0  0
  2  3  1  0  0  0  0
  2 29  1  0  0  0  0
  2 30  1  0  0  0  0
  3  4  1  0  0  0  0
  3 31  1  0  0  0  0
  3 32  1  0  0  0  0
  4  5  1  0  0  0  0
  5  6  1  0  0  0  0
  5 33  1  0  0  0  0
  5 34  1  0  0  0  0
  6  7  1  0  0  0  0
  6 35  1  0  0  0  0
  6 36  1  0  0  0  0
  7  8  1  0  0  0  0
  7 11  1  0  0  0  0
  8  9  1  0  0  0  0
  8 37  1  0  0  0  0
  8 38  1  0  0  0  0
  9 10  1  0  0  0  0
  9 39  1  0  0  0  0
  9 40  1  0  0  0  0
 10 41  1  0  0  0  0
 11 16  1  0  0  0  0
 11 12  2  0  0  0  0
 12 13  1  0  0  0  0
 13 14  2  0  0  0  0
 13 42  1  0  0  0  0
 14 15  1  0  0  0  0
 15 19  1  0  0  0  0
 15 16  2  0  0  0  0
 16 17  1  0  0  0  0
 17 18  2  0  0  0  0
 18 19  1  0  0  0  0
 18 43  1  0  0  0  0
 19 20  1  0  0  0  0
 20 27  1  0  0  0  0
 20 21  1  0  0  0  0
 20 44  1  0  0  0  0
 21 22  1  0  0  0  0
 21 45  1  0  0  0  0
 21 46  1  0  0  0  0
 22 23  1  0  0  0  0
 22 25  1  0  0  0  0
 22 27  1  0  0  0  0
 23 24  1  0  0  0  0
 23 47  1  0  0  0  0
 23 48  1  0  0  0  0
 24 49  1  0  0  0  0
 25 26  1  0  0  0  0
 25 50  1  0  0  0  0
 25 51  1  0  0  0  0
 26 52  1  0  0  0  0
 27 53  1  0  0  0  0
 27 54  1  0  0  0  0
M  END
> <s_m_source_file>
AV-unprocessed.smi

> <i_m_source_file_index>
205

> <i_lp_mmshare_version>
43012

> <i_f3d_flags>
0

> <s_epik_input>
W09IXVtDSDJdW0NIMl1PW0NIMl1bQ0gyXU4oW0NIMl1bQ0gyXVtPSF0pYyhuW2NIXW4xKWMoYzEyKW5bY0hdbjJbQ0hdKFtDSDJdMylbQ0gyXUMzKFtDSDJdW09IXSlbQ0gyXVtPSF0=

> <s_epik_cmdline>
J2VwaWtfcHl0aG9uJywgJy1waCcsICc3LjAnLCAnLXRuJywgJzgnLCAnLW1hJywgJzIwMCcsICctbWV0YWxfYmluZGluZycsICctaW1hZScsICc8aW5maWxlLm1hZT4nLCAnLW9tYWUnLCAnPG91dGZpbGUubWFlPic=

> <r_lp_tautomer_probability>
1

> <r_epik_Ionization_Penalty>
0.00545557

> <r_epik_Ionization_Penalty_Charging>
0

> <r_epik_Ionization_Penalty_Neutral>
0.00545557

> <r_epik_State_Penalty>
0.00384469

> <r_epik_Charging_Adjusted_Penalty>
0.00384469

> <i_epik_Tot_Q>
0

> <i_epik_Tot_abs_Q>
0

> <r_epik_Metal_State_Penalty>
-0

> <b_epik_Metal_Only>
0

> <s_lp_Force_Field>
OPLS_2005

> <r_lp_Energy>
40.5801

> <b_lp_Chiralities_Consistent>
1

> <s_lp_Variant>
AV-unprocessed.smi:205-1

> <Gold.Version>
5.8.1

> <Gold.Id.Protein>
6NUR|6NUR_protein|mol2

> <Gold.PLP.Fitness>
51.7741

> <Gold.PLP.PLP>
-45.1594

> <Gold.PLP.part.hbond>
-5.2380

> <Gold.PLP.part.metal>
0.0000

> <Gold.PLP.part.buried>
-4.7855

> <Gold.PLP.part.nonpolar>
-36.1581

> <Gold.PLP.part.repulsive>
0.0232

> <Gold.PLP.ligand.clash>
0.0000

> <Gold.PLP.ligand.torsion>
1.7404

> <Gold.PLP.Chemscore.Hbond>
2.8700

> <Gold.PLP.Chemscore.CHOScore>
0.0000

> <Gold.PLP.Chemscore.Metal>
0.0000

> <Gold.Chemscore.Hbonds>
donor molecule, donor type, donor heavy atom, donor atom, acceptor molecule, acceptor atom, score
      L1  H    26    52       P1  8029  0.94
      P1  H  6896  6907       L1    12  0.89
      P1  H  6896  6908       L1    10  0.93

> <Gold.PLP.Chemscore.Internal.Correction>
1.4855

> <Gold.Rescore>
     Score         DG    S(hbond)    S(metal)    S(lipo)     H(rot)  DE(clash)    DE(int)     intcor
      4.18      -7.41       2.22        0.00     101.07       6.76       0.96       2.28       ----

> <Gold.Chemscore.Fitness>
4.1753

> <Gold.Chemscore.DG>
-7.4136

> <Gold.Chemscore.ZeroCoef>
-5.4800

> <Gold.Chemscore.Hbond>
2.2196

> <Gold.Chemscore.Metal>
0.0000

> <Gold.Chemscore.Lipo>
101.0746

> <Gold.Chemscore.Internal_Hbond>
0.0000

> <Gold.Chemscore.DEClash>
0.9569

> <Gold.Chemscore.DEInternal>
2.2814

> <Gold.Chemscore.Rot>
6.7600

> <Gold.Chemscore.Internal.Correction>
   9.000000E+99

> <Gold.Chemscore.Hbonds>
donor molecule, donor type, donor heavy atom, donor atom, acceptor molecule, acceptor atom, score
      L1  H    26    52       P1  8029  0.23
      P1  H  6896  6907       L1    12  0.44
      P1  H  6896  6908       L1    10  0.22

> <Gold.Chemscore.Hbond.Weighted>
-7.4133

> <Gold.Chemscore.Metal.Weighted>
-0.0000

> <Gold.Chemscore.Lipo.Weighted>
-11.8257

> <Gold.Chemscore.Internal_Hbond.Weighted>
0.0000

> <Gold.Chemscore.DEClash.Weighted>
0.9569

> <Gold.Chemscore.DEInternal.Weighted>
2.2814

> <Gold.Chemscore.Rot.Weighted>
17.3055

> <Gold.Chemscore.Internal.Correction.Weighted>
   9.000000E+99

> <Gold.Protein.RotatedTorsions>
[ 6907 6896 6895 6894 ] final   13.33 input  -60.11 | X-H torsion
[ 7974 7965 7964 7962 ] final   -9.84 input  175.53 | X-H torsion
[ 8008 7997 7996 7995 ] final   49.65 input   59.86 | X-H torsion
[ 10167 10162 10161 10158 ] final   37.20 input  -65.29 | X-H torsion
[ 10718 10713 10712 10709 ] final -110.89 input   66.30 | X-H torsion
[ 10763 10752 10751 10750 ] final  106.87 input  -60.55 | X-H torsion
[ 11005 11000 10999 10996 ] final -175.43 input  -57.11 | X-H torsion

> <Gold.Protein.ActiveResidues>
 VAL166  LYS551  ARG553  GLY616  TRP617  ASP618  TYR619  PRO620  LYS621  CYS622 
 ASP623  PHE694  ASN695  SER759  ASP760  ASP761  ALA762  ILE779  LEU786  VAL792 
 PHE793  MET794  SER795  GLU796  ALA797  LYS798  CYS799  TRP800  GLU811  SER814 

> <Gold.Protein.RotatedAtoms>
  151.7845  135.0752  160.0378 H   0  0  0  0  0  0  0  0  0  0  0  0  # atno 6907 bound_to 6896
  152.3199  133.5838  159.5746 H   0  0  0  0  0  0  0  0  0  0  0  0  # atno 6908 bound_to 6896
  150.7364  133.9942  159.3659 H   0  0  0  0  0  0  0  0  0  0  0  0  # atno 6909 bound_to 6896
  146.2239  140.2676  142.8355 H   0  0  0  0  0  0  0  0  0  0  0  0  # atno 7974 bound_to 7965
  155.4057  140.3440  155.4260 H   0  0  0  0  0  0  0  0  0  0  0  0  # atno 8008 bound_to 7997
  156.1478  140.1561  156.8851 H   0  0  0  0  0  0  0  0  0  0  0  0  # atno 8009 bound_to 7997
  154.5025  140.0811  156.7809 H   0  0  0  0  0  0  0  0  0  0  0  0  # atno 8010 bound_to 7997
  140.4055  144.1664  150.6136 H   0  0  0  0  0  0  0  0  0  0  0  0  # atno 10167 bound_to 10162
  156.0616  130.5839  150.8298 H   0  0  0  0  0  0  0  0  0  0  0  0  # atno 10718 bound_to 10713
  153.3989  135.3863  155.1974 H   0  0  0  0  0  0  0  0  0  0  0  0  # atno 10763 bound_to 10752
  154.8727  135.3766  154.4644 H   0  0  0  0  0  0  0  0  0  0  0  0  # atno 10764 bound_to 10752
  153.5139  135.7087  153.5828 H   0  0  0  0  0  0  0  0  0  0  0  0  # atno 10765 bound_to 10752
  140.4634  134.6233  157.4852 H   0  0  0  0  0  0  0  0  0  0  0  0  # atno 11005 bound_to 11000
  144.9292  140.7956  143.5700 LP  0  0  0  0  0  0  0  0  0  0  0  0  # atno 17320 bound_to 7965
  145.2619  139.1989  143.4887 LP  0  0  0  0  0  0  0  0  0  0  0  0  # atno 17321 bound_to 7965
  140.4694  143.2419  151.9110 LP  0  0  0  0  0  0  0  0  0  0  0  0  # atno 17342 bound_to 10162
  139.4783  144.5386  151.8562 LP  0  0  0  0  0  0  0  0  0  0  0  0  # atno 17343 bound_to 10162
  157.5628  131.0946  150.9533 LP  0  0  0  0  0  0  0  0  0  0  0  0  # atno 17370 bound_to 10713
  156.9767  130.5511  149.5294 LP  0  0  0  0  0  0  0  0  0  0  0  0  # atno 17371 bound_to 10713
  139.9931  134.6954  155.9656 LP  0  0  0  0  0  0  0  0  0  0  0  0  # atno 17394 bound_to 11000
  141.1610  133.6539  156.4320 LP  0  0  0  0  0  0  0  0  0  0  0  0  # atno 17395 bound_to 11000

$$$$
