AV-unprocessed.smi:946|AV-procd|sdf|4234|dock7
  -GOLD-   22720 2143D 1   1.00000     0.00000
 Structure written by MMmdl.
 42 43  0  0  0  0  0  0  0  0  1 V2000
  152.9131  139.5109  158.0286 C   0  0  0  0  0  0  0  0  0  0  0  0
  151.3850  139.5150  157.8721 C   0  0  2  0  0  0  0  0  0  0  0  0
  150.8746  140.5745  158.6762 O   0  0  0  0  0  0  0  0  0  0  0  0
  151.1852  141.8879  158.2252 C   0  0  0  0  0  0  0  0  0  0  0  0
  152.0186  142.5928  159.3029 C   0  0  2  0  0  0  0  0  0  0  0  0
  152.7760  141.5891  160.1946 C   0  0  0  0  0  0  0  0  0  0  0  0
  153.5238  142.3207  161.3154 C   0  0  0  0  0  0  0  0  0  0  0  0
  152.5535  143.2296  162.0773 C   0  0  0  0  0  0  0  0  0  0  0  0
  151.7990  144.1429  161.0985 C   0  0  0  0  0  0  0  0  0  0  0  0
  151.1306  143.3534  160.1197 O   0  0  0  0  0  0  0  0  0  0  0  0
  150.7715  138.1734  158.3047 C   0  0  0  0  0  0  0  0  0  0  0  0
  151.3005  137.1186  157.9523 O   0  0  0  0  0  0  0  0  0  0  0  0
  149.6728  138.2559  159.0787 N   0  0  0  0  0  0  0  0  0  0  0  0
  148.8924  137.1968  159.6124 C   0  0  0  0  0  0  0  0  0  0  0  0
  148.8384  136.0311  158.8169 C   0  0  0  0  0  0  0  0  0  0  0  0
  148.0914  134.9242  159.2621 C   0  0  0  0  0  0  0  0  0  0  0  0
  147.4181  135.0090  160.4935 C   0  0  0  0  0  0  0  0  0  0  0  0
  147.5227  136.2071  161.2318 C   0  0  0  0  0  0  0  0  0  0  0  0
  146.8292  136.3808  162.5756 C   0  0  0  0  0  0  0  0  0  0  0  0
  146.2302  135.2567  162.9712 F   0  0  0  0  0  0  0  0  0  0  0  0
  147.7236  136.7296  163.5007 F   0  0  0  0  0  0  0  0  0  0  0  0
  145.9076  137.3399  162.4854 F   0  0  0  0  0  0  0  0  0  0  0  0
  148.2409  137.2679  160.7990 N   0  0  0  0  0  0  0  0  0  0  0  0
  153.3687  138.7031  157.4546 H   0  0  0  0  0  0  0  0  0  0  0  0
  153.2100  139.3913  159.0712 H   0  0  0  0  0  0  0  0  0  0  0  0
  153.3392  140.4488  157.6719 H   0  0  0  0  0  0  0  0  0  0  0  0
  151.1525  139.7088  156.8230 H   0  0  0  0  0  0  0  0  0  0  0  0
  151.7340  141.8545  157.2826 H   0  0  0  0  0  0  0  0  0  0  0  0
  150.2671  142.4498  158.0507 H   0  0  0  0  0  0  0  0  0  0  0  0
  152.7349  143.2585  158.8180 H   0  0  0  0  0  0  0  0  0  0  0  0
  152.0721  140.8783  160.6297 H   0  0  0  0  0  0  0  0  0  0  0  0
  153.4791  141.0070  159.5979 H   0  0  0  0  0  0  0  0  0  0  0  0
  153.9902  141.6061  161.9941 H   0  0  0  0  0  0  0  0  0  0  0  0
  154.3286  142.9197  160.8877 H   0  0  0  0  0  0  0  0  0  0  0  0
  151.8382  142.6208  162.6315 H   0  0  0  0  0  0  0  0  0  0  0  0
  153.0934  143.8266  162.8125 H   0  0  0  0  0  0  0  0  0  0  0  0
  151.0606  144.7385  161.6353 H   0  0  0  0  0  0  0  0  0  0  0  0
  152.4806  144.8433  160.6134 H   0  0  0  0  0  0  0  0  0  0  0  0
  149.3621  139.1871  159.3136 H   0  0  0  0  0  0  0  0  0  0  0  0
  149.3617  135.9813  157.8730 H   0  0  0  0  0  0  0  0  0  0  0  0
  148.0363  134.0244  158.6675 H   0  0  0  0  0  0  0  0  0  0  0  0
  146.8394  134.1719  160.8553 H   0  0  0  0  0  0  0  0  0  0  0  0
  1  2  1  0  0  0  0
  1 24  1  0  0  0  0
  1 25  1  0  0  0  0
  1 26  1  0  0  0  0
  2  3  1  0  0  0  0
  2 11  1  0  0  0  0
  2 27  1  0  0  0  0
  3  4  1  0  0  0  0
  4  5  1  0  0  0  0
  4 28  1  0  0  0  0
  4 29  1  0  0  0  0
  5 10  1  0  0  0  0
  5  6  1  0  0  0  0
  5 30  1  0  0  0  0
  6  7  1  0  0  0  0
  6 31  1  0  0  0  0
  6 32  1  0  0  0  0
  7  8  1  0  0  0  0
  7 33  1  0  0  0  0
  7 34  1  0  0  0  0
  8  9  1  0  0  0  0
  8 35  1  0  0  0  0
  8 36  1  0  0  0  0
  9 10  1  0  0  0  0
  9 37  1  0  0  0  0
  9 38  1  0  0  0  0
 11 12  2  0  0  0  0
 11 13  1  0  0  0  0
 13 14  1  0  0  0  0
 13 39  1  0  0  0  0
 14 23  1  0  0  0  0
 14 15  2  0  0  0  0
 15 16  1  0  0  0  0
 15 40  1  0  0  0  0
 16 17  2  0  0  0  0
 16 41  1  0  0  0  0
 17 18  1  0  0  0  0
 17 42  1  0  0  0  0
 18 19  1  0  0  0  0
 18 23  2  0  0  0  0
 19 20  1  0  0  0  0
 19 21  1  0  0  0  0
 19 22  1  0  0  0  0
M  END
> <s_m_source_file>
AV-unprocessed.smi

> <i_m_source_file_index>
946

> <i_lp_mmshare_version>
43012

> <i_f3d_flags>
0

> <s_epik_input>
TzFbQ0gyXVtDSDJdW0NIMl1bQ0gyXVtDQEhdMVtDSDJdT1tDQEBIXShbQ0gzXSlDKD1PKVtOSF1jMltjSF1bY0hdW2NIXWMobjIpQyhGKShGKUY=

> <s_epik_cmdline>
J2VwaWtfcHl0aG9uJywgJy1waCcsICc3LjAnLCAnLXRuJywgJzgnLCAnLW1hJywgJzIwMCcsICctbWV0YWxfYmluZGluZycsICctaW1hZScsICc8aW5maWxlLm1hZT4nLCAnLW9tYWUnLCAnPG91dGZpbGUubWFlPic=

> <r_lp_tautomer_probability>
1

> <r_epik_Ionization_Penalty>
1.32683e-06

> <r_epik_Ionization_Penalty_Charging>
0

> <r_epik_Ionization_Penalty_Neutral>
1.32683e-06

> <r_epik_State_Penalty>
-0

> <r_epik_Charging_Adjusted_Penalty>
0

> <i_epik_Tot_Q>
0

> <i_epik_Tot_abs_Q>
0

> <r_epik_Metal_State_Penalty>
-0

> <b_epik_Metal_Only>
0

> <s_lp_Force_Field>
OPLS_2005

> <r_lp_Energy>
15.1486

> <b_lp_Chiralities_Consistent>
1

> <s_lp_Variant>
AV-unprocessed.smi:946-1

> <Gold.Version>
5.8.1

> <Gold.Id.Protein>
6NUR|6NUR_protein|mol2

> <Gold.PLP.Fitness>
47.2117

> <Gold.PLP.PLP>
-46.4223

> <Gold.PLP.part.hbond>
-2.8232

> <Gold.PLP.part.metal>
0.0000

> <Gold.PLP.part.buried>
-4.1574

> <Gold.PLP.part.nonpolar>
-39.4591

> <Gold.PLP.part.repulsive>
0.2845

> <Gold.PLP.ligand.clash>
0.0000

> <Gold.PLP.ligand.torsion>
1.5729

> <Gold.PLP.Chemscore.Hbond>
1.3031

> <Gold.PLP.Chemscore.CHOScore>
0.0000

> <Gold.PLP.Chemscore.Metal>
0.0000

> <Gold.Chemscore.Hbonds>
donor molecule, donor type, donor heavy atom, donor atom, acceptor molecule, acceptor atom, score
      P1  H  6931  6943       L1    23  0.83
      P1  H  6934  6947       L1    23  0.61

> <Gold.PLP.Chemscore.Internal.Correction>
0.0259

> <Gold.Rescore>
     Score         DG    S(hbond)    S(metal)    S(lipo)     H(rot)  DE(clash)    DE(int)     intcor
     13.00     -15.90       1.10        0.00      96.07       1.76       0.01       2.89       ----

> <Gold.Chemscore.Fitness>
13.0042

> <Gold.Chemscore.DG>
-15.9013

> <Gold.Chemscore.ZeroCoef>
-5.4800

> <Gold.Chemscore.Hbond>
1.1006

> <Gold.Chemscore.Metal>
0.0000

> <Gold.Chemscore.Lipo>
96.0668

> <Gold.Chemscore.Internal_Hbond>
0.0000

> <Gold.Chemscore.DEClash>
0.0084

> <Gold.Chemscore.DEInternal>
2.8887

> <Gold.Chemscore.Rot>
1.7557

> <Gold.Chemscore.Internal.Correction>
   9.000000E+99

> <Gold.Chemscore.Hbonds>
donor molecule, donor type, donor heavy atom, donor atom, acceptor molecule, acceptor atom, score
      P1  H  6931  6943       L1    23  0.67
      P1  H  6934  6947       L1    23  0.36

> <Gold.Chemscore.Hbond.Weighted>
-3.6761

> <Gold.Chemscore.Metal.Weighted>
-0.0000

> <Gold.Chemscore.Lipo.Weighted>
-11.2398

> <Gold.Chemscore.Internal_Hbond.Weighted>
0.0000

> <Gold.Chemscore.DEClash.Weighted>
0.0084

> <Gold.Chemscore.DEInternal.Weighted>
2.8887

> <Gold.Chemscore.Rot.Weighted>
4.4946

> <Gold.Chemscore.Internal.Correction.Weighted>
   9.000000E+99

> <Gold.Protein.RotatedTorsions>
[ 6907 6896 6895 6894 ] final  159.33 input  -60.11 | X-H torsion
[ 7974 7965 7964 7962 ] final  127.44 input  175.53 | X-H torsion
[ 8008 7997 7996 7995 ] final   30.74 input   59.86 | X-H torsion
[ 10167 10162 10161 10158 ] final    7.31 input  -65.29 | X-H torsion
[ 10718 10713 10712 10709 ] final -128.10 input   66.30 | X-H torsion
[ 10763 10752 10751 10750 ] final   73.83 input  -60.55 | X-H torsion
[ 11005 11000 10999 10996 ] final  -94.49 input  -57.11 | X-H torsion

> <Gold.Protein.ActiveResidues>
 VAL166  LYS551  ARG553  GLY616  TRP617  ASP618  TYR619  PRO620  LYS621  CYS622 
 ASP623  PHE694  ASN695  SER759  ASP760  ASP761  ALA762  ILE779  LEU786  VAL792 
 PHE793  MET794  SER795  GLU796  ALA797  LYS798  CYS799  TRP800  GLU811  SER814 

> <Gold.Protein.RotatedAtoms>
  151.9872  133.3778  159.4129 H   0  0  0  0  0  0  0  0  0  0  0  0  # atno 6907 bound_to 6896
  150.6926  134.3976  159.5113 H   0  0  0  0  0  0  0  0  0  0  0  0  # atno 6908 bound_to 6896
  152.1704  134.8839  160.0585 H   0  0  0  0  0  0  0  0  0  0  0  0  # atno 6909 bound_to 6896
  145.0506  139.3886  143.5056 H   0  0  0  0  0  0  0  0  0  0  0  0  # atno 7974 bound_to 7965
  155.0953  140.3224  155.4562 H   0  0  0  0  0  0  0  0  0  0  0  0  # atno 8008 bound_to 7997
  156.2732  140.2070  156.6026 H   0  0  0  0  0  0  0  0  0  0  0  0  # atno 8009 bound_to 7997
  154.6871  140.0520  157.0313 H   0  0  0  0  0  0  0  0  0  0  0  0  # atno 8010 bound_to 7997
  140.6379  143.7843  150.7386 H   0  0  0  0  0  0  0  0  0  0  0  0  # atno 10167 bound_to 10162
  156.1919  130.6801  151.0435 H   0  0  0  0  0  0  0  0  0  0  0  0  # atno 10718 bound_to 10713
  153.0547  135.5048  154.7952 H   0  0  0  0  0  0  0  0  0  0  0  0  # atno 10763 bound_to 10752
  154.6787  135.2965  154.9645 H   0  0  0  0  0  0  0  0  0  0  0  0  # atno 10764 bound_to 10752
  154.0438  135.6713  153.4845 H   0  0  0  0  0  0  0  0  0  0  0  0  # atno 10765 bound_to 10752
  141.1469  133.7960  157.0305 H   0  0  0  0  0  0  0  0  0  0  0  0  # atno 11005 bound_to 11000
  146.3517  140.0154  142.8663 LP  0  0  0  0  0  0  0  0  0  0  0  0  # atno 17320 bound_to 7965
  145.1532  140.9634  143.4420 LP  0  0  0  0  0  0  0  0  0  0  0  0  # atno 17321 bound_to 7965
  140.1468  143.4392  152.2157 LP  0  0  0  0  0  0  0  0  0  0  0  0  # atno 17342 bound_to 10162
  139.5589  144.7392  151.4213 LP  0  0  0  0  0  0  0  0  0  0  0  0  # atno 17343 bound_to 10162
  157.6934  131.0802  150.7040 LP  0  0  0  0  0  0  0  0  0  0  0  0  # atno 17370 bound_to 10713
  156.7097  130.4648  149.5550 LP  0  0  0  0  0  0  0  0  0  0  0  0  # atno 17371 bound_to 10713
  140.0757  134.9677  157.1541 LP  0  0  0  0  0  0  0  0  0  0  0  0  # atno 17394 bound_to 11000
  140.3648  134.2455  155.7183 LP  0  0  0  0  0  0  0  0  0  0  0  0  # atno 17395 bound_to 11000

$$$$
