AV-unprocessed.smi:2101|AV-procd|sdf|8579|dock1
  -GOLD-   2272011313D 1   1.00000     0.00000
 Structure written by MMmdl.
 41 42  0  0  0  0  0  0  0  0  1 V2000
  150.8039  140.9928  157.2662 C   0  0  0  0  0  0  0  0  0  0  0  0
  151.7534  139.6763  156.4019 S   0  0  0  0  0  0  0  0  0  0  0  0
  152.1641  140.1925  155.0871 O   0  0  0  0  0  0  0  0  0  0  0  0
  152.7683  139.1545  157.3301 O   0  0  0  0  0  0  0  0  0  0  0  0
  150.5763  138.4235  156.1388 N   0  0  0  0  0  0  0  0  0  0  0  0
  150.2729  137.9934  154.7545 C   0  0  0  0  0  0  0  0  0  0  0  0
  150.9145  136.6304  154.4306 C   0  0  0  0  0  0  0  0  0  0  0  0
  150.4945  135.6563  155.4465 N   0  0  0  0  0  0  0  0  0  0  0  0
  149.5846  134.6623  155.2929 C   0  0  0  0  0  0  0  0  0  0  0  0
  149.3402  133.8322  156.1693 O   0  0  0  0  0  0  0  0  0  0  0  0
  148.9763  134.6362  154.0948 N   0  0  0  0  0  0  0  0  0  0  0  0
  147.9632  133.6699  153.6857 C   0  0  0  0  0  0  0  0  0  0  0  0
  146.6437  134.3603  153.3009 C   0  0  0  0  0  0  0  0  0  0  0  0
  145.9222  133.6374  152.1793 C   0  0  0  0  0  0  0  0  0  0  0  0
  146.4704  132.4716  151.6030 C   0  0  0  0  0  0  0  0  0  0  0  0
  145.7580  131.8363  150.5672 C   0  0  0  0  0  0  0  0  0  0  0  0
  144.5310  132.3875  150.1507 C   0  0  0  0  0  0  0  0  0  0  0  0
  144.0685  133.5541  150.7917 C   0  0  0  0  0  0  0  0  0  0  0  0
  144.7438  134.1709  151.7855 N   0  0  0  0  0  0  0  0  0  0  0  0
  151.0218  136.0429  156.7568 C   0  0  0  0  0  0  0  0  0  0  0  0
  150.3842  137.3824  157.1745 C   0  0  0  0  0  0  0  0  0  0  0  0
  151.4671  141.8317  157.4752 H   0  0  0  0  0  0  0  0  0  0  0  0
  150.4098  140.6085  158.2057 H   0  0  0  0  0  0  0  0  0  0  0  0
  149.9873  141.3353  156.6325 H   0  0  0  0  0  0  0  0  0  0  0  0
  149.1901  137.9219  154.6458 H   0  0  0  0  0  0  0  0  0  0  0  0
  150.6048  138.7461  154.0401 H   0  0  0  0  0  0  0  0  0  0  0  0
  150.6615  136.3399  153.4111 H   0  0  0  0  0  0  0  0  0  0  0  0
  152.0015  136.7105  154.4399 H   0  0  0  0  0  0  0  0  0  0  0  0
  149.2323  135.3413  153.4192 H   0  0  0  0  0  0  0  0  0  0  0  0
  148.3525  133.1146  152.8320 H   0  0  0  0  0  0  0  0  0  0  0  0
  147.7993  132.9414  154.4816 H   0  0  0  0  0  0  0  0  0  0  0  0
  145.9788  134.4158  154.1642 H   0  0  0  0  0  0  0  0  0  0  0  0
  146.8366  135.3902  152.9976 H   0  0  0  0  0  0  0  0  0  0  0  0
  147.4138  132.0717  151.9449 H   0  0  0  0  0  0  0  0  0  0  0  0
  146.1457  130.9426  150.1010 H   0  0  0  0  0  0  0  0  0  0  0  0
  143.9579  131.9279  149.3591 H   0  0  0  0  0  0  0  0  0  0  0  0
  143.1313  134.0037  150.4987 H   0  0  0  0  0  0  0  0  0  0  0  0
  150.8335  135.2899  157.5232 H   0  0  0  0  0  0  0  0  0  0  0  0
  152.1065  136.1332  156.7002 H   0  0  0  0  0  0  0  0  0  0  0  0
  150.7914  137.7138  158.1293 H   0  0  0  0  0  0  0  0  0  0  0  0
  149.3133  137.2443  157.3282 H   0  0  0  0  0  0  0  0  0  0  0  0
  1  2  1  0  0  0  0
  1 22  1  0  0  0  0
  1 23  1  0  0  0  0
  1 24  1  0  0  0  0
  2  3  2  0  0  0  0
  2  4  2  0  0  0  0
  2  5  1  0  0  0  0
  5 21  1  0  0  0  0
  5  6  1  0  0  0  0
  6  7  1  0  0  0  0
  6 25  1  0  0  0  0
  6 26  1  0  0  0  0
  7  8  1  0  0  0  0
  7 27  1  0  0  0  0
  7 28  1  0  0  0  0
  8  9  1  0  0  0  0
  8 20  1  0  0  0  0
  9 10  2  0  0  0  0
  9 11  1  0  0  0  0
 11 12  1  0  0  0  0
 11 29  1  0  0  0  0
 12 13  1  0  0  0  0
 12 30  1  0  0  0  0
 12 31  1  0  0  0  0
 13 14  1  0  0  0  0
 13 32  1  0  0  0  0
 13 33  1  0  0  0  0
 14 19  1  0  0  0  0
 14 15  2  0  0  0  0
 15 16  1  0  0  0  0
 15 34  1  0  0  0  0
 16 17  2  0  0  0  0
 16 35  1  0  0  0  0
 17 18  1  0  0  0  0
 17 36  1  0  0  0  0
 18 19  2  0  0  0  0
 18 37  1  0  0  0  0
 20 21  1  0  0  0  0
 20 38  1  0  0  0  0
 20 39  1  0  0  0  0
 21 40  1  0  0  0  0
 21 41  1  0  0  0  0
M  END
> <s_m_source_file>
AV-unprocessed.smi

> <i_m_source_file_index>
2101

> <i_lp_mmshare_version>
43012

> <i_f3d_flags>
0

> <s_epik_input>
W0NIM11TKD1PKSg9TylOMVtDSDJdW0NIMl1OKFtDSDJdW0NIMl0xKUMoPU8pW05IXVtDSDJdW0NIMl1jMltjSF1bY0hdW2NIXVtjSF1uMg==

> <s_epik_cmdline>
J2VwaWtfcHl0aG9uJywgJy1waCcsICc3LjAnLCAnLXRuJywgJzgnLCAnLW1hJywgJzIwMCcsICctbWV0YWxfYmluZGluZycsICctaW1hZScsICc8aW5maWxlLm1hZT4nLCAnLW9tYWUnLCAnPG91dGZpbGUubWFlPic=

> <r_epik_Ionization_Penalty>
0.0441261

> <r_epik_Ionization_Penalty_Charging>
0

> <r_epik_Ionization_Penalty_Neutral>
0.0441261

> <r_epik_State_Penalty>
0.0373394

> <r_epik_Charging_Adjusted_Penalty>
0.0373394

> <i_epik_Tot_Q>
0

> <i_epik_Tot_abs_Q>
0

> <r_epik_Metal_State_Penalty>
0.0347395

> <b_epik_Metal_Only>
0

> <s_lp_Force_Field>
OPLS_2005

> <r_lp_Energy>
23.5332

> <b_lp_Chiralities_Consistent>
1

> <s_lp_Variant>
AV-unprocessed.smi:2101-1

> <Gold.Version>
5.8.1

> <Gold.Id.Protein>
6NUR|6NUR_protein|mol2

> <Gold.PLP.Fitness>
40.5285

> <Gold.PLP.PLP>
-29.8246

> <Gold.PLP.part.hbond>
-3.0000

> <Gold.PLP.part.metal>
0.0000

> <Gold.PLP.part.buried>
-0.9467

> <Gold.PLP.part.nonpolar>
-25.3343

> <Gold.PLP.part.repulsive>
0.1414

> <Gold.PLP.ligand.clash>
0.0000

> <Gold.PLP.ligand.torsion>
1.3217

> <Gold.PLP.Chemscore.Hbond>
2.7200

> <Gold.PLP.Chemscore.CHOScore>
1.0000

> <Gold.PLP.Chemscore.Metal>
0.0000

> <Gold.Chemscore.Hbonds>
donor molecule, donor type, donor heavy atom, donor atom, acceptor molecule, acceptor atom, score
      L1  H    11    29       P1  7948  1.00
      P1  H  7989  7998       L1     3  0.69
      P1  H  7997  8010       L1     4  0.95
      L1  C    18    37       P1 10186  1.00

> <Gold.PLP.Chemscore.Internal.Correction>
2.1872

> <Gold.Rescore>
     Score         DG    S(hbond)    S(metal)    S(lipo)     H(rot)  DE(clash)    DE(int)     intcor
     16.15     -17.58       2.39        0.00      65.84       1.40       0.05       1.38       ----

> <Gold.Chemscore.Fitness>
16.1535

> <Gold.Chemscore.DG>
-17.5779

> <Gold.Chemscore.ZeroCoef>
-5.4800

> <Gold.Chemscore.Hbond>
2.3917

> <Gold.Chemscore.Metal>
0.0000

> <Gold.Chemscore.Lipo>
65.8390

> <Gold.Chemscore.Internal_Hbond>
0.0000

> <Gold.Chemscore.DEClash>
0.0456

> <Gold.Chemscore.DEInternal>
1.3788

> <Gold.Chemscore.Rot>
1.4037

> <Gold.Chemscore.Internal.Correction>
   9.000000E+99

> <Gold.Chemscore.Hbonds>
donor molecule, donor type, donor heavy atom, donor atom, acceptor molecule, acceptor atom, score
      L1  H    11    29       P1  7948  0.25
      P1  H  7989  7998       L1     3  0.70
      P1  H  7997  8010       L1     4  0.21

> <Gold.Chemscore.Hbond.Weighted>
-7.9883

> <Gold.Chemscore.Metal.Weighted>
-0.0000

> <Gold.Chemscore.Lipo.Weighted>
-7.7032

> <Gold.Chemscore.Internal_Hbond.Weighted>
0.0000

> <Gold.Chemscore.DEClash.Weighted>
0.0456

> <Gold.Chemscore.DEInternal.Weighted>
1.3788

> <Gold.Chemscore.Rot.Weighted>
3.5935

> <Gold.Chemscore.Internal.Correction.Weighted>
   9.000000E+99

> <Gold.Protein.RotatedTorsions>
[ 6907 6896 6895 6894 ] final    5.77 input  -60.11 | X-H torsion
[ 7974 7965 7964 7962 ] final  102.86 input  175.53 | X-H torsion
[ 8008 7997 7996 7995 ] final   64.02 input   59.86 | X-H torsion
[ 10167 10162 10161 10158 ] final   31.73 input  -65.29 | X-H torsion
[ 10718 10713 10712 10709 ] final -154.54 input   66.30 | X-H torsion
[ 10763 10752 10751 10750 ] final   11.83 input  -60.55 | X-H torsion
[ 11005 11000 10999 10996 ] final   12.76 input  -57.11 | X-H torsion

> <Gold.Protein.ActiveResidues>
 VAL166  LYS551  ARG553  GLY616  TRP617  ASP618  TYR619  PRO620  LYS621  CYS622 
 ASP623  PHE694  ASN695  SER759  ASP760  ASP761  ALA762  ILE779  LEU786  VAL792 
 PHE793  MET794  SER795  GLU796  ALA797  LYS798  CYS799  TRP800  GLU811  SER814 

> <Gold.Protein.RotatedAtoms>
  151.6628  135.0987  160.0182 H   0  0  0  0  0  0  0  0  0  0  0  0  # atno 6907 bound_to 6896
  152.3937  133.6711  159.6267 H   0  0  0  0  0  0  0  0  0  0  0  0  # atno 6908 bound_to 6896
  150.7847  133.8828  159.3332 H   0  0  0  0  0  0  0  0  0  0  0  0  # atno 6909 bound_to 6896
  145.3535  139.2434  143.3545 H   0  0  0  0  0  0  0  0  0  0  0  0  # atno 7974 bound_to 7965
  155.6394  140.3496  155.4710 H   0  0  0  0  0  0  0  0  0  0  0  0  # atno 8008 bound_to 7997
  155.9938  140.1199  157.0636 H   0  0  0  0  0  0  0  0  0  0  0  0  # atno 8009 bound_to 7997
  154.4227  140.1114  156.5588 H   0  0  0  0  0  0  0  0  0  0  0  0  # atno 8010 bound_to 7997
  140.4562  144.0974  150.6202 H   0  0  0  0  0  0  0  0  0  0  0  0  # atno 10167 bound_to 10162
  156.5007  130.8390  151.2608 H   0  0  0  0  0  0  0  0  0  0  0  0  # atno 10718 bound_to 10713
  153.1886  135.6839  153.8383 H   0  0  0  0  0  0  0  0  0  0  0  0  # atno 10763 bound_to 10752
  153.7690  135.3199  155.3350 H   0  0  0  0  0  0  0  0  0  0  0  0  # atno 10764 bound_to 10752
  154.8103  135.4721  154.0597 H   0  0  0  0  0  0  0  0  0  0  0  0  # atno 10765 bound_to 10752
  140.4883  134.0866  155.7765 H   0  0  0  0  0  0  0  0  0  0  0  0  # atno 11005 bound_to 11000
  146.2958  140.4155  142.8722 LP  0  0  0  0  0  0  0  0  0  0  0  0  # atno 17320 bound_to 7965
  144.8700  140.7259  143.6053 LP  0  0  0  0  0  0  0  0  0  0  0  0  # atno 17321 bound_to 7965
  140.4148  143.2639  151.9788 LP  0  0  0  0  0  0  0  0  0  0  0  0  # atno 17342 bound_to 10162
  139.4801  144.5883  151.7815 LP  0  0  0  0  0  0  0  0  0  0  0  0  # atno 17343 bound_to 10162
  157.7463  130.9983  150.2846 LP  0  0  0  0  0  0  0  0  0  0  0  0  # atno 17370 bound_to 10713
  156.3336  130.3804  149.7470 LP  0  0  0  0  0  0  0  0  0  0  0  0  # atno 17371 bound_to 10713
  141.1497  133.8991  157.2129 LP  0  0  0  0  0  0  0  0  0  0  0  0  # atno 17394 bound_to 11000
  139.9784  135.0106  156.9690 LP  0  0  0  0  0  0  0  0  0  0  0  0  # atno 17395 bound_to 11000

$$$$
