AV-unprocessed.smi:2952|AV-procd|sdf|11291|dock9
  -GOLD-   2272016183D 1   1.00000     0.00000
 Structure written by MMmdl.
 38 40  0  0  0  0  0  0  0  0  1 V2000
  150.7303  145.9385  160.6651 O   0  0  0  0  0  0  0  0  0  0  0  0
  151.4398  145.3993  159.5700 C   0  0  0  0  0  0  0  0  0  0  0  0
  150.6875  144.2141  158.9420 C   0  0  0  0  0  0  0  0  0  0  0  0
  151.4727  142.9864  158.9483 N   0  0  0  0  0  0  0  0  0  0  0  0
  151.6052  142.0511  157.9717 C   0  0  0  0  0  0  0  0  0  0  0  0
  150.9104  142.1666  156.6409 C   0  0  0  0  0  0  0  0  0  0  0  0
  150.3433  140.9117  156.1475 N   0  0  0  0  0  0  0  0  0  0  0  0
  151.3723  139.9746  155.7019 C   0  0  0  0  0  0  0  0  0  0  0  0
  150.7624  138.6657  155.1723 C   0  0  0  0  0  0  0  0  0  0  0  0
  149.8486  138.9571  154.1194 O   0  0  0  0  0  0  0  0  0  0  0  0
  148.8036  139.8353  154.5255 C   0  0  0  0  0  0  0  0  0  0  0  0
  149.4088  141.1476  155.0536 C   0  0  0  0  0  0  0  0  0  0  0  0
  152.3810  141.0075  158.2765 N   0  0  0  0  0  0  0  0  0  0  0  0
  152.8057  141.3022  159.5559 C   0  0  0  0  0  0  0  0  0  0  0  0
  153.6587  140.5889  160.4280 C   0  0  0  0  0  0  0  0  0  0  0  0
  153.9522  141.0955  161.7111 C   0  0  0  0  0  0  0  0  0  0  0  0
  153.3978  142.3195  162.1395 C   0  0  0  0  0  0  0  0  0  0  0  0
  153.7630  142.9289  163.7115 Cl  0  0  0  0  0  0  0  0  0  0  0  0
  152.5450  143.0448  161.2855 C   0  0  0  0  0  0  0  0  0  0  0  0
  152.2557  142.5348  160.0059 C   0  0  0  0  0  0  0  0  0  0  0  0
  149.9592  146.3758  160.3373 H   0  0  0  0  0  0  0  0  0  0  0  0
  151.5986  146.1853  158.8314 H   0  0  0  0  0  0  0  0  0  0  0  0
  152.4237  145.0793  159.9134 H   0  0  0  0  0  0  0  0  0  0  0  0
  149.7713  144.0311  159.5040 H   0  0  0  0  0  0  0  0  0  0  0  0
  150.3658  144.4467  157.9275 H   0  0  0  0  0  0  0  0  0  0  0  0
  150.1155  142.9037  156.7584 H   0  0  0  0  0  0  0  0  0  0  0  0
  151.5915  142.5665  155.8914 H   0  0  0  0  0  0  0  0  0  0  0  0
  151.9727  140.4329  154.9148 H   0  0  0  0  0  0  0  0  0  0  0  0
  152.0550  139.7444  156.5202 H   0  0  0  0  0  0  0  0  0  0  0  0
  151.5452  138.0081  154.7941 H   0  0  0  0  0  0  0  0  0  0  0  0
  150.2493  138.1280  155.9710 H   0  0  0  0  0  0  0  0  0  0  0  0
  148.1521  140.0331  153.6742 H   0  0  0  0  0  0  0  0  0  0  0  0
  148.1935  139.3550  155.2920 H   0  0  0  0  0  0  0  0  0  0  0  0
  148.6063  141.8060  155.3883 H   0  0  0  0  0  0  0  0  0  0  0  0
  149.9168  141.6643  154.2377 H   0  0  0  0  0  0  0  0  0  0  0  0
  154.0873  139.6501  160.1095 H   0  0  0  0  0  0  0  0  0  0  0  0
  154.6050  140.5406  162.3688 H   0  0  0  0  0  0  0  0  0  0  0  0
  152.1181  143.9824  161.6089 H   0  0  0  0  0  0  0  0  0  0  0  0
  1  2  1  0  0  0  0
  1 21  1  0  0  0  0
  2  3  1  0  0  0  0
  2 22  1  0  0  0  0
  2 23  1  0  0  0  0
  3  4  1  0  0  0  0
  3 24  1  0  0  0  0
  3 25  1  0  0  0  0
  4 20  1  0  0  0  0
  4  5  1  0  0  0  0
  5  6  1  0  0  0  0
  5 13  2  0  0  0  0
  6  7  1  0  0  0  0
  6 26  1  0  0  0  0
  6 27  1  0  0  0  0
  7 12  1  0  0  0  0
  7  8  1  0  0  0  0
  8  9  1  0  0  0  0
  8 28  1  0  0  0  0
  8 29  1  0  0  0  0
  9 10  1  0  0  0  0
  9 30  1  0  0  0  0
  9 31  1  0  0  0  0
 10 11  1  0  0  0  0
 11 12  1  0  0  0  0
 11 32  1  0  0  0  0
 11 33  1  0  0  0  0
 12 34  1  0  0  0  0
 12 35  1  0  0  0  0
 13 14  1  0  0  0  0
 14 20  2  0  0  0  0
 14 15  1  0  0  0  0
 15 16  2  0  0  0  0
 15 36  1  0  0  0  0
 16 17  1  0  0  0  0
 16 37  1  0  0  0  0
 17 18  1  0  0  0  0
 17 19  2  0  0  0  0
 19 20  1  0  0  0  0
 19 38  1  0  0  0  0
M  END
> <s_m_source_file>
AV-unprocessed.smi

> <i_m_source_file_index>
2952

> <i_lp_mmshare_version>
43012

> <i_f3d_flags>
0

> <s_epik_input>
W2NIXTFbY0hdYyhDbClbY0hdYyhjMTIpbihbQ0gyXVtDSDJdW09IXSljKG4yKVtDSDJdTjNbQ0gyXVtDSDJdT1tDSDJdW0NIMl0z

> <s_epik_cmdline>
J2VwaWtfcHl0aG9uJywgJy1waCcsICc3LjAnLCAnLXRuJywgJzgnLCAnLW1hJywgJzIwMCcsICctbWV0YWxfYmluZGluZycsICctaW1hZScsICc8aW5maWxlLm1hZT4nLCAnLW9tYWUnLCAnPG91dGZpbGUubWFlPic=

> <r_epik_Ionization_Penalty>
0.0905371

> <r_epik_Ionization_Penalty_Charging>
0

> <r_epik_Ionization_Penalty_Neutral>
0.0905371

> <r_epik_State_Penalty>
0.0787939

> <r_epik_Charging_Adjusted_Penalty>
0.0787939

> <i_epik_Tot_Q>
0

> <i_epik_Tot_abs_Q>
0

> <r_epik_Metal_State_Penalty>
8.42675e-05

> <b_epik_Metal_Only>
0

> <s_lp_Force_Field>
OPLS_2005

> <r_lp_Energy>
22.7724

> <b_lp_Chiralities_Consistent>
1

> <s_lp_Variant>
AV-unprocessed.smi:2952-1

> <Gold.Version>
5.8.1

> <Gold.Id.Protein>
6NUR|6NUR_protein|mol2

> <Gold.PLP.Fitness>
49.6940

> <Gold.PLP.PLP>
-51.6252

> <Gold.PLP.part.hbond>
-2.0000

> <Gold.PLP.part.metal>
0.0000

> <Gold.PLP.part.buried>
-6.2864

> <Gold.PLP.part.nonpolar>
-43.2889

> <Gold.PLP.part.repulsive>
0.5272

> <Gold.PLP.ligand.clash>
0.0000

> <Gold.PLP.ligand.torsion>
0.9696

> <Gold.PLP.Chemscore.Hbond>
0.0000

> <Gold.PLP.Chemscore.CHOScore>
0.0000

> <Gold.PLP.Chemscore.Metal>
0.0000

> <Gold.PLP.Chemscore.Internal.Correction>
0.0080

> <Gold.Rescore>
     Score         DG    S(hbond)    S(metal)    S(lipo)     H(rot)  DE(clash)    DE(int)     intcor
     12.64     -15.16       0.09        0.00     126.80       2.13       0.07       2.45       ----

> <Gold.Chemscore.Fitness>
12.6442

> <Gold.Chemscore.DG>
-15.1642

> <Gold.Chemscore.ZeroCoef>
-5.4800

> <Gold.Chemscore.Hbond>
0.0870

> <Gold.Chemscore.Metal>
0.0000

> <Gold.Chemscore.Lipo>
126.7956

> <Gold.Chemscore.Internal_Hbond>
0.0000

> <Gold.Chemscore.DEClash>
0.0711

> <Gold.Chemscore.DEInternal>
2.4489

> <Gold.Chemscore.Rot>
2.1256

> <Gold.Chemscore.Internal.Correction>
   9.000000E+99

> <Gold.Chemscore.Hbond.Weighted>
-0.2907

> <Gold.Chemscore.Metal.Weighted>
-0.0000

> <Gold.Chemscore.Lipo.Weighted>
-14.8351

> <Gold.Chemscore.Internal_Hbond.Weighted>
0.0000

> <Gold.Chemscore.DEClash.Weighted>
0.0711

> <Gold.Chemscore.DEInternal.Weighted>
2.4489

> <Gold.Chemscore.Rot.Weighted>
5.4415

> <Gold.Chemscore.Internal.Correction.Weighted>
   9.000000E+99

> <Gold.Protein.RotatedTorsions>
[ 6907 6896 6895 6894 ] final  161.09 input  -60.11 | X-H torsion
[ 7974 7965 7964 7962 ] final -135.80 input  175.53 | X-H torsion
[ 8008 7997 7996 7995 ] final  152.06 input   59.86 | X-H torsion
[ 10167 10162 10161 10158 ] final   24.95 input  -65.29 | X-H torsion
[ 10718 10713 10712 10709 ] final    5.98 input   66.30 | X-H torsion
[ 10763 10752 10751 10750 ] final -141.67 input  -60.55 | X-H torsion
[ 11005 11000 10999 10996 ] final  154.45 input  -57.11 | X-H torsion

> <Gold.Protein.ActiveResidues>
 VAL166  LYS551  ARG553  GLY616  TRP617  ASP618  TYR619  PRO620  LYS621  CYS622 
 ASP623  PHE694  ASN695  SER759  ASP760  ASP761  ALA762  ILE779  LEU786  VAL792 
 PHE793  MET794  SER795  GLU796  ALA797  LYS798  CYS799  TRP800  GLU811  SER814 

> <Gold.Protein.RotatedAtoms>
  151.9608  133.3694  159.4034 H   0  0  0  0  0  0  0  0  0  0  0  0  # atno 6907 bound_to 6896
  150.6964  134.4243  159.5228 H   0  0  0  0  0  0  0  0  0  0  0  0  # atno 6908 bound_to 6896
  152.1931  134.8654  160.0566 H   0  0  0  0  0  0  0  0  0  0  0  0  # atno 6909 bound_to 6896
  144.8982  140.6736  143.5102 H   0  0  0  0  0  0  0  0  0  0  0  0  # atno 7974 bound_to 7965
  156.2646  140.2031  156.6273 H   0  0  0  0  0  0  0  0  0  0  0  0  # atno 8008 bound_to 7997
  154.6710  140.0550  157.0189 H   0  0  0  0  0  0  0  0  0  0  0  0  # atno 8009 bound_to 7997
  155.1137  140.3218  155.4518 H   0  0  0  0  0  0  0  0  0  0  0  0  # atno 8010 bound_to 7997
  140.5146  144.0103  150.6388 H   0  0  0  0  0  0  0  0  0  0  0  0  # atno 10167 bound_to 10162
  156.9154  130.5771  149.5647 H   0  0  0  0  0  0  0  0  0  0  0  0  # atno 10718 bound_to 10713
  154.8537  135.3518  154.5904 H   0  0  0  0  0  0  0  0  0  0  0  0  # atno 10763 bound_to 10752
  153.6514  135.6994  153.5212 H   0  0  0  0  0  0  0  0  0  0  0  0  # atno 10764 bound_to 10752
  153.2891  135.4240  155.1108 H   0  0  0  0  0  0  0  0  0  0  0  0  # atno 10765 bound_to 10752
  140.1491  134.8687  157.2431 H   0  0  0  0  0  0  0  0  0  0  0  0  # atno 11005 bound_to 11000
  145.3662  139.1669  143.4356 LP  0  0  0  0  0  0  0  0  0  0  0  0  # atno 17320 bound_to 7965
  146.3093  140.3730  142.8676 LP  0  0  0  0  0  0  0  0  0  0  0  0  # atno 17321 bound_to 7965
  140.3435  143.3005  152.0563 LP  0  0  0  0  0  0  0  0  0  0  0  0  # atno 17342 bound_to 10162
  139.4906  144.6425  151.6847 LP  0  0  0  0  0  0  0  0  0  0  0  0  # atno 17343 bound_to 10162
  156.0516  130.5584  150.9002 LP  0  0  0  0  0  0  0  0  0  0  0  0  # atno 17370 bound_to 10713
  157.5941  131.0943  150.9069 LP  0  0  0  0  0  0  0  0  0  0  0  0  # atno 17371 bound_to 10713
  140.2627  134.3552  155.7401 LP  0  0  0  0  0  0  0  0  0  0  0  0  # atno 17394 bound_to 11000
  141.2196  133.7378  156.9105 LP  0  0  0  0  0  0  0  0  0  0  0  0  # atno 17395 bound_to 11000

$$$$
