AV-unprocessed.smi:3210|AV-procd|sdf|12273|dock5
  -GOLD-   2272018113D 1   1.00000     0.00000
 Structure written by MMmdl.
 34 35  0  0  0  0  0  0  0  0  1 V2000
  147.1026  140.2013  153.8148 O   0  0  0  0  0  0  0  0  0  0  0  0
  147.4472  139.2637  153.0947 C   0  0  0  0  0  0  0  0  0  0  0  0
  146.5141  138.7646  151.9924 C   0  0  0  0  0  0  0  0  0  0  0  0
  146.9862  137.4992  151.4245 N   0  0  0  0  0  0  0  0  0  0  0  0
  145.9058  136.8089  150.7347 C   0  0  0  0  0  0  0  0  0  0  0  0
  145.2357  135.7895  151.6711 C   0  0  0  0  0  0  0  0  0  0  0  0
  145.2431  134.4463  151.1184 N   0  0  0  0  0  0  0  0  0  0  0  0
  144.1704  133.6903  150.6944 C   0  0  0  0  0  0  0  0  0  0  0  0
  144.6627  132.4915  150.2642 C   0  0  0  0  0  0  0  0  0  0  0  0
  146.0663  132.6108  150.4661 C   0  0  0  0  0  0  0  0  0  0  0  0
  146.4104  133.7817  150.9771 N   0  0  0  0  0  0  0  0  0  0  0  0
  148.6243  138.6319  153.2175 N   0  0  0  0  0  0  0  0  0  0  0  0
  149.6506  138.9581  154.1991 C   0  0  0  0  0  0  0  0  0  0  0  0
  150.8836  138.0750  154.1567 C   0  0  0  0  0  0  0  0  0  0  0  0
  151.4712  137.4943  155.4215 C   0  0  0  0  0  0  0  0  0  0  0  0
  152.2065  138.5840  154.6785 C   0  0  0  0  0  0  0  0  0  0  0  0
  145.5192  138.6299  152.4191 H   0  0  0  0  0  0  0  0  0  0  0  0
  146.4301  139.5144  151.2035 H   0  0  0  0  0  0  0  0  0  0  0  0
  147.3601  136.8934  152.1421 H   0  0  0  0  0  0  0  0  0  0  0  0
  145.1656  137.5258  150.3754 H   0  0  0  0  0  0  0  0  0  0  0  0
  146.3088  136.2951  149.8610 H   0  0  0  0  0  0  0  0  0  0  0  0
  145.7672  135.7619  152.6231 H   0  0  0  0  0  0  0  0  0  0  0  0
  144.2094  136.0843  151.8976 H   0  0  0  0  0  0  0  0  0  0  0  0
  143.1576  134.0633  150.7367 H   0  0  0  0  0  0  0  0  0  0  0  0
  144.1054  131.6564  149.8667 H   0  0  0  0  0  0  0  0  0  0  0  0
  146.8397  131.8860  150.2586 H   0  0  0  0  0  0  0  0  0  0  0  0
  148.8217  137.8696  152.5855 H   0  0  0  0  0  0  0  0  0  0  0  0
  149.9605  139.9961  154.0693 H   0  0  0  0  0  0  0  0  0  0  0  0
  149.2008  138.8969  155.1905 H   0  0  0  0  0  0  0  0  0  0  0  0
  150.9461  137.4497  153.2680 H   0  0  0  0  0  0  0  0  0  0  0  0
  151.0023  137.7591  156.3670 H   0  0  0  0  0  0  0  0  0  0  0  0
  151.8774  136.4862  155.3684 H   0  0  0  0  0  0  0  0  0  0  0  0
  153.1039  138.3025  154.1312 H   0  0  0  0  0  0  0  0  0  0  0  0
  152.2274  139.5734  155.1314 H   0  0  0  0  0  0  0  0  0  0  0  0
  1  2  2  0  0  0  0
  2  3  1  0  0  0  0
  2 12  1  0  0  0  0
  3  4  1  0  0  0  0
  3 17  1  0  0  0  0
  3 18  1  0  0  0  0
  4  5  1  0  0  0  0
  4 19  1  0  0  0  0
  5  6  1  0  0  0  0
  5 20  1  0  0  0  0
  5 21  1  0  0  0  0
  6  7  1  0  0  0  0
  6 22  1  0  0  0  0
  6 23  1  0  0  0  0
  7 11  1  0  0  0  0
  7  8  1  0  0  0  0
  8  9  2  0  0  0  0
  8 24  1  0  0  0  0
  9 10  1  0  0  0  0
  9 25  1  0  0  0  0
 10 11  2  0  0  0  0
 10 26  1  0  0  0  0
 12 13  1  0  0  0  0
 12 27  1  0  0  0  0
 13 14  1  0  0  0  0
 13 28  1  0  0  0  0
 13 29  1  0  0  0  0
 14 16  1  0  0  0  0
 14 15  1  0  0  0  0
 14 30  1  0  0  0  0
 15 16  1  0  0  0  0
 15 31  1  0  0  0  0
 15 32  1  0  0  0  0
 16 33  1  0  0  0  0
 16 34  1  0  0  0  0
M  END
> <s_m_source_file>
AV-unprocessed.smi

> <i_m_source_file_index>
3210

> <i_lp_mmshare_version>
43012

> <i_f3d_flags>
0

> <s_epik_input>
W0NIMl0xW0NIMl1bQ0hdMVtDSDJdW05IXUMoPU8pW0NIMl1bTkhdW0NIMl1bQ0gyXW4yW2NIXVtjSF1bY0hdbjI=

> <s_epik_cmdline>
J2VwaWtfcHl0aG9uJywgJy1waCcsICc3LjAnLCAnLXRuJywgJzgnLCAnLW1hJywgJzIwMCcsICctbWV0YWxfYmluZGluZycsICctaW1hZScsICc8aW5maWxlLm1hZT4nLCAnLW9tYWUnLCAnPG91dGZpbGUubWFlPic=

> <r_lp_tautomer_probability>
1

> <r_epik_Ionization_Penalty>
0.724936

> <r_epik_Ionization_Penalty_Charging>
0

> <r_epik_Ionization_Penalty_Neutral>
0.724936

> <r_epik_State_Penalty>
0.747957

> <r_epik_Charging_Adjusted_Penalty>
0.747957

> <i_epik_Tot_Q>
0

> <i_epik_Tot_abs_Q>
0

> <r_epik_Metal_State_Penalty>
0.746186

> <b_epik_Metal_Only>
0

> <s_lp_Force_Field>
OPLS_2005

> <r_lp_Energy>
13.4578

> <b_lp_Chiralities_Consistent>
1

> <s_lp_Variant>
AV-unprocessed.smi:3210-2

> <Gold.Version>
5.8.1

> <Gold.Id.Protein>
6NUR|6NUR_protein|mol2

> <Gold.PLP.Fitness>
47.3460

> <Gold.PLP.PLP>
-36.2086

> <Gold.PLP.part.hbond>
-3.4862

> <Gold.PLP.part.metal>
0.0000

> <Gold.PLP.part.buried>
-1.3954

> <Gold.PLP.part.nonpolar>
-31.9289

> <Gold.PLP.part.repulsive>
0.4351

> <Gold.PLP.ligand.clash>
0.0000

> <Gold.PLP.ligand.torsion>
1.3273

> <Gold.PLP.Chemscore.Hbond>
2.3840

> <Gold.PLP.Chemscore.CHOScore>
2.0000

> <Gold.PLP.Chemscore.Metal>
0.0000

> <Gold.Chemscore.Hbonds>
donor molecule, donor type, donor heavy atom, donor atom, acceptor molecule, acceptor atom, score
      L1  H     4    19       P1  7948  0.30
      L1  H    12    27       P1  7948  1.00
      P1  H  7954  7966       L1     4  1.00
      L1  C     8    24       P1 10186  1.00
      L1  C    10    26       P1 10747  1.00

> <Gold.PLP.Chemscore.Internal.Correction>
0.6399

> <Gold.Rescore>
     Score         DG    S(hbond)    S(metal)    S(lipo)     H(rot)  DE(clash)    DE(int)     intcor
     12.76     -14.63       1.76        0.00      77.83       2.27       0.54       1.33       ----

> <Gold.Chemscore.Fitness>
12.7600

> <Gold.Chemscore.DG>
-14.6340

> <Gold.Chemscore.ZeroCoef>
-5.4800

> <Gold.Chemscore.Hbond>
1.7568

> <Gold.Chemscore.Metal>
0.0000

> <Gold.Chemscore.Lipo>
77.8305

> <Gold.Chemscore.Internal_Hbond>
0.0000

> <Gold.Chemscore.DEClash>
0.5404

> <Gold.Chemscore.DEInternal>
1.3336

> <Gold.Chemscore.Rot>
2.2734

> <Gold.Chemscore.Internal.Correction>
   9.000000E+99

> <Gold.Chemscore.Hbonds>
donor molecule, donor type, donor heavy atom, donor atom, acceptor molecule, acceptor atom, score
      L1  H     4    19       P1  7948  0.30
      L1  H    12    27       P1  7948  1.00
      P1  H  7954  7966       L1     4  0.17

> <Gold.Chemscore.Hbond.Weighted>
-5.8677

> <Gold.Chemscore.Metal.Weighted>
-0.0000

> <Gold.Chemscore.Lipo.Weighted>
-9.1062

> <Gold.Chemscore.Internal_Hbond.Weighted>
0.0000

> <Gold.Chemscore.DEClash.Weighted>
0.5404

> <Gold.Chemscore.DEInternal.Weighted>
1.3336

> <Gold.Chemscore.Rot.Weighted>
5.8199

> <Gold.Chemscore.Internal.Correction.Weighted>
   9.000000E+99

> <Gold.Protein.RotatedTorsions>
[ 6907 6896 6895 6894 ] final   89.94 input  -60.11 | X-H torsion
[ 7974 7965 7964 7962 ] final   16.48 input  175.53 | X-H torsion
[ 8008 7997 7996 7995 ] final   95.83 input   59.86 | X-H torsion
[ 10167 10162 10161 10158 ] final  -68.05 input  -65.29 | X-H torsion
[ 10718 10713 10712 10709 ] final -110.96 input   66.30 | X-H torsion
[ 10763 10752 10751 10750 ] final  167.35 input  -60.55 | X-H torsion
[ 11005 11000 10999 10996 ] final  -25.13 input  -57.11 | X-H torsion

> <Gold.Protein.ActiveResidues>
 VAL166  LYS551  ARG553  GLY616  TRP617  ASP618  TYR619  PRO620  LYS621  CYS622 
 ASP623  PHE694  ASN695  SER759  ASP760  ASP761  ALA762  ILE779  LEU786  VAL792 
 PHE793  MET794  SER795  GLU796  ALA797  LYS798  CYS799  TRP800  GLU811  SER814 

> <Gold.Protein.RotatedAtoms>
  152.5440  134.1888  159.8665 H   0  0  0  0  0  0  0  0  0  0  0  0  # atno 6907 bound_to 6896
  151.1885  133.4675  159.2602 H   0  0  0  0  0  0  0  0  0  0  0  0  # atno 6908 bound_to 6896
  151.1107  135.0037  159.8548 H   0  0  0  0  0  0  0  0  0  0  0  0  # atno 6909 bound_to 6896
  146.2248  139.8742  142.8582 H   0  0  0  0  0  0  0  0  0  0  0  0  # atno 7974 bound_to 7965
  156.0731  140.3281  155.7600 H   0  0  0  0  0  0  0  0  0  0  0  0  # atno 8008 bound_to 7997
  155.5274  140.0590  157.2913 H   0  0  0  0  0  0  0  0  0  0  0  0  # atno 8009 bound_to 7997
  154.4540  140.1933  156.0450 H   0  0  0  0  0  0  0  0  0  0  0  0  # atno 8010 bound_to 7997
  140.5537  143.2312  151.6863 H   0  0  0  0  0  0  0  0  0  0  0  0  # atno 10167 bound_to 10162
  156.0620  130.5842  150.8308 H   0  0  0  0  0  0  0  0  0  0  0  0  # atno 10718 bound_to 10713
  154.3525  135.2753  155.2364 H   0  0  0  0  0  0  0  0  0  0  0  0  # atno 10763 bound_to 10752
  154.4587  135.5912  153.6244 H   0  0  0  0  0  0  0  0  0  0  0  0  # atno 10764 bound_to 10752
  152.9849  135.6060  154.3737 H   0  0  0  0  0  0  0  0  0  0  0  0  # atno 10765 bound_to 10752
  140.8909  133.7589  156.0420 H   0  0  0  0  0  0  0  0  0  0  0  0  # atno 11005 bound_to 11000
  145.2578  141.0066  143.3844 LP  0  0  0  0  0  0  0  0  0  0  0  0  # atno 17320 bound_to 7965
  144.9323  139.4284  143.6489 LP  0  0  0  0  0  0  0  0  0  0  0  0  # atno 17321 bound_to 7965
  139.5038  144.3777  152.0407 LP  0  0  0  0  0  0  0  0  0  0  0  0  # atno 17342 bound_to 10162
  140.2896  144.3768  150.6093 LP  0  0  0  0  0  0  0  0  0  0  0  0  # atno 17343 bound_to 10162
  157.5635  131.0946  150.9524 LP  0  0  0  0  0  0  0  0  0  0  0  0  # atno 17370 bound_to 10713
  156.9756  130.5507  149.5293 LP  0  0  0  0  0  0  0  0  0  0  0  0  # atno 17371 bound_to 10713
  140.8347  134.3136  157.5336 LP  0  0  0  0  0  0  0  0  0  0  0  0  # atno 17394 bound_to 11000
  139.8729  134.9383  156.3711 LP  0  0  0  0  0  0  0  0  0  0  0  0  # atno 17395 bound_to 11000

$$$$
