AV-unprocessed.smi:2414|AV-procd|sdf|9540|dock10
  -GOLD-   2272013173D 1   1.00000     0.00000
 Structure written by MMmdl.
 43 44  0  0  0  0  0  0  0  0  1 V2000
  145.6937  136.6102  151.8908 C   0  0  0  0  0  0  0  0  0  0  0  0
  146.2192  137.9290  152.3471 C   0  0  0  0  0  0  0  0  0  0  0  0
  146.5241  139.0197  151.5713 C   0  0  0  0  0  0  0  0  0  0  0  0
  147.0019  140.1126  152.2973 N   0  0  0  0  0  0  0  0  0  0  0  0
  147.0602  139.8694  153.6098 C   0  0  0  0  0  0  0  0  0  0  0  0
  147.5490  140.8637  154.6193 C   0  0  2  0  0  0  0  0  0  0  0  0
  146.9820  142.2680  154.3652 C   0  0  0  0  0  0  0  0  0  0  0  0
  149.0816  140.8548  154.7802 C   0  0  0  0  0  0  0  0  0  0  0  0
  149.5648  142.0710  155.4243 N   0  0  0  0  0  0  0  0  0  0  0  0
  150.6620  142.1376  156.1880 C   0  0  0  0  0  0  0  0  0  0  0  0
  151.3955  141.1772  156.4228 O   0  0  0  0  0  0  0  0  0  0  0  0
  150.8609  143.3749  156.6608 N   0  0  0  0  0  0  0  0  0  0  0  0
  151.9763  143.7917  157.5056 C   0  0  0  0  0  0  0  0  0  0  0  0
  151.7268  143.4510  158.9905 C   0  0  2  0  0  0  0  0  0  0  0  0
  150.5791  144.2788  159.6012 C   0  0  0  0  0  0  0  0  0  0  0  0
  153.0129  143.5877  159.8258 C   0  0  0  0  0  0  0  0  0  0  0  0
  152.9621  142.3875  160.7454 C   0  0  0  0  0  0  0  0  0  0  0  0
  152.3293  141.3468  159.8348 C   0  0  0  0  0  0  0  0  0  0  0  0
  151.3578  142.0728  159.0930 O   0  0  0  0  0  0  0  0  0  0  0  0
  146.5216  138.2486  154.0351 S   0  0  0  0  0  0  0  0  0  0  0  0
  146.2500  136.2504  151.0251 H   0  0  0  0  0  0  0  0  0  0  0  0
  144.6440  136.6902  151.6085 H   0  0  0  0  0  0  0  0  0  0  0  0
  145.7754  135.8595  152.6771 H   0  0  0  0  0  0  0  0  0  0  0  0
  146.4336  139.1042  150.4984 H   0  0  0  0  0  0  0  0  0  0  0  0
  147.1397  140.5438  155.5788 H   0  0  0  0  0  0  0  0  0  0  0  0
  145.8916  142.2555  154.3586 H   0  0  0  0  0  0  0  0  0  0  0  0
  147.3167  142.6634  153.4057 H   0  0  0  0  0  0  0  0  0  0  0  0
  147.2997  142.9657  155.1403 H   0  0  0  0  0  0  0  0  0  0  0  0
  149.3829  139.9954  155.3816 H   0  0  0  0  0  0  0  0  0  0  0  0
  149.5611  140.7454  153.8063 H   0  0  0  0  0  0  0  0  0  0  0  0
  149.0225  142.9114  155.2869 H   0  0  0  0  0  0  0  0  0  0  0  0
  150.1973  144.0927  156.4081 H   0  0  0  0  0  0  0  0  0  0  0  0
  152.8746  143.2867  157.1486 H   0  0  0  0  0  0  0  0  0  0  0  0
  152.1636  144.8625  157.4090 H   0  0  0  0  0  0  0  0  0  0  0  0
  150.7919  145.3466  159.5442 H   0  0  0  0  0  0  0  0  0  0  0  0
  150.4264  144.0275  160.6510 H   0  0  0  0  0  0  0  0  0  0  0  0
  149.6338  144.1015  159.0880 H   0  0  0  0  0  0  0  0  0  0  0  0
  153.8965  143.5107  159.1907 H   0  0  0  0  0  0  0  0  0  0  0  0
  153.0808  144.5327  160.3660 H   0  0  0  0  0  0  0  0  0  0  0  0
  153.9421  142.0898  161.1188 H   0  0  0  0  0  0  0  0  0  0  0  0
  152.3140  142.5893  161.5992 H   0  0  0  0  0  0  0  0  0  0  0  0
  153.0699  140.9382  159.1457 H   0  0  0  0  0  0  0  0  0  0  0  0
  151.8796  140.5202  160.3852 H   0  0  0  0  0  0  0  0  0  0  0  0
  1  2  1  0  0  0  0
  1 21  1  0  0  0  0
  1 22  1  0  0  0  0
  1 23  1  0  0  0  0
  2 20  1  0  0  0  0
  2  3  2  0  0  0  0
  3  4  1  0  0  0  0
  3 24  1  0  0  0  0
  4  5  2  0  0  0  0
  5  6  1  0  0  0  0
  5 20  1  0  0  0  0
  6  7  1  0  0  0  0
  6  8  1  0  0  0  0
  6 25  1  0  0  0  0
  7 26  1  0  0  0  0
  7 27  1  0  0  0  0
  7 28  1  0  0  0  0
  8  9  1  0  0  0  0
  8 29  1  0  0  0  0
  8 30  1  0  0  0  0
  9 10  1  0  0  0  0
  9 31  1  0  0  0  0
 10 11  2  0  0  0  0
 10 12  1  0  0  0  0
 12 13  1  0  0  0  0
 12 32  1  0  0  0  0
 13 14  1  0  0  0  0
 13 33  1  0  0  0  0
 13 34  1  0  0  0  0
 14 19  1  0  0  0  0
 14 15  1  0  0  0  0
 14 16  1  0  0  0  0
 15 35  1  0  0  0  0
 15 36  1  0  0  0  0
 15 37  1  0  0  0  0
 16 17  1  0  0  0  0
 16 38  1  0  0  0  0
 16 39  1  0  0  0  0
 17 18  1  0  0  0  0
 17 40  1  0  0  0  0
 17 41  1  0  0  0  0
 18 19  1  0  0  0  0
 18 42  1  0  0  0  0
 18 43  1  0  0  0  0
M  END
> <s_m_source_file>
AV-unprocessed.smi

> <i_m_source_file_index>
2414

> <i_lp_mmshare_version>
43012

> <i_f3d_flags>
0

> <s_epik_input>
W0NIM11jMVtjSF1uYyhzMSlbQ0BIXShbQ0gzXSlbQ0gyXVtOSF1DKD1PKVtOSF1bQ0gyXVtDQEBdMihbQ0gzXSlbQ0gyXVtDSDJdW0NIMl1PMg==

> <s_epik_cmdline>
J2VwaWtfcHl0aG9uJywgJy1waCcsICc3LjAnLCAnLXRuJywgJzgnLCAnLW1hJywgJzIwMCcsICctbWV0YWxfYmluZGluZycsICctaW1hZScsICc8aW5maWxlLm1hZT4nLCAnLW9tYWUnLCAnPG91dGZpbGUubWFlPic=

> <r_epik_Ionization_Penalty>
0.000646956

> <r_epik_Ionization_Penalty_Charging>
0

> <r_epik_Ionization_Penalty_Neutral>
0.000646956

> <r_epik_State_Penalty>
0.000375727

> <r_epik_Charging_Adjusted_Penalty>
0.000375727

> <i_epik_Tot_Q>
0

> <i_epik_Tot_abs_Q>
0

> <r_epik_Metal_State_Penalty>
-0

> <b_epik_Metal_Only>
0

> <s_lp_Force_Field>
OPLS_2005

> <r_lp_Energy>
9.0626

> <b_lp_Chiralities_Consistent>
1

> <s_lp_Variant>
AV-unprocessed.smi:2414-3

> <Gold.Version>
5.8.1

> <Gold.Id.Protein>
6NUR|6NUR_protein|mol2

> <Gold.PLP.Fitness>
45.6360

> <Gold.PLP.PLP>
-40.8970

> <Gold.PLP.part.hbond>
-2.0000

> <Gold.PLP.part.metal>
0.0000

> <Gold.PLP.part.buried>
-5.4404

> <Gold.PLP.part.nonpolar>
-36.7971

> <Gold.PLP.part.repulsive>
2.6190

> <Gold.PLP.ligand.clash>
0.0000

> <Gold.PLP.ligand.torsion>
1.2084

> <Gold.PLP.Chemscore.Hbond>
1.9600

> <Gold.PLP.Chemscore.CHOScore>
0.3868

> <Gold.PLP.Chemscore.Metal>
0.0000

> <Gold.Chemscore.Hbonds>
donor molecule, donor type, donor heavy atom, donor atom, acceptor molecule, acceptor atom, score
      L1  H     9    31       P1  8028  0.93
      L1  H    12    32       P1  8028  1.00
      L1  C     3    24       P1 10171  0.38

> <Gold.PLP.Chemscore.Internal.Correction>
0.1152

> <Gold.Rescore>
     Score         DG    S(hbond)    S(metal)    S(lipo)     H(rot)  DE(clash)    DE(int)     intcor
     19.34     -20.80       1.93        0.00     111.86       1.65       0.29       1.17       ----

> <Gold.Chemscore.Fitness>
19.3426

> <Gold.Chemscore.DG>
-20.7964

> <Gold.Chemscore.ZeroCoef>
-5.4800

> <Gold.Chemscore.Hbond>
1.9336

> <Gold.Chemscore.Metal>
0.0000

> <Gold.Chemscore.Lipo>
111.8595

> <Gold.Chemscore.Internal_Hbond>
0.0000

> <Gold.Chemscore.DEClash>
0.2869

> <Gold.Chemscore.DEInternal>
1.1669

> <Gold.Chemscore.Rot>
1.6522

> <Gold.Chemscore.Internal.Correction>
   9.000000E+99

> <Gold.Chemscore.Hbonds>
donor molecule, donor type, donor heavy atom, donor atom, acceptor molecule, acceptor atom, score
      L1  H     9    31       P1  8028  0.91
      L1  H    12    32       P1  8028  0.98

> <Gold.Chemscore.Hbond.Weighted>
-6.4584

> <Gold.Chemscore.Metal.Weighted>
-0.0000

> <Gold.Chemscore.Lipo.Weighted>
-13.0876

> <Gold.Chemscore.Internal_Hbond.Weighted>
0.0000

> <Gold.Chemscore.DEClash.Weighted>
0.2869

> <Gold.Chemscore.DEInternal.Weighted>
1.1669

> <Gold.Chemscore.Rot.Weighted>
4.2295

> <Gold.Chemscore.Internal.Correction.Weighted>
   9.000000E+99

> <Gold.Protein.RotatedTorsions>
[ 6907 6896 6895 6894 ] final   73.06 input  -60.11 | X-H torsion
[ 7974 7965 7964 7962 ] final   65.55 input  175.53 | X-H torsion
[ 8008 7997 7996 7995 ] final   44.74 input   59.86 | X-H torsion
[ 10167 10162 10161 10158 ] final -156.67 input  -65.29 | X-H torsion
[ 10718 10713 10712 10709 ] final  178.78 input   66.30 | X-H torsion
[ 10763 10752 10751 10750 ] final  154.44 input  -60.55 | X-H torsion
[ 11005 11000 10999 10996 ] final -120.41 input  -57.11 | X-H torsion

> <Gold.Protein.ActiveResidues>
 VAL166  LYS551  ARG553  GLY616  TRP617  ASP618  TYR619  PRO620  LYS621  CYS622 
 ASP623  PHE694  ASN695  SER759  ASP760  ASP761  ALA762  ILE779  LEU786  VAL792 
 PHE793  MET794  SER795  GLU796  ALA797  LYS798  CYS799  TRP800  GLU811  SER814 

> <Gold.Protein.RotatedAtoms>
  152.4902  134.4478  159.9564 H   0  0  0  0  0  0  0  0  0  0  0  0  # atno 6907 bound_to 6896
  151.4467  133.3622  159.2797 H   0  0  0  0  0  0  0  0  0  0  0  0  # atno 6908 bound_to 6896
  150.9050  134.8488  159.7446 H   0  0  0  0  0  0  0  0  0  0  0  0  # atno 6909 bound_to 6896
  145.8371  139.3173  143.0953 H   0  0  0  0  0  0  0  0  0  0  0  0  # atno 7974 bound_to 7965
  155.3243  140.3399  155.4240 H   0  0  0  0  0  0  0  0  0  0  0  0  # atno 8008 bound_to 7997
  156.1893  140.1692  156.8160 H   0  0  0  0  0  0  0  0  0  0  0  0  # atno 8009 bound_to 7997
  154.5423  140.0722  156.8515 H   0  0  0  0  0  0  0  0  0  0  0  0  # atno 8010 bound_to 7997
  139.6831  143.9547  152.2347 H   0  0  0  0  0  0  0  0  0  0  0  0  # atno 10167 bound_to 10162
  156.8854  130.9830  151.3056 H   0  0  0  0  0  0  0  0  0  0  0  0  # atno 10718 bound_to 10713
  154.1523  135.2814  155.3132 H   0  0  0  0  0  0  0  0  0  0  0  0  # atno 10763 bound_to 10752
  154.6208  135.5468  153.7576 H   0  0  0  0  0  0  0  0  0  0  0  0  # atno 10764 bound_to 10752
  153.0217  135.6438  154.1667 H   0  0  0  0  0  0  0  0  0  0  0  0  # atno 10765 bound_to 10752
  141.0145  134.0215  157.3368 H   0  0  0  0  0  0  0  0  0  0  0  0  # atno 11005 bound_to 11000
  145.9506  140.8911  143.0261 LP  0  0  0  0  0  0  0  0  0  0  0  0  # atno 17320 bound_to 7965
  144.6736  140.1675  143.7417 LP  0  0  0  0  0  0  0  0  0  0  0  0  # atno 17321 bound_to 7965
  139.9342  144.6722  150.8331 LP  0  0  0  0  0  0  0  0  0  0  0  0  # atno 17342 bound_to 10162
  140.7659  143.3288  151.2457 LP  0  0  0  0  0  0  0  0  0  0  0  0  # atno 17343 bound_to 10162
  157.6115  130.8587  149.8960 LP  0  0  0  0  0  0  0  0  0  0  0  0  # atno 17370 bound_to 10713
  156.0656  130.3693  150.0886 LP  0  0  0  0  0  0  0  0  0  0  0  0  # atno 17371 bound_to 10713
  139.9109  135.0190  156.7687 LP  0  0  0  0  0  0  0  0  0  0  0  0  # atno 17394 bound_to 11000
  140.6677  133.9587  155.7839 LP  0  0  0  0  0  0  0  0  0  0  0  0  # atno 17395 bound_to 11000

$$$$
