AV-unprocessed.smi:1430|AV-procd|sdf|5828|dock10
  -GOLD-   22720 5483D 1   1.00000     0.00000
 Structure written by MMmdl.
 47 48  0  0  0  0  0  0  0  0  2 V2000
  151.4503  142.1907  159.5261 C   0  0  0  0  0  0  0  0  0  0  0  0
  152.1797  141.6743  158.4182 O   0  0  0  0  0  0  0  0  0  0  0  0
  151.4739  141.2286  157.3197 C   0  0  0  0  0  0  0  0  0  0  0  0
  150.1190  141.5927  157.1954 C   0  0  0  0  0  0  0  0  0  0  0  0
  149.3966  141.1426  156.0746 C   0  0  0  0  0  0  0  0  0  0  0  0
  150.0444  140.3456  155.1089 C   0  0  0  0  0  0  0  0  0  0  0  0
  149.2746  139.9049  153.9967 N   0  0  0  0  0  0  0  0  0  0  0  0
  147.9895  139.5119  153.9518 C   0  0  0  0  0  0  0  0  0  0  0  0
  147.2216  139.4537  154.9112 O   0  0  0  0  0  0  0  0  0  0  0  0
  147.6304  139.1741  152.7052 N   0  0  0  0  0  0  0  0  0  0  0  0
  146.3053  138.7033  152.3177 C   0  0  0  0  0  0  0  0  0  0  0  0
  146.3656  137.2867  151.7147 C   0  0  0  0  0  0  0  0  0  0  0  0
  145.0225  136.7734  151.3352 N   0  3  1  0  0  0  0  0  0  0  0  0
  145.0586  135.4333  150.6999 C   0  0  0  0  0  0  0  0  0  0  0  0
  145.2548  134.3200  151.7496 C   0  0  2  0  0  0  0  0  0  0  0  0
  145.2063  132.9220  151.1233 C   0  0  0  0  0  0  0  0  0  0  0  0
  144.2126  134.4082  152.7151 O   0  0  0  0  0  0  0  0  0  0  0  0
  144.2154  135.6437  153.4225 C   0  0  2  0  0  0  0  0  0  0  0  0
  143.1034  135.5889  154.4756 C   0  0  0  0  0  0  0  0  0  0  0  0
  144.0102  136.8018  152.4220 C   0  0  0  0  0  0  0  0  0  0  0  0
  151.4073  140.0261  155.3303 C   0  0  0  0  0  0  0  0  0  0  0  0
  152.1059  140.4557  156.4026 N   0  0  0  0  0  0  0  0  0  0  0  0
  152.1478  142.4963  160.3058 H   0  0  0  0  0  0  0  0  0  0  0  0
  150.7866  141.4374  159.9529 H   0  0  0  0  0  0  0  0  0  0  0  0
  150.8641  143.0668  159.2452 H   0  0  0  0  0  0  0  0  0  0  0  0
  149.6429  142.2058  157.9464 H   0  0  0  0  0  0  0  0  0  0  0  0
  148.3558  141.4096  155.9603 H   0  0  0  0  0  0  0  0  0  0  0  0
  149.7790  139.8553  153.1236 H   0  0  0  0  0  0  0  0  0  0  0  0
  148.3235  139.2436  151.9740 H   0  0  0  0  0  0  0  0  0  0  0  0
  145.6844  138.7192  153.2123 H   0  0  0  0  0  0  0  0  0  0  0  0
  145.8515  139.4009  151.6117 H   0  0  0  0  0  0  0  0  0  0  0  0
  146.9877  137.3245  150.8193 H   0  0  0  0  0  0  0  0  0  0  0  0
  146.8633  136.6011  152.4004 H   0  0  0  0  0  0  0  0  0  0  0  0
  144.1125  135.2793  150.1786 H   0  0  0  0  0  0  0  0  0  0  0  0
  145.8360  135.3921  149.9362 H   0  0  0  0  0  0  0  0  0  0  0  0
  146.2184  134.4384  152.2477 H   0  0  0  0  0  0  0  0  0  0  0  0
  145.9974  132.7950  150.3840 H   0  0  0  0  0  0  0  0  0  0  0  0
  144.2519  132.7437  150.6271 H   0  0  0  0  0  0  0  0  0  0  0  0
  145.3354  132.1503  151.8827 H   0  0  0  0  0  0  0  0  0  0  0  0
  145.1677  135.7566  153.9421 H   0  0  0  0  0  0  0  0  0  0  0  0
  143.0653  136.5114  155.0554 H   0  0  0  0  0  0  0  0  0  0  0  0
  143.2665  134.7660  155.1720 H   0  0  0  0  0  0  0  0  0  0  0  0
  142.1268  135.4432  154.0129 H   0  0  0  0  0  0  0  0  0  0  0  0
  144.0105  137.7616  152.9369 H   0  0  0  0  0  0  0  0  0  0  0  0
  143.0253  136.7089  151.9621 H   0  0  0  0  0  0  0  0  0  0  0  0
  151.9732  139.4029  154.6574 H   0  0  0  0  0  0  0  0  0  0  0  0
  144.6950  137.4061  150.6189 H   0  0  0  0  0  0  0  0  0  0  0  0
  1  2  1  0  0  0  0
  1 23  1  0  0  0  0
  1 24  1  0  0  0  0
  1 25  1  0  0  0  0
  2  3  1  0  0  0  0
  3 22  1  0  0  0  0
  3  4  2  0  0  0  0
  4  5  1  0  0  0  0
  4 26  1  0  0  0  0
  5  6  2  0  0  0  0
  5 27  1  0  0  0  0
  6  7  1  0  0  0  0
  6 21  1  0  0  0  0
  7  8  1  0  0  0  0
  7 28  1  0  0  0  0
  8  9  2  0  0  0  0
  8 10  1  0  0  0  0
 10 11  1  0  0  0  0
 10 29  1  0  0  0  0
 11 12  1  0  0  0  0
 11 30  1  0  0  0  0
 11 31  1  0  0  0  0
 12 13  1  0  0  0  0
 12 32  1  0  0  0  0
 12 33  1  0  0  0  0
 13 20  1  0  0  0  0
 13 14  1  0  0  0  0
 13 47  1  0  0  0  0
 14 15  1  0  0  0  0
 14 34  1  0  0  0  0
 14 35  1  0  0  0  0
 15 16  1  0  0  0  0
 15 17  1  0  0  0  0
 15 36  1  0  0  0  0
 16 37  1  0  0  0  0
 16 38  1  0  0  0  0
 16 39  1  0  0  0  0
 17 18  1  0  0  0  0
 18 19  1  0  0  0  0
 18 20  1  0  0  0  0
 18 40  1  0  0  0  0
 19 41  1  0  0  0  0
 19 42  1  0  0  0  0
 19 43  1  0  0  0  0
 20 44  1  0  0  0  0
 20 45  1  0  0  0  0
 21 22  2  0  0  0  0
 21 46  1  0  0  0  0
M  CHG  1  13   1
M  END
> <s_m_source_file>
AV-unprocessed.smi

> <i_m_source_file_index>
1430

> <i_lp_mmshare_version>
43012

> <i_f3d_flags>
0

> <s_epik_input>
W0NIM11PYzFbY0hdW2NIXWMoW2NIXW4xKVtOSF1DKD1PKVtOSF1bQ0gyXVtDSDJdTjJbQ0gyXVtDQEBIXShbQ0gzXSlPW0NAQEhdKFtDSDNdKVtDSDJdMg==

> <s_epik_cmdline>
J2VwaWtfcHl0aG9uJywgJy1waCcsICc3LjAnLCAnLXRuJywgJzgnLCAnLW1hJywgJzIwMCcsICctbWV0YWxfYmluZGluZycsICctaW1hZScsICc8aW5maWxlLm1hZT4nLCAnLW9tYWUnLCAnPG91dGZpbGUubWFlPic=

> <r_lp_tautomer_probability>
1

> <r_epik_Ionization_Penalty>
0.602607

> <r_epik_Ionization_Penalty_Charging>
0.602531

> <r_epik_Ionization_Penalty_Neutral>
7.66983e-05

> <r_epik_State_Penalty>
0.617039

> <r_epik_Charging_Adjusted_Penalty>
1.21957

> <i_epik_Tot_Q>
1

> <i_epik_Tot_abs_Q>
1

> <r_epik_Metal_State_Penalty>
0.617043

> <b_epik_Metal_Only>
0

> <s_lp_Force_Field>
OPLS_2005

> <r_lp_Energy>
19.3268

> <b_lp_Chiralities_Consistent>
1

> <s_lp_Variant>
AV-unprocessed.smi:1430-7

> <Gold.Version>
5.8.1

> <Gold.Id.Protein>
6NUR|6NUR_protein|mol2

> <Gold.PLP.Fitness>
45.2340

> <Gold.PLP.PLP>
-34.9402

> <Gold.PLP.part.hbond>
-5.4278

> <Gold.PLP.part.metal>
0.0000

> <Gold.PLP.part.buried>
-0.6342

> <Gold.PLP.part.nonpolar>
-29.4465

> <Gold.PLP.part.repulsive>
0.4100

> <Gold.PLP.ligand.clash>
0.0029

> <Gold.PLP.ligand.torsion>
0.4908

> <Gold.PLP.Chemscore.Hbond>
3.7420

> <Gold.PLP.Chemscore.CHOScore>
0.0000

> <Gold.PLP.Chemscore.Metal>
0.0000

> <Gold.Chemscore.Hbonds>
donor molecule, donor type, donor heavy atom, donor atom, acceptor molecule, acceptor atom, score
      L1  H     7    28       P1  7957  0.90
      L1  H    10    29       P1  7957  1.00
      L1  H    13    47       P1 10171  1.00
      P1  H  7997  8010       L1    22  0.31

> <Gold.PLP.Chemscore.Internal.Correction>
0.0524

> <Gold.Rescore>
     Score         DG    S(hbond)    S(metal)    S(lipo)     H(rot)  DE(clash)    DE(int)     intcor
     18.63     -21.09       3.35        0.00      76.34       1.76       1.09       1.36       ----

> <Gold.Chemscore.Fitness>
18.6340

> <Gold.Chemscore.DG>
-21.0924

> <Gold.Chemscore.ZeroCoef>
-5.4800

> <Gold.Chemscore.Hbond>
3.3495

> <Gold.Chemscore.Metal>
0.0000

> <Gold.Chemscore.Lipo>
76.3424

> <Gold.Chemscore.Internal_Hbond>
0.0000

> <Gold.Chemscore.DEClash>
1.0946

> <Gold.Chemscore.DEInternal>
1.3638

> <Gold.Chemscore.Rot>
1.7606

> <Gold.Chemscore.Internal.Correction>
   9.000000E+99

> <Gold.Chemscore.Hbonds>
donor molecule, donor type, donor heavy atom, donor atom, acceptor molecule, acceptor atom, score
      L1  H     7    28       P1  7957  0.86
      L1  H    10    29       P1  7957  0.97
      L1  H    13    47       P1 10171  1.00
      P1  H  7997  8010       L1    22  0.29

> <Gold.Chemscore.Hbond.Weighted>
-11.1875

> <Gold.Chemscore.Metal.Weighted>
-0.0000

> <Gold.Chemscore.Lipo.Weighted>
-8.9321

> <Gold.Chemscore.Internal_Hbond.Weighted>
0.0000

> <Gold.Chemscore.DEClash.Weighted>
1.0946

> <Gold.Chemscore.DEInternal.Weighted>
1.3638

> <Gold.Chemscore.Rot.Weighted>
4.5072

> <Gold.Chemscore.Internal.Correction.Weighted>
   9.000000E+99

> <Gold.Protein.RotatedTorsions>
[ 6907 6896 6895 6894 ] final  -73.14 input  -60.11 | X-H torsion
[ 7974 7965 7964 7962 ] final  176.96 input  175.53 | X-H torsion
[ 8008 7997 7996 7995 ] final   62.27 input   59.86 | X-H torsion
[ 10167 10162 10161 10158 ] final   74.59 input  -65.29 | X-H torsion
[ 10718 10713 10712 10709 ] final  -29.03 input   66.30 | X-H torsion
[ 10763 10752 10751 10750 ] final -103.26 input  -60.55 | X-H torsion
[ 11005 11000 10999 10996 ] final -161.79 input  -57.11 | X-H torsion

> <Gold.Protein.ActiveResidues>
 VAL166  LYS551  ARG553  GLY616  TRP617  ASP618  TYR619  PRO620  LYS621  CYS622 
 ASP623  PHE694  ASN695  SER759  ASP760  ASP761  ALA762  ILE779  LEU786  VAL792 
 PHE793  MET794  SER795  GLU796  ALA797  LYS798  CYS799  TRP800  GLU811  SER814 

> <Gold.Protein.RotatedAtoms>
  150.7142  134.5059  159.5583 H   0  0  0  0  0  0  0  0  0  0  0  0  # atno 6907 bound_to 6896
  152.2647  134.7994  160.0434 H   0  0  0  0  0  0  0  0  0  0  0  0  # atno 6908 bound_to 6896
  151.8696  133.3437  159.3767 H   0  0  0  0  0  0  0  0  0  0  0  0  # atno 6909 bound_to 6896
  144.7176  140.0175  143.6440 H   0  0  0  0  0  0  0  0  0  0  0  0  # atno 7974 bound_to 7965
  155.6117  140.3495  155.4624 H   0  0  0  0  0  0  0  0  0  0  0  0  # atno 8008 bound_to 7997
  156.0149  140.1241  157.0440 H   0  0  0  0  0  0  0  0  0  0  0  0  # atno 8009 bound_to 7997
  154.4294  140.1074  156.5868 H   0  0  0  0  0  0  0  0  0  0  0  0  # atno 8010 bound_to 7997
  140.0120  144.5606  150.7650 H   0  0  0  0  0  0  0  0  0  0  0  0  # atno 10167 bound_to 10162
  156.4176  130.4420  149.7207 H   0  0  0  0  0  0  0  0  0  0  0  0  # atno 10718 bound_to 10713
  154.7794  135.4830  153.9813 H   0  0  0  0  0  0  0  0  0  0  0  0  # atno 10763 bound_to 10752
  153.1473  135.6784  153.8943 H   0  0  0  0  0  0  0  0  0  0  0  0  # atno 10764 bound_to 10752
  153.8598  135.3157  155.3415 H   0  0  0  0  0  0  0  0  0  0  0  0  # atno 10765 bound_to 10752
  140.6164  134.4795  157.5220 H   0  0  0  0  0  0  0  0  0  0  0  0  # atno 11005 bound_to 11000
  146.0208  139.3249  143.0814 LP  0  0  0  0  0  0  0  0  0  0  0  0  # atno 17320 bound_to 7965
  145.8570  140.9496  143.0720 LP  0  0  0  0  0  0  0  0  0  0  0  0  # atno 17321 bound_to 7965
  140.7377  143.2769  151.3714 LP  0  0  0  0  0  0  0  0  0  0  0  0  # atno 17342 bound_to 10162
  139.6198  144.0929  152.2380 LP  0  0  0  0  0  0  0  0  0  0  0  0  # atno 17343 bound_to 10162
  156.4160  130.7745  151.2761 LP  0  0  0  0  0  0  0  0  0  0  0  0  # atno 17370 bound_to 10713
  157.7508  131.0197  150.3678 LP  0  0  0  0  0  0  0  0  0  0  0  0  # atno 17371 bound_to 10713
  139.9171  134.8224  156.1331 LP  0  0  0  0  0  0  0  0  0  0  0  0  # atno 17394 bound_to 11000
  141.0772  133.6770  156.2261 LP  0  0  0  0  0  0  0  0  0  0  0  0  # atno 17395 bound_to 11000

$$$$
