AV-unprocessed.smi:157|AV-procd|sdf|1301|dock2
  -GOLD-   2262018593D 1   1.00000     0.00000
 Structure written by MMmdl.
 35 37  0  0  0  0  0  0  0  0  1 V2000
  154.3350  137.8045  155.7166 O   0  0  0  0  0  0  0  0  0  0  0  0
  153.2589  137.5982  156.6067 C   0  0  0  0  0  0  0  0  0  0  0  0
  151.9596  138.1681  156.0125 C   0  0  1  0  0  0  0  0  0  0  0  0
  152.1074  139.5417  155.6760 O   0  0  0  0  0  0  0  0  0  0  0  0
  151.1024  139.9157  154.7797 C   0  0  2  0  0  0  0  0  0  0  0  0
  150.0134  140.6251  155.5330 N   0  0  0  0  0  0  0  0  0  0  0  0
  150.0057  140.9519  156.8335 C   0  0  0  0  0  0  0  0  0  0  0  0
  148.9158  141.5822  157.2367 N   0  0  0  0  0  0  0  0  0  0  0  0
  148.1382  141.6791  156.0847 C   0  0  0  0  0  0  0  0  0  0  0  0
  148.8027  141.0958  155.0158 C   0  0  0  0  0  0  0  0  0  0  0  0
  148.5503  140.9067  153.6702 N   0  0  0  0  0  0  0  0  0  0  0  0
  147.3234  140.9981  153.2635 C   0  0  0  0  0  0  0  0  0  0  0  0
  146.1758  141.3583  153.9552 N   0  0  0  0  0  0  0  0  0  0  0  0
  146.0927  142.5372  154.8006 C   0  0  0  0  0  0  0  0  0  0  0  0
  146.8110  142.3782  156.1465 C   0  0  1  0  0  0  0  0  0  0  0  0
  145.9935  141.6333  157.0259 O   0  0  0  0  0  0  0  0  0  0  0  0
  150.5511  138.6258  154.1463 C   0  0  0  0  0  0  0  0  0  0  0  0
  151.4583  137.5426  154.7052 C   0  0  1  0  0  0  0  0  0  0  0  0
  152.5157  137.2653  153.8067 O   0  0  0  0  0  0  0  0  0  0  0  0
  151.1667  138.0971  156.7595 H   0  0  0  0  0  0  0  0  0  0  0  0
  151.4722  140.6486  154.0618 H   0  0  0  0  0  0  0  0  0  0  0  0
  146.9338  143.3664  156.5909 H   0  0  0  0  0  0  0  0  0  0  0  0
  150.9138  136.6157  154.8876 H   0  0  0  0  0  0  0  0  0  0  0  0
  154.1516  137.3426  154.9126 H   0  0  0  0  0  0  0  0  0  0  0  0
  153.1508  136.5258  156.7706 H   0  0  0  0  0  0  0  0  0  0  0  0
  153.4892  138.0441  157.5744 H   0  0  0  0  0  0  0  0  0  0  0  0
  150.8185  140.7269  157.5080 H   0  0  0  0  0  0  0  0  0  0  0  0
  147.1061  140.7731  152.2184 H   0  0  0  0  0  0  0  0  0  0  0  0
  145.2791  141.1380  153.5464 H   0  0  0  0  0  0  0  0  0  0  0  0
  146.5535  143.3605  154.2526 H   0  0  0  0  0  0  0  0  0  0  0  0
  145.0491  142.8163  154.9477 H   0  0  0  0  0  0  0  0  0  0  0  0
  145.4263  141.0839  156.5062 H   0  0  0  0  0  0  0  0  0  0  0  0
  149.5215  138.4609  154.4679 H   0  0  0  0  0  0  0  0  0  0  0  0
  150.5647  138.6898  153.0574 H   0  0  0  0  0  0  0  0  0  0  0  0
  152.1460  137.1069  152.9514 H   0  0  0  0  0  0  0  0  0  0  0  0
  1  2  1  0  0  0  0
  1 24  1  0  0  0  0
  2  3  1  0  0  0  0
  2 25  1  0  0  0  0
  2 26  1  0  0  0  0
  3 20  1  0  0  0  0
  3 18  1  0  0  0  0
  3  4  1  0  0  0  0
  4  5  1  0  0  0  0
  5 21  1  0  0  0  0
  5  6  1  0  0  0  0
  5 17  1  0  0  0  0
  6 10  1  0  0  0  0
  6  7  1  0  0  0  0
  7  8  2  0  0  0  0
  7 27  1  0  0  0  0
  8  9  1  0  0  0  0
  9 15  1  0  0  0  0
  9 10  2  0  0  0  0
 10 11  1  0  0  0  0
 11 12  2  0  0  0  0
 12 13  1  0  0  0  0
 12 28  1  0  0  0  0
 13 14  1  0  0  0  0
 13 29  1  0  0  0  0
 14 15  1  0  0  0  0
 14 30  1  0  0  0  0
 14 31  1  0  0  0  0
 15 22  1  0  0  0  0
 15 16  1  0  0  0  0
 16 32  1  0  0  0  0
 17 18  1  0  0  0  0
 17 33  1  0  0  0  0
 17 34  1  0  0  0  0
 18 23  1  0  0  0  0
 18 19  1  0  0  0  0
 19 35  1  0  0  0  0
M  END
> <s_m_source_file>
AV-unprocessed.smi

> <i_m_source_file_index>
157

> <i_lp_mmshare_version>
43012

> <i_f3d_flags>
0

> <s_epik_input>
W09IXVtDSDJdW0NASF0xT1tDQEhdKFtDSDJdW0NAQEhdMVtPSF0pbihbY0hdbjIpYyhjMjMpTj1bQ0hdW05IXVtDSDJdW0NASF0zW09IXQ==

> <s_epik_cmdline>
J2VwaWtfcHl0aG9uJywgJy1waCcsICc3LjAnLCAnLXRuJywgJzgnLCAnLW1hJywgJzIwMCcsICctbWV0YWxfYmluZGluZycsICctaW1hZScsICc8aW5maWxlLm1hZT4nLCAnLW9tYWUnLCAnPG91dGZpbGUubWFlPic=

> <r_lp_tautomer_probability>
1

> <r_epik_Ionization_Penalty>
0.0357149

> <r_epik_Ionization_Penalty_Charging>
0.0355056

> <r_epik_Ionization_Penalty_Neutral>
0.000209255

> <r_epik_State_Penalty>
0.0296046

> <r_epik_Charging_Adjusted_Penalty>
0.0651102

> <i_epik_Tot_Q>
0

> <i_epik_Tot_abs_Q>
0

> <r_epik_Metal_State_Penalty>
3.03559e-05

> <b_epik_Metal_Only>
0

> <s_epik_Chemistry_Notes>
This compound has an imine and may undergo hydrolysis. This compound contains an acetal/aminal-like group ( X-CH(R)-Y where X, Y are N, S, or O) that may be acid/base labile, releasing an aldehyde.

> <s_lp_Force_Field>
OPLS_2005

> <r_lp_Energy>
44.137

> <b_lp_Chiralities_Consistent>
1

> <s_lp_Variant>
AV-unprocessed.smi:157-11

> <Gold.Version>
5.8.1

> <Gold.Id.Protein>
6NUR|6NUR_protein|mol2

> <Gold.PLP.Fitness>
36.0780

> <Gold.PLP.PLP>
-26.5824

> <Gold.PLP.part.hbond>
-5.3009

> <Gold.PLP.part.metal>
0.0000

> <Gold.PLP.part.buried>
0.2628

> <Gold.PLP.part.nonpolar>
-21.7960

> <Gold.PLP.part.repulsive>
1.9703

> <Gold.PLP.ligand.clash>
0.0000

> <Gold.PLP.ligand.torsion>
0.0240

> <Gold.PLP.Chemscore.Hbond>
2.9624

> <Gold.PLP.Chemscore.CHOScore>
0.2157

> <Gold.PLP.Chemscore.Metal>
0.0000

> <Gold.Chemscore.Hbonds>
donor molecule, donor type, donor heavy atom, donor atom, acceptor molecule, acceptor atom, score
      L1  H    13    29       P1 10175  1.00
      L1  H    19    35       P1  7949  0.89
      P1  H  7997  8010       L1     4  0.13
      P1  H  8011  8017       L1    11  0.16
      P1  H 10752 10765       L1    19  0.68
      L1  C    12    28       P1  7957  0.18

> <Gold.PLP.Chemscore.Internal.Correction>
0.0094

> <Gold.Rescore>
     Score         DG    S(hbond)    S(metal)    S(lipo)     H(rot)  DE(clash)    DE(int)     intcor
      8.47      -9.18       2.72        0.00      33.50       3.64       0.10       0.61       ----

> <Gold.Chemscore.Fitness>
8.4723

> <Gold.Chemscore.DG>
-9.1785

> <Gold.Chemscore.ZeroCoef>
-5.4800

> <Gold.Chemscore.Hbond>
2.7208

> <Gold.Chemscore.Metal>
0.0000

> <Gold.Chemscore.Lipo>
33.5024

> <Gold.Chemscore.Internal_Hbond>
0.0000

> <Gold.Chemscore.DEClash>
0.0967

> <Gold.Chemscore.DEInternal>
0.6095

> <Gold.Chemscore.Rot>
3.6362

> <Gold.Chemscore.Internal.Correction>
   9.000000E+99

> <Gold.Chemscore.Hbonds>
donor molecule, donor type, donor heavy atom, donor atom, acceptor molecule, acceptor atom, score
      L1  H    13    29       P1 10175  0.47
      L1  H    19    35       P1  7949  0.84
      P1  H  7997  8010       L1     4  0.10
      P1  H  8011  8017       L1    11  0.07
      P1  H 10752 10765       L1    19  0.08

> <Gold.Chemscore.Hbond.Weighted>
-9.0874

> <Gold.Chemscore.Metal.Weighted>
-0.0000

> <Gold.Chemscore.Lipo.Weighted>
-3.9198

> <Gold.Chemscore.Internal_Hbond.Weighted>
0.0000

> <Gold.Chemscore.DEClash.Weighted>
0.0967

> <Gold.Chemscore.DEInternal.Weighted>
0.6095

> <Gold.Chemscore.Rot.Weighted>
9.3087

> <Gold.Chemscore.Internal.Correction.Weighted>
   9.000000E+99

> <Gold.Protein.RotatedTorsions>
[ 6907 6896 6895 6894 ] final  -46.98 input  -60.11 | X-H torsion
[ 7974 7965 7964 7962 ] final  137.35 input  175.53 | X-H torsion
[ 8008 7997 7996 7995 ] final   87.46 input   59.86 | X-H torsion
[ 10167 10162 10161 10158 ] final  173.08 input  -65.29 | X-H torsion
[ 10718 10713 10712 10709 ] final   -9.52 input   66.30 | X-H torsion
[ 10763 10752 10751 10750 ] final  155.70 input  -60.55 | X-H torsion
[ 11005 11000 10999 10996 ] final  -64.78 input  -57.11 | X-H torsion

> <Gold.Protein.ActiveResidues>
 VAL166  LYS551  ARG553  GLY616  TRP617  ASP618  TYR619  PRO620  LYS621  CYS622 
 ASP623  PHE694  ASN695  SER759  ASP760  ASP761  ALA762  ILE779  LEU786  VAL792 
 PHE793  MET794  SER795  GLU796  ALA797  LYS798  CYS799  TRP800  GLU811  SER814 

> <Gold.Protein.RotatedAtoms>
  150.9055  134.8470  159.7389 H   0  0  0  0  0  0  0  0  0  0  0  0  # atno 6907 bound_to 6896
  152.4916  134.4437  159.9562 H   0  0  0  0  0  0  0  0  0  0  0  0  # atno 6908 bound_to 6896
  151.4485  133.3585  159.2827 H   0  0  0  0  0  0  0  0  0  0  0  0  # atno 6909 bound_to 6896
  144.9476  139.4856  143.5541 H   0  0  0  0  0  0  0  0  0  0  0  0  # atno 7974 bound_to 7965
  155.9756  140.3382  155.6616 H   0  0  0  0  0  0  0  0  0  0  0  0  # atno 8008 bound_to 7997
  155.6616  140.0717  157.2570 H   0  0  0  0  0  0  0  0  0  0  0  0  # atno 8009 bound_to 7997
  154.4178  140.1707  156.1770 H   0  0  0  0  0  0  0  0  0  0  0  0  # atno 8010 bound_to 7997
  139.5097  144.3301  152.0119 H   0  0  0  0  0  0  0  0  0  0  0  0  # atno 10167 bound_to 10162
  156.6868  130.5053  149.5955 H   0  0  0  0  0  0  0  0  0  0  0  0  # atno 10718 bound_to 10713
  154.1725  135.2804  155.3076 H   0  0  0  0  0  0  0  0  0  0  0  0  # atno 10763 bound_to 10752
  154.6064  135.5513  153.7431 H   0  0  0  0  0  0  0  0  0  0  0  0  # atno 10764 bound_to 10752
  153.0160  135.6404  154.1865 H   0  0  0  0  0  0  0  0  0  0  0  0  # atno 10765 bound_to 10752
  141.1435  133.6671  156.5885 H   0  0  0  0  0  0  0  0  0  0  0  0  # atno 11005 bound_to 11000
  146.3309  139.8539  142.8868 LP  0  0  0  0  0  0  0  0  0  0  0  0  # atno 17320 bound_to 7965
  145.2893  141.0162  143.3672 LP  0  0  0  0  0  0  0  0  0  0  0  0  # atno 17321 bound_to 7965
  140.2741  144.3932  150.6141 LP  0  0  0  0  0  0  0  0  0  0  0  0  # atno 17342 bound_to 10162
  140.6067  143.2168  151.6968 LP  0  0  0  0  0  0  0  0  0  0  0  0  # atno 17343 bound_to 10162
  156.1827  130.6509  151.0970 LP  0  0  0  0  0  0  0  0  0  0  0  0  # atno 17370 bound_to 10713
  157.7023  131.0771  150.6779 LP  0  0  0  0  0  0  0  0  0  0  0  0  # atno 17371 bound_to 10713
  140.3782  134.7547  157.4643 LP  0  0  0  0  0  0  0  0  0  0  0  0  # atno 17394 bound_to 11000
  140.0658  134.5931  155.8697 LP  0  0  0  0  0  0  0  0  0  0  0  0  # atno 17395 bound_to 11000

$$$$
