AV-unprocessed.smi:1824|AV-procd|sdf|7403|dock1
  -GOLD-   22720 9 73D 1   1.00000     0.00000
 Structure written by MMmdl.
 45 47  0  0  0  0  0  0  0  0  2 V2000
  145.5887  133.6651  154.5416 C   0  0  0  0  0  0  0  0  0  0  0  0
  145.9973  134.1724  153.1543 C   0  0  2  0  0  0  0  0  0  0  0  0
  145.7636  135.6868  152.9963 C   0  0  0  0  0  0  0  0  0  0  0  0
  146.0980  136.1235  151.6204 N   0  3  2  0  0  0  0  0  0  0  0  0
  145.9553  137.5906  151.4380 C   0  0  0  0  0  0  0  0  0  0  0  0
  146.3327  138.3855  152.7038 C   0  0  2  0  0  0  0  0  0  0  0  0
  145.1583  138.6192  153.4577 O   0  0  0  0  0  0  0  0  0  0  0  0
  146.9923  139.7334  152.3547 C   0  0  0  0  0  0  0  0  0  0  0  0
  147.1628  140.5875  153.5170 N   0  0  0  0  0  0  0  0  0  0  0  0
  146.2965  141.5108  153.9766 C   0  0  0  0  0  0  0  0  0  0  0  0
  146.6503  142.1903  155.0635 N   0  0  0  0  0  0  0  0  0  0  0  0
  147.8891  141.6413  155.3467 C   0  0  0  0  0  0  0  0  0  0  0  0
  148.8021  141.9259  156.3871 C   0  0  0  0  0  0  0  0  0  0  0  0
  150.0248  141.2281  156.4758 C   0  0  0  0  0  0  0  0  0  0  0  0
  150.8883  141.5129  157.4790 F   0  0  0  0  0  0  0  0  0  0  0  0
  150.3523  140.2373  155.5261 C   0  0  0  0  0  0  0  0  0  0  0  0
  151.5283  139.5727  155.6178 F   0  0  0  0  0  0  0  0  0  0  0  0
  149.4585  139.9371  154.4802 C   0  0  0  0  0  0  0  0  0  0  0  0
  148.2393  140.6346  154.3969 C   0  0  0  0  0  0  0  0  0  0  0  0
  145.3394  135.3232  150.6275 C   0  0  0  0  0  0  0  0  0  0  0  0
  145.5842  133.8184  150.8482 C   0  0  2  0  0  0  0  0  0  0  0  0
  144.7559  132.9509  149.8940 C   0  0  0  0  0  0  0  0  0  0  0  0
  145.2219  133.4795  152.1823 O   0  0  0  0  0  0  0  0  0  0  0  0
  146.1586  134.1637  155.3258 H   0  0  0  0  0  0  0  0  0  0  0  0
  145.7668  132.5933  154.6320 H   0  0  0  0  0  0  0  0  0  0  0  0
  144.5298  133.8435  154.7317 H   0  0  0  0  0  0  0  0  0  0  0  0
  147.0535  133.9450  153.0000 H   0  0  0  0  0  0  0  0  0  0  0  0
  144.7233  135.9352  153.2139 H   0  0  0  0  0  0  0  0  0  0  0  0
  146.3809  136.2290  153.7139 H   0  0  0  0  0  0  0  0  0  0  0  0
  146.5639  137.9076  150.5898 H   0  0  0  0  0  0  0  0  0  0  0  0
  144.9233  137.8301  151.1754 H   0  0  0  0  0  0  0  0  0  0  0  0
  147.0246  137.8129  153.3210 H   0  0  0  0  0  0  0  0  0  0  0  0
  144.7169  139.3751  153.1001 H   0  0  0  0  0  0  0  0  0  0  0  0
  147.9742  139.5663  151.9099 H   0  0  0  0  0  0  0  0  0  0  0  0
  146.4020  140.2693  151.6100 H   0  0  0  0  0  0  0  0  0  0  0  0
  145.3534  141.6967  153.4835 H   0  0  0  0  0  0  0  0  0  0  0  0
  148.5623  142.6825  157.1193 H   0  0  0  0  0  0  0  0  0  0  0  0
  149.7086  139.1798  153.7524 H   0  0  0  0  0  0  0  0  0  0  0  0
  144.2749  135.5468  150.7167 H   0  0  0  0  0  0  0  0  0  0  0  0
  145.6372  135.5923  149.6147 H   0  0  0  0  0  0  0  0  0  0  0  0
  146.6405  133.5911  150.6937 H   0  0  0  0  0  0  0  0  0  0  0  0
  145.0051  133.1624  148.8538 H   0  0  0  0  0  0  0  0  0  0  0  0
  143.6879  133.1275  150.0252 H   0  0  0  0  0  0  0  0  0  0  0  0
  144.9419  131.8913  150.0702 H   0  0  0  0  0  0  0  0  0  0  0  0
  147.0777  135.9144  151.4886 H   0  0  0  0  0  0  0  0  0  0  0  0
  1  2  1  0  0  0  0
  1 24  1  0  0  0  0
  1 25  1  0  0  0  0
  1 26  1  0  0  0  0
  2 23  1  0  0  0  0
  2  3  1  0  0  0  0
  2 27  1  0  0  0  0
  3  4  1  0  0  0  0
  3 28  1  0  0  0  0
  3 29  1  0  0  0  0
  4  5  1  0  0  0  0
  4 20  1  0  0  0  0
  4 45  1  0  0  0  0
  5  6  1  0  0  0  0
  5 30  1  0  0  0  0
  5 31  1  0  0  0  0
  6  7  1  0  0  0  0
  6  8  1  0  0  0  0
  6 32  1  0  0  0  0
  7 33  1  0  0  0  0
  8  9  1  0  0  0  0
  8 34  1  0  0  0  0
  8 35  1  0  0  0  0
  9 19  1  0  0  0  0
  9 10  1  0  0  0  0
 10 11  2  0  0  0  0
 10 36  1  0  0  0  0
 11 12  1  0  0  0  0
 12 19  2  0  0  0  0
 12 13  1  0  0  0  0
 13 14  2  0  0  0  0
 13 37  1  0  0  0  0
 14 15  1  0  0  0  0
 14 16  1  0  0  0  0
 16 17  1  0  0  0  0
 16 18  2  0  0  0  0
 18 19  1  0  0  0  0
 18 38  1  0  0  0  0
 20 21  1  0  0  0  0
 20 39  1  0  0  0  0
 20 40  1  0  0  0  0
 21 22  1  0  0  0  0
 21 23  1  0  0  0  0
 21 41  1  0  0  0  0
 22 42  1  0  0  0  0
 22 43  1  0  0  0  0
 22 44  1  0  0  0  0
M  CHG  1   4   1
M  END
> <s_m_source_file>
AV-unprocessed.smi

> <i_m_source_file_index>
1824

> <i_lp_mmshare_version>
43012

> <i_f3d_flags>
0

> <s_epik_input>
W0NIM11bQ0BASF0xW0NIMl1OKFtDSDJdW0NASF0oTzEpW0NIM10pW0NIMl1bQ0BIXShbT0hdKVtDSDJdbihbY0hdbjIpYyhjMjMpW2NIXWMoRiljKEYpW2NIXTM=

> <s_epik_cmdline>
J2VwaWtfcHl0aG9uJywgJy1waCcsICc3LjAnLCAnLXRuJywgJzgnLCAnLW1hJywgJzIwMCcsICctbWV0YWxfYmluZGluZycsICctaW1hZScsICc8aW5maWxlLm1hZT4nLCAnLW9tYWUnLCAnPG91dGZpbGUubWFlPic=

> <r_epik_Ionization_Penalty>
0.61967

> <r_epik_Ionization_Penalty_Charging>
0.608065

> <r_epik_Ionization_Penalty_Neutral>
0.0116057

> <r_epik_State_Penalty>
0.664205

> <r_epik_Charging_Adjusted_Penalty>
1.27227

> <i_epik_Tot_Q>
1

> <i_epik_Tot_abs_Q>
1

> <r_epik_Metal_State_Penalty>
0.654947

> <b_epik_Metal_Only>
0

> <s_lp_Force_Field>
OPLS_2005

> <r_lp_Energy>
19.9364

> <b_lp_Chiralities_Consistent>
1

> <s_lp_Variant>
AV-unprocessed.smi:1824-11

> <Gold.Version>
5.8.1

> <Gold.Id.Protein>
6NUR|6NUR_protein|mol2

> <Gold.PLP.Fitness>
49.2558

> <Gold.PLP.PLP>
-39.6325

> <Gold.PLP.part.hbond>
-2.0000

> <Gold.PLP.part.metal>
0.0000

> <Gold.PLP.part.buried>
1.3073

> <Gold.PLP.part.nonpolar>
-39.8682

> <Gold.PLP.part.repulsive>
0.2698

> <Gold.PLP.ligand.clash>
0.0000

> <Gold.PLP.ligand.torsion>
1.0987

> <Gold.PLP.Chemscore.Hbond>
2.9200

> <Gold.PLP.Chemscore.CHOScore>
0.9581

> <Gold.PLP.Chemscore.Metal>
0.0000

> <Gold.Chemscore.Hbonds>
donor molecule, donor type, donor heavy atom, donor atom, acceptor molecule, acceptor atom, score
      L1  H     4    45       P1  7948  2.00
      L1  H     7    33       P1 10175  1.00
      L1  C    10    36       P1 10175  0.61

> <Gold.PLP.Chemscore.Internal.Correction>
0.1863

> <Gold.Rescore>
     Score         DG    S(hbond)    S(metal)    S(lipo)     H(rot)  DE(clash)    DE(int)     intcor
     13.42     -16.61       1.93        0.00      90.96       2.33       2.05       1.14       ----

> <Gold.Chemscore.Fitness>
13.4205

> <Gold.Chemscore.DG>
-16.6088

> <Gold.Chemscore.ZeroCoef>
-5.4800

> <Gold.Chemscore.Hbond>
1.9279

> <Gold.Chemscore.Metal>
0.0000

> <Gold.Chemscore.Lipo>
90.9567

> <Gold.Chemscore.Internal_Hbond>
0.0000

> <Gold.Chemscore.DEClash>
2.0478

> <Gold.Chemscore.DEInternal>
1.1405

> <Gold.Chemscore.Rot>
2.3251

> <Gold.Chemscore.Internal.Correction>
   9.000000E+99

> <Gold.Chemscore.Hbonds>
donor molecule, donor type, donor heavy atom, donor atom, acceptor molecule, acceptor atom, score
      L1  H     4    45       P1  7948  0.97
      L1  H     7    33       P1 10175  0.99

> <Gold.Chemscore.Hbond.Weighted>
-6.4392

> <Gold.Chemscore.Metal.Weighted>
-0.0000

> <Gold.Chemscore.Lipo.Weighted>
-10.6419

> <Gold.Chemscore.Internal_Hbond.Weighted>
0.0000

> <Gold.Chemscore.DEClash.Weighted>
2.0478

> <Gold.Chemscore.DEInternal.Weighted>
1.1405

> <Gold.Chemscore.Rot.Weighted>
5.9523

> <Gold.Chemscore.Internal.Correction.Weighted>
   9.000000E+99

> <Gold.Protein.RotatedTorsions>
[ 6907 6896 6895 6894 ] final   81.31 input  -60.11 | X-H torsion
[ 7974 7965 7964 7962 ] final   93.81 input  175.53 | X-H torsion
[ 8008 7997 7996 7995 ] final  174.57 input   59.86 | X-H torsion
[ 10167 10162 10161 10158 ] final  173.29 input  -65.29 | X-H torsion
[ 10718 10713 10712 10709 ] final  147.24 input   66.30 | X-H torsion
[ 10763 10752 10751 10750 ] final   73.35 input  -60.55 | X-H torsion
[ 11005 11000 10999 10996 ] final  100.04 input  -57.11 | X-H torsion

> <Gold.Protein.ActiveResidues>
 VAL166  LYS551  ARG553  GLY616  TRP617  ASP618  TYR619  PRO620  LYS621  CYS622 
 ASP623  PHE694  ASN695  SER759  ASP760  ASP761  ALA762  ILE779  LEU786  VAL792 
 PHE793  MET794  SER795  GLU796  ALA797  LYS798  CYS799  TRP800  GLU811  SER814 

> <Gold.Protein.RotatedAtoms>
  152.5264  134.3224  159.9152 H   0  0  0  0  0  0  0  0  0  0  0  0  # atno 6907 bound_to 6896
  151.3173  133.4048  159.2659 H   0  0  0  0  0  0  0  0  0  0  0  0  # atno 6908 bound_to 6896
  150.9988  134.9322  159.7999 H   0  0  0  0  0  0  0  0  0  0  0  0  # atno 6909 bound_to 6896
  145.4739  139.2281  143.2920 H   0  0  0  0  0  0  0  0  0  0  0  0  # atno 7974 bound_to 7965
  156.0960  140.1431  156.9530 H   0  0  0  0  0  0  0  0  0  0  0  0  # atno 8008 bound_to 7997
  154.4672  140.0922  156.7096 H   0  0  0  0  0  0  0  0  0  0  0  0  # atno 8009 bound_to 7997
  155.4840  140.3446  155.4346 H   0  0  0  0  0  0  0  0  0  0  0  0  # atno 8010 bound_to 7997
  139.5103  144.3277  152.0141 H   0  0  0  0  0  0  0  0  0  0  0  0  # atno 10167 bound_to 10162
  157.3234  131.0908  151.1222 H   0  0  0  0  0  0  0  0  0  0  0  0  # atno 10718 bound_to 10713
  153.0516  135.5066  154.7881 H   0  0  0  0  0  0  0  0  0  0  0  0  # atno 10763 bound_to 10752
  154.6739  135.2957  154.9707 H   0  0  0  0  0  0  0  0  0  0  0  0  # atno 10764 bound_to 10752
  154.0516  135.6703  153.4854 H   0  0  0  0  0  0  0  0  0  0  0  0  # atno 10765 bound_to 10752
  139.8771  134.9122  156.4696 H   0  0  0  0  0  0  0  0  0  0  0  0  # atno 11005 bound_to 11000
  146.2380  140.5520  142.8946 LP  0  0  0  0  0  0  0  0  0  0  0  0  # atno 17320 bound_to 7965
  144.7929  140.6066  143.6530 LP  0  0  0  0  0  0  0  0  0  0  0  0  # atno 17321 bound_to 7965
  140.2718  144.3956  150.6149 LP  0  0  0  0  0  0  0  0  0  0  0  0  # atno 17342 bound_to 10162
  140.6083  143.2168  151.6937 LP  0  0  0  0  0  0  0  0  0  0  0  0  # atno 17343 bound_to 10162
  157.2498  130.6609  149.5926 LP  0  0  0  0  0  0  0  0  0  0  0  0  # atno 17370 bound_to 10713
  155.9688  130.4542  150.5840 LP  0  0  0  0  0  0  0  0  0  0  0  0  # atno 17371 bound_to 10713
  140.8805  133.7921  155.9462 LP  0  0  0  0  0  0  0  0  0  0  0  0  # atno 17394 bound_to 11000
  140.8858  134.2555  157.5120 LP  0  0  0  0  0  0  0  0  0  0  0  0  # atno 17395 bound_to 11000

$$$$
