AV-unprocessed.smi:3330|AV-procd|sdf|12805|dock1
  -GOLD-   2272019173D 1   1.00000     0.00000
 Structure written by MMmdl.
 38 39  0  0  0  0  0  0  0  0  1 V2000
  152.6473  139.6659  158.4941 C   0  0  0  0  0  0  0  0  0  0  0  0
  151.1255  139.8450  158.3269 C   0  0  2  0  0  0  0  0  0  0  0  0
  150.6021  138.7055  157.5777 N   0  0  0  0  0  0  0  0  0  0  0  0
  150.8120  137.4424  158.2675 C   0  0  0  0  0  0  0  0  0  0  0  0
  151.4839  136.4492  157.3079 C   0  0  0  0  0  0  0  0  0  0  0  0
  150.5169  135.8967  156.3568 N   0  0  0  0  0  0  0  0  0  0  0  0
  149.5456  135.0344  156.6835 C   0  0  0  0  0  0  0  0  0  0  0  0
  149.3043  134.5620  157.7939 O   0  0  0  0  0  0  0  0  0  0  0  0
  148.7483  134.7167  155.4373 C   0  0  0  0  0  0  0  0  0  0  0  0
  149.4583  135.5454  154.4868 N   0  0  0  0  0  0  0  0  0  0  0  0
  150.4714  136.2159  155.0504 C   0  0  0  0  0  0  0  0  0  0  0  0
  151.2219  136.9919  154.4605 O   0  0  0  0  0  0  0  0  0  0  0  0
  150.7464  141.1492  157.5733 C   0  0  2  0  0  0  0  0  0  0  0  0
  151.1415  141.1275  156.0839 C   0  0  0  0  0  0  0  0  0  0  0  0
  151.3245  142.3223  158.2220 N   0  0  0  0  0  0  0  0  0  0  0  0
  151.2612  143.6388  157.8137 C   0  0  0  0  0  0  0  0  0  0  0  0
  151.9239  144.3882  158.7430 C   0  0  0  0  0  0  0  0  0  0  0  0
  152.3617  143.4305  159.6992 C   0  0  0  0  0  0  0  0  0  0  0  0
  152.0015  142.1967  159.3867 N   0  0  0  0  0  0  0  0  0  0  0  0
  153.0742  140.4515  159.1167 H   0  0  0  0  0  0  0  0  0  0  0  0
  153.1588  139.6893  157.5311 H   0  0  0  0  0  0  0  0  0  0  0  0
  152.8958  138.7216  158.9781 H   0  0  0  0  0  0  0  0  0  0  0  0
  150.6584  139.8728  159.3127 H   0  0  0  0  0  0  0  0  0  0  0  0
  151.0020  138.6791  156.6506 H   0  0  0  0  0  0  0  0  0  0  0  0
  151.4332  137.5917  159.1505 H   0  0  0  0  0  0  0  0  0  0  0  0
  149.8528  137.0447  158.6020 H   0  0  0  0  0  0  0  0  0  0  0  0
  152.2927  136.9429  156.7654 H   0  0  0  0  0  0  0  0  0  0  0  0
  151.9551  135.6422  157.8723 H   0  0  0  0  0  0  0  0  0  0  0  0
  148.8119  133.6597  155.1766 H   0  0  0  0  0  0  0  0  0  0  0  0
  147.7057  135.0200  155.5367 H   0  0  0  0  0  0  0  0  0  0  0  0
  149.2038  135.6072  153.5117 H   0  0  0  0  0  0  0  0  0  0  0  0
  149.6620  141.2659  157.6161 H   0  0  0  0  0  0  0  0  0  0  0  0
  150.5821  140.3745  155.5299 H   0  0  0  0  0  0  0  0  0  0  0  0
  152.2037  140.9172  155.9543 H   0  0  0  0  0  0  0  0  0  0  0  0
  150.9334  142.0881  155.6115 H   0  0  0  0  0  0  0  0  0  0  0  0
  150.7513  143.9300  156.9073 H   0  0  0  0  0  0  0  0  0  0  0  0
  152.0703  145.4580  158.7420 H   0  0  0  0  0  0  0  0  0  0  0  0
  152.9255  143.5943  160.6057 H   0  0  0  0  0  0  0  0  0  0  0  0
  1  2  1  0  0  0  0
  1 20  1  0  0  0  0
  1 21  1  0  0  0  0
  1 22  1  0  0  0  0
  2  3  1  0  0  0  0
  2 13  1  0  0  0  0
  2 23  1  0  0  0  0
  3  4  1  0  0  0  0
  3 24  1  0  0  0  0
  4  5  1  0  0  0  0
  4 25  1  0  0  0  0
  4 26  1  0  0  0  0
  5  6  1  0  0  0  0
  5 27  1  0  0  0  0
  5 28  1  0  0  0  0
  6 11  1  0  0  0  0
  6  7  1  0  0  0  0
  7  8  2  0  0  0  0
  7  9  1  0  0  0  0
  9 10  1  0  0  0  0
  9 29  1  0  0  0  0
  9 30  1  0  0  0  0
 10 11  1  0  0  0  0
 10 31  1  0  0  0  0
 11 12  2  0  0  0  0
 13 14  1  0  0  0  0
 13 15  1  0  0  0  0
 13 32  1  0  0  0  0
 14 33  1  0  0  0  0
 14 34  1  0  0  0  0
 14 35  1  0  0  0  0
 15 19  1  0  0  0  0
 15 16  1  0  0  0  0
 16 17  2  0  0  0  0
 16 36  1  0  0  0  0
 17 18  1  0  0  0  0
 17 37  1  0  0  0  0
 18 19  2  0  0  0  0
 18 38  1  0  0  0  0
M  END
> <s_m_source_file>
AV-unprocessed.smi

> <i_m_source_file_index>
3330

> <i_lp_mmshare_version>
43012

> <i_f3d_flags>
0

> <s_epik_input>
bjFbY0hdW2NIXVtjSF1uMVtDQEBIXShbQ0gzXSlbQ0BIXShbQ0gzXSlbTkhdW0NIMl1bQ0gyXU4yQyg9TylbQ0gyXVtOSF1DMj1P

> <s_epik_cmdline>
J2VwaWtfcHl0aG9uJywgJy1waCcsICc3LjAnLCAnLXRuJywgJzgnLCAnLW1hJywgJzIwMCcsICctbWV0YWxfYmluZGluZycsICctaW1hZScsICc8aW5maWxlLm1hZT4nLCAnLW9tYWUnLCAnPG91dGZpbGUubWFlPic=

> <r_lp_tautomer_probability>
1

> <r_epik_Ionization_Penalty>
2.2997

> <r_epik_Ionization_Penalty_Charging>
0

> <r_epik_Ionization_Penalty_Neutral>
2.2997

> <r_epik_State_Penalty>
2.44917

> <r_epik_Charging_Adjusted_Penalty>
2.44917

> <i_epik_Tot_Q>
0

> <i_epik_Tot_abs_Q>
0

> <r_epik_Metal_State_Penalty>
2.52438

> <b_epik_Metal_Only>
0

> <s_lp_Force_Field>
OPLS_2005

> <r_lp_Energy>
24.6484

> <b_lp_Chiralities_Consistent>
1

> <s_lp_Variant>
AV-unprocessed.smi:3330-5

> <Gold.Version>
5.8.1

> <Gold.Id.Protein>
6NUR|6NUR_protein|mol2

> <Gold.PLP.Fitness>
42.3881

> <Gold.PLP.PLP>
-31.5960

> <Gold.PLP.part.hbond>
-3.0000

> <Gold.PLP.part.metal>
0.0000

> <Gold.PLP.part.buried>
-4.7859

> <Gold.PLP.part.nonpolar>
-24.5954

> <Gold.PLP.part.repulsive>
0.5792

> <Gold.PLP.ligand.clash>
0.0000

> <Gold.PLP.ligand.torsion>
0.7164

> <Gold.PLP.Chemscore.Hbond>
3.0000

> <Gold.PLP.Chemscore.CHOScore>
1.0000

> <Gold.PLP.Chemscore.Metal>
0.0000

> <Gold.Chemscore.Hbonds>
donor molecule, donor type, donor heavy atom, donor atom, acceptor molecule, acceptor atom, score
      L1  H    10    31       P1  7948  1.00
      P1  H  6896  6907       L1     8  0.70
      P1  H 10752 10765       L1    12  0.57
      L1  C    16    36       P1  8028  1.00

> <Gold.PLP.Chemscore.Internal.Correction>
0.2249

> <Gold.Rescore>
     Score         DG    S(hbond)    S(metal)    S(lipo)     H(rot)  DE(clash)    DE(int)     intcor
     13.25     -15.45       2.44        0.00      72.25       2.60       0.09       2.11       ----

> <Gold.Chemscore.Fitness>
13.2521

> <Gold.Chemscore.DG>
-15.4520

> <Gold.Chemscore.ZeroCoef>
-5.4800

> <Gold.Chemscore.Hbond>
2.4438

> <Gold.Chemscore.Metal>
0.0000

> <Gold.Chemscore.Lipo>
72.2514

> <Gold.Chemscore.Internal_Hbond>
0.0000

> <Gold.Chemscore.DEClash>
0.0905

> <Gold.Chemscore.DEInternal>
2.1094

> <Gold.Chemscore.Rot>
2.5952

> <Gold.Chemscore.Internal.Correction>
   9.000000E+99

> <Gold.Chemscore.Hbonds>
donor molecule, donor type, donor heavy atom, donor atom, acceptor molecule, acceptor atom, score
      L1  H    10    31       P1  7948  0.55
      P1  H  6896  6907       L1     8  0.67
      P1  H 10752 10765       L1    12  0.13

> <Gold.Chemscore.Hbond.Weighted>
-8.1624

> <Gold.Chemscore.Metal.Weighted>
-0.0000

> <Gold.Chemscore.Lipo.Weighted>
-8.4534

> <Gold.Chemscore.Internal_Hbond.Weighted>
0.0000

> <Gold.Chemscore.DEClash.Weighted>
0.0905

> <Gold.Chemscore.DEInternal.Weighted>
2.1094

> <Gold.Chemscore.Rot.Weighted>
6.6437

> <Gold.Chemscore.Internal.Correction.Weighted>
   9.000000E+99

> <Gold.Protein.RotatedTorsions>
[ 6907 6896 6895 6894 ] final -111.21 input  -60.11 | X-H torsion
[ 7974 7965 7964 7962 ] final   40.44 input  175.53 | X-H torsion
[ 8008 7997 7996 7995 ] final  172.47 input   59.86 | X-H torsion
[ 10167 10162 10161 10158 ] final -124.42 input  -65.29 | X-H torsion
[ 10718 10713 10712 10709 ] final -146.73 input   66.30 | X-H torsion
[ 10763 10752 10751 10750 ] final  157.66 input  -60.55 | X-H torsion
[ 11005 11000 10999 10996 ] final -147.42 input  -57.11 | X-H torsion

> <Gold.Protein.ActiveResidues>
 VAL166  LYS551  ARG553  GLY616  TRP617  ASP618  TYR619  PRO620  LYS621  CYS622 
 ASP623  PHE694  ASN695  SER759  ASP760  ASP761  ALA762  ILE779  LEU786  VAL792 
 PHE793  MET794  SER795  GLU796  ALA797  LYS798  CYS799  TRP800  GLU811  SER814 

> <Gold.Protein.RotatedAtoms>
  150.7675  133.9269  159.3414 H   0  0  0  0  0  0  0  0  0  0  0  0  # atno 6907 bound_to 6896
  151.7163  135.0901  160.0286 H   0  0  0  0  0  0  0  0  0  0  0  0  # atno 6908 bound_to 6896
  152.3678  133.6341  159.6099 H   0  0  0  0  0  0  0  0  0  0  0  0  # atno 6909 bound_to 6896
  146.0905  139.5533  142.9479 H   0  0  0  0  0  0  0  0  0  0  0  0  # atno 7974 bound_to 7965
  156.1171  140.1485  156.9257 H   0  0  0  0  0  0  0  0  0  0  0  0  # atno 8008 bound_to 7997
  154.4808  140.0880  156.7415 H   0  0  0  0  0  0  0  0  0  0  0  0  # atno 8009 bound_to 7997
  155.4494  140.3434  155.4301 H   0  0  0  0  0  0  0  0  0  0  0  0  # atno 8010 bound_to 7997
  139.9930  143.5620  152.2334 H   0  0  0  0  0  0  0  0  0  0  0  0  # atno 10167 bound_to 10162
  156.3986  130.7922  151.2131 H   0  0  0  0  0  0  0  0  0  0  0  0  # atno 10718 bound_to 10713
  154.2037  135.2789  155.2982 H   0  0  0  0  0  0  0  0  0  0  0  0  # atno 10763 bound_to 10752
  154.5834  135.5582  153.7210 H   0  0  0  0  0  0  0  0  0  0  0  0  # atno 10764 bound_to 10752
  153.0081  135.6350  154.2176 H   0  0  0  0  0  0  0  0  0  0  0  0  # atno 10765 bound_to 10752
  140.7718  134.3180  157.5072 H   0  0  0  0  0  0  0  0  0  0  0  0  # atno 11005 bound_to 11000
  145.6049  141.0349  143.1998 LP  0  0  0  0  0  0  0  0  0  0  0  0  # atno 17320 bound_to 7965
  144.7356  139.7595  143.7330 LP  0  0  0  0  0  0  0  0  0  0  0  0  # atno 17321 bound_to 7965
  139.6326  144.7646  151.2504 LP  0  0  0  0  0  0  0  0  0  0  0  0  # atno 17342 bound_to 10162
  140.7447  143.6453  150.8297 LP  0  0  0  0  0  0  0  0  0  0  0  0  # atno 17343 bound_to 10162
  157.7503  131.0294  150.4090 LP  0  0  0  0  0  0  0  0  0  0  0  0  # atno 17370 bound_to 10713
  156.4365  130.3982  149.6726 LP  0  0  0  0  0  0  0  0  0  0  0  0  # atno 17371 bound_to 10713
  139.8754  134.9265  156.3403 LP  0  0  0  0  0  0  0  0  0  0  0  0  # atno 17394 bound_to 11000
  140.9566  133.7416  156.0344 LP  0  0  0  0  0  0  0  0  0  0  0  0  # atno 17395 bound_to 11000

$$$$
