AV-unprocessed.smi:460|AV-procd|sdf|2629|dock7
  -GOLD-   2262023 33D 1   1.00000     0.00000
 Structure written by MMmdl.
 47 49  0  0  0  0  0  0  0  0  2 V2000
  147.2578  141.1758  153.4729 C   0  0  0  0  0  0  0  0  0  0  0  0
  148.4741  141.7532  154.2107 C   0  0  0  0  0  0  0  0  0  0  0  0
  149.3616  140.6861  154.8787 C   0  0  1  0  0  0  0  0  0  0  0  0
  150.1584  140.0819  153.8819 O   0  0  0  0  0  0  0  0  0  0  0  0
  150.2002  141.2657  155.9783 C   0  0  0  0  0  0  0  0  0  0  0  0
  150.2837  142.5888  156.2978 N   0  3  0  0  0  0  0  0  0  0  0  0
  151.1625  142.7651  157.3661 C   0  0  0  0  0  0  0  0  0  0  0  0
  151.5702  143.9179  158.0301 C   0  0  0  0  0  0  0  0  0  0  0  0
  152.4924  143.7483  159.0837 C   0  0  0  0  0  0  0  0  0  0  0  0
  152.9732  142.4715  159.4402 C   0  0  0  0  0  0  0  0  0  0  0  0
  152.5511  141.3099  158.7601 C   0  0  0  0  0  0  0  0  0  0  0  0
  151.6373  141.4863  157.7213 C   0  0  0  0  0  0  0  0  0  0  0  0
  151.0113  140.5917  156.8463 N   0  0  0  0  0  0  0  0  0  0  0  0
  151.3094  139.1560  156.9589 C   0  0  0  0  0  0  0  0  0  0  0  0
  152.1001  138.6375  155.7501 C   0  0  0  0  0  0  0  0  0  0  0  0
  152.2696  137.2327  155.8843 O   0  0  0  0  0  0  0  0  0  0  0  0
  151.1644  136.4172  155.7698 C   0  0  0  0  0  0  0  0  0  0  0  0
  149.9080  136.8599  155.2846 C   0  0  0  0  0  0  0  0  0  0  0  0
  148.8238  135.9683  155.1952 C   0  0  0  0  0  0  0  0  0  0  0  0
  148.9819  134.6285  155.5884 C   0  0  0  0  0  0  0  0  0  0  0  0
  150.2246  134.1791  156.0704 C   0  0  0  0  0  0  0  0  0  0  0  0
  151.3248  135.0689  156.1648 C   0  0  0  0  0  0  0  0  0  0  0  0
  152.5698  134.6986  156.6309 O   0  0  0  0  0  0  0  0  0  0  0  0
  152.8040  133.3255  156.9068 C   0  0  0  0  0  0  0  0  0  0  0  0
  146.6888  141.9690  152.9876 H   0  0  0  0  0  0  0  0  0  0  0  0
  146.5824  140.6570  154.1535 H   0  0  0  0  0  0  0  0  0  0  0  0
  147.5656  140.4701  152.7010 H   0  0  0  0  0  0  0  0  0  0  0  0
  149.0721  142.3186  153.4946 H   0  0  0  0  0  0  0  0  0  0  0  0
  148.1341  142.4733  154.9562 H   0  0  0  0  0  0  0  0  0  0  0  0
  148.7274  139.9004  155.2887 H   0  0  0  0  0  0  0  0  0  0  0  0
  149.6684  140.0741  153.0732 H   0  0  0  0  0  0  0  0  0  0  0  0
  151.2052  144.8971  157.7566 H   0  0  0  0  0  0  0  0  0  0  0  0
  152.8390  144.6149  159.6280 H   0  0  0  0  0  0  0  0  0  0  0  0
  153.6807  142.3805  160.2516 H   0  0  0  0  0  0  0  0  0  0  0  0
  152.9276  140.3372  159.0397 H   0  0  0  0  0  0  0  0  0  0  0  0
  151.8464  138.9727  157.8899 H   0  0  0  0  0  0  0  0  0  0  0  0
  150.3627  138.6230  157.0440 H   0  0  0  0  0  0  0  0  0  0  0  0
  151.5565  138.8662  154.8321 H   0  0  0  0  0  0  0  0  0  0  0  0
  153.0694  139.1360  155.7043 H   0  0  0  0  0  0  0  0  0  0  0  0
  149.7503  137.8806  154.9714 H   0  0  0  0  0  0  0  0  0  0  0  0
  147.8700  136.3132  154.8238 H   0  0  0  0  0  0  0  0  0  0  0  0
  148.1493  133.9438  155.5201 H   0  0  0  0  0  0  0  0  0  0  0  0
  150.3076  133.1435  156.3632 H   0  0  0  0  0  0  0  0  0  0  0  0
  153.8277  133.1992  157.2583 H   0  0  0  0  0  0  0  0  0  0  0  0
  152.6855  132.7126  156.0124 H   0  0  0  0  0  0  0  0  0  0  0  0
  152.1396  132.9572  157.6896 H   0  0  0  0  0  0  0  0  0  0  0  0
  149.7777  143.3159  155.8088 H   0  0  0  0  0  0  0  0  0  0  0  0
  1  2  1  0  0  0  0
  1 25  1  0  0  0  0
  1 26  1  0  0  0  0
  1 27  1  0  0  0  0
  2  3  1  0  0  0  0
  2 28  1  0  0  0  0
  2 29  1  0  0  0  0
  3  4  1  0  0  0  0
  3  5  1  0  0  0  0
  3 30  1  0  0  0  0
  4 31  1  0  0  0  0
  5 13  1  0  0  0  0
  5  6  2  0  0  0  0
  6  7  1  0  0  0  0
  6 47  1  0  0  0  0
  7 12  2  0  0  0  0
  7  8  1  0  0  0  0
  8  9  2  0  0  0  0
  8 32  1  0  0  0  0
  9 10  1  0  0  0  0
  9 33  1  0  0  0  0
 10 11  2  0  0  0  0
 10 34  1  0  0  0  0
 11 12  1  0  0  0  0
 11 35  1  0  0  0  0
 12 13  1  0  0  0  0
 13 14  1  0  0  0  0
 14 15  1  0  0  0  0
 14 36  1  0  0  0  0
 14 37  1  0  0  0  0
 15 16  1  0  0  0  0
 15 38  1  0  0  0  0
 15 39  1  0  0  0  0
 16 17  1  0  0  0  0
 17 22  1  0  0  0  0
 17 18  2  0  0  0  0
 18 19  1  0  0  0  0
 18 40  1  0  0  0  0
 19 20  2  0  0  0  0
 19 41  1  0  0  0  0
 20 21  1  0  0  0  0
 20 42  1  0  0  0  0
 21 22  2  0  0  0  0
 21 43  1  0  0  0  0
 22 23  1  0  0  0  0
 23 24  1  0  0  0  0
 24 44  1  0  0  0  0
 24 45  1  0  0  0  0
 24 46  1  0  0  0  0
M  CHG  1   6   1
M  END
> <s_m_source_file>
AV-unprocessed.smi

> <i_m_source_file_index>
460

> <i_lp_mmshare_version>
43012

> <i_f3d_flags>
0

> <s_epik_input>
W2NIXTFbY0hdW2NIXVtjSF1jKGMxMiluKGMobjIpW0NAQEhdKFtPSF0pW0NIMl1bQ0gzXSlbQ0gyXVtDSDJdT2MzW2NIXVtjSF1bY0hdW2NIXWMzT1tDSDNd

> <s_epik_cmdline>
J2VwaWtfcHl0aG9uJywgJy1waCcsICc3LjAnLCAnLXRuJywgJzgnLCAnLW1hJywgJzIwMCcsICctbWV0YWxfYmluZGluZycsICctaW1hZScsICc8aW5maWxlLm1hZT4nLCAnLW9tYWUnLCAnPG91dGZpbGUubWFlPic=

> <r_lp_tautomer_probability>
1

> <r_epik_Ionization_Penalty>
1.48085

> <r_epik_Ionization_Penalty_Charging>
1.48083

> <r_epik_Ionization_Penalty_Neutral>
1.80167e-05

> <r_epik_State_Penalty>
1.56944

> <r_epik_Charging_Adjusted_Penalty>
3.05027

> <i_epik_Tot_Q>
1

> <i_epik_Tot_abs_Q>
1

> <r_epik_Metal_State_Penalty>
5.61877

> <b_epik_Metal_Only>
0

> <s_lp_Force_Field>
OPLS_2005

> <r_lp_Energy>
21.4697

> <b_lp_Chiralities_Consistent>
1

> <s_lp_Variant>
AV-unprocessed.smi:460-4

> <Gold.Version>
5.8.1

> <Gold.Id.Protein>
6NUR|6NUR_protein|mol2

> <Gold.PLP.Fitness>
58.0252

> <Gold.PLP.PLP>
-44.6618

> <Gold.PLP.part.hbond>
-5.2083

> <Gold.PLP.part.metal>
0.0000

> <Gold.PLP.part.buried>
-3.2024

> <Gold.PLP.part.nonpolar>
-36.7075

> <Gold.PLP.part.repulsive>
0.1114

> <Gold.PLP.ligand.clash>
0.0000

> <Gold.PLP.ligand.torsion>
0.4828

> <Gold.PLP.Chemscore.Hbond>
4.7400

> <Gold.PLP.Chemscore.CHOScore>
0.0000

> <Gold.PLP.Chemscore.Metal>
0.0000

> <Gold.Chemscore.Hbonds>
donor molecule, donor type, donor heavy atom, donor atom, acceptor molecule, acceptor atom, score
      L1  H     4    31       P1  7957  1.00
      L1  H     6    47       P1  8028  2.00
      P1  H  7989  7998       L1     4  0.88
      P1  H 10752 10764       L1    23  0.84

> <Gold.PLP.Chemscore.Internal.Correction>
0.1089

> <Gold.Rescore>
     Score         DG    S(hbond)    S(metal)    S(lipo)     H(rot)  DE(clash)    DE(int)     intcor
     20.94     -22.16       2.67        0.00     119.77       2.45       0.54       0.69       ----

> <Gold.Chemscore.Fitness>
20.9370

> <Gold.Chemscore.DG>
-22.1610

> <Gold.Chemscore.ZeroCoef>
-5.4800

> <Gold.Chemscore.Hbond>
2.6729

> <Gold.Chemscore.Metal>
0.0000

> <Gold.Chemscore.Lipo>
119.7669

> <Gold.Chemscore.Internal_Hbond>
0.0000

> <Gold.Chemscore.DEClash>
0.5390

> <Gold.Chemscore.DEInternal>
0.6850

> <Gold.Chemscore.Rot>
2.4450

> <Gold.Chemscore.Internal.Correction>
   9.000000E+99

> <Gold.Chemscore.Hbonds>
donor molecule, donor type, donor heavy atom, donor atom, acceptor molecule, acceptor atom, score
      L1  H     4    31       P1  7957  0.94
      L1  H     6    47       P1  8028  0.98
      P1  H  7989  7998       L1     4  0.37
      P1  H 10752 10764       L1    23  0.16

> <Gold.Chemscore.Hbond.Weighted>
-8.9276

> <Gold.Chemscore.Metal.Weighted>
-0.0000

> <Gold.Chemscore.Lipo.Weighted>
-14.0127

> <Gold.Chemscore.Internal_Hbond.Weighted>
0.0000

> <Gold.Chemscore.DEClash.Weighted>
0.5390

> <Gold.Chemscore.DEInternal.Weighted>
0.6850

> <Gold.Chemscore.Rot.Weighted>
6.2593

> <Gold.Chemscore.Internal.Correction.Weighted>
   9.000000E+99

> <Gold.Protein.RotatedTorsions>
[ 6907 6896 6895 6894 ] final   92.55 input  -60.11 | X-H torsion
[ 7974 7965 7964 7962 ] final  150.11 input  175.53 | X-H torsion
[ 8008 7997 7996 7995 ] final -149.78 input   59.86 | X-H torsion
[ 10167 10162 10161 10158 ] final  -39.42 input  -65.29 | X-H torsion
[ 10718 10713 10712 10709 ] final   45.00 input   66.30 | X-H torsion
[ 10763 10752 10751 10750 ] final   -0.69 input  -60.55 | X-H torsion
[ 11005 11000 10999 10996 ] final -112.81 input  -57.11 | X-H torsion

> <Gold.Protein.ActiveResidues>
 VAL166  LYS551  ARG553  GLY616  TRP617  ASP618  TYR619  PRO620  LYS621  CYS622 
 ASP623  PHE694  ASN695  SER759  ASP760  ASP761  ALA762  ILE779  LEU786  VAL792 
 PHE793  MET794  SER795  GLU796  ALA797  LYS798  CYS799  TRP800  GLU811  SER814 

> <Gold.Protein.RotatedAtoms>
  152.5452  134.1485  159.8508 H   0  0  0  0  0  0  0  0  0  0  0  0  # atno 6907 bound_to 6896
  151.1515  133.4897  159.2602 H   0  0  0  0  0  0  0  0  0  0  0  0  # atno 6908 bound_to 6896
  151.1468  135.0218  159.8705 H   0  0  0  0  0  0  0  0  0  0  0  0  # atno 6909 bound_to 6896
  144.8388  139.6366  143.6026 H   0  0  0  0  0  0  0  0  0  0  0  0  # atno 7974 bound_to 7965
  155.6131  140.0673  157.2700 H   0  0  0  0  0  0  0  0  0  0  0  0  # atno 8008 bound_to 7997
  154.4248  140.1798  156.1340 H   0  0  0  0  0  0  0  0  0  0  0  0  # atno 8009 bound_to 7997
  156.0069  140.3330  155.6905 H   0  0  0  0  0  0  0  0  0  0  0  0  # atno 8010 bound_to 7997
  140.7064  143.3215  151.2781 H   0  0  0  0  0  0  0  0  0  0  0  0  # atno 10167 bound_to 10162
  157.4329  130.8035  149.7620 H   0  0  0  0  0  0  0  0  0  0  0  0  # atno 10718 bound_to 10713
  153.3351  135.6977  153.6914 H   0  0  0  0  0  0  0  0  0  0  0  0  # atno 10763 bound_to 10752
  153.5701  135.3518  155.2835 H   0  0  0  0  0  0  0  0  0  0  0  0  # atno 10764 bound_to 10752
  154.8626  135.4270  154.2550 H   0  0  0  0  0  0  0  0  0  0  0  0  # atno 10765 bound_to 10752
  141.0653  133.9469  157.2591 H   0  0  0  0  0  0  0  0  0  0  0  0  # atno 11005 bound_to 11000
  146.2683  139.6574  142.9314 LP  0  0  0  0  0  0  0  0  0  0  0  0  # atno 17320 bound_to 7965
  145.4738  141.0436  143.2684 LP  0  0  0  0  0  0  0  0  0  0  0  0  # atno 17321 bound_to 7965
  139.6670  144.0087  152.2729 LP  0  0  0  0  0  0  0  0  0  0  0  0  # atno 17342 bound_to 10162
  139.9673  144.6518  150.8022 LP  0  0  0  0  0  0  0  0  0  0  0  0  # atno 17343 bound_to 10162
  155.9920  130.3934  150.2962 LP  0  0  0  0  0  0  0  0  0  0  0  0  # atno 17370 bound_to 10713
  157.1120  131.0224  151.3044 LP  0  0  0  0  0  0  0  0  0  0  0  0  # atno 17371 bound_to 10713
  139.9470  135.0182  156.8882 LP  0  0  0  0  0  0  0  0  0  0  0  0  # atno 17394 bound_to 11000
  140.5786  134.0374  155.7456 LP  0  0  0  0  0  0  0  0  0  0  0  0  # atno 17395 bound_to 11000

$$$$
