AV-unprocessed.smi:1868|AV-procd|sdf|7588|dock7
  -GOLD-   22720 9303D 1   1.00000     0.00000
 Structure written by MMmdl.
 48 50  0  0  0  0  0  0  0  0  3 V2000
  146.3253  142.5991  153.6671 C   0  0  0  0  0  0  0  0  0  0  0  0
  147.5375  141.8511  154.1107 C   0  0  0  0  0  0  0  0  0  0  0  0
  148.4749  142.2977  154.9935 N   0  3  0  0  0  0  0  0  0  0  0  0
  149.4614  141.3261  155.1674 C   0  0  0  0  0  0  0  0  0  0  0  0
  150.6057  141.3203  155.9588 C   0  0  0  0  0  0  0  0  0  0  0  0
  151.4052  140.1596  155.9065 C   0  0  0  0  0  0  0  0  0  0  0  0
  151.0563  139.0636  155.0904 C   0  0  0  0  0  0  0  0  0  0  0  0
  149.8936  139.0812  154.2916 C   0  0  0  0  0  0  0  0  0  0  0  0
  149.1090  140.2328  154.3496 C   0  0  0  0  0  0  0  0  0  0  0  0
  147.9177  140.6018  153.7150 N   0  0  0  0  0  0  0  0  0  0  0  0
  147.2786  139.6610  152.7814 C   0  0  0  0  0  0  0  0  0  0  0  0
  146.1042  138.8848  153.4114 C   0  0  2  0  0  0  0  0  0  0  0  0
  145.4144  139.7393  154.3043 O   0  0  0  0  0  0  0  0  0  0  0  0
  146.6024  137.6427  154.1795 C   0  0  0  0  0  0  0  0  0  0  0  0
  146.7469  136.4383  153.3204 N   0  3  2  0  0  0  0  0  0  0  0  0
  145.7239  136.3960  152.2434 C   0  0  0  0  0  0  0  0  0  0  0  0
  145.9728  135.2210  151.2828 C   0  0  0  0  0  0  0  0  0  0  0  0
  146.0082  133.8813  152.0364 C   0  0  1  0  0  0  0  0  0  0  0  0
  146.2862  132.7037  151.0917 C   0  0  0  0  0  0  0  0  0  0  0  0
  147.0489  133.9648  153.1653 C   0  0  0  0  0  0  0  0  0  0  0  0
  146.7779  135.1647  154.0885 C   0  0  0  0  0  0  0  0  0  0  0  0
  146.2538  143.5555  154.1858 H   0  0  0  0  0  0  0  0  0  0  0  0
  145.4261  142.0215  153.8815 H   0  0  0  0  0  0  0  0  0  0  0  0
  146.3709  142.7890  152.5946 H   0  0  0  0  0  0  0  0  0  0  0  0
  150.8745  142.1578  156.5859 H   0  0  0  0  0  0  0  0  0  0  0  0
  152.3033  140.1085  156.5050 H   0  0  0  0  0  0  0  0  0  0  0  0
  151.6933  138.1910  155.0786 H   0  0  0  0  0  0  0  0  0  0  0  0
  149.6349  138.2363  153.6713 H   0  0  0  0  0  0  0  0  0  0  0  0
  146.9506  140.2196  151.9040 H   0  0  0  0  0  0  0  0  0  0  0  0
  148.0456  138.9688  152.4321 H   0  0  0  0  0  0  0  0  0  0  0  0
  145.4154  138.5967  152.6186 H   0  0  0  0  0  0  0  0  0  0  0  0
  144.7488  140.2109  153.8276 H   0  0  0  0  0  0  0  0  0  0  0  0
  147.5598  137.8508  154.6601 H   0  0  0  0  0  0  0  0  0  0  0  0
  145.8987  137.4355  154.9878 H   0  0  0  0  0  0  0  0  0  0  0  0
  144.7298  136.3172  152.6863 H   0  0  0  0  0  0  0  0  0  0  0  0
  145.7452  137.3275  151.6767 H   0  0  0  0  0  0  0  0  0  0  0  0
  145.1937  135.2003  150.5197 H   0  0  0  0  0  0  0  0  0  0  0  0
  146.9157  135.3753  150.7559 H   0  0  0  0  0  0  0  0  0  0  0  0
  145.0286  133.7185  152.4883 H   0  0  0  0  0  0  0  0  0  0  0  0
  147.2563  132.8056  150.6041 H   0  0  0  0  0  0  0  0  0  0  0  0
  145.5270  132.6380  150.3117 H   0  0  0  0  0  0  0  0  0  0  0  0
  146.2833  131.7572  151.6329 H   0  0  0  0  0  0  0  0  0  0  0  0
  147.0391  133.0443  153.7501 H   0  0  0  0  0  0  0  0  0  0  0  0
  148.0511  134.0499  152.7421 H   0  0  0  0  0  0  0  0  0  0  0  0
  147.5520  135.1974  154.8537 H   0  0  0  0  0  0  0  0  0  0  0  0
  145.8282  135.0283  154.6083 H   0  0  0  0  0  0  0  0  0  0  0  0
  147.6378  136.5252  152.8532 H   0  0  0  0  0  0  0  0  0  0  0  0
  148.4397  143.2029  155.4444 H   0  0  0  0  0  0  0  0  0  0  0  0
  1  2  1  0  0  0  0
  1 22  1  0  0  0  0
  1 23  1  0  0  0  0
  1 24  1  0  0  0  0
  2 10  1  0  0  0  0
  2  3  2  0  0  0  0
  3  4  1  0  0  0  0
  3 48  1  0  0  0  0
  4  9  2  0  0  0  0
  4  5  1  0  0  0  0
  5  6  2  0  0  0  0
  5 25  1  0  0  0  0
  6  7  1  0  0  0  0
  6 26  1  0  0  0  0
  7  8  2  0  0  0  0
  7 27  1  0  0  0  0
  8  9  1  0  0  0  0
  8 28  1  0  0  0  0
  9 10  1  0  0  0  0
 10 11  1  0  0  0  0
 11 12  1  0  0  0  0
 11 29  1  0  0  0  0
 11 30  1  0  0  0  0
 12 13  1  0  0  0  0
 12 14  1  0  0  0  0
 12 31  1  0  0  0  0
 13 32  1  0  0  0  0
 14 15  1  0  0  0  0
 14 33  1  0  0  0  0
 14 34  1  0  0  0  0
 15 21  1  0  0  0  0
 15 16  1  0  0  0  0
 15 47  1  0  0  0  0
 16 17  1  0  0  0  0
 16 35  1  0  0  0  0
 16 36  1  0  0  0  0
 17 18  1  0  0  0  0
 17 37  1  0  0  0  0
 17 38  1  0  0  0  0
 18 19  1  0  0  0  0
 18 20  1  0  0  0  0
 18 39  1  0  0  0  0
 19 40  1  0  0  0  0
 19 41  1  0  0  0  0
 19 42  1  0  0  0  0
 20 21  1  0  0  0  0
 20 43  1  0  0  0  0
 20 44  1  0  0  0  0
 21 45  1  0  0  0  0
 21 46  1  0  0  0  0
M  CHG  1   3   1
M  CHG  1  15   1
M  END
> <s_m_source_file>
AV-unprocessed.smi

> <i_m_source_file_index>
1868

> <i_lp_mmshare_version>
43012

> <i_f3d_flags>
0

> <s_epik_input>
W2NIXTFbY0hdW2NIXVtjSF1jKGMxMiluKGMobjIpW0NIM10pW0NIMl1bQ0BIXShbT0hdKVtDSDJdTjNbQ0gyXVtDSDJdW0NIXShbQ0gzXSlbQ0gyXVtDSDJdMw==

> <s_epik_cmdline>
J2VwaWtfcHl0aG9uJywgJy1waCcsICc3LjAnLCAnLXRuJywgJzgnLCAnLW1hJywgJzIwMCcsICctbWV0YWxfYmluZGluZycsICctaW1hZScsICc8aW5maWxlLm1hZT4nLCAnLW9tYWUnLCAnPG91dGZpbGUubWFlPic=

> <r_epik_Ionization_Penalty>
1.10901

> <r_epik_Ionization_Penalty_Charging>
1.10901

> <r_epik_Ionization_Penalty_Neutral>
6.90208e-07

> <r_epik_State_Penalty>
1.18788

> <r_epik_Charging_Adjusted_Penalty>
2.29689

> <i_epik_Tot_Q>
2

> <i_epik_Tot_abs_Q>
2

> <r_epik_Metal_State_Penalty>
5.19353

> <b_epik_Metal_Only>
0

> <s_lp_Force_Field>
OPLS_2005

> <r_lp_Energy>
30.2902

> <b_lp_Chiralities_Consistent>
1

> <s_lp_Variant>
AV-unprocessed.smi:1868-5

> <Gold.Version>
5.8.1

> <Gold.Id.Protein>
6NUR|6NUR_protein|mol2

> <Gold.PLP.Fitness>
54.3122

> <Gold.PLP.PLP>
-41.4644

> <Gold.PLP.part.hbond>
-3.0000

> <Gold.PLP.part.metal>
0.0000

> <Gold.PLP.part.buried>
-0.7804

> <Gold.PLP.part.nonpolar>
-38.0804

> <Gold.PLP.part.repulsive>
0.1738

> <Gold.PLP.ligand.clash>
0.0000

> <Gold.PLP.ligand.torsion>
1.0983

> <Gold.PLP.Chemscore.Hbond>
5.0000

> <Gold.PLP.Chemscore.CHOScore>
0.0000

> <Gold.PLP.Chemscore.Metal>
0.0000

> <Gold.Chemscore.Hbonds>
donor molecule, donor type, donor heavy atom, donor atom, acceptor molecule, acceptor atom, score
      L1  H     3    48       P1  8028  2.00
      L1  H    13    32       P1 10175  1.00
      L1  H    15    47       P1  7948  2.00

> <Gold.PLP.Chemscore.Internal.Correction>
0.0443

> <Gold.Rescore>
     Score         DG    S(hbond)    S(metal)    S(lipo)     H(rot)  DE(clash)    DE(int)     intcor
     17.29     -20.91       2.92        0.00      91.94       1.99       1.47       2.15       ----

> <Gold.Chemscore.Fitness>
17.2874

> <Gold.Chemscore.DG>
-20.9055

> <Gold.Chemscore.ZeroCoef>
-5.4800

> <Gold.Chemscore.Hbond>
2.9201

> <Gold.Chemscore.Metal>
0.0000

> <Gold.Chemscore.Lipo>
91.9425

> <Gold.Chemscore.Internal_Hbond>
0.0000

> <Gold.Chemscore.DEClash>
1.4665

> <Gold.Chemscore.DEInternal>
2.1515

> <Gold.Chemscore.Rot>
1.9863

> <Gold.Chemscore.Internal.Correction>
   9.000000E+99

> <Gold.Chemscore.Hbonds>
donor molecule, donor type, donor heavy atom, donor atom, acceptor molecule, acceptor atom, score
      L1  H     3    48       P1  8028  0.94
      L1  H    13    32       P1 10175  0.98
      L1  H    15    47       P1  7948  1.00

> <Gold.Chemscore.Hbond.Weighted>
-9.7532

> <Gold.Chemscore.Metal.Weighted>
-0.0000

> <Gold.Chemscore.Lipo.Weighted>
-10.7573

> <Gold.Chemscore.Internal_Hbond.Weighted>
0.0000

> <Gold.Chemscore.DEClash.Weighted>
1.4665

> <Gold.Chemscore.DEInternal.Weighted>
2.1515

> <Gold.Chemscore.Rot.Weighted>
5.0850

> <Gold.Chemscore.Internal.Correction.Weighted>
   9.000000E+99

> <Gold.Protein.RotatedTorsions>
[ 6907 6896 6895 6894 ] final -168.21 input  -60.11 | X-H torsion
[ 7974 7965 7964 7962 ] final   58.32 input  175.53 | X-H torsion
[ 8008 7997 7996 7995 ] final  -35.00 input   59.86 | X-H torsion
[ 10167 10162 10161 10158 ] final  -78.07 input  -65.29 | X-H torsion
[ 10718 10713 10712 10709 ] final  110.16 input   66.30 | X-H torsion
[ 10763 10752 10751 10750 ] final  -42.67 input  -60.55 | X-H torsion
[ 11005 11000 10999 10996 ] final   -6.08 input  -57.11 | X-H torsion

> <Gold.Protein.ActiveResidues>
 VAL166  LYS551  ARG553  GLY616  TRP617  ASP618  TYR619  PRO620  LYS621  CYS622 
 ASP623  PHE694  ASN695  SER759  ASP760  ASP761  ALA762  ILE779  LEU786  VAL792 
 PHE793  MET794  SER795  GLU796  ALA797  LYS798  CYS799  TRP800  GLU811  SER814 

> <Gold.Protein.RotatedAtoms>
  151.4719  133.3567  159.2824 H   0  0  0  0  0  0  0  0  0  0  0  0  # atno 6907 bound_to 6896
  150.8955  134.8365  159.7334 H   0  0  0  0  0  0  0  0  0  0  0  0  # atno 6908 bound_to 6896
  152.4849  134.4634  159.9664 H   0  0  0  0  0  0  0  0  0  0  0  0  # atno 6909 bound_to 6896
  145.9195  139.3718  143.0487 H   0  0  0  0  0  0  0  0  0  0  0  0  # atno 7974 bound_to 7965
  154.4106  140.1669  156.2141 H   0  0  0  0  0  0  0  0  0  0  0  0  # atno 8008 bound_to 7997
  155.9419  140.3407  155.6311 H   0  0  0  0  0  0  0  0  0  0  0  0  # atno 8009 bound_to 7997
  155.6978  140.0741  157.2413 H   0  0  0  0  0  0  0  0  0  0  0  0  # atno 8010 bound_to 7997
  140.4714  143.2425  151.8198 H   0  0  0  0  0  0  0  0  0  0  0  0  # atno 10167 bound_to 10162
  157.6507  131.0927  150.6561 H   0  0  0  0  0  0  0  0  0  0  0  0  # atno 10718 bound_to 10713
  153.9828  135.6715  153.4751 H   0  0  0  0  0  0  0  0  0  0  0  0  # atno 10763 bound_to 10752
  153.0740  135.4958  154.8362 H   0  0  0  0  0  0  0  0  0  0  0  0  # atno 10764 bound_to 10752
  154.7154  135.3106  154.9093 H   0  0  0  0  0  0  0  0  0  0  0  0  # atno 10765 bound_to 10752
  140.6981  133.9013  155.8664 H   0  0  0  0  0  0  0  0  0  0  0  0  # atno 11005 bound_to 11000
  145.8568  140.9498  143.0721 LP  0  0  0  0  0  0  0  0  0  0  0  0  # atno 17320 bound_to 7965
  144.6751  140.0479  143.7479 LP  0  0  0  0  0  0  0  0  0  0  0  0  # atno 17321 bound_to 7965
  139.4819  144.4886  151.9214 LP  0  0  0  0  0  0  0  0  0  0  0  0  # atno 17342 bound_to 10162
  140.3972  144.2540  150.5895 LP  0  0  0  0  0  0  0  0  0  0  0  0  # atno 17343 bound_to 10162
  156.6872  130.4584  149.5610 LP  0  0  0  0  0  0  0  0  0  0  0  0  # atno 17370 bound_to 10713
  156.1887  130.6546  151.1036 LP  0  0  0  0  0  0  0  0  0  0  0  0  # atno 17371 bound_to 10713
  141.0186  134.0920  157.4145 LP  0  0  0  0  0  0  0  0  0  0  0  0  # atno 17394 bound_to 11000
  139.8904  135.0112  156.6736 LP  0  0  0  0  0  0  0  0  0  0  0  0  # atno 17395 bound_to 11000

$$$$
