AV-unprocessed.smi:2709|AV-procd|sdf|10463|dock8
  -GOLD-   2272014503D 1   1.00000     0.00000
 Structure written by MMmdl.
 40 42  0  0  0  0  0  0  0  0  1 V2000
  142.2982  135.3775  153.4567 C   0  0  0  0  0  0  0  0  0  0  0  0
  143.5820  135.2051  154.0355 O   0  0  0  0  0  0  0  0  0  0  0  0
  144.5955  134.8780  153.0943 C   0  0  1  0  0  0  0  0  0  0  0  0
  144.1144  133.8484  152.0626 C   0  0  0  0  0  0  0  0  0  0  0  0
  144.8978  134.1817  150.7985 C   0  0  0  0  0  0  0  0  0  0  0  0
  144.9584  135.7081  150.7988 C   0  0  0  0  0  0  0  0  0  0  0  0
  144.9944  136.1296  152.2820 C   0  0  2  0  0  0  0  0  0  0  0  0
  146.3252  136.5927  152.6693 N   0  0  0  0  0  0  0  0  0  0  0  0
  146.5748  137.5946  153.5237 C   0  0  0  0  0  0  0  0  0  0  0  0
  145.6927  138.2459  154.0825 O   0  0  0  0  0  0  0  0  0  0  0  0
  147.8964  137.7721  153.6893 N   0  0  0  0  0  0  0  0  0  0  0  0
  148.5648  138.7465  154.4782 C   0  0  0  0  0  0  0  0  0  0  0  0
  149.7685  139.3043  153.9984 C   0  0  0  0  0  0  0  0  0  0  0  0
  150.4480  140.2453  154.6884 N   0  0  0  0  0  0  0  0  0  0  0  0
  149.9275  140.6281  155.8576 C   0  0  0  0  0  0  0  0  0  0  0  0
  150.6628  141.6973  156.6046 C   0  0  0  0  0  0  0  0  0  0  0  0
  151.2961  141.4105  157.9512 C   0  0  0  0  0  0  0  0  0  0  0  0
  150.0832  142.2946  157.8706 C   0  0  0  0  0  0  0  0  0  0  0  0
  148.7870  140.1942  156.4010 N   0  0  0  0  0  0  0  0  0  0  0  0
  148.1018  139.2511  155.7186 C   0  0  0  0  0  0  0  0  0  0  0  0
  141.5728  135.5949  154.2404 H   0  0  0  0  0  0  0  0  0  0  0  0
  141.9728  134.4730  152.9416 H   0  0  0  0  0  0  0  0  0  0  0  0
  142.2833  136.2076  152.7499 H   0  0  0  0  0  0  0  0  0  0  0  0
  145.4726  134.4814  153.6110 H   0  0  0  0  0  0  0  0  0  0  0  0
  144.2655  132.8196  152.3909 H   0  0  0  0  0  0  0  0  0  0  0  0
  143.0487  133.9836  151.8712 H   0  0  0  0  0  0  0  0  0  0  0  0
  145.9057  133.7711  150.8693 H   0  0  0  0  0  0  0  0  0  0  0  0
  144.4336  133.7799  149.8977 H   0  0  0  0  0  0  0  0  0  0  0  0
  145.7995  136.0845  150.2150 H   0  0  0  0  0  0  0  0  0  0  0  0
  144.0510  136.1013  150.3385 H   0  0  0  0  0  0  0  0  0  0  0  0
  144.2697  136.9299  152.4466 H   0  0  0  0  0  0  0  0  0  0  0  0
  147.1105  136.1076  152.2613 H   0  0  0  0  0  0  0  0  0  0  0  0
  148.4958  137.1086  153.2208 H   0  0  0  0  0  0  0  0  0  0  0  0
  150.1917  138.9939  153.0543 H   0  0  0  0  0  0  0  0  0  0  0  0
  151.1922  142.3621  155.9248 H   0  0  0  0  0  0  0  0  0  0  0  0
  151.1631  140.4170  158.3749 H   0  0  0  0  0  0  0  0  0  0  0  0
  152.2504  141.8857  158.1688 H   0  0  0  0  0  0  0  0  0  0  0  0
  150.2251  143.3612  158.0313 H   0  0  0  0  0  0  0  0  0  0  0  0
  149.1439  141.8884  158.2408 H   0  0  0  0  0  0  0  0  0  0  0  0
  147.1773  138.9309  156.1727 H   0  0  0  0  0  0  0  0  0  0  0  0
  1  2  1  0  0  0  0
  1 21  1  0  0  0  0
  1 22  1  0  0  0  0
  1 23  1  0  0  0  0
  2  3  1  0  0  0  0
  3  7  1  0  0  0  0
  3  4  1  0  0  0  0
  3 24  1  0  0  0  0
  4  5  1  0  0  0  0
  4 25  1  0  0  0  0
  4 26  1  0  0  0  0
  5  6  1  0  0  0  0
  5 27  1  0  0  0  0
  5 28  1  0  0  0  0
  6  7  1  0  0  0  0
  6 29  1  0  0  0  0
  6 30  1  0  0  0  0
  7  8  1  0  0  0  0
  7 31  1  0  0  0  0
  8  9  1  0  0  0  0
  8 32  1  0  0  0  0
  9 10  2  0  0  0  0
  9 11  1  0  0  0  0
 11 12  1  0  0  0  0
 11 33  1  0  0  0  0
 12 20  1  0  0  0  0
 12 13  2  0  0  0  0
 13 14  1  0  0  0  0
 13 34  1  0  0  0  0
 14 15  2  0  0  0  0
 15 16  1  0  0  0  0
 15 19  1  0  0  0  0
 16 18  1  0  0  0  0
 16 17  1  0  0  0  0
 16 35  1  0  0  0  0
 17 18  1  0  0  0  0
 17 36  1  0  0  0  0
 17 37  1  0  0  0  0
 18 38  1  0  0  0  0
 18 39  1  0  0  0  0
 19 20  2  0  0  0  0
 20 40  1  0  0  0  0
M  END
> <s_m_source_file>
AV-unprocessed.smi

> <i_m_source_file_index>
2709

> <i_lp_mmshare_version>
43012

> <i_f3d_flags>
0

> <s_epik_input>
W0NIM11PW0NAQEhdMVtDSDJdW0NIMl1bQ0gyXVtDQEhdMVtOSF1DKD1PKVtOSF1jMltjSF1uYyhuW2NIXTIpW0NIXTNbQ0gyXVtDSDJdMw==

> <s_epik_cmdline>
J2VwaWtfcHl0aG9uJywgJy1waCcsICc3LjAnLCAnLXRuJywgJzgnLCAnLW1hJywgJzIwMCcsICctbWV0YWxfYmluZGluZycsICctaW1hZScsICc8aW5maWxlLm1hZT4nLCAnLW9tYWUnLCAnPG91dGZpbGUubWFlPic=

> <r_lp_tautomer_probability>
1

> <r_epik_Ionization_Penalty>
2.49969e-05

> <r_epik_Ionization_Penalty_Charging>
0

> <r_epik_Ionization_Penalty_Neutral>
2.49969e-05

> <r_epik_State_Penalty>
-0

> <r_epik_Charging_Adjusted_Penalty>
0

> <i_epik_Tot_Q>
0

> <i_epik_Tot_abs_Q>
0

> <r_epik_Metal_State_Penalty>
-0

> <b_epik_Metal_Only>
0

> <s_lp_Force_Field>
OPLS_2005

> <r_lp_Energy>
19.78

> <b_lp_Chiralities_Consistent>
1

> <s_lp_Variant>
AV-unprocessed.smi:2709-4

> <Gold.Version>
5.8.1

> <Gold.Id.Protein>
6NUR|6NUR_protein|mol2

> <Gold.PLP.Fitness>
37.0174

> <Gold.PLP.PLP>
-27.1294

> <Gold.PLP.part.hbond>
-3.0000

> <Gold.PLP.part.metal>
0.0000

> <Gold.PLP.part.buried>
-3.1011

> <Gold.PLP.part.nonpolar>
-21.4400

> <Gold.PLP.part.repulsive>
0.3363

> <Gold.PLP.ligand.clash>
0.0000

> <Gold.PLP.ligand.torsion>
0.7663

> <Gold.PLP.Chemscore.Hbond>
2.9120

> <Gold.PLP.Chemscore.CHOScore>
0.8521

> <Gold.PLP.Chemscore.Metal>
0.0000

> <Gold.Chemscore.Hbonds>
donor molecule, donor type, donor heavy atom, donor atom, acceptor molecule, acceptor atom, score
      L1  H     8    32       P1  7948  0.91
      L1  H    11    33       P1  7948  1.00
      P1  H  7989  7998       L1    14  1.00
      L1  C    13    34       P1  7957  0.83

> <Gold.PLP.Chemscore.Internal.Correction>
0.1284

> <Gold.Rescore>
     Score         DG    S(hbond)    S(metal)    S(lipo)     H(rot)  DE(clash)    DE(int)     intcor
     16.08     -18.00       2.61        0.00      63.34       1.41       1.37       0.56       ----

> <Gold.Chemscore.Fitness>
16.0783

> <Gold.Chemscore.DG>
-18.0015

> <Gold.Chemscore.ZeroCoef>
-5.4800

> <Gold.Chemscore.Hbond>
2.6118

> <Gold.Chemscore.Metal>
0.0000

> <Gold.Chemscore.Lipo>
63.3439

> <Gold.Chemscore.Internal_Hbond>
0.0000

> <Gold.Chemscore.DEClash>
1.3654

> <Gold.Chemscore.DEInternal>
0.5578

> <Gold.Chemscore.Rot>
1.4114

> <Gold.Chemscore.Internal.Correction>
   9.000000E+99

> <Gold.Chemscore.Hbonds>
donor molecule, donor type, donor heavy atom, donor atom, acceptor molecule, acceptor atom, score
      L1  H     8    32       P1  7948  0.88
      L1  H    11    33       P1  7948  0.96
      P1  H  7989  7998       L1    14  0.44

> <Gold.Chemscore.Hbond.Weighted>
-8.7236

> <Gold.Chemscore.Metal.Weighted>
-0.0000

> <Gold.Chemscore.Lipo.Weighted>
-7.4112

> <Gold.Chemscore.Internal_Hbond.Weighted>
0.0000

> <Gold.Chemscore.DEClash.Weighted>
1.3654

> <Gold.Chemscore.DEInternal.Weighted>
0.5578

> <Gold.Chemscore.Rot.Weighted>
3.6133

> <Gold.Chemscore.Internal.Correction.Weighted>
   9.000000E+99

> <Gold.Protein.RotatedTorsions>
[ 6907 6896 6895 6894 ] final  154.54 input  -60.11 | X-H torsion
[ 7974 7965 7964 7962 ] final -150.18 input  175.53 | X-H torsion
[ 8008 7997 7996 7995 ] final   18.09 input   59.86 | X-H torsion
[ 10167 10162 10161 10158 ] final  -59.60 input  -65.29 | X-H torsion
[ 10718 10713 10712 10709 ] final  -85.60 input   66.30 | X-H torsion
[ 10763 10752 10751 10750 ] final  127.79 input  -60.55 | X-H torsion
[ 11005 11000 10999 10996 ] final  -91.56 input  -57.11 | X-H torsion

> <Gold.Protein.ActiveResidues>
 VAL166  LYS551  ARG553  GLY616  TRP617  ASP618  TYR619  PRO620  LYS621  CYS622 
 ASP623  PHE694  ASN695  SER759  ASP760  ASP761  ALA762  ILE779  LEU786  VAL792 
 PHE793  MET794  SER795  GLU796  ALA797  LYS798  CYS799  TRP800  GLU811  SER814 

> <Gold.Protein.RotatedAtoms>
  152.0571  133.4045  159.4401 H   0  0  0  0  0  0  0  0  0  0  0  0  # atno 6907 bound_to 6896
  150.6867  134.3243  159.4809 H   0  0  0  0  0  0  0  0  0  0  0  0  # atno 6908 bound_to 6896
  152.1059  134.9308  160.0619 H   0  0  0  0  0  0  0  0  0  0  0  0  # atno 6909 bound_to 6896
  144.7923  140.4966  143.5764 H   0  0  0  0  0  0  0  0  0  0  0  0  # atno 7974 bound_to 7965
  154.9009  140.3000  155.5318 H   0  0  0  0  0  0  0  0  0  0  0  0  # atno 8008 bound_to 7997
  156.3018  140.2407  156.3971 H   0  0  0  0  0  0  0  0  0  0  0  0  # atno 8009 bound_to 7997
  154.8522  140.0409  157.1600 H   0  0  0  0  0  0  0  0  0  0  0  0  # atno 8010 bound_to 7997
  140.6124  143.2391  151.5677 H   0  0  0  0  0  0  0  0  0  0  0  0  # atno 10167 bound_to 10162
  155.9995  130.4736  150.4586 H   0  0  0  0  0  0  0  0  0  0  0  0  # atno 10718 bound_to 10713
  153.7152  135.3262  155.3255 H   0  0  0  0  0  0  0  0  0  0  0  0  # atno 10763 bound_to 10752
  154.8373  135.4486  154.1274 H   0  0  0  0  0  0  0  0  0  0  0  0  # atno 10764 bound_to 10752
  153.2378  135.6967  153.7896 H   0  0  0  0  0  0  0  0  0  0  0  0  # atno 10765 bound_to 10752
  141.1542  133.7763  156.9896 H   0  0  0  0  0  0  0  0  0  0  0  0  # atno 11005 bound_to 11000
  145.5763  139.1486  143.3260 LP  0  0  0  0  0  0  0  0  0  0  0  0  # atno 17320 bound_to 7965
  146.2179  140.5894  142.9030 LP  0  0  0  0  0  0  0  0  0  0  0  0  # atno 17321 bound_to 7965
  139.5372  144.2748  152.1276 LP  0  0  0  0  0  0  0  0  0  0  0  0  # atno 17342 bound_to 10162
  140.1950  144.4714  150.6460 LP  0  0  0  0  0  0  0  0  0  0  0  0  # atno 17343 bound_to 10162
  157.2613  131.0567  151.2319 LP  0  0  0  0  0  0  0  0  0  0  0  0  # atno 17370 bound_to 10713
  157.3432  130.7044  149.6394 LP  0  0  0  0  0  0  0  0  0  0  0  0  # atno 17371 bound_to 10713
  140.1011  134.9534  157.1925 LP  0  0  0  0  0  0  0  0  0  0  0  0  # atno 17394 bound_to 11000
  140.3317  134.2803  155.7227 LP  0  0  0  0  0  0  0  0  0  0  0  0  # atno 17395 bound_to 11000

$$$$
