AV-unprocessed.smi:3117|AV-procd|sdf|11880|dock9
  -GOLD-   2272017263D 1   1.00000     0.00000
 Structure written by MMmdl.
 37 37  0  0  0  0  0  0  0  0  2 V2000
  148.9496  140.7441  157.4046 C   0  0  0  0  0  0  0  0  0  0  0  0
  150.2917  141.1248  156.7535 C   0  0  2  0  0  0  0  0  0  0  0  0
  150.5085  142.5786  156.9245 N   0  3  0  0  0  0  0  0  0  0  0  0
  150.5618  143.0429  158.3277 C   0  0  0  0  0  0  0  0  0  0  0  0
  151.2620  144.4118  158.4630 C   0  0  0  0  0  0  0  0  0  0  0  0
  151.1879  144.9079  159.9167 C   0  0  0  0  0  0  0  0  0  0  0  0
  152.7266  144.3640  157.9892 C   0  0  0  0  0  0  0  0  0  0  0  0
  150.5614  145.3526  157.6723 O   0  0  0  0  0  0  0  0  0  0  0  0
  150.3748  140.7444  155.2518 C   0  0  1  0  0  0  0  0  0  0  0  0
  151.0002  139.3568  155.0182 C   0  0  0  0  0  0  0  0  0  0  0  0
  149.0721  140.8165  154.6014 N   0  0  0  0  0  0  0  0  0  0  0  0
  148.2246  141.9002  154.4794 C   0  0  0  0  0  0  0  0  0  0  0  0
  147.1292  141.4853  153.7781 C   0  0  0  0  0  0  0  0  0  0  0  0
  147.4012  140.1157  153.5057 C   0  0  0  0  0  0  0  0  0  0  0  0
  148.5640  139.7197  153.9975 N   0  0  0  0  0  0  0  0  0  0  0  0
  148.7862  139.6662  157.3994 H   0  0  0  0  0  0  0  0  0  0  0  0
  148.1109  141.2099  156.8859 H   0  0  0  0  0  0  0  0  0  0  0  0
  148.9157  141.0655  158.4461 H   0  0  0  0  0  0  0  0  0  0  0  0
  151.0711  140.5807  157.2902 H   0  0  0  0  0  0  0  0  0  0  0  0
  151.3748  142.8275  156.4692 H   0  0  0  0  0  0  0  0  0  0  0  0
  149.5430  143.0987  158.7144 H   0  0  0  0  0  0  0  0  0  0  0  0
  151.0882  142.3015  158.9303 H   0  0  0  0  0  0  0  0  0  0  0  0
  151.7078  144.2276  160.5925 H   0  0  0  0  0  0  0  0  0  0  0  0
  150.1552  144.9855  160.2600 H   0  0  0  0  0  0  0  0  0  0  0  0
  151.6448  145.8922  160.0270 H   0  0  0  0  0  0  0  0  0  0  0  0
  153.3018  143.6388  158.5659 H   0  0  0  0  0  0  0  0  0  0  0  0
  153.2127  145.3335  158.1042 H   0  0  0  0  0  0  0  0  0  0  0  0
  152.8058  144.0851  156.9380 H   0  0  0  0  0  0  0  0  0  0  0  0
  150.1061  144.8899  156.9845 H   0  0  0  0  0  0  0  0  0  0  0  0
  151.0207  141.4750  154.7600 H   0  0  0  0  0  0  0  0  0  0  0  0
  152.0295  139.3162  155.3745 H   0  0  0  0  0  0  0  0  0  0  0  0
  151.0191  139.1112  153.9558 H   0  0  0  0  0  0  0  0  0  0  0  0
  150.4406  138.5732  155.5300 H   0  0  0  0  0  0  0  0  0  0  0  0
  148.4685  142.8659  154.8968 H   0  0  0  0  0  0  0  0  0  0  0  0
  146.2656  142.0715  153.5005 H   0  0  0  0  0  0  0  0  0  0  0  0
  146.7935  139.4027  152.9683 H   0  0  0  0  0  0  0  0  0  0  0  0
  149.7564  143.0720  156.4649 H   0  0  0  0  0  0  0  0  0  0  0  0
  1  2  1  0  0  0  0
  1 16  1  0  0  0  0
  1 17  1  0  0  0  0
  1 18  1  0  0  0  0
  2  3  1  0  0  0  0
  2  9  1  0  0  0  0
  2 19  1  0  0  0  0
  3  4  1  0  0  0  0
  3 20  1  0  0  0  0
  3 37  1  0  0  0  0
  4  5  1  0  0  0  0
  4 21  1  0  0  0  0
  4 22  1  0  0  0  0
  5  6  1  0  0  0  0
  5  7  1  0  0  0  0
  5  8  1  0  0  0  0
  6 23  1  0  0  0  0
  6 24  1  0  0  0  0
  6 25  1  0  0  0  0
  7 26  1  0  0  0  0
  7 27  1  0  0  0  0
  7 28  1  0  0  0  0
  8 29  1  0  0  0  0
  9 10  1  0  0  0  0
  9 11  1  0  0  0  0
  9 30  1  0  0  0  0
 10 31  1  0  0  0  0
 10 32  1  0  0  0  0
 10 33  1  0  0  0  0
 11 15  1  0  0  0  0
 11 12  1  0  0  0  0
 12 13  2  0  0  0  0
 12 34  1  0  0  0  0
 13 14  1  0  0  0  0
 13 35  1  0  0  0  0
 14 15  2  0  0  0  0
 14 36  1  0  0  0  0
M  CHG  1   3   1
M  END
> <s_m_source_file>
AV-unprocessed.smi

> <i_m_source_file_index>
3117

> <i_lp_mmshare_version>
43012

> <i_f3d_flags>
0

> <s_epik_input>
W0NIM11DKFtDSDNdKShbT0hdKVtDSDJdW05IXVtDQEBIXShbQ0gzXSlbQ0BIXShbQ0gzXSluMVtjSF1bY0hdW2NIXW4x

> <s_epik_cmdline>
J2VwaWtfcHl0aG9uJywgJy1waCcsICc3LjAnLCAnLXRuJywgJzgnLCAnLW1hJywgJzIwMCcsICctbWV0YWxfYmluZGluZycsICctaW1hZScsICc8aW5maWxlLm1hZT4nLCAnLW9tYWUnLCAnPG91dGZpbGUubWFlPic=

> <r_lp_tautomer_probability>
1

> <r_epik_Ionization_Penalty>
0.0164263

> <r_epik_Ionization_Penalty_Charging>
0.0164138

> <r_epik_Ionization_Penalty_Neutral>
1.24697e-05

> <r_epik_State_Penalty>
0.0129543

> <r_epik_Charging_Adjusted_Penalty>
0.0293681

> <i_epik_Tot_Q>
1

> <i_epik_Tot_abs_Q>
1

> <r_epik_Metal_State_Penalty>
0.0129806

> <b_epik_Metal_Only>
0

> <s_lp_Force_Field>
OPLS_2005

> <r_lp_Energy>
14.6887

> <b_lp_Chiralities_Consistent>
1

> <s_lp_Variant>
AV-unprocessed.smi:3117-3

> <Gold.Version>
5.8.1

> <Gold.Id.Protein>
6NUR|6NUR_protein|mol2

> <Gold.PLP.Fitness>
40.9406

> <Gold.PLP.PLP>
-30.7597

> <Gold.PLP.part.hbond>
-3.1552

> <Gold.PLP.part.metal>
0.0000

> <Gold.PLP.part.buried>
3.0912

> <Gold.PLP.part.nonpolar>
-30.5469

> <Gold.PLP.part.repulsive>
0.7926

> <Gold.PLP.ligand.clash>
0.0000

> <Gold.PLP.ligand.torsion>
0.9453

> <Gold.PLP.Chemscore.Hbond>
3.0000

> <Gold.PLP.Chemscore.CHOScore>
0.9984

> <Gold.PLP.Chemscore.Metal>
0.0000

> <Gold.Chemscore.Hbonds>
donor molecule, donor type, donor heavy atom, donor atom, acceptor molecule, acceptor atom, score
      L1  H     3    37       P1  8028  2.00
      L1  H     8    29       P1  8028  1.00
      L1  C    12    34       P1  8028  0.99

> <Gold.PLP.Chemscore.Internal.Correction>
0.0763

> <Gold.Rescore>
     Score         DG    S(hbond)    S(metal)    S(lipo)     H(rot)  DE(clash)    DE(int)     intcor
     11.59     -16.19       1.68        0.00      93.41       2.27       3.66       0.94       ----

> <Gold.Chemscore.Fitness>
11.5885

> <Gold.Chemscore.DG>
-16.1878

> <Gold.Chemscore.ZeroCoef>
-5.4800

> <Gold.Chemscore.Hbond>
1.6755

> <Gold.Chemscore.Metal>
0.0000

> <Gold.Chemscore.Lipo>
93.4131

> <Gold.Chemscore.Internal_Hbond>
0.0000

> <Gold.Chemscore.DEClash>
3.6579

> <Gold.Chemscore.DEInternal>
0.9414

> <Gold.Chemscore.Rot>
2.2725

> <Gold.Chemscore.Internal.Correction>
   9.000000E+99

> <Gold.Chemscore.Hbonds>
donor molecule, donor type, donor heavy atom, donor atom, acceptor molecule, acceptor atom, score
      L1  H     3    37       P1  8028  0.91
      L1  H     8    29       P1  8028  0.25

> <Gold.Chemscore.Hbond.Weighted>
-5.5960

> <Gold.Chemscore.Metal.Weighted>
-0.0000

> <Gold.Chemscore.Lipo.Weighted>
-10.9293

> <Gold.Chemscore.Internal_Hbond.Weighted>
0.0000

> <Gold.Chemscore.DEClash.Weighted>
3.6579

> <Gold.Chemscore.DEInternal.Weighted>
0.9414

> <Gold.Chemscore.Rot.Weighted>
5.8176

> <Gold.Chemscore.Internal.Correction.Weighted>
   9.000000E+99

> <Gold.Protein.RotatedTorsions>
[ 6907 6896 6895 6894 ] final   22.30 input  -60.11 | X-H torsion
[ 7974 7965 7964 7962 ] final -136.07 input  175.53 | X-H torsion
[ 8008 7997 7996 7995 ] final   27.97 input   59.86 | X-H torsion
[ 10167 10162 10161 10158 ] final  -13.92 input  -65.29 | X-H torsion
[ 10718 10713 10712 10709 ] final  -63.94 input   66.30 | X-H torsion
[ 10763 10752 10751 10750 ] final -134.62 input  -60.55 | X-H torsion
[ 11005 11000 10999 10996 ] final  174.91 input  -57.11 | X-H torsion

> <Gold.Protein.ActiveResidues>
 VAL166  LYS551  ARG553  GLY616  TRP617  ASP618  TYR619  PRO620  LYS621  CYS622 
 ASP623  PHE694  ASN695  SER759  ASP760  ASP761  ALA762  ILE779  LEU786  VAL792 
 PHE793  MET794  SER795  GLU796  ALA797  LYS798  CYS799  TRP800  GLU811  SER814 

> <Gold.Protein.RotatedAtoms>
  151.9250  135.0282  160.0524 H   0  0  0  0  0  0  0  0  0  0  0  0  # atno 6907 bound_to 6896
  152.2167  133.4948  159.5148 H   0  0  0  0  0  0  0  0  0  0  0  0  # atno 6908 bound_to 6896
  150.6989  134.1312  159.4113 H   0  0  0  0  0  0  0  0  0  0  0  0  # atno 6909 bound_to 6896
  144.8959  140.6706  143.5116 H   0  0  0  0  0  0  0  0  0  0  0  0  # atno 7974 bound_to 7965
  155.0513  140.3180  155.4691 H   0  0  0  0  0  0  0  0  0  0  0  0  # atno 8008 bound_to 7997
  156.2834  140.2145  156.5583 H   0  0  0  0  0  0  0  0  0  0  0  0  # atno 8009 bound_to 7997
  154.7208  140.0490  157.0625 H   0  0  0  0  0  0  0  0  0  0  0  0  # atno 8010 bound_to 7997
  140.7191  143.5375  150.9447 H   0  0  0  0  0  0  0  0  0  0  0  0  # atno 10167 bound_to 10162
  156.0759  130.4227  150.1349 H   0  0  0  0  0  0  0  0  0  0  0  0  # atno 10718 bound_to 10713
  154.8716  135.3729  154.4765 H   0  0  0  0  0  0  0  0  0  0  0  0  # atno 10763 bound_to 10752
  153.5421  135.7026  153.5636 H   0  0  0  0  0  0  0  0  0  0  0  0  # atno 10764 bound_to 10752
  153.3793  135.4001  155.1810 H   0  0  0  0  0  0  0  0  0  0  0  0  # atno 10765 bound_to 10752
  140.3564  134.7150  157.4302 H   0  0  0  0  0  0  0  0  0  0  0  0  # atno 11005 bound_to 11000
  145.3701  139.1661  143.4337 LP  0  0  0  0  0  0  0  0  0  0  0  0  # atno 17320 bound_to 7965
  146.3081  140.3772  142.8680 LP  0  0  0  0  0  0  0  0  0  0  0  0  # atno 17321 bound_to 7965
  139.9097  143.6735  152.3117 LP  0  0  0  0  0  0  0  0  0  0  0  0  # atno 17342 bound_to 10162
  139.7114  144.7619  151.1106 LP  0  0  0  0  0  0  0  0  0  0  0  0  # atno 17343 bound_to 10162
  156.9390  130.9738  151.3519 LP  0  0  0  0  0  0  0  0  0  0  0  0  # atno 17370 bound_to 10713
  157.5855  130.8406  149.8583 LP  0  0  0  0  0  0  0  0  0  0  0  0  # atno 17371 bound_to 10713
  140.0661  134.5927  155.8693 LP  0  0  0  0  0  0  0  0  0  0  0  0  # atno 17394 bound_to 11000
  141.1997  133.6608  156.5857 LP  0  0  0  0  0  0  0  0  0  0  0  0  # atno 17395 bound_to 11000

$$$$
