AV-unprocessed.smi:2708|AV-procd|sdf|10458|dock1
  -GOLD-   2272014493D 1   1.00000     0.00000
 Structure written by MMmdl.
 35 35  0  0  0  0  0  0  0  0  2 V2000
  147.0416  134.0916  162.1142 C   0  0  0  0  0  0  0  0  0  0  0  0
  146.7453  135.5498  162.5031 C   0  0  2  0  0  0  0  0  0  0  0  0
  145.3098  135.8137  162.4736 N   0  0  0  0  0  0  0  0  0  0  0  0
  144.3518  135.0254  162.9862 C   0  0  0  0  0  0  0  0  0  0  0  0
  144.5800  133.9589  163.5570 O   0  0  0  0  0  0  0  0  0  0  0  0
  142.9120  135.5171  162.8300 C   0  0  0  0  0  0  0  0  0  0  0  0
  142.1225  134.5543  161.9911 C   0  0  0  0  0  0  0  0  0  0  0  0
  140.8724  134.7560  161.4621 C   0  0  0  0  0  0  0  0  0  0  0  0
  140.3284  133.3823  160.5420 S   0  0  0  0  0  0  0  0  0  0  0  0
  141.8443  132.5546  160.9178 C   0  0  0  0  0  0  0  0  0  0  0  0
  142.2136  131.1679  160.4481 C   0  0  0  0  0  0  0  0  0  0  0  0
  143.5845  130.7672  161.0267 C   0  0  0  0  0  0  0  0  0  0  0  0
  142.2418  131.1286  158.9078 C   0  0  0  0  0  0  0  0  0  0  0  0
  141.1824  130.1213  160.9229 C   0  0  0  0  0  0  0  0  0  0  0  0
  142.6546  133.2995  161.6787 N   0  0  0  0  0  0  0  0  0  0  0  0
  147.4880  136.5782  161.6449 C   0  0  0  0  0  0  0  0  0  0  0  0
  146.7940  137.4141  161.0241 O   0  0  0  0  0  0  0  0  0  0  0  0
  148.7367  136.5144  161.6234 O   0  5  0  0  0  0  0  0  0  0  0  0
  147.0923  135.6922  163.5287 H   0  0  0  0  0  0  0  0  0  0  0  0
  148.1137  133.8922  162.1286 H   0  0  0  0  0  0  0  0  0  0  0  0
  146.6744  133.8644  161.1129 H   0  0  0  0  0  0  0  0  0  0  0  0
  146.5700  133.3943  162.8071 H   0  0  0  0  0  0  0  0  0  0  0  0
  145.0285  136.6754  162.0283 H   0  0  0  0  0  0  0  0  0  0  0  0
  142.4604  135.6332  163.8164 H   0  0  0  0  0  0  0  0  0  0  0  0
  142.9183  136.5090  162.3763 H   0  0  0  0  0  0  0  0  0  0  0  0
  140.2448  135.6305  161.5510 H   0  0  0  0  0  0  0  0  0  0  0  0
  143.8698  129.7617  160.7154 H   0  0  0  0  0  0  0  0  0  0  0  0
  143.5750  130.7851  162.1172 H   0  0  0  0  0  0  0  0  0  0  0  0
  144.3721  131.4444  160.6943 H   0  0  0  0  0  0  0  0  0  0  0  0
  142.9829  131.8192  158.5039 H   0  0  0  0  0  0  0  0  0  0  0  0
  141.2738  131.4027  158.4864 H   0  0  0  0  0  0  0  0  0  0  0  0
  142.4922  130.1331  158.5393 H   0  0  0  0  0  0  0  0  0  0  0  0
  141.4504  129.1200  160.5836 H   0  0  0  0  0  0  0  0  0  0  0  0
  140.1850  130.3346  160.5366 H   0  0  0  0  0  0  0  0  0  0  0  0
  141.1178  130.0842  162.0111 H   0  0  0  0  0  0  0  0  0  0  0  0
  1  2  1  0  0  0  0
  1 20  1  0  0  0  0
  1 21  1  0  0  0  0
  1 22  1  0  0  0  0
  2 19  1  0  0  0  0
  2  3  1  0  0  0  0
  2 16  1  0  0  0  0
  3  4  1  0  0  0  0
  3 23  1  0  0  0  0
  4  5  2  0  0  0  0
  4  6  1  0  0  0  0
  6  7  1  0  0  0  0
  6 24  1  0  0  0  0
  6 25  1  0  0  0  0
  7 15  1  0  0  0  0
  7  8  2  0  0  0  0
  8  9  1  0  0  0  0
  8 26  1  0  0  0  0
  9 10  1  0  0  0  0
 10 11  1  0  0  0  0
 10 15  2  0  0  0  0
 11 12  1  0  0  0  0
 11 13  1  0  0  0  0
 11 14  1  0  0  0  0
 12 27  1  0  0  0  0
 12 28  1  0  0  0  0
 12 29  1  0  0  0  0
 13 30  1  0  0  0  0
 13 31  1  0  0  0  0
 13 32  1  0  0  0  0
 14 33  1  0  0  0  0
 14 34  1  0  0  0  0
 14 35  1  0  0  0  0
 16 17  2  0  0  0  0
 16 18  1  0  0  0  0
M  CHG  1  18  -1
M  END
> <s_m_source_file>
AV-unprocessed.smi

> <i_m_source_file_index>
2708

> <i_lp_mmshare_version>
43012

> <i_f3d_flags>
0

> <s_epik_input>
Tz1DKFtPSF0pW0NASF0oW0NIM10pW05IXUMoPU8pW0NIMl1jMVtjSF1zYyhuMSlDKFtDSDNdKShbQ0gzXSlbQ0gzXQ==

> <s_epik_cmdline>
J2VwaWtfcHl0aG9uJywgJy1waCcsICc3LjAnLCAnLXRuJywgJzgnLCAnLW1hJywgJzIwMCcsICctbWV0YWxfYmluZGluZycsICctaW1hZScsICc8aW5maWxlLm1hZT4nLCAnLW9tYWUnLCAnPG91dGZpbGUubWFlPic=

> <r_lp_tautomer_probability>
1

> <r_epik_Ionization_Penalty>
0.000214174

> <r_epik_Ionization_Penalty_Charging>
0.000167453

> <r_epik_Ionization_Penalty_Neutral>
4.67216e-05

> <r_epik_State_Penalty>
-0

> <r_epik_Charging_Adjusted_Penalty>
0.000167453

> <i_epik_Tot_Q>
-1

> <i_epik_Tot_abs_Q>
1

> <r_epik_Metal_State_Penalty>
-0

> <b_epik_Metal_Only>
0

> <s_lp_Force_Field>
OPLS_2005

> <r_lp_Energy>
-5.26793

> <b_lp_Chiralities_Consistent>
1

> <s_lp_Variant>
AV-unprocessed.smi:2708-1

> <Gold.Version>
5.8.1

> <Gold.Id.Protein>
6NUR|6NUR_protein|mol2

> <Gold.PLP.Fitness>
41.5515

> <Gold.PLP.PLP>
-29.9870

> <Gold.PLP.part.hbond>
-3.2981

> <Gold.PLP.part.metal>
0.0000

> <Gold.PLP.part.buried>
-3.3780

> <Gold.PLP.part.nonpolar>
-24.3679

> <Gold.PLP.part.repulsive>
0.2219

> <Gold.PLP.ligand.clash>
0.0000

> <Gold.PLP.ligand.torsion>
0.2640

> <Gold.PLP.Chemscore.Hbond>
4.0000

> <Gold.PLP.Chemscore.CHOScore>
0.0000

> <Gold.PLP.Chemscore.Metal>
0.0000

> <Gold.Chemscore.Hbonds>
donor molecule, donor type, donor heavy atom, donor atom, acceptor molecule, acceptor atom, score
      P1  H  6931  6943       L1    18  1.80
      P1  H  6934  6947       L1    17  2.00

> <Gold.PLP.Chemscore.Internal.Correction>
0.0925

> <Gold.Rescore>
     Score         DG    S(hbond)    S(metal)    S(lipo)     H(rot)  DE(clash)    DE(int)     intcor
      9.70     -12.79       1.80        0.00      60.25       2.25       0.14       2.95       ----

> <Gold.Chemscore.Fitness>
9.6999

> <Gold.Chemscore.DG>
-12.7881

> <Gold.Chemscore.ZeroCoef>
-5.4800

> <Gold.Chemscore.Hbond>
1.8004

> <Gold.Chemscore.Metal>
0.0000

> <Gold.Chemscore.Lipo>
60.2488

> <Gold.Chemscore.Internal_Hbond>
0.0000

> <Gold.Chemscore.DEClash>
0.1401

> <Gold.Chemscore.DEInternal>
2.9481

> <Gold.Chemscore.Rot>
2.2478

> <Gold.Chemscore.Internal.Correction>
   9.000000E+99

> <Gold.Chemscore.Hbonds>
donor molecule, donor type, donor heavy atom, donor atom, acceptor molecule, acceptor atom, score
      P1  H  6931  6943       L1    18  0.18
      P1  H  6934  6947       L1    17  0.99

> <Gold.Chemscore.Hbond.Weighted>
-6.0134

> <Gold.Chemscore.Metal.Weighted>
-0.0000

> <Gold.Chemscore.Lipo.Weighted>
-7.0491

> <Gold.Chemscore.Internal_Hbond.Weighted>
0.0000

> <Gold.Chemscore.DEClash.Weighted>
0.1401

> <Gold.Chemscore.DEInternal.Weighted>
2.9481

> <Gold.Chemscore.Rot.Weighted>
5.7544

> <Gold.Chemscore.Internal.Correction.Weighted>
   9.000000E+99

> <Gold.Protein.RotatedTorsions>
[ 6907 6896 6895 6894 ] final  123.11 input  -60.11 | X-H torsion
[ 7974 7965 7964 7962 ] final  -73.45 input  175.53 | X-H torsion
[ 8008 7997 7996 7995 ] final -115.86 input   59.86 | X-H torsion
[ 10167 10162 10161 10158 ] final  -92.21 input  -65.29 | X-H torsion
[ 10718 10713 10712 10709 ] final -129.69 input   66.30 | X-H torsion
[ 10763 10752 10751 10750 ] final  144.05 input  -60.55 | X-H torsion
[ 11005 11000 10999 10996 ] final -158.44 input  -57.11 | X-H torsion

> <Gold.Protein.ActiveResidues>
 VAL166  LYS551  ARG553  GLY616  TRP617  ASP618  TYR619  PRO620  LYS621  CYS622 
 ASP623  PHE694  ASN695  SER759  ASP760  ASP761  ALA762  ILE779  LEU786  VAL792 
 PHE793  MET794  SER795  GLU796  ALA797  LYS798  CYS799  TRP800  GLU811  SER814 

> <Gold.Protein.RotatedAtoms>
  152.4188  133.7083  159.6463 H   0  0  0  0  0  0  0  0  0  0  0  0  # atno 6907 bound_to 6896
  150.8065  133.8490  159.3209 H   0  0  0  0  0  0  0  0  0  0  0  0  # atno 6908 bound_to 6896
  151.6212  135.1034  160.0153 H   0  0  0  0  0  0  0  0  0  0  0  0  # atno 6909 bound_to 6896
  145.6519  140.9280  143.0980 H   0  0  0  0  0  0  0  0  0  0  0  0  # atno 7974 bound_to 7965
  155.0587  140.0393  157.2569 H   0  0  0  0  0  0  0  0  0  0  0  0  # atno 8008 bound_to 7997
  154.7077  140.2686  155.6635 H   0  0  0  0  0  0  0  0  0  0  0  0  # atno 8009 bound_to 7997
  156.2780  140.2728  156.1708 H   0  0  0  0  0  0  0  0  0  0  0  0  # atno 8010 bound_to 7997
  140.3371  143.2963  151.9877 H   0  0  0  0  0  0  0  0  0  0  0  0  # atno 10167 bound_to 10162
  156.2072  130.6895  151.0607 H   0  0  0  0  0  0  0  0  0  0  0  0  # atno 10718 bound_to 10713
  153.9825  135.2940  155.3419 H   0  0  0  0  0  0  0  0  0  0  0  0  # atno 10763 bound_to 10752
  154.7261  135.5088  153.8891 H   0  0  0  0  0  0  0  0  0  0  0  0  # atno 10764 bound_to 10752
  153.0847  135.6690  154.0087 H   0  0  0  0  0  0  0  0  0  0  0  0  # atno 10765 bound_to 10752
  140.6536  134.4424  157.5235 H   0  0  0  0  0  0  0  0  0  0  0  0  # atno 11005 bound_to 11000
  144.7119  139.8338  143.7411 LP  0  0  0  0  0  0  0  0  0  0  0  0  # atno 17320 bound_to 7965
  146.1196  139.4212  143.0236 LP  0  0  0  0  0  0  0  0  0  0  0  0  # atno 17321 bound_to 7965
  139.4846  144.6188  151.7295 LP  0  0  0  0  0  0  0  0  0  0  0  0  # atno 17342 bound_to 10162
  140.5344  144.0679  150.6065 LP  0  0  0  0  0  0  0  0  0  0  0  0  # atno 17343 bound_to 10162
  157.7018  131.0772  150.6794 LP  0  0  0  0  0  0  0  0  0  0  0  0  # atno 17370 bound_to 10713
  156.6853  130.4579  149.5615 LP  0  0  0  0  0  0  0  0  0  0  0  0  # atno 17371 bound_to 10713
  139.9037  134.8497  156.1791 LP  0  0  0  0  0  0  0  0  0  0  0  0  # atno 17394 bound_to 11000
  141.0518  133.6885  156.1786 LP  0  0  0  0  0  0  0  0  0  0  0  0  # atno 17395 bound_to 11000

$$$$
