AV-unprocessed.smi:2665|AV-procd|sdf|10331|dock2
  -GOLD-   2272014353D 1   1.00000     0.00000
 Structure written by MMmdl.
 29 30  0  0  0  0  0  0  0  0  2 V2000
  151.3477  145.1083  158.9305 C   0  0  0  0  0  0  0  0  0  0  0  0
  151.6418  143.7171  159.5017 C   0  0  1  0  0  0  0  0  0  0  0  0
  151.8137  142.6601  158.3936 C   0  0  0  0  0  0  0  0  0  0  0  0
  152.1789  141.3763  158.9789 N   0  0  0  0  0  0  0  0  0  0  0  0
  152.2347  140.3311  158.0461 C   0  0  0  0  0  0  0  0  0  0  0  0
  152.6390  139.0512  158.4784 C   0  0  0  0  0  0  0  0  0  0  0  0
  152.6958  137.9942  157.5413 C   0  0  0  0  0  0  0  0  0  0  0  0
  153.1209  136.6124  157.9557 C   0  0  0  0  0  0  0  0  0  0  0  0
  153.3707  136.3945  159.1624 O   0  0  0  0  0  0  0  0  0  0  0  0
  153.2127  135.7213  157.0819 O   0  5  0  0  0  0  0  0  0  0  0  0
  152.3405  138.2762  156.2030 C   0  0  0  0  0  0  0  0  0  0  0  0
  151.9502  139.5868  155.8686 C   0  0  0  0  0  0  0  0  0  0  0  0
  151.8957  140.5964  156.7621 N   0  0  0  0  0  0  0  0  0  0  0  0
  153.3625  141.4654  159.8240 C   0  0  0  0  0  0  0  0  0  0  0  0
  153.1617  142.5507  160.8949 C   0  0  0  0  0  0  0  0  0  0  0  0
  152.8435  143.7898  160.2667 O   0  0  0  0  0  0  0  0  0  0  0  0
  150.4283  145.1050  158.3445 H   0  0  0  0  0  0  0  0  0  0  0  0
  152.1564  145.4477  158.2826 H   0  0  0  0  0  0  0  0  0  0  0  0
  151.2305  145.8408  159.7294 H   0  0  0  0  0  0  0  0  0  0  0  0
  150.8182  143.4299  160.1581 H   0  0  0  0  0  0  0  0  0  0  0  0
  150.8870  142.5536  157.8282 H   0  0  0  0  0  0  0  0  0  0  0  0
  152.5861  142.9778  157.6915 H   0  0  0  0  0  0  0  0  0  0  0  0
  152.8996  138.8887  159.5145 H   0  0  0  0  0  0  0  0  0  0  0  0
  152.3645  137.5102  155.4415 H   0  0  0  0  0  0  0  0  0  0  0  0
  151.6743  139.8318  154.8538 H   0  0  0  0  0  0  0  0  0  0  0  0
  153.5517  140.5012  160.2976 H   0  0  0  0  0  0  0  0  0  0  0  0
  154.2353  141.7039  159.2144 H   0  0  0  0  0  0  0  0  0  0  0  0
  152.3690  142.2697  161.5902 H   0  0  0  0  0  0  0  0  0  0  0  0
  154.0720  142.6730  161.4818 H   0  0  0  0  0  0  0  0  0  0  0  0
  1  2  1  0  0  0  0
  1 17  1  0  0  0  0
  1 18  1  0  0  0  0
  1 19  1  0  0  0  0
  2 16  1  0  0  0  0
  2  3  1  0  0  0  0
  2 20  1  0  0  0  0
  3  4  1  0  0  0  0
  3 21  1  0  0  0  0
  3 22  1  0  0  0  0
  4  5  1  0  0  0  0
  4 14  1  0  0  0  0
  5 13  1  0  0  0  0
  5  6  2  0  0  0  0
  6  7  1  0  0  0  0
  6 23  1  0  0  0  0
  7  8  1  0  0  0  0
  7 11  2  0  0  0  0
  8  9  2  0  0  0  0
  8 10  1  0  0  0  0
 11 12  1  0  0  0  0
 11 24  1  0  0  0  0
 12 13  2  0  0  0  0
 12 25  1  0  0  0  0
 14 15  1  0  0  0  0
 14 26  1  0  0  0  0
 14 27  1  0  0  0  0
 15 16  1  0  0  0  0
 15 28  1  0  0  0  0
 15 29  1  0  0  0  0
M  CHG  1  10  -1
M  END
> <s_m_source_file>
AV-unprocessed.smi

> <i_m_source_file_index>
2665

> <i_lp_mmshare_version>
43012

> <i_f3d_flags>
0

> <s_epik_input>
W0NIM11bQ0BASF0xW0NIMl1OKFtDSDJdW0NIMl1PMSljMltjSF1jKEMoPU8pW09IXSlbY0hdW2NIXW4y

> <s_epik_cmdline>
J2VwaWtfcHl0aG9uJywgJy1waCcsICc3LjAnLCAnLXRuJywgJzgnLCAnLW1hJywgJzIwMCcsICctbWV0YWxfYmluZGluZycsICctaW1hZScsICc8aW5maWxlLm1hZT4nLCAnLW9tYWUnLCAnPG91dGZpbGUubWFlPic=

> <r_epik_Ionization_Penalty>
0.00511367

> <r_epik_Ionization_Penalty_Charging>
0.00135522

> <r_epik_Ionization_Penalty_Neutral>
0.00375844

> <r_epik_State_Penalty>
0.00357724

> <r_epik_Charging_Adjusted_Penalty>
0.00493246

> <i_epik_Tot_Q>
-1

> <i_epik_Tot_abs_Q>
1

> <r_epik_Metal_State_Penalty>
-0

> <b_epik_Metal_Only>
0

> <s_lp_Force_Field>
OPLS_2005

> <r_lp_Energy>
17.7567

> <b_lp_Chiralities_Consistent>
1

> <s_lp_Variant>
AV-unprocessed.smi:2665-2

> <Gold.Version>
5.8.1

> <Gold.Id.Protein>
6NUR|6NUR_protein|mol2

> <Gold.PLP.Fitness>
40.5796

> <Gold.PLP.PLP>
-28.8076

> <Gold.PLP.part.hbond>
-2.0000

> <Gold.PLP.part.metal>
0.0000

> <Gold.PLP.part.buried>
-3.2907

> <Gold.PLP.part.nonpolar>
-23.1703

> <Gold.PLP.part.repulsive>
0.0191

> <Gold.PLP.ligand.clash>
0.0000

> <Gold.PLP.ligand.torsion>
0.1658

> <Gold.PLP.Chemscore.Hbond>
4.0000

> <Gold.PLP.Chemscore.CHOScore>
0.0000

> <Gold.PLP.Chemscore.Metal>
0.0000

> <Gold.Chemscore.Hbonds>
donor molecule, donor type, donor heavy atom, donor atom, acceptor molecule, acceptor atom, score
      P1  H  6896  6907       L1     9  1.89
      P1  H 10752 10764       L1    10  2.00

> <Gold.PLP.Chemscore.Internal.Correction>
0.1036

> <Gold.Rescore>
     Score         DG    S(hbond)    S(metal)    S(lipo)     H(rot)  DE(clash)    DE(int)     intcor
     18.00     -18.26       1.94        0.00      75.84       1.00       0.13       0.13       ----

> <Gold.Chemscore.Fitness>
17.9996

> <Gold.Chemscore.DG>
-18.2643

> <Gold.Chemscore.ZeroCoef>
-5.4800

> <Gold.Chemscore.Hbond>
1.9374

> <Gold.Chemscore.Metal>
0.0000

> <Gold.Chemscore.Lipo>
75.8423

> <Gold.Chemscore.Internal_Hbond>
0.0000

> <Gold.Chemscore.DEClash>
0.1334

> <Gold.Chemscore.DEInternal>
0.1313

> <Gold.Chemscore.Rot>
1.0000

> <Gold.Chemscore.Internal.Correction>
   9.000000E+99

> <Gold.Chemscore.Hbonds>
donor molecule, donor type, donor heavy atom, donor atom, acceptor molecule, acceptor atom, score
      P1  H  6896  6907       L1     9  0.75
      P1  H 10752 10764       L1    10  0.98

> <Gold.Chemscore.Hbond.Weighted>
-6.4708

> <Gold.Chemscore.Metal.Weighted>
-0.0000

> <Gold.Chemscore.Lipo.Weighted>
-8.8735

> <Gold.Chemscore.Internal_Hbond.Weighted>
0.0000

> <Gold.Chemscore.DEClash.Weighted>
0.1334

> <Gold.Chemscore.DEInternal.Weighted>
0.1313

> <Gold.Chemscore.Rot.Weighted>
2.5600

> <Gold.Chemscore.Internal.Correction.Weighted>
   9.000000E+99

> <Gold.Protein.RotatedTorsions>
[ 6907 6896 6895 6894 ] final   38.35 input  -60.11 | X-H torsion
[ 7974 7965 7964 7962 ] final  137.40 input  175.53 | X-H torsion
[ 8008 7997 7996 7995 ] final -139.94 input   59.86 | X-H torsion
[ 10167 10162 10161 10158 ] final   10.56 input  -65.29 | X-H torsion
[ 10718 10713 10712 10709 ] final  111.23 input   66.30 | X-H torsion
[ 10763 10752 10751 10750 ] final   21.07 input  -60.55 | X-H torsion
[ 11005 11000 10999 10996 ] final  -25.19 input  -57.11 | X-H torsion

> <Gold.Protein.ActiveResidues>
 VAL166  LYS551  ARG553  GLY616  TRP617  ASP618  TYR619  PRO620  LYS621  CYS622 
 ASP623  PHE694  ASN695  SER759  ASP760  ASP761  ALA762  ILE779  LEU786  VAL792 
 PHE793  MET794  SER795  GLU796  ALA797  LYS798  CYS799  TRP800  GLU811  SER814 

> <Gold.Protein.RotatedAtoms>
  152.1553  134.8956  160.0545 H   0  0  0  0  0  0  0  0  0  0  0  0  # atno 6907 bound_to 6896
  151.9972  133.3807  159.4175 H   0  0  0  0  0  0  0  0  0  0  0  0  # atno 6908 bound_to 6896
  150.6880  134.3795  159.5072 H   0  0  0  0  0  0  0  0  0  0  0  0  # atno 6909 bound_to 6896
  144.9471  139.4862  143.5544 H   0  0  0  0  0  0  0  0  0  0  0  0  # atno 7974 bound_to 7965
  155.4531  140.0540  157.2999 H   0  0  0  0  0  0  0  0  0  0  0  0  # atno 8008 bound_to 7997
  154.4769  140.2064  155.9813 H   0  0  0  0  0  0  0  0  0  0  0  0  # atno 8009 bound_to 7997
  156.1145  140.3198  155.8124 H   0  0  0  0  0  0  0  0  0  0  0  0  # atno 8010 bound_to 7997
  140.6186  143.8253  150.7148 H   0  0  0  0  0  0  0  0  0  0  0  0  # atno 10167 bound_to 10162
  157.6455  131.0947  150.6717 H   0  0  0  0  0  0  0  0  0  0  0  0  # atno 10718 bound_to 10713
  153.1025  135.6676  153.9646 H   0  0  0  0  0  0  0  0  0  0  0  0  # atno 10763 bound_to 10752
  153.9213  135.3014  155.3449 H   0  0  0  0  0  0  0  0  0  0  0  0  # atno 10764 bound_to 10752
  154.7446  135.5063  153.9257 H   0  0  0  0  0  0  0  0  0  0  0  0  # atno 10765 bound_to 10752
  140.8914  133.7585  156.0426 H   0  0  0  0  0  0  0  0  0  0  0  0  # atno 11005 bound_to 11000
  146.3307  139.8531  142.8869 LP  0  0  0  0  0  0  0  0  0  0  0  0  # atno 17320 bound_to 7965
  145.2901  141.0164  143.3668 LP  0  0  0  0  0  0  0  0  0  0  0  0  # atno 17321 bound_to 7965
  140.1838  143.4093  152.1913 LP  0  0  0  0  0  0  0  0  0  0  0  0  # atno 17342 bound_to 10162
  139.5420  144.7264  151.4705 LP  0  0  0  0  0  0  0  0  0  0  0  0  # atno 17343 bound_to 10162
  156.7035  130.4630  149.5566 LP  0  0  0  0  0  0  0  0  0  0  0  0  # atno 17370 bound_to 10713
  156.1779  130.6479  151.0916 LP  0  0  0  0  0  0  0  0  0  0  0  0  # atno 17371 bound_to 10713
  140.8342  134.3143  157.5338 LP  0  0  0  0  0  0  0  0  0  0  0  0  # atno 17394 bound_to 11000
  139.8730  134.9380  156.3702 LP  0  0  0  0  0  0  0  0  0  0  0  0  # atno 17395 bound_to 11000

$$$$
