AV-unprocessed.smi:278|AV-procd|sdf|2092|dock4
  -GOLD-   2262021373D 1   1.00000     0.00000
 Structure written by MMmdl.
 50 54  0  0  0  0  0  0  0  0  1 V2000
  153.8520  130.3378  157.0042 O   0  0  0  0  0  0  0  0  0  0  0  0
  153.8405  131.6011  157.7569 S   0  0  0  0  0  0  0  0  0  0  0  0
  152.6525  132.4689  157.7502 O   0  0  0  0  0  0  0  0  0  0  0  0
  154.3248  131.2635  159.4944 C   0  0  0  0  0  0  0  0  0  0  0  0
  155.7877  131.7078  159.6275 C   0  0  0  0  0  0  0  0  0  0  0  0
  156.0609  132.8500  158.6323 C   0  0  2  0  0  0  0  0  0  0  0  0
  155.4734  134.2000  159.0570 C   0  0  0  0  0  0  0  0  0  0  0  0
  155.1973  134.9033  157.8122 N   0  0  0  0  0  0  0  0  0  0  0  0
  154.5096  136.0753  157.8072 C   0  0  0  0  0  0  0  0  0  0  0  0
  153.9197  136.4868  156.6530 N   0  0  0  0  0  0  0  0  0  0  0  0
  153.2430  137.6378  156.6082 C   0  0  0  0  0  0  0  0  0  0  0  0
  153.0272  138.5170  157.5874 N   0  0  0  0  0  0  0  0  0  0  0  0
  153.6011  138.1054  158.7532 C   0  0  0  0  0  0  0  0  0  0  0  0
  154.3495  136.9096  158.9528 C   0  0  0  0  0  0  0  0  0  0  0  0
  154.7592  136.8321  160.2801 N   0  0  0  0  0  0  0  0  0  0  0  0
  154.2961  137.9227  160.8264 C   0  0  0  0  0  0  0  0  0  0  0  0
  153.5963  138.7486  159.9776 N   0  0  0  0  0  0  0  0  0  0  0  0
  152.9915  140.0256  160.3089 C   0  0  0  0  0  0  0  0  0  0  0  0
  154.0101  141.0549  160.8440 C   0  0  1  0  0  0  0  0  0  0  0  0
  155.1073  141.0609  159.9530 O   0  0  0  0  0  0  0  0  0  0  0  0
  153.4558  142.4916  160.9768 C   0  0  2  0  0  0  0  0  0  0  0  0
  152.7104  142.7694  162.2830 C   0  0  0  0  0  0  0  0  0  0  0  0
  151.8410  143.9667  161.9392 C   0  0  0  0  0  0  0  0  0  0  0  0
  151.7284  143.9113  160.4135 C   0  0  0  0  0  0  0  0  0  0  0  0
  152.4281  142.7365  160.0273 O   0  0  0  0  0  0  0  0  0  0  0  0
  155.0255  133.9500  156.7231 C   0  0  0  0  0  0  0  0  0  0  0  0
  155.3455  132.5679  157.3105 C   0  0  2  0  0  0  0  0  0  0  0  0
  157.1312  132.9683  158.4585 H   0  0  0  0  0  0  0  0  0  0  0  0
  155.9506  131.9595  156.6376 H   0  0  0  0  0  0  0  0  0  0  0  0
  153.6794  131.8554  160.1433 H   0  0  0  0  0  0  0  0  0  0  0  0
  154.1775  130.2092  159.7290 H   0  0  0  0  0  0  0  0  0  0  0  0
  156.0325  131.9912  160.6516 H   0  0  0  0  0  0  0  0  0  0  0  0
  156.4317  130.8658  159.3710 H   0  0  0  0  0  0  0  0  0  0  0  0
  154.5435  134.0662  159.6115 H   0  0  0  0  0  0  0  0  0  0  0  0
  156.1682  134.7579  159.6856 H   0  0  0  0  0  0  0  0  0  0  0  0
  152.8147  137.8915  155.6497 H   0  0  0  0  0  0  0  0  0  0  0  0
  154.4638  138.1609  161.8668 H   0  0  0  0  0  0  0  0  0  0  0  0
  152.4978  140.4102  159.4154 H   0  0  0  0  0  0  0  0  0  0  0  0
  152.2079  139.8519  161.0479 H   0  0  0  0  0  0  0  0  0  0  0  0
  154.3813  140.7245  161.8149 H   0  0  0  0  0  0  0  0  0  0  0  0
  155.2356  140.1820  159.6303 H   0  0  0  0  0  0  0  0  0  0  0  0
  154.2537  143.2245  160.8408 H   0  0  0  0  0  0  0  0  0  0  0  0
  152.0771  141.9194  162.5415 H   0  0  0  0  0  0  0  0  0  0  0  0
  153.3790  142.9608  163.1227 H   0  0  0  0  0  0  0  0  0  0  0  0
  150.8680  143.9100  162.4284 H   0  0  0  0  0  0  0  0  0  0  0  0
  152.3202  144.8963  162.2485 H   0  0  0  0  0  0  0  0  0  0  0  0
  150.6938  143.8683  160.0727 H   0  0  0  0  0  0  0  0  0  0  0  0
  152.2015  144.7824  159.9584 H   0  0  0  0  0  0  0  0  0  0  0  0
  154.0262  133.9889  156.2889 H   0  0  0  0  0  0  0  0  0  0  0  0
  155.7387  134.1952  155.9355 H   0  0  0  0  0  0  0  0  0  0  0  0
  1  2  2  0  0  0  0
  2 27  1  0  0  0  0
  2  3  2  0  0  0  0
  2  4  1  0  0  0  0
  4  5  1  0  0  0  0
  4 30  1  0  0  0  0
  4 31  1  0  0  0  0
  5  6  1  0  0  0  0
  5 32  1  0  0  0  0
  5 33  1  0  0  0  0
  6 28  1  0  0  0  0
  6 27  1  0  0  0  0
  6  7  1  0  0  0  0
  7  8  1  0  0  0  0
  7 34  1  0  0  0  0
  7 35  1  0  0  0  0
  8  9  1  0  0  0  0
  8 26  1  0  0  0  0
  9 14  1  0  0  0  0
  9 10  2  0  0  0  0
 10 11  1  0  0  0  0
 11 12  2  0  0  0  0
 11 36  1  0  0  0  0
 12 13  1  0  0  0  0
 13 17  1  0  0  0  0
 13 14  2  0  0  0  0
 14 15  1  0  0  0  0
 15 16  2  0  0  0  0
 16 17  1  0  0  0  0
 16 37  1  0  0  0  0
 17 18  1  0  0  0  0
 18 19  1  0  0  0  0
 18 38  1  0  0  0  0
 18 39  1  0  0  0  0
 19 20  1  0  0  0  0
 19 21  1  0  0  0  0
 19 40  1  0  0  0  0
 20 41  1  0  0  0  0
 21 25  1  0  0  0  0
 21 22  1  0  0  0  0
 21 42  1  0  0  0  0
 22 23  1  0  0  0  0
 22 43  1  0  0  0  0
 22 44  1  0  0  0  0
 23 24  1  0  0  0  0
 23 45  1  0  0  0  0
 23 46  1  0  0  0  0
 24 25  1  0  0  0  0
 24 47  1  0  0  0  0
 24 48  1  0  0  0  0
 26 27  1  0  0  0  0
 26 49  1  0  0  0  0
 26 50  1  0  0  0  0
 27 29  1  0  0  0  0
M  END
> <s_m_source_file>
AV-unprocessed.smi

> <i_m_source_file_index>
278

> <i_lp_mmshare_version>
43012

> <i_f3d_flags>
0

> <s_epik_input>
W0NIMl0xW0NIMl1TKD1PKSg9TylbQ0BASF0oW0NAQEhdMTIpW0NIMl1OKFtDSDJdMiljKG5bY0hdbjMpYyhjMzQpbltjSF1uNFtDSDJdW0NASF0oW09IXSlbQ0BASF01W0NIMl1bQ0gyXVtDSDJdTzU=

> <s_epik_cmdline>
J2VwaWtfcHl0aG9uJywgJy1waCcsICc3LjAnLCAnLXRuJywgJzgnLCAnLW1hJywgJzIwMCcsICctbWV0YWxfYmluZGluZycsICctaW1hZScsICc8aW5maWxlLm1hZT4nLCAnLW9tYWUnLCAnPG91dGZpbGUubWFlPic=

> <r_lp_tautomer_probability>
1

> <r_epik_Ionization_Penalty>
0.000636766

> <r_epik_Ionization_Penalty_Charging>
0

> <r_epik_Ionization_Penalty_Neutral>
0.000636766

> <r_epik_State_Penalty>
0.000329976

> <r_epik_Charging_Adjusted_Penalty>
0.000329976

> <i_epik_Tot_Q>
0

> <i_epik_Tot_abs_Q>
0

> <r_epik_Metal_State_Penalty>
-0

> <b_epik_Metal_Only>
0

> <s_lp_Force_Field>
OPLS_2005

> <r_lp_Energy>
49.0353

> <b_lp_Chiralities_Consistent>
1

> <s_lp_Variant>
AV-unprocessed.smi:278-6

> <Gold.Version>
5.8.1

> <Gold.Id.Protein>
6NUR|6NUR_protein|mol2

> <Gold.PLP.Fitness>
43.4069

> <Gold.PLP.PLP>
-35.8663

> <Gold.PLP.part.hbond>
-3.6396

> <Gold.PLP.part.metal>
0.0000

> <Gold.PLP.part.buried>
-5.7322

> <Gold.PLP.part.nonpolar>
-26.6540

> <Gold.PLP.part.repulsive>
0.0000

> <Gold.PLP.ligand.clash>
0.0000

> <Gold.PLP.ligand.torsion>
0.8696

> <Gold.PLP.Chemscore.Hbond>
2.9920

> <Gold.PLP.Chemscore.CHOScore>
0.0000

> <Gold.PLP.Chemscore.Metal>
0.0000

> <Gold.Chemscore.Hbonds>
donor molecule, donor type, donor heavy atom, donor atom, acceptor molecule, acceptor atom, score
      P1  H  6896  6908       L1     3  1.00
      P1  H  7997  8010       L1    12  0.30
      P1  H 10752 10764       L1    10  0.51

> <Gold.PLP.Chemscore.Internal.Correction>
0.3038

> <Gold.Rescore>
     Score         DG    S(hbond)    S(metal)    S(lipo)     H(rot)  DE(clash)    DE(int)     intcor
     13.89     -16.12       1.96        0.00      81.58       2.13       0.00       2.23       ----

> <Gold.Chemscore.Fitness>
13.8850

> <Gold.Chemscore.DG>
-16.1172

> <Gold.Chemscore.ZeroCoef>
-5.4800

> <Gold.Chemscore.Hbond>
1.9633

> <Gold.Chemscore.Metal>
0.0000

> <Gold.Chemscore.Lipo>
81.5758

> <Gold.Chemscore.Internal_Hbond>
0.0000

> <Gold.Chemscore.DEClash>
0.0047

> <Gold.Chemscore.DEInternal>
2.2275

> <Gold.Chemscore.Rot>
2.1346

> <Gold.Chemscore.Internal.Correction>
   9.000000E+99

> <Gold.Chemscore.Hbonds>
donor molecule, donor type, donor heavy atom, donor atom, acceptor molecule, acceptor atom, score
      P1  H  6896  6908       L1     3  0.96
      P1  H  7997  8010       L1    12  0.01
      P1  H 10752 10764       L1    10  0.39

> <Gold.Chemscore.Hbond.Weighted>
-6.5575

> <Gold.Chemscore.Metal.Weighted>
-0.0000

> <Gold.Chemscore.Lipo.Weighted>
-9.5444

> <Gold.Chemscore.Internal_Hbond.Weighted>
0.0000

> <Gold.Chemscore.DEClash.Weighted>
0.0047

> <Gold.Chemscore.DEInternal.Weighted>
2.2275

> <Gold.Chemscore.Rot.Weighted>
5.4646

> <Gold.Chemscore.Internal.Correction.Weighted>
   9.000000E+99

> <Gold.Protein.RotatedTorsions>
[ 6907 6896 6895 6894 ] final   36.06 input  -60.11 | X-H torsion
[ 7974 7965 7964 7962 ] final    9.42 input  175.53 | X-H torsion
[ 8008 7997 7996 7995 ] final   30.68 input   59.86 | X-H torsion
[ 10167 10162 10161 10158 ] final -147.29 input  -65.29 | X-H torsion
[ 10718 10713 10712 10709 ] final  -44.78 input   66.30 | X-H torsion
[ 10763 10752 10751 10750 ] final   51.10 input  -60.55 | X-H torsion
[ 11005 11000 10999 10996 ] final   16.61 input  -57.11 | X-H torsion

> <Gold.Protein.ActiveResidues>
 VAL166  LYS551  ARG553  GLY616  TRP617  ASP618  TYR619  PRO620  LYS621  CYS622 
 ASP623  PHE694  ASN695  SER759  ASP760  ASP761  ALA762  ILE779  LEU786  VAL792 
 PHE793  MET794  SER795  GLU796  ALA797  LYS798  CYS799  TRP800  GLU811  SER814 

> <Gold.Protein.RotatedAtoms>
  152.1246  134.9180  160.0561 H   0  0  0  0  0  0  0  0  0  0  0  0  # atno 6907 bound_to 6896
  152.0308  133.3931  159.4304 H   0  0  0  0  0  0  0  0  0  0  0  0  # atno 6908 bound_to 6896
  150.6851  134.3444  159.4925 H   0  0  0  0  0  0  0  0  0  0  0  0  # atno 6909 bound_to 6896
  146.2403  139.9786  142.8439 H   0  0  0  0  0  0  0  0  0  0  0  0  # atno 7974 bound_to 7965
  155.0944  140.3223  155.4565 H   0  0  0  0  0  0  0  0  0  0  0  0  # atno 8008 bound_to 7997
  156.2734  140.2072  156.6017 H   0  0  0  0  0  0  0  0  0  0  0  0  # atno 8009 bound_to 7997
  154.6878  140.0519  157.0320 H   0  0  0  0  0  0  0  0  0  0  0  0  # atno 8010 bound_to 7997
  139.7635  143.8342  152.2611 H   0  0  0  0  0  0  0  0  0  0  0  0  # atno 10167 bound_to 10162
  156.2351  130.4175  149.8828 H   0  0  0  0  0  0  0  0  0  0  0  0  # atno 10718 bound_to 10713
  152.9785  135.5857  154.4361 H   0  0  0  0  0  0  0  0  0  0  0  0  # atno 10763 bound_to 10752
  154.3968  135.2768  155.2123 H   0  0  0  0  0  0  0  0  0  0  0  0  # atno 10764 bound_to 10752
  154.3971  135.6112  153.5930 H   0  0  0  0  0  0  0  0  0  0  0  0  # atno 10765 bound_to 10752
  140.4452  134.1281  155.7695 H   0  0  0  0  0  0  0  0  0  0  0  0  # atno 11005 bound_to 11000
  145.1613  140.9674  143.4375 LP  0  0  0  0  0  0  0  0  0  0  0  0  # atno 17320 bound_to 7965
  145.0113  139.3507  143.6118 LP  0  0  0  0  0  0  0  0  0  0  0  0  # atno 17321 bound_to 7965
  139.8355  144.7234  150.9396 LP  0  0  0  0  0  0  0  0  0  0  0  0  # atno 17342 bound_to 10162
  140.7809  143.4031  151.1116 LP  0  0  0  0  0  0  0  0  0  0  0  0  # atno 17343 bound_to 10162
  156.6428  130.8712  151.3517 LP  0  0  0  0  0  0  0  0  0  0  0  0  # atno 17370 bound_to 10713
  157.7151  130.9487  150.1225 LP  0  0  0  0  0  0  0  0  0  0  0  0  # atno 17371 bound_to 10713
  141.1688  133.8649  157.1633 LP  0  0  0  0  0  0  0  0  0  0  0  0  # atno 17394 bound_to 11000
  140.0043  135.0015  157.0259 LP  0  0  0  0  0  0  0  0  0  0  0  0  # atno 17395 bound_to 11000

$$$$
