AV-unprocessed.smi:2290|AV-procd|sdf|9210|dock6
  -GOLD-   2272012433D 1   1.00000     0.00000
 Structure written by MMmdl.
 38 39  0  0  0  0  0  0  0  0  1 V2000
  152.0674  143.9829  160.0378 C   0  0  0  0  0  0  0  0  0  0  0  0
  152.2204  142.5604  159.5291 C   0  0  0  0  0  0  0  0  0  0  0  0
  151.7153  142.3196  158.2480 N   0  0  0  0  0  0  0  0  0  0  0  0
  151.8021  141.1372  157.7324 C   0  0  0  0  0  0  0  0  0  0  0  0
  152.3965  140.0713  158.4272 N   0  0  0  0  0  0  0  0  0  0  0  0
  152.4395  138.7786  157.7245 C   0  0  0  0  0  0  0  0  0  0  0  0
  151.8179  137.6376  158.5611 C   0  0  2  0  0  0  0  0  0  0  0  0
  151.9893  136.3942  157.9109 O   0  0  0  0  0  0  0  0  0  0  0  0
  150.3141  137.8323  158.8156 C   0  0  0  0  0  0  0  0  0  0  0  0
  149.8093  136.7623  159.6060 O   0  0  0  0  0  0  0  0  0  0  0  0
  148.5061  136.3331  159.2355 C   0  0  0  0  0  0  0  0  0  0  0  0
  147.8295  135.7455  160.4358 C   0  0  0  0  0  0  0  0  0  0  0  0
  147.5181  136.3855  161.6084 C   0  0  0  0  0  0  0  0  0  0  0  0
  146.8865  135.5354  162.5633 C   0  0  0  0  0  0  0  0  0  0  0  0
  146.7308  134.2523  162.1110 C   0  0  0  0  0  0  0  0  0  0  0  0
  147.3632  134.0614  160.4990 S   0  0  0  0  0  0  0  0  0  0  0  0
  152.9189  140.2206  159.6789 C   0  0  0  0  0  0  0  0  0  0  0  0
  153.4491  139.2806  160.2745 O   0  0  0  0  0  0  0  0  0  0  0  0
  152.8092  141.5707  160.2547 C   0  0  0  0  0  0  0  0  0  0  0  0
  153.3773  141.7740  161.6538 C   0  0  0  0  0  0  0  0  0  0  0  0
  151.4747  144.0009  160.9528 H   0  0  0  0  0  0  0  0  0  0  0  0
  151.5670  144.6155  159.3033 H   0  0  0  0  0  0  0  0  0  0  0  0
  153.0440  144.4211  160.2451 H   0  0  0  0  0  0  0  0  0  0  0  0
  151.4275  140.8977  156.7357 H   0  0  0  0  0  0  0  0  0  0  0  0
  151.8869  138.8799  156.7886 H   0  0  0  0  0  0  0  0  0  0  0  0
  153.4511  138.5144  157.4093 H   0  0  0  0  0  0  0  0  0  0  0  0
  152.3107  137.5663  159.5314 H   0  0  0  0  0  0  0  0  0  0  0  0
  152.9141  136.2419  157.7911 H   0  0  0  0  0  0  0  0  0  0  0  0
  150.1213  138.7925  159.2970 H   0  0  0  0  0  0  0  0  0  0  0  0
  149.7985  137.8506  157.8545 H   0  0  0  0  0  0  0  0  0  0  0  0
  147.9424  137.2005  158.8921 H   0  0  0  0  0  0  0  0  0  0  0  0
  148.5407  135.6248  158.4062 H   0  0  0  0  0  0  0  0  0  0  0  0
  147.7177  137.4273  161.8114 H   0  0  0  0  0  0  0  0  0  0  0  0
  146.5750  135.8892  163.5349 H   0  0  0  0  0  0  0  0  0  0  0  0
  146.2894  133.4110  162.6248 H   0  0  0  0  0  0  0  0  0  0  0  0
  154.4430  141.5429  161.6637 H   0  0  0  0  0  0  0  0  0  0  0  0
  152.8803  141.1092  162.3611 H   0  0  0  0  0  0  0  0  0  0  0  0
  153.2594  142.7917  162.0224 H   0  0  0  0  0  0  0  0  0  0  0  0
  1  2  1  0  0  0  0
  1 21  1  0  0  0  0
  1 22  1  0  0  0  0
  1 23  1  0  0  0  0
  2 19  2  0  0  0  0
  2  3  1  0  0  0  0
  3  4  2  0  0  0  0
  4  5  1  0  0  0  0
  4 24  1  0  0  0  0
  5  6  1  0  0  0  0
  5 17  1  0  0  0  0
  6  7  1  0  0  0  0
  6 25  1  0  0  0  0
  6 26  1  0  0  0  0
  7  8  1  0  0  0  0
  7  9  1  0  0  0  0
  7 27  1  0  0  0  0
  8 28  1  0  0  0  0
  9 10  1  0  0  0  0
  9 29  1  0  0  0  0
  9 30  1  0  0  0  0
 10 11  1  0  0  0  0
 11 12  1  0  0  0  0
 11 31  1  0  0  0  0
 11 32  1  0  0  0  0
 12 16  1  0  0  0  0
 12 13  2  0  0  0  0
 13 14  1  0  0  0  0
 13 33  1  0  0  0  0
 14 15  2  0  0  0  0
 14 34  1  0  0  0  0
 15 16  1  0  0  0  0
 15 35  1  0  0  0  0
 17 18  2  0  0  0  0
 17 19  1  0  0  0  0
 19 20  1  0  0  0  0
 20 36  1  0  0  0  0
 20 37  1  0  0  0  0
 20 38  1  0  0  0  0
M  END
> <s_m_source_file>
AV-unprocessed.smi

> <i_m_source_file_index>
2290

> <i_lp_mmshare_version>
43012

> <i_f3d_flags>
0

> <s_epik_input>
W0NIM11jMW5bY0hdbihjKD1PKWMxW0NIM10pW0NIMl1bQ0BIXShbT0hdKVtDSDJdT1tDSDJdYzJbY0hdW2NIXVtjSF1zMg==

> <s_epik_cmdline>
J2VwaWtfcHl0aG9uJywgJy1waCcsICc3LjAnLCAnLXRuJywgJzgnLCAnLW1hJywgJzIwMCcsICctbWV0YWxfYmluZGluZycsICctaW1hZScsICc8aW5maWxlLm1hZT4nLCAnLW9tYWUnLCAnPG91dGZpbGUubWFlPic=

> <r_lp_tautomer_probability>
1

> <r_epik_Ionization_Penalty>
4.77825e-05

> <r_epik_Ionization_Penalty_Charging>
1.20754e-07

> <r_epik_Ionization_Penalty_Neutral>
4.76618e-05

> <r_epik_State_Penalty>
-0

> <r_epik_Charging_Adjusted_Penalty>
1.20754e-07

> <i_epik_Tot_Q>
0

> <i_epik_Tot_abs_Q>
0

> <r_epik_Metal_State_Penalty>
-0

> <b_epik_Metal_Only>
0

> <s_lp_Force_Field>
OPLS_2005

> <r_lp_Energy>
18.6865

> <b_lp_Chiralities_Consistent>
1

> <s_lp_Variant>
AV-unprocessed.smi:2290-1

> <Gold.Version>
5.8.1

> <Gold.Id.Protein>
6NUR|6NUR_protein|mol2

> <Gold.PLP.Fitness>
47.5600

> <Gold.PLP.PLP>
-45.4659

> <Gold.PLP.part.hbond>
-1.5554

> <Gold.PLP.part.metal>
0.0000

> <Gold.PLP.part.buried>
-5.4725

> <Gold.PLP.part.nonpolar>
-38.4263

> <Gold.PLP.part.repulsive>
0.0248

> <Gold.PLP.ligand.clash>
0.0000

> <Gold.PLP.ligand.torsion>
0.4818

> <Gold.PLP.Chemscore.Hbond>
1.0000

> <Gold.PLP.Chemscore.CHOScore>
0.0000

> <Gold.PLP.Chemscore.Metal>
0.0000

> <Gold.Chemscore.Hbonds>
donor molecule, donor type, donor heavy atom, donor atom, acceptor molecule, acceptor atom, score
      P1  H  6896  6908       L1    10  0.76

> <Gold.PLP.Chemscore.Internal.Correction>
0.0578

> <Gold.Rescore>
     Score         DG    S(hbond)    S(metal)    S(lipo)     H(rot)  DE(clash)    DE(int)     intcor
     12.51     -14.32       0.93        0.00     104.98       2.55       0.06       1.76       ----

> <Gold.Chemscore.Fitness>
12.5103

> <Gold.Chemscore.DG>
-14.3227

> <Gold.Chemscore.ZeroCoef>
-5.4800

> <Gold.Chemscore.Hbond>
0.9251

> <Gold.Chemscore.Metal>
0.0000

> <Gold.Chemscore.Lipo>
104.9814

> <Gold.Chemscore.Internal_Hbond>
0.0000

> <Gold.Chemscore.DEClash>
0.0565

> <Gold.Chemscore.DEInternal>
1.7559

> <Gold.Chemscore.Rot>
2.5507

> <Gold.Chemscore.Internal.Correction>
   9.000000E+99

> <Gold.Chemscore.Hbonds>
donor molecule, donor type, donor heavy atom, donor atom, acceptor molecule, acceptor atom, score
      P1  H  6896  6908       L1    10  0.47

> <Gold.Chemscore.Hbond.Weighted>
-3.0897

> <Gold.Chemscore.Metal.Weighted>
-0.0000

> <Gold.Chemscore.Lipo.Weighted>
-12.2828

> <Gold.Chemscore.Internal_Hbond.Weighted>
0.0000

> <Gold.Chemscore.DEClash.Weighted>
0.0565

> <Gold.Chemscore.DEInternal.Weighted>
1.7559

> <Gold.Chemscore.Rot.Weighted>
6.5298

> <Gold.Chemscore.Internal.Correction.Weighted>
   9.000000E+99

> <Gold.Protein.RotatedTorsions>
[ 6907 6896 6895 6894 ] final -152.96 input  -60.11 | X-H torsion
[ 7974 7965 7964 7962 ] final  -65.99 input  175.53 | X-H torsion
[ 8008 7997 7996 7995 ] final   57.34 input   59.86 | X-H torsion
[ 10167 10162 10161 10158 ] final  158.60 input  -65.29 | X-H torsion
[ 10718 10713 10712 10709 ] final   11.07 input   66.30 | X-H torsion
[ 10763 10752 10751 10750 ] final  118.08 input  -60.55 | X-H torsion
[ 11005 11000 10999 10996 ] final -106.19 input  -57.11 | X-H torsion

> <Gold.Protein.ActiveResidues>
 VAL166  LYS551  ARG553  GLY616  TRP617  ASP618  TYR619  PRO620  LYS621  CYS622 
 ASP623  PHE694  ASN695  SER759  ASP760  ASP761  ALA762  ILE779  LEU786  VAL792 
 PHE793  MET794  SER795  GLU796  ALA797  LYS798  CYS799  TRP800  GLU811  SER814 

> <Gold.Protein.RotatedAtoms>
  151.2355  133.4427  159.2605 H   0  0  0  0  0  0  0  0  0  0  0  0  # atno 6907 bound_to 6896
  151.0754  134.9825  159.8339 H   0  0  0  0  0  0  0  0  0  0  0  0  # atno 6908 bound_to 6896
  152.5417  134.2298  159.8873 H   0  0  0  0  0  0  0  0  0  0  0  0  # atno 6909 bound_to 6896
  145.7473  140.8925  143.0498 H   0  0  0  0  0  0  0  0  0  0  0  0  # atno 7974 bound_to 7965
  155.5321  140.3482  155.4428 H   0  0  0  0  0  0  0  0  0  0  0  0  # atno 8008 bound_to 7997
  156.0711  140.1363  156.9854 H   0  0  0  0  0  0  0  0  0  0  0  0  # atno 8009 bound_to 7997
  154.4528  140.0965  156.6645 H   0  0  0  0  0  0  0  0  0  0  0  0  # atno 8010 bound_to 7997
  139.4827  144.4809  151.8445 H   0  0  0  0  0  0  0  0  0  0  0  0  # atno 10167 bound_to 10162
  156.9902  130.6039  149.5685 H   0  0  0  0  0  0  0  0  0  0  0  0  # atno 10718 bound_to 10713
  153.5622  135.3518  155.2804 H   0  0  0  0  0  0  0  0  0  0  0  0  # atno 10763 bound_to 10752
  154.8693  135.4139  154.2818 H   0  0  0  0  0  0  0  0  0  0  0  0  # atno 10764 bound_to 10752
  153.3566  135.7058  153.6814 H   0  0  0  0  0  0  0  0  0  0  0  0  # atno 10765 bound_to 10752
  141.1017  133.8872  157.1826 H   0  0  0  0  0  0  0  0  0  0  0  0  # atno 11005 bound_to 11000
  144.6857  139.9543  143.7479 LP  0  0  0  0  0  0  0  0  0  0  0  0  # atno 17320 bound_to 7965
  146.0390  139.3404  143.0709 LP  0  0  0  0  0  0  0  0  0  0  0  0  # atno 17321 bound_to 7965
  140.4285  144.2148  150.5887 LP  0  0  0  0  0  0  0  0  0  0  0  0  # atno 17342 bound_to 10162
  140.4803  143.2381  151.8965 LP  0  0  0  0  0  0  0  0  0  0  0  0  # atno 17343 bound_to 10162
  156.0210  130.5305  150.8275 LP  0  0  0  0  0  0  0  0  0  0  0  0  # atno 17370 bound_to 10713
  157.5464  131.0942  150.9756 LP  0  0  0  0  0  0  0  0  0  0  0  0  # atno 17371 bound_to 10713
  139.9871  135.0078  156.9887 LP  0  0  0  0  0  0  0  0  0  0  0  0  # atno 17394 bound_to 11000
  140.5006  134.1101  155.7250 LP  0  0  0  0  0  0  0  0  0  0  0  0  # atno 17395 bound_to 11000

$$$$
