AV-unprocessed.smi:2124|AV-procd|sdf|8655|dock5
  -GOLD-   2272011403D 1   1.00000     0.00000
 Structure written by MMmdl.
 47 49  0  0  0  0  0  0  0  0  1 V2000
  146.3143  138.0198  152.2286 C   0  0  0  0  0  0  0  0  0  0  0  0
  147.1722  139.0318  152.9585 C   0  0  0  0  0  0  0  0  0  0  0  0
  146.7760  140.2214  153.2719 N   0  0  0  0  0  0  0  0  0  0  0  0
  147.6637  141.0710  153.9470 C   0  0  0  0  0  0  0  0  0  0  0  0
  147.1286  142.4548  154.2739 C   0  0  0  0  0  0  0  0  0  0  0  0
  148.9247  140.6684  154.2814 C   0  0  0  0  0  0  0  0  0  0  0  0
  149.9177  141.5711  155.0125 C   0  0  0  0  0  0  0  0  0  0  0  0
  150.0397  141.3553  156.5231 C   0  0  0  0  0  0  0  0  0  0  0  0
  149.1045  140.8730  157.1623 O   0  0  0  0  0  0  0  0  0  0  0  0
  151.2120  141.7156  157.0723 N   0  0  0  0  0  0  0  0  0  0  0  0
  151.6139  141.5920  158.4763 C   0  0  1  0  0  0  0  0  0  0  0  0
  152.5724  140.3998  158.6684 C   0  0  0  0  0  0  0  0  0  0  0  0
  152.1770  142.9200  159.0515 C   0  0  2  0  0  0  0  0  0  0  0  0
  152.2170  142.9552  160.5985 C   0  0  0  0  0  0  0  0  0  0  0  0
  151.4672  144.2539  160.9431 C   0  0  1  0  0  0  0  0  0  0  0  0
  152.3119  145.4672  160.5127 C   0  0  0  0  0  0  0  0  0  0  0  0
  152.1906  145.4355  158.9777 C   0  0  0  0  0  0  0  0  0  0  0  0
  151.3318  144.1807  158.7310 C   0  0  2  0  0  0  0  0  0  0  0  0
  150.3565  144.2491  159.9015 C   0  0  0  0  0  0  0  0  0  0  0  0
  149.3671  139.3089  153.9167 C   0  0  0  0  0  0  0  0  0  0  0  0
  150.4818  138.8492  154.1602 O   0  0  0  0  0  0  0  0  0  0  0  0
  148.4473  138.5610  153.2672 N   0  0  0  0  0  0  0  0  0  0  0  0
  148.7024  137.6231  152.9946 H   0  0  0  0  0  0  0  0  0  0  0  0
  146.0105  138.4154  151.2591 H   0  0  0  0  0  0  0  0  0  0  0  0
  145.4166  137.8014  152.8075 H   0  0  0  0  0  0  0  0  0  0  0  0
  146.8492  137.0835  152.0621 H   0  0  0  0  0  0  0  0  0  0  0  0
  147.0505  142.5887  155.3529 H   0  0  0  0  0  0  0  0  0  0  0  0
  146.1370  142.6066  153.8460 H   0  0  0  0  0  0  0  0  0  0  0  0
  147.7847  143.2282  153.8741 H   0  0  0  0  0  0  0  0  0  0  0  0
  150.9047  141.4297  154.5711 H   0  0  0  0  0  0  0  0  0  0  0  0
  149.6805  142.6204  154.8328 H   0  0  0  0  0  0  0  0  0  0  0  0
  151.9061  142.1037  156.4503 H   0  0  0  0  0  0  0  0  0  0  0  0
  150.6944  141.3546  159.0121 H   0  0  0  0  0  0  0  0  0  0  0  0
  152.7495  140.1969  159.7242 H   0  0  0  0  0  0  0  0  0  0  0  0
  153.5427  140.5809  158.2059 H   0  0  0  0  0  0  0  0  0  0  0  0
  152.1600  139.4903  158.2304 H   0  0  0  0  0  0  0  0  0  0  0  0
  153.1882  143.0592  158.6671 H   0  0  0  0  0  0  0  0  0  0  0  0
  151.6927  142.1033  161.0332 H   0  0  0  0  0  0  0  0  0  0  0  0
  153.2360  142.9477  160.9871 H   0  0  0  0  0  0  0  0  0  0  0  0
  151.1284  144.3005  161.9783 H   0  0  0  0  0  0  0  0  0  0  0  0
  151.8969  146.3937  160.9115 H   0  0  0  0  0  0  0  0  0  0  0  0
  153.3460  145.3892  160.8499 H   0  0  0  0  0  0  0  0  0  0  0  0
  151.6796  146.3291  158.6169 H   0  0  0  0  0  0  0  0  0  0  0  0
  153.1601  145.3848  158.4807 H   0  0  0  0  0  0  0  0  0  0  0  0
  150.8637  144.1799  157.7465 H   0  0  0  0  0  0  0  0  0  0  0  0
  149.6976  143.3825  159.9727 H   0  0  0  0  0  0  0  0  0  0  0  0
  149.7524  145.1581  159.9094 H   0  0  0  0  0  0  0  0  0  0  0  0
  1  2  1  0  0  0  0
  1 24  1  0  0  0  0
  1 25  1  0  0  0  0
  1 26  1  0  0  0  0
  2 22  1  0  0  0  0
  2  3  2  0  0  0  0
  3  4  1  0  0  0  0
  4  5  1  0  0  0  0
  4  6  2  0  0  0  0
  5 27  1  0  0  0  0
  5 28  1  0  0  0  0
  5 29  1  0  0  0  0
  6  7  1  0  0  0  0
  6 20  1  0  0  0  0
  7  8  1  0  0  0  0
  7 30  1  0  0  0  0
  7 31  1  0  0  0  0
  8  9  2  0  0  0  0
  8 10  1  0  0  0  0
 10 11  1  0  0  0  0
 10 32  1  0  0  0  0
 11 12  1  0  0  0  0
 11 13  1  0  0  0  0
 11 33  1  0  0  0  0
 12 34  1  0  0  0  0
 12 35  1  0  0  0  0
 12 36  1  0  0  0  0
 13 18  1  0  0  0  0
 13 14  1  0  0  0  0
 13 37  1  0  0  0  0
 14 15  1  0  0  0  0
 14 38  1  0  0  0  0
 14 39  1  0  0  0  0
 15 19  1  0  0  0  0
 15 16  1  0  0  0  0
 15 40  1  0  0  0  0
 16 17  1  0  0  0  0
 16 41  1  0  0  0  0
 16 42  1  0  0  0  0
 17 18  1  0  0  0  0
 17 43  1  0  0  0  0
 17 44  1  0  0  0  0
 18 19  1  0  0  0  0
 18 45  1  0  0  0  0
 19 46  1  0  0  0  0
 19 47  1  0  0  0  0
 20 21  2  0  0  0  0
 20 22  1  0  0  0  0
 22 23  1  0  0  0  0
M  END
> <s_m_source_file>
AV-unprocessed.smi

> <i_m_source_file_index>
2124

> <i_lp_mmshare_version>
43012

> <i_f3d_flags>
0

> <s_epik_input>
W0NIM11jMW5jKFtDSDNdKWMoYyg9TylbbkhdMSlbQ0gyXUMoPU8pW05IXVtDQEhdKFtDSDNdKVtDQEhdKFtDSDJdW0NASF0yMylbQ0BIXShbQ0gyXTMpW0NIMl1bQ0gyXTI=

> <s_epik_cmdline>
J2VwaWtfcHl0aG9uJywgJy1waCcsICc3LjAnLCAnLXRuJywgJzgnLCAnLW1hJywgJzIwMCcsICctbWV0YWxfYmluZGluZycsICctaW1hZScsICc8aW5maWxlLm1hZT4nLCAnLW9tYWUnLCAnPG91dGZpbGUubWFlPic=

> <r_lp_tautomer_probability>
0.839158

> <r_epik_Ionization_Penalty>
0.000383628

> <r_epik_Ionization_Penalty_Charging>
0.00035045

> <r_epik_Ionization_Penalty_Neutral>
3.31781e-05

> <r_epik_State_Penalty>
0.09125

> <r_epik_Charging_Adjusted_Penalty>
0.0916005

> <i_epik_Tot_Q>
0

> <i_epik_Tot_abs_Q>
0

> <r_epik_Metal_State_Penalty>
0.255229

> <b_epik_Metal_Only>
0

> <s_lp_Force_Field>
OPLS_2005

> <r_lp_Energy>
52.5198

> <b_lp_Chiralities_Consistent>
1

> <s_lp_Variant>
AV-unprocessed.smi:2124-6

> <Gold.Version>
5.8.1

> <Gold.Id.Protein>
6NUR|6NUR_protein|mol2

> <Gold.PLP.Fitness>
47.3141

> <Gold.PLP.PLP>
-46.1763

> <Gold.PLP.part.hbond>
-2.0000

> <Gold.PLP.part.metal>
0.0000

> <Gold.PLP.part.buried>
-2.1863

> <Gold.PLP.part.nonpolar>
-41.8479

> <Gold.PLP.part.repulsive>
0.5823

> <Gold.PLP.ligand.clash>
0.0000

> <Gold.PLP.ligand.torsion>
0.9641

> <Gold.PLP.Chemscore.Hbond>
1.0000

> <Gold.PLP.Chemscore.CHOScore>
0.0000

> <Gold.PLP.Chemscore.Metal>
0.0000

> <Gold.Chemscore.Hbonds>
donor molecule, donor type, donor heavy atom, donor atom, acceptor molecule, acceptor atom, score
      L1  H    22    23       P1  7948  1.00
      P1  H  7989  7998       L1    21  0.05

> <Gold.PLP.Chemscore.Internal.Correction>
0.0660

> <Gold.Rescore>
     Score         DG    S(hbond)    S(metal)    S(lipo)     H(rot)  DE(clash)    DE(int)     intcor
     17.16     -19.40       0.91        0.00     129.02       1.65       1.41       0.83       ----

> <Gold.Chemscore.Fitness>
17.1618

> <Gold.Chemscore.DG>
-19.3988

> <Gold.Chemscore.ZeroCoef>
-5.4800

> <Gold.Chemscore.Hbond>
0.9148

> <Gold.Chemscore.Metal>
0.0000

> <Gold.Chemscore.Lipo>
129.0246

> <Gold.Chemscore.Internal_Hbond>
0.0000

> <Gold.Chemscore.DEClash>
1.4098

> <Gold.Chemscore.DEInternal>
0.8271

> <Gold.Chemscore.Rot>
1.6534

> <Gold.Chemscore.Internal.Correction>
   9.000000E+99

> <Gold.Chemscore.Hbonds>
donor molecule, donor type, donor heavy atom, donor atom, acceptor molecule, acceptor atom, score
      L1  H    22    23       P1  7948  0.99
      P1  H  7989  7998       L1    21  0.01

> <Gold.Chemscore.Hbond.Weighted>
-3.0555

> <Gold.Chemscore.Metal.Weighted>
-0.0000

> <Gold.Chemscore.Lipo.Weighted>
-15.0959

> <Gold.Chemscore.Internal_Hbond.Weighted>
0.0000

> <Gold.Chemscore.DEClash.Weighted>
1.4098

> <Gold.Chemscore.DEInternal.Weighted>
0.8271

> <Gold.Chemscore.Rot.Weighted>
4.2326

> <Gold.Chemscore.Internal.Correction.Weighted>
   9.000000E+99

> <Gold.Protein.RotatedTorsions>
[ 6907 6896 6895 6894 ] final -149.61 input  -60.11 | X-H torsion
[ 7974 7965 7964 7962 ] final  126.30 input  175.53 | X-H torsion
[ 8008 7997 7996 7995 ] final -150.89 input   59.86 | X-H torsion
[ 10167 10162 10161 10158 ] final  -75.09 input  -65.29 | X-H torsion
[ 10718 10713 10712 10709 ] final   72.35 input   66.30 | X-H torsion
[ 10763 10752 10751 10750 ] final   34.98 input  -60.55 | X-H torsion
[ 11005 11000 10999 10996 ] final -116.60 input  -57.11 | X-H torsion

> <Gold.Protein.ActiveResidues>
 VAL166  LYS551  ARG553  GLY616  TRP617  ASP618  TYR619  PRO620  LYS621  CYS622 
 ASP623  PHE694  ASN695  SER759  ASP760  ASP761  ALA762  ILE779  LEU786  VAL792 
 PHE793  MET794  SER795  GLU796  ALA797  LYS798  CYS799  TRP800  GLU811  SER814 

> <Gold.Protein.RotatedAtoms>
  151.1866  133.4692  159.2594 H   0  0  0  0  0  0  0  0  0  0  0  0  # atno 6907 bound_to 6896
  151.1205  135.0076  159.8546 H   0  0  0  0  0  0  0  0  0  0  0  0  # atno 6908 bound_to 6896
  152.5455  134.1778  159.8676 H   0  0  0  0  0  0  0  0  0  0  0  0  # atno 6909 bound_to 6896
  145.0633  139.3788  143.4995 H   0  0  0  0  0  0  0  0  0  0  0  0  # atno 7974 bound_to 7965
  155.6307  140.0691  157.2649 H   0  0  0  0  0  0  0  0  0  0  0  0  # atno 8008 bound_to 7997
  154.4206  140.1768  156.1518 H   0  0  0  0  0  0  0  0  0  0  0  0  # atno 8009 bound_to 7997
  155.9935  140.3343  155.6779 H   0  0  0  0  0  0  0  0  0  0  0  0  # atno 8010 bound_to 7997
  140.4972  143.2368  151.7812 H   0  0  0  0  0  0  0  0  0  0  0  0  # atno 10167 bound_to 10162
  157.6497  130.9574  150.0917 H   0  0  0  0  0  0  0  0  0  0  0  0  # atno 10718 bound_to 10713
  153.0139  135.6346  154.1754 H   0  0  0  0  0  0  0  0  0  0  0  0  # atno 10763 bound_to 10752
  154.1495  135.2830  155.3141 H   0  0  0  0  0  0  0  0  0  0  0  0  # atno 10764 bound_to 10752
  154.6064  135.5570  153.7489 H   0  0  0  0  0  0  0  0  0  0  0  0  # atno 10765 bound_to 10752
  141.0411  133.9834  157.2992 H   0  0  0  0  0  0  0  0  0  0  0  0  # atno 11005 bound_to 11000
  146.3525  140.0341  142.8648 LP  0  0  0  0  0  0  0  0  0  0  0  0  # atno 17320 bound_to 7965
  145.1382  140.9556  143.4504 LP  0  0  0  0  0  0  0  0  0  0  0  0  # atno 17321 bound_to 7965
  139.4864  144.4571  151.9585 LP  0  0  0  0  0  0  0  0  0  0  0  0  # atno 17342 bound_to 10162
  140.3659  144.2915  150.5926 LP  0  0  0  0  0  0  0  0  0  0  0  0  # atno 17343 bound_to 10162
  156.1864  130.3652  149.8967 LP  0  0  0  0  0  0  0  0  0  0  0  0  # atno 17370 bound_to 10713
  156.6906  130.8894  151.3588 LP  0  0  0  0  0  0  0  0  0  0  0  0  # atno 17371 bound_to 10713
  139.9277  135.0201  156.8291 LP  0  0  0  0  0  0  0  0  0  0  0  0  # atno 17394 bound_to 11000
  140.6232  133.9974  155.7628 LP  0  0  0  0  0  0  0  0  0  0  0  0  # atno 17395 bound_to 11000

$$$$
