AV-unprocessed.smi:2931|AV-procd|sdf|11245|dock10
  -GOLD-   2272016143D 1   1.00000     0.00000
 Structure written by MMmdl.
 42 43  0  0  0  0  0  0  0  0  2 V2000
  146.4032  130.4640  152.3699 C   0  0  0  0  0  0  0  0  0  0  0  0
  145.5572  131.6435  152.0876 N   0  3  2  0  0  0  0  0  0  0  0  0
  144.7695  131.4892  150.8391 C   0  0  0  0  0  0  0  0  0  0  0  0
  143.8063  132.6724  150.6465 C   0  0  0  0  0  0  0  0  0  0  0  0
  144.5628  134.0079  150.6613 C   0  0  0  0  0  0  0  0  0  0  0  0
  145.4000  134.1281  151.9473 C   0  0  2  0  0  0  0  0  0  0  0  0
  146.1897  135.3557  151.9376 N   0  0  0  0  0  0  0  0  0  0  0  0
  145.6816  136.5954  151.9689 C   0  0  0  0  0  0  0  0  0  0  0  0
  144.4761  136.8436  151.9866 O   0  0  0  0  0  0  0  0  0  0  0  0
  146.6450  137.5279  151.9988 N   0  0  0  0  0  0  0  0  0  0  0  0
  146.4238  138.9679  152.1136 C   0  0  0  0  0  0  0  0  0  0  0  0
  146.5039  139.4544  153.5738 C   0  0  0  0  0  0  0  0  0  0  0  0
  147.9053  139.8464  154.0109 C   0  0  0  0  0  0  0  0  0  0  0  0
  148.9250  138.8773  154.1047 C   0  0  0  0  0  0  0  0  0  0  0  0
  150.2154  139.2941  154.4882 C   0  0  0  0  0  0  0  0  0  0  0  0
  150.5255  140.5768  154.7759 N   0  0  0  0  0  0  0  0  0  0  0  0
  149.5421  141.4981  154.6907 C   0  0  0  0  0  0  0  0  0  0  0  0
  148.2203  141.1877  154.3132 C   0  0  0  0  0  0  0  0  0  0  0  0
  146.3303  132.9105  152.1041 C   0  0  0  0  0  0  0  0  0  0  0  0
  147.1582  130.3286  151.5943 H   0  0  0  0  0  0  0  0  0  0  0  0
  145.7975  129.5588  152.4204 H   0  0  0  0  0  0  0  0  0  0  0  0
  146.9124  130.5762  153.3277 H   0  0  0  0  0  0  0  0  0  0  0  0
  145.4462  131.4127  149.9864 H   0  0  0  0  0  0  0  0  0  0  0  0
  144.2006  130.5594  150.8775 H   0  0  0  0  0  0  0  0  0  0  0  0
  143.2625  132.5628  149.7079 H   0  0  0  0  0  0  0  0  0  0  0  0
  143.0573  132.6673  151.4397 H   0  0  0  0  0  0  0  0  0  0  0  0
  145.2112  134.0702  149.7862 H   0  0  0  0  0  0  0  0  0  0  0  0
  143.8563  134.8355  150.5864 H   0  0  0  0  0  0  0  0  0  0  0  0
  144.7251  134.1446  152.8060 H   0  0  0  0  0  0  0  0  0  0  0  0
  147.1942  135.2547  151.9236 H   0  0  0  0  0  0  0  0  0  0  0  0
  147.6059  137.2193  151.9753 H   0  0  0  0  0  0  0  0  0  0  0  0
  147.1815  139.4771  151.5179 H   0  0  0  0  0  0  0  0  0  0  0  0
  145.4620  139.2467  151.6796 H   0  0  0  0  0  0  0  0  0  0  0  0
  145.8354  140.3051  153.7127 H   0  0  0  0  0  0  0  0  0  0  0  0
  146.1384  138.6724  154.2401 H   0  0  0  0  0  0  0  0  0  0  0  0
  148.7280  137.8401  153.8771 H   0  0  0  0  0  0  0  0  0  0  0  0
  151.0206  138.5784  154.5635 H   0  0  0  0  0  0  0  0  0  0  0  0
  149.8176  142.5154  154.9267 H   0  0  0  0  0  0  0  0  0  0  0  0
  147.4717  141.9638  154.2527 H   0  0  0  0  0  0  0  0  0  0  0  0
  146.8762  132.9871  153.0457 H   0  0  0  0  0  0  0  0  0  0  0  0
  147.0745  132.8929  151.3057 H   0  0  0  0  0  0  0  0  0  0  0  0
  144.8895  131.7044  152.8431 H   0  0  0  0  0  0  0  0  0  0  0  0
  1  2  1  0  0  0  0
  1 20  1  0  0  0  0
  1 21  1  0  0  0  0
  1 22  1  0  0  0  0
  2 19  1  0  0  0  0
  2  3  1  0  0  0  0
  2 42  1  0  0  0  0
  3  4  1  0  0  0  0
  3 23  1  0  0  0  0
  3 24  1  0  0  0  0
  4  5  1  0  0  0  0
  4 25  1  0  0  0  0
  4 26  1  0  0  0  0
  5  6  1  0  0  0  0
  5 27  1  0  0  0  0
  5 28  1  0  0  0  0
  6  7  1  0  0  0  0
  6 19  1  0  0  0  0
  6 29  1  0  0  0  0
  7  8  1  0  0  0  0
  7 30  1  0  0  0  0
  8  9  2  0  0  0  0
  8 10  1  0  0  0  0
 10 11  1  0  0  0  0
 10 31  1  0  0  0  0
 11 12  1  0  0  0  0
 11 32  1  0  0  0  0
 11 33  1  0  0  0  0
 12 13  1  0  0  0  0
 12 34  1  0  0  0  0
 12 35  1  0  0  0  0
 13 18  1  0  0  0  0
 13 14  2  0  0  0  0
 14 15  1  0  0  0  0
 14 36  1  0  0  0  0
 15 16  2  0  0  0  0
 15 37  1  0  0  0  0
 16 17  1  0  0  0  0
 17 18  2  0  0  0  0
 17 38  1  0  0  0  0
 18 39  1  0  0  0  0
 19 40  1  0  0  0  0
 19 41  1  0  0  0  0
M  CHG  1   2   1
M  END
> <s_m_source_file>
AV-unprocessed.smi

> <i_m_source_file_index>
2931

> <i_lp_mmshare_version>
43012

> <i_f3d_flags>
0

> <s_epik_input>
W0NIM11OMVtDSDJdW0NIMl1bQ0gyXVtDQEhdKFtDSDJdMSlbTkhdQyg9TylbTkhdW0NIMl1bQ0gyXWMyW2NIXVtjSF1uW2NIXVtjSF0y

> <s_epik_cmdline>
J2VwaWtfcHl0aG9uJywgJy1waCcsICc3LjAnLCAnLXRuJywgJzgnLCAnLW1hJywgJzIwMCcsICctbWV0YWxfYmluZGluZycsICctaW1hZScsICc8aW5maWxlLm1hZT4nLCAnLW9tYWUnLCAnPG91dGZpbGUubWFlPic=

> <r_epik_Ionization_Penalty>
0.0573876

> <r_epik_Ionization_Penalty_Charging>
0.00229982

> <r_epik_Ionization_Penalty_Neutral>
0.0550878

> <r_epik_State_Penalty>
0.0473925

> <r_epik_Charging_Adjusted_Penalty>
0.0496923

> <i_epik_Tot_Q>
1

> <i_epik_Tot_abs_Q>
1

> <r_epik_Metal_State_Penalty>
0.0433388

> <b_epik_Metal_Only>
0

> <s_lp_Force_Field>
OPLS_2005

> <r_lp_Energy>
13.2125

> <b_lp_Chiralities_Consistent>
1

> <s_lp_Variant>
AV-unprocessed.smi:2931-4

> <Gold.Version>
5.8.1

> <Gold.Id.Protein>
6NUR|6NUR_protein|mol2

> <Gold.PLP.Fitness>
46.0187

> <Gold.PLP.PLP>
-35.1253

> <Gold.PLP.part.hbond>
-3.0000

> <Gold.PLP.part.metal>
0.0000

> <Gold.PLP.part.buried>
-4.1917

> <Gold.PLP.part.nonpolar>
-30.0593

> <Gold.PLP.part.repulsive>
1.7893

> <Gold.PLP.ligand.clash>
0.0000

> <Gold.PLP.ligand.torsion>
0.4433

> <Gold.PLP.Chemscore.Hbond>
2.9280

> <Gold.PLP.Chemscore.CHOScore>
0.9962

> <Gold.PLP.Chemscore.Metal>
0.0000

> <Gold.Chemscore.Hbonds>
donor molecule, donor type, donor heavy atom, donor atom, acceptor molecule, acceptor atom, score
      L1  H     7    30       P1  7948  0.93
      L1  H    10    31       P1  7948  1.00
      P1  H  7989  7998       L1    16  0.93
      L1  C    17    38       P1  8028  1.00

> <Gold.PLP.Chemscore.Internal.Correction>
0.0075

> <Gold.Rescore>
     Score         DG    S(hbond)    S(metal)    S(lipo)     H(rot)  DE(clash)    DE(int)     intcor
     17.46     -19.35       2.04        0.00      94.47       1.56       1.41       0.48       ----

> <Gold.Chemscore.Fitness>
17.4611

> <Gold.Chemscore.DG>
-19.3478

> <Gold.Chemscore.ZeroCoef>
-5.4800

> <Gold.Chemscore.Hbond>
2.0378

> <Gold.Chemscore.Metal>
0.0000

> <Gold.Chemscore.Lipo>
94.4719

> <Gold.Chemscore.Internal_Hbond>
0.0000

> <Gold.Chemscore.DEClash>
1.4106

> <Gold.Chemscore.DEInternal>
0.4761

> <Gold.Chemscore.Rot>
1.5592

> <Gold.Chemscore.Internal.Correction>
   9.000000E+99

> <Gold.Chemscore.Hbonds>
donor molecule, donor type, donor heavy atom, donor atom, acceptor molecule, acceptor atom, score
      L1  H     7    30       P1  7948  0.87
      L1  H    10    31       P1  7948  1.00
      P1  H  7989  7998       L1    16  0.12

> <Gold.Chemscore.Hbond.Weighted>
-6.8061

> <Gold.Chemscore.Metal.Weighted>
-0.0000

> <Gold.Chemscore.Lipo.Weighted>
-11.0532

> <Gold.Chemscore.Internal_Hbond.Weighted>
0.0000

> <Gold.Chemscore.DEClash.Weighted>
1.4106

> <Gold.Chemscore.DEInternal.Weighted>
0.4761

> <Gold.Chemscore.Rot.Weighted>
3.9915

> <Gold.Chemscore.Internal.Correction.Weighted>
   9.000000E+99

> <Gold.Protein.RotatedTorsions>
[ 6907 6896 6895 6894 ] final -155.96 input  -60.11 | X-H torsion
[ 7974 7965 7964 7962 ] final  168.58 input  175.53 | X-H torsion
[ 8008 7997 7996 7995 ] final  149.66 input   59.86 | X-H torsion
[ 10167 10162 10161 10158 ] final  -59.07 input  -65.29 | X-H torsion
[ 10718 10713 10712 10709 ] final   85.70 input   66.30 | X-H torsion
[ 10763 10752 10751 10750 ] final -176.64 input  -60.55 | X-H torsion
[ 11005 11000 10999 10996 ] final  123.02 input  -57.11 | X-H torsion

> <Gold.Protein.ActiveResidues>
 VAL166  LYS551  ARG553  GLY616  TRP617  ASP618  TYR619  PRO620  LYS621  CYS622 
 ASP623  PHE694  ASN695  SER759  ASP760  ASP761  ALA762  ILE779  LEU786  VAL792 
 PHE793  MET794  SER795  GLU796  ALA797  LYS798  CYS799  TRP800  GLU811  SER814 

> <Gold.Protein.RotatedAtoms>
  151.2804  133.4212  159.2626 H   0  0  0  0  0  0  0  0  0  0  0  0  # atno 6907 bound_to 6896
  151.0366  134.9578  159.8150 H   0  0  0  0  0  0  0  0  0  0  0  0  # atno 6908 bound_to 6896
  152.5357  134.2763  159.9043 H   0  0  0  0  0  0  0  0  0  0  0  0  # atno 6909 bound_to 6896
  144.7383  139.8929  143.6404 H   0  0  0  0  0  0  0  0  0  0  0  0  # atno 7974 bound_to 7965
  156.2746  140.2095  156.5894 H   0  0  0  0  0  0  0  0  0  0  0  0  # atno 8008 bound_to 7997
  154.6995  140.0522  157.0467 H   0  0  0  0  0  0  0  0  0  0  0  0  # atno 8009 bound_to 7997
  155.0755  140.3181  155.4620 H   0  0  0  0  0  0  0  0  0  0  0  0  # atno 8010 bound_to 7997
  140.6158  143.2402  151.5600 H   0  0  0  0  0  0  0  0  0  0  0  0  # atno 10167 bound_to 10162
  157.6918  131.0185  150.2862 H   0  0  0  0  0  0  0  0  0  0  0  0  # atno 10718 bound_to 10713
  154.5699  135.2827  155.0838 H   0  0  0  0  0  0  0  0  0  0  0  0  # atno 10763 bound_to 10752
  154.2214  135.6390  153.5150 H   0  0  0  0  0  0  0  0  0  0  0  0  # atno 10764 bound_to 10752
  153.0054  135.5515  154.6319 H   0  0  0  0  0  0  0  0  0  0  0  0  # atno 10765 bound_to 10752
  139.9294  134.9641  156.8197 H   0  0  0  0  0  0  0  0  0  0  0  0  # atno 11005 bound_to 11000
  146.1129  139.4136  143.0276 LP  0  0  0  0  0  0  0  0  0  0  0  0  # atno 17320 bound_to 7965
  145.7417  141.0005  143.1297 LP  0  0  0  0  0  0  0  0  0  0  0  0  # atno 17321 bound_to 7965
  139.5397  144.2681  152.1326 LP  0  0  0  0  0  0  0  0  0  0  0  0  # atno 17342 bound_to 10162
  140.1890  144.4771  150.6489 LP  0  0  0  0  0  0  0  0  0  0  0  0  # atno 17343 bound_to 10162
  156.3401  130.3814  149.7417 LP  0  0  0  0  0  0  0  0  0  0  0  0  # atno 17370 bound_to 10713
  156.4928  130.8093  151.3101 LP  0  0  0  0  0  0  0  0  0  0  0  0  # atno 17371 bound_to 10713
  140.6244  133.9963  155.7633 LP  0  0  0  0  0  0  0  0  0  0  0  0  # atno 17394 bound_to 11000
  141.0873  133.9971  157.3293 LP  0  0  0  0  0  0  0  0  0  0  0  0  # atno 17395 bound_to 11000

$$$$
