AV-unprocessed.smi:1691|AV-procd|sdf|6775|dock3
  -GOLD-   22720 7533D 1   1.00000     0.00000
 Structure written by MMmdl.
 44 45  0  0  0  0  0  0  0  0  2 V2000
  147.3056  134.9302  157.0656 C   0  0  0  0  0  0  0  0  0  0  0  0
  147.9625  136.2195  156.5324 C   0  0  0  0  0  0  0  0  0  0  0  0
  147.2408  137.4346  157.1467 C   0  0  0  0  0  0  0  0  0  0  0  0
  147.9970  136.2540  154.9758 C   0  0  1  0  0  0  0  0  0  0  0  0
  146.5779  136.3634  154.3484 C   0  0  0  0  0  0  0  0  0  0  0  0
  146.4320  135.5982  153.1132 N   0  0  0  0  0  0  0  0  0  0  0  0
  145.3772  134.8385  152.7855 C   0  0  0  0  0  0  0  0  0  0  0  0
  144.3900  134.6948  153.5061 O   0  0  0  0  0  0  0  0  0  0  0  0
  145.5388  134.2762  151.5771 N   0  0  0  0  0  0  0  0  0  0  0  0
  144.6253  133.4333  150.8964 C   0  0  0  0  0  0  0  0  0  0  0  0
  144.6726  132.9466  149.5570 C   0  0  0  0  0  0  0  0  0  0  0  0
  143.6270  132.1778  149.2892 N   0  0  0  0  0  0  0  0  0  0  0  0
  142.9147  132.1699  150.4382 N   0  0  0  0  0  0  0  0  0  0  0  0
  143.4859  132.9212  151.4415 C   0  0  0  0  0  0  0  0  0  0  0  0
  148.9516  137.3114  154.5136 N   0  3  0  0  0  0  0  0  0  0  0  0
  148.5116  138.7115  154.7309 C   0  0  0  0  0  0  0  0  0  0  0  0
  149.4524  139.6749  153.9882 C   0  0  0  0  0  0  0  0  0  0  0  0
  150.7910  139.4671  154.4238 O   0  0  0  0  0  0  0  0  0  0  0  0
  151.2492  138.1493  154.1426 C   0  0  0  0  0  0  0  0  0  0  0  0
  150.3758  137.1285  154.8902 C   0  0  0  0  0  0  0  0  0  0  0  0
  142.0504  131.6533  150.5204 H   0  0  0  0  0  0  0  0  0  0  0  0
  146.2848  134.8247  156.6971 H   0  0  0  0  0  0  0  0  0  0  0  0
  147.2635  134.9323  158.1553 H   0  0  0  0  0  0  0  0  0  0  0  0
  147.8600  134.0376  156.7760 H   0  0  0  0  0  0  0  0  0  0  0  0
  148.9876  136.2396  156.9038 H   0  0  0  0  0  0  0  0  0  0  0  0
  146.2345  137.5463  156.7415 H   0  0  0  0  0  0  0  0  0  0  0  0
  147.7821  138.3638  156.9716 H   0  0  0  0  0  0  0  0  0  0  0  0
  147.1499  137.3318  158.2286 H   0  0  0  0  0  0  0  0  0  0  0  0
  148.4097  135.2931  154.6637 H   0  0  0  0  0  0  0  0  0  0  0  0
  145.8325  135.9542  155.0288 H   0  0  0  0  0  0  0  0  0  0  0  0
  146.3097  137.4118  154.2094 H   0  0  0  0  0  0  0  0  0  0  0  0
  147.1990  135.6467  152.4584 H   0  0  0  0  0  0  0  0  0  0  0  0
  146.3996  134.4768  151.0895 H   0  0  0  0  0  0  0  0  0  0  0  0
  145.4063  133.1149  148.7826 H   0  0  0  0  0  0  0  0  0  0  0  0
  143.0446  133.0202  152.4222 H   0  0  0  0  0  0  0  0  0  0  0  0
  147.4921  138.8453  154.3678 H   0  0  0  0  0  0  0  0  0  0  0  0
  148.5116  138.9578  155.7916 H   0  0  0  0  0  0  0  0  0  0  0  0
  149.3825  139.5330  152.9085 H   0  0  0  0  0  0  0  0  0  0  0  0
  149.1698  140.7080  154.1924 H   0  0  0  0  0  0  0  0  0  0  0  0
  151.2296  137.9655  153.0671 H   0  0  0  0  0  0  0  0  0  0  0  0
  152.2876  138.0605  154.4624 H   0  0  0  0  0  0  0  0  0  0  0  0
  150.5086  137.2640  155.9623 H   0  0  0  0  0  0  0  0  0  0  0  0
  150.7058  136.1181  154.6503 H   0  0  0  0  0  0  0  0  0  0  0  0
  148.9388  137.2134  153.5084 H   0  0  0  0  0  0  0  0  0  0  0  0
  1  2  1  0  0  0  0
  1 22  1  0  0  0  0
  1 23  1  0  0  0  0
  1 24  1  0  0  0  0
  2  3  1  0  0  0  0
  2  4  1  0  0  0  0
  2 25  1  0  0  0  0
  3 26  1  0  0  0  0
  3 27  1  0  0  0  0
  3 28  1  0  0  0  0
  4  5  1  0  0  0  0
  4 15  1  0  0  0  0
  4 29  1  0  0  0  0
  5  6  1  0  0  0  0
  5 30  1  0  0  0  0
  5 31  1  0  0  0  0
  6  7  1  0  0  0  0
  6 32  1  0  0  0  0
  7  8  2  0  0  0  0
  7  9  1  0  0  0  0
  9 10  1  0  0  0  0
  9 33  1  0  0  0  0
 10 14  2  0  0  0  0
 10 11  1  0  0  0  0
 11 12  2  0  0  0  0
 11 34  1  0  0  0  0
 12 13  1  0  0  0  0
 13 21  1  0  0  0  0
 13 14  1  0  0  0  0
 14 35  1  0  0  0  0
 15 20  1  0  0  0  0
 15 16  1  0  0  0  0
 15 44  1  0  0  0  0
 16 17  1  0  0  0  0
 16 36  1  0  0  0  0
 16 37  1  0  0  0  0
 17 18  1  0  0  0  0
 17 38  1  0  0  0  0
 17 39  1  0  0  0  0
 18 19  1  0  0  0  0
 19 20  1  0  0  0  0
 19 40  1  0  0  0  0
 19 41  1  0  0  0  0
 20 42  1  0  0  0  0
 20 43  1  0  0  0  0
M  CHG  1  15   1
M  END
> <s_m_source_file>
AV-unprocessed.smi

> <i_m_source_file_index>
1691

> <i_lp_mmshare_version>
43012

> <i_f3d_flags>
0

> <s_epik_input>
W0NIMl0xW0NIMl1PW0NIMl1bQ0gyXU4xW0NASF0oW0NIXShbQ0gzXSlbQ0gzXSlbQ0gyXVtOSF1DKD1PKVtOSF1jMltjSF1uW25IXVtjSF0y

> <s_epik_cmdline>
J2VwaWtfcHl0aG9uJywgJy1waCcsICc3LjAnLCAnLXRuJywgJzgnLCAnLW1hJywgJzIwMCcsICctbWV0YWxfYmluZGluZycsICctaW1hZScsICc8aW5maWxlLm1hZT4nLCAnLW9tYWUnLCAnPG91dGZpbGUubWFlPic=

> <r_lp_tautomer_probability>
0.5

> <r_epik_Ionization_Penalty>
0.363378

> <r_epik_Ionization_Penalty_Charging>
0.363339

> <r_epik_Ionization_Penalty_Neutral>
3.97246e-05

> <r_epik_State_Penalty>
0.36031

> <r_epik_Charging_Adjusted_Penalty>
0.723649

> <i_epik_Tot_Q>
1

> <i_epik_Tot_abs_Q>
1

> <r_epik_Metal_State_Penalty>
0.360311

> <b_epik_Metal_Only>
0

> <s_lp_Force_Field>
OPLS_2005

> <r_lp_Energy>
33.682

> <b_lp_Chiralities_Consistent>
1

> <s_lp_Variant>
AV-unprocessed.smi:1691-2

> <Gold.Version>
5.8.1

> <Gold.Id.Protein>
6NUR|6NUR_protein|mol2

> <Gold.PLP.Fitness>
43.5852

> <Gold.PLP.PLP>
-23.3884

> <Gold.PLP.part.hbond>
-5.7189

> <Gold.PLP.part.metal>
0.0000

> <Gold.PLP.part.buried>
-2.8251

> <Gold.PLP.part.nonpolar>
-15.4656

> <Gold.PLP.part.repulsive>
0.5930

> <Gold.PLP.ligand.clash>
0.0000

> <Gold.PLP.ligand.torsion>
0.7460

> <Gold.PLP.Chemscore.Hbond>
5.5349

> <Gold.PLP.Chemscore.CHOScore>
1.5817

> <Gold.PLP.Chemscore.Metal>
0.0000

> <Gold.Chemscore.Hbonds>
donor molecule, donor type, donor heavy atom, donor atom, acceptor molecule, acceptor atom, score
      L1  H     6    32       P1  7948  1.00
      L1  H    13    21       P1 10952  0.90
      L1  H    15    44       P1  7948  2.00
      P1  H  7989  7998       L1    18  0.95
      P1  H 10785 10796       L1    12  0.51
      L1  C    11    34       P1  7921  0.83
      L1  C    14    35       P1 10957  0.59

> <Gold.PLP.Chemscore.Internal.Correction>
0.3391

> <Gold.Rescore>
     Score         DG    S(hbond)    S(metal)    S(lipo)     H(rot)  DE(clash)    DE(int)     intcor
     14.92     -18.96       3.52        0.00      54.95       1.84       1.81       2.23       ----

> <Gold.Chemscore.Fitness>
14.9183

> <Gold.Chemscore.DG>
-18.9556

> <Gold.Chemscore.ZeroCoef>
-5.4800

> <Gold.Chemscore.Hbond>
3.5219

> <Gold.Chemscore.Metal>
0.0000

> <Gold.Chemscore.Lipo>
54.9511

> <Gold.Chemscore.Internal_Hbond>
0.0000

> <Gold.Chemscore.DEClash>
1.8081

> <Gold.Chemscore.DEInternal>
2.2292

> <Gold.Chemscore.Rot>
1.8425

> <Gold.Chemscore.Internal.Correction>
   9.000000E+99

> <Gold.Chemscore.Hbonds>
donor molecule, donor type, donor heavy atom, donor atom, acceptor molecule, acceptor atom, score
      L1  H     6    32       P1  7948  0.98
      L1  H    13    21       P1 10952  0.25
      L1  H    15    44       P1  7948  0.98
      P1  H  7989  7998       L1    18  0.20
      P1  H 10785 10796       L1    12  0.07

> <Gold.Chemscore.Hbond.Weighted>
-11.7631

> <Gold.Chemscore.Metal.Weighted>
-0.0000

> <Gold.Chemscore.Lipo.Weighted>
-6.4293

> <Gold.Chemscore.Internal_Hbond.Weighted>
0.0000

> <Gold.Chemscore.DEClash.Weighted>
1.8081

> <Gold.Chemscore.DEInternal.Weighted>
2.2292

> <Gold.Chemscore.Rot.Weighted>
4.7168

> <Gold.Chemscore.Internal.Correction.Weighted>
   9.000000E+99

> <Gold.Protein.RotatedTorsions>
[ 6907 6896 6895 6894 ] final -124.59 input  -60.11 | X-H torsion
[ 7974 7965 7964 7962 ] final   73.87 input  175.53 | X-H torsion
[ 8008 7997 7996 7995 ] final -140.22 input   59.86 | X-H torsion
[ 10167 10162 10161 10158 ] final  -55.32 input  -65.29 | X-H torsion
[ 10718 10713 10712 10709 ] final  -63.48 input   66.30 | X-H torsion
[ 10763 10752 10751 10750 ] final   30.43 input  -60.55 | X-H torsion
[ 11005 11000 10999 10996 ] final  107.50 input  -57.11 | X-H torsion

> <Gold.Protein.ActiveResidues>
 VAL166  LYS551  ARG553  GLY616  TRP617  ASP618  TYR619  PRO620  LYS621  CYS622 
 ASP623  PHE694  ASN695  SER759  ASP760  ASP761  ALA762  ILE779  LEU786  VAL792 
 PHE793  MET794  SER795  GLU796  ALA797  LYS798  CYS799  TRP800  GLU811  SER814 

> <Gold.Protein.RotatedAtoms>
  150.8783  133.7408  159.2939 H   0  0  0  0  0  0  0  0  0  0  0  0  # atno 6907 bound_to 6896
  151.4997  135.1060  159.9835 H   0  0  0  0  0  0  0  0  0  0  0  0  # atno 6908 bound_to 6896
  152.4742  133.8055  159.7031 H   0  0  0  0  0  0  0  0  0  0  0  0  # atno 6909 bound_to 6896
  145.7354  139.2700  143.1517 H   0  0  0  0  0  0  0  0  0  0  0  0  # atno 7974 bound_to 7965
  155.4577  140.0543  157.2994 H   0  0  0  0  0  0  0  0  0  0  0  0  # atno 8008 bound_to 7997
  154.4750  140.2057  155.9855 H   0  0  0  0  0  0  0  0  0  0  0  0  # atno 8009 bound_to 7997
  156.1118  140.3203  155.8087 H   0  0  0  0  0  0  0  0  0  0  0  0  # atno 8010 bound_to 7997
  140.6381  143.2493  151.5063 H   0  0  0  0  0  0  0  0  0  0  0  0  # atno 10167 bound_to 10162
  156.0788  130.4221  150.1283 H   0  0  0  0  0  0  0  0  0  0  0  0  # atno 10718 bound_to 10713
  153.0372  135.6464  154.1044 H   0  0  0  0  0  0  0  0  0  0  0  0  # atno 10763 bound_to 10752
  154.0757  135.2877  155.3301 H   0  0  0  0  0  0  0  0  0  0  0  0  # atno 10764 bound_to 10752
  154.6564  135.5407  153.8029 H   0  0  0  0  0  0  0  0  0  0  0  0  # atno 10765 bound_to 10752
  139.8829  134.9402  156.5829 H   0  0  0  0  0  0  0  0  0  0  0  0  # atno 11005 bound_to 11000
  146.0498  140.8081  142.9787 LP  0  0  0  0  0  0  0  0  0  0  0  0  # atno 17320 bound_to 7965
  144.6883  140.3036  143.7259 LP  0  0  0  0  0  0  0  0  0  0  0  0  # atno 17321 bound_to 7965
  139.5591  144.2202  152.1661 LP  0  0  0  0  0  0  0  0  0  0  0  0  # atno 17342 bound_to 10162
  140.1464  144.5155  150.6713 LP  0  0  0  0  0  0  0  0  0  0  0  0  # atno 17343 bound_to 10162
  156.9319  130.9716  151.3531 LP  0  0  0  0  0  0  0  0  0  0  0  0  # atno 17370 bound_to 10713
  157.5896  130.8434  149.8640 LP  0  0  0  0  0  0  0  0  0  0  0  0  # atno 17371 bound_to 10713
  140.8014  133.8502  155.8730 LP  0  0  0  0  0  0  0  0  0  0  0  0  # atno 17394 bound_to 11000
  140.9589  134.1681  157.4669 LP  0  0  0  0  0  0  0  0  0  0  0  0  # atno 17395 bound_to 11000

$$$$
