AV-unprocessed.smi:1593|AV-procd|sdf|6413|dock2
  -GOLD-   22720 7 43D 1   1.00000     0.00000
 Structure written by MMmdl.
 36 37  0  0  0  0  0  0  0  0  3 V2000
  147.3917  135.2937  163.0482 C   0  0  0  0  0  0  0  0  0  0  0  0
  147.4005  136.0571  161.7684 C   0  0  0  0  0  0  0  0  0  0  0  0
  148.1748  135.9818  160.6452 C   0  0  0  0  0  0  0  0  0  0  0  0
  147.6368  137.0012  159.8149 C   0  0  0  0  0  0  0  0  0  0  0  0
  148.1746  137.2410  158.5228 N   0  0  0  0  0  0  0  0  0  0  0  0
  148.9572  136.4423  157.7743 C   0  0  0  0  0  0  0  0  0  0  0  0
  149.2587  135.3113  158.1743 O   0  0  0  0  0  0  0  0  0  0  0  0
  149.3261  137.0335  156.6046 N   0  5  0  0  0  0  0  0  0  0  0  0
  149.3433  136.3638  155.3060 C   0  0  0  0  0  0  0  0  0  0  0  0
  147.9123  135.9444  154.9184 C   0  0  0  0  0  0  0  0  0  0  0  0
  147.9073  134.8567  153.9041 N   0  3  0  0  0  0  0  0  0  0  0  0
  148.7243  133.6854  154.3047 C   0  0  0  0  0  0  0  0  0  0  0  0
  148.7485  132.6392  153.1774 C   0  0  0  0  0  0  0  0  0  0  0  0
  147.4187  132.2525  152.8531 O   0  0  0  0  0  0  0  0  0  0  0  0
  146.6420  133.3505  152.3904 C   0  0  0  0  0  0  0  0  0  0  0  0
  146.5473  134.4160  153.4947 C   0  0  0  0  0  0  0  0  0  0  0  0
  146.6252  137.6412  160.3827 N   0  0  0  0  0  0  0  0  0  0  0  0
  146.4688  137.0398  161.6369 O   0  0  0  0  0  0  0  0  0  0  0  0
  148.1682  134.5285  163.0511 H   0  0  0  0  0  0  0  0  0  0  0  0
  146.4308  134.8010  163.1970 H   0  0  0  0  0  0  0  0  0  0  0  0
  147.5674  135.9573  163.8949 H   0  0  0  0  0  0  0  0  0  0  0  0
  148.9930  135.3048  160.4501 H   0  0  0  0  0  0  0  0  0  0  0  0
  147.9529  138.1385  158.1186 H   0  0  0  0  0  0  0  0  0  0  0  0
  149.7446  137.0036  154.5190 H   0  0  0  0  0  0  0  0  0  0  0  0
  149.9790  135.4777  155.3217 H   0  0  0  0  0  0  0  0  0  0  0  0
  147.4057  135.6027  155.8227 H   0  0  0  0  0  0  0  0  0  0  0  0
  147.3373  136.7979  154.5551 H   0  0  0  0  0  0  0  0  0  0  0  0
  149.7436  134.0024  154.5282 H   0  0  0  0  0  0  0  0  0  0  0  0
  148.3149  133.2476  155.2166 H   0  0  0  0  0  0  0  0  0  0  0  0
  149.2521  133.0324  152.2927 H   0  0  0  0  0  0  0  0  0  0  0  0
  149.3051  131.7575  153.4951 H   0  0  0  0  0  0  0  0  0  0  0  0
  147.0814  133.7673  151.4826 H   0  0  0  0  0  0  0  0  0  0  0  0
  145.6463  132.9929  152.1273 H   0  0  0  0  0  0  0  0  0  0  0  0
  146.0179  134.0106  154.3583 H   0  0  0  0  0  0  0  0  0  0  0  0
  145.9642  135.2636  153.1332 H   0  0  0  0  0  0  0  0  0  0  0  0
  148.3533  135.2430  153.0842 H   0  0  0  0  0  0  0  0  0  0  0  0
  1  2  1  0  0  0  0
  1 19  1  0  0  0  0
  1 20  1  0  0  0  0
  1 21  1  0  0  0  0
  2 18  1  0  0  0  0
  2  3  2  0  0  0  0
  3  4  1  0  0  0  0
  3 22  1  0  0  0  0
  4  5  1  0  0  0  0
  4 17  2  0  0  0  0
  5  6  1  0  0  0  0
  5 23  1  0  0  0  0
  6  7  2  0  0  0  0
  6  8  1  0  0  0  0
  8  9  1  0  0  0  0
  9 10  1  0  0  0  0
  9 24  1  0  0  0  0
  9 25  1  0  0  0  0
 10 11  1  0  0  0  0
 10 26  1  0  0  0  0
 10 27  1  0  0  0  0
 11 16  1  0  0  0  0
 11 12  1  0  0  0  0
 11 36  1  0  0  0  0
 12 13  1  0  0  0  0
 12 28  1  0  0  0  0
 12 29  1  0  0  0  0
 13 14  1  0  0  0  0
 13 30  1  0  0  0  0
 13 31  1  0  0  0  0
 14 15  1  0  0  0  0
 15 16  1  0  0  0  0
 15 32  1  0  0  0  0
 15 33  1  0  0  0  0
 16 34  1  0  0  0  0
 16 35  1  0  0  0  0
 17 18  1  0  0  0  0
M  CHG  1   8  -1
M  CHG  1  11   1
M  END
> <s_m_source_file>
AV-unprocessed.smi

> <i_m_source_file_index>
1593

> <i_lp_mmshare_version>
43012

> <i_f3d_flags>
0

> <s_epik_input>
W0NIM11jMVtjSF1jKG5vMSlbTkhdQyg9TylbTkhdW0NIMl1bQ0gyXU4yW0NIMl1bQ0gyXU9bQ0gyXVtDSDJdMg==

> <s_epik_cmdline>
J2VwaWtfcHl0aG9uJywgJy1waCcsICc3LjAnLCAnLXRuJywgJzgnLCAnLW1hJywgJzIwMCcsICctbWV0YWxfYmluZGluZycsICctaW1hZScsICc8aW5maWxlLm1hZT4nLCAnLW9tYWUnLCAnPG91dGZpbGUubWFlPic=

> <r_epik_Ionization_Penalty>
6.79272

> <r_epik_Ionization_Penalty_Charging>
6.79272

> <r_epik_Ionization_Penalty_Neutral>
5.6208e-06

> <r_epik_State_Penalty>
7.45901

> <r_epik_Charging_Adjusted_Penalty>
14.2517

> <i_epik_Tot_Q>
0

> <i_epik_Tot_abs_Q>
2

> <r_epik_Metal_State_Penalty>
3.38639

> <b_epik_Metal_Only>
1

> <s_lp_Force_Field>
OPLS_2005

> <r_lp_Energy>
12.9182

> <b_lp_Chiralities_Consistent>
1

> <s_lp_Variant>
AV-unprocessed.smi:1593-5

> <Gold.Version>
5.8.1

> <Gold.Id.Protein>
6NUR|6NUR_protein|mol2

> <Gold.PLP.Fitness>
37.3036

> <Gold.PLP.PLP>
-26.1929

> <Gold.PLP.part.hbond>
-3.5540

> <Gold.PLP.part.metal>
0.0000

> <Gold.PLP.part.buried>
-3.1547

> <Gold.PLP.part.nonpolar>
-19.3216

> <Gold.PLP.part.repulsive>
0.2657

> <Gold.PLP.ligand.clash>
0.0000

> <Gold.PLP.ligand.torsion>
0.5364

> <Gold.PLP.Chemscore.Hbond>
4.0000

> <Gold.PLP.Chemscore.CHOScore>
0.0000

> <Gold.PLP.Chemscore.Metal>
0.0000

> <Gold.Chemscore.Hbonds>
donor molecule, donor type, donor heavy atom, donor atom, acceptor molecule, acceptor atom, score
      L1  H    11    36       P1  7948  2.00
      P1  H  6896  6907       L1     7  0.84
      P1  H  6934  6947       L1    17  0.85

> <Gold.PLP.Chemscore.Internal.Correction>
0.1836

> <Gold.Rescore>
     Score         DG    S(hbond)    S(metal)    S(lipo)     H(rot)  DE(clash)    DE(int)     intcor
     14.90     -16.96       2.91        0.00      50.69       1.62       0.01       2.05       ----

> <Gold.Chemscore.Fitness>
14.9017

> <Gold.Chemscore.DG>
-16.9648

> <Gold.Chemscore.ZeroCoef>
-5.4800

> <Gold.Chemscore.Hbond>
2.9067

> <Gold.Chemscore.Metal>
0.0000

> <Gold.Chemscore.Lipo>
50.6893

> <Gold.Chemscore.Internal_Hbond>
0.0000

> <Gold.Chemscore.DEClash>
0.0128

> <Gold.Chemscore.DEInternal>
2.0504

> <Gold.Chemscore.Rot>
1.6228

> <Gold.Chemscore.Internal.Correction>
   9.000000E+99

> <Gold.Chemscore.Hbonds>
donor molecule, donor type, donor heavy atom, donor atom, acceptor molecule, acceptor atom, score
      L1  H    11    36       P1  7948  0.96
      P1  H  6896  6907       L1     7  0.82
      P1  H  6934  6947       L1    17  0.09

> <Gold.Chemscore.Hbond.Weighted>
-9.7084

> <Gold.Chemscore.Metal.Weighted>
-0.0000

> <Gold.Chemscore.Lipo.Weighted>
-5.9306

> <Gold.Chemscore.Internal_Hbond.Weighted>
0.0000

> <Gold.Chemscore.DEClash.Weighted>
0.0128

> <Gold.Chemscore.DEInternal.Weighted>
2.0504

> <Gold.Chemscore.Rot.Weighted>
4.1542

> <Gold.Chemscore.Internal.Correction.Weighted>
   9.000000E+99

> <Gold.Protein.RotatedTorsions>
[ 6907 6896 6895 6894 ] final  -79.23 input  -60.11 | X-H torsion
[ 7974 7965 7964 7962 ] final  173.68 input  175.53 | X-H torsion
[ 8008 7997 7996 7995 ] final -132.87 input   59.86 | X-H torsion
[ 10167 10162 10161 10158 ] final  118.38 input  -65.29 | X-H torsion
[ 10718 10713 10712 10709 ] final  110.98 input   66.30 | X-H torsion
[ 10763 10752 10751 10750 ] final  -23.57 input  -60.55 | X-H torsion
[ 11005 11000 10999 10996 ] final -111.20 input  -57.11 | X-H torsion

> <Gold.Protein.ActiveResidues>
 VAL166  LYS551  ARG553  GLY616  TRP617  ASP618  TYR619  PRO620  LYS621  CYS622 
 ASP623  PHE694  ASN695  SER759  ASP760  ASP761  ALA762  ILE779  LEU786  VAL792 
 PHE793  MET794  SER795  GLU796  ALA797  LYS798  CYS799  TRP800  GLU811  SER814 

> <Gold.Protein.RotatedAtoms>
  150.6954  134.4153  159.5179 H   0  0  0  0  0  0  0  0  0  0  0  0  # atno 6907 bound_to 6896
  152.1905  134.8674  160.0527 H   0  0  0  0  0  0  0  0  0  0  0  0  # atno 6908 bound_to 6896
  151.9631  133.3666  159.4079 H   0  0  0  0  0  0  0  0  0  0  0  0  # atno 6909 bound_to 6896
  144.7238  139.9684  143.6436 H   0  0  0  0  0  0  0  0  0  0  0  0  # atno 7974 bound_to 7965
  155.3360  140.0469  157.3044 H   0  0  0  0  0  0  0  0  0  0  0  0  # atno 8008 bound_to 7997
  154.5303  140.2254  155.8782 H   0  0  0  0  0  0  0  0  0  0  0  0  # atno 8009 bound_to 7997
  156.1781  140.3080  155.9103 H   0  0  0  0  0  0  0  0  0  0  0  0  # atno 8010 bound_to 7997
  139.6115  144.7083  151.2833 H   0  0  0  0  0  0  0  0  0  0  0  0  # atno 10167 bound_to 10162
  157.6467  131.0942  150.6682 H   0  0  0  0  0  0  0  0  0  0  0  0  # atno 10718 bound_to 10713
  153.6700  135.6972  153.5150 H   0  0  0  0  0  0  0  0  0  0  0  0  # atno 10763 bound_to 10752
  153.2565  135.4258  155.0850 H   0  0  0  0  0  0  0  0  0  0  0  0  # atno 10764 bound_to 10752
  154.8429  135.3544  154.6244 H   0  0  0  0  0  0  0  0  0  0  0  0  # atno 10765 bound_to 10752
  141.0748  133.9319  157.2412 H   0  0  0  0  0  0  0  0  0  0  0  0  # atno 11005 bound_to 11000
  146.0582  139.3578  143.0597 LP  0  0  0  0  0  0  0  0  0  0  0  0  # atno 17320 bound_to 7965
  145.8127  140.9718  143.0940 LP  0  0  0  0  0  0  0  0  0  0  0  0  # atno 17321 bound_to 7965
  140.7322  143.6829  150.7986 LP  0  0  0  0  0  0  0  0  0  0  0  0  # atno 17342 bound_to 10162
  140.0425  143.5332  152.2711 LP  0  0  0  0  0  0  0  0  0  0  0  0  # atno 17343 bound_to 10162
  156.6998  130.4620  149.5576 LP  0  0  0  0  0  0  0  0  0  0  0  0  # atno 17370 bound_to 10713
  156.1803  130.6494  151.0943 LP  0  0  0  0  0  0  0  0  0  0  0  0  # atno 17371 bound_to 10713
  139.9560  135.0165  156.9130 LP  0  0  0  0  0  0  0  0  0  0  0  0  # atno 17394 bound_to 11000
  140.5596  134.0547  155.7394 LP  0  0  0  0  0  0  0  0  0  0  0  0  # atno 17395 bound_to 11000

$$$$
