AV-unprocessed.smi:2446|AV-procd|sdf|9645|dock9
  -GOLD-   2272013283D 1   1.00000     0.00000
 Structure written by MMmdl.
 40 41  0  0  0  0  0  0  0  0  2 V2000
  146.3913  131.4950  148.8608 C   0  0  0  0  0  0  0  0  0  0  0  0
  145.3804  132.1467  149.7888 C   0  0  0  0  0  0  0  0  0  0  0  0
  144.1600  132.6226  149.2620 C   0  0  0  0  0  0  0  0  0  0  0  0
  143.2502  133.2002  150.0744 N   0  3  0  0  0  0  0  0  0  0  0  0
  143.4459  133.3467  151.4011 C   0  0  0  0  0  0  0  0  0  0  0  0
  144.6430  132.8929  151.9896 C   0  0  0  0  0  0  0  0  0  0  0  0
  145.6387  132.2937  151.1760 C   0  0  0  0  0  0  0  0  0  0  0  0
  146.8681  131.7952  151.6914 N   0  0  0  0  0  0  0  0  0  0  0  0
  147.3517  131.8597  152.9475 C   0  0  0  0  0  0  0  0  0  0  0  0
  146.7564  132.3531  153.9026 O   0  0  0  0  0  0  0  0  0  0  0  0
  148.5836  131.3377  153.0913 N   0  0  0  0  0  0  0  0  0  0  0  0
  149.4035  131.2412  154.3042 C   0  0  2  0  0  0  0  0  0  0  0  0
  150.4085  130.0810  154.1724 C   0  0  0  0  0  0  0  0  0  0  0  0
  149.7214  128.7066  154.2376 C   0  0  0  0  0  0  0  0  0  0  0  0
  148.8739  128.5629  155.5113 C   0  0  0  0  0  0  0  0  0  0  0  0
  147.8312  129.6937  155.6324 C   0  0  1  0  0  0  0  0  0  0  0  0
  146.9620  129.5476  156.8984 C   0  0  0  0  0  0  0  0  0  0  0  0
  146.3064  128.3866  156.8927 F   0  0  0  0  0  0  0  0  0  0  0  0
  147.7301  129.6037  157.9867 F   0  0  0  0  0  0  0  0  0  0  0  0
  146.0772  130.5424  156.9626 F   0  0  0  0  0  0  0  0  0  0  0  0
  148.5325  131.0696  155.5695 C   0  0  0  0  0  0  0  0  0  0  0  0
  146.0085  131.4290  147.8419 H   0  0  0  0  0  0  0  0  0  0  0  0
  146.6253  130.4846  149.1980 H   0  0  0  0  0  0  0  0  0  0  0  0
  147.3144  132.0745  148.8368 H   0  0  0  0  0  0  0  0  0  0  0  0
  143.8832  132.5580  148.2196 H   0  0  0  0  0  0  0  0  0  0  0  0
  142.6420  133.8144  151.9508 H   0  0  0  0  0  0  0  0  0  0  0  0
  144.7660  133.0031  153.0558 H   0  0  0  0  0  0  0  0  0  0  0  0
  147.5012  131.4178  151.0016 H   0  0  0  0  0  0  0  0  0  0  0  0
  148.9982  130.9446  152.2584 H   0  0  0  0  0  0  0  0  0  0  0  0
  149.9853  132.1593  154.4015 H   0  0  0  0  0  0  0  0  0  0  0  0
  150.9740  130.1731  153.2441 H   0  0  0  0  0  0  0  0  0  0  0  0
  151.1400  130.1495  154.9787 H   0  0  0  0  0  0  0  0  0  0  0  0
  149.0891  128.5661  153.3601 H   0  0  0  0  0  0  0  0  0  0  0  0
  150.4727  127.9170  154.2025 H   0  0  0  0  0  0  0  0  0  0  0  0
  148.3761  127.5929  155.5044 H   0  0  0  0  0  0  0  0  0  0  0  0
  149.5277  128.5665  156.3845 H   0  0  0  0  0  0  0  0  0  0  0  0
  147.1616  129.6189  154.7742 H   0  0  0  0  0  0  0  0  0  0  0  0
  149.1662  131.1877  156.4493 H   0  0  0  0  0  0  0  0  0  0  0  0
  147.7932  131.8683  155.6282 H   0  0  0  0  0  0  0  0  0  0  0  0
  142.3755  133.5350  149.6694 H   0  0  0  0  0  0  0  0  0  0  0  0
  1  2  1  0  0  0  0
  1 22  1  0  0  0  0
  1 23  1  0  0  0  0
  1 24  1  0  0  0  0
  2  7  1  0  0  0  0
  2  3  2  0  0  0  0
  3  4  1  0  0  0  0
  3 25  1  0  0  0  0
  4  5  2  0  0  0  0
  4 40  1  0  0  0  0
  5  6  1  0  0  0  0
  5 26  1  0  0  0  0
  6  7  2  0  0  0  0
  6 27  1  0  0  0  0
  7  8  1  0  0  0  0
  8  9  1  0  0  0  0
  8 28  1  0  0  0  0
  9 10  2  0  0  0  0
  9 11  1  0  0  0  0
 11 12  1  0  0  0  0
 11 29  1  0  0  0  0
 12 21  1  0  0  0  0
 12 13  1  0  0  0  0
 12 30  1  0  0  0  0
 13 14  1  0  0  0  0
 13 31  1  0  0  0  0
 13 32  1  0  0  0  0
 14 15  1  0  0  0  0
 14 33  1  0  0  0  0
 14 34  1  0  0  0  0
 15 16  1  0  0  0  0
 15 35  1  0  0  0  0
 15 36  1  0  0  0  0
 16 17  1  0  0  0  0
 16 21  1  0  0  0  0
 16 37  1  0  0  0  0
 17 18  1  0  0  0  0
 17 19  1  0  0  0  0
 17 20  1  0  0  0  0
 21 38  1  0  0  0  0
 21 39  1  0  0  0  0
M  CHG  1   4   1
M  END
> <s_m_source_file>
AV-unprocessed.smi

> <i_m_source_file_index>
2446

> <i_lp_mmshare_version>
43012

> <i_f3d_flags>
0

> <s_epik_input>
W0NIM11jMVtjSF1uW2NIXVtjSF1jMVtOSF1DKD1PKVtOSF1bQ0BASF0yW0NIMl1bQ0gyXVtDSDJdW0NAQEhdKEMoRikoRilGKVtDSDJdMg==

> <s_epik_cmdline>
J2VwaWtfcHl0aG9uJywgJy1waCcsICc3LjAnLCAnLXRuJywgJzgnLCAnLW1hJywgJzIwMCcsICctbWV0YWxfYmluZGluZycsICctaW1hZScsICc8aW5maWxlLm1hZT4nLCAnLW9tYWUnLCAnPG91dGZpbGUubWFlPic=

> <r_epik_Ionization_Penalty>
0.736582

> <r_epik_Ionization_Penalty_Charging>
0.736562

> <r_epik_Ionization_Penalty_Neutral>
1.98379e-05

> <r_epik_State_Penalty>
0.762314

> <r_epik_Charging_Adjusted_Penalty>
1.49888

> <i_epik_Tot_Q>
1

> <i_epik_Tot_abs_Q>
1

> <r_epik_Metal_State_Penalty>
0.914579

> <b_epik_Metal_Only>
0

> <s_lp_Force_Field>
OPLS_2005

> <r_lp_Energy>
31.0639

> <b_lp_Chiralities_Consistent>
1

> <s_lp_Variant>
AV-unprocessed.smi:2446-5

> <Gold.Version>
5.8.1

> <Gold.Id.Protein>
6NUR|6NUR_protein|mol2

> <Gold.PLP.Fitness>
40.9763

> <Gold.PLP.PLP>
-29.7741

> <Gold.PLP.part.hbond>
-3.0000

> <Gold.PLP.part.metal>
0.0000

> <Gold.PLP.part.buried>
-3.3403

> <Gold.PLP.part.nonpolar>
-23.1705

> <Gold.PLP.part.repulsive>
0.1580

> <Gold.PLP.ligand.clash>
0.0000

> <Gold.PLP.ligand.torsion>
0.3737

> <Gold.PLP.Chemscore.Hbond>
3.9760

> <Gold.PLP.Chemscore.CHOScore>
0.0000

> <Gold.PLP.Chemscore.Metal>
0.0000

> <Gold.Chemscore.Hbonds>
donor molecule, donor type, donor heavy atom, donor atom, acceptor molecule, acceptor atom, score
      L1  H     4    40       P1 10186  2.00
      L1  H     8    28       P1 10747  1.00
      L1  H    11    29       P1 10747  0.98

> <Gold.PLP.Chemscore.Internal.Correction>
0.0215

> <Gold.Rescore>
     Score         DG    S(hbond)    S(metal)    S(lipo)     H(rot)  DE(clash)    DE(int)     intcor
     17.50     -20.89       2.49        0.00      82.39       1.00       0.37       3.02       ----

> <Gold.Chemscore.Fitness>
17.5044

> <Gold.Chemscore.DG>
-20.8920

> <Gold.Chemscore.ZeroCoef>
-5.4800

> <Gold.Chemscore.Hbond>
2.4948

> <Gold.Chemscore.Metal>
0.0000

> <Gold.Chemscore.Lipo>
82.3877

> <Gold.Chemscore.Internal_Hbond>
0.0000

> <Gold.Chemscore.DEClash>
0.3717

> <Gold.Chemscore.DEInternal>
3.0159

> <Gold.Chemscore.Rot>
1.0000

> <Gold.Chemscore.Internal.Correction>
   9.000000E+99

> <Gold.Chemscore.Hbonds>
donor molecule, donor type, donor heavy atom, donor atom, acceptor molecule, acceptor atom, score
      L1  H     4    40       P1 10186  0.99
      L1  H     8    28       P1 10747  1.00
      L1  H    11    29       P1 10747  0.41

> <Gold.Chemscore.Hbond.Weighted>
-8.3326

> <Gold.Chemscore.Metal.Weighted>
-0.0000

> <Gold.Chemscore.Lipo.Weighted>
-9.6394

> <Gold.Chemscore.Internal_Hbond.Weighted>
0.0000

> <Gold.Chemscore.DEClash.Weighted>
0.3717

> <Gold.Chemscore.DEInternal.Weighted>
3.0159

> <Gold.Chemscore.Rot.Weighted>
2.5600

> <Gold.Chemscore.Internal.Correction.Weighted>
   9.000000E+99

> <Gold.Protein.RotatedTorsions>
[ 6907 6896 6895 6894 ] final   -9.35 input  -60.11 | X-H torsion
[ 7974 7965 7964 7962 ] final   36.40 input  175.53 | X-H torsion
[ 8008 7997 7996 7995 ] final  122.08 input   59.86 | X-H torsion
[ 10167 10162 10161 10158 ] final -140.96 input  -65.29 | X-H torsion
[ 10718 10713 10712 10709 ] final  -90.31 input   66.30 | X-H torsion
[ 10763 10752 10751 10750 ] final  160.04 input  -60.55 | X-H torsion
[ 11005 11000 10999 10996 ] final  -75.47 input  -57.11 | X-H torsion

> <Gold.Protein.ActiveResidues>
 VAL166  LYS551  ARG553  GLY616  TRP617  ASP618  TYR619  PRO620  LYS621  CYS622 
 ASP623  PHE694  ASN695  SER759  ASP760  ASP761  ALA762  ILE779  LEU786  VAL792 
 PHE793  MET794  SER795  GLU796  ALA797  LYS798  CYS799  TRP800  GLU811  SER814 

> <Gold.Protein.RotatedAtoms>
  151.4191  135.0995  159.9608 H   0  0  0  0  0  0  0  0  0  0  0  0  # atno 6907 bound_to 6896
  152.4994  133.8724  159.7315 H   0  0  0  0  0  0  0  0  0  0  0  0  # atno 6908 bound_to 6896
  150.9236  133.6793  159.2854 H   0  0  0  0  0  0  0  0  0  0  0  0  # atno 6909 bound_to 6896
  146.1213  139.6022  142.9287 H   0  0  0  0  0  0  0  0  0  0  0  0  # atno 7974 bound_to 7965
  156.2713  140.2794  156.1410 H   0  0  0  0  0  0  0  0  0  0  0  0  # atno 8008 bound_to 7997
  155.0954  140.0389  157.2698 H   0  0  0  0  0  0  0  0  0  0  0  0  # atno 8009 bound_to 7997
  154.6857  140.2618  155.6869 H   0  0  0  0  0  0  0  0  0  0  0  0  # atno 8010 bound_to 7997
  139.8231  143.7548  152.2666 H   0  0  0  0  0  0  0  0  0  0  0  0  # atno 10167 bound_to 10162
  155.9987  130.4905  150.5303 H   0  0  0  0  0  0  0  0  0  0  0  0  # atno 10718 bound_to 10713
  154.2411  135.2775  155.2853 H   0  0  0  0  0  0  0  0  0  0  0  0  # atno 10763 bound_to 10752
  154.5544  135.5665  153.6954 H   0  0  0  0  0  0  0  0  0  0  0  0  # atno 10764 bound_to 10752
  152.9999  135.6282  154.2555 H   0  0  0  0  0  0  0  0  0  0  0  0  # atno 10765 bound_to 10752
  141.1645  133.6948  156.7521 H   0  0  0  0  0  0  0  0  0  0  0  0  # atno 11005 bound_to 11000
  145.5459  141.0417  143.2305 LP  0  0  0  0  0  0  0  0  0  0  0  0  # atno 17320 bound_to 7965
  144.7600  139.6979  143.7238 LP  0  0  0  0  0  0  0  0  0  0  0  0  # atno 17321 bound_to 7965
  139.7732  144.7470  151.0195 LP  0  0  0  0  0  0  0  0  0  0  0  0  # atno 17342 bound_to 10162
  140.7812  143.4622  151.0261 LP  0  0  0  0  0  0  0  0  0  0  0  0  # atno 17343 bound_to 10162
  157.3253  131.0689  151.1901 LP  0  0  0  0  0  0  0  0  0  0  0  0  # atno 17370 bound_to 10713
  157.2801  130.6746  149.6061 LP  0  0  0  0  0  0  0  0  0  0  0  0  # atno 17371 bound_to 10713
  140.2596  134.8477  157.3746 LP  0  0  0  0  0  0  0  0  0  0  0  0  # atno 17394 bound_to 11000
  140.1624  134.4712  155.7886 LP  0  0  0  0  0  0  0  0  0  0  0  0  # atno 17395 bound_to 11000

$$$$
