AV-unprocessed.smi:1101|AV-procd|sdf|4766|dock7
  -GOLD-   22720 3303D 1   1.00000     0.00000
 Structure written by MMmdl.
 41 42  0  0  0  0  0  0  0  0  1 V2000
  151.3199  144.0613  157.2401 C   0  0  0  0  0  0  0  0  0  0  0  0
  151.3917  142.7241  157.9876 C   0  0  0  0  0  0  0  0  0  0  0  0
  150.6706  141.5848  157.2502 C   0  0  1  0  0  0  0  0  0  0  0  0
  150.4631  141.9026  155.7548 C   0  0  0  0  0  0  0  0  0  0  0  0
  149.8049  140.7495  155.1235 N   0  0  0  0  0  0  0  0  0  0  0  0
  148.5251  140.6880  154.6783 C   0  0  0  0  0  0  0  0  0  0  0  0
  147.9631  139.6316  154.3854 O   0  0  0  0  0  0  0  0  0  0  0  0
  147.9168  141.8793  154.5490 N   0  0  0  0  0  0  0  0  0  0  0  0
  146.5504  142.0823  154.0820 C   0  0  0  0  0  0  0  0  0  0  0  0
  145.6448  142.6268  155.1986 C   0  0  0  0  0  0  0  0  0  0  0  0
  144.6874  143.6601  154.6757 C   0  0  0  0  0  0  0  0  0  0  0  0
  144.4857  144.0616  153.3241 C   0  0  0  0  0  0  0  0  0  0  0  0
  143.5608  144.9996  153.1985 N   0  0  0  0  0  0  0  0  0  0  0  0
  143.1416  145.2290  154.4601 N   0  0  0  0  0  0  0  0  0  0  0  0
  142.1121  146.2171  154.7012 C   0  0  0  0  0  0  0  0  0  0  0  0
  143.8045  144.4365  155.3723 C   0  0  0  0  0  0  0  0  0  0  0  0
  150.6569  139.5629  155.2343 C   0  0  0  0  0  0  0  0  0  0  0  0
  150.8758  139.2642  156.7276 C   0  0  0  0  0  0  0  0  0  0  0  0
  151.4601  140.4002  157.3607 O   0  0  0  0  0  0  0  0  0  0  0  0
  151.8579  144.8384  157.7833 H   0  0  0  0  0  0  0  0  0  0  0  0
  150.2884  144.3940  157.1215 H   0  0  0  0  0  0  0  0  0  0  0  0
  151.7633  143.9815  156.2473 H   0  0  0  0  0  0  0  0  0  0  0  0
  152.4403  142.4584  158.1254 H   0  0  0  0  0  0  0  0  0  0  0  0
  150.9709  142.8413  158.9869 H   0  0  0  0  0  0  0  0  0  0  0  0
  149.7008  141.4157  157.7224 H   0  0  0  0  0  0  0  0  0  0  0  0
  149.9126  142.8372  155.6485 H   0  0  0  0  0  0  0  0  0  0  0  0
  151.4255  142.0735  155.2696 H   0  0  0  0  0  0  0  0  0  0  0  0
  148.4416  142.7060  154.7949 H   0  0  0  0  0  0  0  0  0  0  0  0
  146.5804  142.7879  153.2514 H   0  0  0  0  0  0  0  0  0  0  0  0
  146.1494  141.1491  153.6824 H   0  0  0  0  0  0  0  0  0  0  0  0
  145.0963  141.8039  155.6586 H   0  0  0  0  0  0  0  0  0  0  0  0
  146.2647  143.0477  155.9911 H   0  0  0  0  0  0  0  0  0  0  0  0
  144.9818  143.6997  152.4356 H   0  0  0  0  0  0  0  0  0  0  0  0
  141.8211  146.2056  155.7519 H   0  0  0  0  0  0  0  0  0  0  0  0
  141.2366  145.9971  154.0895 H   0  0  0  0  0  0  0  0  0  0  0  0
  142.4872  147.2091  154.4476 H   0  0  0  0  0  0  0  0  0  0  0  0
  143.5954  144.4878  156.4309 H   0  0  0  0  0  0  0  0  0  0  0  0
  150.2349  138.6883  154.7373 H   0  0  0  0  0  0  0  0  0  0  0  0
  151.6125  139.7546  154.7443 H   0  0  0  0  0  0  0  0  0  0  0  0
  149.9343  139.0076  157.2159 H   0  0  0  0  0  0  0  0  0  0  0  0
  151.5426  138.4105  156.8487 H   0  0  0  0  0  0  0  0  0  0  0  0
  1  2  1  0  0  0  0
  1 20  1  0  0  0  0
  1 21  1  0  0  0  0
  1 22  1  0  0  0  0
  2  3  1  0  0  0  0
  2 23  1  0  0  0  0
  2 24  1  0  0  0  0
  3 19  1  0  0  0  0
  3  4  1  0  0  0  0
  3 25  1  0  0  0  0
  4  5  1  0  0  0  0
  4 26  1  0  0  0  0
  4 27  1  0  0  0  0
  5  6  1  0  0  0  0
  5 17  1  0  0  0  0
  6  7  2  0  0  0  0
  6  8  1  0  0  0  0
  8  9  1  0  0  0  0
  8 28  1  0  0  0  0
  9 10  1  0  0  0  0
  9 29  1  0  0  0  0
  9 30  1  0  0  0  0
 10 11  1  0  0  0  0
 10 31  1  0  0  0  0
 10 32  1  0  0  0  0
 11 16  2  0  0  0  0
 11 12  1  0  0  0  0
 12 13  2  0  0  0  0
 12 33  1  0  0  0  0
 13 14  1  0  0  0  0
 14 15  1  0  0  0  0
 14 16  1  0  0  0  0
 15 34  1  0  0  0  0
 15 35  1  0  0  0  0
 15 36  1  0  0  0  0
 16 37  1  0  0  0  0
 17 18  1  0  0  0  0
 17 38  1  0  0  0  0
 17 39  1  0  0  0  0
 18 19  1  0  0  0  0
 18 40  1  0  0  0  0
 18 41  1  0  0  0  0
M  END
> <s_m_source_file>
AV-unprocessed.smi

> <i_m_source_file_index>
1101

> <i_lp_mmshare_version>
43012

> <i_f3d_flags>
0

> <s_epik_input>
W0NIM11bQ0gyXVtDQEBIXTFbQ0gyXU4oW0NIMl1bQ0gyXU8xKUMoPU8pW05IXVtDSDJdW0NIMl1jMltjSF1ubihbQ0gzXSlbY0hdMg==

> <s_epik_cmdline>
J2VwaWtfcHl0aG9uJywgJy1waCcsICc3LjAnLCAnLXRuJywgJzgnLCAnLW1hJywgJzIwMCcsICctbWV0YWxfYmluZGluZycsICctaW1hZScsICc8aW5maWxlLm1hZT4nLCAnLW9tYWUnLCAnPG91dGZpbGUubWFlPic=

> <r_lp_tautomer_probability>
1

> <r_epik_Ionization_Penalty>
0.000536373

> <r_epik_Ionization_Penalty_Charging>
0

> <r_epik_Ionization_Penalty_Neutral>
0.000536373

> <r_epik_State_Penalty>
-0

> <r_epik_Charging_Adjusted_Penalty>
0

> <i_epik_Tot_Q>
0

> <i_epik_Tot_abs_Q>
0

> <r_epik_Metal_State_Penalty>
-0

> <b_epik_Metal_Only>
0

> <s_lp_Force_Field>
OPLS_2005

> <r_lp_Energy>
24.031

> <b_lp_Chiralities_Consistent>
1

> <s_lp_Variant>
AV-unprocessed.smi:1101-2

> <Gold.Version>
5.8.1

> <Gold.Id.Protein>
6NUR|6NUR_protein|mol2

> <Gold.PLP.Fitness>
41.7664

> <Gold.PLP.PLP>
-40.6204

> <Gold.PLP.part.hbond>
-2.4454

> <Gold.PLP.part.metal>
0.0000

> <Gold.PLP.part.buried>
-7.3130

> <Gold.PLP.part.nonpolar>
-31.7727

> <Gold.PLP.part.repulsive>
0.4722

> <Gold.PLP.ligand.clash>
0.0000

> <Gold.PLP.ligand.torsion>
0.9511

> <Gold.PLP.Chemscore.Hbond>
1.0000

> <Gold.PLP.Chemscore.CHOScore>
0.0000

> <Gold.PLP.Chemscore.Metal>
0.0000

> <Gold.Chemscore.Hbonds>
donor molecule, donor type, donor heavy atom, donor atom, acceptor molecule, acceptor atom, score
      L1  H     8    28       P1  8028  0.54
      L1  C    12    33       P1 10174  0.01

> <Gold.PLP.Chemscore.Internal.Correction>
0.0481

> <Gold.Rescore>
     Score         DG    S(hbond)    S(metal)    S(lipo)     H(rot)  DE(clash)    DE(int)     intcor
     12.42     -14.61       0.93        0.00      84.39       1.51       1.52       0.67       ----

> <Gold.Chemscore.Fitness>
12.4229

> <Gold.Chemscore.DG>
-14.6139

> <Gold.Chemscore.ZeroCoef>
-5.4800

> <Gold.Chemscore.Hbond>
0.9330

> <Gold.Chemscore.Metal>
0.0000

> <Gold.Chemscore.Lipo>
84.3889

> <Gold.Chemscore.Internal_Hbond>
0.0000

> <Gold.Chemscore.DEClash>
1.5168

> <Gold.Chemscore.DEInternal>
0.6742

> <Gold.Chemscore.Rot>
1.5062

> <Gold.Chemscore.Internal.Correction>
   9.000000E+99

> <Gold.Chemscore.Hbonds>
donor molecule, donor type, donor heavy atom, donor atom, acceptor molecule, acceptor atom, score
      L1  H     8    28       P1  8028  0.54

> <Gold.Chemscore.Hbond.Weighted>
-3.1162

> <Gold.Chemscore.Metal.Weighted>
-0.0000

> <Gold.Chemscore.Lipo.Weighted>
-9.8735

> <Gold.Chemscore.Internal_Hbond.Weighted>
0.0000

> <Gold.Chemscore.DEClash.Weighted>
1.5168

> <Gold.Chemscore.DEInternal.Weighted>
0.6742

> <Gold.Chemscore.Rot.Weighted>
3.8558

> <Gold.Chemscore.Internal.Correction.Weighted>
   9.000000E+99

> <Gold.Protein.RotatedTorsions>
[ 6907 6896 6895 6894 ] final    9.18 input  -60.11 | X-H torsion
[ 7974 7965 7964 7962 ] final   67.91 input  175.53 | X-H torsion
[ 8008 7997 7996 7995 ] final -169.66 input   59.86 | X-H torsion
[ 10167 10162 10161 10158 ] final   73.64 input  -65.29 | X-H torsion
[ 10718 10713 10712 10709 ] final  169.43 input   66.30 | X-H torsion
[ 10763 10752 10751 10750 ] final  -52.29 input  -60.55 | X-H torsion
[ 11005 11000 10999 10996 ] final    6.78 input  -57.11 | X-H torsion

> <Gold.Protein.ActiveResidues>
 VAL166  LYS551  ARG553  GLY616  TRP617  ASP618  TYR619  PRO620  LYS621  CYS622 
 ASP623  PHE694  ASN695  SER759  ASP760  ASP761  ALA762  ILE779  LEU786  VAL792 
 PHE793  MET794  SER795  GLU796  ALA797  LYS798  CYS799  TRP800  GLU811  SER814 

> <Gold.Protein.RotatedAtoms>
  151.7180  135.0900  160.0279 H   0  0  0  0  0  0  0  0  0  0  0  0  # atno 6907 bound_to 6896
  152.3619  133.6304  159.6030 H   0  0  0  0  0  0  0  0  0  0  0  0  # atno 6908 bound_to 6896
  150.7611  133.9325  159.3473 H   0  0  0  0  0  0  0  0  0  0  0  0  # atno 6909 bound_to 6896
  145.8090  139.3022  143.1110 H   0  0  0  0  0  0  0  0  0  0  0  0  # atno 7974 bound_to 7965
  155.9079  140.1052  157.1301 H   0  0  0  0  0  0  0  0  0  0  0  0  # atno 8008 bound_to 7997
  154.4035  140.1280  156.4584 H   0  0  0  0  0  0  0  0  0  0  0  0  # atno 8009 bound_to 7997
  155.7345  140.3468  155.5077 H   0  0  0  0  0  0  0  0  0  0  0  0  # atno 8010 bound_to 7997
  140.0223  144.5531  150.7572 H   0  0  0  0  0  0  0  0  0  0  0  0  # atno 10167 bound_to 10162
  157.0228  131.0237  151.2769 H   0  0  0  0  0  0  0  0  0  0  0  0  # atno 10718 bound_to 10713
  154.1403  135.6506  153.4941 H   0  0  0  0  0  0  0  0  0  0  0  0  # atno 10763 bound_to 10752
  153.0168  135.5314  154.6911 H   0  0  0  0  0  0  0  0  0  0  0  0  # atno 10764 bound_to 10752
  154.6171  135.2960  155.0339 H   0  0  0  0  0  0  0  0  0  0  0  0  # atno 10765 bound_to 10752
  140.5556  134.0241  155.7953 H   0  0  0  0  0  0  0  0  0  0  0  0  # atno 11005 bound_to 11000
  145.9797  140.8692  143.0120 LP  0  0  0  0  0  0  0  0  0  0  0  0  # atno 17320 bound_to 7965
  144.6759  140.2063  143.7382 LP  0  0  0  0  0  0  0  0  0  0  0  0  # atno 17321 bound_to 7965
  140.7337  143.2720  151.3858 LP  0  0  0  0  0  0  0  0  0  0  0  0  # atno 17342 bound_to 10162
  139.6131  144.1057  152.2319 LP  0  0  0  0  0  0  0  0  0  0  0  0  # atno 17343 bound_to 10162
  157.5237  130.8014  149.7838 LP  0  0  0  0  0  0  0  0  0  0  0  0  # atno 17370 bound_to 10713
  156.0096  130.3839  150.2309 LP  0  0  0  0  0  0  0  0  0  0  0  0  # atno 17371 bound_to 10713
  141.1145  133.9562  157.2848 LP  0  0  0  0  0  0  0  0  0  0  0  0  # atno 17394 bound_to 11000
  139.9433  135.0188  156.8775 LP  0  0  0  0  0  0  0  0  0  0  0  0  # atno 17395 bound_to 11000

$$$$
