AV-unprocessed.smi:214|AV-procd|sdf|1649|dock2
  -GOLD-   2262020 33D 1   1.00000     0.00000
 Structure written by MMmdl.
 47 50  0  0  0  0  0  0  0  0  1 V2000
  151.2538  140.0743  155.4868 C   0  0  0  0  0  0  0  0  0  0  0  0
  150.2968  140.9339  156.1756 N   0  0  0  0  0  0  0  0  0  0  0  0
  150.2178  140.8817  157.6396 C   0  0  0  0  0  0  0  0  0  0  0  0
  151.4290  141.5287  158.3228 C   0  0  0  0  0  0  0  0  0  0  0  0
  152.5034  140.9315  158.4069 O   0  0  0  0  0  0  0  0  0  0  0  0
  151.2378  142.7695  158.7941 N   0  0  0  0  0  0  0  0  0  0  0  0
  152.2199  143.5645  159.4582 C   0  0  0  0  0  0  0  0  0  0  0  0
  151.7787  144.8976  160.0229 C   0  0  0  0  0  0  0  0  0  0  0  0
  152.6461  144.8565  158.7953 C   0  0  0  0  0  0  0  0  0  0  0  0
  149.1493  141.1300  155.4856 C   0  0  0  0  0  0  0  0  0  0  0  0
  149.0858  140.6226  154.2289 N   0  0  0  0  0  0  0  0  0  0  0  0
  147.9819  140.7850  153.4943 C   0  0  0  0  0  0  0  0  0  0  0  0
  146.8449  141.4013  153.8222 N   0  0  0  0  0  0  0  0  0  0  0  0
  146.8944  141.8934  155.0928 C   0  0  0  0  0  0  0  0  0  0  0  0
  147.9990  141.8050  155.9873 C   0  0  0  0  0  0  0  0  0  0  0  0
  147.6768  142.4133  157.1953 N   0  0  0  0  0  0  0  0  0  0  0  0
  146.4582  142.8459  157.0202 C   0  0  0  0  0  0  0  0  0  0  0  0
  145.9073  142.5693  155.7891 N   0  0  0  0  0  0  0  0  0  0  0  0
  144.5733  142.9342  155.3355 C   0  0  0  0  0  0  0  0  0  0  0  0
  143.4266  142.2878  156.1416 C   0  0  0  0  0  0  0  0  0  0  0  0
  143.7135  140.8002  156.4125 C   0  0  0  0  0  0  0  0  0  0  0  0
  143.6457  140.0359  155.2254 O   0  0  0  0  0  0  0  0  0  0  0  0
  142.9428  143.0812  157.3634 C   0  0  0  0  0  0  0  0  0  0  0  0
  141.5636  142.9811  156.9509 O   0  0  0  0  0  0  0  0  0  0  0  0
  142.0041  142.5748  155.6385 C   0  0  0  0  0  0  0  0  0  0  0  0
  151.6044  140.5417  154.5661 H   0  0  0  0  0  0  0  0  0  0  0  0
  150.8011  139.1138  155.2354 H   0  0  0  0  0  0  0  0  0  0  0  0
  152.1276  139.8797  156.1094 H   0  0  0  0  0  0  0  0  0  0  0  0
  149.3324  141.4059  158.0028 H   0  0  0  0  0  0  0  0  0  0  0  0
  150.1289  139.8420  157.9590 H   0  0  0  0  0  0  0  0  0  0  0  0
  150.3247  143.1834  158.6750 H   0  0  0  0  0  0  0  0  0  0  0  0
  152.9892  143.0405  160.0236 H   0  0  0  0  0  0  0  0  0  0  0  0
  150.7382  145.1890  159.8917 H   0  0  0  0  0  0  0  0  0  0  0  0
  152.2393  145.2243  160.9531 H   0  0  0  0  0  0  0  0  0  0  0  0
  153.6864  145.1560  158.9049 H   0  0  0  0  0  0  0  0  0  0  0  0
  152.1842  145.1186  157.8452 H   0  0  0  0  0  0  0  0  0  0  0  0
  148.0144  140.3603  152.5017 H   0  0  0  0  0  0  0  0  0  0  0  0
  145.9199  143.3750  157.7932 H   0  0  0  0  0  0  0  0  0  0  0  0
  144.4910  144.0212  155.3658 H   0  0  0  0  0  0  0  0  0  0  0  0
  144.4974  142.6678  154.2805 H   0  0  0  0  0  0  0  0  0  0  0  0
  144.7125  140.6743  156.8316 H   0  0  0  0  0  0  0  0  0  0  0  0
  143.0258  140.3833  157.1487 H   0  0  0  0  0  0  0  0  0  0  0  0
  143.6773  140.6252  154.4871 H   0  0  0  0  0  0  0  0  0  0  0  0
  143.1330  142.5914  158.3190 H   0  0  0  0  0  0  0  0  0  0  0  0
  143.2850  144.1173  157.3824 H   0  0  0  0  0  0  0  0  0  0  0  0
  141.9372  143.3980  154.9257 H   0  0  0  0  0  0  0  0  0  0  0  0
  141.4764  141.6953  155.2681 H   0  0  0  0  0  0  0  0  0  0  0  0
  1  2  1  0  0  0  0
  1 26  1  0  0  0  0
  1 27  1  0  0  0  0
  1 28  1  0  0  0  0
  2  3  1  0  0  0  0
  2 10  1  0  0  0  0
  3  4  1  0  0  0  0
  3 29  1  0  0  0  0
  3 30  1  0  0  0  0
  4  5  2  0  0  0  0
  4  6  1  0  0  0  0
  6  7  1  0  0  0  0
  6 31  1  0  0  0  0
  7  9  1  0  0  0  0
  7  8  1  0  0  0  0
  7 32  1  0  0  0  0
  8  9  1  0  0  0  0
  8 33  1  0  0  0  0
  8 34  1  0  0  0  0
  9 35  1  0  0  0  0
  9 36  1  0  0  0  0
 10 15  1  0  0  0  0
 10 11  2  0  0  0  0
 11 12  1  0  0  0  0
 12 13  2  0  0  0  0
 12 37  1  0  0  0  0
 13 14  1  0  0  0  0
 14 18  1  0  0  0  0
 14 15  2  0  0  0  0
 15 16  1  0  0  0  0
 16 17  2  0  0  0  0
 17 18  1  0  0  0  0
 17 38  1  0  0  0  0
 18 19  1  0  0  0  0
 19 20  1  0  0  0  0
 19 39  1  0  0  0  0
 19 40  1  0  0  0  0
 20 25  1  0  0  0  0
 20 21  1  0  0  0  0
 20 23  1  0  0  0  0
 21 22  1  0  0  0  0
 21 41  1  0  0  0  0
 21 42  1  0  0  0  0
 22 43  1  0  0  0  0
 23 24  1  0  0  0  0
 23 44  1  0  0  0  0
 23 45  1  0  0  0  0
 24 25  1  0  0  0  0
 25 46  1  0  0  0  0
 25 47  1  0  0  0  0
M  END
> <s_m_source_file>
AV-unprocessed.smi

> <i_m_source_file_index>
214

> <i_lp_mmshare_version>
43012

> <i_f3d_flags>
0

> <s_epik_input>
W0NIMl0xW0NIMl1bQ0hdMVtOSF1DKD1PKVtDSDJdTihbQ0gzXSljKG5bY0hdbjIpYyhjMjMpbltjSF1uM1tDSDJdQzQoW0NIMl1bT0hdKVtDSDJdT1tDSDJdNA==

> <s_epik_cmdline>
J2VwaWtfcHl0aG9uJywgJy1waCcsICc3LjAnLCAnLXRuJywgJzgnLCAnLW1hJywgJzIwMCcsICctbWV0YWxfYmluZGluZycsICctaW1hZScsICc8aW5maWxlLm1hZT4nLCAnLW9tYWUnLCAnPG91dGZpbGUubWFlPic=

> <r_lp_tautomer_probability>
1

> <r_epik_Ionization_Penalty>
0.000508869

> <r_epik_Ionization_Penalty_Charging>
0

> <r_epik_Ionization_Penalty_Neutral>
0.000508869

> <r_epik_State_Penalty>
0.000243319

> <r_epik_Charging_Adjusted_Penalty>
0.000243319

> <i_epik_Tot_Q>
0

> <i_epik_Tot_abs_Q>
0

> <r_epik_Metal_State_Penalty>
-0

> <b_epik_Metal_Only>
0

> <s_lp_Force_Field>
OPLS_2005

> <r_lp_Energy>
39.3286

> <b_lp_Chiralities_Consistent>
1

> <s_lp_Variant>
AV-unprocessed.smi:214-1

> <Gold.Version>
5.8.1

> <Gold.Id.Protein>
6NUR|6NUR_protein|mol2

> <Gold.PLP.Fitness>
39.5175

> <Gold.PLP.PLP>
-34.6780

> <Gold.PLP.part.hbond>
-1.0000

> <Gold.PLP.part.metal>
0.0000

> <Gold.PLP.part.buried>
-3.4427

> <Gold.PLP.part.nonpolar>
-31.0061

> <Gold.PLP.part.repulsive>
1.0992

> <Gold.PLP.ligand.clash>
0.0000

> <Gold.PLP.ligand.torsion>
1.0806

> <Gold.PLP.Chemscore.Hbond>
0.9760

> <Gold.PLP.Chemscore.CHOScore>
1.0000

> <Gold.PLP.Chemscore.Metal>
0.0000

> <Gold.Chemscore.Hbonds>
donor molecule, donor type, donor heavy atom, donor atom, acceptor molecule, acceptor atom, score
      L1  H    22    43       P1 10175  0.75
      L1  C    12    37       P1  7957  1.00

> <Gold.PLP.Chemscore.Internal.Correction>
1.0727

> <Gold.Rescore>
     Score         DG    S(hbond)    S(metal)    S(lipo)     H(rot)  DE(clash)    DE(int)     intcor
      4.19      -7.33       0.95        0.00      60.95       3.31       1.03       2.11       ----

> <Gold.Chemscore.Fitness>
4.1875

> <Gold.Chemscore.DG>
-7.3330

> <Gold.Chemscore.ZeroCoef>
-5.4800

> <Gold.Chemscore.Hbond>
0.9530

> <Gold.Chemscore.Metal>
0.0000

> <Gold.Chemscore.Lipo>
60.9519

> <Gold.Chemscore.Internal_Hbond>
0.0000

> <Gold.Chemscore.DEClash>
1.0333

> <Gold.Chemscore.DEInternal>
2.1122

> <Gold.Chemscore.Rot>
3.3052

> <Gold.Chemscore.Internal.Correction>
   9.000000E+99

> <Gold.Chemscore.Hbonds>
donor molecule, donor type, donor heavy atom, donor atom, acceptor molecule, acceptor atom, score
      L1  H    22    43       P1 10175  0.73

> <Gold.Chemscore.Hbond.Weighted>
-3.1830

> <Gold.Chemscore.Metal.Weighted>
-0.0000

> <Gold.Chemscore.Lipo.Weighted>
-7.1314

> <Gold.Chemscore.Internal_Hbond.Weighted>
0.0000

> <Gold.Chemscore.DEClash.Weighted>
1.0333

> <Gold.Chemscore.DEInternal.Weighted>
2.1122

> <Gold.Chemscore.Rot.Weighted>
8.4614

> <Gold.Chemscore.Internal.Correction.Weighted>
   9.000000E+99

> <Gold.Protein.RotatedTorsions>
[ 6907 6896 6895 6894 ] final  146.79 input  -60.11 | X-H torsion
[ 7974 7965 7964 7962 ] final  -77.12 input  175.53 | X-H torsion
[ 8008 7997 7996 7995 ] final  -83.40 input   59.86 | X-H torsion
[ 10167 10162 10161 10158 ] final -168.76 input  -65.29 | X-H torsion
[ 10718 10713 10712 10709 ] final  111.01 input   66.30 | X-H torsion
[ 10763 10752 10751 10750 ] final  -10.91 input  -60.55 | X-H torsion
[ 11005 11000 10999 10996 ] final   12.32 input  -57.11 | X-H torsion

> <Gold.Protein.ActiveResidues>
 VAL166  LYS551  ARG553  GLY616  TRP617  ASP618  TYR619  PRO620  LYS621  CYS622 
 ASP623  PHE694  ASN695  SER759  ASP760  ASP761  ALA762  ILE779  LEU786  VAL792 
 PHE793  MET794  SER795  GLU796  ALA797  LYS798  CYS799  TRP800  GLU811  SER814 

> <Gold.Protein.RotatedAtoms>
  152.1633  133.4596  159.4871 H   0  0  0  0  0  0  0  0  0  0  0  0  # atno 6907 bound_to 6896
  150.6909  134.2044  159.4344 H   0  0  0  0  0  0  0  0  0  0  0  0  # atno 6908 bound_to 6896
  151.9948  134.9960  160.0613 H   0  0  0  0  0  0  0  0  0  0  0  0  # atno 6909 bound_to 6896
  145.6038  140.9402  143.1226 H   0  0  0  0  0  0  0  0  0  0  0  0  # atno 7974 bound_to 7965
  154.6187  140.0619  156.9587 H   0  0  0  0  0  0  0  0  0  0  0  0  # atno 8008 bound_to 7997
  155.1854  140.3302  155.4349 H   0  0  0  0  0  0  0  0  0  0  0  0  # atno 8009 bound_to 7997
  156.2419  140.1890  156.6947 H   0  0  0  0  0  0  0  0  0  0  0  0  # atno 8010 bound_to 7997
  139.5965  144.1102  152.1695 H   0  0  0  0  0  0  0  0  0  0  0  0  # atno 10167 bound_to 10162
  157.6466  131.0943  150.6686 H   0  0  0  0  0  0  0  0  0  0  0  0  # atno 10718 bound_to 10713
  153.4760  135.7017  153.5965 H   0  0  0  0  0  0  0  0  0  0  0  0  # atno 10763 bound_to 10752
  153.4199  135.3828  155.2104 H   0  0  0  0  0  0  0  0  0  0  0  0  # atno 10764 bound_to 10752
  154.8723  135.3925  154.4204 H   0  0  0  0  0  0  0  0  0  0  0  0  # atno 10765 bound_to 10752
  140.4933  134.0819  155.7776 H   0  0  0  0  0  0  0  0  0  0  0  0  # atno 11005 bound_to 11000
  144.7298  139.7760  143.7351 LP  0  0  0  0  0  0  0  0  0  0  0  0  # atno 17320 bound_to 7965
  146.1556  139.4653  143.0021 LP  0  0  0  0  0  0  0  0  0  0  0  0  # atno 17321 bound_to 7965
  140.0688  144.5796  150.7207 LP  0  0  0  0  0  0  0  0  0  0  0  0  # atno 17342 bound_to 10162
  140.7216  143.2594  151.4260 LP  0  0  0  0  0  0  0  0  0  0  0  0  # atno 17343 bound_to 10162
  156.7003  130.4621  149.5575 LP  0  0  0  0  0  0  0  0  0  0  0  0  # atno 17370 bound_to 10713
  156.1800  130.6493  151.0940 LP  0  0  0  0  0  0  0  0  0  0  0  0  # atno 17371 bound_to 10713
  141.1473  133.9032  157.2184 LP  0  0  0  0  0  0  0  0  0  0  0  0  # atno 17394 bound_to 11000
  139.9756  135.0115  156.9623 LP  0  0  0  0  0  0  0  0  0  0  0  0  # atno 17395 bound_to 11000

$$$$
