AV-unprocessed.smi:304|AV-procd|sdf|2276|dock10
  -GOLD-   2262022173D 1   1.00000     0.00000
 Structure written by MMmdl.
 36 38  0  0  0  0  0  0  0  0  1 V2000
  151.3568  141.2282  156.1492 O   0  0  0  0  0  0  0  0  0  0  0  0
  151.0327  141.8110  157.3966 C   0  0  2  0  0  0  0  0  0  0  0  0
  149.5374  141.5810  157.6648 C   0  0  0  0  0  0  0  0  0  0  0  0
  149.2056  140.2479  157.3147 O   0  0  0  0  0  0  0  0  0  0  0  0
  147.8373  140.0949  156.9737 C   0  0  0  0  0  0  0  0  0  0  0  0
  147.5968  140.8519  155.7070 C   0  0  0  0  0  0  0  0  0  0  0  0
  146.7516  141.9178  155.5306 C   0  0  0  0  0  0  0  0  0  0  0  0
  146.7602  142.4301  154.1999 C   0  0  0  0  0  0  0  0  0  0  0  0
  147.6206  141.7545  153.3765 C   0  0  0  0  0  0  0  0  0  0  0  0
  148.4407  140.4718  154.2233 S   0  0  0  0  0  0  0  0  0  0  0  0
  151.3851  143.3108  157.3593 C   0  0  0  0  0  0  0  0  0  0  0  0
  151.5519  143.8787  158.6857 N   0  0  0  0  0  0  0  0  0  0  0  0
  151.0388  145.0381  159.1395 C   0  0  0  0  0  0  0  0  0  0  0  0
  151.3166  145.3776  160.3951 N   0  0  0  0  0  0  0  0  0  0  0  0
  152.1009  144.3131  160.8052 C   0  0  0  0  0  0  0  0  0  0  0  0
  152.7241  144.0588  162.0478 C   0  0  0  0  0  0  0  0  0  0  0  0
  153.4870  142.8880  162.2386 C   0  0  0  0  0  0  0  0  0  0  0  0
  154.0776  142.6599  163.4358 F   0  0  0  0  0  0  0  0  0  0  0  0
  153.6375  141.9546  161.1915 C   0  0  0  0  0  0  0  0  0  0  0  0
  154.3704  140.8323  161.3838 F   0  0  0  0  0  0  0  0  0  0  0  0
  153.0263  142.1868  159.9446 C   0  0  0  0  0  0  0  0  0  0  0  0
  152.2674  143.3569  159.7582 C   0  0  0  0  0  0  0  0  0  0  0  0
  152.2516  141.4502  155.9405 H   0  0  0  0  0  0  0  0  0  0  0  0
  151.6231  141.3280  158.1768 H   0  0  0  0  0  0  0  0  0  0  0  0
  149.3305  141.7152  158.7278 H   0  0  0  0  0  0  0  0  0  0  0  0
  148.9225  142.3019  157.1228 H   0  0  0  0  0  0  0  0  0  0  0  0
  147.5942  139.0401  156.8358 H   0  0  0  0  0  0  0  0  0  0  0  0
  147.2010  140.4858  157.7688 H   0  0  0  0  0  0  0  0  0  0  0  0
  146.1299  142.3428  156.3046 H   0  0  0  0  0  0  0  0  0  0  0  0
  146.1454  143.2655  153.8985 H   0  0  0  0  0  0  0  0  0  0  0  0
  147.8239  141.9319  152.3308 H   0  0  0  0  0  0  0  0  0  0  0  0
  152.3005  143.4752  156.7896 H   0  0  0  0  0  0  0  0  0  0  0  0
  150.5985  143.8689  156.8496 H   0  0  0  0  0  0  0  0  0  0  0  0
  150.4259  145.6685  158.5116 H   0  0  0  0  0  0  0  0  0  0  0  0
  152.6149  144.7657  162.8567 H   0  0  0  0  0  0  0  0  0  0  0  0
  153.1373  141.4726  159.1423 H   0  0  0  0  0  0  0  0  0  0  0  0
  1  2  1  0  0  0  0
  1 23  1  0  0  0  0
  2  3  1  0  0  0  0
  2 11  1  0  0  0  0
  2 24  1  0  0  0  0
  3  4  1  0  0  0  0
  3 25  1  0  0  0  0
  3 26  1  0  0  0  0
  4  5  1  0  0  0  0
  5  6  1  0  0  0  0
  5 27  1  0  0  0  0
  5 28  1  0  0  0  0
  6 10  1  0  0  0  0
  6  7  2  0  0  0  0
  7  8  1  0  0  0  0
  7 29  1  0  0  0  0
  8  9  2  0  0  0  0
  8 30  1  0  0  0  0
  9 10  1  0  0  0  0
  9 31  1  0  0  0  0
 11 12  1  0  0  0  0
 11 32  1  0  0  0  0
 11 33  1  0  0  0  0
 12 22  1  0  0  0  0
 12 13  1  0  0  0  0
 13 14  2  0  0  0  0
 13 34  1  0  0  0  0
 14 15  1  0  0  0  0
 15 22  2  0  0  0  0
 15 16  1  0  0  0  0
 16 17  2  0  0  0  0
 16 35  1  0  0  0  0
 17 18  1  0  0  0  0
 17 19  1  0  0  0  0
 19 20  1  0  0  0  0
 19 21  2  0  0  0  0
 21 22  1  0  0  0  0
 21 36  1  0  0  0  0
M  END
> <s_m_source_file>
AV-unprocessed.smi

> <i_m_source_file_index>
304

> <i_lp_mmshare_version>
43012

> <i_f3d_flags>
0

> <s_epik_input>
W2NIXTFjKEYpYyhGKVtjSF1jKGMxMiluKFtjSF1uMilbQ0gyXVtDQEhdKFtPSF0pW0NIMl1PW0NIMl1jM1tjSF1bY0hdW2NIXXMz

> <s_epik_cmdline>
J2VwaWtfcHl0aG9uJywgJy1waCcsICc3LjAnLCAnLXRuJywgJzgnLCAnLW1hJywgJzIwMCcsICctbWV0YWxfYmluZGluZycsICctaW1hZScsICc8aW5maWxlLm1hZT4nLCAnLW9tYWUnLCAnPG91dGZpbGUubWFlPic=

> <r_epik_Ionization_Penalty>
0.0152118

> <r_epik_Ionization_Penalty_Charging>
0

> <r_epik_Ionization_Penalty_Neutral>
0.0152118

> <r_epik_State_Penalty>
0.0119413

> <r_epik_Charging_Adjusted_Penalty>
0.0119413

> <i_epik_Tot_Q>
0

> <i_epik_Tot_abs_Q>
0

> <r_epik_Metal_State_Penalty>
1.20623e-05

> <b_epik_Metal_Only>
0

> <s_lp_Force_Field>
OPLS_2005

> <r_lp_Energy>
8.33782

> <b_lp_Chiralities_Consistent>
1

> <s_lp_Variant>
AV-unprocessed.smi:304-1

> <Gold.Version>
5.8.1

> <Gold.Id.Protein>
6NUR|6NUR_protein|mol2

> <Gold.PLP.Fitness>
55.3546

> <Gold.PLP.PLP>
-51.9793

> <Gold.PLP.part.hbond>
0.0000

> <Gold.PLP.part.metal>
0.0000

> <Gold.PLP.part.buried>
-7.6592

> <Gold.PLP.part.nonpolar>
-44.1602

> <Gold.PLP.part.repulsive>
0.2147

> <Gold.PLP.ligand.clash>
0.0000

> <Gold.PLP.ligand.torsion>
0.6628

> <Gold.PLP.Chemscore.Hbond>
0.0000

> <Gold.PLP.Chemscore.CHOScore>
1.5450

> <Gold.PLP.Chemscore.Metal>
0.0000

> <Gold.Chemscore.Hbonds>
donor molecule, donor type, donor heavy atom, donor atom, acceptor molecule, acceptor atom, score
      L1  C     9    31       P1  7957  0.19
      L1  C    13    34       P1  8029  0.31

> <Gold.PLP.Chemscore.Internal.Correction>
0.0658

> <Gold.Rescore>
     Score         DG    S(hbond)    S(metal)    S(lipo)     H(rot)  DE(clash)    DE(int)     intcor
     10.98     -11.81       0.00        0.00     111.91       2.64       0.07       0.77       ----

> <Gold.Chemscore.Fitness>
10.9754

> <Gold.Chemscore.DG>
-11.8145

> <Gold.Chemscore.ZeroCoef>
-5.4800

> <Gold.Chemscore.Hbond>
0.0000

> <Gold.Chemscore.Metal>
0.0000

> <Gold.Chemscore.Lipo>
111.9113

> <Gold.Chemscore.Internal_Hbond>
0.0000

> <Gold.Chemscore.DEClash>
0.0656

> <Gold.Chemscore.DEInternal>
0.7734

> <Gold.Chemscore.Rot>
2.6403

> <Gold.Chemscore.Internal.Correction>
   9.000000E+99

> <Gold.Chemscore.Hbond.Weighted>
-0.0000

> <Gold.Chemscore.Metal.Weighted>
-0.0000

> <Gold.Chemscore.Lipo.Weighted>
-13.0936

> <Gold.Chemscore.Internal_Hbond.Weighted>
0.0000

> <Gold.Chemscore.DEClash.Weighted>
0.0656

> <Gold.Chemscore.DEInternal.Weighted>
0.7734

> <Gold.Chemscore.Rot.Weighted>
6.7592

> <Gold.Chemscore.Internal.Correction.Weighted>
   9.000000E+99

> <Gold.Protein.RotatedTorsions>
[ 6907 6896 6895 6894 ] final   97.76 input  -60.11 | X-H torsion
[ 7974 7965 7964 7962 ] final -129.09 input  175.53 | X-H torsion
[ 8008 7997 7996 7995 ] final   35.33 input   59.86 | X-H torsion
[ 10167 10162 10161 10158 ] final  -81.98 input  -65.29 | X-H torsion
[ 10718 10713 10712 10709 ] final  -69.37 input   66.30 | X-H torsion
[ 10763 10752 10751 10750 ] final  -56.59 input  -60.55 | X-H torsion
[ 11005 11000 10999 10996 ] final   29.88 input  -57.11 | X-H torsion

> <Gold.Protein.ActiveResidues>
 VAL166  LYS551  ARG553  GLY616  TRP617  ASP618  TYR619  PRO620  LYS621  CYS622 
 ASP623  PHE694  ASN695  SER759  ASP760  ASP761  ALA762  ILE779  LEU786  VAL792 
 PHE793  MET794  SER795  GLU796  ALA797  LYS798  CYS799  TRP800  GLU811  SER814 

> <Gold.Protein.RotatedAtoms>
  152.5419  134.0685  159.8183 H   0  0  0  0  0  0  0  0  0  0  0  0  # atno 6907 bound_to 6896
  151.0802  133.5388  159.2628 H   0  0  0  0  0  0  0  0  0  0  0  0  # atno 6908 bound_to 6896
  151.2218  135.0530  159.9007 H   0  0  0  0  0  0  0  0  0  0  0  0  # atno 6909 bound_to 6896
  144.9606  140.7442  143.4731 H   0  0  0  0  0  0  0  0  0  0  0  0  # atno 7974 bound_to 7965
  155.1694  140.3290  155.4395 H   0  0  0  0  0  0  0  0  0  0  0  0  # atno 8008 bound_to 7997
  156.2515  140.1946  156.6748 H   0  0  0  0  0  0  0  0  0  0  0  0  # atno 8009 bound_to 7997
  154.6348  140.0578  156.9762 H   0  0  0  0  0  0  0  0  0  0  0  0  # atno 8010 bound_to 7997
  140.4362  143.2531  151.8691 H   0  0  0  0  0  0  0  0  0  0  0  0  # atno 10167 bound_to 10162
  156.0459  130.4311  150.2137 H   0  0  0  0  0  0  0  0  0  0  0  0  # atno 10718 bound_to 10713
  154.2091  135.6397  153.5110 H   0  0  0  0  0  0  0  0  0  0  0  0  # atno 10763 bound_to 10752
  152.9994  135.5469  154.6234 H   0  0  0  0  0  0  0  0  0  0  0  0  # atno 10764 bound_to 10752
  154.5666  135.2913  155.0841 H   0  0  0  0  0  0  0  0  0  0  0  0  # atno 10765 bound_to 10752
  140.3003  134.2764  155.7755 H   0  0  0  0  0  0  0  0  0  0  0  0  # atno 11005 bound_to 11000
  145.2706  139.1956  143.4843 LP  0  0  0  0  0  0  0  0  0  0  0  0  # atno 17320 bound_to 7965
  146.3352  140.2652  142.8603 LP  0  0  0  0  0  0  0  0  0  0  0  0  # atno 17321 bound_to 7965
  139.4787  144.5280  151.8707 LP  0  0  0  0  0  0  0  0  0  0  0  0  # atno 17342 bound_to 10162
  140.4371  144.2036  150.5890 LP  0  0  0  0  0  0  0  0  0  0  0  0  # atno 17343 bound_to 10162
  157.0227  130.9984  151.3335 LP  0  0  0  0  0  0  0  0  0  0  0  0  # atno 17370 bound_to 10713
  157.5333  130.8072  149.7942 LP  0  0  0  0  0  0  0  0  0  0  0  0  # atno 17371 bound_to 10713
  141.2129  133.7642  156.9757 LP  0  0  0  0  0  0  0  0  0  0  0  0  # atno 17394 bound_to 11000
  140.1115  134.9474  157.2072 LP  0  0  0  0  0  0  0  0  0  0  0  0  # atno 17395 bound_to 11000

$$$$
