AV-unprocessed.smi:117|AV-procd|sdf|1130|dock1
  -GOLD-   2262018253D 1   1.00000     0.00000
 Structure written by MMmdl.
 53 55  0  0  0  0  0  0  0  0  1 V2000
  150.9103  144.3332  159.4659 C   0  0  0  0  0  0  0  0  0  0  0  0
  151.7515  143.0699  159.5317 C   0  0  0  0  0  0  0  0  0  0  0  0
  152.8557  143.0338  160.4075 C   0  0  0  0  0  0  0  0  0  0  0  0
  153.6462  141.8769  160.5064 C   0  0  0  0  0  0  0  0  0  0  0  0
  153.3380  140.7485  159.7283 C   0  0  0  0  0  0  0  0  0  0  0  0
  152.2428  140.7710  158.8335 C   0  0  0  0  0  0  0  0  0  0  0  0
  151.8910  139.6114  158.0930 N   0  0  0  0  0  0  0  0  0  0  0  0
  152.7090  138.7112  157.5129 C   0  0  0  0  0  0  0  0  0  0  0  0
  153.9356  138.8084  157.5052 O   0  0  0  0  0  0  0  0  0  0  0  0
  152.0588  137.5033  156.8171 C   0  0  0  0  0  0  0  0  0  0  0  0
  150.7861  137.0993  157.4127 N   0  0  0  0  0  0  0  0  0  0  0  0
  150.6008  136.6796  158.6764 C   0  0  0  0  0  0  0  0  0  0  0  0
  151.4950  136.6897  159.5209 O   0  0  0  0  0  0  0  0  0  0  0  0
  149.2200  136.1091  159.0492 C   0  0  0  0  0  0  0  0  0  0  0  0
  149.2642  134.8352  159.8069 N   0  0  0  0  0  0  0  0  0  0  0  0
  149.0985  134.8634  161.2136 C   0  0  0  0  0  0  0  0  0  0  0  0
  148.9154  135.9223  161.8150 O   0  0  0  0  0  0  0  0  0  0  0  0
  149.1522  133.5665  161.8791 C   0  0  0  0  0  0  0  0  0  0  0  0
  149.0362  133.4991  163.2162 F   0  0  0  0  0  0  0  0  0  0  0  0
  149.3120  132.4286  161.1722 C   0  0  0  0  0  0  0  0  0  0  0  0
  149.4262  132.4094  159.7960 N   0  0  0  0  0  0  0  0  0  0  0  0
  149.5919  131.0810  159.0900 C   0  0  1  0  0  0  0  0  0  0  0  0
  150.8255  131.0267  158.1773 C   0  0  0  0  0  0  0  0  0  0  0  0
  151.2405  129.5803  158.3307 C   0  0  0  0  0  0  0  0  0  0  0  0
  150.8964  129.3064  159.7906 C   0  0  0  0  0  0  0  0  0  0  0  0
  149.7115  130.0607  160.0397 O   0  0  0  0  0  0  0  0  0  0  0  0
  149.4390  133.6301  159.0834 C   0  0  0  0  0  0  0  0  0  0  0  0
  149.5869  133.6517  157.8617 O   0  0  0  0  0  0  0  0  0  0  0  0
  151.4372  141.9378  158.7368 C   0  0  0  0  0  0  0  0  0  0  0  0
  150.2456  142.0048  157.7844 C   0  0  0  0  0  0  0  0  0  0  0  0
  151.2775  145.0921  160.1571 H   0  0  0  0  0  0  0  0  0  0  0  0
  149.8748  144.1171  159.7296 H   0  0  0  0  0  0  0  0  0  0  0  0
  150.9334  144.7580  158.4622 H   0  0  0  0  0  0  0  0  0  0  0  0
  153.0981  143.8934  161.0151 H   0  0  0  0  0  0  0  0  0  0  0  0
  154.4844  141.8512  161.1869 H   0  0  0  0  0  0  0  0  0  0  0  0
  153.9424  139.8610  159.8421 H   0  0  0  0  0  0  0  0  0  0  0  0
  150.9042  139.4912  157.9148 H   0  0  0  0  0  0  0  0  0  0  0  0
  151.9382  137.7239  155.7553 H   0  0  0  0  0  0  0  0  0  0  0  0
  152.7434  136.6571  156.8812 H   0  0  0  0  0  0  0  0  0  0  0  0
  149.9924  137.0631  156.7898 H   0  0  0  0  0  0  0  0  0  0  0  0
  148.6825  136.8637  159.6265 H   0  0  0  0  0  0  0  0  0  0  0  0
  148.6377  136.0181  158.1315 H   0  0  0  0  0  0  0  0  0  0  0  0
  149.3423  131.4944  161.7142 H   0  0  0  0  0  0  0  0  0  0  0  0
  148.6680  130.9172  158.5342 H   0  0  0  0  0  0  0  0  0  0  0  0
  150.5698  131.3030  157.1542 H   0  0  0  0  0  0  0  0  0  0  0  0
  151.6122  131.6901  158.5320 H   0  0  0  0  0  0  0  0  0  0  0  0
  150.6379  128.9466  157.6789 H   0  0  0  0  0  0  0  0  0  0  0  0
  152.2916  129.4084  158.0995 H   0  0  0  0  0  0  0  0  0  0  0  0
  150.7423  128.2462  159.9914 H   0  0  0  0  0  0  0  0  0  0  0  0
  151.6962  129.6576  160.4425 H   0  0  0  0  0  0  0  0  0  0  0  0
  150.3676  142.8350  157.0885 H   0  0  0  0  0  0  0  0  0  0  0  0
  149.3240  142.1642  158.3437 H   0  0  0  0  0  0  0  0  0  0  0  0
  150.1096  141.1069  157.1832 H   0  0  0  0  0  0  0  0  0  0  0  0
  1  2  1  0  0  0  0
  1 31  1  0  0  0  0
  1 32  1  0  0  0  0
  1 33  1  0  0  0  0
  2 29  1  0  0  0  0
  2  3  2  0  0  0  0
  3  4  1  0  0  0  0
  3 34  1  0  0  0  0
  4  5  2  0  0  0  0
  4 35  1  0  0  0  0
  5  6  1  0  0  0  0
  5 36  1  0  0  0  0
  6  7  1  0  0  0  0
  6 29  2  0  0  0  0
  7  8  1  0  0  0  0
  7 37  1  0  0  0  0
  8  9  2  0  0  0  0
  8 10  1  0  0  0  0
 10 11  1  0  0  0  0
 10 38  1  0  0  0  0
 10 39  1  0  0  0  0
 11 12  1  0  0  0  0
 11 40  1  0  0  0  0
 12 13  2  0  0  0  0
 12 14  1  0  0  0  0
 14 15  1  0  0  0  0
 14 41  1  0  0  0  0
 14 42  1  0  0  0  0
 15 27  1  0  0  0  0
 15 16  1  0  0  0  0
 16 17  2  0  0  0  0
 16 18  1  0  0  0  0
 18 19  1  0  0  0  0
 18 20  2  0  0  0  0
 20 21  1  0  0  0  0
 20 43  1  0  0  0  0
 21 22  1  0  0  0  0
 21 27  1  0  0  0  0
 22 26  1  0  0  0  0
 22 23  1  0  0  0  0
 22 44  1  0  0  0  0
 23 24  1  0  0  0  0
 23 45  1  0  0  0  0
 23 46  1  0  0  0  0
 24 25  1  0  0  0  0
 24 47  1  0  0  0  0
 24 48  1  0  0  0  0
 25 26  1  0  0  0  0
 25 49  1  0  0  0  0
 25 50  1  0  0  0  0
 27 28  2  0  0  0  0
 29 30  1  0  0  0  0
 30 51  1  0  0  0  0
 30 52  1  0  0  0  0
 30 53  1  0  0  0  0
M  END
> <s_m_source_file>
AV-unprocessed.smi

> <i_m_source_file_index>
117

> <i_lp_mmshare_version>
43012

> <i_f3d_flags>
0

> <s_epik_input>
W0NIM11jMVtjSF1bY0hdW2NIXWMoYzFbQ0gzXSlbTkhdQyg9TylbQ0gyXVtOSF1DKD1PKVtDSDJdbjJjKD1PKWMoRilbY0hdbihjMj1PKVtDQEBIXTNbQ0gyXVtDSDJdW0NIMl1PMw==

> <s_epik_cmdline>
J2VwaWtfcHl0aG9uJywgJy1waCcsICc3LjAnLCAnLXRuJywgJzgnLCAnLW1hJywgJzIwMCcsICctbWV0YWxfYmluZGluZycsICctaW1hZScsICc8aW5maWxlLm1hZT4nLCAnLW9tYWUnLCAnPG91dGZpbGUubWFlPic=

> <r_lp_tautomer_probability>
1

> <r_epik_Ionization_Penalty>
1.58439e-06

> <r_epik_Ionization_Penalty_Charging>
4.14583e-09

> <r_epik_Ionization_Penalty_Neutral>
1.58025e-06

> <r_epik_State_Penalty>
-0

> <r_epik_Charging_Adjusted_Penalty>
4.14583e-09

> <i_epik_Tot_Q>
0

> <i_epik_Tot_abs_Q>
0

> <r_epik_Metal_State_Penalty>
-0

> <b_epik_Metal_Only>
0

> <s_epik_Chemistry_Notes>
This compound contains an acetal/aminal-like group ( X-CH(R)-Y where X, Y are N, S, or O) that may be acid/base labile, releasing an aldehyde.

> <s_lp_Force_Field>
OPLS_2005

> <r_lp_Energy>
23.1061

> <b_lp_Chiralities_Consistent>
1

> <s_lp_Variant>
AV-unprocessed.smi:117-2

> <Gold.Version>
5.8.1

> <Gold.Id.Protein>
6NUR|6NUR_protein|mol2

> <Gold.PLP.Fitness>
62.0142

> <Gold.PLP.PLP>
-53.1441

> <Gold.PLP.part.hbond>
-4.5306

> <Gold.PLP.part.metal>
0.0000

> <Gold.PLP.part.buried>
-5.6017

> <Gold.PLP.part.nonpolar>
-43.2137

> <Gold.PLP.part.repulsive>
0.1360

> <Gold.PLP.ligand.clash>
0.0000

> <Gold.PLP.ligand.torsion>
1.2110

> <Gold.PLP.Chemscore.Hbond>
3.6853

> <Gold.PLP.Chemscore.CHOScore>
0.0000

> <Gold.PLP.Chemscore.Metal>
0.0000

> <Gold.Chemscore.Hbonds>
donor molecule, donor type, donor heavy atom, donor atom, acceptor molecule, acceptor atom, score
      P1  H  6896  6909       L1    13  0.85
      P1  H  6931  6943       L1    17  0.29
      P1  H  7997  8009       L1     9  0.69

> <Gold.PLP.Chemscore.Internal.Correction>
0.2362

> <Gold.Rescore>
     Score         DG    S(hbond)    S(metal)    S(lipo)     H(rot)  DE(clash)    DE(int)     intcor
     19.74     -22.53       3.36        0.00     100.50       2.32       0.00       2.79       ----

> <Gold.Chemscore.Fitness>
19.7435

> <Gold.Chemscore.DG>
-22.5298

> <Gold.Chemscore.ZeroCoef>
-5.4800

> <Gold.Chemscore.Hbond>
3.3598

> <Gold.Chemscore.Metal>
0.0000

> <Gold.Chemscore.Lipo>
100.5005

> <Gold.Chemscore.Internal_Hbond>
0.0000

> <Gold.Chemscore.DEClash>
0.0004

> <Gold.Chemscore.DEInternal>
2.7859

> <Gold.Chemscore.Rot>
2.3166

> <Gold.Chemscore.Internal.Correction>
   9.000000E+99

> <Gold.Chemscore.Hbonds>
donor molecule, donor type, donor heavy atom, donor atom, acceptor molecule, acceptor atom, score
      P1  H  6896  6909       L1    13  0.14
      P1  H  6931  6943       L1    17  0.29
      P1  H  7997  8009       L1     9  0.67

> <Gold.Chemscore.Hbond.Weighted>
-11.2218

> <Gold.Chemscore.Metal.Weighted>
-0.0000

> <Gold.Chemscore.Lipo.Weighted>
-11.7586

> <Gold.Chemscore.Internal_Hbond.Weighted>
0.0000

> <Gold.Chemscore.DEClash.Weighted>
0.0004

> <Gold.Chemscore.DEInternal.Weighted>
2.7859

> <Gold.Chemscore.Rot.Weighted>
5.9306

> <Gold.Chemscore.Internal.Correction.Weighted>
   9.000000E+99

> <Gold.Protein.RotatedTorsions>
[ 6907 6896 6895 6894 ] final  108.44 input  -60.11 | X-H torsion
[ 7974 7965 7964 7962 ] final    9.75 input  175.53 | X-H torsion
[ 8008 7997 7996 7995 ] final  127.85 input   59.86 | X-H torsion
[ 10167 10162 10161 10158 ] final -171.97 input  -65.29 | X-H torsion
[ 10718 10713 10712 10709 ] final   18.13 input   66.30 | X-H torsion
[ 10763 10752 10751 10750 ] final  179.74 input  -60.55 | X-H torsion
[ 11005 11000 10999 10996 ] final  137.49 input  -57.11 | X-H torsion

> <Gold.Protein.ActiveResidues>
 VAL166  LYS551  ARG553  GLY616  TRP617  ASP618  TYR619  PRO620  LYS621  CYS622 
 ASP623  PHE694  ASN695  SER759  ASP760  ASP761  ALA762  ILE779  LEU786  VAL792 
 PHE793  MET794  SER795  GLU796  ALA797  LYS798  CYS799  TRP800  GLU811  SER814 

> <Gold.Protein.RotatedAtoms>
  152.5112  133.9089  159.7477 H   0  0  0  0  0  0  0  0  0  0  0  0  # atno 6907 bound_to 6896
  150.9487  133.6565  159.2783 H   0  0  0  0  0  0  0  0  0  0  0  0  # atno 6908 bound_to 6896
  151.3851  135.0951  159.9561 H   0  0  0  0  0  0  0  0  0  0  0  0  # atno 6909 bound_to 6896
  146.2399  139.9736  142.8444 H   0  0  0  0  0  0  0  0  0  0  0  0  # atno 7974 bound_to 7965
  156.2901  140.2659  156.2340 H   0  0  0  0  0  0  0  0  0  0  0  0  # atno 8008 bound_to 7997
  155.0043  140.0387  157.2391 H   0  0  0  0  0  0  0  0  0  0  0  0  # atno 8009 bound_to 7997
  154.7573  140.2754  155.6247 H   0  0  0  0  0  0  0  0  0  0  0  0  # atno 8010 bound_to 7997
  139.5771  144.1507  152.1466 H   0  0  0  0  0  0  0  0  0  0  0  0  # atno 10167 bound_to 10162
  157.0919  130.6431  149.5851 H   0  0  0  0  0  0  0  0  0  0  0  0  # atno 10718 bound_to 10713
  154.5245  135.2796  155.1233 H   0  0  0  0  0  0  0  0  0  0  0  0  # atno 10763 bound_to 10752
  154.2778  135.6291  153.5338 H   0  0  0  0  0  0  0  0  0  0  0  0  # atno 10764 bound_to 10752
  152.9944  135.5644  154.5743 H   0  0  0  0  0  0  0  0  0  0  0  0  # atno 10765 bound_to 10752
  140.0118  134.9436  157.0293 H   0  0  0  0  0  0  0  0  0  0  0  0  # atno 11005 bound_to 11000
  145.1657  140.9696  143.4351 LP  0  0  0  0  0  0  0  0  0  0  0  0  # atno 17320 bound_to 7965
  145.0074  139.3541  143.6137 LP  0  0  0  0  0  0  0  0  0  0  0  0  # atno 17321 bound_to 7965
  140.1052  144.5505  150.6962 LP  0  0  0  0  0  0  0  0  0  0  0  0  # atno 17342 bound_to 10162
  140.7053  143.2463  151.4744 LP  0  0  0  0  0  0  0  0  0  0  0  0  # atno 17343 bound_to 10162
  155.9896  130.4943  150.7219 LP  0  0  0  0  0  0  0  0  0  0  0  0  # atno 17370 bound_to 10713
  157.4714  131.0893  151.0639 LP  0  0  0  0  0  0  0  0  0  0  0  0  # atno 17371 bound_to 10713
  140.4541  134.1551  155.7184 LP  0  0  0  0  0  0  0  0  0  0  0  0  # atno 17394 bound_to 11000
  141.1716  133.8598  157.1553 LP  0  0  0  0  0  0  0  0  0  0  0  0  # atno 17395 bound_to 11000

$$$$
