AV-unprocessed.smi:632|AV-procd|sdf|3127|dock1
  -GOLD-   22720 0 53D 1   1.00000     0.00000
 Structure written by MMmdl.
 42 43  0  0  0  0  0  0  0  0  1 V2000
  147.6754  132.5943  161.1909 C   0  0  0  0  0  0  0  0  0  0  0  0
  146.5063  133.5137  160.7876 C   0  0  0  0  0  0  0  0  0  0  0  0
  145.2399  133.0025  161.5092 C   0  0  0  0  0  0  0  0  0  0  0  0
  146.7612  134.9563  161.2669 C   0  0  0  0  0  0  0  0  0  0  0  0
  146.3341  133.4947  159.2864 C   0  0  0  0  0  0  0  0  0  0  0  0
  147.3121  133.8882  158.4564 N   0  0  0  0  0  0  0  0  0  0  0  0
  146.9567  133.7896  157.1196 N   0  0  0  0  0  0  0  0  0  0  0  0
  145.7132  133.3187  156.9662 C   0  0  0  0  0  0  0  0  0  0  0  0
  145.0978  133.1104  155.7033 N   0  0  0  0  0  0  0  0  0  0  0  0
  145.6020  133.3539  154.4806 C   0  0  0  0  0  0  0  0  0  0  0  0
  146.7109  133.8377  154.2514 O   0  0  0  0  0  0  0  0  0  0  0  0
  144.7362  133.0004  153.5194 N   0  0  0  0  0  0  0  0  0  0  0  0
  144.9803  133.1141  152.0844 C   0  0  2  0  0  0  0  0  0  0  0  0
  143.9113  134.0026  151.4182 C   0  0  0  0  0  0  0  0  0  0  0  0
  144.1257  134.0939  149.8971 C   0  0  0  0  0  0  0  0  0  0  0  0
  144.1953  132.7065  149.2304 C   0  0  2  0  0  0  0  0  0  0  0  0
  142.9187  132.0988  149.2413 O   0  0  0  0  0  0  0  0  0  0  0  0
  145.2214  131.7916  149.9262 C   0  0  0  0  0  0  0  0  0  0  0  0
  144.9961  131.7132  151.4466 C   0  0  0  0  0  0  0  0  0  0  0  0
  144.8670  132.9569  158.4588 S   0  0  0  0  0  0  0  0  0  0  0  0
  147.8148  132.5777  162.2723 H   0  0  0  0  0  0  0  0  0  0  0  0
  148.6159  132.9259  160.7491 H   0  0  0  0  0  0  0  0  0  0  0  0
  147.5037  131.5678  160.8648 H   0  0  0  0  0  0  0  0  0  0  0  0
  145.0056  131.9736  161.2335 H   0  0  0  0  0  0  0  0  0  0  0  0
  144.3688  133.6171  161.2785 H   0  0  0  0  0  0  0  0  0  0  0  0
  145.3673  133.0221  162.5922 H   0  0  0  0  0  0  0  0  0  0  0  0
  146.8711  135.0023  162.3507 H   0  0  0  0  0  0  0  0  0  0  0  0
  145.9388  135.6172  160.9905 H   0  0  0  0  0  0  0  0  0  0  0  0
  147.6732  135.3674  160.8327 H   0  0  0  0  0  0  0  0  0  0  0  0
  144.1685  132.7181  155.7345 H   0  0  0  0  0  0  0  0  0  0  0  0
  143.8442  132.6188  153.7984 H   0  0  0  0  0  0  0  0  0  0  0  0
  145.9616  133.5655  151.9261 H   0  0  0  0  0  0  0  0  0  0  0  0
  142.9168  133.6038  151.6234 H   0  0  0  0  0  0  0  0  0  0  0  0
  143.9345  135.0051  151.8474 H   0  0  0  0  0  0  0  0  0  0  0  0
  143.3366  134.6938  149.4422 H   0  0  0  0  0  0  0  0  0  0  0  0
  145.0584  134.6262  149.7060 H   0  0  0  0  0  0  0  0  0  0  0  0
  144.4788  132.8290  148.1846 H   0  0  0  0  0  0  0  0  0  0  0  0
  142.2631  132.7783  149.2805 H   0  0  0  0  0  0  0  0  0  0  0  0
  145.1951  130.7921  149.4904 H   0  0  0  0  0  0  0  0  0  0  0  0
  146.2244  132.1772  149.7391 H   0  0  0  0  0  0  0  0  0  0  0  0
  145.7802  131.1053  151.8998 H   0  0  0  0  0  0  0  0  0  0  0  0
  144.0542  131.2017  151.6502 H   0  0  0  0  0  0  0  0  0  0  0  0
  1  2  1  0  0  0  0
  1 21  1  0  0  0  0
  1 22  1  0  0  0  0
  1 23  1  0  0  0  0
  2  3  1  0  0  0  0
  2  4  1  0  0  0  0
  2  5  1  0  0  0  0
  3 24  1  0  0  0  0
  3 25  1  0  0  0  0
  3 26  1  0  0  0  0
  4 27  1  0  0  0  0
  4 28  1  0  0  0  0
  4 29  1  0  0  0  0
  5 20  1  0  0  0  0
  5  6  2  0  0  0  0
  6  7  1  0  0  0  0
  7  8  2  0  0  0  0
  8  9  1  0  0  0  0
  8 20  1  0  0  0  0
  9 10  1  0  0  0  0
  9 30  1  0  0  0  0
 10 11  2  0  0  0  0
 10 12  1  0  0  0  0
 12 13  1  0  0  0  0
 12 31  1  0  0  0  0
 13 19  1  0  0  0  0
 13 14  1  0  0  0  0
 13 32  1  0  0  0  0
 14 15  1  0  0  0  0
 14 33  1  0  0  0  0
 14 34  1  0  0  0  0
 15 16  1  0  0  0  0
 15 35  1  0  0  0  0
 15 36  1  0  0  0  0
 16 17  1  0  0  0  0
 16 18  1  0  0  0  0
 16 37  1  0  0  0  0
 17 38  1  0  0  0  0
 18 19  1  0  0  0  0
 18 39  1  0  0  0  0
 18 40  1  0  0  0  0
 19 41  1  0  0  0  0
 19 42  1  0  0  0  0
M  END
> <s_m_source_file>
AV-unprocessed.smi

> <i_m_source_file_index>
632

> <i_lp_mmshare_version>
43012

> <i_f3d_flags>
0

> <s_epik_input>
W0NIM11DKFtDSDNdKShbQ0gzXSljMW5uYyhzMSlbTkhdQyg9TylbTkhdW0NAQEhdMltDSDJdW0NIMl1bQ0BASF0oW09IXSlbQ0gyXVtDSDJdMg==

> <s_epik_cmdline>
J2VwaWtfcHl0aG9uJywgJy1waCcsICc3LjAnLCAnLXRuJywgJzgnLCAnLW1hJywgJzIwMCcsICctbWV0YWxfYmluZGluZycsICctaW1hZScsICc8aW5maWxlLm1hZT4nLCAnLW9tYWUnLCAnPG91dGZpbGUubWFlPic=

> <r_lp_tautomer_probability>
1

> <r_epik_Ionization_Penalty>
0.000349475

> <r_epik_Ionization_Penalty_Charging>
0

> <r_epik_Ionization_Penalty_Neutral>
0.000349475

> <r_epik_State_Penalty>
-0

> <r_epik_Charging_Adjusted_Penalty>
0

> <i_epik_Tot_Q>
0

> <i_epik_Tot_abs_Q>
0

> <r_epik_Metal_State_Penalty>
0.179207

> <b_epik_Metal_Only>
0

> <s_lp_Force_Field>
OPLS_2005

> <r_lp_Energy>
4.89168

> <b_lp_Chiralities_Consistent>
1

> <s_lp_Variant>
AV-unprocessed.smi:632-2

> <Gold.Version>
5.8.1

> <Gold.Id.Protein>
6NUR|6NUR_protein|mol2

> <Gold.PLP.Fitness>
38.4340

> <Gold.PLP.PLP>
-26.8218

> <Gold.PLP.part.hbond>
-5.0000

> <Gold.PLP.part.metal>
0.0000

> <Gold.PLP.part.buried>
-3.2641

> <Gold.PLP.part.nonpolar>
-19.5433

> <Gold.PLP.part.repulsive>
0.0698

> <Gold.PLP.ligand.clash>
0.0000

> <Gold.PLP.ligand.torsion>
0.0131

> <Gold.PLP.Chemscore.Hbond>
3.8770

> <Gold.PLP.Chemscore.CHOScore>
0.0000

> <Gold.PLP.Chemscore.Metal>
0.0000

> <Gold.Chemscore.Hbonds>
donor molecule, donor type, donor heavy atom, donor atom, acceptor molecule, acceptor atom, score
      L1  H     9    30       P1 10957  0.99
      L1  H    12    31       P1 10957  1.00
      L1  H    17    38       P1 10186  0.89
      P1  H 10785 10796       L1    17  0.98

> <Gold.PLP.Chemscore.Internal.Correction>
0.0074

> <Gold.Rescore>
     Score         DG    S(hbond)    S(metal)    S(lipo)     H(rot)  DE(clash)    DE(int)     intcor
     18.80     -20.23       3.10        0.00      74.54       1.70       0.12       1.30       ----

> <Gold.Chemscore.Fitness>
18.8025

> <Gold.Chemscore.DG>
-20.2262

> <Gold.Chemscore.ZeroCoef>
-5.4800

> <Gold.Chemscore.Hbond>
3.1043

> <Gold.Chemscore.Metal>
0.0000

> <Gold.Chemscore.Lipo>
74.5426

> <Gold.Chemscore.Internal_Hbond>
0.0000

> <Gold.Chemscore.DEClash>
0.1213

> <Gold.Chemscore.DEInternal>
1.3024

> <Gold.Chemscore.Rot>
1.6968

> <Gold.Chemscore.Internal.Correction>
   9.000000E+99

> <Gold.Chemscore.Hbonds>
donor molecule, donor type, donor heavy atom, donor atom, acceptor molecule, acceptor atom, score
      L1  H     9    30       P1 10957  0.91
      L1  H    12    31       P1 10957  0.69
      L1  H    17    38       P1 10186  0.86
      P1  H 10785 10796       L1    17  0.56

> <Gold.Chemscore.Hbond.Weighted>
-10.3685

> <Gold.Chemscore.Metal.Weighted>
-0.0000

> <Gold.Chemscore.Lipo.Weighted>
-8.7215

> <Gold.Chemscore.Internal_Hbond.Weighted>
0.0000

> <Gold.Chemscore.DEClash.Weighted>
0.1213

> <Gold.Chemscore.DEInternal.Weighted>
1.3024

> <Gold.Chemscore.Rot.Weighted>
4.3438

> <Gold.Chemscore.Internal.Correction.Weighted>
   9.000000E+99

> <Gold.Protein.RotatedTorsions>
[ 6907 6896 6895 6894 ] final  -58.25 input  -60.11 | X-H torsion
[ 7974 7965 7964 7962 ] final  144.45 input  175.53 | X-H torsion
[ 8008 7997 7996 7995 ] final -118.84 input   59.86 | X-H torsion
[ 10167 10162 10161 10158 ] final -171.07 input  -65.29 | X-H torsion
[ 10718 10713 10712 10709 ] final   10.22 input   66.30 | X-H torsion
[ 10763 10752 10751 10750 ] final  -49.23 input  -60.55 | X-H torsion
[ 11005 11000 10999 10996 ] final -176.23 input  -57.11 | X-H torsion

> <Gold.Protein.ActiveResidues>
 VAL166  LYS551  ARG553  GLY616  TRP617  ASP618  TYR619  PRO620  LYS621  CYS622 
 ASP623  PHE694  ASN695  SER759  ASP760  ASP761  ALA762  ILE779  LEU786  VAL792 
 PHE793  MET794  SER795  GLU796  ALA797  LYS798  CYS799  TRP800  GLU811  SER814 

> <Gold.Protein.RotatedAtoms>
  150.8022  134.7123  159.6610 H   0  0  0  0  0  0  0  0  0  0  0  0  # atno 6907 bound_to 6896
  152.4139  134.6073  160.0026 H   0  0  0  0  0  0  0  0  0  0  0  0  # atno 6908 bound_to 6896
  151.6307  133.3295  159.3144 H   0  0  0  0  0  0  0  0  0  0  0  0  # atno 6909 bound_to 6896
  144.8835  139.5664  143.5832 H   0  0  0  0  0  0  0  0  0  0  0  0  # atno 7974 bound_to 7965
  155.1061  140.0396  157.2710 H   0  0  0  0  0  0  0  0  0  0  0  0  # atno 8008 bound_to 7997
  154.6721  140.2614  155.6971 H   0  0  0  0  0  0  0  0  0  0  0  0  # atno 8009 bound_to 7997
  156.2662  140.2795  156.1234 H   0  0  0  0  0  0  0  0  0  0  0  0  # atno 8010 bound_to 7997
  139.5824  144.1394  152.1532 H   0  0  0  0  0  0  0  0  0  0  0  0  # atno 10167 bound_to 10162
  156.9778  130.5994  149.5674 H   0  0  0  0  0  0  0  0  0  0  0  0  # atno 10718 bound_to 10713
  154.0907  135.6578  153.4852 H   0  0  0  0  0  0  0  0  0  0  0  0  # atno 10763 bound_to 10752
  153.0323  135.5202  154.7383 H   0  0  0  0  0  0  0  0  0  0  0  0  # atno 10764 bound_to 10752
  154.6506  135.3001  154.9960 H   0  0  0  0  0  0  0  0  0  0  0  0  # atno 10765 bound_to 10752
  140.4544  134.6313  157.4815 H   0  0  0  0  0  0  0  0  0  0  0  0  # atno 11005 bound_to 11000
  146.3009  139.7425  142.9092 LP  0  0  0  0  0  0  0  0  0  0  0  0  # atno 17320 bound_to 7965
  145.3912  141.0372  143.3123 LP  0  0  0  0  0  0  0  0  0  0  0  0  # atno 17321 bound_to 7965
  140.0950  144.5588  150.7028 LP  0  0  0  0  0  0  0  0  0  0  0  0  # atno 17342 bound_to 10162
  140.7100  143.2498  151.4609 LP  0  0  0  0  0  0  0  0  0  0  0  0  # atno 17343 bound_to 10162
  156.0257  130.5350  150.8399 LP  0  0  0  0  0  0  0  0  0  0  0  0  # atno 17370 bound_to 10713
  157.5548  131.0944  150.9645 LP  0  0  0  0  0  0  0  0  0  0  0  0  # atno 17371 bound_to 10713
  139.9986  134.6872  155.9568 LP  0  0  0  0  0  0  0  0  0  0  0  0  # atno 17394 bound_to 11000
  141.1649  133.6537  156.4447 LP  0  0  0  0  0  0  0  0  0  0  0  0  # atno 17395 bound_to 11000

$$$$
