AV-unprocessed.smi:1821|AV-procd|sdf|7387|dock4
  -GOLD-   22720 9 53D 1   1.00000     0.00000
 Structure written by MMmdl.
 35 37  0  0  0  0  0  0  0  0  1 V2000
  152.3175  139.8731  155.9767 C   0  0  0  0  0  0  0  0  0  0  0  0
  150.9324  140.4046  155.7837 C   0  0  0  0  0  0  0  0  0  0  0  0
  150.2927  140.3159  154.6176 N   0  0  0  0  0  0  0  0  0  0  0  0
  149.0786  140.9158  154.8919 C   0  0  0  0  0  0  0  0  0  0  0  0
  147.9556  141.1375  154.0629 C   0  0  0  0  0  0  0  0  0  0  0  0
  146.8087  141.7816  154.5715 C   0  0  0  0  0  0  0  0  0  0  0  0
  146.7682  142.2128  155.9134 C   0  0  0  0  0  0  0  0  0  0  0  0
  147.8762  142.0021  156.7565 C   0  0  0  0  0  0  0  0  0  0  0  0
  149.0185  141.3580  156.2441 C   0  0  0  0  0  0  0  0  0  0  0  0
  150.2496  141.0055  156.7888 N   0  0  0  0  0  0  0  0  0  0  0  0
  150.6922  141.2434  158.1558 C   0  0  0  0  0  0  0  0  0  0  0  0
  151.8608  142.2471  158.2394 C   0  0  1  0  0  0  0  0  0  0  0  0
  151.5360  143.4386  157.5482 O   0  0  0  0  0  0  0  0  0  0  0  0
  152.2706  142.5056  159.6853 C   0  0  0  0  0  0  0  0  0  0  0  0
  151.8731  143.6911  160.3495 C   0  0  0  0  0  0  0  0  0  0  0  0
  151.1178  144.6185  159.7131 F   0  0  0  0  0  0  0  0  0  0  0  0
  152.2545  143.9185  161.6861 C   0  0  0  0  0  0  0  0  0  0  0  0
  153.0283  142.9652  162.3729 C   0  0  0  0  0  0  0  0  0  0  0  0
  153.4188  141.7800  161.7227 C   0  0  0  0  0  0  0  0  0  0  0  0
  153.0416  141.5484  160.3856 C   0  0  0  0  0  0  0  0  0  0  0  0
  153.4242  140.3971  159.7824 F   0  0  0  0  0  0  0  0  0  0  0  0
  152.6914  139.4382  155.0492 H   0  0  0  0  0  0  0  0  0  0  0  0
  152.3222  139.0986  156.7438 H   0  0  0  0  0  0  0  0  0  0  0  0
  152.9946  140.6729  156.2754 H   0  0  0  0  0  0  0  0  0  0  0  0
  147.9774  140.8114  153.0335 H   0  0  0  0  0  0  0  0  0  0  0  0
  145.9564  141.9465  153.9287 H   0  0  0  0  0  0  0  0  0  0  0  0
  145.8865  142.7067  156.2949 H   0  0  0  0  0  0  0  0  0  0  0  0
  147.8504  142.3347  157.7835 H   0  0  0  0  0  0  0  0  0  0  0  0
  149.8405  141.5991  158.7368 H   0  0  0  0  0  0  0  0  0  0  0  0
  150.9816  140.2909  158.6008 H   0  0  0  0  0  0  0  0  0  0  0  0
  152.7131  141.8271  157.7065 H   0  0  0  0  0  0  0  0  0  0  0  0
  152.1742  144.0991  157.7713 H   0  0  0  0  0  0  0  0  0  0  0  0
  151.9500  144.8263  162.1859 H   0  0  0  0  0  0  0  0  0  0  0  0
  153.3187  143.1412  163.3982 H   0  0  0  0  0  0  0  0  0  0  0  0
  154.0085  141.0454  162.2512 H   0  0  0  0  0  0  0  0  0  0  0  0
  1  2  1  0  0  0  0
  1 22  1  0  0  0  0
  1 23  1  0  0  0  0
  1 24  1  0  0  0  0
  2 10  1  0  0  0  0
  2  3  2  0  0  0  0
  3  4  1  0  0  0  0
  4  9  2  0  0  0  0
  4  5  1  0  0  0  0
  5  6  2  0  0  0  0
  5 25  1  0  0  0  0
  6  7  1  0  0  0  0
  6 26  1  0  0  0  0
  7  8  2  0  0  0  0
  7 27  1  0  0  0  0
  8  9  1  0  0  0  0
  8 28  1  0  0  0  0
  9 10  1  0  0  0  0
 10 11  1  0  0  0  0
 11 12  1  0  0  0  0
 11 29  1  0  0  0  0
 11 30  1  0  0  0  0
 12 13  1  0  0  0  0
 12 14  1  0  0  0  0
 12 31  1  0  0  0  0
 13 32  1  0  0  0  0
 14 20  1  0  0  0  0
 14 15  2  0  0  0  0
 15 16  1  0  0  0  0
 15 17  1  0  0  0  0
 17 18  2  0  0  0  0
 17 33  1  0  0  0  0
 18 19  1  0  0  0  0
 18 34  1  0  0  0  0
 19 20  2  0  0  0  0
 19 35  1  0  0  0  0
 20 21  1  0  0  0  0
M  END
> <s_m_source_file>
AV-unprocessed.smi

> <i_m_source_file_index>
1821

> <i_lp_mmshare_version>
43012

> <i_f3d_flags>
0

> <s_epik_input>
W2NIXTFbY0hdW2NIXVtjSF1jKGMxMiluKGMobjIpW0NIM10pW0NIMl1bQ0BIXShbT0hdKWMzYyhGKVtjSF1bY0hdW2NIXWMzRg==

> <s_epik_cmdline>
J2VwaWtfcHl0aG9uJywgJy1waCcsICc3LjAnLCAnLXRuJywgJzgnLCAnLW1hJywgJzIwMCcsICctbWV0YWxfYmluZGluZycsICctaW1hZScsICc8aW5maWxlLm1hZT4nLCAnLW9tYWUnLCAnPG91dGZpbGUubWFlPic=

> <r_epik_Ionization_Penalty>
0.129663

> <r_epik_Ionization_Penalty_Charging>
0

> <r_epik_Ionization_Penalty_Neutral>
0.129663

> <r_epik_State_Penalty>
0.119073

> <r_epik_Charging_Adjusted_Penalty>
0.119073

> <i_epik_Tot_Q>
0

> <i_epik_Tot_abs_Q>
0

> <r_epik_Metal_State_Penalty>
0.000131867

> <b_epik_Metal_Only>
0

> <s_lp_Force_Field>
OPLS_2005

> <r_lp_Energy>
13.032

> <b_lp_Chiralities_Consistent>
1

> <s_lp_Variant>
AV-unprocessed.smi:1821-2

> <Gold.Version>
5.8.1

> <Gold.Id.Protein>
6NUR|6NUR_protein|mol2

> <Gold.PLP.Fitness>
52.1418

> <Gold.PLP.PLP>
-50.3019

> <Gold.PLP.part.hbond>
-1.0000

> <Gold.PLP.part.metal>
0.0000

> <Gold.PLP.part.buried>
-3.1526

> <Gold.PLP.part.nonpolar>
-45.4009

> <Gold.PLP.part.repulsive>
0.1002

> <Gold.PLP.ligand.clash>
0.0000

> <Gold.PLP.ligand.torsion>
0.5956

> <Gold.PLP.Chemscore.Hbond>
1.0000

> <Gold.PLP.Chemscore.CHOScore>
0.0000

> <Gold.PLP.Chemscore.Metal>
0.0000

> <Gold.Chemscore.Hbonds>
donor molecule, donor type, donor heavy atom, donor atom, acceptor molecule, acceptor atom, score
      P1  H  7989  7998       L1     3  1.00

> <Gold.PLP.Chemscore.Internal.Correction>
0.0312

> <Gold.Rescore>
     Score         DG    S(hbond)    S(metal)    S(lipo)     H(rot)  DE(clash)    DE(int)     intcor
     13.63     -17.41       0.82        0.00     119.81       1.88       1.35       2.43       ----

> <Gold.Chemscore.Fitness>
13.6318

> <Gold.Chemscore.DG>
-17.4055

> <Gold.Chemscore.ZeroCoef>
-5.4800

> <Gold.Chemscore.Hbond>
0.8174

> <Gold.Chemscore.Metal>
0.0000

> <Gold.Chemscore.Lipo>
119.8139

> <Gold.Chemscore.Internal_Hbond>
0.0000

> <Gold.Chemscore.DEClash>
1.3485

> <Gold.Chemscore.DEInternal>
2.4252

> <Gold.Chemscore.Rot>
1.8839

> <Gold.Chemscore.Internal.Correction>
   9.000000E+99

> <Gold.Chemscore.Hbonds>
donor molecule, donor type, donor heavy atom, donor atom, acceptor molecule, acceptor atom, score
      P1  H  7989  7998       L1     3  0.25

> <Gold.Chemscore.Hbond.Weighted>
-2.7300

> <Gold.Chemscore.Metal.Weighted>
-0.0000

> <Gold.Chemscore.Lipo.Weighted>
-14.0182

> <Gold.Chemscore.Internal_Hbond.Weighted>
0.0000

> <Gold.Chemscore.DEClash.Weighted>
1.3485

> <Gold.Chemscore.DEInternal.Weighted>
2.4252

> <Gold.Chemscore.Rot.Weighted>
4.8227

> <Gold.Chemscore.Internal.Correction.Weighted>
   9.000000E+99

> <Gold.Protein.RotatedTorsions>
[ 6907 6896 6895 6894 ] final -155.26 input  -60.11 | X-H torsion
[ 7974 7965 7964 7962 ] final -109.34 input  175.53 | X-H torsion
[ 8008 7997 7996 7995 ] final  -90.66 input   59.86 | X-H torsion
[ 10167 10162 10161 10158 ] final -128.52 input  -65.29 | X-H torsion
[ 10718 10713 10712 10709 ] final  -97.04 input   66.30 | X-H torsion
[ 10763 10752 10751 10750 ] final  167.63 input  -60.55 | X-H torsion
[ 11005 11000 10999 10996 ] final  -37.40 input  -57.11 | X-H torsion

> <Gold.Protein.ActiveResidues>
 VAL166  LYS551  ARG553  GLY616  TRP617  ASP618  TYR619  PRO620  LYS621  CYS622 
 ASP623  PHE694  ASN695  SER759  ASP760  ASP761  ALA762  ILE779  LEU786  VAL792 
 PHE793  MET794  SER795  GLU796  ALA797  LYS798  CYS799  TRP800  GLU811  SER814 

> <Gold.Protein.RotatedAtoms>
  151.2698  133.4260  159.2620 H   0  0  0  0  0  0  0  0  0  0  0  0  # atno 6907 bound_to 6896
  151.0455  134.9637  159.8194 H   0  0  0  0  0  0  0  0  0  0  0  0  # atno 6908 bound_to 6896
  152.5373  134.2655  159.9004 H   0  0  0  0  0  0  0  0  0  0  0  0  # atno 6909 bound_to 6896
  145.1818  140.8974  143.3476 H   0  0  0  0  0  0  0  0  0  0  0  0  # atno 7974 bound_to 7965
  154.7012  140.0528  157.0460 H   0  0  0  0  0  0  0  0  0  0  0  0  # atno 8008 bound_to 7997
  155.0682  140.3196  155.4620 H   0  0  0  0  0  0  0  0  0  0  0  0  # atno 8009 bound_to 7997
  156.2760  140.2086  156.5809 H   0  0  0  0  0  0  0  0  0  0  0  0  # atno 8010 bound_to 7997
  139.9495  143.6072  152.2480 H   0  0  0  0  0  0  0  0  0  0  0  0  # atno 10167 bound_to 10162
  156.0075  130.5177  150.6315 H   0  0  0  0  0  0  0  0  0  0  0  0  # atno 10718 bound_to 10713
  154.3567  135.2753  155.2342 H   0  0  0  0  0  0  0  0  0  0  0  0  # atno 10763 bound_to 10752
  154.4548  135.5922  153.6219 H   0  0  0  0  0  0  0  0  0  0  0  0  # atno 10764 bound_to 10752
  152.9846  135.6050  154.3784 H   0  0  0  0  0  0  0  0  0  0  0  0  # atno 10765 bound_to 10752
  140.9949  133.6985  156.1916 H   0  0  0  0  0  0  0  0  0  0  0  0  # atno 11005 bound_to 11000
  145.0129  139.3493  143.6111 LP  0  0  0  0  0  0  0  0  0  0  0  0  # atno 17320 bound_to 7965
  146.3452  139.9399  142.8742 LP  0  0  0  0  0  0  0  0  0  0  0  0  # atno 17321 bound_to 7965
  139.6640  144.7662  151.1908 LP  0  0  0  0  0  0  0  0  0  0  0  0  # atno 17342 bound_to 10162
  140.7587  143.5966  150.8742 LP  0  0  0  0  0  0  0  0  0  0  0  0  # atno 17343 bound_to 10162
  157.4112  131.0824  151.1219 LP  0  0  0  0  0  0  0  0  0  0  0  0  # atno 17370 bound_to 10713
  157.1849  130.6326  149.5684 LP  0  0  0  0  0  0  0  0  0  0  0  0  # atno 17371 bound_to 10713
  140.6982  134.4593  157.5587 LP  0  0  0  0  0  0  0  0  0  0  0  0  # atno 17394 bound_to 11000
  139.9010  134.8557  156.1898 LP  0  0  0  0  0  0  0  0  0  0  0  0  # atno 17395 bound_to 11000

$$$$
