AV-unprocessed.smi:155|AV-procd|sdf|1270|dock1
  -GOLD-   2262018523D 1   1.00000     0.00000
 Structure written by MMmdl.
 63 66  0  0  0  0  0  0  0  0  2 V2000
  153.5686  129.9424  164.2388 C   0  0  0  0  0  0  0  0  0  0  0  0
  152.8043  131.1827  164.2443 N   0  0  0  0  0  0  0  0  0  0  0  0
  151.3906  130.8432  164.3695 C   0  0  0  0  0  0  0  0  0  0  0  0
  153.2588  132.0211  165.3542 C   0  0  0  0  0  0  0  0  0  0  0  0
  154.7820  132.2636  165.3163 C   0  0  0  0  0  0  0  0  0  0  0  0
  155.1566  133.2460  164.2655 N   0  3  1  0  0  0  0  0  0  0  0  0
  154.5116  132.9420  162.9636 C   0  0  0  0  0  0  0  0  0  0  0  0
  155.0814  133.7624  161.7940 C   0  0  0  0  0  0  0  0  0  0  0  0
  154.6140  135.2260  161.7895 C   0  0  0  0  0  0  0  0  0  0  0  0
  155.3835  136.0924  162.6847 N   0  0  0  0  0  0  0  0  0  0  0  0
  155.3738  137.4321  162.4502 C   0  0  0  0  0  0  0  0  0  0  0  0
  156.0639  138.2491  163.2901 N   0  0  0  0  0  0  0  0  0  0  0  0
  156.0801  139.5699  163.0912 C   0  0  0  0  0  0  0  0  0  0  0  0
  155.4843  140.2748  162.1289 N   0  0  0  0  0  0  0  0  0  0  0  0
  154.7859  139.4656  161.2825 C   0  0  0  0  0  0  0  0  0  0  0  0
  154.6710  138.0485  161.3730 C   0  0  0  0  0  0  0  0  0  0  0  0
  153.8488  137.5794  160.3538 N   0  0  0  0  0  0  0  0  0  0  0  0
  153.5098  138.6531  159.6947 C   0  0  0  0  0  0  0  0  0  0  0  0
  154.0435  139.8284  160.1721 N   0  0  0  0  0  0  0  0  0  0  0  0
  153.8297  141.1616  159.6316 C   0  0  0  0  0  0  0  0  0  0  0  0
  152.9952  142.1075  160.5320 C   0  0  1  0  0  0  0  0  0  0  0  0
  153.4768  142.1097  161.8605 O   0  0  0  0  0  0  0  0  0  0  0  0
  152.8276  143.5740  160.0692 C   0  0  2  0  0  0  0  0  0  0  0  0
  152.1064  144.4748  161.0706 C   0  0  0  0  0  0  0  0  0  0  0  0
  151.7160  145.6448  160.1955 C   0  0  0  0  0  0  0  0  0  0  0  0
  151.3844  144.9660  158.8673 C   0  0  0  0  0  0  0  0  0  0  0  0
  152.0599  143.7099  158.8779 O   0  0  0  0  0  0  0  0  0  0  0  0
  155.9111  135.6129  163.9631 C   0  0  0  0  0  0  0  0  0  0  0  0
  154.9634  134.6538  164.7001 C   0  0  0  0  0  0  0  0  0  0  0  0
  154.6326  130.1461  164.1132 H   0  0  0  0  0  0  0  0  0  0  0  0
  153.2578  129.3024  163.4119 H   0  0  0  0  0  0  0  0  0  0  0  0
  153.4346  129.3879  165.1692 H   0  0  0  0  0  0  0  0  0  0  0  0
  150.7575  131.7278  164.3160 H   0  0  0  0  0  0  0  0  0  0  0  0
  151.1857  130.3318  165.3111 H   0  0  0  0  0  0  0  0  0  0  0  0
  151.0852  130.1847  163.5555 H   0  0  0  0  0  0  0  0  0  0  0  0
  152.7267  132.9736  165.3333 H   0  0  0  0  0  0  0  0  0  0  0  0
  152.9926  131.5477  166.2995 H   0  0  0  0  0  0  0  0  0  0  0  0
  155.1302  132.5867  166.2968 H   0  0  0  0  0  0  0  0  0  0  0  0
  155.3033  131.3240  165.1266 H   0  0  0  0  0  0  0  0  0  0  0  0
  154.6788  131.8888  162.7340 H   0  0  0  0  0  0  0  0  0  0  0  0
  153.4310  133.0738  163.0394 H   0  0  0  0  0  0  0  0  0  0  0  0
  156.1694  133.6945  161.7544 H   0  0  0  0  0  0  0  0  0  0  0  0
  154.7240  133.3035  160.8715 H   0  0  0  0  0  0  0  0  0  0  0  0
  154.7231  135.6062  160.7726 H   0  0  0  0  0  0  0  0  0  0  0  0
  153.5525  135.2910  162.0321 H   0  0  0  0  0  0  0  0  0  0  0  0
  156.6537  140.1436  163.8041 H   0  0  0  0  0  0  0  0  0  0  0  0
  152.8650  138.6168  158.8287 H   0  0  0  0  0  0  0  0  0  0  0  0
  154.8029  141.6050  159.4214 H   0  0  0  0  0  0  0  0  0  0  0  0
  153.3403  141.0536  158.6629 H   0  0  0  0  0  0  0  0  0  0  0  0
  151.9945  141.6790  160.5975 H   0  0  0  0  0  0  0  0  0  0  0  0
  152.7498  141.9578  162.4448 H   0  0  0  0  0  0  0  0  0  0  0  0
  153.8108  144.0091  159.8783 H   0  0  0  0  0  0  0  0  0  0  0  0
  151.2105  143.9924  161.4619 H   0  0  0  0  0  0  0  0  0  0  0  0
  152.7358  144.7641  161.9128 H   0  0  0  0  0  0  0  0  0  0  0  0
  150.8844  146.2233  160.5989 H   0  0  0  0  0  0  0  0  0  0  0  0
  152.5681  146.3146  160.0705 H   0  0  0  0  0  0  0  0  0  0  0  0
  150.3130  144.7825  158.7817 H   0  0  0  0  0  0  0  0  0  0  0  0
  151.6930  145.5705  158.0140 H   0  0  0  0  0  0  0  0  0  0  0  0
  156.8907  135.1576  163.8125 H   0  0  0  0  0  0  0  0  0  0  0  0
  156.0701  136.4633  164.6267 H   0  0  0  0  0  0  0  0  0  0  0  0
  153.9198  134.9601  164.6111 H   0  0  0  0  0  0  0  0  0  0  0  0
  155.2025  134.7281  165.7607 H   0  0  0  0  0  0  0  0  0  0  0  0
  156.1484  133.1161  164.1239 H   0  0  0  0  0  0  0  0  0  0  0  0
  1  2  1  0  0  0  0
  1 30  1  0  0  0  0
  1 31  1  0  0  0  0
  1 32  1  0  0  0  0
  2  3  1  0  0  0  0
  2  4  1  0  0  0  0
  3 33  1  0  0  0  0
  3 34  1  0  0  0  0
  3 35  1  0  0  0  0
  4  5  1  0  0  0  0
  4 36  1  0  0  0  0
  4 37  1  0  0  0  0
  5  6  1  0  0  0  0
  5 38  1  0  0  0  0
  5 39  1  0  0  0  0
  6 29  1  0  0  0  0
  6  7  1  0  0  0  0
  6 63  1  0  0  0  0
  7  8  1  0  0  0  0
  7 40  1  0  0  0  0
  7 41  1  0  0  0  0
  8  9  1  0  0  0  0
  8 42  1  0  0  0  0
  8 43  1  0  0  0  0
  9 10  1  0  0  0  0
  9 44  1  0  0  0  0
  9 45  1  0  0  0  0
 10 11  1  0  0  0  0
 10 28  1  0  0  0  0
 11 16  1  0  0  0  0
 11 12  2  0  0  0  0
 12 13  1  0  0  0  0
 13 14  2  0  0  0  0
 13 46  1  0  0  0  0
 14 15  1  0  0  0  0
 15 19  1  0  0  0  0
 15 16  2  0  0  0  0
 16 17  1  0  0  0  0
 17 18  2  0  0  0  0
 18 19  1  0  0  0  0
 18 47  1  0  0  0  0
 19 20  1  0  0  0  0
 20 21  1  0  0  0  0
 20 48  1  0  0  0  0
 20 49  1  0  0  0  0
 21 22  1  0  0  0  0
 21 23  1  0  0  0  0
 21 50  1  0  0  0  0
 22 51  1  0  0  0  0
 23 27  1  0  0  0  0
 23 24  1  0  0  0  0
 23 52  1  0  0  0  0
 24 25  1  0  0  0  0
 24 53  1  0  0  0  0
 24 54  1  0  0  0  0
 25 26  1  0  0  0  0
 25 55  1  0  0  0  0
 25 56  1  0  0  0  0
 26 27  1  0  0  0  0
 26 57  1  0  0  0  0
 26 58  1  0  0  0  0
 28 29  1  0  0  0  0
 28 59  1  0  0  0  0
 28 60  1  0  0  0  0
 29 61  1  0  0  0  0
 29 62  1  0  0  0  0
M  CHG  1   6   1
M  END
> <s_m_source_file>
AV-unprocessed.smi

> <i_m_source_file_index>
155

> <i_lp_mmshare_version>
43012

> <i_f3d_flags>
0

> <s_epik_input>
W0NIM11OKFtDSDNdKVtDSDJdW0NIMl1OMVtDSDJdW0NIMl1bQ0gyXU4oW0NIMl1bQ0gyXTEpYyhuW2NIXW4yKWMoYzIzKW5bY0hdbjNbQ0gyXVtDQEhdKFtPSF0pW0NAQEhdNFtDSDJdW0NIMl1bQ0gyXU80

> <s_epik_cmdline>
J2VwaWtfcHl0aG9uJywgJy1waCcsICc3LjAnLCAnLXRuJywgJzgnLCAnLW1hJywgJzIwMCcsICctbWV0YWxfYmluZGluZycsICctaW1hZScsICc8aW5maWxlLm1hZT4nLCAnLW9tYWUnLCAnPG91dGZpbGUubWFlPic=

> <r_epik_Ionization_Penalty>
0.0619615

> <r_epik_Ionization_Penalty_Charging>
0.0161638

> <r_epik_Ionization_Penalty_Neutral>
0.0457976

> <r_epik_State_Penalty>
0.403408

> <r_epik_Charging_Adjusted_Penalty>
0.419572

> <i_epik_Tot_Q>
1

> <i_epik_Tot_abs_Q>
1

> <r_epik_Metal_State_Penalty>
0.404222

> <b_epik_Metal_Only>
0

> <s_lp_Force_Field>
OPLS_2005

> <r_lp_Energy>
53.2961

> <b_lp_Chiralities_Consistent>
1

> <s_lp_Variant>
AV-unprocessed.smi:155-4

> <Gold.Version>
5.8.1

> <Gold.Id.Protein>
6NUR|6NUR_protein|mol2

> <Gold.PLP.Fitness>
53.3176

> <Gold.PLP.PLP>
-53.9457

> <Gold.PLP.part.hbond>
-0.2688

> <Gold.PLP.part.metal>
0.0000

> <Gold.PLP.part.buried>
-8.1185

> <Gold.PLP.part.nonpolar>
-45.5319

> <Gold.PLP.part.repulsive>
0.0587

> <Gold.PLP.ligand.clash>
0.0000

> <Gold.PLP.ligand.torsion>
0.4544

> <Gold.PLP.Chemscore.Hbond>
0.0000

> <Gold.PLP.Chemscore.CHOScore>
0.0000

> <Gold.PLP.Chemscore.Metal>
0.0000

> <Gold.PLP.Chemscore.Internal.Correction>
0.2807

> <Gold.Rescore>
     Score         DG    S(hbond)    S(metal)    S(lipo)     H(rot)  DE(clash)    DE(int)     intcor
     10.10     -13.91       0.00        0.00     129.66       2.63       0.01       3.80       ----

> <Gold.Chemscore.Fitness>
10.1046

> <Gold.Chemscore.DG>
-13.9111

> <Gold.Chemscore.ZeroCoef>
-5.4800

> <Gold.Chemscore.Hbond>
0.0000

> <Gold.Chemscore.Metal>
0.0000

> <Gold.Chemscore.Lipo>
129.6581

> <Gold.Chemscore.Internal_Hbond>
0.0000

> <Gold.Chemscore.DEClash>
0.0098

> <Gold.Chemscore.DEInternal>
3.7967

> <Gold.Chemscore.Rot>
2.6324

> <Gold.Chemscore.Internal.Correction>
   9.000000E+99

> <Gold.Chemscore.Hbond.Weighted>
-0.0000

> <Gold.Chemscore.Metal.Weighted>
-0.0000

> <Gold.Chemscore.Lipo.Weighted>
-15.1700

> <Gold.Chemscore.Internal_Hbond.Weighted>
0.0000

> <Gold.Chemscore.DEClash.Weighted>
0.0098

> <Gold.Chemscore.DEInternal.Weighted>
3.7967

> <Gold.Chemscore.Rot.Weighted>
6.7389

> <Gold.Chemscore.Internal.Correction.Weighted>
   9.000000E+99

> <Gold.Protein.RotatedTorsions>
[ 6907 6896 6895 6894 ] final   73.42 input  -60.11 | X-H torsion
[ 7974 7965 7964 7962 ] final  -31.42 input  175.53 | X-H torsion
[ 8008 7997 7996 7995 ] final -161.92 input   59.86 | X-H torsion
[ 10167 10162 10161 10158 ] final -132.80 input  -65.29 | X-H torsion
[ 10718 10713 10712 10709 ] final   34.27 input   66.30 | X-H torsion
[ 10763 10752 10751 10750 ] final -103.93 input  -60.55 | X-H torsion
[ 11005 11000 10999 10996 ] final  -47.93 input  -57.11 | X-H torsion

> <Gold.Protein.ActiveResidues>
 VAL166  LYS551  ARG553  GLY616  TRP617  ASP618  TYR619  PRO620  LYS621  CYS622 
 ASP623  PHE694  ASN695  SER759  ASP760  ASP761  ALA762  ILE779  LEU786  VAL792 
 PHE793  MET794  SER795  GLU796  ALA797  LYS798  CYS799  TRP800  GLU811  SER814 

> <Gold.Protein.RotatedAtoms>
  152.4922  134.4425  159.9547 H   0  0  0  0  0  0  0  0  0  0  0  0  # atno 6907 bound_to 6896
  151.4410  133.3637  159.2789 H   0  0  0  0  0  0  0  0  0  0  0  0  # atno 6908 bound_to 6896
  150.9088  134.8527  159.7471 H   0  0  0  0  0  0  0  0  0  0  0  0  # atno 6909 bound_to 6896
  146.1068  140.5665  142.8796 H   0  0  0  0  0  0  0  0  0  0  0  0  # atno 7974 bound_to 7965
  155.7993  140.0889  157.1966 H   0  0  0  0  0  0  0  0  0  0  0  0  # atno 8008 bound_to 7997
  154.3982  140.1475  156.3314 H   0  0  0  0  0  0  0  0  0  0  0  0  # atno 8009 bound_to 7997
  155.8479  140.3436  155.5677 H   0  0  0  0  0  0  0  0  0  0  0  0  # atno 8010 bound_to 7997
  139.9048  143.6564  152.2587 H   0  0  0  0  0  0  0  0  0  0  0  0  # atno 10167 bound_to 10162
  157.3083  130.7386  149.6709 H   0  0  0  0  0  0  0  0  0  0  0  0  # atno 10718 bound_to 10713
  154.7842  135.4805  153.9910 H   0  0  0  0  0  0  0  0  0  0  0  0  # atno 10763 bound_to 10752
  153.1537  135.6796  153.8851 H   0  0  0  0  0  0  0  0  0  0  0  0  # atno 10764 bound_to 10752
  153.8487  135.3170  155.3409 H   0  0  0  0  0  0  0  0  0  0  0  0  # atno 10765 bound_to 10752
  141.0670  133.6690  156.3368 H   0  0  0  0  0  0  0  0  0  0  0  0  # atno 11005 bound_to 11000
  144.7478  140.5113  143.6823 LP  0  0  0  0  0  0  0  0  0  0  0  0  # atno 17320 bound_to 7965
  145.5744  139.1485  143.3270 LP  0  0  0  0  0  0  0  0  0  0  0  0  # atno 17321 bound_to 7965
  139.6994  144.7637  151.1300 LP  0  0  0  0  0  0  0  0  0  0  0  0  # atno 17342 bound_to 10162
  140.7699  143.5479  150.9238 LP  0  0  0  0  0  0  0  0  0  0  0  0  # atno 17343 bound_to 10162
  155.9676  130.4259  150.4675 LP  0  0  0  0  0  0  0  0  0  0  0  0  # atno 17370 bound_to 10713
  157.2668  131.0579  151.2285 LP  0  0  0  0  0  0  0  0  0  0  0  0  # atno 17371 bound_to 10713
  140.5752  134.5800  157.5467 LP  0  0  0  0  0  0  0  0  0  0  0  0  # atno 17394 bound_to 11000
  139.9486  134.7657  156.0502 LP  0  0  0  0  0  0  0  0  0  0  0  0  # atno 17395 bound_to 11000

$$$$
