AV-unprocessed.smi:66|AV-procd|sdf|628|dock2
  -GOLD-   2262016523D 1   1.00000     0.00000
 Structure written by MMmdl.
 27 29  0  0  0  0  0  0  0  0  3 V2000
  152.5305  136.4662  156.3923 O   0  0  0  0  0  0  0  0  0  0  0  0
  152.1109  137.5077  156.9428 C   0  0  0  0  0  0  0  0  0  0  0  0
  151.4435  137.5463  158.0009 O   0  5  0  0  0  0  0  0  0  0  0  0
  152.4359  138.8391  156.2454 C   0  0  1  0  0  0  0  0  0  0  0  0
  151.8456  138.9170  154.8268 C   0  0  0  0  0  0  0  0  0  0  0  0
  150.5337  139.6758  155.0210 C   0  0  2  0  0  0  0  0  0  0  0  0
  150.1087  140.3306  153.8437 O   0  0  0  0  0  0  0  0  0  0  0  0
  150.8632  140.6562  156.1479 C   0  0  0  0  0  0  0  0  0  0  0  0
  151.8598  139.9783  156.9662 N   0  0  0  0  0  0  0  0  0  0  0  0
  152.5438  140.6134  158.0314 C   0  0  0  0  0  0  0  0  0  0  0  0
  153.5666  139.9296  158.6071 N   0  0  0  0  0  0  0  0  0  0  0  0
  154.2272  140.5051  159.6162 C   0  0  0  0  0  0  0  0  0  0  0  0
  153.9993  141.7115  160.1402 N   0  0  0  0  0  0  0  0  0  0  0  0
  152.9880  142.4090  159.5853 C   0  0  0  0  0  0  0  0  0  0  0  0
  152.4944  143.6077  159.8507 N   0  5  0  0  0  0  0  0  0  0  0  0
  151.4700  143.8219  158.9880 C   0  0  0  0  0  0  0  0  0  0  0  0
  151.2581  142.7952  158.1409 N   0  0  0  0  0  0  0  0  0  0  0  0
  152.2251  141.9089  158.5278 C   0  0  0  0  0  0  0  0  0  0  0  0
  153.5200  138.9399  156.1758 H   0  0  0  0  0  0  0  0  0  0  0  0
  152.5215  139.4921  154.1922 H   0  0  0  0  0  0  0  0  0  0  0  0
  151.7023  137.9439  154.3547 H   0  0  0  0  0  0  0  0  0  0  0  0
  149.7553  138.9854  155.3488 H   0  0  0  0  0  0  0  0  0  0  0  0
  149.7081  139.6894  153.2772 H   0  0  0  0  0  0  0  0  0  0  0  0
  151.2932  141.5785  155.7537 H   0  0  0  0  0  0  0  0  0  0  0  0
  149.9666  140.9009  156.7178 H   0  0  0  0  0  0  0  0  0  0  0  0
  155.0337  139.9342  160.0520 H   0  0  0  0  0  0  0  0  0  0  0  0
  150.9150  144.7511  159.0309 H   0  0  0  0  0  0  0  0  0  0  0  0
  1  2  2  0  0  0  0
  2  3  1  0  0  0  0
  2  4  1  0  0  0  0
  4  5  1  0  0  0  0
  4 19  1  0  0  0  0
  4  9  1  0  0  0  0
  5  6  1  0  0  0  0
  5 20  1  0  0  0  0
  5 21  1  0  0  0  0
  6  7  1  0  0  0  0
  6  8  1  0  0  0  0
  6 22  1  0  0  0  0
  7 23  1  0  0  0  0
  8 24  1  0  0  0  0
  8 25  1  0  0  0  0
  8  9  1  0  0  0  0
  9 10  1  0  0  0  0
 10 11  1  0  0  0  0
 10 18  2  0  0  0  0
 11 12  2  0  0  0  0
 12 26  1  0  0  0  0
 12 13  1  0  0  0  0
 13 14  2  0  0  0  0
 14 15  1  0  0  0  0
 14 18  1  0  0  0  0
 15 16  1  0  0  0  0
 16 17  2  0  0  0  0
 16 27  1  0  0  0  0
 17 18  1  0  0  0  0
M  CHG  1   3  -1
M  CHG  1  15  -1
M  END
> <s_m_source_file>
AV-unprocessed.smi

> <i_m_source_file_index>
66

> <i_lp_mmshare_version>
43012

> <i_f3d_flags>
0

> <s_epik_input>
Tz1DKFtPSF0pW0NAQEhdMVtDSDJdW0NAQEhdKFtPSF0pW0NIMl1OMWMobltjSF1uMiljKGMyMylbbkhdW2NIXW4z

> <s_epik_cmdline>
J2VwaWtfcHl0aG9uJywgJy1waCcsICc3LjAnLCAnLXRuJywgJzgnLCAnLW1hJywgJzIwMCcsICctbWV0YWxfYmluZGluZycsICctaW1hZScsICc8aW5maWxlLm1hZT4nLCAnLW9tYWUnLCAnPG91dGZpbGUubWFlPic=

> <r_lp_tautomer_probability>
0.955585

> <r_epik_Ionization_Penalty>
7.65809

> <r_epik_Ionization_Penalty_Charging>
3.4974

> <r_epik_Ionization_Penalty_Neutral>
4.16069

> <r_epik_State_Penalty>
3.51624

> <r_epik_Charging_Adjusted_Penalty>
7.01364

> <i_epik_Tot_Q>
-2

> <i_epik_Tot_abs_Q>
2

> <r_epik_Metal_State_Penalty>
0.522662

> <b_epik_Metal_Only>
1

> <s_lp_Force_Field>
OPLS_2005

> <r_lp_Energy>
43.3227

> <b_lp_Chiralities_Consistent>
1

> <s_lp_Variant>
AV-unprocessed.smi:66-12

> <Gold.Version>
5.8.1

> <Gold.Id.Protein>
6NUR|6NUR_protein|mol2

> <Gold.PLP.Fitness>
42.8746

> <Gold.PLP.PLP>
-31.1966

> <Gold.PLP.part.hbond>
-3.8133

> <Gold.PLP.part.metal>
0.0000

> <Gold.PLP.part.buried>
-4.0464

> <Gold.PLP.part.nonpolar>
-22.6046

> <Gold.PLP.part.repulsive>
0.0764

> <Gold.PLP.ligand.clash>
0.0000

> <Gold.PLP.ligand.torsion>
0.0859

> <Gold.PLP.Chemscore.Hbond>
3.8989

> <Gold.PLP.Chemscore.CHOScore>
0.0000

> <Gold.PLP.Chemscore.Metal>
0.0000

> <Gold.Chemscore.Hbonds>
donor molecule, donor type, donor heavy atom, donor atom, acceptor molecule, acceptor atom, score
      L1  H     7    23       P1  7957  0.29
      P1  H  7989  7998       L1     7  0.53
      P1  H  7997  8010       L1    11  0.99
      P1  H 10752 10763       L1     1  2.00

> <Gold.PLP.Chemscore.Internal.Correction>
0.1532

> <Gold.Rescore>
     Score         DG    S(hbond)    S(metal)    S(lipo)     H(rot)  DE(clash)    DE(int)     intcor
      9.56     -10.81       1.71        0.00      35.70       1.78       0.01       1.24       ----

> <Gold.Chemscore.Fitness>
9.5640

> <Gold.Chemscore.DG>
-10.8124

> <Gold.Chemscore.ZeroCoef>
-5.4800

> <Gold.Chemscore.Hbond>
1.7068

> <Gold.Chemscore.Metal>
0.0000

> <Gold.Chemscore.Lipo>
35.6994

> <Gold.Chemscore.Internal_Hbond>
0.0000

> <Gold.Chemscore.DEClash>
0.0077

> <Gold.Chemscore.DEInternal>
1.2407

> <Gold.Chemscore.Rot>
1.7754

> <Gold.Chemscore.Internal.Correction>
   9.000000E+99

> <Gold.Chemscore.Hbonds>
donor molecule, donor type, donor heavy atom, donor atom, acceptor molecule, acceptor atom, score
      L1  H     7    23       P1  7957  0.28
      P1  H  7989  7998       L1     7  0.05
      P1  H  7997  8010       L1    11  0.07
      P1  H 10752 10763       L1     1  0.98

> <Gold.Chemscore.Hbond.Weighted>
-5.7007

> <Gold.Chemscore.Metal.Weighted>
-0.0000

> <Gold.Chemscore.Lipo.Weighted>
-4.1768

> <Gold.Chemscore.Internal_Hbond.Weighted>
0.0000

> <Gold.Chemscore.DEClash.Weighted>
0.0077

> <Gold.Chemscore.DEInternal.Weighted>
1.2407

> <Gold.Chemscore.Rot.Weighted>
4.5451

> <Gold.Chemscore.Internal.Correction.Weighted>
   9.000000E+99

> <Gold.Protein.RotatedTorsions>
[ 6907 6896 6895 6894 ] final  167.27 input  -60.11 | X-H torsion
[ 7974 7965 7964 7962 ] final   18.75 input  175.53 | X-H torsion
[ 8008 7997 7996 7995 ] final   13.15 input   59.86 | X-H torsion
[ 10167 10162 10161 10158 ] final  -32.54 input  -65.29 | X-H torsion
[ 10718 10713 10712 10709 ] final  106.79 input   66.30 | X-H torsion
[ 10763 10752 10751 10750 ] final   90.40 input  -60.55 | X-H torsion
[ 11005 11000 10999 10996 ] final  137.88 input  -57.11 | X-H torsion

> <Gold.Protein.ActiveResidues>
 VAL166  LYS551  ARG553  GLY616  TRP617  ASP618  TYR619  PRO620  LYS621  CYS622 
 ASP623  PHE694  ASN695  SER759  ASP760  ASP761  ALA762  ILE779  LEU786  VAL792 
 PHE793  MET794  SER795  GLU796  ALA797  LYS798  CYS799  TRP800  GLU811  SER814 

> <Gold.Protein.RotatedAtoms>
  151.8660  133.3466  159.3718 H   0  0  0  0  0  0  0  0  0  0  0  0  # atno 6907 bound_to 6896
  150.7166  134.5160  159.5639 H   0  0  0  0  0  0  0  0  0  0  0  0  # atno 6908 bound_to 6896
  152.2683  134.7961  160.0470 H   0  0  0  0  0  0  0  0  0  0  0  0  # atno 6909 bound_to 6896
  146.2174  139.8412  142.8640 H   0  0  0  0  0  0  0  0  0  0  0  0  # atno 7974 bound_to 7965
  154.8304  140.2898  155.5726 H   0  0  0  0  0  0  0  0  0  0  0  0  # atno 8008 bound_to 7997
  156.3005  140.2533  156.3159 H   0  0  0  0  0  0  0  0  0  0  0  0  # atno 8009 bound_to 7997
  154.9237  140.0385  157.2001 H   0  0  0  0  0  0  0  0  0  0  0  0  # atno 8010 bound_to 7997
  140.7219  143.3687  151.1820 H   0  0  0  0  0  0  0  0  0  0  0  0  # atno 10167 bound_to 10162
  157.6654  131.0858  150.6059 H   0  0  0  0  0  0  0  0  0  0  0  0  # atno 10718 bound_to 10713
  153.1972  135.4435  155.0222 H   0  0  0  0  0  0  0  0  0  0  0  0  # atno 10763 bound_to 10752
  154.8125  135.3301  154.7267 H   0  0  0  0  0  0  0  0  0  0  0  0  # atno 10764 bound_to 10752
  153.7716  135.6984  153.4961 H   0  0  0  0  0  0  0  0  0  0  0  0  # atno 10765 bound_to 10752
  140.0145  134.9424  157.0347 H   0  0  0  0  0  0  0  0  0  0  0  0  # atno 11005 bound_to 11000
  145.2897  141.0163  143.3670 LP  0  0  0  0  0  0  0  0  0  0  0  0  # atno 17320 bound_to 7965
  144.9087  139.4556  143.6597 LP  0  0  0  0  0  0  0  0  0  0  0  0  # atno 17321 bound_to 7965
  139.7254  143.9156  152.3001 LP  0  0  0  0  0  0  0  0  0  0  0  0  # atno 17342 bound_to 10162
  139.8927  144.6956  150.8752 LP  0  0  0  0  0  0  0  0  0  0  0  0  # atno 17343 bound_to 10162
  156.6360  130.4445  149.5769 LP  0  0  0  0  0  0  0  0  0  0  0  0  # atno 17370 bound_to 10713
  156.2245  130.6757  151.1402 LP  0  0  0  0  0  0  0  0  0  0  0  0  # atno 17371 bound_to 10713
  140.4496  134.1596  155.7180 LP  0  0  0  0  0  0  0  0  0  0  0  0  # atno 17394 bound_to 11000
  141.1733  133.8564  157.1501 LP  0  0  0  0  0  0  0  0  0  0  0  0  # atno 17395 bound_to 11000

$$$$
