AV-unprocessed.smi:1855|AV-procd|sdf|7532|dock5
  -GOLD-   22720 9243D 1   1.00000     0.00000
 Structure written by MMmdl.
 44 46  0  0  0  0  0  0  0  0  2 V2000
  140.9883  141.3100  154.8356 C   0  0  0  0  0  0  0  0  0  0  0  0
  141.4465  139.9802  154.6442 O   0  0  0  0  0  0  0  0  0  0  0  0
  140.5176  139.0030  154.3492 C   0  0  0  0  0  0  0  0  0  0  0  0
  139.1259  139.2479  154.2329 C   0  0  0  0  0  0  0  0  0  0  0  0
  138.2394  138.1970  153.9341 C   0  0  0  0  0  0  0  0  0  0  0  0
  138.7307  136.8937  153.7467 C   0  0  0  0  0  0  0  0  0  0  0  0
  140.1096  136.6394  153.8598 C   0  0  0  0  0  0  0  0  0  0  0  0
  141.0095  137.6910  154.1630 C   0  0  0  0  0  0  0  0  0  0  0  0
  142.3701  137.5192  154.2877 O   0  0  0  0  0  0  0  0  0  0  0  0
  142.9150  136.2152  154.1481 C   0  0  0  0  0  0  0  0  0  0  0  0
  142.9032  135.8350  152.6601 C   0  0  0  0  0  0  0  0  0  0  0  0
  144.2442  135.4704  152.1737 N   0  0  0  0  0  0  0  0  0  0  0  0
  145.4141  136.1731  152.1950 C   0  0  0  0  0  0  0  0  0  0  0  0
  145.6399  137.5426  152.7555 C   0  0  0  0  0  0  0  0  0  0  0  0
  147.0448  137.9324  152.7527 N   0  0  0  0  0  0  0  0  0  0  0  0
  147.5216  139.0884  153.2359 C   0  0  0  0  0  0  0  0  0  0  0  0
  146.8301  139.9624  153.7557 O   0  0  0  0  0  0  0  0  0  0  0  0
  146.3622  135.3958  151.5988 N   0  3  0  0  0  0  0  0  0  0  0  0
  145.7953  134.1903  151.1854 C   0  0  0  0  0  0  0  0  0  0  0  0
  146.3557  133.0981  150.5300 C   0  0  0  0  0  0  0  0  0  0  0  0
  145.4911  132.0225  150.2397 C   0  0  0  0  0  0  0  0  0  0  0  0
  144.1291  132.0573  150.6021 C   0  0  0  0  0  0  0  0  0  0  0  0
  143.5748  133.1673  151.2720 C   0  0  0  0  0  0  0  0  0  0  0  0
  144.4350  134.2293  151.5523 C   0  0  0  0  0  0  0  0  0  0  0  0
  141.8383  141.9517  155.0673 H   0  0  0  0  0  0  0  0  0  0  0  0
  140.2893  141.3750  155.6705 H   0  0  0  0  0  0  0  0  0  0  0  0
  140.5145  141.7021  153.9349 H   0  0  0  0  0  0  0  0  0  0  0  0
  138.7122  140.2354  154.3687 H   0  0  0  0  0  0  0  0  0  0  0  0
  137.1808  138.3924  153.8471 H   0  0  0  0  0  0  0  0  0  0  0  0
  138.0500  136.0879  153.5143 H   0  0  0  0  0  0  0  0  0  0  0  0
  140.4553  135.6288  153.7045 H   0  0  0  0  0  0  0  0  0  0  0  0
  143.9408  136.1896  154.5193 H   0  0  0  0  0  0  0  0  0  0  0  0
  142.3282  135.4959  154.7209 H   0  0  0  0  0  0  0  0  0  0  0  0
  142.2390  134.9875  152.4933 H   0  0  0  0  0  0  0  0  0  0  0  0
  142.5116  136.6499  152.0514 H   0  0  0  0  0  0  0  0  0  0  0  0
  145.0835  138.2608  152.1531 H   0  0  0  0  0  0  0  0  0  0  0  0
  145.2344  137.6113  153.7655 H   0  0  0  0  0  0  0  0  0  0  0  0
  147.7004  137.2826  152.3436 H   0  0  0  0  0  0  0  0  0  0  0  0
  148.6129  139.1485  153.1049 H   0  0  0  0  0  0  0  0  0  0  0  0
  147.3981  133.0702  150.2492 H   0  0  0  0  0  0  0  0  0  0  0  0
  145.8794  131.1544  149.7272 H   0  0  0  0  0  0  0  0  0  0  0  0
  143.4954  131.2165  150.3598 H   0  0  0  0  0  0  0  0  0  0  0  0
  142.5281  133.1858  151.5365 H   0  0  0  0  0  0  0  0  0  0  0  0
  147.3271  135.6759  151.4798 H   0  0  0  0  0  0  0  0  0  0  0  0
  1  2  1  0  0  0  0
  1 25  1  0  0  0  0
  1 26  1  0  0  0  0
  1 27  1  0  0  0  0
  2  3  1  0  0  0  0
  3  8  1  0  0  0  0
  3  4  2  0  0  0  0
  4  5  1  0  0  0  0
  4 28  1  0  0  0  0
  5  6  2  0  0  0  0
  5 29  1  0  0  0  0
  6  7  1  0  0  0  0
  6 30  1  0  0  0  0
  7  8  2  0  0  0  0
  7 31  1  0  0  0  0
  8  9  1  0  0  0  0
  9 10  1  0  0  0  0
 10 11  1  0  0  0  0
 10 32  1  0  0  0  0
 10 33  1  0  0  0  0
 11 12  1  0  0  0  0
 11 34  1  0  0  0  0
 11 35  1  0  0  0  0
 12 24  1  0  0  0  0
 12 13  1  0  0  0  0
 13 14  1  0  0  0  0
 13 18  2  0  0  0  0
 14 15  1  0  0  0  0
 14 36  1  0  0  0  0
 14 37  1  0  0  0  0
 15 16  1  0  0  0  0
 15 38  1  0  0  0  0
 16 17  2  0  0  0  0
 16 39  1  0  0  0  0
 18 19  1  0  0  0  0
 18 44  1  0  0  0  0
 19 24  2  0  0  0  0
 19 20  1  0  0  0  0
 20 21  2  0  0  0  0
 20 40  1  0  0  0  0
 21 22  1  0  0  0  0
 21 41  1  0  0  0  0
 22 23  2  0  0  0  0
 22 42  1  0  0  0  0
 23 24  1  0  0  0  0
 23 43  1  0  0  0  0
M  CHG  1  18   1
M  END
> <s_m_source_file>
AV-unprocessed.smi

> <i_m_source_file_index>
1855

> <i_lp_mmshare_version>
43012

> <i_f3d_flags>
0

> <s_epik_input>
W0NIM11PYzFbY0hdW2NIXVtjSF1bY0hdYzFPW0NIMl1bQ0gyXW4oYyhuMilbQ0gyXVtOSF1bQ0hdPU8pYyhjMjMpW2NIXVtjSF1bY0hdW2NIXTM=

> <s_epik_cmdline>
J2VwaWtfcHl0aG9uJywgJy1waCcsICc3LjAnLCAnLXRuJywgJzgnLCAnLW1hJywgJzIwMCcsICctbWV0YWxfYmluZGluZycsICctaW1hZScsICc8aW5maWxlLm1hZT4nLCAnLW9tYWUnLCAnPG91dGZpbGUubWFlPic=

> <r_lp_tautomer_probability>
1

> <r_epik_Ionization_Penalty>
1.39865

> <r_epik_Ionization_Penalty_Charging>
1.39865

> <r_epik_Ionization_Penalty_Neutral>
7.38905e-08

> <r_epik_State_Penalty>
1.48061

> <r_epik_Charging_Adjusted_Penalty>
2.87925

> <i_epik_Tot_Q>
1

> <i_epik_Tot_abs_Q>
1

> <r_epik_Metal_State_Penalty>
1.53473

> <b_epik_Metal_Only>
0

> <s_lp_Force_Field>
OPLS_2005

> <r_lp_Energy>
17.0983

> <b_lp_Chiralities_Consistent>
1

> <s_lp_Variant>
AV-unprocessed.smi:1855-2

> <Gold.Version>
5.8.1

> <Gold.Id.Protein>
6NUR|6NUR_protein|mol2

> <Gold.PLP.Fitness>
50.1745

> <Gold.PLP.PLP>
-41.9939

> <Gold.PLP.part.hbond>
-2.0000

> <Gold.PLP.part.metal>
0.0000

> <Gold.PLP.part.buried>
-7.9867

> <Gold.PLP.part.nonpolar>
-33.6674

> <Gold.PLP.part.repulsive>
1.3080

> <Gold.PLP.ligand.clash>
0.0000

> <Gold.PLP.ligand.torsion>
0.4952

> <Gold.PLP.Chemscore.Hbond>
3.0000

> <Gold.PLP.Chemscore.CHOScore>
0.0000

> <Gold.PLP.Chemscore.Metal>
0.0000

> <Gold.Chemscore.Hbonds>
donor molecule, donor type, donor heavy atom, donor atom, acceptor molecule, acceptor atom, score
      L1  H    15    38       P1  7948  1.00
      L1  H    18    44       P1  7948  2.00

> <Gold.PLP.Chemscore.Internal.Correction>
0.1711

> <Gold.Rescore>
     Score         DG    S(hbond)    S(metal)    S(lipo)     H(rot)  DE(clash)    DE(int)     intcor
     16.86     -17.58       1.98        0.00     108.27       2.81       0.20       0.51       ----

> <Gold.Chemscore.Fitness>
16.8601

> <Gold.Chemscore.DG>
-17.5777

> <Gold.Chemscore.ZeroCoef>
-5.4800

> <Gold.Chemscore.Hbond>
1.9837

> <Gold.Chemscore.Metal>
0.0000

> <Gold.Chemscore.Lipo>
108.2698

> <Gold.Chemscore.Internal_Hbond>
0.0000

> <Gold.Chemscore.DEClash>
0.2029

> <Gold.Chemscore.DEInternal>
0.5146

> <Gold.Chemscore.Rot>
2.8108

> <Gold.Chemscore.Internal.Correction>
   9.000000E+99

> <Gold.Chemscore.Hbonds>
donor molecule, donor type, donor heavy atom, donor atom, acceptor molecule, acceptor atom, score
      L1  H    15    38       P1  7948  1.00
      L1  H    18    44       P1  7948  0.98

> <Gold.Chemscore.Hbond.Weighted>
-6.6257

> <Gold.Chemscore.Metal.Weighted>
-0.0000

> <Gold.Chemscore.Lipo.Weighted>
-12.6676

> <Gold.Chemscore.Internal_Hbond.Weighted>
0.0000

> <Gold.Chemscore.DEClash.Weighted>
0.2029

> <Gold.Chemscore.DEInternal.Weighted>
0.5146

> <Gold.Chemscore.Rot.Weighted>
7.1955

> <Gold.Chemscore.Internal.Correction.Weighted>
   9.000000E+99

> <Gold.Protein.RotatedTorsions>
[ 6907 6896 6895 6894 ] final   63.06 input  -60.11 | X-H torsion
[ 7974 7965 7964 7962 ] final  160.56 input  175.53 | X-H torsion
[ 8008 7997 7996 7995 ] final  103.63 input   59.86 | X-H torsion
[ 10167 10162 10161 10158 ] final -175.09 input  -65.29 | X-H torsion
[ 10718 10713 10712 10709 ] final  -70.28 input   66.30 | X-H torsion
[ 10763 10752 10751 10750 ] final  154.48 input  -60.55 | X-H torsion
[ 11005 11000 10999 10996 ] final  150.01 input  -57.11 | X-H torsion

> <Gold.Protein.ActiveResidues>
 VAL166  LYS551  ARG553  GLY616  TRP617  ASP618  TYR619  PRO620  LYS621  CYS622 
 ASP623  PHE694  ASN695  SER759  ASP760  ASP761  ALA762  ILE779  LEU786  VAL792 
 PHE793  MET794  SER795  GLU796  ALA797  LYS798  CYS799  TRP800  GLU811  SER814 

> <Gold.Protein.RotatedAtoms>
  152.4223  134.5933  159.9979 H   0  0  0  0  0  0  0  0  0  0  0  0  # atno 6907 bound_to 6896
  151.6079  133.3344  159.3069 H   0  0  0  0  0  0  0  0  0  0  0  0  # atno 6908 bound_to 6896
  150.8111  134.7304  159.6754 H   0  0  0  0  0  0  0  0  0  0  0  0  # atno 6909 bound_to 6896
  144.7730  139.7775  143.6289 H   0  0  0  0  0  0  0  0  0  0  0  0  # atno 7974 bound_to 7965
  156.1501  140.3161  155.8634 H   0  0  0  0  0  0  0  0  0  0  0  0  # atno 8008 bound_to 7997
  155.3987  140.0498  157.3055 H   0  0  0  0  0  0  0  0  0  0  0  0  # atno 8009 bound_to 7997
  154.5051  140.2144  155.9279 H   0  0  0  0  0  0  0  0  0  0  0  0  # atno 8010 bound_to 7997
  139.5599  144.1895  152.1222 H   0  0  0  0  0  0  0  0  0  0  0  0  # atno 10167 bound_to 10162
  156.0415  130.4328  150.2273 H   0  0  0  0  0  0  0  0  0  0  0  0  # atno 10718 bound_to 10713
  154.1530  135.2814  155.3130 H   0  0  0  0  0  0  0  0  0  0  0  0  # atno 10763 bound_to 10752
  154.6203  135.5469  153.7572 H   0  0  0  0  0  0  0  0  0  0  0  0  # atno 10764 bound_to 10752
  153.0215  135.6437  154.1673 H   0  0  0  0  0  0  0  0  0  0  0  0  # atno 10765 bound_to 10752
  140.1094  134.8933  157.1914 H   0  0  0  0  0  0  0  0  0  0  0  0  # atno 11005 bound_to 11000
  146.1891  139.5121  142.9817 LP  0  0  0  0  0  0  0  0  0  0  0  0  # atno 17320 bound_to 7965
  145.6267  141.0312  143.1885 LP  0  0  0  0  0  0  0  0  0  0  0  0  # atno 17321 bound_to 7965
  140.1407  144.5205  150.6746 LP  0  0  0  0  0  0  0  0  0  0  0  0  # atno 17342 bound_to 10162
  140.6877  143.2359  151.5215 LP  0  0  0  0  0  0  0  0  0  0  0  0  # atno 17343 bound_to 10162
  157.0367  131.0023  151.3296 LP  0  0  0  0  0  0  0  0  0  0  0  0  # atno 17370 bound_to 10713
  157.5238  130.8015  149.7839 LP  0  0  0  0  0  0  0  0  0  0  0  0  # atno 17371 bound_to 10713
  140.3111  134.3023  155.7266 LP  0  0  0  0  0  0  0  0  0  0  0  0  # atno 17394 bound_to 11000
  141.2126  133.7651  156.9778 LP  0  0  0  0  0  0  0  0  0  0  0  0  # atno 17395 bound_to 11000

$$$$
