AV-unprocessed.smi:1039|AV-procd|sdf|4522|dock9
  -GOLD-   22720 2543D 1   1.00000     0.00000
 Structure written by MMmdl.
 40 41  0  0  0  0  0  0  0  0  1 V2000
  152.5253  142.8981  163.0997 C   0  0  0  0  0  0  0  0  0  0  0  0
  153.0932  142.9726  161.6759 C   0  0  0  0  0  0  0  0  0  0  0  0
  152.0292  143.4433  160.6605 C   0  0  0  0  0  0  0  0  0  0  0  0
  152.5778  143.4121  159.2225 C   0  0  0  0  0  0  0  0  0  0  0  0
  153.0473  142.0480  158.9234 N   0  0  0  0  0  0  0  0  0  0  0  0
  152.3938  141.1291  158.1687 C   0  0  0  0  0  0  0  0  0  0  0  0
  152.8255  139.9952  157.9562 O   0  0  0  0  0  0  0  0  0  0  0  0
  151.2492  141.5690  157.6241 N   0  0  0  0  0  0  0  0  0  0  0  0
  150.3481  140.7716  156.8017 C   0  0  0  0  0  0  0  0  0  0  0  0
  149.7679  141.5906  155.6349 C   0  0  0  0  0  0  0  0  0  0  0  0
  148.8904  140.7926  154.7146 C   0  0  0  0  0  0  0  0  0  0  0  0
  149.2940  139.6841  154.1014 N   0  0  0  0  0  0  0  0  0  0  0  0
  148.1873  139.2528  153.3799 C   0  0  0  0  0  0  0  0  0  0  0  0
  147.1458  140.1255  153.5797 C   0  0  0  0  0  0  0  0  0  0  0  0
  147.6118  141.1191  154.4337 N   0  0  0  0  0  0  0  0  0  0  0  0
  146.8545  142.2637  154.9161 C   0  0  0  0  0  0  0  0  0  0  0  0
  146.3398  142.9517  153.8964 F   0  0  0  0  0  0  0  0  0  0  0  0
  145.8722  141.8594  155.7203 F   0  0  0  0  0  0  0  0  0  0  0  0
  154.1857  141.6821  159.7747 C   0  0  0  0  0  0  0  0  0  0  0  0
  153.7171  141.6291  161.2403 C   0  0  0  0  0  0  0  0  0  0  0  0
  151.7167  142.1695  163.1662 H   0  0  0  0  0  0  0  0  0  0  0  0
  152.1301  143.8639  163.4156 H   0  0  0  0  0  0  0  0  0  0  0  0
  153.2955  142.6068  163.8143 H   0  0  0  0  0  0  0  0  0  0  0  0
  153.8912  143.7165  161.6798 H   0  0  0  0  0  0  0  0  0  0  0  0
  151.1474  142.8039  160.7236 H   0  0  0  0  0  0  0  0  0  0  0  0
  151.6969  144.4521  160.9075 H   0  0  0  0  0  0  0  0  0  0  0  0
  151.8161  143.7804  158.5356 H   0  0  0  0  0  0  0  0  0  0  0  0
  153.4128  144.1079  159.1272 H   0  0  0  0  0  0  0  0  0  0  0  0
  150.9667  142.5179  157.8222 H   0  0  0  0  0  0  0  0  0  0  0  0
  150.8614  139.8886  156.4183 H   0  0  0  0  0  0  0  0  0  0  0  0
  149.5360  140.4170  157.4380 H   0  0  0  0  0  0  0  0  0  0  0  0
  149.2112  142.4386  156.0318 H   0  0  0  0  0  0  0  0  0  0  0  0
  150.5829  142.0183  155.0500 H   0  0  0  0  0  0  0  0  0  0  0  0
  148.2246  138.3559  152.7796 H   0  0  0  0  0  0  0  0  0  0  0  0
  146.1385  140.1209  153.1899 H   0  0  0  0  0  0  0  0  0  0  0  0
  147.5047  142.9393  155.4721 H   0  0  0  0  0  0  0  0  0  0  0  0
  154.6328  140.7289  159.4891 H   0  0  0  0  0  0  0  0  0  0  0  0
  154.9766  142.4244  159.6602 H   0  0  0  0  0  0  0  0  0  0  0  0
  154.5579  141.3801  161.8885 H   0  0  0  0  0  0  0  0  0  0  0  0
  152.9878  140.8262  161.3576 H   0  0  0  0  0  0  0  0  0  0  0  0
  1  2  1  0  0  0  0
  1 21  1  0  0  0  0
  1 22  1  0  0  0  0
  1 23  1  0  0  0  0
  2 20  1  0  0  0  0
  2  3  1  0  0  0  0
  2 24  1  0  0  0  0
  3  4  1  0  0  0  0
  3 25  1  0  0  0  0
  3 26  1  0  0  0  0
  4  5  1  0  0  0  0
  4 27  1  0  0  0  0
  4 28  1  0  0  0  0
  5  6  1  0  0  0  0
  5 19  1  0  0  0  0
  6  7  2  0  0  0  0
  6  8  1  0  0  0  0
  8  9  1  0  0  0  0
  8 29  1  0  0  0  0
  9 10  1  0  0  0  0
  9 30  1  0  0  0  0
  9 31  1  0  0  0  0
 10 11  1  0  0  0  0
 10 32  1  0  0  0  0
 10 33  1  0  0  0  0
 11 15  1  0  0  0  0
 11 12  2  0  0  0  0
 12 13  1  0  0  0  0
 13 14  2  0  0  0  0
 13 34  1  0  0  0  0
 14 15  1  0  0  0  0
 14 35  1  0  0  0  0
 15 16  1  0  0  0  0
 16 17  1  0  0  0  0
 16 18  1  0  0  0  0
 16 36  1  0  0  0  0
 19 20  1  0  0  0  0
 19 37  1  0  0  0  0
 19 38  1  0  0  0  0
 20 39  1  0  0  0  0
 20 40  1  0  0  0  0
M  END
> <s_m_source_file>
AV-unprocessed.smi

> <i_m_source_file_index>
1039

> <i_lp_mmshare_version>
43012

> <i_f3d_flags>
0

> <s_epik_input>
W0NIM11bQ0hdMVtDSDJdW0NIMl1OKFtDSDJdW0NIMl0xKUMoPU8pW05IXVtDSDJdW0NIMl1jMm5bY0hdW2NIXW4yW0NIXShGKUY=

> <s_epik_cmdline>
J2VwaWtfcHl0aG9uJywgJy1waCcsICc3LjAnLCAnLXRuJywgJzgnLCAnLW1hJywgJzIwMCcsICctbWV0YWxfYmluZGluZycsICctaW1hZScsICc8aW5maWxlLm1hZT4nLCAnLW9tYWUnLCAnPG91dGZpbGUubWFlPic=

> <r_lp_tautomer_probability>
1

> <r_epik_Ionization_Penalty>
0.101783

> <r_epik_Ionization_Penalty_Charging>
0.101715

> <r_epik_Ionization_Penalty_Neutral>
6.87123e-05

> <r_epik_State_Penalty>
0.091697

> <r_epik_Charging_Adjusted_Penalty>
0.193412

> <i_epik_Tot_Q>
0

> <i_epik_Tot_abs_Q>
0

> <r_epik_Metal_State_Penalty>
0.0781553

> <b_epik_Metal_Only>
0

> <s_lp_Force_Field>
OPLS_2005

> <r_lp_Energy>
33.8957

> <b_lp_Chiralities_Consistent>
1

> <s_lp_Variant>
AV-unprocessed.smi:1039-1

> <Gold.Version>
5.8.1

> <Gold.Id.Protein>
6NUR|6NUR_protein|mol2

> <Gold.PLP.Fitness>
49.7890

> <Gold.PLP.PLP>
-41.2890

> <Gold.PLP.part.hbond>
-1.0000

> <Gold.PLP.part.metal>
0.0000

> <Gold.PLP.part.buried>
-0.3446

> <Gold.PLP.part.nonpolar>
-39.5689

> <Gold.PLP.part.repulsive>
0.8519

> <Gold.PLP.ligand.clash>
0.0000

> <Gold.PLP.ligand.torsion>
0.2783

> <Gold.PLP.Chemscore.Hbond>
0.9913

> <Gold.PLP.Chemscore.CHOScore>
2.0057

> <Gold.PLP.Chemscore.Metal>
0.0000

> <Gold.Chemscore.Hbonds>
donor molecule, donor type, donor heavy atom, donor atom, acceptor molecule, acceptor atom, score
      P1  H  7997  8008       L1     7  1.00
      L1  C    13    34       P1  7948  1.00
      L1  C    13    34       P1  7957  0.02
      L1  C    14    35       P1 10175  0.88

> <Gold.PLP.Chemscore.Internal.Correction>
0.0657

> <Gold.Rescore>
     Score         DG    S(hbond)    S(metal)    S(lipo)     H(rot)  DE(clash)    DE(int)     intcor
     14.55     -15.81       0.81        0.00      99.38       1.56       0.99       0.28       ----

> <Gold.Chemscore.Fitness>
14.5489

> <Gold.Chemscore.DG>
-15.8105

> <Gold.Chemscore.ZeroCoef>
-5.4800

> <Gold.Chemscore.Hbond>
0.8095

> <Gold.Chemscore.Metal>
0.0000

> <Gold.Chemscore.Lipo>
99.3782

> <Gold.Chemscore.Internal_Hbond>
0.0000

> <Gold.Chemscore.DEClash>
0.9855

> <Gold.Chemscore.DEInternal>
0.2760

> <Gold.Chemscore.Rot>
1.5626

> <Gold.Chemscore.Internal.Correction>
   9.000000E+99

> <Gold.Chemscore.Hbonds>
donor molecule, donor type, donor heavy atom, donor atom, acceptor molecule, acceptor atom, score
      P1  H  7997  8008       L1     7  0.71

> <Gold.Chemscore.Hbond.Weighted>
-2.7036

> <Gold.Chemscore.Metal.Weighted>
-0.0000

> <Gold.Chemscore.Lipo.Weighted>
-11.6273

> <Gold.Chemscore.Internal_Hbond.Weighted>
0.0000

> <Gold.Chemscore.DEClash.Weighted>
0.9855

> <Gold.Chemscore.DEInternal.Weighted>
0.2760

> <Gold.Chemscore.Rot.Weighted>
4.0004

> <Gold.Chemscore.Internal.Correction.Weighted>
   9.000000E+99

> <Gold.Protein.RotatedTorsions>
[ 6907 6896 6895 6894 ] final   28.04 input  -60.11 | X-H torsion
[ 7974 7965 7964 7962 ] final  -78.77 input  175.53 | X-H torsion
[ 8008 7997 7996 7995 ] final  -73.29 input   59.86 | X-H torsion
[ 10167 10162 10161 10158 ] final   61.29 input  -65.29 | X-H torsion
[ 10718 10713 10712 10709 ] final  173.50 input   66.30 | X-H torsion
[ 10763 10752 10751 10750 ] final  -76.46 input  -60.55 | X-H torsion
[ 11005 11000 10999 10996 ] final -129.90 input  -57.11 | X-H torsion

> <Gold.Protein.ActiveResidues>
 VAL166  LYS551  ARG553  GLY616  TRP617  ASP618  TYR619  PRO620  LYS621  CYS622 
 ASP623  PHE694  ASN695  SER759  ASP760  ASP761  ALA762  ILE779  LEU786  VAL792 
 PHE793  MET794  SER795  GLU796  ALA797  LYS798  CYS799  TRP800  GLU811  SER814 

> <Gold.Protein.RotatedAtoms>
  152.0111  134.9875  160.0567 H   0  0  0  0  0  0  0  0  0  0  0  0  # atno 6907 bound_to 6896
  152.1428  133.4469  159.4783 H   0  0  0  0  0  0  0  0  0  0  0  0  # atno 6908 bound_to 6896
  150.6867  134.2203  159.4437 H   0  0  0  0  0  0  0  0  0  0  0  0  # atno 6909 bound_to 6896
  145.5821  140.9446  143.1338 H   0  0  0  0  0  0  0  0  0  0  0  0  # atno 7974 bound_to 7965
  154.5235  140.0782  156.8216 H   0  0  0  0  0  0  0  0  0  0  0  0  # atno 8008 bound_to 7997
  155.3524  140.3413  155.4221 H   0  0  0  0  0  0  0  0  0  0  0  0  # atno 8009 bound_to 7997
  156.1707  140.1619  156.8439 H   0  0  0  0  0  0  0  0  0  0  0  0  # atno 8010 bound_to 7997
  140.1564  144.4413  150.6732 H   0  0  0  0  0  0  0  0  0  0  0  0  # atno 10167 bound_to 10162
  156.9634  131.0068  151.2922 H   0  0  0  0  0  0  0  0  0  0  0  0  # atno 10718 bound_to 10713
  154.5001  135.5797  153.6525 H   0  0  0  0  0  0  0  0  0  0  0  0  # atno 10763 bound_to 10752
  152.9877  135.6133  154.3013 H   0  0  0  0  0  0  0  0  0  0  0  0  # atno 10764 bound_to 10752
  154.2920  135.2848  155.2630 H   0  0  0  0  0  0  0  0  0  0  0  0  # atno 10765 bound_to 10752
  140.9392  134.1216  157.4166 H   0  0  0  0  0  0  0  0  0  0  0  0  # atno 11005 bound_to 11000
  144.7389  139.7505  143.7318 LP  0  0  0  0  0  0  0  0  0  0  0  0  # atno 17320 bound_to 7965
  146.1709  139.4859  142.9928 LP  0  0  0  0  0  0  0  0  0  0  0  0  # atno 17321 bound_to 7965
  140.6670  143.2271  151.5718 LP  0  0  0  0  0  0  0  0  0  0  0  0  # atno 17342 bound_to 10162
  139.5401  144.2670  152.1334 LP  0  0  0  0  0  0  0  0  0  0  0  0  # atno 17343 bound_to 10162
  157.5642  130.8266  149.8306 LP  0  0  0  0  0  0  0  0  0  0  0  0  # atno 17370 bound_to 10713
  156.0313  130.3764  150.1681 LP  0  0  0  0  0  0  0  0  0  0  0  0  # atno 17371 bound_to 10713
  139.8816  135.0031  156.6165 LP  0  0  0  0  0  0  0  0  0  0  0  0  # atno 17394 bound_to 11000
  140.7758  133.8701  155.8528 LP  0  0  0  0  0  0  0  0  0  0  0  0  # atno 17395 bound_to 11000

$$$$
