AV-unprocessed.smi:234|AV-procd|sdf|1786|dock6
  -GOLD-   2262020343D 1   1.00000     0.00000
 Structure written by MMmdl.
 59 62  0  0  0  0  0  0  0  0  1 V2000
  152.4824  144.6751  158.4596 C   0  0  0  0  0  0  0  0  0  0  0  0
  151.8625  143.2722  158.5118 C   0  0  0  0  0  0  0  0  0  0  0  0
  150.6450  143.2105  157.7817 O   0  0  0  0  0  0  0  0  0  0  0  0
  149.9384  141.9849  157.9210 C   0  0  1  0  0  0  0  0  0  0  0  0
  148.8119  141.7829  156.9042 C   0  0  0  0  0  0  0  0  0  0  0  0
  149.2441  140.3142  156.8893 C   0  0  1  0  0  0  0  0  0  0  0  0
  149.1300  139.6814  155.5729 N   0  0  0  0  0  0  0  0  0  0  0  0
  147.7948  139.2570  155.1724 C   0  0  0  0  0  0  0  0  0  0  0  0
  150.0335  138.7084  155.3108 C   0  0  0  0  0  0  0  0  0  0  0  0
  150.9589  138.8773  154.3293 N   0  0  0  0  0  0  0  0  0  0  0  0
  151.8482  137.9121  154.0766 C   0  0  0  0  0  0  0  0  0  0  0  0
  151.9862  136.7264  154.6742 N   0  0  0  0  0  0  0  0  0  0  0  0
  151.0610  136.5575  155.6622 C   0  0  0  0  0  0  0  0  0  0  0  0
  150.0634  137.4954  156.0482 C   0  0  0  0  0  0  0  0  0  0  0  0
  149.3051  136.9845  157.0933 N   0  0  0  0  0  0  0  0  0  0  0  0
  149.8227  135.8064  157.3111 C   0  0  0  0  0  0  0  0  0  0  0  0
  150.8730  135.4631  156.4886 N   0  0  0  0  0  0  0  0  0  0  0  0
  151.6172  134.2125  156.5075 C   0  0  0  0  0  0  0  0  0  0  0  0
  150.7095  132.9548  156.4572 C   0  0  1  0  0  0  0  0  0  0  0  0
  150.0508  132.8409  157.7083 O   0  0  0  0  0  0  0  0  0  0  0  0
  149.6386  133.0147  155.3711 C   0  0  0  0  0  0  0  0  0  0  0  0
  149.4025  131.5493  155.0403 C   0  0  0  0  0  0  0  0  0  0  0  0
  150.7146  131.0167  155.0782 O   0  0  0  0  0  0  0  0  0  0  0  0
  151.4184  131.5999  156.1724 C   0  0  1  0  0  0  0  0  0  0  0  0
  152.9050  131.6631  155.7880 C   0  0  0  0  0  0  0  0  0  0  0  0
  150.6763  140.7794  157.2865 C   0  0  0  0  0  0  0  0  0  0  0  0
  151.6569  141.1290  156.1515 C   0  0  0  0  0  0  0  0  0  0  0  0
  151.4316  139.8864  158.2709 C   0  0  0  0  0  0  0  0  0  0  0  0
  153.3633  144.7306  159.0995 H   0  0  0  0  0  0  0  0  0  0  0  0
  151.7731  145.4272  158.8054 H   0  0  0  0  0  0  0  0  0  0  0  0
  152.7942  144.9448  157.4511 H   0  0  0  0  0  0  0  0  0  0  0  0
  152.5697  142.5174  158.1656 H   0  0  0  0  0  0  0  0  0  0  0  0
  151.6348  143.0283  159.5497 H   0  0  0  0  0  0  0  0  0  0  0  0
  149.6211  141.7749  158.9444 H   0  0  0  0  0  0  0  0  0  0  0  0
  147.8095  141.9594  157.2944 H   0  0  0  0  0  0  0  0  0  0  0  0
  148.9793  142.3075  155.9619 H   0  0  0  0  0  0  0  0  0  0  0  0
  148.7547  139.7552  157.6898 H   0  0  0  0  0  0  0  0  0  0  0  0
  147.7968  138.8351  154.1660 H   0  0  0  0  0  0  0  0  0  0  0  0
  147.1081  140.1036  155.1721 H   0  0  0  0  0  0  0  0  0  0  0  0
  147.4072  138.5042  155.8605 H   0  0  0  0  0  0  0  0  0  0  0  0
  152.5481  138.1187  153.2805 H   0  0  0  0  0  0  0  0  0  0  0  0
  149.4435  135.1455  158.0772 H   0  0  0  0  0  0  0  0  0  0  0  0
  152.3082  134.2224  155.6642 H   0  0  0  0  0  0  0  0  0  0  0  0
  152.2303  134.2007  157.4096 H   0  0  0  0  0  0  0  0  0  0  0  0
  149.2172  133.2821  157.6483 H   0  0  0  0  0  0  0  0  0  0  0  0
  148.7316  133.5419  155.6705 H   0  0  0  0  0  0  0  0  0  0  0  0
  150.0326  133.5086  154.4824 H   0  0  0  0  0  0  0  0  0  0  0  0
  148.7830  131.0673  155.7980 H   0  0  0  0  0  0  0  0  0  0  0  0
  148.9365  131.4049  154.0653 H   0  0  0  0  0  0  0  0  0  0  0  0
  151.3132  130.9287  157.0269 H   0  0  0  0  0  0  0  0  0  0  0  0
  153.5075  132.0845  156.5926 H   0  0  0  0  0  0  0  0  0  0  0  0
  153.0620  132.2631  154.8913 H   0  0  0  0  0  0  0  0  0  0  0  0
  153.2905  130.6640  155.5834 H   0  0  0  0  0  0  0  0  0  0  0  0
  152.0633  140.2356  155.6775 H   0  0  0  0  0  0  0  0  0  0  0  0
  152.5047  141.7050  156.5234 H   0  0  0  0  0  0  0  0  0  0  0  0
  151.1867  141.7225  155.3676 H   0  0  0  0  0  0  0  0  0  0  0  0
  151.8499  139.0075  157.7795 H   0  0  0  0  0  0  0  0  0  0  0  0
  150.7797  139.5297  159.0688 H   0  0  0  0  0  0  0  0  0  0  0  0
  152.2560  140.4230  158.7416 H   0  0  0  0  0  0  0  0  0  0  0  0
  1  2  1  0  0  0  0
  1 29  1  0  0  0  0
  1 30  1  0  0  0  0
  1 31  1  0  0  0  0
  2  3  1  0  0  0  0
  2 32  1  0  0  0  0
  2 33  1  0  0  0  0
  3  4  1  0  0  0  0
  4 26  1  0  0  0  0
  4  5  1  0  0  0  0
  4 34  1  0  0  0  0
  5  6  1  0  0  0  0
  5 35  1  0  0  0  0
  5 36  1  0  0  0  0
  6  7  1  0  0  0  0
  6 26  1  0  0  0  0
  6 37  1  0  0  0  0
  7  8  1  0  0  0  0
  7  9  1  0  0  0  0
  8 38  1  0  0  0  0
  8 39  1  0  0  0  0
  8 40  1  0  0  0  0
  9 14  1  0  0  0  0
  9 10  2  0  0  0  0
 10 11  1  0  0  0  0
 11 12  2  0  0  0  0
 11 41  1  0  0  0  0
 12 13  1  0  0  0  0
 13 17  1  0  0  0  0
 13 14  2  0  0  0  0
 14 15  1  0  0  0  0
 15 16  2  0  0  0  0
 16 17  1  0  0  0  0
 16 42  1  0  0  0  0
 17 18  1  0  0  0  0
 18 19  1  0  0  0  0
 18 43  1  0  0  0  0
 18 44  1  0  0  0  0
 19 24  1  0  0  0  0
 19 20  1  0  0  0  0
 19 21  1  0  0  0  0
 20 45  1  0  0  0  0
 21 22  1  0  0  0  0
 21 46  1  0  0  0  0
 21 47  1  0  0  0  0
 22 23  1  0  0  0  0
 22 48  1  0  0  0  0
 22 49  1  0  0  0  0
 23 24  1  0  0  0  0
 24 25  1  0  0  0  0
 24 50  1  0  0  0  0
 25 51  1  0  0  0  0
 25 52  1  0  0  0  0
 25 53  1  0  0  0  0
 26 27  1  0  0  0  0
 26 28  1  0  0  0  0
 27 54  1  0  0  0  0
 27 55  1  0  0  0  0
 27 56  1  0  0  0  0
 28 57  1  0  0  0  0
 28 58  1  0  0  0  0
 28 59  1  0  0  0  0
M  END
> <s_m_source_file>
AV-unprocessed.smi

> <i_m_source_file_index>
234

> <i_lp_mmshare_version>
43012

> <i_f3d_flags>
0

> <s_epik_input>
W0NIM11bQ0gyXU9bQ0BASF0oQzEoW0NIM10pW0NIM10pW0NIMl1bQ0BIXTFOKFtDSDNdKWMobltjSF1uMiljKGMyMyluW2NIXW4zW0NIMl1bQ0BAXTQoW09IXSlbQ0gyXVtDSDJdT1tDQEhdNFtDSDNd

> <s_epik_cmdline>
J2VwaWtfcHl0aG9uJywgJy1waCcsICc3LjAnLCAnLXRuJywgJzgnLCAnLW1hJywgJzIwMCcsICctbWV0YWxfYmluZGluZycsICctaW1hZScsICc8aW5maWxlLm1hZT4nLCAnLW9tYWUnLCAnPG91dGZpbGUubWFlPic=

> <r_lp_tautomer_probability>
1

> <r_epik_Ionization_Penalty>
0.00349132

> <r_epik_Ionization_Penalty_Charging>
0

> <r_epik_Ionization_Penalty_Neutral>
0.00349132

> <r_epik_State_Penalty>
0.00242418

> <r_epik_Charging_Adjusted_Penalty>
0.00242418

> <i_epik_Tot_Q>
0

> <i_epik_Tot_abs_Q>
0

> <r_epik_Metal_State_Penalty>
-0

> <b_epik_Metal_Only>
0

> <s_lp_Force_Field>
OPLS_2005

> <r_lp_Energy>
47.6345

> <b_lp_Chiralities_Consistent>
1

> <s_lp_Variant>
AV-unprocessed.smi:234-2

> <Gold.Version>
5.8.1

> <Gold.Id.Protein>
6NUR|6NUR_protein|mol2

> <Gold.PLP.Fitness>
39.4018

> <Gold.PLP.PLP>
-32.5032

> <Gold.PLP.part.hbond>
-2.3665

> <Gold.PLP.part.metal>
0.0000

> <Gold.PLP.part.buried>
-6.0923

> <Gold.PLP.part.nonpolar>
-24.2514

> <Gold.PLP.part.repulsive>
0.5567

> <Gold.PLP.ligand.clash>
0.0000

> <Gold.PLP.ligand.torsion>
0.6829

> <Gold.PLP.Chemscore.Hbond>
2.5200

> <Gold.PLP.Chemscore.CHOScore>
0.0000

> <Gold.PLP.Chemscore.Metal>
0.0000

> <Gold.Chemscore.Hbonds>
donor molecule, donor type, donor heavy atom, donor atom, acceptor molecule, acceptor atom, score
      P1  H  6896  6907       L1    20  1.00
      P1  H  7989  7998       L1    10  0.46
      P1  H 10752 10763       L1    12  0.83

> <Gold.PLP.Chemscore.Internal.Correction>
0.7044

> <Gold.Rescore>
     Score         DG    S(hbond)    S(metal)    S(lipo)     H(rot)  DE(clash)    DE(int)     intcor
     12.48     -15.30       2.08        0.00      82.04       2.62       0.25       2.58       ----

> <Gold.Chemscore.Fitness>
12.4775

> <Gold.Chemscore.DG>
-15.3026

> <Gold.Chemscore.ZeroCoef>
-5.4800

> <Gold.Chemscore.Hbond>
2.0767

> <Gold.Chemscore.Metal>
0.0000

> <Gold.Chemscore.Lipo>
82.0376

> <Gold.Chemscore.Internal_Hbond>
0.0000

> <Gold.Chemscore.DEClash>
0.2495

> <Gold.Chemscore.DEInternal>
2.5756

> <Gold.Chemscore.Rot>
2.6219

> <Gold.Chemscore.Internal.Correction>
   9.000000E+99

> <Gold.Chemscore.Hbonds>
donor molecule, donor type, donor heavy atom, donor atom, acceptor molecule, acceptor atom, score
      P1  H  6896  6907       L1    20  0.52
      P1  H  7989  7998       L1    10  0.36
      P1  H 10752 10763       L1    12  0.75

> <Gold.Chemscore.Hbond.Weighted>
-6.9363

> <Gold.Chemscore.Metal.Weighted>
-0.0000

> <Gold.Chemscore.Lipo.Weighted>
-9.5984

> <Gold.Chemscore.Internal_Hbond.Weighted>
0.0000

> <Gold.Chemscore.DEClash.Weighted>
0.2495

> <Gold.Chemscore.DEInternal.Weighted>
2.5756

> <Gold.Chemscore.Rot.Weighted>
6.7121

> <Gold.Chemscore.Internal.Correction.Weighted>
   9.000000E+99

> <Gold.Protein.RotatedTorsions>
[ 6907 6896 6895 6894 ] final -134.10 input  -60.11 | X-H torsion
[ 7974 7965 7964 7962 ] final   59.67 input  175.53 | X-H torsion
[ 8008 7997 7996 7995 ] final -140.48 input   59.86 | X-H torsion
[ 10167 10162 10161 10158 ] final  133.38 input  -65.29 | X-H torsion
[ 10718 10713 10712 10709 ] final  171.57 input   66.30 | X-H torsion
[ 10763 10752 10751 10750 ] final   53.71 input  -60.55 | X-H torsion
[ 11005 11000 10999 10996 ] final  -46.85 input  -57.11 | X-H torsion

> <Gold.Protein.ActiveResidues>
 VAL166  LYS551  ARG553  GLY616  TRP617  ASP618  TYR619  PRO620  LYS621  CYS622 
 ASP623  PHE694  ASN695  SER759  ASP760  ASP761  ALA762  ILE779  LEU786  VAL792 
 PHE793  MET794  SER795  GLU796  ALA797  LYS798  CYS799  TRP800  GLU811  SER814 

> <Gold.Protein.RotatedAtoms>
  150.9818  133.6237  159.2721 H   0  0  0  0  0  0  0  0  0  0  0  0  # atno 6907 bound_to 6896
  151.3489  135.0879  159.9406 H   0  0  0  0  0  0  0  0  0  0  0  0  # atno 6908 bound_to 6896
  152.5218  133.9415  159.7683 H   0  0  0  0  0  0  0  0  0  0  0  0  # atno 6909 bound_to 6896
  145.9046  139.3607  143.0572 H   0  0  0  0  0  0  0  0  0  0  0  0  # atno 7974 bound_to 7965
  155.4621  140.0546  157.2989 H   0  0  0  0  0  0  0  0  0  0  0  0  # atno 8008 bound_to 7997
  154.4733  140.2050  155.9895 H   0  0  0  0  0  0  0  0  0  0  0  0  # atno 8009 bound_to 7997
  156.1091  140.3207  155.8052 H   0  0  0  0  0  0  0  0  0  0  0  0  # atno 8010 bound_to 7997
  139.5299  144.6618  151.4988 H   0  0  0  0  0  0  0  0  0  0  0  0  # atno 10167 bound_to 10162
  156.9917  131.0149  151.2855 H   0  0  0  0  0  0  0  0  0  0  0  0  # atno 10718 bound_to 10713
  152.9797  135.5769  154.4786 H   0  0  0  0  0  0  0  0  0  0  0  0  # atno 10763 bound_to 10752
  154.4338  135.2774  155.1896 H   0  0  0  0  0  0  0  0  0  0  0  0  # atno 10764 bound_to 10752
  154.3594  135.6192  153.5736 H   0  0  0  0  0  0  0  0  0  0  0  0  # atno 10765 bound_to 10752
  141.0604  133.6711  156.3214 H   0  0  0  0  0  0  0  0  0  0  0  0  # atno 11005 bound_to 11000
  145.8748  140.9398  143.0632 LP  0  0  0  0  0  0  0  0  0  0  0  0  # atno 17320 bound_to 7965
  144.6738  140.0702  143.7473 LP  0  0  0  0  0  0  0  0  0  0  0  0  # atno 17321 bound_to 7965
  140.6470  143.8774  150.6747 LP  0  0  0  0  0  0  0  0  0  0  0  0  # atno 17342 bound_to 10162
  140.2126  143.3871  152.1706 LP  0  0  0  0  0  0  0  0  0  0  0  0  # atno 17343 bound_to 10162
  157.5454  130.8147  149.8079 LP  0  0  0  0  0  0  0  0  0  0  0  0  # atno 17370 bound_to 10713
  156.0205  130.3797  150.1978 LP  0  0  0  0  0  0  0  0  0  0  0  0  # atno 17371 bound_to 10713
  140.5879  134.5680  157.5493 LP  0  0  0  0  0  0  0  0  0  0  0  0  # atno 17394 bound_to 11000
  139.9428  134.7756  156.0636 LP  0  0  0  0  0  0  0  0  0  0  0  0  # atno 17395 bound_to 11000

$$$$
