AV-unprocessed.smi:3116|AV-procd|sdf|11876|dock1
  -GOLD-   2272017263D 1   1.00000     0.00000
 Structure written by MMmdl.
 33 33  0  0  0  0  0  0  0  0  1 V2000
  145.1716  137.8063  154.0428 C   0  0  0  0  0  0  0  0  0  0  0  0
  146.0148  137.8968  152.7612 C   0  0  2  0  0  0  0  0  0  0  0  0
  146.5684  136.5692  152.4386 N   0  0  0  0  0  0  0  0  0  0  0  0
  145.6377  135.6299  151.8131 C   0  0  1  0  0  0  0  0  0  0  0  0
  145.2273  136.2071  150.4431 C   0  0  0  0  0  0  0  0  0  0  0  0
  146.3320  134.2457  151.7126 C   0  0  1  0  0  0  0  0  0  0  0  0
  146.8970  133.7647  153.0622 C   0  0  0  0  0  0  0  0  0  0  0  0
  145.4383  133.2306  151.1689 N   0  0  0  0  0  0  0  0  0  0  0  0
  145.7309  131.9332  150.7973 C   0  0  0  0  0  0  0  0  0  0  0  0
  144.5745  131.3672  150.3434 C   0  0  0  0  0  0  0  0  0  0  0  0
  143.6151  132.4094  150.4749 C   0  0  0  0  0  0  0  0  0  0  0  0
  144.1345  133.5222  150.9670 N   0  0  0  0  0  0  0  0  0  0  0  0
  147.0887  138.9891  152.8969 C   0  0  0  0  0  0  0  0  0  0  0  0
  148.3635  138.6113  152.7734 N   0  0  0  0  0  0  0  0  0  0  0  0
  146.7721  140.1544  153.1284 O   0  0  0  0  0  0  0  0  0  0  0  0
  144.7342  138.7719  154.2994 H   0  0  0  0  0  0  0  0  0  0  0  0
  145.7664  137.4729  154.8944 H   0  0  0  0  0  0  0  0  0  0  0  0
  144.3497  137.1004  153.9186 H   0  0  0  0  0  0  0  0  0  0  0  0
  145.3404  138.1806  151.9508 H   0  0  0  0  0  0  0  0  0  0  0  0
  147.4199  136.6328  151.8986 H   0  0  0  0  0  0  0  0  0  0  0  0
  144.7406  135.5109  152.4225 H   0  0  0  0  0  0  0  0  0  0  0  0
  144.4724  135.5898  149.9563 H   0  0  0  0  0  0  0  0  0  0  0  0
  146.0828  136.2748  149.7702 H   0  0  0  0  0  0  0  0  0  0  0  0
  144.8019  137.2060  150.5371 H   0  0  0  0  0  0  0  0  0  0  0  0
  147.1720  134.3395  151.0209 H   0  0  0  0  0  0  0  0  0  0  0  0
  147.6530  134.4494  153.4463 H   0  0  0  0  0  0  0  0  0  0  0  0
  147.3684  132.7866  152.9610 H   0  0  0  0  0  0  0  0  0  0  0  0
  146.1138  133.6802  153.8160 H   0  0  0  0  0  0  0  0  0  0  0  0
  146.7269  131.5255  150.8880 H   0  0  0  0  0  0  0  0  0  0  0  0
  144.4349  130.3625  149.9733 H   0  0  0  0  0  0  0  0  0  0  0  0
  142.5637  132.3914  150.2286 H   0  0  0  0  0  0  0  0  0  0  0  0
  149.1021  139.2944  152.8570 H   0  0  0  0  0  0  0  0  0  0  0  0
  148.5839  137.6416  152.5983 H   0  0  0  0  0  0  0  0  0  0  0  0
  1  2  1  0  0  0  0
  1 16  1  0  0  0  0
  1 17  1  0  0  0  0
  1 18  1  0  0  0  0
  2  3  1  0  0  0  0
  2 13  1  0  0  0  0
  2 19  1  0  0  0  0
  3  4  1  0  0  0  0
  3 20  1  0  0  0  0
  4  5  1  0  0  0  0
  4  6  1  0  0  0  0
  4 21  1  0  0  0  0
  5 22  1  0  0  0  0
  5 23  1  0  0  0  0
  5 24  1  0  0  0  0
  6  7  1  0  0  0  0
  6  8  1  0  0  0  0
  6 25  1  0  0  0  0
  7 26  1  0  0  0  0
  7 27  1  0  0  0  0
  7 28  1  0  0  0  0
  8 12  1  0  0  0  0
  8  9  1  0  0  0  0
  9 10  2  0  0  0  0
  9 29  1  0  0  0  0
 10 11  1  0  0  0  0
 10 30  1  0  0  0  0
 11 12  2  0  0  0  0
 11 31  1  0  0  0  0
 13 14  1  0  0  0  0
 13 15  2  0  0  0  0
 14 32  1  0  0  0  0
 14 33  1  0  0  0  0
M  END
> <s_m_source_file>
AV-unprocessed.smi

> <i_m_source_file_index>
3116

> <i_lp_mmshare_version>
43012

> <i_f3d_flags>
0

> <s_epik_input>
W05IMl1DKD1PKVtDQEhdKFtDSDNdKVtOSF1bQ0BIXShbQ0gzXSlbQ0BIXShbQ0gzXSluMVtjSF1bY0hdW2NIXW4x

> <s_epik_cmdline>
J2VwaWtfcHl0aG9uJywgJy1waCcsICc3LjAnLCAnLXRuJywgJzgnLCAnLW1hJywgJzIwMCcsICctbWV0YWxfYmluZGluZycsICctaW1hZScsICc8aW5maWxlLm1hZT4nLCAnLW9tYWUnLCAnPG91dGZpbGUubWFlPic=

> <r_lp_tautomer_probability>
1

> <r_epik_Ionization_Penalty>
0.865977

> <r_epik_Ionization_Penalty_Charging>
0

> <r_epik_Ionization_Penalty_Neutral>
0.865977

> <r_epik_State_Penalty>
0.901888

> <r_epik_Charging_Adjusted_Penalty>
0.901888

> <i_epik_Tot_Q>
0

> <i_epik_Tot_abs_Q>
0

> <r_epik_Metal_State_Penalty>
0.901181

> <b_epik_Metal_Only>
0

> <s_lp_Force_Field>
OPLS_2005

> <r_lp_Energy>
9.22902

> <b_lp_Chiralities_Consistent>
1

> <s_lp_Variant>
AV-unprocessed.smi:3116-15

> <Gold.Version>
5.8.1

> <Gold.Id.Protein>
6NUR|6NUR_protein|mol2

> <Gold.PLP.Fitness>
37.1406

> <Gold.PLP.PLP>
-24.5768

> <Gold.PLP.part.hbond>
-2.7030

> <Gold.PLP.part.metal>
0.0000

> <Gold.PLP.part.buried>
-0.9079

> <Gold.PLP.part.nonpolar>
-21.6889

> <Gold.PLP.part.repulsive>
0.4673

> <Gold.PLP.ligand.clash>
0.0000

> <Gold.PLP.ligand.torsion>
0.3112

> <Gold.PLP.Chemscore.Hbond>
2.2400

> <Gold.PLP.Chemscore.CHOScore>
2.1227

> <Gold.PLP.Chemscore.Metal>
0.0000

> <Gold.Chemscore.Hbonds>
donor molecule, donor type, donor heavy atom, donor atom, acceptor molecule, acceptor atom, score
      L1  H     3    20       P1  7948  0.91
      L1  H    14    32       P1  7957  0.24
      L1  H    14    33       P1  7948  1.00
      L1  C     9    29       P1 10747  1.00
      L1  C    11    31       P1 10186  0.71
      L1  C    11    31       P1 10952  0.43

> <Gold.PLP.Chemscore.Internal.Correction>
0.0982

> <Gold.Rescore>
     Score         DG    S(hbond)    S(metal)    S(lipo)     H(rot)  DE(clash)    DE(int)     intcor
     11.53     -13.70       2.21        0.00      59.40       2.38       0.49       1.68       ----

> <Gold.Chemscore.Fitness>
11.5291

> <Gold.Chemscore.DG>
-13.6963

> <Gold.Chemscore.ZeroCoef>
-5.4800

> <Gold.Chemscore.Hbond>
2.2061

> <Gold.Chemscore.Metal>
0.0000

> <Gold.Chemscore.Lipo>
59.4016

> <Gold.Chemscore.Internal_Hbond>
0.0000

> <Gold.Chemscore.DEClash>
0.4873

> <Gold.Chemscore.DEInternal>
1.6800

> <Gold.Chemscore.Rot>
2.3836

> <Gold.Chemscore.Internal.Correction>
   9.000000E+99

> <Gold.Chemscore.Hbonds>
donor molecule, donor type, donor heavy atom, donor atom, acceptor molecule, acceptor atom, score
      L1  H     3    20       P1  7948  0.86
      L1  H    14    32       P1  7957  0.24
      L1  H    14    33       P1  7948  0.99

> <Gold.Chemscore.Hbond.Weighted>
-7.3683

> <Gold.Chemscore.Metal.Weighted>
-0.0000

> <Gold.Chemscore.Lipo.Weighted>
-6.9500

> <Gold.Chemscore.Internal_Hbond.Weighted>
0.0000

> <Gold.Chemscore.DEClash.Weighted>
0.4873

> <Gold.Chemscore.DEInternal.Weighted>
1.6800

> <Gold.Chemscore.Rot.Weighted>
6.1020

> <Gold.Chemscore.Internal.Correction.Weighted>
   9.000000E+99

> <Gold.Protein.RotatedTorsions>
[ 6907 6896 6895 6894 ] final -174.00 input  -60.11 | X-H torsion
[ 7974 7965 7964 7962 ] final -120.38 input  175.53 | X-H torsion
[ 8008 7997 7996 7995 ] final   15.66 input   59.86 | X-H torsion
[ 10167 10162 10161 10158 ] final   18.42 input  -65.29 | X-H torsion
[ 10718 10713 10712 10709 ] final   32.66 input   66.30 | X-H torsion
[ 10763 10752 10751 10750 ] final  -41.08 input  -60.55 | X-H torsion
[ 11005 11000 10999 10996 ] final   24.41 input  -57.11 | X-H torsion

> <Gold.Protein.ActiveResidues>
 VAL166  LYS551  ARG553  GLY616  TRP617  ASP618  TYR619  PRO620  LYS621  CYS622 
 ASP623  PHE694  ASN695  SER759  ASP760  ASP761  ALA762  ILE779  LEU786  VAL792 
 PHE793  MET794  SER795  GLU796  ALA797  LYS798  CYS799  TRP800  GLU811  SER814 

> <Gold.Protein.RotatedAtoms>
  151.5653  133.3397  159.2978 H   0  0  0  0  0  0  0  0  0  0  0  0  # atno 6907 bound_to 6896
  150.8399  134.7689  159.6934 H   0  0  0  0  0  0  0  0  0  0  0  0  # atno 6908 bound_to 6896
  152.4468  134.5484  159.9911 H   0  0  0  0  0  0  0  0  0  0  0  0  # atno 6909 bound_to 6896
  145.0520  140.8226  143.4203 H   0  0  0  0  0  0  0  0  0  0  0  0  # atno 7974 bound_to 7965
  154.8659  140.2951  155.5511 H   0  0  0  0  0  0  0  0  0  0  0  0  # atno 8008 bound_to 7997
  156.3021  140.2469  156.3573 H   0  0  0  0  0  0  0  0  0  0  0  0  # atno 8009 bound_to 7997
  154.8869  140.0396  157.1804 H   0  0  0  0  0  0  0  0  0  0  0  0  # atno 8010 bound_to 7997
  140.5655  143.9259  150.6673 H   0  0  0  0  0  0  0  0  0  0  0  0  # atno 10167 bound_to 10162
  157.2881  130.7288  149.6594 H   0  0  0  0  0  0  0  0  0  0  0  0  # atno 10718 bound_to 10713
  153.9566  135.6744  153.4744 H   0  0  0  0  0  0  0  0  0  0  0  0  # atno 10763 bound_to 10752
  153.0858  135.4899  154.8591 H   0  0  0  0  0  0  0  0  0  0  0  0  # atno 10764 bound_to 10752
  154.7296  135.3135  154.8873 H   0  0  0  0  0  0  0  0  0  0  0  0  # atno 10765 bound_to 10752
  140.3590  134.2146  155.7673 H   0  0  0  0  0  0  0  0  0  0  0  0  # atno 11005 bound_to 11000
  145.1515  139.2511  143.5438 LP  0  0  0  0  0  0  0  0  0  0  0  0  # atno 17320 bound_to 7965
  146.3518  140.1219  142.8600 LP  0  0  0  0  0  0  0  0  0  0  0  0  # atno 17321 bound_to 7965
  140.2721  143.3449  152.1228 LP  0  0  0  0  0  0  0  0  0  0  0  0  # atno 17342 bound_to 10162
  139.5091  144.6861  151.5884 LP  0  0  0  0  0  0  0  0  0  0  0  0  # atno 17343 bound_to 10162
  155.9666  130.4317  150.4933 LP  0  0  0  0  0  0  0  0  0  0  0  0  # atno 17370 bound_to 10713
  157.2890  131.0622  151.2147 LP  0  0  0  0  0  0  0  0  0  0  0  0  # atno 17371 bound_to 10713
  141.1990  133.8023  157.0558 LP  0  0  0  0  0  0  0  0  0  0  0  0  # atno 17394 bound_to 11000
  140.0642  134.9738  157.1357 LP  0  0  0  0  0  0  0  0  0  0  0  0  # atno 17395 bound_to 11000

$$$$
