AV-unprocessed.smi:43|AV-procd|sdf|394|dock2
  -GOLD-   2262016253D 1   1.00000     0.00000
 Structure written by MMmdl.
 25 26  0  0  0  0  0  0  0  0  2 V2000
  150.8575  142.3841  158.4878 C   0  0  0  0  0  0  0  0  0  0  0  0
  151.8655  141.3436  158.5845 N   0  0  0  0  0  0  0  0  0  0  0  0
  152.6897  141.3174  159.6621 N   0  0  0  0  0  0  0  0  0  0  0  0
  153.4887  140.3033  159.5061 N   0  0  0  0  0  0  0  0  0  0  0  0
  153.2212  139.6323  158.3312 N   0  0  0  0  0  0  0  0  0  0  0  0
  152.2094  140.3070  157.7962 C   0  0  0  0  0  0  0  0  0  0  0  0
  151.5899  139.9975  156.5766 N   0  0  0  0  0  0  0  0  0  0  0  0
  150.6072  140.7748  155.8168 C   0  0  0  0  0  0  0  0  0  0  0  0
  150.1353  139.9325  154.6313 C   0  0  1  0  0  0  0  0  0  0  0  0
  149.7720  140.7208  153.5171 O   0  0  0  0  0  0  0  0  0  0  0  0
  151.3407  139.0547  154.3603 C   0  0  0  0  0  0  0  0  0  0  0  0
  151.8816  138.8041  155.7721 C   0  0  2  0  0  0  0  0  0  0  0  0
  151.2961  137.5287  156.4047 C   0  0  0  0  0  0  0  0  0  0  0  0
  151.5191  136.4529  155.8084 O   0  0  0  0  0  0  0  0  0  0  0  0
  150.6362  137.6451  157.4620 O   0  5  0  0  0  0  0  0  0  0  0  0
  149.2855  139.3151  154.9252 H   0  0  0  0  0  0  0  0  0  0  0  0
  152.9638  138.6783  155.7146 H   0  0  0  0  0  0  0  0  0  0  0  0
  149.8632  141.9412  158.5387 H   0  0  0  0  0  0  0  0  0  0  0  0
  150.9725  142.9303  157.5523 H   0  0  0  0  0  0  0  0  0  0  0  0
  150.9605  143.0916  159.3116 H   0  0  0  0  0  0  0  0  0  0  0  0
  149.7546  141.0563  156.4331 H   0  0  0  0  0  0  0  0  0  0  0  0
  151.0938  141.6870  155.4695 H   0  0  0  0  0  0  0  0  0  0  0  0
  149.6805  140.1534  152.7673 H   0  0  0  0  0  0  0  0  0  0  0  0
  151.0881  138.1440  153.8153 H   0  0  0  0  0  0  0  0  0  0  0  0
  152.0858  139.5972  153.7765 H   0  0  0  0  0  0  0  0  0  0  0  0
  1  2  1  0  0  0  0
  1 18  1  0  0  0  0
  1 19  1  0  0  0  0
  1 20  1  0  0  0  0
  2  6  1  0  0  0  0
  2  3  1  0  0  0  0
  3  4  2  0  0  0  0
  4  5  1  0  0  0  0
  5  6  2  0  0  0  0
  6  7  1  0  0  0  0
  7 12  1  0  0  0  0
  7  8  1  0  0  0  0
  8  9  1  0  0  0  0
  8 21  1  0  0  0  0
  8 22  1  0  0  0  0
  9 16  1  0  0  0  0
  9 10  1  0  0  0  0
  9 11  1  0  0  0  0
 10 23  1  0  0  0  0
 11 12  1  0  0  0  0
 11 24  1  0  0  0  0
 11 25  1  0  0  0  0
 12 17  1  0  0  0  0
 12 13  1  0  0  0  0
 13 14  2  0  0  0  0
 13 15  1  0  0  0  0
M  CHG  1  15  -1
M  END
> <s_m_source_file>
AV-unprocessed.smi

> <i_m_source_file_index>
43

> <i_lp_mmshare_version>
43012

> <i_f3d_flags>
0

> <s_epik_input>
W0NIM11uMW5ubmMxTjJbQ0gyXVtDQEhdKFtPSF0pW0NIMl1bQ0BIXTJDKD1PKVtPSF0=

> <s_epik_cmdline>
J2VwaWtfcHl0aG9uJywgJy1waCcsICc3LjAnLCAnLXRuJywgJzgnLCAnLW1hJywgJzIwMCcsICctbWV0YWxfYmluZGluZycsICctaW1hZScsICc8aW5maWxlLm1hZT4nLCAnLW9tYWUnLCAnPG91dGZpbGUubWFlPic=

> <r_lp_tautomer_probability>
1

> <r_epik_Ionization_Penalty>
0.000193127

> <r_epik_Ionization_Penalty_Charging>
0.000192933

> <r_epik_Ionization_Penalty_Neutral>
1.93728e-07

> <r_epik_State_Penalty>
-0

> <r_epik_Charging_Adjusted_Penalty>
0.000192933

> <i_epik_Tot_Q>
-1

> <i_epik_Tot_abs_Q>
1

> <r_epik_Metal_State_Penalty>
-0

> <b_epik_Metal_Only>
0

> <s_lp_Force_Field>
OPLS_2005

> <r_lp_Energy>
20.0951

> <b_lp_Chiralities_Consistent>
1

> <s_lp_Variant>
AV-unprocessed.smi:43-4

> <Gold.Version>
5.8.1

> <Gold.Id.Protein>
6NUR|6NUR_protein|mol2

> <Gold.PLP.Fitness>
36.3098

> <Gold.PLP.PLP>
-23.0102

> <Gold.PLP.part.hbond>
-4.5631

> <Gold.PLP.part.metal>
0.0000

> <Gold.PLP.part.buried>
-0.7187

> <Gold.PLP.part.nonpolar>
-16.5021

> <Gold.PLP.part.repulsive>
0.0391

> <Gold.PLP.ligand.clash>
0.0000

> <Gold.PLP.ligand.torsion>
0.0308

> <Gold.PLP.Chemscore.Hbond>
4.4524

> <Gold.PLP.Chemscore.CHOScore>
0.0000

> <Gold.PLP.Chemscore.Metal>
0.0000

> <Gold.Chemscore.Hbonds>
donor molecule, donor type, donor heavy atom, donor atom, acceptor molecule, acceptor atom, score
      L1  H    10    23       P1  7957  0.93
      P1  H  7997  8010       L1     5  1.00
      P1  H  8011  8017       L1    10  0.56
      P1  H 10752 10764       L1    14  1.85

> <Gold.PLP.Chemscore.Internal.Correction>
0.0041

> <Gold.Rescore>
     Score         DG    S(hbond)    S(metal)    S(lipo)     H(rot)  DE(clash)    DE(int)     intcor
     13.78     -14.07       2.62        0.00      35.55       1.69       0.18       0.11       ----

> <Gold.Chemscore.Fitness>
13.7806

> <Gold.Chemscore.DG>
-14.0708

> <Gold.Chemscore.ZeroCoef>
-5.4800

> <Gold.Chemscore.Hbond>
2.6213

> <Gold.Chemscore.Metal>
0.0000

> <Gold.Chemscore.Lipo>
35.5468

> <Gold.Chemscore.Internal_Hbond>
0.0000

> <Gold.Chemscore.DEClash>
0.1811

> <Gold.Chemscore.DEInternal>
0.1091

> <Gold.Chemscore.Rot>
1.6887

> <Gold.Chemscore.Internal.Correction>
   9.000000E+99

> <Gold.Chemscore.Hbonds>
donor molecule, donor type, donor heavy atom, donor atom, acceptor molecule, acceptor atom, score
      L1  H    10    23       P1  7957  0.90
      P1  H  7997  8010       L1     5  0.22
      P1  H  8011  8017       L1    10  0.04
      P1  H 10752 10764       L1    14  0.86

> <Gold.Chemscore.Hbond.Weighted>
-8.7550

> <Gold.Chemscore.Metal.Weighted>
-0.0000

> <Gold.Chemscore.Lipo.Weighted>
-4.1590

> <Gold.Chemscore.Internal_Hbond.Weighted>
0.0000

> <Gold.Chemscore.DEClash.Weighted>
0.1811

> <Gold.Chemscore.DEInternal.Weighted>
0.1091

> <Gold.Chemscore.Rot.Weighted>
4.3232

> <Gold.Chemscore.Internal.Correction.Weighted>
   9.000000E+99

> <Gold.Protein.RotatedTorsions>
[ 6907 6896 6895 6894 ] final -178.84 input  -60.11 | X-H torsion
[ 7974 7965 7964 7962 ] final  -90.76 input  175.53 | X-H torsion
[ 8008 7997 7996 7995 ] final   15.39 input   59.86 | X-H torsion
[ 10167 10162 10161 10158 ] final   41.62 input  -65.29 | X-H torsion
[ 10718 10713 10712 10709 ] final  -76.43 input   66.30 | X-H torsion
[ 10763 10752 10751 10750 ] final  -25.58 input  -60.55 | X-H torsion
[ 11005 11000 10999 10996 ] final  -24.91 input  -57.11 | X-H torsion

> <Gold.Protein.ActiveResidues>
 VAL166  LYS551  ARG553  GLY616  TRP617  ASP618  TYR619  PRO620  LYS621  CYS622 
 ASP623  PHE694  ASN695  SER759  ASP760  ASP761  ALA762  ILE779  LEU786  VAL792 
 PHE793  MET794  SER795  GLU796  ALA797  LYS798  CYS799  TRP800  GLU811  SER814 

> <Gold.Protein.RotatedAtoms>
  151.6437  133.3324  159.3135 H   0  0  0  0  0  0  0  0  0  0  0  0  # atno 6907 bound_to 6896
  150.7995  134.7082  159.6598 H   0  0  0  0  0  0  0  0  0  0  0  0  # atno 6908 bound_to 6896
  152.4086  134.6169  160.0092 H   0  0  0  0  0  0  0  0  0  0  0  0  # atno 6909 bound_to 6896
  145.4222  140.9551  143.2175 H   0  0  0  0  0  0  0  0  0  0  0  0  # atno 7974 bound_to 7965
  154.8620  140.2946  155.5533 H   0  0  0  0  0  0  0  0  0  0  0  0  # atno 8008 bound_to 7997
  156.3020  140.2476  156.3528 H   0  0  0  0  0  0  0  0  0  0  0  0  # atno 8009 bound_to 7997
  154.8908  140.0394  157.1826 H   0  0  0  0  0  0  0  0  0  0  0  0  # atno 8010 bound_to 7997
  140.3625  144.2210  150.6137 H   0  0  0  0  0  0  0  0  0  0  0  0  # atno 10167 bound_to 10162
  156.0175  130.4465  150.3192 H   0  0  0  0  0  0  0  0  0  0  0  0  # atno 10718 bound_to 10713
  153.7022  135.6955  153.5060 H   0  0  0  0  0  0  0  0  0  0  0  0  # atno 10763 bound_to 10752
  153.2334  135.4330  155.0619 H   0  0  0  0  0  0  0  0  0  0  0  0  # atno 10764 bound_to 10752
  154.8341  135.3490  154.6561 H   0  0  0  0  0  0  0  0  0  0  0  0  # atno 10765 bound_to 10752
  140.8889  133.7602  156.0396 H   0  0  0  0  0  0  0  0  0  0  0  0  # atno 11005 bound_to 11000
  144.8238  139.5746  143.6975 LP  0  0  0  0  0  0  0  0  0  0  0  0  # atno 17320 bound_to 7965
  146.2651  139.6500  142.9335 LP  0  0  0  0  0  0  0  0  0  0  0  0  # atno 17321 bound_to 7965
  140.5113  143.2290  151.8531 LP  0  0  0  0  0  0  0  0  0  0  0  0  # atno 17342 bound_to 10162
  139.4812  144.4946  151.9140 LP  0  0  0  0  0  0  0  0  0  0  0  0  # atno 17343 bound_to 10162
  157.1292  131.0267  151.2976 LP  0  0  0  0  0  0  0  0  0  0  0  0  # atno 17370 bound_to 10713
  157.4564  130.7628  149.7197 LP  0  0  0  0  0  0  0  0  0  0  0  0  # atno 17371 bound_to 10713
  140.8371  134.3110  157.5327 LP  0  0  0  0  0  0  0  0  0  0  0  0  # atno 17394 bound_to 11000
  139.8727  134.9395  156.3745 LP  0  0  0  0  0  0  0  0  0  0  0  0  # atno 17395 bound_to 11000

$$$$
