AV-unprocessed.smi:40|AV-procd|sdf|377|dock3
  -GOLD-   2262016223D 1   1.00000     0.00000
 Structure written by MMmdl.
 47 48  0  0  0  0  0  0  0  0  1 V2000
  152.7791  142.7198  161.9374 C   0  0  0  0  0  0  0  0  0  0  0  0
  153.3775  141.9942  160.7275 C   0  0  0  0  0  0  0  0  0  0  0  0
  153.0769  142.7105  159.4030 C   0  0  0  0  0  0  0  0  0  0  0  0
  151.5873  142.6724  159.0365 C   0  0  0  0  0  0  0  0  0  0  0  0
  151.3128  143.2810  157.6524 C   0  0  0  0  0  0  0  0  0  0  0  0
  151.1047  142.2627  156.6832 O   0  0  0  0  0  0  0  0  0  0  0  0
  149.9330  141.5927  156.6213 C   0  0  0  0  0  0  0  0  0  0  0  0
  149.0230  141.7165  157.4409 O   0  0  0  0  0  0  0  0  0  0  0  0
  149.9011  140.6742  155.4962 N   0  0  0  0  0  0  0  0  0  0  0  0
  148.9067  139.8391  155.1109 C   0  0  0  0  0  0  0  0  0  0  0  0
  147.6267  140.1443  155.2594 N   0  0  0  0  0  0  0  0  0  0  0  0
  146.5965  139.3185  154.8964 C   0  0  0  0  0  0  0  0  0  0  0  0
  145.4273  139.6730  155.0388 O   0  0  0  0  0  0  0  0  0  0  0  0
  146.9379  138.0606  154.3462 N   0  0  0  0  0  0  0  0  0  0  0  0
  145.8447  137.1038  153.9236 C   0  0  2  0  0  0  0  0  0  0  0  0
  146.4177  135.8390  153.7704 O   0  0  0  0  0  0  0  0  0  0  0  0
  145.9095  135.2159  152.5983 C   0  0  1  0  0  0  0  0  0  0  0  0
  144.6677  134.3901  152.9861 C   0  0  0  0  0  0  0  0  0  0  0  0
  145.6507  136.3955  151.6507 C   0  0  1  0  0  0  0  0  0  0  0  0
  144.6856  136.0901  150.6630 O   0  0  0  0  0  0  0  0  0  0  0  0
  145.1770  137.5006  152.5856 C   0  0  2  0  0  0  0  0  0  0  0  0
  145.5511  138.7765  152.0952 O   0  0  0  0  0  0  0  0  0  0  0  0
  148.2722  137.7150  154.1967 C   0  0  0  0  0  0  0  0  0  0  0  0
  149.2681  138.5502  154.5612 C   0  0  0  0  0  0  0  0  0  0  0  0
  150.5549  138.1921  154.4089 F   0  0  0  0  0  0  0  0  0  0  0  0
  145.1291  137.0503  154.7448 H   0  0  0  0  0  0  0  0  0  0  0  0
  146.6646  134.5471  152.1841 H   0  0  0  0  0  0  0  0  0  0  0  0
  146.5890  136.6799  151.1717 H   0  0  0  0  0  0  0  0  0  0  0  0
  144.0957  137.4592  152.7247 H   0  0  0  0  0  0  0  0  0  0  0  0
  153.0055  142.1863  162.8609 H   0  0  0  0  0  0  0  0  0  0  0  0
  151.6945  142.7953  161.8540 H   0  0  0  0  0  0  0  0  0  0  0  0
  153.1803  143.7295  162.0293 H   0  0  0  0  0  0  0  0  0  0  0  0
  154.4563  141.9044  160.8594 H   0  0  0  0  0  0  0  0  0  0  0  0
  152.9856  140.9771  160.6908 H   0  0  0  0  0  0  0  0  0  0  0  0
  153.4057  143.7483  159.4700 H   0  0  0  0  0  0  0  0  0  0  0  0
  153.6584  142.2530  158.6017 H   0  0  0  0  0  0  0  0  0  0  0  0
  151.2337  141.6409  159.0545 H   0  0  0  0  0  0  0  0  0  0  0  0
  151.0152  143.2089  159.7945 H   0  0  0  0  0  0  0  0  0  0  0  0
  150.4615  143.9625  157.6884 H   0  0  0  0  0  0  0  0  0  0  0  0
  152.1717  143.8738  157.3376 H   0  0  0  0  0  0  0  0  0  0  0  0
  150.7246  140.7064  154.9128 H   0  0  0  0  0  0  0  0  0  0  0  0
  144.2565  133.8636  152.1247 H   0  0  0  0  0  0  0  0  0  0  0  0
  143.8777  135.0152  153.4033 H   0  0  0  0  0  0  0  0  0  0  0  0
  144.9236  133.6387  153.7334 H   0  0  0  0  0  0  0  0  0  0  0  0
  144.5262  136.8667  150.1485 H   0  0  0  0  0  0  0  0  0  0  0  0
  144.8157  139.3615  152.1914 H   0  0  0  0  0  0  0  0  0  0  0  0
  148.5349  136.7553  153.7758 H   0  0  0  0  0  0  0  0  0  0  0  0
  1  2  1  0  0  0  0
  1 30  1  0  0  0  0
  1 31  1  0  0  0  0
  1 32  1  0  0  0  0
  2  3  1  0  0  0  0
  2 33  1  0  0  0  0
  2 34  1  0  0  0  0
  3  4  1  0  0  0  0
  3 35  1  0  0  0  0
  3 36  1  0  0  0  0
  4  5  1  0  0  0  0
  4 37  1  0  0  0  0
  4 38  1  0  0  0  0
  5  6  1  0  0  0  0
  5 39  1  0  0  0  0
  5 40  1  0  0  0  0
  6  7  1  0  0  0  0
  7  8  2  0  0  0  0
  7  9  1  0  0  0  0
  9 10  1  0  0  0  0
  9 41  1  0  0  0  0
 10 24  1  0  0  0  0
 10 11  2  0  0  0  0
 11 12  1  0  0  0  0
 12 13  2  0  0  0  0
 12 14  1  0  0  0  0
 14 15  1  0  0  0  0
 14 23  1  0  0  0  0
 15 26  1  0  0  0  0
 15 21  1  0  0  0  0
 15 16  1  0  0  0  0
 16 17  1  0  0  0  0
 17 27  1  0  0  0  0
 17 18  1  0  0  0  0
 17 19  1  0  0  0  0
 18 42  1  0  0  0  0
 18 43  1  0  0  0  0
 18 44  1  0  0  0  0
 19 28  1  0  0  0  0
 19 20  1  0  0  0  0
 19 21  1  0  0  0  0
 20 45  1  0  0  0  0
 21 29  1  0  0  0  0
 21 22  1  0  0  0  0
 22 46  1  0  0  0  0
 23 24  2  0  0  0  0
 23 47  1  0  0  0  0
 24 25  1  0  0  0  0
M  END
> <s_m_source_file>
AV-unprocessed.smi

> <i_m_source_file_index>
40

> <i_lp_mmshare_version>
43012

> <i_f3d_flags>
0

> <s_epik_input>
W0NIM11bQ0gyXVtDSDJdW0NIMl1bQ0gyXU9DKD1PKVtOSF1jMW5jKD1PKW4oW2NIXWMxRilbQ0BASF0yT1tDQEhdKFtDSDNdKVtDQEBIXShbT0hdKVtDQEhdMltPSF0=

> <s_epik_cmdline>
J2VwaWtfcHl0aG9uJywgJy1waCcsICc3LjAnLCAnLXRuJywgJzgnLCAnLW1hJywgJzIwMCcsICctbWV0YWxfYmluZGluZycsICctaW1hZScsICc8aW5maWxlLm1hZT4nLCAnLW9tYWUnLCAnPG91dGZpbGUubWFlPic=

> <r_lp_tautomer_probability>
1

> <r_epik_Ionization_Penalty>
2.29506e-06

> <r_epik_Ionization_Penalty_Charging>
8.26867e-09

> <r_epik_Ionization_Penalty_Neutral>
2.2868e-06

> <r_epik_State_Penalty>
-0

> <r_epik_Charging_Adjusted_Penalty>
8.26867e-09

> <i_epik_Tot_Q>
0

> <i_epik_Tot_abs_Q>
0

> <r_epik_Metal_State_Penalty>
-0

> <b_epik_Metal_Only>
0

> <s_epik_Chemistry_Notes>
This compound has an ester and may undergo hydrolysis at high or low pH. This compound contains an acetal/aminal-like group ( X-CH(R)-Y where X, Y are N, S, or O) that may be acid/base labile, releasing an aldehyde.

> <s_lp_Force_Field>
OPLS_2005

> <r_lp_Energy>
38.4453

> <b_lp_Chiralities_Consistent>
1

> <s_lp_Variant>
AV-unprocessed.smi:40-11

> <Gold.Version>
5.8.1

> <Gold.Id.Protein>
6NUR|6NUR_protein|mol2

> <Gold.PLP.Fitness>
41.5393

> <Gold.PLP.PLP>
-34.4677

> <Gold.PLP.part.hbond>
-3.0000

> <Gold.PLP.part.metal>
0.0000

> <Gold.PLP.part.buried>
-3.1892

> <Gold.PLP.part.nonpolar>
-29.6080

> <Gold.PLP.part.repulsive>
0.5734

> <Gold.PLP.ligand.clash>
0.0000

> <Gold.PLP.ligand.torsion>
1.0847

> <Gold.PLP.Chemscore.Hbond>
2.0000

> <Gold.PLP.Chemscore.CHOScore>
1.0000

> <Gold.PLP.Chemscore.Metal>
0.0000

> <Gold.Chemscore.Hbonds>
donor molecule, donor type, donor heavy atom, donor atom, acceptor molecule, acceptor atom, score
      L1  H    20    45       P1 10171  1.00
      L1  H    22    46       P1 10175  1.00
      L1  C    23    47       P1  7948  0.98

> <Gold.PLP.Chemscore.Internal.Correction>
0.2410

> <Gold.Rescore>
     Score         DG    S(hbond)    S(metal)    S(lipo)     H(rot)  DE(clash)    DE(int)     intcor
      9.27     -12.27       1.94        0.00      83.60       3.70       0.29       2.71       ----

> <Gold.Chemscore.Fitness>
9.2692

> <Gold.Chemscore.DG>
-12.2741

> <Gold.Chemscore.ZeroCoef>
-5.4800

> <Gold.Chemscore.Hbond>
1.9383

> <Gold.Chemscore.Metal>
0.0000

> <Gold.Chemscore.Lipo>
83.6012

> <Gold.Chemscore.Internal_Hbond>
0.0000

> <Gold.Chemscore.DEClash>
0.2932

> <Gold.Chemscore.DEInternal>
2.7118

> <Gold.Chemscore.Rot>
3.6957

> <Gold.Chemscore.Internal.Correction>
   9.000000E+99

> <Gold.Chemscore.Hbonds>
donor molecule, donor type, donor heavy atom, donor atom, acceptor molecule, acceptor atom, score
      L1  H    20    45       P1 10171  0.99
      L1  H    22    46       P1 10175  0.98

> <Gold.Chemscore.Hbond.Weighted>
-6.4738

> <Gold.Chemscore.Metal.Weighted>
-0.0000

> <Gold.Chemscore.Lipo.Weighted>
-9.7813

> <Gold.Chemscore.Internal_Hbond.Weighted>
0.0000

> <Gold.Chemscore.DEClash.Weighted>
0.2932

> <Gold.Chemscore.DEInternal.Weighted>
2.7118

> <Gold.Chemscore.Rot.Weighted>
9.4610

> <Gold.Chemscore.Internal.Correction.Weighted>
   9.000000E+99

> <Gold.Protein.RotatedTorsions>
[ 6907 6896 6895 6894 ] final    2.53 input  -60.11 | X-H torsion
[ 7974 7965 7964 7962 ] final  173.40 input  175.53 | X-H torsion
[ 8008 7997 7996 7995 ] final  -47.98 input   59.86 | X-H torsion
[ 10167 10162 10161 10158 ] final  137.09 input  -65.29 | X-H torsion
[ 10718 10713 10712 10709 ] final  -25.99 input   66.30 | X-H torsion
[ 10763 10752 10751 10750 ] final -120.54 input  -60.55 | X-H torsion
[ 11005 11000 10999 10996 ] final  -52.49 input  -57.11 | X-H torsion

> <Gold.Protein.ActiveResidues>
 VAL166  LYS551  ARG553  GLY616  TRP617  ASP618  TYR619  PRO620  LYS621  CYS622 
 ASP623  PHE694  ASN695  SER759  ASP760  ASP761  ALA762  ILE779  LEU786  VAL792 
 PHE793  MET794  SER795  GLU796  ALA797  LYS798  CYS799  TRP800  GLU811  SER814 

> <Gold.Protein.RotatedAtoms>
  151.6104  135.1040  160.0079 H   0  0  0  0  0  0  0  0  0  0  0  0  # atno 6907 bound_to 6896
  152.4211  133.7114  159.6491 H   0  0  0  0  0  0  0  0  0  0  0  0  # atno 6908 bound_to 6896
  150.8099  133.8368  159.3209 H   0  0  0  0  0  0  0  0  0  0  0  0  # atno 6909 bound_to 6896
  144.7244  139.9642  143.6435 H   0  0  0  0  0  0  0  0  0  0  0  0  # atno 7974 bound_to 7965
  154.4023  140.1333  156.4263 H   0  0  0  0  0  0  0  0  0  0  0  0  # atno 8008 bound_to 7997
  155.7594  140.3486  155.5170 H   0  0  0  0  0  0  0  0  0  0  0  0  # atno 8009 bound_to 7997
  155.8874  140.0997  157.1433 H   0  0  0  0  0  0  0  0  0  0  0  0  # atno 8010 bound_to 7997
  139.5156  144.6429  151.5520 H   0  0  0  0  0  0  0  0  0  0  0  0  # atno 10167 bound_to 10162
  156.4571  130.4496  149.6952 H   0  0  0  0  0  0  0  0  0  0  0  0  # atno 10718 bound_to 10713
  154.8646  135.4199  154.2476 H   0  0  0  0  0  0  0  0  0  0  0  0  # atno 10763 bound_to 10752
  153.3429  135.6994  153.6858 H   0  0  0  0  0  0  0  0  0  0  0  0  # atno 10764 bound_to 10752
  153.5829  135.3569  155.2854 H   0  0  0  0  0  0  0  0  0  0  0  0  # atno 10765 bound_to 10752
  141.0927  133.6630  156.4032 H   0  0  0  0  0  0  0  0  0  0  0  0  # atno 11005 bound_to 11000
  146.0614  139.3607  143.0579 LP  0  0  0  0  0  0  0  0  0  0  0  0  # atno 17320 bound_to 7965
  145.8088  140.9736  143.0960 LP  0  0  0  0  0  0  0  0  0  0  0  0  # atno 17321 bound_to 7965
  140.6202  143.9272  150.6520 LP  0  0  0  0  0  0  0  0  0  0  0  0  # atno 17342 bound_to 10162
  140.2543  143.3570  152.1378 LP  0  0  0  0  0  0  0  0  0  0  0  0  # atno 17343 bound_to 10162
  156.3755  130.7552  151.2540 LP  0  0  0  0  0  0  0  0  0  0  0  0  # atno 17370 bound_to 10713
  157.7500  131.0310  150.4165 LP  0  0  0  0  0  0  0  0  0  0  0  0  # atno 17371 bound_to 10713
  140.5214  134.6300  157.5319 LP  0  0  0  0  0  0  0  0  0  0  0  0  # atno 17394 bound_to 11000
  139.9756  134.7220  155.9956 LP  0  0  0  0  0  0  0  0  0  0  0  0  # atno 17395 bound_to 11000

$$$$
