AV-unprocessed.smi:2949|AV-procd|sdf|11287|dock8
  -GOLD-   2272016183D 1   1.00000     0.00000
 Structure written by MMmdl.
 34 35  0  0  0  0  0  0  0  0  1 V2000
  145.5864  141.4237  155.1346 N   0  0  0  0  0  0  0  0  0  0  0  0
  146.1123  140.4164  154.5311 C   0  0  0  0  0  0  0  0  0  0  0  0
  145.2953  138.8254  154.1562 S   0  0  0  0  0  0  0  0  0  0  0  0
  146.7623  138.2639  153.3835 C   0  0  0  0  0  0  0  0  0  0  0  0
  147.7312  139.1770  153.4217 C   0  0  0  0  0  0  0  0  0  0  0  0
  147.4218  140.3675  154.0473 N   0  0  0  0  0  0  0  0  0  0  0  0
  148.3590  141.4896  154.0988 C   0  0  0  0  0  0  0  0  0  0  0  0
  149.6228  141.2622  154.9380 C   0  0  0  0  0  0  0  0  0  0  0  0
  150.3122  140.2569  154.7484 O   0  0  0  0  0  0  0  0  0  0  0  0
  149.8728  142.2275  155.8525 N   0  0  0  0  0  0  0  0  0  0  0  0
  150.8748  142.3621  156.7538 C   0  0  0  0  0  0  0  0  0  0  0  0
  151.5403  141.3872  157.0993 O   0  0  0  0  0  0  0  0  0  0  0  0
  151.0992  143.5957  157.2440 N   0  0  0  0  0  0  0  0  0  0  0  0
  152.1275  143.9455  158.2196 C   0  0  0  0  0  0  0  0  0  0  0  0
  152.0435  143.0628  159.4829 C   0  0  0  0  0  0  0  0  0  0  0  0
  152.0290  144.0230  160.6737 C   0  0  0  0  0  0  0  0  0  0  0  0
  151.3963  145.2974  160.1246 C   0  0  0  0  0  0  0  0  0  0  0  0
  151.9385  145.3960  158.6990 C   0  0  0  0  0  0  0  0  0  0  0  0
  144.6307  141.2225  155.3896 H   0  0  0  0  0  0  0  0  0  0  0  0
  146.8203  137.2819  152.9383 H   0  0  0  0  0  0  0  0  0  0  0  0
  148.7252  139.0736  153.0114 H   0  0  0  0  0  0  0  0  0  0  0  0
  148.6534  141.7726  153.0868 H   0  0  0  0  0  0  0  0  0  0  0  0
  147.8387  142.3590  154.5034 H   0  0  0  0  0  0  0  0  0  0  0  0
  149.1961  142.9765  155.8697 H   0  0  0  0  0  0  0  0  0  0  0  0
  150.5128  144.3485  156.9115 H   0  0  0  0  0  0  0  0  0  0  0  0
  153.1109  143.8517  157.7551 H   0  0  0  0  0  0  0  0  0  0  0  0
  151.1210  142.4799  159.4866 H   0  0  0  0  0  0  0  0  0  0  0  0
  152.8701  142.3543  159.5434 H   0  0  0  0  0  0  0  0  0  0  0  0
  151.4883  143.6207  161.5306 H   0  0  0  0  0  0  0  0  0  0  0  0
  153.0514  144.2306  160.9920 H   0  0  0  0  0  0  0  0  0  0  0  0
  150.3112  145.1883  160.0995 H   0  0  0  0  0  0  0  0  0  0  0  0
  151.6308  146.1766  160.7251 H   0  0  0  0  0  0  0  0  0  0  0  0
  152.9077  145.8958  158.7198 H   0  0  0  0  0  0  0  0  0  0  0  0
  151.2884  145.9864  158.0517 H   0  0  0  0  0  0  0  0  0  0  0  0
  1  2  2  0  0  0  0
  1 19  1  0  0  0  0
  2  6  1  0  0  0  0
  2  3  1  0  0  0  0
  3  4  1  0  0  0  0
  4  5  2  0  0  0  0
  4 20  1  0  0  0  0
  5  6  1  0  0  0  0
  5 21  1  0  0  0  0
  6  7  1  0  0  0  0
  7  8  1  0  0  0  0
  7 22  1  0  0  0  0
  7 23  1  0  0  0  0
  8  9  2  0  0  0  0
  8 10  1  0  0  0  0
 10 11  1  0  0  0  0
 10 24  1  0  0  0  0
 11 12  2  0  0  0  0
 11 13  1  0  0  0  0
 13 14  1  0  0  0  0
 13 25  1  0  0  0  0
 14 18  1  0  0  0  0
 14 15  1  0  0  0  0
 14 26  1  0  0  0  0
 15 16  1  0  0  0  0
 15 27  1  0  0  0  0
 15 28  1  0  0  0  0
 16 17  1  0  0  0  0
 16 29  1  0  0  0  0
 16 30  1  0  0  0  0
 17 18  1  0  0  0  0
 17 31  1  0  0  0  0
 17 32  1  0  0  0  0
 18 33  1  0  0  0  0
 18 34  1  0  0  0  0
M  END
> <s_m_source_file>
AV-unprocessed.smi

> <i_m_source_file_index>
2949

> <i_lp_mmshare_version>
43012

> <i_f3d_flags>
0

> <s_epik_input>
W0hdL049YzFcc1tjSF1bY0hdbjFbQ0gyXUMoPU8pW05IXUMoPU8pW05IXVtDSF0yW0NIMl1bQ0gyXVtDSDJdW0NIMl0y

> <s_epik_cmdline>
J2VwaWtfcHl0aG9uJywgJy1waCcsICc3LjAnLCAnLXRuJywgJzgnLCAnLW1hJywgJzIwMCcsICctbWV0YWxfYmluZGluZycsICctaW1hZScsICc8aW5maWxlLm1hZT4nLCAnLW9tYWUnLCAnPG91dGZpbGUubWFlPic=

> <r_epik_Ionization_Penalty>
2.0346

> <r_epik_Ionization_Penalty_Charging>
2.03458

> <r_epik_Ionization_Penalty_Neutral>
2.61125e-05

> <r_epik_State_Penalty>
2.18096

> <r_epik_Charging_Adjusted_Penalty>
4.21554

> <i_epik_Tot_Q>
0

> <i_epik_Tot_abs_Q>
0

> <r_epik_Metal_State_Penalty>
2.18096

> <b_epik_Metal_Only>
0

> <s_lp_Force_Field>
OPLS_2005

> <r_lp_Energy>
19.3427

> <b_lp_Chiralities_Consistent>
1

> <s_lp_Variant>
AV-unprocessed.smi:2949-3

> <Gold.Version>
5.8.1

> <Gold.Id.Protein>
6NUR|6NUR_protein|mol2

> <Gold.PLP.Fitness>
49.6896

> <Gold.PLP.PLP>
-37.2760

> <Gold.PLP.part.hbond>
-3.0000

> <Gold.PLP.part.metal>
0.0000

> <Gold.PLP.part.buried>
-3.4524

> <Gold.PLP.part.nonpolar>
-31.6776

> <Gold.PLP.part.repulsive>
0.2367

> <Gold.PLP.ligand.clash>
0.0000

> <Gold.PLP.ligand.torsion>
0.2408

> <Gold.PLP.Chemscore.Hbond>
2.3217

> <Gold.PLP.Chemscore.CHOScore>
1.9695

> <Gold.PLP.Chemscore.Metal>
0.0000

> <Gold.Chemscore.Hbonds>
donor molecule, donor type, donor heavy atom, donor atom, acceptor molecule, acceptor atom, score
      L1  H    10    24       P1  8028  0.94
      L1  H    13    25       P1  8028  0.81
      P1  H  7989  7998       L1     9  1.00
      L1  C     4    20       P1  7948  0.74
      L1  C     5    21       P1  7957  0.98

> <Gold.PLP.Chemscore.Internal.Correction>
0.0213

> <Gold.Rescore>
     Score         DG    S(hbond)    S(metal)    S(lipo)     H(rot)  DE(clash)    DE(int)     intcor
     14.45     -17.01       1.81        0.00      83.87       1.69       0.85       1.72       ----

> <Gold.Chemscore.Fitness>
14.4512

> <Gold.Chemscore.DG>
-17.0146

> <Gold.Chemscore.ZeroCoef>
-5.4800

> <Gold.Chemscore.Hbond>
1.8085

> <Gold.Chemscore.Metal>
0.0000

> <Gold.Chemscore.Lipo>
83.8740

> <Gold.Chemscore.Internal_Hbond>
0.0000

> <Gold.Chemscore.DEClash>
0.8457

> <Gold.Chemscore.DEInternal>
1.7177

> <Gold.Chemscore.Rot>
1.6871

> <Gold.Chemscore.Internal.Correction>
   9.000000E+99

> <Gold.Chemscore.Hbonds>
donor molecule, donor type, donor heavy atom, donor atom, acceptor molecule, acceptor atom, score
      L1  H    10    24       P1  8028  0.91
      L1  H    13    25       P1  8028  0.72
      P1  H  7989  7998       L1     9  0.34

> <Gold.Chemscore.Hbond.Weighted>
-6.0404

> <Gold.Chemscore.Metal.Weighted>
-0.0000

> <Gold.Chemscore.Lipo.Weighted>
-9.8133

> <Gold.Chemscore.Internal_Hbond.Weighted>
0.0000

> <Gold.Chemscore.DEClash.Weighted>
0.8457

> <Gold.Chemscore.DEInternal.Weighted>
1.7177

> <Gold.Chemscore.Rot.Weighted>
4.3191

> <Gold.Chemscore.Internal.Correction.Weighted>
   9.000000E+99

> <Gold.Protein.RotatedTorsions>
[ 6907 6896 6895 6894 ] final  -89.88 input  -60.11 | X-H torsion
[ 7974 7965 7964 7962 ] final  135.26 input  175.53 | X-H torsion
[ 8008 7997 7996 7995 ] final   79.32 input   59.86 | X-H torsion
[ 10167 10162 10161 10158 ] final  -19.17 input  -65.29 | X-H torsion
[ 10718 10713 10712 10709 ] final  -12.06 input   66.30 | X-H torsion
[ 10763 10752 10751 10750 ] final    8.74 input  -60.55 | X-H torsion
[ 11005 11000 10999 10996 ] final  -39.88 input  -57.11 | X-H torsion

> <Gold.Protein.ActiveResidues>
 VAL166  LYS551  ARG553  GLY616  TRP617  ASP618  TYR619  PRO620  LYS621  CYS622 
 ASP623  PHE694  ASN695  SER759  ASP760  ASP761  ALA762  ILE779  LEU786  VAL792 
 PHE793  MET794  SER795  GLU796  ALA797  LYS798  CYS799  TRP800  GLU811  SER814 

> <Gold.Protein.RotatedAtoms>
  150.6877  134.2519  159.4513 H   0  0  0  0  0  0  0  0  0  0  0  0  # atno 6907 bound_to 6896
  152.0455  134.9683  160.0583 H   0  0  0  0  0  0  0  0  0  0  0  0  # atno 6908 bound_to 6896
  152.1167  133.4296  159.4693 H   0  0  0  0  0  0  0  0  0  0  0  0  # atno 6909 bound_to 6896
  144.9681  139.4636  143.5446 H   0  0  0  0  0  0  0  0  0  0  0  0  # atno 7974 bound_to 7965
  155.8680  140.3450  155.5801 H   0  0  0  0  0  0  0  0  0  0  0  0  # atno 8008 bound_to 7997
  155.7859  140.0865  157.2054 H   0  0  0  0  0  0  0  0  0  0  0  0  # atno 8009 bound_to 7997
  154.4015  140.1492  156.3094 H   0  0  0  0  0  0  0  0  0  0  0  0  # atno 8010 bound_to 7997
  140.7266  143.4845  151.0074 H   0  0  0  0  0  0  0  0  0  0  0  0  # atno 10167 bound_to 10162
  156.6500  130.4952  149.6065 H   0  0  0  0  0  0  0  0  0  0  0  0  # atno 10718 bound_to 10713
  153.2217  135.6882  153.7992 H   0  0  0  0  0  0  0  0  0  0  0  0  # atno 10763 bound_to 10752
  153.7188  135.3270  155.3263 H   0  0  0  0  0  0  0  0  0  0  0  0  # atno 10764 bound_to 10752
  154.8273  135.4608  154.1067 H   0  0  0  0  0  0  0  0  0  0  0  0  # atno 10765 bound_to 10752
  141.0134  133.6897  156.2247 H   0  0  0  0  0  0  0  0  0  0  0  0  # atno 11005 bound_to 11000
  146.3374  139.8875  142.8814 LP  0  0  0  0  0  0  0  0  0  0  0  0  # atno 17320 bound_to 7965
  145.2600  141.0074  143.3832 LP  0  0  0  0  0  0  0  0  0  0  0  0  # atno 17321 bound_to 7965
  139.8545  143.7394  152.3176 LP  0  0  0  0  0  0  0  0  0  0  0  0  # atno 17342 bound_to 10162
  139.7588  144.7512  151.0395 LP  0  0  0  0  0  0  0  0  0  0  0  0  # atno 17343 bound_to 10162
  156.2091  130.6668  151.1251 LP  0  0  0  0  0  0  0  0  0  0  0  0  # atno 17370 bound_to 10713
  157.7144  131.0718  150.6383 LP  0  0  0  0  0  0  0  0  0  0  0  0  # atno 17371 bound_to 10713
  140.6695  134.4883  157.5586 LP  0  0  0  0  0  0  0  0  0  0  0  0  # atno 17394 bound_to 11000
  139.9103  134.8359  156.1553 LP  0  0  0  0  0  0  0  0  0  0  0  0  # atno 17395 bound_to 11000

$$$$
