AV-unprocessed.smi:1244|AV-procd|sdf|5222|dock1
  -GOLD-   22720 4323D 1   1.00000     0.00000
 Structure written by MMmdl.
 54 56  0  0  0  0  0  0  0  0  1 V2000
  152.3659  144.8466  158.6761 C   0  0  0  0  0  0  0  0  0  0  0  0
  152.6955  143.3529  158.5877 C   0  0  2  0  0  0  0  0  0  0  0  0
  151.4711  142.5079  158.1855 C   0  0  0  0  0  0  0  0  0  0  0  0
  151.7692  141.0775  158.1859 N   0  0  0  0  0  0  0  0  0  0  0  0
  150.6109  140.2611  157.8270 C   0  0  0  0  0  0  0  0  0  0  0  0
  150.8344  138.7405  157.9319 C   0  0  0  0  0  0  0  0  0  0  0  0
  149.6013  138.0383  158.2661 N   0  0  0  0  0  0  0  0  0  0  0  0
  149.4506  137.1965  159.2982 C   0  0  0  0  0  0  0  0  0  0  0  0
  150.3465  136.9349  160.1011 O   0  0  0  0  0  0  0  0  0  0  0  0
  148.2151  136.6701  159.3208 N   0  0  0  0  0  0  0  0  0  0  0  0
  147.6949  135.7110  160.2345 C   0  0  0  0  0  0  0  0  0  0  0  0
  148.0031  135.7489  161.6158 C   0  0  0  0  0  0  0  0  0  0  0  0
  147.4274  134.7958  162.4741 C   0  0  0  0  0  0  0  0  0  0  0  0
  146.5541  133.8429  161.9218 C   0  0  0  0  0  0  0  0  0  0  0  0
  146.2397  133.8029  160.6112 N   0  0  0  0  0  0  0  0  0  0  0  0
  146.7866  134.7188  159.7745 C   0  0  0  0  0  0  0  0  0  0  0  0
  146.4650  134.6290  158.4029 N   0  0  0  0  0  0  0  0  0  0  0  0
  146.9010  133.3801  157.7814 C   0  0  0  0  0  0  0  0  0  0  0  0
  145.7941  132.9655  156.8091 C   0  0  0  0  0  0  0  0  0  0  0  0
  144.5504  133.6166  157.4006 C   0  0  0  0  0  0  0  0  0  0  0  0
  145.1032  134.9254  157.9601 C   0  0  0  0  0  0  0  0  0  0  0  0
  152.2855  140.7031  159.4977 C   0  0  0  0  0  0  0  0  0  0  0  0
  153.5145  141.5423  159.8961 C   0  0  2  0  0  0  0  0  0  0  0  0
  154.0161  141.2063  161.3040 C   0  0  0  0  0  0  0  0  0  0  0  0
  153.1632  142.9226  159.8629 O   0  0  0  0  0  0  0  0  0  0  0  0
  152.0176  145.2289  157.7162 H   0  0  0  0  0  0  0  0  0  0  0  0
  153.2454  145.4230  158.9640 H   0  0  0  0  0  0  0  0  0  0  0  0
  151.5874  145.0360  159.4155 H   0  0  0  0  0  0  0  0  0  0  0  0
  153.4913  143.2131  157.8543 H   0  0  0  0  0  0  0  0  0  0  0  0
  150.6471  142.7128  158.8708 H   0  0  0  0  0  0  0  0  0  0  0  0
  151.1413  142.8241  157.1966 H   0  0  0  0  0  0  0  0  0  0  0  0
  149.7842  140.5241  158.4881 H   0  0  0  0  0  0  0  0  0  0  0  0
  150.2788  140.5147  156.8190 H   0  0  0  0  0  0  0  0  0  0  0  0
  151.1893  138.3344  156.9855 H   0  0  0  0  0  0  0  0  0  0  0  0
  151.6018  138.5184  158.6755 H   0  0  0  0  0  0  0  0  0  0  0  0
  148.8107  138.1921  157.6576 H   0  0  0  0  0  0  0  0  0  0  0  0
  147.6174  136.8931  158.5385 H   0  0  0  0  0  0  0  0  0  0  0  0
  148.6570  136.5015  162.0299 H   0  0  0  0  0  0  0  0  0  0  0  0
  147.6454  134.7996  163.5318 H   0  0  0  0  0  0  0  0  0  0  0  0
  146.0917  133.0955  162.5493 H   0  0  0  0  0  0  0  0  0  0  0  0
  147.8529  133.5091  157.2657 H   0  0  0  0  0  0  0  0  0  0  0  0
  147.0368  132.6078  158.5410 H   0  0  0  0  0  0  0  0  0  0  0  0
  145.9929  133.3834  155.8212 H   0  0  0  0  0  0  0  0  0  0  0  0
  145.7034  131.8840  156.7064 H   0  0  0  0  0  0  0  0  0  0  0  0
  143.7558  133.7674  156.6695 H   0  0  0  0  0  0  0  0  0  0  0  0
  144.1568  133.0017  158.2113 H   0  0  0  0  0  0  0  0  0  0  0  0
  144.4555  135.3436  158.7307 H   0  0  0  0  0  0  0  0  0  0  0  0
  145.1679  135.6697  157.1660 H   0  0  0  0  0  0  0  0  0  0  0  0
  151.5035  140.8238  160.2493 H   0  0  0  0  0  0  0  0  0  0  0  0
  152.5568  139.6466  159.4981 H   0  0  0  0  0  0  0  0  0  0  0  0
  154.3235  141.3661  159.1849 H   0  0  0  0  0  0  0  0  0  0  0  0
  154.3090  140.1586  161.3762 H   0  0  0  0  0  0  0  0  0  0  0  0
  153.2454  141.3918  162.0526 H   0  0  0  0  0  0  0  0  0  0  0  0
  154.8844  141.8128  161.5626 H   0  0  0  0  0  0  0  0  0  0  0  0
  1  2  1  0  0  0  0
  1 26  1  0  0  0  0
  1 27  1  0  0  0  0
  1 28  1  0  0  0  0
  2 25  1  0  0  0  0
  2  3  1  0  0  0  0
  2 29  1  0  0  0  0
  3  4  1  0  0  0  0
  3 30  1  0  0  0  0
  3 31  1  0  0  0  0
  4  5  1  0  0  0  0
  4 22  1  0  0  0  0
  5  6  1  0  0  0  0
  5 32  1  0  0  0  0
  5 33  1  0  0  0  0
  6  7  1  0  0  0  0
  6 34  1  0  0  0  0
  6 35  1  0  0  0  0
  7  8  1  0  0  0  0
  7 36  1  0  0  0  0
  8  9  2  0  0  0  0
  8 10  1  0  0  0  0
 10 11  1  0  0  0  0
 10 37  1  0  0  0  0
 11 16  1  0  0  0  0
 11 12  2  0  0  0  0
 12 13  1  0  0  0  0
 12 38  1  0  0  0  0
 13 14  2  0  0  0  0
 13 39  1  0  0  0  0
 14 15  1  0  0  0  0
 14 40  1  0  0  0  0
 15 16  2  0  0  0  0
 16 17  1  0  0  0  0
 17 21  1  0  0  0  0
 17 18  1  0  0  0  0
 18 19  1  0  0  0  0
 18 41  1  0  0  0  0
 18 42  1  0  0  0  0
 19 20  1  0  0  0  0
 19 43  1  0  0  0  0
 19 44  1  0  0  0  0
 20 21  1  0  0  0  0
 20 45  1  0  0  0  0
 20 46  1  0  0  0  0
 21 47  1  0  0  0  0
 21 48  1  0  0  0  0
 22 23  1  0  0  0  0
 22 49  1  0  0  0  0
 22 50  1  0  0  0  0
 23 24  1  0  0  0  0
 23 25  1  0  0  0  0
 23 51  1  0  0  0  0
 24 52  1  0  0  0  0
 24 53  1  0  0  0  0
 24 54  1  0  0  0  0
M  END
> <s_m_source_file>
AV-unprocessed.smi

> <i_m_source_file_index>
1244

> <i_lp_mmshare_version>
43012

> <i_f3d_flags>
0

> <s_epik_input>
W0NIM11bQ0BASF0xW0NIMl1OKFtDSDJdW0NASF0oTzEpW0NIM10pW0NIMl1bQ0gyXVtOSF1DKD1PKVtOSF1jMltjSF1bY0hdW2NIXW5jMk4zW0NIMl1bQ0gyXVtDSDJdW0NIMl0z

> <s_epik_cmdline>
J2VwaWtfcHl0aG9uJywgJy1waCcsICc3LjAnLCAnLXRuJywgJzgnLCAnLW1hJywgJzIwMCcsICctbWV0YWxfYmluZGluZycsICctaW1hZScsICc8aW5maWxlLm1hZT4nLCAnLW9tYWUnLCAnPG91dGZpbGUubWFlPic=

> <r_lp_tautomer_probability>
1

> <r_epik_Ionization_Penalty>
0.363951

> <r_epik_Ionization_Penalty_Charging>
0

> <r_epik_Ionization_Penalty_Neutral>
0.363951

> <r_epik_State_Penalty>
0.349372

> <r_epik_Charging_Adjusted_Penalty>
0.349372

> <i_epik_Tot_Q>
0

> <i_epik_Tot_abs_Q>
0

> <r_epik_Metal_State_Penalty>
0.333054

> <b_epik_Metal_Only>
0

> <s_lp_Force_Field>
OPLS_2005

> <r_lp_Energy>
48.0273

> <b_lp_Chiralities_Consistent>
1

> <s_lp_Variant>
AV-unprocessed.smi:1244-2

> <Gold.Version>
5.8.1

> <Gold.Id.Protein>
6NUR|6NUR_protein|mol2

> <Gold.PLP.Fitness>
41.5259

> <Gold.PLP.PLP>
-39.7630

> <Gold.PLP.part.hbond>
-1.9070

> <Gold.PLP.part.metal>
0.0000

> <Gold.PLP.part.buried>
-6.3015

> <Gold.PLP.part.nonpolar>
-33.0550

> <Gold.PLP.part.repulsive>
0.2917

> <Gold.PLP.ligand.clash>
0.0000

> <Gold.PLP.ligand.torsion>
0.5796

> <Gold.PLP.Chemscore.Hbond>
0.9263

> <Gold.PLP.Chemscore.CHOScore>
0.0000

> <Gold.PLP.Chemscore.Metal>
0.0000

> <Gold.Chemscore.Hbonds>
donor molecule, donor type, donor heavy atom, donor atom, acceptor molecule, acceptor atom, score
      P1  H  6896  6909       L1     9  1.00

> <Gold.PLP.Chemscore.Internal.Correction>
0.1432

> <Gold.Rescore>
     Score         DG    S(hbond)    S(metal)    S(lipo)     H(rot)  DE(clash)    DE(int)     intcor
     15.40     -16.84       0.98        0.00     102.96       1.55       0.02       1.42       ----

> <Gold.Chemscore.Fitness>
15.4031

> <Gold.Chemscore.DG>
-16.8408

> <Gold.Chemscore.ZeroCoef>
-5.4800

> <Gold.Chemscore.Hbond>
0.9812

> <Gold.Chemscore.Metal>
0.0000

> <Gold.Chemscore.Lipo>
102.9598

> <Gold.Chemscore.Internal_Hbond>
0.0000

> <Gold.Chemscore.DEClash>
0.0222

> <Gold.Chemscore.DEInternal>
1.4156

> <Gold.Chemscore.Rot>
1.5479

> <Gold.Chemscore.Internal.Correction>
   9.000000E+99

> <Gold.Chemscore.Hbonds>
donor molecule, donor type, donor heavy atom, donor atom, acceptor molecule, acceptor atom, score
      P1  H  6896  6909       L1     9  0.81

> <Gold.Chemscore.Hbond.Weighted>
-3.2772

> <Gold.Chemscore.Metal.Weighted>
-0.0000

> <Gold.Chemscore.Lipo.Weighted>
-12.0463

> <Gold.Chemscore.Internal_Hbond.Weighted>
0.0000

> <Gold.Chemscore.DEClash.Weighted>
0.0222

> <Gold.Chemscore.DEInternal.Weighted>
1.4156

> <Gold.Chemscore.Rot.Weighted>
3.9627

> <Gold.Chemscore.Internal.Correction.Weighted>
   9.000000E+99

> <Gold.Protein.RotatedTorsions>
[ 6907 6896 6895 6894 ] final   91.59 input  -60.11 | X-H torsion
[ 7974 7965 7964 7962 ] final  131.36 input  175.53 | X-H torsion
[ 8008 7997 7996 7995 ] final   52.94 input   59.86 | X-H torsion
[ 10167 10162 10161 10158 ] final  152.84 input  -65.29 | X-H torsion
[ 10718 10713 10712 10709 ] final  115.60 input   66.30 | X-H torsion
[ 10763 10752 10751 10750 ] final   38.42 input  -60.55 | X-H torsion
[ 11005 11000 10999 10996 ] final    7.14 input  -57.11 | X-H torsion

> <Gold.Protein.ActiveResidues>
 VAL166  LYS551  ARG553  GLY616  TRP617  ASP618  TYR619  PRO620  LYS621  CYS622 
 ASP623  PHE694  ASN695  SER759  ASP760  ASP761  ALA762  ILE779  LEU786  VAL792 
 PHE793  MET794  SER795  GLU796  ALA797  LYS798  CYS799  TRP800  GLU811  SER814 

> <Gold.Protein.RotatedAtoms>
  152.5450  134.1633  159.8566 H   0  0  0  0  0  0  0  0  0  0  0  0  # atno 6907 bound_to 6896
  151.1649  133.4814  159.2601 H   0  0  0  0  0  0  0  0  0  0  0  0  # atno 6908 bound_to 6896
  151.1334  135.0153  159.8648 H   0  0  0  0  0  0  0  0  0  0  0  0  # atno 6909 bound_to 6896
  145.0081  139.4247  143.5258 H   0  0  0  0  0  0  0  0  0  0  0  0  # atno 7974 bound_to 7965
  155.4601  140.3461  155.4311 H   0  0  0  0  0  0  0  0  0  0  0  0  # atno 8008 bound_to 7997
  156.1166  140.1475  156.9293 H   0  0  0  0  0  0  0  0  0  0  0  0  # atno 8009 bound_to 7997
  154.4793  140.0875  156.7318 H   0  0  0  0  0  0  0  0  0  0  0  0  # atno 8010 bound_to 7997
  139.4830  144.5324  151.7701 H   0  0  0  0  0  0  0  0  0  0  0  0  # atno 10167 bound_to 10162
  157.6212  131.1014  150.7353 H   0  0  0  0  0  0  0  0  0  0  0  0  # atno 10718 bound_to 10713
  153.0002  135.6250  154.2301 H   0  0  0  0  0  0  0  0  0  0  0  0  # atno 10763 bound_to 10752
  154.2044  135.2802  155.2982 H   0  0  0  0  0  0  0  0  0  0  0  0  # atno 10764 bound_to 10752
  154.5658  135.5691  153.7108 H   0  0  0  0  0  0  0  0  0  0  0  0  # atno 10765 bound_to 10752
  140.5515  134.0278  155.7939 H   0  0  0  0  0  0  0  0  0  0  0  0  # atno 11005 bound_to 11000
  146.3465  139.9509  142.8729 LP  0  0  0  0  0  0  0  0  0  0  0  0  # atno 17320 bound_to 7965
  145.2060  140.9875  143.4128 LP  0  0  0  0  0  0  0  0  0  0  0  0  # atno 17321 bound_to 7965
  140.4852  144.1392  150.5939 LP  0  0  0  0  0  0  0  0  0  0  0  0  # atno 17342 bound_to 10162
  140.4233  143.2601  151.9687 LP  0  0  0  0  0  0  0  0  0  0  0  0  # atno 17343 bound_to 10162
  156.7710  130.4829  149.5418 LP  0  0  0  0  0  0  0  0  0  0  0  0  # atno 17370 bound_to 10713
  156.1359  130.6210  151.0399 LP  0  0  0  0  0  0  0  0  0  0  0  0  # atno 17371 bound_to 10713
  141.1168  133.9526  157.2806 LP  0  0  0  0  0  0  0  0  0  0  0  0  # atno 17394 bound_to 11000
  139.9453  135.0185  156.8832 LP  0  0  0  0  0  0  0  0  0  0  0  0  # atno 17395 bound_to 11000

$$$$
