AV-unprocessed.smi:102|AV-procd|sdf|966|dock10
  -GOLD-   2262017513D 1   1.00000     0.00000
 Structure written by MMmdl.
 43 44  0  0  0  0  0  0  0  0  2 V2000
  151.2790  130.6931  155.6851 C   0  0  0  0  0  0  0  0  0  0  0  0
  151.0210  132.0654  156.2932 C   0  0  0  0  0  0  0  0  0  0  0  0
  151.7989  132.5665  157.1053 O   0  0  0  0  0  0  0  0  0  0  0  0
  149.8868  132.6171  155.8433 O   0  0  0  0  0  0  0  0  0  0  0  0
  149.5948  133.9764  156.1287 C   0  0  0  0  0  0  0  0  0  0  0  0
  150.7903  134.8705  155.7614 C   0  0  1  0  0  0  0  0  0  0  0  0
  150.3971  135.9285  154.9054 O   0  0  0  0  0  0  0  0  0  0  0  0
  151.3812  136.9116  154.9428 C   0  0  1  0  0  0  0  0  0  0  0  0
  150.7249  138.2525  154.7095 N   0  0  0  0  0  0  0  0  0  0  0  0
  149.3813  138.2946  154.3839 C   0  0  0  0  0  0  0  0  0  0  0  0
  148.7397  139.4672  154.2047 C   0  0  0  0  0  0  0  0  0  0  0  0
  147.4341  139.4739  153.8844 F   0  0  0  0  0  0  0  0  0  0  0  0
  149.4707  140.7226  154.3652 C   0  0  0  0  0  0  0  0  0  0  0  0
  148.8845  141.7892  154.1877 O   0  0  0  0  0  0  0  0  0  0  0  0
  150.7881  140.6532  154.7127 N   0  5  0  0  0  0  0  0  0  0  0  0
  151.4392  139.4689  154.9072 C   0  0  0  0  0  0  0  0  0  0  0  0
  152.6186  139.4055  155.2520 O   0  0  0  0  0  0  0  0  0  0  0  0
  152.1062  136.8238  156.3001 C   0  0  2  0  0  0  0  0  0  0  0  0
  153.5120  136.7596  156.0968 O   0  0  0  0  0  0  0  0  0  0  0  0
  154.3376  136.5804  157.1429 C   0  0  0  0  0  0  0  0  0  0  0  0
  155.7542  137.0580  156.8525 C   0  0  0  0  0  0  0  0  0  0  0  0
  154.0369  136.0829  158.2281 O   0  0  0  0  0  0  0  0  0  0  0  0
  151.5784  135.5260  156.9093 C   0  0  1  0  0  0  0  0  0  0  0  0
  150.7985  135.8567  158.0533 O   0  0  0  0  0  0  0  0  0  0  0  0
  149.7016  136.6255  157.9453 C   0  0  0  0  0  0  0  0  0  0  0  0
  149.0195  136.8510  159.2877 C   0  0  0  0  0  0  0  0  0  0  0  0
  149.2616  137.1247  156.9097 O   0  0  0  0  0  0  0  0  0  0  0  0
  150.3380  130.1792  155.4864 H   0  0  0  0  0  0  0  0  0  0  0  0
  151.8693  130.0799  156.3659 H   0  0  0  0  0  0  0  0  0  0  0  0
  151.8238  130.7933  154.7463 H   0  0  0  0  0  0  0  0  0  0  0  0
  148.7111  134.3017  155.5781 H   0  0  0  0  0  0  0  0  0  0  0  0
  149.3697  134.0729  157.1914 H   0  0  0  0  0  0  0  0  0  0  0  0
  151.4980  134.2654  155.1927 H   0  0  0  0  0  0  0  0  0  0  0  0
  152.0586  136.7540  154.1019 H   0  0  0  0  0  0  0  0  0  0  0  0
  148.8287  137.3741  154.2669 H   0  0  0  0  0  0  0  0  0  0  0  0
  151.8524  137.6888  156.9145 H   0  0  0  0  0  0  0  0  0  0  0  0
  155.7377  138.0574  156.4173 H   0  0  0  0  0  0  0  0  0  0  0  0
  156.2439  136.3815  156.1517 H   0  0  0  0  0  0  0  0  0  0  0  0
  156.3422  137.0907  157.7698 H   0  0  0  0  0  0  0  0  0  0  0  0
  152.4098  134.8805  157.1967 H   0  0  0  0  0  0  0  0  0  0  0  0
  149.7559  136.8797  160.0914 H   0  0  0  0  0  0  0  0  0  0  0  0
  148.3147  136.0450  159.4919 H   0  0  0  0  0  0  0  0  0  0  0  0
  148.4759  137.7958  159.2849 H   0  0  0  0  0  0  0  0  0  0  0  0
  1  2  1  0  0  0  0
  1 28  1  0  0  0  0
  1 29  1  0  0  0  0
  1 30  1  0  0  0  0
  2  3  2  0  0  0  0
  2  4  1  0  0  0  0
  4  5  1  0  0  0  0
  5  6  1  0  0  0  0
  5 31  1  0  0  0  0
  5 32  1  0  0  0  0
  6 23  1  0  0  0  0
  6  7  1  0  0  0  0
  6 33  1  0  0  0  0
  7  8  1  0  0  0  0
  8  9  1  0  0  0  0
  8 18  1  0  0  0  0
  8 34  1  0  0  0  0
  9 16  1  0  0  0  0
  9 10  1  0  0  0  0
 10 11  2  0  0  0  0
 10 35  1  0  0  0  0
 11 12  1  0  0  0  0
 11 13  1  0  0  0  0
 13 14  2  0  0  0  0
 13 15  1  0  0  0  0
 15 16  1  0  0  0  0
 16 17  2  0  0  0  0
 18 19  1  0  0  0  0
 18 23  1  0  0  0  0
 18 36  1  0  0  0  0
 19 20  1  0  0  0  0
 20 21  1  0  0  0  0
 20 22  2  0  0  0  0
 21 37  1  0  0  0  0
 21 38  1  0  0  0  0
 21 39  1  0  0  0  0
 23 24  1  0  0  0  0
 23 40  1  0  0  0  0
 24 25  1  0  0  0  0
 25 26  1  0  0  0  0
 25 27  2  0  0  0  0
 26 41  1  0  0  0  0
 26 42  1  0  0  0  0
 26 43  1  0  0  0  0
M  CHG  1  15  -1
M  END
> <s_m_source_file>
AV-unprocessed.smi

> <i_m_source_file_index>
102

> <i_lp_mmshare_version>
43012

> <i_f3d_flags>
0

> <s_epik_input>
W0NIM11DKD1PKU9bQ0gyXVtDQEBIXTFPW0NASF0oW0NAQEhdKE9DKD1PKVtDSDNdKVtDQEhdMU9DKD1PKVtDSDNdKW4yW2NIXWMoRiljKD1PKVtuSF1jMj1P

> <s_epik_cmdline>
J2VwaWtfcHl0aG9uJywgJy1waCcsICc3LjAnLCAnLXRuJywgJzgnLCAnLW1hJywgJzIwMCcsICctbWV0YWxfYmluZGluZycsICctaW1hZScsICc8aW5maWxlLm1hZT4nLCAnLW9tYWUnLCAnPG91dGZpbGUubWFlPic=

> <r_epik_Ionization_Penalty>
1.40304

> <r_epik_Ionization_Penalty_Charging>
1.43915e-08

> <r_epik_Ionization_Penalty_Neutral>
1.40304

> <r_epik_State_Penalty>
1.48536

> <r_epik_Charging_Adjusted_Penalty>
1.48536

> <i_epik_Tot_Q>
-1

> <i_epik_Tot_abs_Q>
1

> <r_epik_Metal_State_Penalty>
0.00663881

> <b_epik_Metal_Only>
0

> <s_epik_Chemistry_Notes>
This compound has an ester and may undergo hydrolysis at high or low pH. This compound contains an acetal/aminal-like group ( X-CH(R)-Y where X, Y are N, S, or O) that may be acid/base labile, releasing an aldehyde.

> <s_lp_Force_Field>
OPLS_2005

> <r_lp_Energy>
16.3749

> <b_lp_Chiralities_Consistent>
1

> <s_lp_Variant>
AV-unprocessed.smi:102-22

> <Gold.Version>
5.8.1

> <Gold.Id.Protein>
6NUR|6NUR_protein|mol2

> <Gold.PLP.Fitness>
42.6405

> <Gold.PLP.PLP>
-31.6824

> <Gold.PLP.part.hbond>
-6.9928

> <Gold.PLP.part.metal>
0.0000

> <Gold.PLP.part.buried>
0.1190

> <Gold.PLP.part.nonpolar>
-25.2884

> <Gold.PLP.part.repulsive>
0.4336

> <Gold.PLP.ligand.clash>
0.0000

> <Gold.PLP.ligand.torsion>
1.3055

> <Gold.PLP.Chemscore.Hbond>
3.7479

> <Gold.PLP.Chemscore.CHOScore>
0.7267

> <Gold.PLP.Chemscore.Metal>
0.0000

> <Gold.Chemscore.Hbonds>
donor molecule, donor type, donor heavy atom, donor atom, acceptor molecule, acceptor atom, score
      P1  H  6896  6908       L1     3  0.41
      P1  H  7989  7998       L1    15  0.39
      P1  H  7997  8009       L1    17  0.86
      P1  H  8011  8017       L1    14  0.35
      L1  C    10    35       P1  7948  0.49

> <Gold.PLP.Chemscore.Internal.Correction>
0.1453

> <Gold.Rescore>
     Score         DG    S(hbond)    S(metal)    S(lipo)     H(rot)  DE(clash)    DE(int)     intcor
     -5.98      -9.41       2.91        0.00      37.90       4.00       1.82      13.57       ----

> <Gold.Chemscore.Fitness>
-5.9773

> <Gold.Chemscore.DG>
-9.4077

> <Gold.Chemscore.ZeroCoef>
-5.4800

> <Gold.Chemscore.Hbond>
2.9104

> <Gold.Chemscore.Metal>
0.0000

> <Gold.Chemscore.Lipo>
37.9013

> <Gold.Chemscore.Internal_Hbond>
0.0000

> <Gold.Chemscore.DEClash>
1.8175

> <Gold.Chemscore.DEInternal>
13.5675

> <Gold.Chemscore.Rot>
3.9951

> <Gold.Chemscore.Internal.Correction>
   9.000000E+99

> <Gold.Chemscore.Hbonds>
donor molecule, donor type, donor heavy atom, donor atom, acceptor molecule, acceptor atom, score
      P1  H  6896  6908       L1     3  0.37
      P1  H  7989  7998       L1    15  0.01
      P1  H  7997  8009       L1    17  0.84
      P1  H  8011  8017       L1    14  0.10

> <Gold.Chemscore.Hbond.Weighted>
-9.7206

> <Gold.Chemscore.Metal.Weighted>
-0.0000

> <Gold.Chemscore.Lipo.Weighted>
-4.4344

> <Gold.Chemscore.Internal_Hbond.Weighted>
0.0000

> <Gold.Chemscore.DEClash.Weighted>
1.8175

> <Gold.Chemscore.DEInternal.Weighted>
13.5675

> <Gold.Chemscore.Rot.Weighted>
10.2274

> <Gold.Chemscore.Internal.Correction.Weighted>
   9.000000E+99

> <Gold.Protein.RotatedTorsions>
[ 6907 6896 6895 6894 ] final   62.52 input  -60.11 | X-H torsion
[ 7974 7965 7964 7962 ] final -173.69 input  175.53 | X-H torsion
[ 8008 7997 7996 7995 ] final -149.02 input   59.86 | X-H torsion
[ 10167 10162 10161 10158 ] final -178.48 input  -65.29 | X-H torsion
[ 10718 10713 10712 10709 ] final   -4.46 input   66.30 | X-H torsion
[ 10763 10752 10751 10750 ] final   57.51 input  -60.55 | X-H torsion
[ 11005 11000 10999 10996 ] final  -81.71 input  -57.11 | X-H torsion

> <Gold.Protein.ActiveResidues>
 VAL166  LYS551  ARG553  GLY616  TRP617  ASP618  TYR619  PRO620  LYS621  CYS622 
 ASP623  PHE694  ASN695  SER759  ASP760  ASP761  ALA762  ILE779  LEU786  VAL792 
 PHE793  MET794  SER795  GLU796  ALA797  LYS798  CYS799  TRP800  GLU811  SER814 

> <Gold.Protein.RotatedAtoms>
  152.4179  134.6009  159.9999 H   0  0  0  0  0  0  0  0  0  0  0  0  # atno 6907 bound_to 6896
  151.6167  133.3337  159.3087 H   0  0  0  0  0  0  0  0  0  0  0  0  # atno 6908 bound_to 6896
  150.8067  134.7235  159.6716 H   0  0  0  0  0  0  0  0  0  0  0  0  # atno 6909 bound_to 6896
  144.7136  140.1584  143.6378 H   0  0  0  0  0  0  0  0  0  0  0  0  # atno 7974 bound_to 7965
  155.6010  140.0662  157.2733 H   0  0  0  0  0  0  0  0  0  0  0  0  # atno 8008 bound_to 7997
  154.4279  140.1818  156.1220 H   0  0  0  0  0  0  0  0  0  0  0  0  # atno 8009 bound_to 7997
  156.0159  140.3322  155.6992 H   0  0  0  0  0  0  0  0  0  0  0  0  # atno 8010 bound_to 7997
  139.5430  144.2311  152.0933 H   0  0  0  0  0  0  0  0  0  0  0  0  # atno 10167 bound_to 10162
  156.7609  130.5269  149.5785 H   0  0  0  0  0  0  0  0  0  0  0  0  # atno 10718 bound_to 10713
  152.9851  135.5639  154.5403 H   0  0  0  0  0  0  0  0  0  0  0  0  # atno 10763 bound_to 10752
  154.4858  135.2790  155.1537 H   0  0  0  0  0  0  0  0  0  0  0  0  # atno 10764 bound_to 10752
  154.3027  135.6304  153.5484 H   0  0  0  0  0  0  0  0  0  0  0  0  # atno 10765 bound_to 10752
  141.1665  133.7209  156.8463 H   0  0  0  0  0  0  0  0  0  0  0  0  # atno 11005 bound_to 11000
  145.9053  139.2454  143.1470 LP  0  0  0  0  0  0  0  0  0  0  0  0  # atno 17320 bound_to 7965
  145.9770  140.8713  143.0133 LP  0  0  0  0  0  0  0  0  0  0  0  0  # atno 17321 bound_to 7965
  140.1793  144.4860  150.6537 LP  0  0  0  0  0  0  0  0  0  0  0  0  # atno 17342 bound_to 10162
  140.6668  143.2271  151.5724 LP  0  0  0  0  0  0  0  0  0  0  0  0  # atno 17343 bound_to 10162
  156.1340  130.6198  151.0373 LP  0  0  0  0  0  0  0  0  0  0  0  0  # atno 17370 bound_to 10713
  157.6735  131.0856  150.7553 LP  0  0  0  0  0  0  0  0  0  0  0  0  # atno 17371 bound_to 10713
  140.1947  134.8940  157.3101 LP  0  0  0  0  0  0  0  0  0  0  0  0  # atno 17394 bound_to 11000
  140.2251  134.3976  155.7547 LP  0  0  0  0  0  0  0  0  0  0  0  0  # atno 17395 bound_to 11000

$$$$
