AV-unprocessed.smi:1278|AV-procd|sdf|5352|dock8
  -GOLD-   22720 4483D 1   1.00000     0.00000
 Structure written by MMmdl.
 38 39  0  0  0  0  0  0  0  0  3 V2000
  145.8245  135.0800  151.5719 C   0  0  0  0  0  0  0  0  0  0  0  0
  145.7726  134.0794  152.7399 C   0  0  1  0  0  0  0  0  0  0  0  0
  146.4356  132.7312  152.4010 C   0  0  0  0  0  0  0  0  0  0  0  0
  147.9660  132.8513  152.3838 C   0  0  0  0  0  0  0  0  0  0  0  0
  148.4875  133.4639  153.6933 C   0  0  0  0  0  0  0  0  0  0  0  0
  147.8514  134.7795  153.9608 N   0  3  2  0  0  0  0  0  0  0  0  0
  148.4469  135.4624  155.1360 C   0  0  0  0  0  0  0  0  0  0  0  0
  148.2279  134.6755  156.4423 C   0  0  0  0  0  0  0  0  0  0  0  0
  147.7932  135.5525  157.5229 N   0  0  0  0  0  0  0  0  0  0  0  0
  148.5958  136.1473  158.4172 C   0  0  0  0  0  0  0  0  0  0  0  0
  149.8155  135.9736  158.3584 O   0  0  0  0  0  0  0  0  0  0  0  0
  147.9347  136.8992  159.3251 N   0  5  0  0  0  0  0  0  0  0  0  0
  147.6101  136.3779  160.5195 C   0  0  0  0  0  0  0  0  0  0  0  0
  147.4550  137.1205  161.6215 N   0  0  0  0  0  0  0  0  0  0  0  0
  147.1148  136.3738  162.7510 C   0  0  0  0  0  0  0  0  0  0  0  0
  146.9995  135.0320  162.5012 C   0  0  0  0  0  0  0  0  0  0  0  0
  147.3147  134.6644  160.8293 S   0  0  0  0  0  0  0  0  0  0  0  0
  146.3693  134.6655  154.0363 C   0  0  0  0  0  0  0  0  0  0  0  0
  146.8469  135.3645  151.3238 H   0  0  0  0  0  0  0  0  0  0  0  0
  145.2797  135.9927  151.8154 H   0  0  0  0  0  0  0  0  0  0  0  0
  145.3701  134.6585  150.6749 H   0  0  0  0  0  0  0  0  0  0  0  0
  144.7161  133.8826  152.9271 H   0  0  0  0  0  0  0  0  0  0  0  0
  146.1461  131.9911  153.1483 H   0  0  0  0  0  0  0  0  0  0  0  0
  146.0736  132.3551  151.4433 H   0  0  0  0  0  0  0  0  0  0  0  0
  148.4126  131.8682  152.2316 H   0  0  0  0  0  0  0  0  0  0  0  0
  148.2829  133.4638  151.5392 H   0  0  0  0  0  0  0  0  0  0  0  0
  148.2972  132.7891  154.5295 H   0  0  0  0  0  0  0  0  0  0  0  0
  149.5693  133.5829  153.6218 H   0  0  0  0  0  0  0  0  0  0  0  0
  149.5091  135.6432  154.9637 H   0  0  0  0  0  0  0  0  0  0  0  0
  147.9837  136.4439  155.2461 H   0  0  0  0  0  0  0  0  0  0  0  0
  147.4987  133.8775  156.2931 H   0  0  0  0  0  0  0  0  0  0  0  0
  149.1496  134.1959  156.7689 H   0  0  0  0  0  0  0  0  0  0  0  0
  146.8018  135.7274  157.6031 H   0  0  0  0  0  0  0  0  0  0  0  0
  146.9731  136.8804  163.6940 H   0  0  0  0  0  0  0  0  0  0  0  0
  146.7481  134.2426  163.1930 H   0  0  0  0  0  0  0  0  0  0  0  0
  145.9174  135.6377  154.2303 H   0  0  0  0  0  0  0  0  0  0  0  0
  146.1056  134.0291  154.8827 H   0  0  0  0  0  0  0  0  0  0  0  0
  148.0632  135.3599  153.1619 H   0  0  0  0  0  0  0  0  0  0  0  0
  1  2  1  0  0  0  0
  1 19  1  0  0  0  0
  1 20  1  0  0  0  0
  1 21  1  0  0  0  0
  2 18  1  0  0  0  0
  2  3  1  0  0  0  0
  2 22  1  0  0  0  0
  3  4  1  0  0  0  0
  3 23  1  0  0  0  0
  3 24  1  0  0  0  0
  4  5  1  0  0  0  0
  4 25  1  0  0  0  0
  4 26  1  0  0  0  0
  5  6  1  0  0  0  0
  5 27  1  0  0  0  0
  5 28  1  0  0  0  0
  6  7  1  0  0  0  0
  6 18  1  0  0  0  0
  6 38  1  0  0  0  0
  7  8  1  0  0  0  0
  7 29  1  0  0  0  0
  7 30  1  0  0  0  0
  8  9  1  0  0  0  0
  8 31  1  0  0  0  0
  8 32  1  0  0  0  0
  9 10  1  0  0  0  0
  9 33  1  0  0  0  0
 10 11  2  0  0  0  0
 10 12  1  0  0  0  0
 12 13  1  0  0  0  0
 13 17  1  0  0  0  0
 13 14  2  0  0  0  0
 14 15  1  0  0  0  0
 15 16  2  0  0  0  0
 15 34  1  0  0  0  0
 16 17  1  0  0  0  0
 16 35  1  0  0  0  0
 18 36  1  0  0  0  0
 18 37  1  0  0  0  0
M  CHG  1   6   1
M  CHG  1  12  -1
M  END
> <s_m_source_file>
AV-unprocessed.smi

> <i_m_source_file_index>
1278

> <i_lp_mmshare_version>
43012

> <i_f3d_flags>
0

> <s_epik_input>
W0NIM11bQ0BASF0xW0NIMl1bQ0gyXVtDSDJdTihbQ0gyXTEpW0NIMl1bQ0gyXVtOSF1DKD1PKVtOSF1jMm5bY0hdW2NIXXMy

> <s_epik_cmdline>
J2VwaWtfcHl0aG9uJywgJy1waCcsICc3LjAnLCAnLXRuJywgJzgnLCAnLW1hJywgJzIwMCcsICctbWV0YWxfYmluZGluZycsICctaW1hZScsICc8aW5maWxlLm1hZT4nLCAnLW9tYWUnLCAnPG91dGZpbGUubWFlPic=

> <r_lp_tautomer_probability>
0.999

> <r_epik_Ionization_Penalty>
6.22019

> <r_epik_Ionization_Penalty_Charging>
5.38911

> <r_epik_Ionization_Penalty_Neutral>
0.831074

> <r_epik_State_Penalty>
5.38904

> <r_epik_Charging_Adjusted_Penalty>
10.7782

> <i_epik_Tot_Q>
0

> <i_epik_Tot_abs_Q>
2

> <r_epik_Metal_State_Penalty>
1.41502

> <b_epik_Metal_Only>
1

> <s_lp_Force_Field>
OPLS_2005

> <r_lp_Energy>
8.87374

> <b_lp_Chiralities_Consistent>
1

> <s_lp_Variant>
AV-unprocessed.smi:1278-6

> <Gold.Version>
5.8.1

> <Gold.Id.Protein>
6NUR|6NUR_protein|mol2

> <Gold.PLP.Fitness>
41.7479

> <Gold.PLP.PLP>
-30.2928

> <Gold.PLP.part.hbond>
-4.0000

> <Gold.PLP.part.metal>
0.0000

> <Gold.PLP.part.buried>
-2.1136

> <Gold.PLP.part.nonpolar>
-24.1559

> <Gold.PLP.part.repulsive>
0.0292

> <Gold.PLP.ligand.clash>
0.0000

> <Gold.PLP.ligand.torsion>
1.4151

> <Gold.PLP.Chemscore.Hbond>
4.7360

> <Gold.PLP.Chemscore.CHOScore>
0.0000

> <Gold.PLP.Chemscore.Metal>
0.0000

> <Gold.Chemscore.Hbonds>
donor molecule, donor type, donor heavy atom, donor atom, acceptor molecule, acceptor atom, score
      L1  H     6    38       P1  7948  2.00
      P1  H  6896  6909       L1    11  1.00
      P1  H  6931  6943       L1    14  0.96
      P1  H  6934  6947       L1    14  0.84

> <Gold.PLP.Chemscore.Internal.Correction>
0.0773

> <Gold.Rescore>
     Score         DG    S(hbond)    S(metal)    S(lipo)     H(rot)  DE(clash)    DE(int)     intcor
     17.14     -19.09       3.24        0.00      58.24       1.57       0.52       1.43       ----

> <Gold.Chemscore.Fitness>
17.1431

> <Gold.Chemscore.DG>
-19.0942

> <Gold.Chemscore.ZeroCoef>
-5.4800

> <Gold.Chemscore.Hbond>
3.2373

> <Gold.Chemscore.Metal>
0.0000

> <Gold.Chemscore.Lipo>
58.2446

> <Gold.Chemscore.Internal_Hbond>
0.0000

> <Gold.Chemscore.DEClash>
0.5168

> <Gold.Chemscore.DEInternal>
1.4343

> <Gold.Chemscore.Rot>
1.5676

> <Gold.Chemscore.Internal.Correction>
   9.000000E+99

> <Gold.Chemscore.Hbonds>
donor molecule, donor type, donor heavy atom, donor atom, acceptor molecule, acceptor atom, score
      L1  H     6    38       P1  7948  1.00
      P1  H  6896  6909       L1    11  0.93
      P1  H  6931  6943       L1    14  0.61
      P1  H  6934  6947       L1    14  0.38

> <Gold.Chemscore.Hbond.Weighted>
-10.8126

> <Gold.Chemscore.Metal.Weighted>
-0.0000

> <Gold.Chemscore.Lipo.Weighted>
-6.8146

> <Gold.Chemscore.Internal_Hbond.Weighted>
0.0000

> <Gold.Chemscore.DEClash.Weighted>
0.5168

> <Gold.Chemscore.DEInternal.Weighted>
1.4343

> <Gold.Chemscore.Rot.Weighted>
4.0130

> <Gold.Chemscore.Internal.Correction.Weighted>
   9.000000E+99

> <Gold.Protein.RotatedTorsions>
[ 6907 6896 6895 6894 ] final   59.46 input  -60.11 | X-H torsion
[ 7974 7965 7964 7962 ] final -151.11 input  175.53 | X-H torsion
[ 8008 7997 7996 7995 ] final   33.50 input   59.86 | X-H torsion
[ 10167 10162 10161 10158 ] final    9.10 input  -65.29 | X-H torsion
[ 10718 10713 10712 10709 ] final  -94.20 input   66.30 | X-H torsion
[ 10763 10752 10751 10750 ] final   53.69 input  -60.55 | X-H torsion
[ 11005 11000 10999 10996 ] final  -38.69 input  -57.11 | X-H torsion

> <Gold.Protein.ActiveResidues>
 VAL166  LYS551  ARG553  GLY616  TRP617  ASP618  TYR619  PRO620  LYS621  CYS622 
 ASP623  PHE694  ASN695  SER759  ASP760  ASP761  ALA762  ILE779  LEU786  VAL792 
 PHE793  MET794  SER795  GLU796  ALA797  LYS798  CYS799  TRP800  GLU811  SER814 

> <Gold.Protein.RotatedAtoms>
  152.3916  134.6431  160.0104 H   0  0  0  0  0  0  0  0  0  0  0  0  # atno 6907 bound_to 6896
  151.6663  133.3309  159.3194 H   0  0  0  0  0  0  0  0  0  0  0  0  # atno 6908 bound_to 6896
  150.7831  134.6837  159.6503 H   0  0  0  0  0  0  0  0  0  0  0  0  # atno 6909 bound_to 6896
  144.7869  140.4842  143.5800 H   0  0  0  0  0  0  0  0  0  0  0  0  # atno 7974 bound_to 7965
  155.1396  140.3265  155.4455 H   0  0  0  0  0  0  0  0  0  0  0  0  # atno 8008 bound_to 7997
  156.2609  140.1996  156.6461 H   0  0  0  0  0  0  0  0  0  0  0  0  # atno 8009 bound_to 7997
  154.6552  140.0553  156.9987 H   0  0  0  0  0  0  0  0  0  0  0  0  # atno 8010 bound_to 7997
  140.6275  143.8069  150.7252 H   0  0  0  0  0  0  0  0  0  0  0  0  # atno 10167 bound_to 10162
  156.0024  130.5058  150.5891 H   0  0  0  0  0  0  0  0  0  0  0  0  # atno 10718 bound_to 10713
  152.9797  135.5770  154.4782 H   0  0  0  0  0  0  0  0  0  0  0  0  # atno 10763 bound_to 10752
  154.4335  135.2774  155.1898 H   0  0  0  0  0  0  0  0  0  0  0  0  # atno 10764 bound_to 10752
  154.3597  135.6191  153.5738 H   0  0  0  0  0  0  0  0  0  0  0  0  # atno 10765 bound_to 10752
  141.0046  133.6938  156.2086 H   0  0  0  0  0  0  0  0  0  0  0  0  # atno 11005 bound_to 11000
  145.5899  139.1495  143.3188 LP  0  0  0  0  0  0  0  0  0  0  0  0  # atno 17320 bound_to 7965
  146.2104  140.6025  142.9062 LP  0  0  0  0  0  0  0  0  0  0  0  0  # atno 17321 bound_to 7965
  140.1673  143.4225  152.2026 LP  0  0  0  0  0  0  0  0  0  0  0  0  # atno 17342 bound_to 10162
  139.5493  144.7324  151.4485 LP  0  0  0  0  0  0  0  0  0  0  0  0  # atno 17343 bound_to 10162
  157.3759  131.0773  151.1518 LP  0  0  0  0  0  0  0  0  0  0  0  0  # atno 17370 bound_to 10713
  157.2257  130.6502  149.5829 LP  0  0  0  0  0  0  0  0  0  0  0  0  # atno 17371 bound_to 10713
  140.6834  134.4743  157.5589 LP  0  0  0  0  0  0  0  0  0  0  0  0  # atno 17394 bound_to 11000
  139.9056  134.8456  156.1718 LP  0  0  0  0  0  0  0  0  0  0  0  0  # atno 17395 bound_to 11000

$$$$
