AV-unprocessed.smi:287|AV-procd|sdf|2181|dock4
  -GOLD-   2262021553D 1   1.00000     0.00000
 Structure written by MMmdl.
 55 58  0  0  0  0  0  0  0  0  1 V2000
  152.2020  144.9470  160.1693 C   0  0  0  0  0  0  0  0  0  0  0  0
  152.2805  143.5390  159.6874 C   0  0  0  0  0  0  0  0  0  0  0  0
  151.5022  142.7776  158.8652 C   0  0  0  0  0  0  0  0  0  0  0  0
  152.1005  141.4845  158.7884 C   0  0  0  0  0  0  0  0  0  0  0  0
  151.5682  140.3056  157.9850 C   0  0  1  0  0  0  0  0  0  0  0  0
  150.2204  140.6747  157.3417 C   0  0  0  0  0  0  0  0  0  0  0  0
  152.4084  139.9478  156.9047 O   0  0  0  0  0  0  0  0  0  0  0  0
  151.4136  139.0353  158.8510 C   0  0  0  0  0  0  0  0  0  0  0  0
  151.6223  137.8060  158.0966 N   0  0  0  0  0  0  0  0  0  0  0  0
  150.6075  136.9448  157.8738 C   0  0  0  0  0  0  0  0  0  0  0  0
  149.8919  136.5928  158.9688 N   0  0  0  0  0  0  0  0  0  0  0  0
  148.8645  135.7463  158.8574 C   0  0  0  0  0  0  0  0  0  0  0  0
  148.3906  135.1490  157.7625 N   0  0  0  0  0  0  0  0  0  0  0  0
  149.1057  135.4996  156.6547 C   0  0  0  0  0  0  0  0  0  0  0  0
  150.2231  136.3820  156.6200 C   0  0  0  0  0  0  0  0  0  0  0  0
  150.6847  136.4795  155.3112 N   0  0  0  0  0  0  0  0  0  0  0  0
  149.8890  135.7049  154.6249 C   0  0  0  0  0  0  0  0  0  0  0  0
  148.8980  135.0870  155.3567 N   0  0  0  0  0  0  0  0  0  0  0  0
  147.8292  134.1386  154.9069 C   0  0  2  0  0  0  0  0  0  0  0  0
  148.1315  132.8699  155.4058 O   0  0  0  0  0  0  0  0  0  0  0  0
  148.8273  132.1233  154.4128 C   0  0  1  0  0  0  0  0  0  0  0  0
  148.8206  130.6184  154.7334 C   0  0  0  0  0  0  0  0  0  0  0  0
  149.5091  129.9066  153.7270 O   0  0  0  0  0  0  0  0  0  0  0  0
  148.0842  132.5355  153.1364 C   0  0  1  0  0  0  0  0  0  0  0  0
  146.8802  131.7974  153.0007 O   0  0  0  0  0  0  0  0  0  0  0  0
  147.8388  134.0261  153.3698 C   0  0  1  0  0  0  0  0  0  0  0  0
  146.6448  134.4879  152.7658 O   0  0  0  0  0  0  0  0  0  0  0  0
  153.2199  141.5685  159.5821 C   0  0  0  0  0  0  0  0  0  0  0  0
  154.3014  140.6103  159.9590 C   0  0  0  0  0  0  0  0  0  0  0  0
  153.3355  142.8104  160.1302 O   0  0  0  0  0  0  0  0  0  0  0  0
  146.9065  134.5297  155.3377 H   0  0  0  0  0  0  0  0  0  0  0  0
  149.8551  132.4848  154.3420 H   0  0  0  0  0  0  0  0  0  0  0  0
  148.6879  132.3650  152.2443 H   0  0  0  0  0  0  0  0  0  0  0  0
  148.6790  134.5949  152.9680 H   0  0  0  0  0  0  0  0  0  0  0  0
  151.2152  145.3693  159.9779 H   0  0  0  0  0  0  0  0  0  0  0  0
  152.9404  145.5693  159.6637 H   0  0  0  0  0  0  0  0  0  0  0  0
  152.3899  145.0014  161.2418 H   0  0  0  0  0  0  0  0  0  0  0  0
  150.5990  143.1089  158.3747 H   0  0  0  0  0  0  0  0  0  0  0  0
  149.4753  140.9257  158.0974 H   0  0  0  0  0  0  0  0  0  0  0  0
  149.8194  139.8502  156.7506 H   0  0  0  0  0  0  0  0  0  0  0  0
  150.3199  141.5372  156.6810 H   0  0  0  0  0  0  0  0  0  0  0  0
  151.9025  139.9838  156.1073 H   0  0  0  0  0  0  0  0  0  0  0  0
  152.1701  139.0613  159.6363 H   0  0  0  0  0  0  0  0  0  0  0  0
  150.4412  139.0186  159.3455 H   0  0  0  0  0  0  0  0  0  0  0  0
  152.5662  137.6467  157.7739 H   0  0  0  0  0  0  0  0  0  0  0  0
  148.3491  135.5142  159.7777 H   0  0  0  0  0  0  0  0  0  0  0  0
  150.0091  135.5688  153.5598 H   0  0  0  0  0  0  0  0  0  0  0  0
  149.2637  130.4157  155.7090 H   0  0  0  0  0  0  0  0  0  0  0  0
  147.7966  130.2444  154.7554 H   0  0  0  0  0  0  0  0  0  0  0  0
  149.7596  130.5145  153.0481 H   0  0  0  0  0  0  0  0  0  0  0  0
  146.7372  131.6317  152.0809 H   0  0  0  0  0  0  0  0  0  0  0  0
  146.7536  135.4030  152.5551 H   0  0  0  0  0  0  0  0  0  0  0  0
  154.8189  140.2434  159.0726 H   0  0  0  0  0  0  0  0  0  0  0  0
  153.8886  139.7532  160.4914 H   0  0  0  0  0  0  0  0  0  0  0  0
  155.0405  141.0829  160.6067 H   0  0  0  0  0  0  0  0  0  0  0  0
  1  2  1  0  0  0  0
  1 35  1  0  0  0  0
  1 36  1  0  0  0  0
  1 37  1  0  0  0  0
  2 30  1  0  0  0  0
  2  3  2  0  0  0  0
  3  4  1  0  0  0  0
  3 38  1  0  0  0  0
  4  5  1  0  0  0  0
  4 28  2  0  0  0  0
  5  6  1  0  0  0  0
  5  7  1  0  0  0  0
  5  8  1  0  0  0  0
  6 39  1  0  0  0  0
  6 40  1  0  0  0  0
  6 41  1  0  0  0  0
  7 42  1  0  0  0  0
  8  9  1  0  0  0  0
  8 43  1  0  0  0  0
  8 44  1  0  0  0  0
  9 10  1  0  0  0  0
  9 45  1  0  0  0  0
 10 15  1  0  0  0  0
 10 11  2  0  0  0  0
 11 12  1  0  0  0  0
 12 13  2  0  0  0  0
 12 46  1  0  0  0  0
 13 14  1  0  0  0  0
 14 18  1  0  0  0  0
 14 15  2  0  0  0  0
 15 16  1  0  0  0  0
 16 17  2  0  0  0  0
 17 18  1  0  0  0  0
 17 47  1  0  0  0  0
 18 19  1  0  0  0  0
 19 31  1  0  0  0  0
 19 26  1  0  0  0  0
 19 20  1  0  0  0  0
 20 21  1  0  0  0  0
 21 32  1  0  0  0  0
 21 22  1  0  0  0  0
 21 24  1  0  0  0  0
 22 23  1  0  0  0  0
 22 48  1  0  0  0  0
 22 49  1  0  0  0  0
 23 50  1  0  0  0  0
 24 33  1  0  0  0  0
 24 25  1  0  0  0  0
 24 26  1  0  0  0  0
 25 51  1  0  0  0  0
 26 34  1  0  0  0  0
 26 27  1  0  0  0  0
 27 52  1  0  0  0  0
 28 29  1  0  0  0  0
 28 30  1  0  0  0  0
 29 53  1  0  0  0  0
 29 54  1  0  0  0  0
 29 55  1  0  0  0  0
M  END
> <s_m_source_file>
AV-unprocessed.smi

> <i_m_source_file_index>
287

> <i_lp_mmshare_version>
43012

> <i_f3d_flags>
0

> <s_epik_input>
W0NIM11jMVtjSF1jKGMobzEpW0NIM10pW0NAQF0oW0NIM10pKFtPSF0pW0NIMl1bTkhdYyhuW2NIXW4yKWMoYzIzKW5bY0hdbjNbQ0BASF00T1tDQEhdKFtDSDJdW09IXSlbQ0BASF0oW09IXSlbQ0BIXTRbT0hd

> <s_epik_cmdline>
J2VwaWtfcHl0aG9uJywgJy1waCcsICc3LjAnLCAnLXRuJywgJzgnLCAnLW1hJywgJzIwMCcsICctbWV0YWxfYmluZGluZycsICctaW1hZScsICc8aW5maWxlLm1hZT4nLCAnLW9tYWUnLCAnPG91dGZpbGUubWFlPic=

> <r_lp_tautomer_probability>
1

> <r_epik_Ionization_Penalty>
0.000992612

> <r_epik_Ionization_Penalty_Charging>
0

> <r_epik_Ionization_Penalty_Neutral>
0.000992612

> <r_epik_State_Penalty>
-0

> <r_epik_Charging_Adjusted_Penalty>
0

> <i_epik_Tot_Q>
0

> <i_epik_Tot_abs_Q>
0

> <r_epik_Metal_State_Penalty>
-0

> <b_epik_Metal_Only>
0

> <s_epik_Chemistry_Notes>
This compound contains an acetal/aminal-like group ( X-CH(R)-Y where X, Y are N, S, or O) that may be acid/base labile, releasing an aldehyde.

> <s_lp_Force_Field>
OPLS_2005

> <r_lp_Energy>
45.0467

> <b_lp_Chiralities_Consistent>
1

> <s_lp_Variant>
AV-unprocessed.smi:287-5

> <Gold.Version>
5.8.1

> <Gold.Id.Protein>
6NUR|6NUR_protein|mol2

> <Gold.PLP.Fitness>
55.3510

> <Gold.PLP.PLP>
-44.8379

> <Gold.PLP.part.hbond>
-4.5410

> <Gold.PLP.part.metal>
0.0000

> <Gold.PLP.part.buried>
-5.6918

> <Gold.PLP.part.nonpolar>
-33.8334

> <Gold.PLP.part.repulsive>
0.1632

> <Gold.PLP.ligand.clash>
0.0000

> <Gold.PLP.ligand.torsion>
1.3261

> <Gold.PLP.Chemscore.Hbond>
3.6365

> <Gold.PLP.Chemscore.CHOScore>
0.7082

> <Gold.PLP.Chemscore.Metal>
0.0000

> <Gold.Chemscore.Hbonds>
donor molecule, donor type, donor heavy atom, donor atom, acceptor molecule, acceptor atom, score
      P1  H  6896  6909       L1    11  0.32
      P1  H  7997  8010       L1     7  1.00
      L1  C    17    47       P1  7948  0.35

> <Gold.PLP.Chemscore.Internal.Correction>
0.1312

> <Gold.Rescore>
     Score         DG    S(hbond)    S(metal)    S(lipo)     H(rot)  DE(clash)    DE(int)     intcor
     10.26     -12.05       2.34        0.00     104.62       5.27       0.35       1.45       ----

> <Gold.Chemscore.Fitness>
10.2572

> <Gold.Chemscore.DG>
-12.0528

> <Gold.Chemscore.ZeroCoef>
-5.4800

> <Gold.Chemscore.Hbond>
2.3400

> <Gold.Chemscore.Metal>
0.0000

> <Gold.Chemscore.Lipo>
104.6244

> <Gold.Chemscore.Internal_Hbond>
0.0000

> <Gold.Chemscore.DEClash>
0.3503

> <Gold.Chemscore.DEInternal>
1.4452

> <Gold.Chemscore.Rot>
5.2672

> <Gold.Chemscore.Internal.Correction>
   9.000000E+99

> <Gold.Chemscore.Hbonds>
donor molecule, donor type, donor heavy atom, donor atom, acceptor molecule, acceptor atom, score
      L1  H    27    52       P1  7948  0.03
      P1  H  7997  8010       L1     7  0.80

> <Gold.Chemscore.Hbond.Weighted>
-7.8156

> <Gold.Chemscore.Metal.Weighted>
-0.0000

> <Gold.Chemscore.Lipo.Weighted>
-12.2411

> <Gold.Chemscore.Internal_Hbond.Weighted>
0.0000

> <Gold.Chemscore.DEClash.Weighted>
0.3503

> <Gold.Chemscore.DEInternal.Weighted>
1.4452

> <Gold.Chemscore.Rot.Weighted>
13.4839

> <Gold.Chemscore.Internal.Correction.Weighted>
   9.000000E+99

> <Gold.Protein.RotatedTorsions>
[ 6907 6896 6895 6894 ] final   85.57 input  -60.11 | X-H torsion
[ 7974 7965 7964 7962 ] final  -21.63 input  175.53 | X-H torsion
[ 8008 7997 7996 7995 ] final   65.78 input   59.86 | X-H torsion
[ 10167 10162 10161 10158 ] final   81.06 input  -65.29 | X-H torsion
[ 10718 10713 10712 10709 ] final -100.70 input   66.30 | X-H torsion
[ 10763 10752 10751 10750 ] final -151.96 input  -60.55 | X-H torsion
[ 11005 11000 10999 10996 ] final -159.79 input  -57.11 | X-H torsion

> <Gold.Protein.ActiveResidues>
 VAL166  LYS551  ARG553  GLY616  TRP617  ASP618  TYR619  PRO620  LYS621  CYS622 
 ASP623  PHE694  ASN695  SER759  ASP760  ASP761  ALA762  ILE779  LEU786  VAL792 
 PHE793  MET794  SER795  GLU796  ALA797  LYS798  CYS799  TRP800  GLU811  SER814 

> <Gold.Protein.RotatedAtoms>
  152.5377  134.2566  159.8918 H   0  0  0  0  0  0  0  0  0  0  0  0  # atno 6907 bound_to 6896
  151.2527  133.4335  159.2620 H   0  0  0  0  0  0  0  0  0  0  0  0  # atno 6908 bound_to 6896
  151.0524  134.9696  159.8275 H   0  0  0  0  0  0  0  0  0  0  0  0  # atno 6909 bound_to 6896
  146.1722  140.4368  142.8528 H   0  0  0  0  0  0  0  0  0  0  0  0  # atno 7974 bound_to 7965
  155.6672  140.3497  155.4804 H   0  0  0  0  0  0  0  0  0  0  0  0  # atno 8008 bound_to 7997
  155.9719  140.1157  157.0827 H   0  0  0  0  0  0  0  0  0  0  0  0  # atno 8009 bound_to 7997
  154.4168  140.1155  156.5304 H   0  0  0  0  0  0  0  0  0  0  0  0  # atno 8010 bound_to 7997
  139.9432  144.6076  150.8231 H   0  0  0  0  0  0  0  0  0  0  0  0  # atno 10167 bound_to 10162
  156.0171  130.5340  150.6855 H   0  0  0  0  0  0  0  0  0  0  0  0  # atno 10718 bound_to 10713
  154.8025  135.3247  154.7515 H   0  0  0  0  0  0  0  0  0  0  0  0  # atno 10763 bound_to 10752
  153.8180  135.6890  153.4835 H   0  0  0  0  0  0  0  0  0  0  0  0  # atno 10764 bound_to 10752
  153.1750  135.4608  154.9896 H   0  0  0  0  0  0  0  0  0  0  0  0  # atno 10765 bound_to 10752
  140.6387  134.4574  157.5232 H   0  0  0  0  0  0  0  0  0  0  0  0  # atno 11005 bound_to 11000
  144.8180  140.6502  143.6371 LP  0  0  0  0  0  0  0  0  0  0  0  0  # atno 17320 bound_to 7965
  145.4310  139.1549  143.4022 LP  0  0  0  0  0  0  0  0  0  0  0  0  # atno 17321 bound_to 7965
  140.7605  143.3152  151.2750 LP  0  0  0  0  0  0  0  0  0  0  0  0  # atno 17342 bound_to 10162
  139.6688  144.0058  152.2740 LP  0  0  0  0  0  0  0  0  0  0  0  0  # atno 17343 bound_to 10162
  157.4548  131.0876  151.0808 LP  0  0  0  0  0  0  0  0  0  0  0  0  # atno 17370 bound_to 10713
  157.1313  130.6103  149.5530 LP  0  0  0  0  0  0  0  0  0  0  0  0  # atno 17371 bound_to 10713
  139.9088  134.8389  156.1604 LP  0  0  0  0  0  0  0  0  0  0  0  0  # atno 17394 bound_to 11000
  141.0623  133.6836  156.1976 LP  0  0  0  0  0  0  0  0  0  0  0  0  # atno 17395 bound_to 11000

$$$$
