AV-unprocessed.smi:1285|AV-procd|sdf|5370|dock3
  -GOLD-   22720 4513D 1   1.00000     0.00000
 Structure written by MMmdl.
 46 47  0  0  0  0  0  0  0  0  1 V2000
  148.8938  133.4623  153.6830 C   0  0  0  0  0  0  0  0  0  0  0  0
  148.1285  132.1271  153.6276 C   0  0  0  0  0  0  0  0  0  0  0  0
  147.3670  131.7304  154.9325 C   0  0  2  0  0  0  0  0  0  0  0  0
  146.6964  130.3595  154.6469 C   0  0  0  0  0  0  0  0  0  0  0  0
  146.2487  132.7927  155.1888 C   0  0  0  0  0  0  0  0  0  0  0  0
  145.2701  132.9016  154.1069 N   0  0  0  0  0  0  0  0  0  0  0  0
  145.3811  133.6871  153.0234 C   0  0  0  0  0  0  0  0  0  0  0  0
  146.3412  134.4324  152.8253 O   0  0  0  0  0  0  0  0  0  0  0  0
  144.2277  133.6159  152.0116 C   0  0  1  0  0  0  0  0  0  0  0  0
  143.6726  135.0103  151.6557 C   0  0  0  0  0  0  0  0  0  0  0  0
  144.6422  132.8631  150.8337 N   0  0  0  0  0  0  0  0  0  0  0  0
  143.9865  132.6258  149.6952 C   0  0  0  0  0  0  0  0  0  0  0  0
  144.6446  131.8505  148.8448 N   0  0  0  0  0  0  0  0  0  0  0  0
  145.7736  131.6164  149.5774 C   0  0  0  0  0  0  0  0  0  0  0  0
  145.8186  132.1895  150.7799 N   0  0  0  0  0  0  0  0  0  0  0  0
  148.3035  131.6176  156.0869 N   0  0  0  0  0  0  0  0  0  0  0  0
  149.4968  130.7965  155.8471 C   0  0  0  0  0  0  0  0  0  0  0  0
  150.4795  130.8485  157.0291 C   0  0  0  0  0  0  0  0  0  0  0  0
  149.8199  130.4375  158.2205 O   0  0  0  0  0  0  0  0  0  0  0  0
  148.6874  131.2442  158.5209 C   0  0  0  0  0  0  0  0  0  0  0  0
  147.6904  131.1919  157.3510 C   0  0  0  0  0  0  0  0  0  0  0  0
  149.3831  133.6606  152.7293 H   0  0  0  0  0  0  0  0  0  0  0  0
  149.6698  133.4527  154.4478 H   0  0  0  0  0  0  0  0  0  0  0  0
  148.2307  134.3029  153.8877 H   0  0  0  0  0  0  0  0  0  0  0  0
  147.4416  132.1515  152.7818 H   0  0  0  0  0  0  0  0  0  0  0  0
  148.8498  131.3516  153.3674 H   0  0  0  0  0  0  0  0  0  0  0  0
  146.2021  130.3390  153.6752 H   0  0  0  0  0  0  0  0  0  0  0  0
  145.9319  130.1177  155.3855 H   0  0  0  0  0  0  0  0  0  0  0  0
  147.4223  129.5460  154.6531 H   0  0  0  0  0  0  0  0  0  0  0  0
  145.7314  132.5996  156.1286 H   0  0  0  0  0  0  0  0  0  0  0  0
  146.6861  133.7849  155.2948 H   0  0  0  0  0  0  0  0  0  0  0  0
  144.4439  132.3272  154.1885 H   0  0  0  0  0  0  0  0  0  0  0  0
  143.4136  133.0569  152.4766 H   0  0  0  0  0  0  0  0  0  0  0  0
  143.3289  135.5348  152.5481 H   0  0  0  0  0  0  0  0  0  0  0  0
  142.8218  134.9277  150.9789 H   0  0  0  0  0  0  0  0  0  0  0  0
  144.4193  135.6408  151.1714 H   0  0  0  0  0  0  0  0  0  0  0  0
  143.0048  133.0247  149.4859 H   0  0  0  0  0  0  0  0  0  0  0  0
  146.5832  130.9996  149.2165 H   0  0  0  0  0  0  0  0  0  0  0  0
  149.2150  129.7578  155.6753 H   0  0  0  0  0  0  0  0  0  0  0  0
  150.0294  131.1308  154.9587 H   0  0  0  0  0  0  0  0  0  0  0  0
  151.3273  130.1884  156.8458 H   0  0  0  0  0  0  0  0  0  0  0  0
  150.8794  131.8561  157.1544 H   0  0  0  0  0  0  0  0  0  0  0  0
  148.2201  130.8748  159.4338 H   0  0  0  0  0  0  0  0  0  0  0  0
  149.0023  132.2710  158.7147 H   0  0  0  0  0  0  0  0  0  0  0  0
  146.8422  131.8238  157.6076 H   0  0  0  0  0  0  0  0  0  0  0  0
  147.3118  130.1735  157.2635 H   0  0  0  0  0  0  0  0  0  0  0  0
  1  2  1  0  0  0  0
  1 22  1  0  0  0  0
  1 23  1  0  0  0  0
  1 24  1  0  0  0  0
  2  3  1  0  0  0  0
  2 25  1  0  0  0  0
  2 26  1  0  0  0  0
  3  4  1  0  0  0  0
  3  5  1  0  0  0  0
  3 16  1  0  0  0  0
  4 27  1  0  0  0  0
  4 28  1  0  0  0  0
  4 29  1  0  0  0  0
  5  6  1  0  0  0  0
  5 30  1  0  0  0  0
  5 31  1  0  0  0  0
  6  7  1  0  0  0  0
  6 32  1  0  0  0  0
  7  8  2  0  0  0  0
  7  9  1  0  0  0  0
  9 10  1  0  0  0  0
  9 11  1  0  0  0  0
  9 33  1  0  0  0  0
 10 34  1  0  0  0  0
 10 35  1  0  0  0  0
 10 36  1  0  0  0  0
 11 15  1  0  0  0  0
 11 12  1  0  0  0  0
 12 13  2  0  0  0  0
 12 37  1  0  0  0  0
 13 14  1  0  0  0  0
 14 15  2  0  0  0  0
 14 38  1  0  0  0  0
 16 21  1  0  0  0  0
 16 17  1  0  0  0  0
 17 18  1  0  0  0  0
 17 39  1  0  0  0  0
 17 40  1  0  0  0  0
 18 19  1  0  0  0  0
 18 41  1  0  0  0  0
 18 42  1  0  0  0  0
 19 20  1  0  0  0  0
 20 21  1  0  0  0  0
 20 43  1  0  0  0  0
 20 44  1  0  0  0  0
 21 45  1  0  0  0  0
 21 46  1  0  0  0  0
M  END
> <s_m_source_file>
AV-unprocessed.smi

> <i_m_source_file_index>
1285

> <i_lp_mmshare_version>
43012

> <i_f3d_flags>
0

> <s_epik_input>
W0NIMl0xW0NIMl1PW0NIMl1bQ0gyXU4xW0NAQF0oW0NIM10pKFtDSDJdW0NIM10pW0NIMl1bTkhdQyg9TylbQ0BIXShbQ0gzXSluMltjSF1uW2NIXW4y

> <s_epik_cmdline>
J2VwaWtfcHl0aG9uJywgJy1waCcsICc3LjAnLCAnLXRuJywgJzgnLCAnLW1hJywgJzIwMCcsICctbWV0YWxfYmluZGluZycsICctaW1hZScsICc8aW5maWxlLm1hZT4nLCAnLW9tYWUnLCAnPG91dGZpbGUubWFlPic=

> <r_lp_tautomer_probability>
1

> <r_epik_Ionization_Penalty>
0.285697

> <r_epik_Ionization_Penalty_Charging>
0

> <r_epik_Ionization_Penalty_Neutral>
0.285697

> <r_epik_State_Penalty>
0.278478

> <r_epik_Charging_Adjusted_Penalty>
0.278478

> <i_epik_Tot_Q>
0

> <i_epik_Tot_abs_Q>
0

> <r_epik_Metal_State_Penalty>
0.278477

> <b_epik_Metal_Only>
0

> <s_lp_Force_Field>
OPLS_2005

> <r_lp_Energy>
49.308

> <b_lp_Chiralities_Consistent>
1

> <s_lp_Variant>
AV-unprocessed.smi:1285-4

> <Gold.Version>
5.8.1

> <Gold.Id.Protein>
6NUR|6NUR_protein|mol2

> <Gold.PLP.Fitness>
34.3147

> <Gold.PLP.PLP>
-26.5365

> <Gold.PLP.part.hbond>
-2.2164

> <Gold.PLP.part.metal>
0.0000

> <Gold.PLP.part.buried>
-4.9705

> <Gold.PLP.part.nonpolar>
-20.3264

> <Gold.PLP.part.repulsive>
0.4490

> <Gold.PLP.ligand.clash>
0.0000

> <Gold.PLP.ligand.torsion>
0.6869

> <Gold.PLP.Chemscore.Hbond>
1.0000

> <Gold.PLP.Chemscore.CHOScore>
1.9689

> <Gold.PLP.Chemscore.Metal>
0.0000

> <Gold.Chemscore.Hbonds>
donor molecule, donor type, donor heavy atom, donor atom, acceptor molecule, acceptor atom, score
      L1  H     6    32       P1 10957  1.00
      P1  H 10785 10796       L1    13  0.17
      L1  C    12    37       P1 10186  1.00
      L1  C    14    38       P1 10747  0.80

> <Gold.PLP.Chemscore.Internal.Correction>
0.2451

> <Gold.Rescore>
     Score         DG    S(hbond)    S(metal)    S(lipo)     H(rot)  DE(clash)    DE(int)     intcor
      6.19      -8.38       1.68        0.00      35.39       2.68       0.04       2.14       ----

> <Gold.Chemscore.Fitness>
6.1921

> <Gold.Chemscore.DG>
-8.3764

> <Gold.Chemscore.ZeroCoef>
-5.4800

> <Gold.Chemscore.Hbond>
1.6831

> <Gold.Chemscore.Metal>
0.0000

> <Gold.Chemscore.Lipo>
35.3930

> <Gold.Chemscore.Internal_Hbond>
0.0000

> <Gold.Chemscore.DEClash>
0.0434

> <Gold.Chemscore.DEInternal>
2.1409

> <Gold.Chemscore.Rot>
2.6821

> <Gold.Chemscore.Internal.Correction>
   9.000000E+99

> <Gold.Chemscore.Hbonds>
donor molecule, donor type, donor heavy atom, donor atom, acceptor molecule, acceptor atom, score
      L1  H     6    32       P1 10957  0.44
      P1  H 10785 10796       L1    13  0.04

> <Gold.Chemscore.Hbond.Weighted>
-5.6215

> <Gold.Chemscore.Metal.Weighted>
-0.0000

> <Gold.Chemscore.Lipo.Weighted>
-4.1410

> <Gold.Chemscore.Internal_Hbond.Weighted>
0.0000

> <Gold.Chemscore.DEClash.Weighted>
0.0434

> <Gold.Chemscore.DEInternal.Weighted>
2.1409

> <Gold.Chemscore.Rot.Weighted>
6.8661

> <Gold.Chemscore.Internal.Correction.Weighted>
   9.000000E+99

> <Gold.Protein.RotatedTorsions>
[ 6907 6896 6895 6894 ] final  -28.62 input  -60.11 | X-H torsion
[ 7974 7965 7964 7962 ] final  -93.26 input  175.53 | X-H torsion
[ 8008 7997 7996 7995 ] final  133.84 input   59.86 | X-H torsion
[ 10167 10162 10161 10158 ] final -104.07 input  -65.29 | X-H torsion
[ 10718 10713 10712 10709 ] final  101.57 input   66.30 | X-H torsion
[ 10763 10752 10751 10750 ] final   64.81 input  -60.55 | X-H torsion
[ 11005 11000 10999 10996 ] final -151.39 input  -57.11 | X-H torsion

> <Gold.Protein.ActiveResidues>
 VAL166  LYS551  ARG553  GLY616  TRP617  ASP618  TYR619  PRO620  LYS621  CYS622 
 ASP623  PHE694  ASN695  SER759  ASP760  ASP761  ALA762  ILE779  LEU786  VAL792 
 PHE793  MET794  SER795  GLU796  ALA797  LYS798  CYS799  TRP800  GLU811  SER814 

> <Gold.Protein.RotatedAtoms>
  151.1304  135.0127  159.8579 H   0  0  0  0  0  0  0  0  0  0  0  0  # atno 6907 bound_to 6896
  152.5451  134.1617  159.8570 H   0  0  0  0  0  0  0  0  0  0  0  0  # atno 6908 bound_to 6896
  151.1683  133.4755  159.2627 H   0  0  0  0  0  0  0  0  0  0  0  0  # atno 6909 bound_to 6896
  145.3889  140.9526  143.2351 H   0  0  0  0  0  0  0  0  0  0  0  0  # atno 7974 bound_to 7965
  156.2995  140.2511  156.3319 H   0  0  0  0  0  0  0  0  0  0  0  0  # atno 8008 bound_to 7997
  154.9136  140.0402  157.1979 H   0  0  0  0  0  0  0  0  0  0  0  0  # atno 8009 bound_to 7997
  154.8380  140.2886  155.5682 H   0  0  0  0  0  0  0  0  0  0  0  0  # atno 8010 bound_to 7997
  140.2132  143.3731  152.1033 H   0  0  0  0  0  0  0  0  0  0  0  0  # atno 10167 bound_to 10162
  157.6826  131.0730  150.5272 H   0  0  0  0  0  0  0  0  0  0  0  0  # atno 10718 bound_to 10713
  153.0071  135.5379  154.6568 H   0  0  0  0  0  0  0  0  0  0  0  0  # atno 10763 bound_to 10752
  154.5787  135.2848  155.0757 H   0  0  0  0  0  0  0  0  0  0  0  0  # atno 10764 bound_to 10752
  154.1894  135.6502  153.5108 H   0  0  0  0  0  0  0  0  0  0  0  0  # atno 10765 bound_to 10752
  140.7301  134.3631  157.5168 H   0  0  0  0  0  0  0  0  0  0  0  0  # atno 11005 bound_to 11000
  144.8454  139.5405  143.6881 LP  0  0  0  0  0  0  0  0  0  0  0  0  # atno 17320 bound_to 7965
  146.2807  139.6869  142.9231 LP  0  0  0  0  0  0  0  0  0  0  0  0  # atno 17321 bound_to 7965
  139.5172  144.6988  151.5552 LP  0  0  0  0  0  0  0  0  0  0  0  0  # atno 17342 bound_to 10162
  140.6309  143.9078  150.6604 LP  0  0  0  0  0  0  0  0  0  0  0  0  # atno 17343 bound_to 10162
  156.5583  130.4249  149.6075 LP  0  0  0  0  0  0  0  0  0  0  0  0  # atno 17370 bound_to 10713
  156.2843  130.7088  151.1920 LP  0  0  0  0  0  0  0  0  0  0  0  0  # atno 17371 bound_to 10713
  139.8828  134.9012  156.2806 LP  0  0  0  0  0  0  0  0  0  0  0  0  # atno 17394 bound_to 11000
  140.9928  133.7198  156.0840 LP  0  0  0  0  0  0  0  0  0  0  0  0  # atno 17395 bound_to 11000

$$$$
