AV-unprocessed.smi:2464|AV-procd|sdf|9721|dock10
  -GOLD-   2272013363D 1   1.00000     0.00000
 Structure written by MMmdl.
 32 33  0  0  0  0  0  0  0  0  3 V2000
  152.7949  143.8536  159.3759 C   0  0  0  0  0  0  0  0  0  0  0  0
  153.0282  142.3556  159.5976 C   0  0  0  0  0  0  0  0  0  0  0  0
  152.7900  141.6238  158.3515 N   0  0  0  0  0  0  0  0  0  0  0  0
  151.6378  141.5764  157.6645 C   0  0  0  0  0  0  0  0  0  0  0  0
  150.6128  142.1658  158.0080 O   0  0  0  0  0  0  0  0  0  0  0  0
  151.7525  140.7925  156.5794 N   0  0  0  0  0  0  0  0  0  0  0  0
  150.7500  140.4653  155.6228 C   0  0  0  0  0  0  0  0  0  0  0  0
  149.4494  141.0215  155.6916 C   0  0  0  0  0  0  0  0  0  0  0  0
  148.5169  140.7044  154.6867 C   0  0  0  0  0  0  0  0  0  0  0  0
  148.7999  139.9025  153.6417 N   0  0  0  0  0  0  0  0  0  0  0  0
  150.0432  139.3843  153.5659 C   0  0  0  0  0  0  0  0  0  0  0  0
  151.0602  139.6240  154.5189 C   0  0  0  0  0  0  0  0  0  0  0  0
  152.3838  138.9990  154.3332 N   0  3  0  0  0  0  0  0  0  0  0  0
  153.3565  139.5004  154.8875 O   0  0  0  0  0  0  0  0  0  0  0  0
  152.4404  137.9852  153.6458 O   0  5  0  0  0  0  0  0  0  0  0  0
  154.3245  141.9023  160.3037 C   0  0  0  0  0  0  0  0  0  0  0  0
  153.5382  141.8849  161.6169 C   0  0  0  0  0  0  0  0  0  0  0  0
  152.2831  141.6785  160.7637 C   0  0  0  0  0  0  0  0  0  0  0  0
  152.8543  144.4116  160.3106 H   0  0  0  0  0  0  0  0  0  0  0  0
  151.8101  144.0447  158.9479 H   0  0  0  0  0  0  0  0  0  0  0  0
  153.5360  144.2814  158.7003 H   0  0  0  0  0  0  0  0  0  0  0  0
  153.5734  141.1021  157.9861 H   0  0  0  0  0  0  0  0  0  0  0  0
  152.6235  140.2910  156.4856 H   0  0  0  0  0  0  0  0  0  0  0  0
  149.1587  141.6959  156.4828 H   0  0  0  0  0  0  0  0  0  0  0  0
  147.5196  141.1171  154.7178 H   0  0  0  0  0  0  0  0  0  0  0  0
  150.2279  138.7474  152.7133 H   0  0  0  0  0  0  0  0  0  0  0  0
  154.6641  140.9065  160.0105 H   0  0  0  0  0  0  0  0  0  0  0  0
  155.1397  142.6259  160.2726 H   0  0  0  0  0  0  0  0  0  0  0  0
  153.7795  141.0574  162.2843 H   0  0  0  0  0  0  0  0  0  0  0  0
  153.5522  142.8445  162.1363 H   0  0  0  0  0  0  0  0  0  0  0  0
  151.4021  142.2141  161.1190 H   0  0  0  0  0  0  0  0  0  0  0  0
  152.0657  140.6217  160.5949 H   0  0  0  0  0  0  0  0  0  0  0  0
  1  2  1  0  0  0  0
  1 19  1  0  0  0  0
  1 20  1  0  0  0  0
  1 21  1  0  0  0  0
  2 18  1  0  0  0  0
  2  3  1  0  0  0  0
  2 16  1  0  0  0  0
  3  4  1  0  0  0  0
  3 22  1  0  0  0  0
  4  5  2  0  0  0  0
  4  6  1  0  0  0  0
  6  7  1  0  0  0  0
  6 23  1  0  0  0  0
  7 12  1  0  0  0  0
  7  8  2  0  0  0  0
  8  9  1  0  0  0  0
  8 24  1  0  0  0  0
  9 10  2  0  0  0  0
  9 25  1  0  0  0  0
 10 11  1  0  0  0  0
 11 12  2  0  0  0  0
 11 26  1  0  0  0  0
 12 13  1  0  0  0  0
 13 14  2  0  0  0  0
 13 15  1  0  0  0  0
 16 17  1  0  0  0  0
 16 27  1  0  0  0  0
 16 28  1  0  0  0  0
 17 18  1  0  0  0  0
 17 29  1  0  0  0  0
 17 30  1  0  0  0  0
 18 31  1  0  0  0  0
 18 32  1  0  0  0  0
M  CHG  1  13   1
M  CHG  1  15  -1
M  END
> <s_m_source_file>
AV-unprocessed.smi

> <i_m_source_file_index>
2464

> <i_lp_mmshare_version>
43012

> <i_f3d_flags>
0

> <s_epik_input>
W0NIMl0xW0NIMl1bQ0gyXUMxKFtDSDNdKVtOSF1DKD1PKVtOSF1jMltjSF1bY0hdbltjSF1jMltOK10oPU8pW08tXQ==

> <s_epik_cmdline>
J2VwaWtfcHl0aG9uJywgJy1waCcsICc3LjAnLCAnLXRuJywgJzgnLCAnLW1hJywgJzIwMCcsICctbWV0YWxfYmluZGluZycsICctaW1hZScsICc8aW5maWxlLm1hZT4nLCAnLW9tYWUnLCAnPG91dGZpbGUubWFlPic=

> <r_lp_tautomer_probability>
1

> <r_epik_Ionization_Penalty>
0.000161487

> <r_epik_Ionization_Penalty_Charging>
0

> <r_epik_Ionization_Penalty_Neutral>
0.000161487

> <r_epik_State_Penalty>
-0

> <r_epik_Charging_Adjusted_Penalty>
0

> <i_epik_Tot_Q>
0

> <i_epik_Tot_abs_Q>
2

> <r_epik_Metal_State_Penalty>
-0

> <b_epik_Metal_Only>
0

> <s_lp_Force_Field>
OPLS_2005

> <r_lp_Energy>
25.6435

> <b_lp_Chiralities_Consistent>
1

> <s_lp_Variant>
AV-unprocessed.smi:2464-1

> <Gold.Version>
5.8.1

> <Gold.Id.Protein>
6NUR|6NUR_protein|mol2

> <Gold.PLP.Fitness>
41.1204

> <Gold.PLP.PLP>
-32.3278

> <Gold.PLP.part.hbond>
-2.0000

> <Gold.PLP.part.metal>
0.0000

> <Gold.PLP.part.buried>
-2.2972

> <Gold.PLP.part.nonpolar>
-30.3037

> <Gold.PLP.part.repulsive>
2.2904

> <Gold.PLP.ligand.clash>
0.0000

> <Gold.PLP.ligand.torsion>
0.3744

> <Gold.PLP.Chemscore.Hbond>
1.9913

> <Gold.PLP.Chemscore.CHOScore>
1.0897

> <Gold.PLP.Chemscore.Metal>
0.0000

> <Gold.Chemscore.Hbonds>
donor molecule, donor type, donor heavy atom, donor atom, acceptor molecule, acceptor atom, score
      P1  H  7997  8008       L1    14  1.00
      L1  C    11    26       P1  7948  0.10
      L1  C    11    26       P1  7957  0.42

> <Gold.PLP.Chemscore.Internal.Correction>
0.2986

> <Gold.Rescore>
     Score         DG    S(hbond)    S(metal)    S(lipo)     H(rot)  DE(clash)    DE(int)     intcor
     14.16     -18.97       1.86        0.00      84.15       1.00       0.12       4.69       ----

> <Gold.Chemscore.Fitness>
14.1593

> <Gold.Chemscore.DG>
-18.9720

> <Gold.Chemscore.ZeroCoef>
-5.4800

> <Gold.Chemscore.Hbond>
1.8584

> <Gold.Chemscore.Metal>
0.0000

> <Gold.Chemscore.Lipo>
84.1456

> <Gold.Chemscore.Internal_Hbond>
0.0000

> <Gold.Chemscore.DEClash>
0.1199

> <Gold.Chemscore.DEInternal>
4.6928

> <Gold.Chemscore.Rot>
1.0000

> <Gold.Chemscore.Internal.Correction>
   9.000000E+99

> <Gold.Chemscore.Hbonds>
donor molecule, donor type, donor heavy atom, donor atom, acceptor molecule, acceptor atom, score
      P1  H  7997  8008       L1    14  0.98
      P1  H 10752 10765       L1    15  0.03

> <Gold.Chemscore.Hbond.Weighted>
-6.2070

> <Gold.Chemscore.Metal.Weighted>
-0.0000

> <Gold.Chemscore.Lipo.Weighted>
-9.8450

> <Gold.Chemscore.Internal_Hbond.Weighted>
0.0000

> <Gold.Chemscore.DEClash.Weighted>
0.1199

> <Gold.Chemscore.DEInternal.Weighted>
4.6928

> <Gold.Chemscore.Rot.Weighted>
2.5600

> <Gold.Chemscore.Internal.Correction.Weighted>
   9.000000E+99

> <Gold.Protein.RotatedTorsions>
[ 6907 6896 6895 6894 ] final  176.42 input  -60.11 | X-H torsion
[ 7974 7965 7964 7962 ] final  140.82 input  175.53 | X-H torsion
[ 8008 7997 7996 7995 ] final  -25.80 input   59.86 | X-H torsion
[ 10167 10162 10161 10158 ] final   59.16 input  -65.29 | X-H torsion
[ 10718 10713 10712 10709 ] final   -1.08 input   66.30 | X-H torsion
[ 10763 10752 10751 10750 ] final  162.98 input  -60.55 | X-H torsion
[ 11005 11000 10999 10996 ] final   76.42 input  -57.11 | X-H torsion

> <Gold.Protein.ActiveResidues>
 VAL166  LYS551  ARG553  GLY616  TRP617  ASP618  TYR619  PRO620  LYS621  CYS622 
 ASP623  PHE694  ASN695  SER759  ASP760  ASP761  ALA762  ILE779  LEU786  VAL792 
 PHE793  MET794  SER795  GLU796  ALA797  LYS798  CYS799  TRP800  GLU811  SER814 

> <Gold.Protein.RotatedAtoms>
  151.7205  133.3314  159.3313 H   0  0  0  0  0  0  0  0  0  0  0  0  # atno 6907 bound_to 6896
  150.7655  134.6453  159.6268 H   0  0  0  0  0  0  0  0  0  0  0  0  # atno 6908 bound_to 6896
  152.3655  134.6813  160.0245 H   0  0  0  0  0  0  0  0  0  0  0  0  # atno 6909 bound_to 6896
  144.9152  139.5240  143.5690 H   0  0  0  0  0  0  0  0  0  0  0  0  # atno 7974 bound_to 7965
  154.4457  140.1917  156.0675 H   0  0  0  0  0  0  0  0  0  0  0  0  # atno 8008 bound_to 7997
  156.0536  140.3305  155.7353 H   0  0  0  0  0  0  0  0  0  0  0  0  # atno 8009 bound_to 7997
  155.5519  140.0596  157.2839 H   0  0  0  0  0  0  0  0  0  0  0  0  # atno 8010 bound_to 7997
  140.1794  144.4197  150.6622 H   0  0  0  0  0  0  0  0  0  0  0  0  # atno 10167 bound_to 10162
  156.8110  130.5424  149.5709 H   0  0  0  0  0  0  0  0  0  0  0  0  # atno 10718 bound_to 10713
  154.2868  135.2762  155.2673 H   0  0  0  0  0  0  0  0  0  0  0  0  # atno 10763 bound_to 10752
  154.5169  135.5767  153.6653 H   0  0  0  0  0  0  0  0  0  0  0  0  # atno 10764 bound_to 10752
  152.9920  135.6195  154.3030 H   0  0  0  0  0  0  0  0  0  0  0  0  # atno 10765 bound_to 10752
  139.9299  134.7599  156.1394 H   0  0  0  0  0  0  0  0  0  0  0  0  # atno 11005 bound_to 11000
  146.3178  139.7989  142.8969 LP  0  0  0  0  0  0  0  0  0  0  0  0  # atno 17320 bound_to 7965
  145.3388  141.0283  143.3404 LP  0  0  0  0  0  0  0  0  0  0  0  0  # atno 17321 bound_to 7965
  140.6529  143.2230  151.6035 LP  0  0  0  0  0  0  0  0  0  0  0  0  # atno 17342 bound_to 10162
  139.5303  144.2937  152.1131 LP  0  0  0  0  0  0  0  0  0  0  0  0  # atno 17343 bound_to 10162
  156.1045  130.5994  150.9948 LP  0  0  0  0  0  0  0  0  0  0  0  0  # atno 17370 bound_to 10713
  157.6506  131.0897  150.8059 LP  0  0  0  0  0  0  0  0  0  0  0  0  # atno 17371 bound_to 10713
  141.0881  133.6726  156.2480 LP  0  0  0  0  0  0  0  0  0  0  0  0  # atno 17394 bound_to 11000
  140.6231  134.5341  157.5550 LP  0  0  0  0  0  0  0  0  0  0  0  0  # atno 17395 bound_to 11000

$$$$
