AV-unprocessed.smi:1971|AV-procd|sdf|7966|dock10
  -GOLD-   2272010143D 1   1.00000     0.00000
 Structure written by MMmdl.
 43 44  0  0  0  0  0  0  0  0  1 V2000
  153.6753  142.3270  160.7339 C   0  0  0  0  0  0  0  0  0  0  0  0
  152.8451  143.1069  159.7043 C   0  0  0  0  0  0  0  0  0  0  0  0
  152.3885  142.3203  158.5603 N   0  0  0  0  0  0  0  0  0  0  0  0
  151.5185  143.1120  157.6944 C   0  0  0  0  0  0  0  0  0  0  0  0
  151.0466  142.3054  156.4708 C   0  0  0  0  0  0  0  0  0  0  0  0
  150.3078  141.0943  156.8545 N   0  0  0  0  0  0  0  0  0  0  0  0
  149.8482  140.3178  155.6824 C   0  0  2  0  0  0  0  0  0  0  0  0
  150.9766  139.5177  154.9930 C   0  0  0  0  0  0  0  0  0  0  0  0
  149.1198  141.1667  154.6076 C   0  0  0  0  0  0  0  0  0  0  0  0
  148.7266  140.3757  153.4428 N   0  0  0  0  0  0  0  0  0  0  0  0
  147.8821  139.3346  153.4533 C   0  0  0  0  0  0  0  0  0  0  0  0
  147.3250  138.9199  154.4696 O   0  0  0  0  0  0  0  0  0  0  0  0
  147.7359  138.8167  152.2230 N   0  0  0  0  0  0  0  0  0  0  0  0
  146.9166  137.7287  151.8316 C   0  0  0  0  0  0  0  0  0  0  0  0
  146.7773  137.4609  150.5317 N   0  0  0  0  0  0  0  0  0  0  0  0
  145.9387  136.3649  150.3084 C   0  0  0  0  0  0  0  0  0  0  0  0
  145.4435  135.8047  151.4597 C   0  0  0  0  0  0  0  0  0  0  0  0
  146.0138  136.6345  152.8828 S   0  0  0  0  0  0  0  0  0  0  0  0
  151.1791  140.3109  157.7416 C   0  0  0  0  0  0  0  0  0  0  0  0
  151.6516  141.1222  158.9619 C   0  0  0  0  0  0  0  0  0  0  0  0
  154.0709  142.9997  161.4950 H   0  0  0  0  0  0  0  0  0  0  0  0
  154.5221  141.8294  160.2607 H   0  0  0  0  0  0  0  0  0  0  0  0
  153.0828  141.5708  161.2482 H   0  0  0  0  0  0  0  0  0  0  0  0
  151.9920  143.5717  160.2009 H   0  0  0  0  0  0  0  0  0  0  0  0
  153.4643  143.9283  159.3413 H   0  0  0  0  0  0  0  0  0  0  0  0
  150.6520  143.4662  158.2556 H   0  0  0  0  0  0  0  0  0  0  0  0
  152.0503  144.0000  157.3510 H   0  0  0  0  0  0  0  0  0  0  0  0
  150.4170  142.9620  155.8725 H   0  0  0  0  0  0  0  0  0  0  0  0
  151.9049  142.0404  155.8511 H   0  0  0  0  0  0  0  0  0  0  0  0
  149.1221  139.5827  156.0330 H   0  0  0  0  0  0  0  0  0  0  0  0
  150.6281  139.0612  154.0661 H   0  0  0  0  0  0  0  0  0  0  0  0
  151.3389  138.7006  155.6158 H   0  0  0  0  0  0  0  0  0  0  0  0
  151.8264  140.1549  154.7462 H   0  0  0  0  0  0  0  0  0  0  0  0
  148.2542  141.6637  155.0488 H   0  0  0  0  0  0  0  0  0  0  0  0
  149.7516  141.9848  154.2645 H   0  0  0  0  0  0  0  0  0  0  0  0
  149.1447  140.6368  152.5617 H   0  0  0  0  0  0  0  0  0  0  0  0
  148.2616  139.2547  151.4811 H   0  0  0  0  0  0  0  0  0  0  0  0
  145.7468  136.0498  149.2932 H   0  0  0  0  0  0  0  0  0  0  0  0
  144.7807  134.9578  151.5567 H   0  0  0  0  0  0  0  0  0  0  0  0
  150.6516  139.4371  158.1200 H   0  0  0  0  0  0  0  0  0  0  0  0
  152.0436  139.9418  157.1874 H   0  0  0  0  0  0  0  0  0  0  0  0
  152.2816  140.4819  159.5781 H   0  0  0  0  0  0  0  0  0  0  0  0
  150.7916  141.3978  159.5745 H   0  0  0  0  0  0  0  0  0  0  0  0
  1  2  1  0  0  0  0
  1 21  1  0  0  0  0
  1 22  1  0  0  0  0
  1 23  1  0  0  0  0
  2  3  1  0  0  0  0
  2 24  1  0  0  0  0
  2 25  1  0  0  0  0
  3 20  1  0  0  0  0
  3  4  1  0  0  0  0
  4  5  1  0  0  0  0
  4 26  1  0  0  0  0
  4 27  1  0  0  0  0
  5  6  1  0  0  0  0
  5 28  1  0  0  0  0
  5 29  1  0  0  0  0
  6  7  1  0  0  0  0
  6 19  1  0  0  0  0
  7  8  1  0  0  0  0
  7  9  1  0  0  0  0
  7 30  1  0  0  0  0
  8 31  1  0  0  0  0
  8 32  1  0  0  0  0
  8 33  1  0  0  0  0
  9 10  1  0  0  0  0
  9 34  1  0  0  0  0
  9 35  1  0  0  0  0
 10 11  1  0  0  0  0
 10 36  1  0  0  0  0
 11 12  2  0  0  0  0
 11 13  1  0  0  0  0
 13 14  1  0  0  0  0
 13 37  1  0  0  0  0
 14 18  1  0  0  0  0
 14 15  2  0  0  0  0
 15 16  1  0  0  0  0
 16 17  2  0  0  0  0
 16 38  1  0  0  0  0
 17 18  1  0  0  0  0
 17 39  1  0  0  0  0
 19 20  1  0  0  0  0
 19 40  1  0  0  0  0
 19 41  1  0  0  0  0
 20 42  1  0  0  0  0
 20 43  1  0  0  0  0
M  END
> <s_m_source_file>
AV-unprocessed.smi

> <i_m_source_file_index>
1971

> <i_lp_mmshare_version>
43012

> <i_f3d_flags>
0

> <s_epik_input>
W0NIM11bQ0gyXU4xW0NIMl1bQ0gyXU4oW0NIMl1bQ0gyXTEpW0NASF0oW0NIM10pW0NIMl1bTkhdQyg9TylbTkhdYzJuW2NIXVtjSF1zMg==

> <s_epik_cmdline>
J2VwaWtfcHl0aG9uJywgJy1waCcsICc3LjAnLCAnLXRuJywgJzgnLCAnLW1hJywgJzIwMCcsICctbWV0YWxfYmluZGluZycsICctaW1hZScsICc8aW5maWxlLm1hZT4nLCAnLW9tYWUnLCAnPG91dGZpbGUubWFlPic=

> <r_lp_tautomer_probability>
0.999

> <r_epik_Ionization_Penalty>
2.43994

> <r_epik_Ionization_Penalty_Charging>
0

> <r_epik_Ionization_Penalty_Neutral>
2.43994

> <r_epik_State_Penalty>
1.7682

> <r_epik_Charging_Adjusted_Penalty>
1.7682

> <i_epik_Tot_Q>
0

> <i_epik_Tot_abs_Q>
0

> <r_epik_Metal_State_Penalty>
1.80147

> <b_epik_Metal_Only>
0

> <s_lp_Force_Field>
OPLS_2005

> <r_lp_Energy>
42.0055

> <b_lp_Chiralities_Consistent>
1

> <s_lp_Variant>
AV-unprocessed.smi:1971-5

> <Gold.Version>
5.8.1

> <Gold.Id.Protein>
6NUR|6NUR_protein|mol2

> <Gold.PLP.Fitness>
45.8788

> <Gold.PLP.PLP>
-34.5514

> <Gold.PLP.part.hbond>
-3.9874

> <Gold.PLP.part.metal>
0.0000

> <Gold.PLP.part.buried>
-0.8324

> <Gold.PLP.part.nonpolar>
-32.9216

> <Gold.PLP.part.repulsive>
2.8161

> <Gold.PLP.ligand.clash>
0.0000

> <Gold.PLP.ligand.torsion>
0.2174

> <Gold.PLP.Chemscore.Hbond>
2.9040

> <Gold.PLP.Chemscore.CHOScore>
1.0000

> <Gold.PLP.Chemscore.Metal>
0.0000

> <Gold.Chemscore.Hbonds>
donor molecule, donor type, donor heavy atom, donor atom, acceptor molecule, acceptor atom, score
      L1  H    10    36       P1  7957  0.86
      L1  H    13    37       P1  7957  0.91
      P1  H  7954  7966       L1    15  1.00
      L1  C    16    38       P1  7921  1.00

> <Gold.PLP.Chemscore.Internal.Correction>
0.0502

> <Gold.Rescore>
     Score         DG    S(hbond)    S(metal)    S(lipo)     H(rot)  DE(clash)    DE(int)     intcor
     17.26     -20.79       2.81        0.00      88.81       1.75       2.58       0.95       ----

> <Gold.Chemscore.Fitness>
17.2614

> <Gold.Chemscore.DG>
-20.7902

> <Gold.Chemscore.ZeroCoef>
-5.4800

> <Gold.Chemscore.Hbond>
2.8122

> <Gold.Chemscore.Metal>
0.0000

> <Gold.Chemscore.Lipo>
88.8091

> <Gold.Chemscore.Internal_Hbond>
0.0000

> <Gold.Chemscore.DEClash>
2.5752

> <Gold.Chemscore.DEInternal>
0.9535

> <Gold.Chemscore.Rot>
1.7473

> <Gold.Chemscore.Internal.Correction>
   9.000000E+99

> <Gold.Chemscore.Hbonds>
donor molecule, donor type, donor heavy atom, donor atom, acceptor molecule, acceptor atom, score
      L1  H    10    36       P1  7957  0.83
      L1  H    13    37       P1  7957  0.75
      P1  H  7954  7966       L1    15  0.46

> <Gold.Chemscore.Hbond.Weighted>
-9.3926

> <Gold.Chemscore.Metal.Weighted>
-0.0000

> <Gold.Chemscore.Lipo.Weighted>
-10.3907

> <Gold.Chemscore.Internal_Hbond.Weighted>
0.0000

> <Gold.Chemscore.DEClash.Weighted>
2.5752

> <Gold.Chemscore.DEInternal.Weighted>
0.9535

> <Gold.Chemscore.Rot.Weighted>
4.4731

> <Gold.Chemscore.Internal.Correction.Weighted>
   9.000000E+99

> <Gold.Protein.RotatedTorsions>
[ 6907 6896 6895 6894 ] final    4.65 input  -60.11 | X-H torsion
[ 7974 7965 7964 7962 ] final  -10.56 input  175.53 | X-H torsion
[ 8008 7997 7996 7995 ] final   53.53 input   59.86 | X-H torsion
[ 10167 10162 10161 10158 ] final  170.03 input  -65.29 | X-H torsion
[ 10718 10713 10712 10709 ] final   56.42 input   66.30 | X-H torsion
[ 10763 10752 10751 10750 ] final -159.18 input  -60.55 | X-H torsion
[ 11005 11000 10999 10996 ] final  -22.61 input  -57.11 | X-H torsion

> <Gold.Protein.ActiveResidues>
 VAL166  LYS551  ARG553  GLY616  TRP617  ASP618  TYR619  PRO620  LYS621  CYS622 
 ASP623  PHE694  ASN695  SER759  ASP760  ASP761  ALA762  ILE779  LEU786  VAL792 
 PHE793  MET794  SER795  GLU796  ALA797  LYS798  CYS799  TRP800  GLU811  SER814 

> <Gold.Protein.RotatedAtoms>
  151.6447  135.1008  160.0148 H   0  0  0  0  0  0  0  0  0  0  0  0  # atno 6907 bound_to 6896
  152.4034  133.6848  159.6344 H   0  0  0  0  0  0  0  0  0  0  0  0  # atno 6908 bound_to 6896
  150.7931  133.8668  159.3288 H   0  0  0  0  0  0  0  0  0  0  0  0  # atno 6909 bound_to 6896
  146.2217  140.2781  142.8360 H   0  0  0  0  0  0  0  0  0  0  0  0  # atno 7974 bound_to 7965
  155.4699  140.3465  155.4324 H   0  0  0  0  0  0  0  0  0  0  0  0  # atno 8008 bound_to 7997
  156.1107  140.1460  156.9371 H   0  0  0  0  0  0  0  0  0  0  0  0  # atno 8009 bound_to 7997
  154.4755  140.0886  156.7229 H   0  0  0  0  0  0  0  0  0  0  0  0  # atno 8010 bound_to 7997
  139.5008  144.3641  151.9794 H   0  0  0  0  0  0  0  0  0  0  0  0  # atno 10167 bound_to 10162
  157.5429  130.8710  149.8849 H   0  0  0  0  0  0  0  0  0  0  0  0  # atno 10718 bound_to 10713
  154.7496  135.3089  154.8582 H   0  0  0  0  0  0  0  0  0  0  0  0  # atno 10763 bound_to 10752
  153.9373  135.6778  153.4749 H   0  0  0  0  0  0  0  0  0  0  0  0  # atno 10764 bound_to 10752
  153.1092  135.4874  154.8932 H   0  0  0  0  0  0  0  0  0  0  0  0  # atno 10765 bound_to 10752
  140.8673  133.7745  156.0144 H   0  0  0  0  0  0  0  0  0  0  0  0  # atno 11005 bound_to 11000
  144.9217  140.7876  143.5744 LP  0  0  0  0  0  0  0  0  0  0  0  0  # atno 17320 bound_to 7965
  145.2718  139.1951  143.4837 LP  0  0  0  0  0  0  0  0  0  0  0  0  # atno 17321 bound_to 7965
  140.3077  144.3574  150.6042 LP  0  0  0  0  0  0  0  0  0  0  0  0  # atno 17342 bound_to 10162
  140.5823  143.2172  151.7405 LP  0  0  0  0  0  0  0  0  0  0  0  0  # atno 17343 bound_to 10162
  156.0512  130.3717  150.1198 LP  0  0  0  0  0  0  0  0  0  0  0  0  # atno 17370 bound_to 10713
  156.9376  130.9734  151.3522 LP  0  0  0  0  0  0  0  0  0  0  0  0  # atno 17371 bound_to 10713
  140.8614  134.2836  157.5232 LP  0  0  0  0  0  0  0  0  0  0  0  0  # atno 17394 bound_to 11000
  139.8710  134.9520  156.4102 LP  0  0  0  0  0  0  0  0  0  0  0  0  # atno 17395 bound_to 11000

$$$$
