AV-unprocessed.smi:1202|AV-procd|sdf|5031|dock1
  -GOLD-   22720 4 53D 1   1.00000     0.00000
 Structure written by MMmdl.
 44 45  0  0  0  0  0  0  0  0  3 V2000
  146.0591  131.9641  151.4898 C   0  0  0  0  0  0  0  0  0  0  0  0
  145.7651  133.3469  151.1331 N   0  5  0  0  0  0  0  0  0  0  0  0
  145.4360  134.3027  152.0429 C   0  0  0  0  0  0  0  0  0  0  0  0
  145.3589  134.2507  153.2751 O   0  0  0  0  0  0  0  0  0  0  0  0
  145.0921  135.6277  151.3529 C   0  0  0  0  0  0  0  0  0  0  0  0
  146.0032  136.6997  151.8255 N   0  3  2  0  0  0  0  0  0  0  0  0
  145.8795  136.9760  153.2824 C   0  0  0  0  0  0  0  0  0  0  0  0
  146.9335  137.9946  153.7461 C   0  0  0  0  0  0  0  0  0  0  0  0
  146.8402  139.3003  152.9361 C   0  0  1  0  0  0  0  0  0  0  0  0
  147.9074  140.2227  153.3117 N   0  0  0  0  0  0  0  0  0  0  0  0
  148.0361  140.8099  154.5112 C   0  0  0  0  0  0  0  0  0  0  0  0
  147.2585  140.6115  155.4457 O   0  0  0  0  0  0  0  0  0  0  0  0
  149.2419  141.7458  154.6762 C   0  0  0  0  0  0  0  0  0  0  0  0
  150.1591  141.3293  155.7500 N   0  0  0  0  0  0  0  0  0  0  0  0
  150.1032  142.0515  156.9589 C   0  0  0  0  0  0  0  0  0  0  0  0
  150.8965  141.7548  158.0004 C   0  0  0  0  0  0  0  0  0  0  0  0
  151.8276  140.6605  157.8596 C   0  0  0  0  0  0  0  0  0  0  0  0
  151.8919  139.9653  156.7064 C   0  0  0  0  0  0  0  0  0  0  0  0
  151.0282  140.2877  155.5645 C   0  0  0  0  0  0  0  0  0  0  0  0
  151.0824  139.6607  154.5060 O   0  0  0  0  0  0  0  0  0  0  0  0
  146.9312  138.9812  151.4354 C   0  0  0  0  0  0  0  0  0  0  0  0
  145.8759  137.9420  151.0223 C   0  0  0  0  0  0  0  0  0  0  0  0
  146.3182  131.3665  150.6160 H   0  0  0  0  0  0  0  0  0  0  0  0
  145.2102  131.4681  151.9617 H   0  0  0  0  0  0  0  0  0  0  0  0
  146.8983  131.8811  152.1813 H   0  0  0  0  0  0  0  0  0  0  0  0
  145.2269  135.4685  150.2821 H   0  0  0  0  0  0  0  0  0  0  0  0
  144.0491  135.9224  151.4905 H   0  0  0  0  0  0  0  0  0  0  0  0
  144.8771  137.3483  153.4993 H   0  0  0  0  0  0  0  0  0  0  0  0
  146.0031  136.0562  153.8547 H   0  0  0  0  0  0  0  0  0  0  0  0
  146.7997  138.1991  154.8091 H   0  0  0  0  0  0  0  0  0  0  0  0
  147.9283  137.5597  153.6378 H   0  0  0  0  0  0  0  0  0  0  0  0
  145.8740  139.7715  153.1278 H   0  0  0  0  0  0  0  0  0  0  0  0
  148.5947  140.4389  152.6040 H   0  0  0  0  0  0  0  0  0  0  0  0
  149.7667  141.7943  153.7210 H   0  0  0  0  0  0  0  0  0  0  0  0
  148.8910  142.7633  154.8601 H   0  0  0  0  0  0  0  0  0  0  0  0
  149.3860  142.8591  156.9809 H   0  0  0  0  0  0  0  0  0  0  0  0
  150.8428  142.3223  158.9178 H   0  0  0  0  0  0  0  0  0  0  0  0
  152.4770  140.3990  158.6821 H   0  0  0  0  0  0  0  0  0  0  0  0
  152.5960  139.1508  156.6191 H   0  0  0  0  0  0  0  0  0  0  0  0
  146.7984  139.8924  150.8507 H   0  0  0  0  0  0  0  0  0  0  0  0
  147.9255  138.6011  151.1949 H   0  0  0  0  0  0  0  0  0  0  0  0
  145.9985  137.7108  149.9634 H   0  0  0  0  0  0  0  0  0  0  0  0
  144.8725  138.3533  151.1439 H   0  0  0  0  0  0  0  0  0  0  0  0
  146.9386  136.3517  151.6694 H   0  0  0  0  0  0  0  0  0  0  0  0
  1  2  1  0  0  0  0
  1 23  1  0  0  0  0
  1 24  1  0  0  0  0
  1 25  1  0  0  0  0
  2  3  1  0  0  0  0
  3  4  2  0  0  0  0
  3  5  1  0  0  0  0
  5  6  1  0  0  0  0
  5 26  1  0  0  0  0
  5 27  1  0  0  0  0
  6 22  1  0  0  0  0
  6  7  1  0  0  0  0
  6 44  1  0  0  0  0
  7  8  1  0  0  0  0
  7 28  1  0  0  0  0
  7 29  1  0  0  0  0
  8  9  1  0  0  0  0
  8 30  1  0  0  0  0
  8 31  1  0  0  0  0
  9 10  1  0  0  0  0
  9 21  1  0  0  0  0
  9 32  1  0  0  0  0
 10 11  1  0  0  0  0
 10 33  1  0  0  0  0
 11 12  2  0  0  0  0
 11 13  1  0  0  0  0
 13 14  1  0  0  0  0
 13 34  1  0  0  0  0
 13 35  1  0  0  0  0
 14 19  1  0  0  0  0
 14 15  1  0  0  0  0
 15 16  2  0  0  0  0
 15 36  1  0  0  0  0
 16 17  1  0  0  0  0
 16 37  1  0  0  0  0
 17 18  2  0  0  0  0
 17 38  1  0  0  0  0
 18 19  1  0  0  0  0
 18 39  1  0  0  0  0
 19 20  2  0  0  0  0
 21 22  1  0  0  0  0
 21 40  1  0  0  0  0
 21 41  1  0  0  0  0
 22 42  1  0  0  0  0
 22 43  1  0  0  0  0
M  CHG  1   2  -1
M  CHG  1   6   1
M  END
> <s_m_source_file>
AV-unprocessed.smi

> <i_m_source_file_index>
1202

> <i_lp_mmshare_version>
43012

> <i_f3d_flags>
0

> <s_epik_input>
W0NIM11bTkhdQyg9TylbQ0gyXU4xW0NIMl1bQ0gyXVtDSF0oW0NIMl1bQ0gyXTEpW05IXUMoPU8pW0NIMl1uMltjSF1bY0hdW2NIXVtjSF1jMj1P

> <s_epik_cmdline>
J2VwaWtfcHl0aG9uJywgJy1waCcsICc3LjAnLCAnLXRuJywgJzgnLCAnLW1hJywgJzIwMCcsICctbWV0YWxfYmluZGluZycsICctaW1hZScsICc8aW5maWxlLm1hZT4nLCAnLW9tYWUnLCAnPG91dGZpbGUubWFlPic=

> <r_lp_tautomer_probability>
1

> <r_epik_Ionization_Penalty>
6.12124

> <r_epik_Ionization_Penalty_Charging>
6.12124

> <r_epik_Ionization_Penalty_Neutral>
4.50226e-08

> <r_epik_State_Penalty>
7.08052

> <r_epik_Charging_Adjusted_Penalty>
13.2018

> <i_epik_Tot_Q>
0

> <i_epik_Tot_abs_Q>
2

> <r_epik_Metal_State_Penalty>
3.01282

> <b_epik_Metal_Only>
1

> <s_lp_Force_Field>
OPLS_2005

> <r_lp_Energy>
18.7723

> <b_lp_Chiralities_Consistent>
1

> <s_lp_Variant>
AV-unprocessed.smi:1202-4

> <Gold.Version>
5.8.1

> <Gold.Id.Protein>
6NUR|6NUR_protein|mol2

> <Gold.PLP.Fitness>
49.6318

> <Gold.PLP.PLP>
-35.0739

> <Gold.PLP.part.hbond>
-3.0000

> <Gold.PLP.part.metal>
0.0000

> <Gold.PLP.part.buried>
4.8037

> <Gold.PLP.part.nonpolar>
-37.2427

> <Gold.PLP.part.repulsive>
0.5228

> <Gold.PLP.ligand.clash>
0.0000

> <Gold.PLP.ligand.torsion>
0.2898

> <Gold.PLP.Chemscore.Hbond>
4.0000

> <Gold.PLP.Chemscore.CHOScore>
1.0000

> <Gold.PLP.Chemscore.Metal>
0.0000

> <Gold.Chemscore.Hbonds>
donor molecule, donor type, donor heavy atom, donor atom, acceptor molecule, acceptor atom, score
      L1  H     6    44       P1  7948  2.00
      L1  H    10    33       P1  7957  1.00
      P1  H  7989  7998       L1    20  1.00
      L1  C    15    36       P1  8028  1.00

> <Gold.PLP.Chemscore.Internal.Correction>
0.1374

> <Gold.Rescore>
     Score         DG    S(hbond)    S(metal)    S(lipo)     H(rot)  DE(clash)    DE(int)     intcor
     14.05     -18.90       2.87        0.00      79.80       2.15       2.99       1.86       ----

> <Gold.Chemscore.Fitness>
14.0519

> <Gold.Chemscore.DG>
-18.9025

> <Gold.Chemscore.ZeroCoef>
-5.4800

> <Gold.Chemscore.Hbond>
2.8720

> <Gold.Chemscore.Metal>
0.0000

> <Gold.Chemscore.Lipo>
79.7998

> <Gold.Chemscore.Internal_Hbond>
0.0000

> <Gold.Chemscore.DEClash>
2.9897

> <Gold.Chemscore.DEInternal>
1.8610

> <Gold.Chemscore.Rot>
2.1510

> <Gold.Chemscore.Internal.Correction>
   9.000000E+99

> <Gold.Chemscore.Hbonds>
donor molecule, donor type, donor heavy atom, donor atom, acceptor molecule, acceptor atom, score
      L1  H     6    44       P1  7948  0.96
      L1  H    10    33       P1  7957  0.97
      P1  H  7989  7998       L1    20  0.26

> <Gold.Chemscore.Hbond.Weighted>
-9.5925

> <Gold.Chemscore.Metal.Weighted>
-0.0000

> <Gold.Chemscore.Lipo.Weighted>
-9.3366

> <Gold.Chemscore.Internal_Hbond.Weighted>
0.0000

> <Gold.Chemscore.DEClash.Weighted>
2.9897

> <Gold.Chemscore.DEInternal.Weighted>
1.8610

> <Gold.Chemscore.Rot.Weighted>
5.5065

> <Gold.Chemscore.Internal.Correction.Weighted>
   9.000000E+99

> <Gold.Protein.RotatedTorsions>
[ 6907 6896 6895 6894 ] final    0.04 input  -60.11 | X-H torsion
[ 7974 7965 7964 7962 ] final  -17.20 input  175.53 | X-H torsion
[ 8008 7997 7996 7995 ] final  -79.26 input   59.86 | X-H torsion
[ 10167 10162 10161 10158 ] final  116.01 input  -65.29 | X-H torsion
[ 10718 10713 10712 10709 ] final  -78.90 input   66.30 | X-H torsion
[ 10763 10752 10751 10750 ] final  135.37 input  -60.55 | X-H torsion
[ 11005 11000 10999 10996 ] final   54.47 input  -57.11 | X-H torsion

> <Gold.Protein.ActiveResidues>
 VAL166  LYS551  ARG553  GLY616  TRP617  ASP618  TYR619  PRO620  LYS621  CYS622 
 ASP623  PHE694  ASN695  SER759  ASP760  ASP761  ALA762  ILE779  LEU786  VAL792 
 PHE793  MET794  SER795  GLU796  ALA797  LYS798  CYS799  TRP800  GLU811  SER814 

> <Gold.Protein.RotatedAtoms>
  151.5699  135.1063  159.9992 H   0  0  0  0  0  0  0  0  0  0  0  0  # atno 6907 bound_to 6896
  152.4406  133.7436  159.6665 H   0  0  0  0  0  0  0  0  0  0  0  0  # atno 6908 bound_to 6896
  150.8310  133.8022  159.3122 H   0  0  0  0  0  0  0  0  0  0  0  0  # atno 6909 bound_to 6896
  146.1952  140.3745  142.8443 H   0  0  0  0  0  0  0  0  0  0  0  0  # atno 7974 bound_to 7965
  154.5768  140.0681  156.9046 H   0  0  0  0  0  0  0  0  0  0  0  0  # atno 8008 bound_to 7997
  155.2534  140.3353  155.4261 H   0  0  0  0  0  0  0  0  0  0  0  0  # atno 8009 bound_to 7997
  156.2160  140.1778  156.7573 H   0  0  0  0  0  0  0  0  0  0  0  0  # atno 8010 bound_to 7997
  139.6276  144.7110  151.2499 H   0  0  0  0  0  0  0  0  0  0  0  0  # atno 10167 bound_to 10162
  156.0106  130.4530  150.3566 H   0  0  0  0  0  0  0  0  0  0  0  0  # atno 10718 bound_to 10713
  153.8390  135.3094  155.3424 H   0  0  0  0  0  0  0  0  0  0  0  0  # atno 10763 bound_to 10752
  154.7941  135.4766  154.0123 H   0  0  0  0  0  0  0  0  0  0  0  0  # atno 10764 bound_to 10752
  153.1587  135.6857  153.8865 H   0  0  0  0  0  0  0  0  0  0  0  0  # atno 10765 bound_to 10752
  140.0684  134.5504  155.9074 H   0  0  0  0  0  0  0  0  0  0  0  0  # atno 11005 bound_to 11000
  144.8566  140.7080  143.6134 LP  0  0  0  0  0  0  0  0  0  0  0  0  # atno 17320 bound_to 7965
  145.3665  139.1669  143.4355 LP  0  0  0  0  0  0  0  0  0  0  0  0  # atno 17321 bound_to 7965
  140.7420  143.6538  150.8225 LP  0  0  0  0  0  0  0  0  0  0  0  0  # atno 17342 bound_to 10162
  140.0158  143.5594  152.2820 LP  0  0  0  0  0  0  0  0  0  0  0  0  # atno 17343 bound_to 10162
  157.1656  131.0356  151.2820 LP  0  0  0  0  0  0  0  0  0  0  0  0  # atno 17370 bound_to 10713
  157.4273  130.7471  149.6961 LP  0  0  0  0  0  0  0  0  0  0  0  0  # atno 17371 bound_to 10713
  141.2002  133.6611  156.5884 LP  0  0  0  0  0  0  0  0  0  0  0  0  # atno 17394 bound_to 11000
  140.3664  134.7643  157.4569 LP  0  0  0  0  0  0  0  0  0  0  0  0  # atno 17395 bound_to 11000

$$$$
