AV-unprocessed.smi:2033|AV-procd|sdf|8259|dock8
  -GOLD-   2272010533D 1   1.00000     0.00000
 Structure written by MMmdl.
 33 34  0  0  0  0  0  0  0  0  1 V2000
  147.3728  142.0647  155.3973 C   0  0  0  0  0  0  0  0  0  0  0  0
  146.9727  140.7286  154.8718 C   0  0  0  0  0  0  0  0  0  0  0  0
  145.8162  140.1379  155.1971 N   0  0  0  0  0  0  0  0  0  0  0  0
  145.6677  138.9003  154.5866 N   0  0  0  0  0  0  0  0  0  0  0  0
  146.7204  138.5932  153.8164 C   0  0  0  0  0  0  0  0  0  0  0  0
  146.8308  137.3867  153.0756 N   0  0  0  0  0  0  0  0  0  0  0  0
  145.8918  136.4462  152.8703 C   0  0  0  0  0  0  0  0  0  0  0  0
  144.7418  136.4805  153.3089 O   0  0  0  0  0  0  0  0  0  0  0  0
  146.3662  135.4446  152.1151 N   0  0  0  0  0  0  0  0  0  0  0  0
  145.6061  134.2749  151.6739 C   0  0  2  0  0  0  0  0  0  0  0  0
  146.5523  133.1912  151.0966 C   0  0  0  0  0  0  0  0  0  0  0  0
  145.9138  132.1904  150.1105 C   0  0  0  0  0  0  0  0  0  0  0  0
  144.6435  131.4774  150.6165 C   0  0  0  0  0  0  0  0  0  0  0  0
  143.4756  132.3803  151.0824 C   0  0  0  0  0  0  0  0  0  0  0  0
  143.4906  133.7301  150.5187 N   0  0  0  0  0  0  0  0  0  0  0  0
  144.4238  134.6654  150.7666 C   0  0  0  0  0  0  0  0  0  0  0  0
  144.3549  135.7892  150.2705 O   0  0  0  0  0  0  0  0  0  0  0  0
  147.9919  139.8029  153.7766 S   0  0  0  0  0  0  0  0  0  0  0  0
  146.5226  142.5663  155.8607 H   0  0  0  0  0  0  0  0  0  0  0  0
  147.7447  142.6894  154.5851 H   0  0  0  0  0  0  0  0  0  0  0  0
  148.1604  141.9506  156.1419 H   0  0  0  0  0  0  0  0  0  0  0  0
  147.7308  137.2216  152.6493 H   0  0  0  0  0  0  0  0  0  0  0  0
  147.3221  135.5010  151.7949 H   0  0  0  0  0  0  0  0  0  0  0  0
  145.1480  133.8611  152.5731 H   0  0  0  0  0  0  0  0  0  0  0  0
  147.3826  133.6747  150.5799 H   0  0  0  0  0  0  0  0  0  0  0  0
  147.0024  132.6409  151.9236 H   0  0  0  0  0  0  0  0  0  0  0  0
  145.6903  132.6989  149.1715 H   0  0  0  0  0  0  0  0  0  0  0  0
  146.6572  131.4360  149.8513 H   0  0  0  0  0  0  0  0  0  0  0  0
  144.2824  130.8409  149.8081 H   0  0  0  0  0  0  0  0  0  0  0  0
  144.9064  130.7957  151.4261 H   0  0  0  0  0  0  0  0  0  0  0  0
  142.5271  131.9102  150.8218 H   0  0  0  0  0  0  0  0  0  0  0  0
  143.4690  132.4508  152.1705 H   0  0  0  0  0  0  0  0  0  0  0  0
  142.7234  133.9791  149.9111 H   0  0  0  0  0  0  0  0  0  0  0  0
  1  2  1  0  0  0  0
  1 19  1  0  0  0  0
  1 20  1  0  0  0  0
  1 21  1  0  0  0  0
  2 18  1  0  0  0  0
  2  3  2  0  0  0  0
  3  4  1  0  0  0  0
  4  5  2  0  0  0  0
  5  6  1  0  0  0  0
  5 18  1  0  0  0  0
  6  7  1  0  0  0  0
  6 22  1  0  0  0  0
  7  8  2  0  0  0  0
  7  9  1  0  0  0  0
  9 10  1  0  0  0  0
  9 23  1  0  0  0  0
 10 16  1  0  0  0  0
 10 11  1  0  0  0  0
 10 24  1  0  0  0  0
 11 12  1  0  0  0  0
 11 25  1  0  0  0  0
 11 26  1  0  0  0  0
 12 13  1  0  0  0  0
 12 27  1  0  0  0  0
 12 28  1  0  0  0  0
 13 14  1  0  0  0  0
 13 29  1  0  0  0  0
 13 30  1  0  0  0  0
 14 15  1  0  0  0  0
 14 31  1  0  0  0  0
 14 32  1  0  0  0  0
 15 16  1  0  0  0  0
 15 33  1  0  0  0  0
 16 17  2  0  0  0  0
M  END
> <s_m_source_file>
AV-unprocessed.smi

> <i_m_source_file_index>
2033

> <i_lp_mmshare_version>
43012

> <i_f3d_flags>
0

> <s_epik_input>
W0NIM11jMW5uYyhzMSlbTkhdQyg9TylbTkhdW0NAQEhdMltDSDJdW0NIMl1bQ0gyXVtDSDJdW05IXUMyPU8=

> <s_epik_cmdline>
J2VwaWtfcHl0aG9uJywgJy1waCcsICc3LjAnLCAnLXRuJywgJzgnLCAnLW1hJywgJzIwMCcsICctbWV0YWxfYmluZGluZycsICctaW1hZScsICc8aW5maWxlLm1hZT4nLCAnLW9tYWUnLCAnPG91dGZpbGUubWFlPic=

> <r_lp_tautomer_probability>
1

> <r_epik_Ionization_Penalty>
0.00079266

> <r_epik_Ionization_Penalty_Charging>
0

> <r_epik_Ionization_Penalty_Neutral>
0.00079266

> <r_epik_State_Penalty>
-0

> <r_epik_Charging_Adjusted_Penalty>
0

> <i_epik_Tot_Q>
0

> <i_epik_Tot_abs_Q>
0

> <r_epik_Metal_State_Penalty>
0.265831

> <b_epik_Metal_Only>
0

> <s_lp_Force_Field>
OPLS_2005

> <r_lp_Energy>
13.3352

> <b_lp_Chiralities_Consistent>
1

> <s_lp_Variant>
AV-unprocessed.smi:2033-1

> <Gold.Version>
5.8.1

> <Gold.Id.Protein>
6NUR|6NUR_protein|mol2

> <Gold.PLP.Fitness>
33.4980

> <Gold.PLP.PLP>
-24.7041

> <Gold.PLP.part.hbond>
-3.0000

> <Gold.PLP.part.metal>
0.0000

> <Gold.PLP.part.buried>
-2.6211

> <Gold.PLP.part.nonpolar>
-21.5548

> <Gold.PLP.part.repulsive>
2.4596

> <Gold.PLP.ligand.clash>
0.0000

> <Gold.PLP.ligand.torsion>
0.0927

> <Gold.PLP.Chemscore.Hbond>
2.9760

> <Gold.PLP.Chemscore.CHOScore>
0.0000

> <Gold.PLP.Chemscore.Metal>
0.0000

> <Gold.Chemscore.Hbonds>
donor molecule, donor type, donor heavy atom, donor atom, acceptor molecule, acceptor atom, score
      L1  H     6    22       P1  7948  1.00
      L1  H     9    23       P1  7948  1.00
      L1  H    15    33       P1 10186  1.00

> <Gold.PLP.Chemscore.Internal.Correction>
0.0513

> <Gold.Rescore>
     Score         DG    S(hbond)    S(metal)    S(lipo)     H(rot)  DE(clash)    DE(int)     intcor
     17.32     -19.03       2.91        0.00      54.56       1.00       0.33       1.38       ----

> <Gold.Chemscore.Fitness>
17.3161

> <Gold.Chemscore.DG>
-19.0331

> <Gold.Chemscore.ZeroCoef>
-5.4800

> <Gold.Chemscore.Hbond>
2.9132

> <Gold.Chemscore.Metal>
0.0000

> <Gold.Chemscore.Lipo>
54.5562

> <Gold.Chemscore.Internal_Hbond>
0.0000

> <Gold.Chemscore.DEClash>
0.3325

> <Gold.Chemscore.DEInternal>
1.3846

> <Gold.Chemscore.Rot>
1.0000

> <Gold.Chemscore.Internal.Correction>
   9.000000E+99

> <Gold.Chemscore.Hbonds>
donor molecule, donor type, donor heavy atom, donor atom, acceptor molecule, acceptor atom, score
      L1  H     6    22       P1  7948  0.98
      L1  H     9    23       P1  7948  0.96
      L1  H    15    33       P1 10186  0.97

> <Gold.Chemscore.Hbond.Weighted>
-9.7300

> <Gold.Chemscore.Metal.Weighted>
-0.0000

> <Gold.Chemscore.Lipo.Weighted>
-6.3831

> <Gold.Chemscore.Internal_Hbond.Weighted>
0.0000

> <Gold.Chemscore.DEClash.Weighted>
0.3325

> <Gold.Chemscore.DEInternal.Weighted>
1.3846

> <Gold.Chemscore.Rot.Weighted>
2.5600

> <Gold.Chemscore.Internal.Correction.Weighted>
   9.000000E+99

> <Gold.Protein.RotatedTorsions>
[ 6907 6896 6895 6894 ] final   29.65 input  -60.11 | X-H torsion
[ 7974 7965 7964 7962 ] final  -59.35 input  175.53 | X-H torsion
[ 8008 7997 7996 7995 ] final -111.14 input   59.86 | X-H torsion
[ 10167 10162 10161 10158 ] final -126.77 input  -65.29 | X-H torsion
[ 10718 10713 10712 10709 ] final  -40.85 input   66.30 | X-H torsion
[ 10763 10752 10751 10750 ] final  -55.59 input  -60.55 | X-H torsion
[ 11005 11000 10999 10996 ] final  -91.30 input  -57.11 | X-H torsion

> <Gold.Protein.ActiveResidues>
 VAL166  LYS551  ARG553  GLY616  TRP617  ASP618  TYR619  PRO620  LYS621  CYS622 
 ASP623  PHE694  ASN695  SER759  ASP760  ASP761  ALA762  ILE779  LEU786  VAL792 
 PHE793  MET794  SER795  GLU796  ALA797  LYS798  CYS799  TRP800  GLU811  SER814 

> <Gold.Protein.RotatedAtoms>
  152.0346  134.9748  160.0572 H   0  0  0  0  0  0  0  0  0  0  0  0  # atno 6907 bound_to 6896
  152.1211  133.4349  159.4684 H   0  0  0  0  0  0  0  0  0  0  0  0  # atno 6908 bound_to 6896
  150.6849  134.2453  159.4532 H   0  0  0  0  0  0  0  0  0  0  0  0  # atno 6909 bound_to 6896
  145.8285  140.8495  143.0096 H   0  0  0  0  0  0  0  0  0  0  0  0  # atno 7974 bound_to 7965
  154.9853  140.0396  157.2295 H   0  0  0  0  0  0  0  0  0  0  0  0  # atno 8008 bound_to 7997
  154.7677  140.2796  155.6140 H   0  0  0  0  0  0  0  0  0  0  0  0  # atno 8009 bound_to 7997
  156.2915  140.2616  156.2472 H   0  0  0  0  0  0  0  0  0  0  0  0  # atno 8010 bound_to 7997
  139.9679  143.5878  152.2423 H   0  0  0  0  0  0  0  0  0  0  0  0  # atno 10167 bound_to 10162
  156.2767  130.4212  149.8379 H   0  0  0  0  0  0  0  0  0  0  0  0  # atno 10718 bound_to 10713
  154.1933  135.6423  153.5066 H   0  0  0  0  0  0  0  0  0  0  0  0  # atno 10763 bound_to 10752
  153.0030  135.5434  154.6393 H   0  0  0  0  0  0  0  0  0  0  0  0  # atno 10764 bound_to 10752
  154.5787  135.2923  155.0728 H   0  0  0  0  0  0  0  0  0  0  0  0  # atno 10765 bound_to 10752
  141.1547  133.7747  156.9860 H   0  0  0  0  0  0  0  0  0  0  0  0  # atno 11005 bound_to 11000
  144.6741  140.0637  143.7475 LP  0  0  0  0  0  0  0  0  0  0  0  0  # atno 17320 bound_to 7965
  145.9597  139.2792  143.1163 LP  0  0  0  0  0  0  0  0  0  0  0  0  # atno 17321 bound_to 7965
  139.6504  144.7660  151.2160 LP  0  0  0  0  0  0  0  0  0  0  0  0  # atno 17342 bound_to 10162
  140.7532  143.6171  150.8549 LP  0  0  0  0  0  0  0  0  0  0  0  0  # atno 17343 bound_to 10162
  156.5841  130.8478  151.3391 LP  0  0  0  0  0  0  0  0  0  0  0  0  # atno 17370 bound_to 10713
  157.7301  130.9681  150.1820 LP  0  0  0  0  0  0  0  0  0  0  0  0  # atno 17371 bound_to 10713
  140.1034  134.9521  157.1958 LP  0  0  0  0  0  0  0  0  0  0  0  0  # atno 17394 bound_to 11000
  140.3288  134.2833  155.7232 LP  0  0  0  0  0  0  0  0  0  0  0  0  # atno 17395 bound_to 11000

$$$$
