AV-unprocessed.smi:415|AV-procd|sdf|2518|dock7
  -GOLD-   2262022473D 1   1.00000     0.00000
 Structure written by MMmdl.
 53 54  0  0  0  0  0  0  0  0  1 V2000
  152.4447  131.3819  157.5809 C   0  0  0  0  0  0  0  0  0  0  0  0
  151.4295  132.3690  157.6155 O   0  0  0  0  0  0  0  0  0  0  0  0
  151.5435  133.3055  156.5572 C   0  0  0  0  0  0  0  0  0  0  0  0
  150.2994  134.2078  156.5170 C   0  0  0  0  0  0  0  0  0  0  0  0
  150.5906  135.5592  156.0760 N   0  0  0  0  0  0  0  0  0  0  0  0
  150.0503  136.1101  154.9174 C   0  0  0  0  0  0  0  0  0  0  0  0
  149.1764  135.3626  154.1484 N   0  0  0  0  0  0  0  0  0  0  0  0
  150.3515  137.3687  154.5282 C   0  0  0  0  0  0  0  0  0  0  0  0
  151.2521  138.2164  155.2966 C   0  0  0  0  0  0  0  0  0  0  0  0
  151.5656  139.3527  154.9410 O   0  0  0  0  0  0  0  0  0  0  0  0
  151.7648  137.6487  156.4854 N   0  0  0  0  0  0  0  0  0  0  0  0
  152.7013  138.4501  157.3087 C   0  0  0  0  0  0  0  0  0  0  0  0
  152.0380  139.5615  158.1426 C   0  0  0  0  0  0  0  0  0  0  0  0
  151.1407  139.2624  158.9292 O   0  0  0  0  0  0  0  0  0  0  0  0
  152.4823  140.8200  157.9808 N   0  0  0  0  0  0  0  0  0  0  0  0
  152.0285  142.0045  158.7046 C   0  0  2  0  0  0  0  0  0  0  0  0
  151.4131  142.9895  157.6923 C   0  0  0  0  0  0  0  0  0  0  0  0
  150.9981  144.3097  158.3559 C   0  0  0  0  0  0  0  0  0  0  0  0
  152.1787  144.9489  159.1038 C   0  0  0  0  0  0  0  0  0  0  0  0
  152.7973  143.9921  160.1434 C   0  0  1  0  0  0  0  0  0  0  0  0
  151.8842  143.8242  161.3749 C   0  0  0  0  0  0  0  0  0  0  0  0
  153.2103  142.6554  159.4716 C   0  0  1  0  0  0  0  0  0  0  0  0
  153.8984  141.6901  160.4575 C   0  0  0  0  0  0  0  0  0  0  0  0
  151.4486  136.3337  156.8987 C   0  0  0  0  0  0  0  0  0  0  0  0
  151.9256  135.8810  157.9429 O   0  0  0  0  0  0  0  0  0  0  0  0
  152.3156  130.6946  158.4169 H   0  0  0  0  0  0  0  0  0  0  0  0
  153.4354  131.8309  157.6642 H   0  0  0  0  0  0  0  0  0  0  0  0
  152.3984  130.8019  156.6582 H   0  0  0  0  0  0  0  0  0  0  0  0
  152.4305  133.9207  156.7150 H   0  0  0  0  0  0  0  0  0  0  0  0
  151.6718  132.7916  155.6034 H   0  0  0  0  0  0  0  0  0  0  0  0
  149.5030  133.7918  155.8983 H   0  0  0  0  0  0  0  0  0  0  0  0
  149.8590  134.3022  157.5093 H   0  0  0  0  0  0  0  0  0  0  0  0
  148.9147  134.4206  154.4025 H   0  0  0  0  0  0  0  0  0  0  0  0
  148.7818  135.7199  153.2902 H   0  0  0  0  0  0  0  0  0  0  0  0
  149.9192  137.7656  153.6207 H   0  0  0  0  0  0  0  0  0  0  0  0
  153.2734  137.8154  157.9870 H   0  0  0  0  0  0  0  0  0  0  0  0
  153.4659  138.9100  156.6805 H   0  0  0  0  0  0  0  0  0  0  0  0
  153.2220  140.9650  157.3092 H   0  0  0  0  0  0  0  0  0  0  0  0
  151.2540  141.7283  159.4214 H   0  0  0  0  0  0  0  0  0  0  0  0
  152.1329  143.2005  156.8996 H   0  0  0  0  0  0  0  0  0  0  0  0
  150.5477  142.5350  157.2082 H   0  0  0  0  0  0  0  0  0  0  0  0
  150.6231  145.0001  157.5998 H   0  0  0  0  0  0  0  0  0  0  0  0
  150.1706  144.1322  159.0434 H   0  0  0  0  0  0  0  0  0  0  0  0
  152.9431  145.2349  158.3801 H   0  0  0  0  0  0  0  0  0  0  0  0
  151.8590  145.8743  159.5842 H   0  0  0  0  0  0  0  0  0  0  0  0
  153.7093  144.4692  160.5049 H   0  0  0  0  0  0  0  0  0  0  0  0
  150.9547  143.3099  161.1324 H   0  0  0  0  0  0  0  0  0  0  0  0
  151.6210  144.7944  161.7969 H   0  0  0  0  0  0  0  0  0  0  0  0
  152.3775  143.2593  162.1654 H   0  0  0  0  0  0  0  0  0  0  0  0
  153.9669  142.9111  158.7276 H   0  0  0  0  0  0  0  0  0  0  0  0
  153.1864  141.2638  161.1644 H   0  0  0  0  0  0  0  0  0  0  0  0
  154.6757  142.1986  161.0285 H   0  0  0  0  0  0  0  0  0  0  0  0
  154.3763  140.8604  159.9358 H   0  0  0  0  0  0  0  0  0  0  0  0
  1  2  1  0  0  0  0
  1 26  1  0  0  0  0
  1 27  1  0  0  0  0
  1 28  1  0  0  0  0
  2  3  1  0  0  0  0
  3  4  1  0  0  0  0
  3 29  1  0  0  0  0
  3 30  1  0  0  0  0
  4  5  1  0  0  0  0
  4 31  1  0  0  0  0
  4 32  1  0  0  0  0
  5 24  1  0  0  0  0
  5  6  1  0  0  0  0
  6  7  1  0  0  0  0
  6  8  2  0  0  0  0
  7 33  1  0  0  0  0
  7 34  1  0  0  0  0
  8  9  1  0  0  0  0
  8 35  1  0  0  0  0
  9 10  2  0  0  0  0
  9 11  1  0  0  0  0
 11 12  1  0  0  0  0
 11 24  1  0  0  0  0
 12 13  1  0  0  0  0
 12 36  1  0  0  0  0
 12 37  1  0  0  0  0
 13 14  2  0  0  0  0
 13 15  1  0  0  0  0
 15 16  1  0  0  0  0
 15 38  1  0  0  0  0
 16 22  1  0  0  0  0
 16 17  1  0  0  0  0
 16 39  1  0  0  0  0
 17 18  1  0  0  0  0
 17 40  1  0  0  0  0
 17 41  1  0  0  0  0
 18 19  1  0  0  0  0
 18 42  1  0  0  0  0
 18 43  1  0  0  0  0
 19 20  1  0  0  0  0
 19 44  1  0  0  0  0
 19 45  1  0  0  0  0
 20 21  1  0  0  0  0
 20 22  1  0  0  0  0
 20 46  1  0  0  0  0
 21 47  1  0  0  0  0
 21 48  1  0  0  0  0
 21 49  1  0  0  0  0
 22 23  1  0  0  0  0
 22 50  1  0  0  0  0
 23 51  1  0  0  0  0
 23 52  1  0  0  0  0
 23 53  1  0  0  0  0
 24 25  2  0  0  0  0
M  END
> <s_m_source_file>
AV-unprocessed.smi

> <i_m_source_file_index>
415

> <i_lp_mmshare_version>
43012

> <i_f3d_flags>
0

> <s_epik_input>
W0NIM11PW0NIMl1bQ0gyXW4xYyhbTkgyXSlbY0hdYyg9TyluKGMxPU8pW0NIMl1DKD1PKVtOSF1bQ0BASF0yW0NIMl1bQ0gyXVtDSDJdW0NAQEhdKFtDSDNdKVtDQEhdMltDSDNd

> <s_epik_cmdline>
J2VwaWtfcHl0aG9uJywgJy1waCcsICc3LjAnLCAnLXRuJywgJzgnLCAnLW1hJywgJzIwMCcsICctbWV0YWxfYmluZGluZycsICctaW1hZScsICc8aW5maWxlLm1hZT4nLCAnLW9tYWUnLCAnPG91dGZpbGUubWFlPic=

> <r_lp_tautomer_probability>
1

> <r_epik_Ionization_Penalty>
8.6647e-06

> <r_epik_Ionization_Penalty_Charging>
1.81162e-08

> <r_epik_Ionization_Penalty_Neutral>
8.64658e-06

> <r_epik_State_Penalty>
-0

> <r_epik_Charging_Adjusted_Penalty>
1.81162e-08

> <i_epik_Tot_Q>
0

> <i_epik_Tot_abs_Q>
0

> <r_epik_Metal_State_Penalty>
-0

> <b_epik_Metal_Only>
0

> <s_lp_Force_Field>
OPLS_2005

> <r_lp_Energy>
23.489

> <b_lp_Chiralities_Consistent>
1

> <s_lp_Variant>
AV-unprocessed.smi:415-1

> <Gold.Version>
5.8.1

> <Gold.Id.Protein>
6NUR|6NUR_protein|mol2

> <Gold.PLP.Fitness>
51.4179

> <Gold.PLP.PLP>
-43.4028

> <Gold.PLP.part.hbond>
-3.7004

> <Gold.PLP.part.metal>
0.0000

> <Gold.PLP.part.buried>
-2.7900

> <Gold.PLP.part.nonpolar>
-34.8932

> <Gold.PLP.part.repulsive>
0.1605

> <Gold.PLP.ligand.clash>
0.0000

> <Gold.PLP.ligand.torsion>
0.4598

> <Gold.PLP.Chemscore.Hbond>
2.9587

> <Gold.PLP.Chemscore.CHOScore>
0.0000

> <Gold.PLP.Chemscore.Metal>
0.0000

> <Gold.Chemscore.Hbonds>
donor molecule, donor type, donor heavy atom, donor atom, acceptor molecule, acceptor atom, score
      L1  H     7    34       P1  7948  0.92
      P1  H  6896  6907       L1     2  1.00
      P1  H  7989  7998       L1    10  0.86

> <Gold.PLP.Chemscore.Internal.Correction>
0.0587

> <Gold.Rescore>
     Score         DG    S(hbond)    S(metal)    S(lipo)     H(rot)  DE(clash)    DE(int)     intcor
     21.46     -22.28       2.69        0.00     116.24       2.26       0.09       0.73       ----

> <Gold.Chemscore.Fitness>
21.4570

> <Gold.Chemscore.DG>
-22.2820

> <Gold.Chemscore.ZeroCoef>
-5.4800

> <Gold.Chemscore.Hbond>
2.6942

> <Gold.Chemscore.Metal>
0.0000

> <Gold.Chemscore.Lipo>
116.2443

> <Gold.Chemscore.Internal_Hbond>
0.0000

> <Gold.Chemscore.DEClash>
0.0939

> <Gold.Chemscore.DEInternal>
0.7311

> <Gold.Chemscore.Rot>
2.2645

> <Gold.Chemscore.Internal.Correction>
   9.000000E+99

> <Gold.Chemscore.Hbonds>
donor molecule, donor type, donor heavy atom, donor atom, acceptor molecule, acceptor atom, score
      L1  H     7    34       P1  7948  0.81
      P1  H  6896  6907       L1     2  0.27
      P1  H  6896  6908       L1    25  0.01
      P1  H  7989  7998       L1    10  0.83

> <Gold.Chemscore.Hbond.Weighted>
-8.9986

> <Gold.Chemscore.Metal.Weighted>
-0.0000

> <Gold.Chemscore.Lipo.Weighted>
-13.6006

> <Gold.Chemscore.Internal_Hbond.Weighted>
0.0000

> <Gold.Chemscore.DEClash.Weighted>
0.0939

> <Gold.Chemscore.DEInternal.Weighted>
0.7311

> <Gold.Chemscore.Rot.Weighted>
5.7972

> <Gold.Chemscore.Internal.Correction.Weighted>
   9.000000E+99

> <Gold.Protein.RotatedTorsions>
[ 6907 6896 6895 6894 ] final  174.65 input  -60.11 | X-H torsion
[ 7974 7965 7964 7962 ] final  -23.98 input  175.53 | X-H torsion
[ 8008 7997 7996 7995 ] final  -13.90 input   59.86 | X-H torsion
[ 10167 10162 10161 10158 ] final  -50.32 input  -65.29 | X-H torsion
[ 10718 10713 10712 10709 ] final  116.53 input   66.30 | X-H torsion
[ 10763 10752 10751 10750 ] final  124.12 input  -60.55 | X-H torsion
[ 11005 11000 10999 10996 ] final  148.00 input  -57.11 | X-H torsion

> <Gold.Protein.ActiveResidues>
 VAL166  LYS551  ARG553  GLY616  TRP617  ASP618  TYR619  PRO620  LYS621  CYS622 
 ASP623  PHE694  ASN695  SER759  ASP760  ASP761  ALA762  ILE779  LEU786  VAL792 
 PHE793  MET794  SER795  GLU796  ALA797  LYS798  CYS799  TRP800  GLU811  SER814 

> <Gold.Protein.RotatedAtoms>
  151.7489  133.3326  159.3385 H   0  0  0  0  0  0  0  0  0  0  0  0  # atno 6907 bound_to 6896
  150.7543  134.6211  159.6146 H   0  0  0  0  0  0  0  0  0  0  0  0  # atno 6908 bound_to 6896
  152.3482  134.7044  160.0296 H   0  0  0  0  0  0  0  0  0  0  0  0  # atno 6909 bound_to 6896
  146.1583  140.4689  142.8582 H   0  0  0  0  0  0  0  0  0  0  0  0  # atno 7974 bound_to 7965
  154.5254  140.2237  155.8899 H   0  0  0  0  0  0  0  0  0  0  0  0  # atno 8008 bound_to 7997
  156.1708  140.3122  155.8934 H   0  0  0  0  0  0  0  0  0  0  0  0  # atno 8009 bound_to 7997
  155.3562  140.0458  157.3037 H   0  0  0  0  0  0  0  0  0  0  0  0  # atno 8010 bound_to 7997
  140.6643  143.2662  151.4343 H   0  0  0  0  0  0  0  0  0  0  0  0  # atno 10167 bound_to 10162
  157.6154  131.1026  150.7486 H   0  0  0  0  0  0  0  0  0  0  0  0  # atno 10718 bound_to 10713
  153.6563  135.3354  155.3114 H   0  0  0  0  0  0  0  0  0  0  0  0  # atno 10763 bound_to 10752
  154.8526  135.4353  154.1851 H   0  0  0  0  0  0  0  0  0  0  0  0  # atno 10764 bound_to 10752
  153.2807  135.7008  153.7464 H   0  0  0  0  0  0  0  0  0  0  0  0  # atno 10765 bound_to 10752
  140.0922  134.9034  157.1669 H   0  0  0  0  0  0  0  0  0  0  0  0  # atno 11005 bound_to 11000
  144.7993  140.6182  143.6489 LP  0  0  0  0  0  0  0  0  0  0  0  0  # atno 17320 bound_to 7965
  145.4652  139.1509  143.3844 LP  0  0  0  0  0  0  0  0  0  0  0  0  # atno 17321 bound_to 7965
  139.5886  144.1548  152.2061 LP  0  0  0  0  0  0  0  0  0  0  0  0  # atno 17342 bound_to 10162
  140.0896  144.5632  150.7064 LP  0  0  0  0  0  0  0  0  0  0  0  0  # atno 17343 bound_to 10162
  156.7854  130.4873  149.5394 LP  0  0  0  0  0  0  0  0  0  0  0  0  # atno 17370 bound_to 10713
  156.1275  130.6154  151.0284 LP  0  0  0  0  0  0  0  0  0  0  0  0  # atno 17371 bound_to 10713
  140.3336  134.2783  155.7224 LP  0  0  0  0  0  0  0  0  0  0  0  0  # atno 17394 bound_to 11000
  141.2081  133.7786  157.0077 LP  0  0  0  0  0  0  0  0  0  0  0  0  # atno 17395 bound_to 11000

$$$$
