AV-unprocessed.smi:1966|AV-procd|sdf|7950|dock8
  -GOLD-   2272010113D 1   1.00000     0.00000
 Structure written by MMmdl.
 53 54  0  0  0  0  0  0  0  0  1 V2000
  145.7984  136.1393  154.1657 C   0  0  0  0  0  0  0  0  0  0  0  0
  146.7030  135.3484  155.1042 C   0  0  0  0  0  0  0  0  0  0  0  0
  146.2357  134.8144  156.1097 O   0  0  0  0  0  0  0  0  0  0  0  0
  147.9996  135.2824  154.7626 N   0  0  0  0  0  0  0  0  0  0  0  0
  149.0454  134.5943  155.5230 C   0  0  2  0  0  0  0  0  0  0  0  0
  150.0859  135.6341  155.9843 C   0  0  0  0  0  0  0  0  0  0  0  0
  151.2633  135.5151  155.6431 O   0  0  0  0  0  0  0  0  0  0  0  0
  149.6151  136.6097  156.7834 N   0  0  0  0  0  0  0  0  0  0  0  0
  150.3054  137.7154  157.3507 C   0  0  0  0  0  0  0  0  0  0  0  0
  151.7078  137.8951  157.3084 C   0  0  0  0  0  0  0  0  0  0  0  0
  152.2659  139.0486  157.8918 C   0  0  0  0  0  0  0  0  0  0  0  0
  151.4137  140.0033  158.4947 C   0  0  0  0  0  0  0  0  0  0  0  0
  151.9552  141.1691  159.0790 N   0  0  0  0  0  0  0  0  0  0  0  0
  151.4866  142.4627  158.5897 C   0  0  0  0  0  0  0  0  0  0  0  0
  151.9164  143.5877  159.5480 C   0  0  2  0  0  0  0  0  0  0  0  0
  151.5593  144.9730  158.9997 C   0  0  0  0  0  0  0  0  0  0  0  0
  153.3297  143.5399  159.7388 O   0  0  0  0  0  0  0  0  0  0  0  0
  153.8228  142.2989  160.2481 C   0  0  1  0  0  0  0  0  0  0  0  0
  153.4445  142.0846  161.7247 C   0  0  0  0  0  0  0  0  0  0  0  0
  153.3936  141.1369  159.3305 C   0  0  0  0  0  0  0  0  0  0  0  0
  150.0697  139.8298  158.5293 N   0  0  0  0  0  0  0  0  0  0  0  0
  149.5387  138.7231  157.9692 C   0  0  0  0  0  0  0  0  0  0  0  0
  149.7153  133.5292  154.6048 C   0  0  0  0  0  0  0  0  0  0  0  0
  148.6771  132.7782  153.7474 C   0  0  0  0  0  0  0  0  0  0  0  0
  150.5620  132.5019  155.3849 C   0  0  0  0  0  0  0  0  0  0  0  0
  146.1359  137.1737  154.0947 H   0  0  0  0  0  0  0  0  0  0  0  0
  144.7696  136.1401  154.5272 H   0  0  0  0  0  0  0  0  0  0  0  0
  145.8096  135.7020  153.1672 H   0  0  0  0  0  0  0  0  0  0  0  0
  148.2919  135.7569  153.9207 H   0  0  0  0  0  0  0  0  0  0  0  0
  148.6021  134.0982  156.3893 H   0  0  0  0  0  0  0  0  0  0  0  0
  148.6422  136.5318  157.0425 H   0  0  0  0  0  0  0  0  0  0  0  0
  152.3666  137.1849  156.8344 H   0  0  0  0  0  0  0  0  0  0  0  0
  153.3373  139.1820  157.8774 H   0  0  0  0  0  0  0  0  0  0  0  0
  151.8951  142.6382  157.5933 H   0  0  0  0  0  0  0  0  0  0  0  0
  150.3994  142.4611  158.5016 H   0  0  0  0  0  0  0  0  0  0  0  0
  151.4114  143.4646  160.5061 H   0  0  0  0  0  0  0  0  0  0  0  0
  150.4842  145.0691  158.8456 H   0  0  0  0  0  0  0  0  0  0  0  0
  152.0529  145.1591  158.0453 H   0  0  0  0  0  0  0  0  0  0  0  0
  151.8674  145.7565  159.6926 H   0  0  0  0  0  0  0  0  0  0  0  0
  154.9103  142.3667  160.2094 H   0  0  0  0  0  0  0  0  0  0  0  0
  153.9487  141.2062  162.1280 H   0  0  0  0  0  0  0  0  0  0  0  0
  152.3740  141.9314  161.8596 H   0  0  0  0  0  0  0  0  0  0  0  0
  153.7399  142.9413  162.3307 H   0  0  0  0  0  0  0  0  0  0  0  0
  153.7124  140.1933  159.7711 H   0  0  0  0  0  0  0  0  0  0  0  0
  153.9069  141.2210  158.3718 H   0  0  0  0  0  0  0  0  0  0  0  0
  148.4627  138.6402  158.0199 H   0  0  0  0  0  0  0  0  0  0  0  0
  150.3875  134.0414  153.9141 H   0  0  0  0  0  0  0  0  0  0  0  0
  147.9472  132.2637  154.3731 H   0  0  0  0  0  0  0  0  0  0  0  0
  149.1569  132.0301  153.1158 H   0  0  0  0  0  0  0  0  0  0  0  0
  148.1317  133.4492  153.0836 H   0  0  0  0  0  0  0  0  0  0  0  0
  149.9631  131.9864  156.1364 H   0  0  0  0  0  0  0  0  0  0  0  0
  151.4081  132.9655  155.8921 H   0  0  0  0  0  0  0  0  0  0  0  0
  150.9746  131.7460  154.7159 H   0  0  0  0  0  0  0  0  0  0  0  0
  1  2  1  0  0  0  0
  1 26  1  0  0  0  0
  1 27  1  0  0  0  0
  1 28  1  0  0  0  0
  2  3  2  0  0  0  0
  2  4  1  0  0  0  0
  4  5  1  0  0  0  0
  4 29  1  0  0  0  0
  5  6  1  0  0  0  0
  5 23  1  0  0  0  0
  5 30  1  0  0  0  0
  6  7  2  0  0  0  0
  6  8  1  0  0  0  0
  8  9  1  0  0  0  0
  8 31  1  0  0  0  0
  9 22  1  0  0  0  0
  9 10  2  0  0  0  0
 10 11  1  0  0  0  0
 10 32  1  0  0  0  0
 11 12  2  0  0  0  0
 11 33  1  0  0  0  0
 12 13  1  0  0  0  0
 12 21  1  0  0  0  0
 13 20  1  0  0  0  0
 13 14  1  0  0  0  0
 14 15  1  0  0  0  0
 14 34  1  0  0  0  0
 14 35  1  0  0  0  0
 15 16  1  0  0  0  0
 15 17  1  0  0  0  0
 15 36  1  0  0  0  0
 16 37  1  0  0  0  0
 16 38  1  0  0  0  0
 16 39  1  0  0  0  0
 17 18  1  0  0  0  0
 18 19  1  0  0  0  0
 18 20  1  0  0  0  0
 18 40  1  0  0  0  0
 19 41  1  0  0  0  0
 19 42  1  0  0  0  0
 19 43  1  0  0  0  0
 20 44  1  0  0  0  0
 20 45  1  0  0  0  0
 21 22  2  0  0  0  0
 22 46  1  0  0  0  0
 23 24  1  0  0  0  0
 23 25  1  0  0  0  0
 23 47  1  0  0  0  0
 24 48  1  0  0  0  0
 24 49  1  0  0  0  0
 24 50  1  0  0  0  0
 25 51  1  0  0  0  0
 25 52  1  0  0  0  0
 25 53  1  0  0  0  0
M  END
> <s_m_source_file>
AV-unprocessed.smi

> <i_m_source_file_index>
1966

> <i_lp_mmshare_version>
43012

> <i_f3d_flags>
0

> <s_epik_input>
W0NIM11DKD1PKVtOSF1bQ0BASF0oW0NIXShbQ0gzXSlbQ0gzXSlDKD1PKVtOSF1jMVtjSF1bY0hdYyhuW2NIXTEpTjJbQ0gyXVtDQEBIXShbQ0gzXSlPW0NAQEhdKFtDSDNdKVtDSDJdMg==

> <s_epik_cmdline>
J2VwaWtfcHl0aG9uJywgJy1waCcsICc3LjAnLCAnLXRuJywgJzgnLCAnLW1hJywgJzIwMCcsICctbWV0YWxfYmluZGluZycsICctaW1hZScsICc8aW5maWxlLm1hZT4nLCAnLW9tYWUnLCAnPG91dGZpbGUubWFlPic=

> <r_lp_tautomer_probability>
1

> <r_epik_Ionization_Penalty>
0.000679699

> <r_epik_Ionization_Penalty_Charging>
0

> <r_epik_Ionization_Penalty_Neutral>
0.000679699

> <r_epik_State_Penalty>
0.000430485

> <r_epik_Charging_Adjusted_Penalty>
0.000430485

> <i_epik_Tot_Q>
0

> <i_epik_Tot_abs_Q>
0

> <r_epik_Metal_State_Penalty>
-0

> <b_epik_Metal_Only>
0

> <s_lp_Force_Field>
OPLS_2005

> <r_lp_Energy>
28.7238

> <b_lp_Chiralities_Consistent>
1

> <s_lp_Variant>
AV-unprocessed.smi:1966-3

> <Gold.Version>
5.8.1

> <Gold.Id.Protein>
6NUR|6NUR_protein|mol2

> <Gold.PLP.Fitness>
44.9757

> <Gold.PLP.PLP>
-39.6937

> <Gold.PLP.part.hbond>
-2.0000

> <Gold.PLP.part.metal>
0.0000

> <Gold.PLP.part.buried>
-4.7629

> <Gold.PLP.part.nonpolar>
-31.9237

> <Gold.PLP.part.repulsive>
0.1037

> <Gold.PLP.ligand.clash>
0.0000

> <Gold.PLP.ligand.torsion>
0.5268

> <Gold.PLP.Chemscore.Hbond>
2.0000

> <Gold.PLP.Chemscore.CHOScore>
0.0000

> <Gold.PLP.Chemscore.Metal>
0.0000

> <Gold.Chemscore.Hbonds>
donor molecule, donor type, donor heavy atom, donor atom, acceptor molecule, acceptor atom, score
      L1  H     4    29       P1  7948  0.57
      P1  H 10752 10765       L1     7  1.00

> <Gold.PLP.Chemscore.Internal.Correction>
0.3356

> <Gold.Rescore>
     Score         DG    S(hbond)    S(metal)    S(lipo)     H(rot)  DE(clash)    DE(int)     intcor
     17.81     -19.57       1.99        0.00     100.38       1.68       0.01       1.75       ----

> <Gold.Chemscore.Fitness>
17.8083

> <Gold.Chemscore.DG>
-19.5709

> <Gold.Chemscore.ZeroCoef>
-5.4800

> <Gold.Chemscore.Hbond>
1.9870

> <Gold.Chemscore.Metal>
0.0000

> <Gold.Chemscore.Lipo>
100.3793

> <Gold.Chemscore.Internal_Hbond>
0.0000

> <Gold.Chemscore.DEClash>
0.0126

> <Gold.Chemscore.DEInternal>
1.7500

> <Gold.Chemscore.Rot>
1.6759

> <Gold.Chemscore.Internal.Correction>
   9.000000E+99

> <Gold.Chemscore.Hbonds>
donor molecule, donor type, donor heavy atom, donor atom, acceptor molecule, acceptor atom, score
      L1  H     4    29       P1  7948  0.56
      P1  H 10752 10765       L1     7  0.97

> <Gold.Chemscore.Hbond.Weighted>
-6.6367

> <Gold.Chemscore.Metal.Weighted>
-0.0000

> <Gold.Chemscore.Lipo.Weighted>
-11.7444

> <Gold.Chemscore.Internal_Hbond.Weighted>
0.0000

> <Gold.Chemscore.DEClash.Weighted>
0.0126

> <Gold.Chemscore.DEInternal.Weighted>
1.7500

> <Gold.Chemscore.Rot.Weighted>
4.2902

> <Gold.Chemscore.Internal.Correction.Weighted>
   9.000000E+99

> <Gold.Protein.RotatedTorsions>
[ 6907 6896 6895 6894 ] final  -88.11 input  -60.11 | X-H torsion
[ 7974 7965 7964 7962 ] final   46.22 input  175.53 | X-H torsion
[ 8008 7997 7996 7995 ] final  128.10 input   59.86 | X-H torsion
[ 10167 10162 10161 10158 ] final  117.11 input  -65.29 | X-H torsion
[ 10718 10713 10712 10709 ] final   33.93 input   66.30 | X-H torsion
[ 10763 10752 10751 10750 ] final -153.22 input  -60.55 | X-H torsion
[ 11005 11000 10999 10996 ] final  139.31 input  -57.11 | X-H torsion

> <Gold.Protein.ActiveResidues>
 VAL166  LYS551  ARG553  GLY616  TRP617  ASP618  TYR619  PRO620  LYS621  CYS622 
 ASP623  PHE694  ASN695  SER759  ASP760  ASP761  ALA762  ILE779  LEU786  VAL792 
 PHE793  MET794  SER795  GLU796  ALA797  LYS798  CYS799  TRP800  GLU811  SER814 

> <Gold.Protein.RotatedAtoms>
  150.6868  134.2792  159.4619 H   0  0  0  0  0  0  0  0  0  0  0  0  # atno 6907 bound_to 6896
  152.0707  134.9532  160.0584 H   0  0  0  0  0  0  0  0  0  0  0  0  # atno 6908 bound_to 6896
  152.0923  133.4172  159.4586 H   0  0  0  0  0  0  0  0  0  0  0  0  # atno 6909 bound_to 6896
  146.0409  139.4879  142.9778 H   0  0  0  0  0  0  0  0  0  0  0  0  # atno 7974 bound_to 7965
  156.2907  140.2653  156.2381 H   0  0  0  0  0  0  0  0  0  0  0  0  # atno 8008 bound_to 7997
  155.0005  140.0388  157.2376 H   0  0  0  0  0  0  0  0  0  0  0  0  # atno 8009 bound_to 7997
  154.7606  140.2760  155.6222 H   0  0  0  0  0  0  0  0  0  0  0  0  # atno 8010 bound_to 7997
  139.6201  144.7099  151.2653 H   0  0  0  0  0  0  0  0  0  0  0  0  # atno 10167 bound_to 10162
  157.3041  130.7365  149.6684 H   0  0  0  0  0  0  0  0  0  0  0  0  # atno 10718 bound_to 10713
  154.7942  135.3218  154.7705 H   0  0  0  0  0  0  0  0  0  0  0  0  # atno 10763 bound_to 10752
  153.8387  135.6873  153.4810 H   0  0  0  0  0  0  0  0  0  0  0  0  # atno 10764 bound_to 10752
  153.1626  135.4654  154.9735 H   0  0  0  0  0  0  0  0  0  0  0  0  # atno 10765 bound_to 10752
  140.0245  134.9381  157.0541 H   0  0  0  0  0  0  0  0  0  0  0  0  # atno 11005 bound_to 11000
  145.6885  141.0171  143.1568 LP  0  0  0  0  0  0  0  0  0  0  0  0  # atno 17320 bound_to 7965
  144.7074  139.8505  143.7425 LP  0  0  0  0  0  0  0  0  0  0  0  0  # atno 17321 bound_to 7965
  140.7376  143.6672  150.8113 LP  0  0  0  0  0  0  0  0  0  0  0  0  # atno 17342 bound_to 10162
  140.0281  143.5472  152.2772 LP  0  0  0  0  0  0  0  0  0  0  0  0  # atno 17343 bound_to 10162
  155.9673  130.4271  150.4729 LP  0  0  0  0  0  0  0  0  0  0  0  0  # atno 17370 bound_to 10713
  157.2715  131.0588  151.2256 LP  0  0  0  0  0  0  0  0  0  0  0  0  # atno 17371 bound_to 10713
  140.4330  134.1761  155.7169 LP  0  0  0  0  0  0  0  0  0  0  0  0  # atno 17394 bound_to 11000
  141.1794  133.8445  157.1309 LP  0  0  0  0  0  0  0  0  0  0  0  0  # atno 17395 bound_to 11000

$$$$
