AV-unprocessed.smi:2201|AV-procd|sdf|8927|dock1
  -GOLD-   2272012143D 1   1.00000     0.00000
 Structure written by MMmdl.
 31 31  0  0  0  0  0  0  0  0  1 V2000
  145.6185  135.3356  160.8012 C   0  0  0  0  0  0  0  0  0  0  0  0
  147.1081  134.9498  160.9129 C   0  0  0  0  0  0  0  0  0  0  0  0
  147.4909  134.8501  162.4042 C   0  0  0  0  0  0  0  0  0  0  0  0
  147.3172  133.5668  160.2504 C   0  0  0  0  0  0  0  0  0  0  0  0
  147.9599  136.0642  160.2549 C   0  0  0  0  0  0  0  0  0  0  0  0
  147.9485  137.1929  160.7487 O   0  0  0  0  0  0  0  0  0  0  0  0
  148.6798  135.7392  159.1620 N   0  0  0  0  0  0  0  0  0  0  0  0
  149.5294  136.5664  158.3819 C   0  0  0  0  0  0  0  0  0  0  0  0
  149.7170  136.4290  157.0646 N   0  0  0  0  0  0  0  0  0  0  0  0
  150.6100  137.3771  156.5537 C   0  0  0  0  0  0  0  0  0  0  0  0
  150.9451  137.3797  155.0902 C   0  0  0  0  0  0  0  0  0  0  0  0
  150.4787  138.6837  154.4391 C   0  0  0  0  0  0  0  0  0  0  0  0
  149.5947  138.5873  153.4418 N   0  0  0  0  0  0  0  0  0  0  0  0
  150.9139  139.7656  154.8274 O   0  0  0  0  0  0  0  0  0  0  0  0
  151.0866  138.2413  157.5104 C   0  0  0  0  0  0  0  0  0  0  0  0
  150.4420  137.8889  159.0912 S   0  0  0  0  0  0  0  0  0  0  0  0
  144.9800  134.5804  161.2610 H   0  0  0  0  0  0  0  0  0  0  0  0
  145.3094  135.4328  159.7598 H   0  0  0  0  0  0  0  0  0  0  0  0
  145.4043  136.2829  161.2980 H   0  0  0  0  0  0  0  0  0  0  0  0
  147.3146  135.7876  162.9339 H   0  0  0  0  0  0  0  0  0  0  0  0
  148.5440  134.5945  162.5288 H   0  0  0  0  0  0  0  0  0  0  0  0
  146.9074  134.0805  162.9105 H   0  0  0  0  0  0  0  0  0  0  0  0
  146.7052  132.8050  160.7347 H   0  0  0  0  0  0  0  0  0  0  0  0
  148.3541  133.2350  160.3220 H   0  0  0  0  0  0  0  0  0  0  0  0
  147.0388  133.5755  159.1954 H   0  0  0  0  0  0  0  0  0  0  0  0
  148.6076  134.7805  158.8539 H   0  0  0  0  0  0  0  0  0  0  0  0
  152.0201  137.2688  154.9396 H   0  0  0  0  0  0  0  0  0  0  0  0
  150.4772  136.5333  154.5856 H   0  0  0  0  0  0  0  0  0  0  0  0
  149.2605  139.4203  152.9800 H   0  0  0  0  0  0  0  0  0  0  0  0
  149.2661  137.6776  153.1517 H   0  0  0  0  0  0  0  0  0  0  0  0
  151.7784  139.0601  157.3813 H   0  0  0  0  0  0  0  0  0  0  0  0
  1  2  1  0  0  0  0
  1 17  1  0  0  0  0
  1 18  1  0  0  0  0
  1 19  1  0  0  0  0
  2  3  1  0  0  0  0
  2  4  1  0  0  0  0
  2  5  1  0  0  0  0
  3 20  1  0  0  0  0
  3 21  1  0  0  0  0
  3 22  1  0  0  0  0
  4 23  1  0  0  0  0
  4 24  1  0  0  0  0
  4 25  1  0  0  0  0
  5  6  2  0  0  0  0
  5  7  1  0  0  0  0
  7  8  1  0  0  0  0
  7 26  1  0  0  0  0
  8 16  1  0  0  0  0
  8  9  2  0  0  0  0
  9 10  1  0  0  0  0
 10 11  1  0  0  0  0
 10 15  2  0  0  0  0
 11 12  1  0  0  0  0
 11 27  1  0  0  0  0
 11 28  1  0  0  0  0
 12 13  1  0  0  0  0
 12 14  2  0  0  0  0
 13 29  1  0  0  0  0
 13 30  1  0  0  0  0
 15 16  1  0  0  0  0
 15 31  1  0  0  0  0
M  END
> <s_m_source_file>
AV-unprocessed.smi

> <i_m_source_file_index>
2201

> <i_lp_mmshare_version>
43012

> <i_f3d_flags>
0

> <s_epik_input>
W0NIM11DKFtDSDNdKShbQ0gzXSlDKD1PKVtOSF1jMW5jKFtjSF1zMSlbQ0gyXUMoPU8pW05IMl0=

> <s_epik_cmdline>
J2VwaWtfcHl0aG9uJywgJy1waCcsICc3LjAnLCAnLXRuJywgJzgnLCAnLW1hJywgJzIwMCcsICctbWV0YWxfYmluZGluZycsICctaW1hZScsICc8aW5maWxlLm1hZT4nLCAnLW9tYWUnLCAnPG91dGZpbGUubWFlPic=

> <r_lp_tautomer_probability>
1

> <r_epik_Ionization_Penalty>
0.000136028

> <r_epik_Ionization_Penalty_Charging>
0

> <r_epik_Ionization_Penalty_Neutral>
0.000136028

> <r_epik_State_Penalty>
-0

> <r_epik_Charging_Adjusted_Penalty>
0

> <i_epik_Tot_Q>
0

> <i_epik_Tot_abs_Q>
0

> <r_epik_Metal_State_Penalty>
0.0818114

> <b_epik_Metal_Only>
0

> <s_lp_Force_Field>
OPLS_2005

> <r_lp_Energy>
8.92215

> <b_lp_Chiralities_Consistent>
1

> <s_lp_Variant>
AV-unprocessed.smi:2201-1

> <Gold.Version>
5.8.1

> <Gold.Id.Protein>
6NUR|6NUR_protein|mol2

> <Gold.PLP.Fitness>
36.7140

> <Gold.PLP.PLP>
-23.8748

> <Gold.PLP.part.hbond>
-5.2167

> <Gold.PLP.part.metal>
0.0000

> <Gold.PLP.part.buried>
-4.3190

> <Gold.PLP.part.nonpolar>
-15.3133

> <Gold.PLP.part.repulsive>
0.2744

> <Gold.PLP.ligand.clash>
0.0000

> <Gold.PLP.ligand.torsion>
0.2924

> <Gold.PLP.Chemscore.Hbond>
4.4640

> <Gold.PLP.Chemscore.CHOScore>
0.0000

> <Gold.PLP.Chemscore.Metal>
0.0000

> <Gold.Chemscore.Hbonds>
donor molecule, donor type, donor heavy atom, donor atom, acceptor molecule, acceptor atom, score
      L1  H    13    29       P1  7957  0.58
      L1  H    13    30       P1  7948  1.00
      P1  H  6931  6943       L1     6  0.85
      P1  H  6934  6947       L1     6  0.78
      P1  H  7989  7998       L1    14  1.00

> <Gold.PLP.Chemscore.Internal.Correction>
0.0321

> <Gold.Rescore>
     Score         DG    S(hbond)    S(metal)    S(lipo)     H(rot)  DE(clash)    DE(int)     intcor
     19.07     -19.34       4.17        0.00      41.05       1.91       0.00       0.27       ----

> <Gold.Chemscore.Fitness>
19.0656

> <Gold.Chemscore.DG>
-19.3353

> <Gold.Chemscore.ZeroCoef>
-5.4800

> <Gold.Chemscore.Hbond>
4.1737

> <Gold.Chemscore.Metal>
0.0000

> <Gold.Chemscore.Lipo>
41.0509

> <Gold.Chemscore.Internal_Hbond>
0.0000

> <Gold.Chemscore.DEClash>
0.0000

> <Gold.Chemscore.DEInternal>
0.2697

> <Gold.Chemscore.Rot>
1.9092

> <Gold.Chemscore.Internal.Correction>
   9.000000E+99

> <Gold.Chemscore.Hbonds>
donor molecule, donor type, donor heavy atom, donor atom, acceptor molecule, acceptor atom, score
      L1  H    13    29       P1  7957  0.55
      L1  H    13    30       P1  7948  0.95
      P1  H  6931  6943       L1     6  0.83
      P1  H  6934  6947       L1     6  0.76
      P1  H  7989  7998       L1    14  0.91

> <Gold.Chemscore.Hbond.Weighted>
-13.9400

> <Gold.Chemscore.Metal.Weighted>
-0.0000

> <Gold.Chemscore.Lipo.Weighted>
-4.8030

> <Gold.Chemscore.Internal_Hbond.Weighted>
0.0000

> <Gold.Chemscore.DEClash.Weighted>
0.0000

> <Gold.Chemscore.DEInternal.Weighted>
0.2697

> <Gold.Chemscore.Rot.Weighted>
4.8877

> <Gold.Chemscore.Internal.Correction.Weighted>
   9.000000E+99

> <Gold.Protein.RotatedTorsions>
[ 6907 6896 6895 6894 ] final  111.60 input  -60.11 | X-H torsion
[ 7974 7965 7964 7962 ] final  -10.05 input  175.53 | X-H torsion
[ 8008 7997 7996 7995 ] final -168.74 input   59.86 | X-H torsion
[ 10167 10162 10161 10158 ] final   36.39 input  -65.29 | X-H torsion
[ 10718 10713 10712 10709 ] final -134.87 input   66.30 | X-H torsion
[ 10763 10752 10751 10750 ] final  101.11 input  -60.55 | X-H torsion
[ 11005 11000 10999 10996 ] final  105.38 input  -57.11 | X-H torsion

> <Gold.Protein.ActiveResidues>
 VAL166  LYS551  ARG553  GLY616  TRP617  ASP618  TYR619  PRO620  LYS621  CYS622 
 ASP623  PHE694  ASN695  SER759  ASP760  ASP761  ALA762  ILE779  LEU786  VAL792 
 PHE793  MET794  SER795  GLU796  ALA797  LYS798  CYS799  TRP800  GLU811  SER814 

> <Gold.Protein.RotatedAtoms>
  152.4961  133.8635  159.7261 H   0  0  0  0  0  0  0  0  0  0  0  0  # atno 6907 bound_to 6896
  150.9140  133.6953  159.2854 H   0  0  0  0  0  0  0  0  0  0  0  0  # atno 6908 bound_to 6896
  151.4353  135.1018  159.9706 H   0  0  0  0  0  0  0  0  0  0  0  0  # atno 6909 bound_to 6896
  146.2233  140.2707  142.8356 H   0  0  0  0  0  0  0  0  0  0  0  0  # atno 7974 bound_to 7965
  155.8955  140.1032  157.1388 H   0  0  0  0  0  0  0  0  0  0  0  0  # atno 8008 bound_to 7997
  154.4020  140.1302  156.4433 H   0  0  0  0  0  0  0  0  0  0  0  0  # atno 8009 bound_to 7997
  155.7484  140.3465  155.5141 H   0  0  0  0  0  0  0  0  0  0  0  0  # atno 8010 bound_to 7997
  140.4132  144.1563  150.6141 H   0  0  0  0  0  0  0  0  0  0  0  0  # atno 10167 bound_to 10162
  156.2601  130.7204  151.1135 H   0  0  0  0  0  0  0  0  0  0  0  0  # atno 10718 bound_to 10713
  153.3224  135.4056  155.1428 H   0  0  0  0  0  0  0  0  0  0  0  0  # atno 10763 bound_to 10752
  154.8604  135.3591  154.5578 H   0  0  0  0  0  0  0  0  0  0  0  0  # atno 10764 bound_to 10752
  153.6012  135.7071  153.5442 H   0  0  0  0  0  0  0  0  0  0  0  0  # atno 10765 bound_to 10752
  139.8801  134.9334  156.5505 H   0  0  0  0  0  0  0  0  0  0  0  0  # atno 11005 bound_to 11000
  144.9270  140.7932  143.5713 LP  0  0  0  0  0  0  0  0  0  0  0  0  # atno 17320 bound_to 7965
  145.2648  139.1978  143.4873 LP  0  0  0  0  0  0  0  0  0  0  0  0  # atno 17321 bound_to 7965
  140.4615  143.2447  151.9214 LP  0  0  0  0  0  0  0  0  0  0  0  0  # atno 17342 bound_to 10162
  139.4782  144.5463  151.8453 LP  0  0  0  0  0  0  0  0  0  0  0  0  # atno 17343 bound_to 10162
  157.7247  131.0658  150.5983 LP  0  0  0  0  0  0  0  0  0  0  0  0  # atno 17370 bound_to 10713
  156.6070  130.4370  149.5874 LP  0  0  0  0  0  0  0  0  0  0  0  0  # atno 17371 bound_to 10713
  140.8243  133.8329  155.8925 LP  0  0  0  0  0  0  0  0  0  0  0  0  # atno 17394 bound_to 11000
  140.9389  134.1927  157.4812 LP  0  0  0  0  0  0  0  0  0  0  0  0  # atno 17395 bound_to 11000

$$$$
