AV-unprocessed.smi:2857|AV-procd|sdf|10997|dock1
  -GOLD-   2272015453D 1   1.00000     0.00000
 Structure written by MMmdl.
 44 46  0  0  0  0  0  0  0  0  1 V2000
  151.7686  144.4344  159.1195 C   0  0  0  0  0  0  0  0  0  0  0  0
  152.4401  143.1206  159.4632 C   0  0  0  0  0  0  0  0  0  0  0  0
  153.1062  142.9619  160.6938 C   0  0  0  0  0  0  0  0  0  0  0  0
  153.7253  141.7380  161.0045 C   0  0  0  0  0  0  0  0  0  0  0  0
  153.6824  140.6660  160.0892 C   0  0  0  0  0  0  0  0  0  0  0  0
  154.3571  139.3534  160.4409 C   0  0  0  0  0  0  0  0  0  0  0  0
  153.0183  140.8120  158.8490 C   0  0  0  0  0  0  0  0  0  0  0  0
  153.0149  139.7250  157.9991 O   0  0  0  0  0  0  0  0  0  0  0  0
  152.1323  139.7340  156.8851 C   0  0  0  0  0  0  0  0  0  0  0  0
  152.4497  138.5192  155.9998 C   0  0  2  0  0  0  0  0  0  0  0  0
  153.7891  138.6275  155.5584 O   0  0  0  0  0  0  0  0  0  0  0  0
  151.5158  138.4397  154.7757 C   0  0  0  0  0  0  0  0  0  0  0  0
  150.3693  139.3291  154.8894 N   0  0  0  0  0  0  0  0  0  0  0  0
  150.5556  140.6716  154.8014 N   0  0  0  0  0  0  0  0  0  0  0  0
  149.3497  141.2157  154.9506 C   0  0  0  0  0  0  0  0  0  0  0  0
  148.3412  140.2320  155.1421 C   0  0  0  0  0  0  0  0  0  0  0  0
  146.8974  140.2591  155.3537 C   0  0  0  0  0  0  0  0  0  0  0  0
  146.2774  139.1301  155.4996 N   0  0  0  0  0  0  0  0  0  0  0  0
  146.9653  137.9120  155.4573 N   0  0  0  0  0  0  0  0  0  0  0  0
  146.1269  136.7294  155.6394 C   0  0  0  0  0  0  0  0  0  0  0  0
  148.3118  137.7771  155.2620 C   0  0  0  0  0  0  0  0  0  0  0  0
  148.8966  136.6946  155.2242 O   0  0  0  0  0  0  0  0  0  0  0  0
  149.0292  139.0643  155.0945 C   0  0  0  0  0  0  0  0  0  0  0  0
  152.3970  142.0508  158.5464 C   0  0  0  0  0  0  0  0  0  0  0  0
  151.9321  145.1815  159.8968 H   0  0  0  0  0  0  0  0  0  0  0  0
  150.6940  144.2900  159.0063 H   0  0  0  0  0  0  0  0  0  0  0  0
  152.1633  144.8275  158.1822 H   0  0  0  0  0  0  0  0  0  0  0  0
  153.1453  143.7757  161.4032 H   0  0  0  0  0  0  0  0  0  0  0  0
  154.2347  141.6261  161.9506 H   0  0  0  0  0  0  0  0  0  0  0  0
  155.1852  139.1609  159.7587 H   0  0  0  0  0  0  0  0  0  0  0  0
  153.6487  138.5284  160.3637 H   0  0  0  0  0  0  0  0  0  0  0  0
  154.7501  139.3660  161.4576 H   0  0  0  0  0  0  0  0  0  0  0  0
  151.1092  139.6529  157.2557 H   0  0  0  0  0  0  0  0  0  0  0  0
  152.2099  140.6613  156.3142 H   0  0  0  0  0  0  0  0  0  0  0  0
  152.3440  137.6044  156.5847 H   0  0  0  0  0  0  0  0  0  0  0  0
  154.3220  138.0453  156.0786 H   0  0  0  0  0  0  0  0  0  0  0  0
  152.0652  138.7114  153.8730 H   0  0  0  0  0  0  0  0  0  0  0  0
  151.1681  137.4194  154.6178 H   0  0  0  0  0  0  0  0  0  0  0  0
  149.2502  142.2905  154.9171 H   0  0  0  0  0  0  0  0  0  0  0  0
  146.3603  141.2068  155.3878 H   0  0  0  0  0  0  0  0  0  0  0  0
  146.4644  136.1465  156.4978 H   0  0  0  0  0  0  0  0  0  0  0  0
  146.1678  136.0913  154.7556 H   0  0  0  0  0  0  0  0  0  0  0  0
  145.0812  136.9913  155.8098 H   0  0  0  0  0  0  0  0  0  0  0  0
  151.8775  142.2051  157.6129 H   0  0  0  0  0  0  0  0  0  0  0  0
  1  2  1  0  0  0  0
  1 25  1  0  0  0  0
  1 26  1  0  0  0  0
  1 27  1  0  0  0  0
  2 24  1  0  0  0  0
  2  3  2  0  0  0  0
  3  4  1  0  0  0  0
  3 28  1  0  0  0  0
  4  5  2  0  0  0  0
  4 29  1  0  0  0  0
  5  6  1  0  0  0  0
  5  7  1  0  0  0  0
  6 30  1  0  0  0  0
  6 31  1  0  0  0  0
  6 32  1  0  0  0  0
  7  8  1  0  0  0  0
  7 24  2  0  0  0  0
  8  9  1  0  0  0  0
  9 10  1  0  0  0  0
  9 33  1  0  0  0  0
  9 34  1  0  0  0  0
 10 11  1  0  0  0  0
 10 12  1  0  0  0  0
 10 35  1  0  0  0  0
 11 36  1  0  0  0  0
 12 13  1  0  0  0  0
 12 37  1  0  0  0  0
 12 38  1  0  0  0  0
 13 23  1  0  0  0  0
 13 14  1  0  0  0  0
 14 15  2  0  0  0  0
 15 16  1  0  0  0  0
 15 39  1  0  0  0  0
 16 23  2  0  0  0  0
 16 17  1  0  0  0  0
 17 18  2  0  0  0  0
 17 40  1  0  0  0  0
 18 19  1  0  0  0  0
 19 20  1  0  0  0  0
 19 21  1  0  0  0  0
 20 41  1  0  0  0  0
 20 42  1  0  0  0  0
 20 43  1  0  0  0  0
 21 22  2  0  0  0  0
 21 23  1  0  0  0  0
 24 44  1  0  0  0  0
M  END
> <s_m_source_file>
AV-unprocessed.smi

> <i_m_source_file_index>
2857

> <i_lp_mmshare_version>
43012

> <i_f3d_flags>
0

> <s_epik_input>
W0NIM11jMVtjSF1bY0hdYyhbQ0gzXSljKFtjSF0xKU9bQ0gyXVtDQEhdKFtPSF0pW0NIMl1uKG5bY0hdMiljKGMyMyljKD1PKW4oW0NIM10pbltjSF0z

> <s_epik_cmdline>
J2VwaWtfcHl0aG9uJywgJy1waCcsICc3LjAnLCAnLXRuJywgJzgnLCAnLW1hJywgJzIwMCcsICctbWV0YWxfYmluZGluZycsICctaW1hZScsICc8aW5maWxlLm1hZT4nLCAnLW9tYWUnLCAnPG91dGZpbGUubWFlPic=

> <r_lp_tautomer_probability>
1

> <r_epik_Ionization_Penalty>
2.24607e-06

> <r_epik_Ionization_Penalty_Charging>
1.42095e-10

> <r_epik_Ionization_Penalty_Neutral>
2.24593e-06

> <r_epik_State_Penalty>
-0

> <r_epik_Charging_Adjusted_Penalty>
1.42095e-10

> <i_epik_Tot_Q>
0

> <i_epik_Tot_abs_Q>
0

> <r_epik_Metal_State_Penalty>
-0

> <b_epik_Metal_Only>
0

> <s_lp_Force_Field>
OPLS_2005

> <r_lp_Energy>
31.8826

> <b_lp_Chiralities_Consistent>
1

> <s_lp_Variant>
AV-unprocessed.smi:2857-1

> <Gold.Version>
5.8.1

> <Gold.Id.Protein>
6NUR|6NUR_protein|mol2

> <Gold.PLP.Fitness>
49.4519

> <Gold.PLP.PLP>
-42.1756

> <Gold.PLP.part.hbond>
-2.2758

> <Gold.PLP.part.metal>
0.0000

> <Gold.PLP.part.buried>
-3.2040

> <Gold.PLP.part.nonpolar>
-36.1822

> <Gold.PLP.part.repulsive>
0.2939

> <Gold.PLP.ligand.clash>
0.0000

> <Gold.PLP.ligand.torsion>
0.9299

> <Gold.PLP.Chemscore.Hbond>
2.0160

> <Gold.PLP.Chemscore.CHOScore>
1.0000

> <Gold.PLP.Chemscore.Metal>
0.0000

> <Gold.Chemscore.Hbonds>
donor molecule, donor type, donor heavy atom, donor atom, acceptor molecule, acceptor atom, score
      P1  H  7989  7998       L1    14  0.91
      P1  H  7997  8008       L1    11  0.27
      P1  H  7997  8010       L1     8  0.79
      L1  C    15    39       P1  8028  0.94

> <Gold.PLP.Chemscore.Internal.Correction>
0.0880

> <Gold.Rescore>
     Score         DG    S(hbond)    S(metal)    S(lipo)     H(rot)  DE(clash)    DE(int)     intcor
     15.48     -17.75       1.19        0.00     121.68       2.32       0.08       2.20       ----

> <Gold.Chemscore.Fitness>
15.4796

> <Gold.Chemscore.DG>
-17.7519

> <Gold.Chemscore.ZeroCoef>
-5.4800

> <Gold.Chemscore.Hbond>
1.1928

> <Gold.Chemscore.Metal>
0.0000

> <Gold.Chemscore.Lipo>
121.6781

> <Gold.Chemscore.Internal_Hbond>
0.0000

> <Gold.Chemscore.DEClash>
0.0759

> <Gold.Chemscore.DEInternal>
2.1964

> <Gold.Chemscore.Rot>
2.3236

> <Gold.Chemscore.Internal.Correction>
   9.000000E+99

> <Gold.Chemscore.Hbonds>
donor molecule, donor type, donor heavy atom, donor atom, acceptor molecule, acceptor atom, score
      P1  H  7989  7998       L1    14  0.45
      P1  H  7997  8008       L1    11  0.10
      P1  H  7997  8010       L1     8  0.06

> <Gold.Chemscore.Hbond.Weighted>
-3.9840

> <Gold.Chemscore.Metal.Weighted>
-0.0000

> <Gold.Chemscore.Lipo.Weighted>
-14.2363

> <Gold.Chemscore.Internal_Hbond.Weighted>
0.0000

> <Gold.Chemscore.DEClash.Weighted>
0.0759

> <Gold.Chemscore.DEInternal.Weighted>
2.1964

> <Gold.Chemscore.Rot.Weighted>
5.9484

> <Gold.Chemscore.Internal.Correction.Weighted>
   9.000000E+99

> <Gold.Protein.RotatedTorsions>
[ 6907 6896 6895 6894 ] final -155.79 input  -60.11 | X-H torsion
[ 7974 7965 7964 7962 ] final  -32.94 input  175.53 | X-H torsion
[ 8008 7997 7996 7995 ] final   18.76 input   59.86 | X-H torsion
[ 10167 10162 10161 10158 ] final  154.66 input  -65.29 | X-H torsion
[ 10718 10713 10712 10709 ] final  -95.48 input   66.30 | X-H torsion
[ 10763 10752 10751 10750 ] final -179.76 input  -60.55 | X-H torsion
[ 11005 11000 10999 10996 ] final  163.34 input  -57.11 | X-H torsion

> <Gold.Protein.ActiveResidues>
 VAL166  LYS551  ARG553  GLY616  TRP617  ASP618  TYR619  PRO620  LYS621  CYS622 
 ASP623  PHE694  ASN695  SER759  ASP760  ASP761  ALA762  ILE779  LEU786  VAL792 
 PHE793  MET794  SER795  GLU796  ALA797  LYS798  CYS799  TRP800  GLU811  SER814 

> <Gold.Protein.RotatedAtoms>
  151.2779  133.4224  159.2624 H   0  0  0  0  0  0  0  0  0  0  0  0  # atno 6907 bound_to 6896
  151.0387  134.9592  159.8160 H   0  0  0  0  0  0  0  0  0  0  0  0  # atno 6908 bound_to 6896
  152.5360  134.2738  159.9034 H   0  0  0  0  0  0  0  0  0  0  0  0  # atno 6909 bound_to 6896
  146.0950  140.5855  142.8847 H   0  0  0  0  0  0  0  0  0  0  0  0  # atno 7974 bound_to 7965
  154.9107  140.3013  155.5267 H   0  0  0  0  0  0  0  0  0  0  0  0  # atno 8008 bound_to 7997
  156.3015  140.2389  156.4082 H   0  0  0  0  0  0  0  0  0  0  0  0  # atno 8009 bound_to 7997
  154.8428  140.0413  157.1541 H   0  0  0  0  0  0  0  0  0  0  0  0  # atno 8010 bound_to 7997
  139.4823  144.5167  151.7940 H   0  0  0  0  0  0  0  0  0  0  0  0  # atno 10167 bound_to 10162
  156.0044  130.5111  150.6083 H   0  0  0  0  0  0  0  0  0  0  0  0  # atno 10718 bound_to 10713
  154.5310  135.2800  155.1180 H   0  0  0  0  0  0  0  0  0  0  0  0  # atno 10763 bound_to 10752
  154.2700  135.6305  153.5310 H   0  0  0  0  0  0  0  0  0  0  0  0  # atno 10764 bound_to 10752
  152.9957  135.5626  154.5823 H   0  0  0  0  0  0  0  0  0  0  0  0  # atno 10765 bound_to 10752
  140.2348  134.8096  157.3353 H   0  0  0  0  0  0  0  0  0  0  0  0  # atno 11005 bound_to 11000
  144.7389  140.4886  143.6884 LP  0  0  0  0  0  0  0  0  0  0  0  0  # atno 17320 bound_to 7965
  145.5965  139.1500  143.3153 LP  0  0  0  0  0  0  0  0  0  0  0  0  # atno 17321 bound_to 7965
  140.4677  144.1632  150.5914 LP  0  0  0  0  0  0  0  0  0  0  0  0  # atno 17342 bound_to 10162
  140.4416  143.2524  151.9465 LP  0  0  0  0  0  0  0  0  0  0  0  0  # atno 17343 bound_to 10162
  157.3920  131.0797  151.1385 LP  0  0  0  0  0  0  0  0  0  0  0  0  # atno 17370 bound_to 10713
  157.2074  130.6422  149.5761 LP  0  0  0  0  0  0  0  0  0  0  0  0  # atno 17371 bound_to 10713
  140.1713  134.4605  155.7830 LP  0  0  0  0  0  0  0  0  0  0  0  0  # atno 17394 bound_to 11000
  141.2215  133.6943  156.7712 LP  0  0  0  0  0  0  0  0  0  0  0  0  # atno 17395 bound_to 11000

$$$$
