AV-unprocessed.smi:1353|AV-procd|sdf|5533|dock3
  -GOLD-   22720 5123D 1   1.00000     0.00000
 Structure written by MMmdl.
 40 42  0  0  0  0  0  0  0  0  2 V2000
  153.4173  138.6776  155.8660 O   0  0  0  0  0  0  0  0  0  0  0  0
  152.9638  138.5078  154.5404 C   0  0  0  0  0  0  0  0  0  0  0  0
  151.6271  137.7541  154.5431 C   0  0  0  0  0  0  0  0  0  0  0  0
  150.4714  138.6834  154.3591 C   0  0  0  0  0  0  0  0  0  0  0  0
  149.4171  138.4860  153.5183 N   0  3  0  0  0  0  0  0  0  0  0  0
  148.5286  139.5575  153.6141 C   0  0  0  0  0  0  0  0  0  0  0  0
  147.3283  139.8063  152.9558 C   0  0  0  0  0  0  0  0  0  0  0  0
  146.6644  141.0068  153.2827 C   0  0  0  0  0  0  0  0  0  0  0  0
  147.1961  141.9049  154.2310 C   0  0  0  0  0  0  0  0  0  0  0  0
  148.4127  141.6402  154.8937 C   0  0  0  0  0  0  0  0  0  0  0  0
  149.0632  140.4508  154.5652 C   0  0  0  0  0  0  0  0  0  0  0  0
  150.2591  139.8679  155.0024 N   0  0  0  0  0  0  0  0  0  0  0  0
  151.0758  140.5583  156.0128 C   0  0  0  0  0  0  0  0  0  0  0  0
  150.4329  140.5238  157.4069 C   0  0  0  0  0  0  0  0  0  0  0  0
  151.4242  140.7676  158.3962 O   0  0  0  0  0  0  0  0  0  0  0  0
  151.6506  142.0685  158.7898 C   0  0  0  0  0  0  0  0  0  0  0  0
  152.4550  142.2601  159.9324 C   0  0  0  0  0  0  0  0  0  0  0  0
  152.7385  143.5560  160.4051 C   0  0  0  0  0  0  0  0  0  0  0  0
  152.2180  144.6787  159.7354 C   0  0  0  0  0  0  0  0  0  0  0  0
  151.4147  144.5020  158.5937 C   0  0  0  0  0  0  0  0  0  0  0  0
  151.1304  143.2058  158.1214 C   0  0  0  0  0  0  0  0  0  0  0  0
  152.6734  138.8641  156.4188 H   0  0  0  0  0  0  0  0  0  0  0  0
  152.8538  139.4876  154.0742 H   0  0  0  0  0  0  0  0  0  0  0  0
  153.7177  137.9586  153.9755 H   0  0  0  0  0  0  0  0  0  0  0  0
  151.6122  137.0038  153.7517 H   0  0  0  0  0  0  0  0  0  0  0  0
  151.5005  137.2171  155.4840 H   0  0  0  0  0  0  0  0  0  0  0  0
  146.9203  139.1207  152.2275 H   0  0  0  0  0  0  0  0  0  0  0  0
  145.7298  141.2442  152.7954 H   0  0  0  0  0  0  0  0  0  0  0  0
  146.6605  142.8162  154.4545 H   0  0  0  0  0  0  0  0  0  0  0  0
  148.8127  142.3383  155.6140 H   0  0  0  0  0  0  0  0  0  0  0  0
  152.0731  140.1187  156.0305 H   0  0  0  0  0  0  0  0  0  0  0  0
  151.2040  141.5912  155.6887 H   0  0  0  0  0  0  0  0  0  0  0  0
  149.6501  141.2815  157.4627 H   0  0  0  0  0  0  0  0  0  0  0  0
  149.9711  139.5486  157.5705 H   0  0  0  0  0  0  0  0  0  0  0  0
  152.8590  141.4039  160.4524 H   0  0  0  0  0  0  0  0  0  0  0  0
  153.3560  143.6884  161.2813 H   0  0  0  0  0  0  0  0  0  0  0  0
  152.4348  145.6734  160.0962 H   0  0  0  0  0  0  0  0  0  0  0  0
  151.0152  145.3626  158.0777 H   0  0  0  0  0  0  0  0  0  0  0  0
  150.5114  143.1114  157.2424 H   0  0  0  0  0  0  0  0  0  0  0  0
  149.3172  137.6765  152.9193 H   0  0  0  0  0  0  0  0  0  0  0  0
  1  2  1  0  0  0  0
  1 22  1  0  0  0  0
  2  3  1  0  0  0  0
  2 23  1  0  0  0  0
  2 24  1  0  0  0  0
  3  4  1  0  0  0  0
  3 25  1  0  0  0  0
  3 26  1  0  0  0  0
  4 12  1  0  0  0  0
  4  5  2  0  0  0  0
  5  6  1  0  0  0  0
  5 40  1  0  0  0  0
  6 11  2  0  0  0  0
  6  7  1  0  0  0  0
  7  8  2  0  0  0  0
  7 27  1  0  0  0  0
  8  9  1  0  0  0  0
  8 28  1  0  0  0  0
  9 10  2  0  0  0  0
  9 29  1  0  0  0  0
 10 11  1  0  0  0  0
 10 30  1  0  0  0  0
 11 12  1  0  0  0  0
 12 13  1  0  0  0  0
 13 14  1  0  0  0  0
 13 31  1  0  0  0  0
 13 32  1  0  0  0  0
 14 15  1  0  0  0  0
 14 33  1  0  0  0  0
 14 34  1  0  0  0  0
 15 16  1  0  0  0  0
 16 21  1  0  0  0  0
 16 17  2  0  0  0  0
 17 18  1  0  0  0  0
 17 35  1  0  0  0  0
 18 19  2  0  0  0  0
 18 36  1  0  0  0  0
 19 20  1  0  0  0  0
 19 37  1  0  0  0  0
 20 21  2  0  0  0  0
 20 38  1  0  0  0  0
 21 39  1  0  0  0  0
M  CHG  1   5   1
M  END
> <s_m_source_file>
AV-unprocessed.smi

> <i_m_source_file_index>
1353

> <i_lp_mmshare_version>
43012

> <i_f3d_flags>
0

> <s_epik_input>
W2NIXTFbY0hdW2NIXVtjSF1jKGMxMiluKGMobjIpW0NIMl1bQ0gyXVtPSF0pW0NIMl1bQ0gyXU9jM1tjSF1bY0hdW2NIXVtjSF1bY0hdMw==

> <s_epik_cmdline>
J2VwaWtfcHl0aG9uJywgJy1waCcsICc3LjAnLCAnLXRuJywgJzgnLCAnLW1hJywgJzIwMCcsICctbWV0YWxfYmluZGluZycsICctaW1hZScsICc8aW5maWxlLm1hZT4nLCAnLW9tYWUnLCAnPG91dGZpbGUubWFlPic=

> <r_lp_tautomer_probability>
1

> <r_epik_Ionization_Penalty>
0.670741

> <r_epik_Ionization_Penalty_Charging>
0.67074

> <r_epik_Ionization_Penalty_Neutral>
5.89567e-08

> <r_epik_State_Penalty>
0.690909

> <r_epik_Charging_Adjusted_Penalty>
1.36165

> <i_epik_Tot_Q>
1

> <i_epik_Tot_abs_Q>
1

> <r_epik_Metal_State_Penalty>
4.56272

> <b_epik_Metal_Only>
0

> <s_lp_Force_Field>
OPLS_2005

> <r_lp_Energy>
21.0146

> <b_lp_Chiralities_Consistent>
1

> <s_lp_Variant>
AV-unprocessed.smi:1353-2

> <Gold.Version>
5.8.1

> <Gold.Id.Protein>
6NUR|6NUR_protein|mol2

> <Gold.PLP.Fitness>
58.7351

> <Gold.PLP.PLP>
-51.6866

> <Gold.PLP.part.hbond>
-3.0000

> <Gold.PLP.part.metal>
0.0000

> <Gold.PLP.part.buried>
0.4876

> <Gold.PLP.part.nonpolar>
-49.4126

> <Gold.PLP.part.repulsive>
0.0742

> <Gold.PLP.ligand.clash>
0.0000

> <Gold.PLP.ligand.torsion>
0.9839

> <Gold.PLP.Chemscore.Hbond>
2.9600

> <Gold.PLP.Chemscore.CHOScore>
0.0000

> <Gold.PLP.Chemscore.Metal>
0.0000

> <Gold.Chemscore.Hbonds>
donor molecule, donor type, donor heavy atom, donor atom, acceptor molecule, acceptor atom, score
      L1  H     5    40       P1  7948  2.00
      P1  H  7997  8009       L1     1  0.87

> <Gold.PLP.Chemscore.Internal.Correction>
0.1363

> <Gold.Rescore>
     Score         DG    S(hbond)    S(metal)    S(lipo)     H(rot)  DE(clash)    DE(int)     intcor
     17.69     -22.03       1.94        0.00     138.53       2.39       1.72       2.61       ----

> <Gold.Chemscore.Fitness>
17.6948

> <Gold.Chemscore.DG>
-22.0304

> <Gold.Chemscore.ZeroCoef>
-5.4800

> <Gold.Chemscore.Hbond>
1.9380

> <Gold.Chemscore.Metal>
0.0000

> <Gold.Chemscore.Lipo>
138.5334

> <Gold.Chemscore.Internal_Hbond>
0.0000

> <Gold.Chemscore.DEClash>
1.7247

> <Gold.Chemscore.DEInternal>
2.6109

> <Gold.Chemscore.Rot>
2.3948

> <Gold.Chemscore.Internal.Correction>
   9.000000E+99

> <Gold.Chemscore.Hbonds>
donor molecule, donor type, donor heavy atom, donor atom, acceptor molecule, acceptor atom, score
      L1  H     5    40       P1  7948  0.94
      P1  H  7997  8009       L1     1  0.18

> <Gold.Chemscore.Hbond.Weighted>
-6.4728

> <Gold.Chemscore.Metal.Weighted>
-0.0000

> <Gold.Chemscore.Lipo.Weighted>
-16.2084

> <Gold.Chemscore.Internal_Hbond.Weighted>
0.0000

> <Gold.Chemscore.DEClash.Weighted>
1.7247

> <Gold.Chemscore.DEInternal.Weighted>
2.6109

> <Gold.Chemscore.Rot.Weighted>
6.1308

> <Gold.Chemscore.Internal.Correction.Weighted>
   9.000000E+99

> <Gold.Protein.RotatedTorsions>
[ 6907 6896 6895 6894 ] final  -15.21 input  -60.11 | X-H torsion
[ 7974 7965 7964 7962 ] final  -15.09 input  175.53 | X-H torsion
[ 8008 7997 7996 7995 ] final -153.85 input   59.86 | X-H torsion
[ 10167 10162 10161 10158 ] final   42.70 input  -65.29 | X-H torsion
[ 10718 10713 10712 10709 ] final -121.50 input   66.30 | X-H torsion
[ 10763 10752 10751 10750 ] final  -64.64 input  -60.55 | X-H torsion
[ 11005 11000 10999 10996 ] final  -53.98 input  -57.11 | X-H torsion

> <Gold.Protein.ActiveResidues>
 VAL166  LYS551  ARG553  GLY616  TRP617  ASP618  TYR619  PRO620  LYS621  CYS622 
 ASP623  PHE694  ASN695  SER759  ASP760  ASP761  ALA762  ILE779  LEU786  VAL792 
 PHE793  MET794  SER795  GLU796  ALA797  LYS798  CYS799  TRP800  GLU811  SER814 

> <Gold.Protein.RotatedAtoms>
  151.3274  135.0833  159.9326 H   0  0  0  0  0  0  0  0  0  0  0  0  # atno 6907 bound_to 6896
  152.5242  133.9577  159.7712 H   0  0  0  0  0  0  0  0  0  0  0  0  # atno 6908 bound_to 6896
  150.9909  133.6097  159.2738 H   0  0  0  0  0  0  0  0  0  0  0  0  # atno 6909 bound_to 6896
  146.2047  140.3443  142.8411 H   0  0  0  0  0  0  0  0  0  0  0  0  # atno 7974 bound_to 7965
  155.6773  140.0740  157.2498 H   0  0  0  0  0  0  0  0  0  0  0  0  # atno 8008 bound_to 7997
  154.4112  140.1688  156.1995 H   0  0  0  0  0  0  0  0  0  0  0  0  # atno 8009 bound_to 7997
  155.9565  140.3373  155.6456 H   0  0  0  0  0  0  0  0  0  0  0  0  # atno 8010 bound_to 7997
  140.3517  144.2341  150.6145 H   0  0  0  0  0  0  0  0  0  0  0  0  # atno 10167 bound_to 10162
  156.1342  130.6418  150.9670 H   0  0  0  0  0  0  0  0  0  0  0  0  # atno 10718 bound_to 10713
  154.3331  135.6172  153.5560 H   0  0  0  0  0  0  0  0  0  0  0  0  # atno 10763 bound_to 10752
  152.9810  135.5751  154.4939 H   0  0  0  0  0  0  0  0  0  0  0  0  # atno 10764 bound_to 10752
  154.4629  135.2856  155.1676 H   0  0  0  0  0  0  0  0  0  0  0  0  # atno 10765 bound_to 10752
  141.1003  133.6619  156.4252 H   0  0  0  0  0  0  0  0  0  0  0  0  # atno 11005 bound_to 11000
  144.8763  140.7341  143.6015 LP  0  0  0  0  0  0  0  0  0  0  0  0  # atno 17320 bound_to 7965
  145.3363  139.1745  143.4510 LP  0  0  0  0  0  0  0  0  0  0  0  0  # atno 17321 bound_to 7965
  140.5212  143.2265  151.8385 LP  0  0  0  0  0  0  0  0  0  0  0  0  # atno 17342 bound_to 10162
  139.4825  144.4834  151.9277 LP  0  0  0  0  0  0  0  0  0  0  0  0  # atno 17343 bound_to 10162
  157.6517  131.0896  150.8037 LP  0  0  0  0  0  0  0  0  0  0  0  0  # atno 17370 bound_to 10713
  156.8118  130.4955  149.5355 LP  0  0  0  0  0  0  0  0  0  0  0  0  # atno 17371 bound_to 10713
  140.5039  134.6459  157.5259 LP  0  0  0  0  0  0  0  0  0  0  0  0  # atno 17394 bound_to 11000
  139.9852  134.7073  155.9787 LP  0  0  0  0  0  0  0  0  0  0  0  0  # atno 17395 bound_to 11000

$$$$
