AV-unprocessed.smi:2986|AV-procd|sdf|11384|dock6
  -GOLD-   2272016303D 1   1.00000     0.00000
 Structure written by MMmdl.
 42 44  0  0  0  0  0  0  0  0  3 V2000
  155.5140  139.4592  159.7818 C   0  0  0  0  0  0  0  0  0  0  0  0
  154.8917  139.0437  158.5790 O   0  0  0  0  0  0  0  0  0  0  0  0
  153.6549  138.3865  158.8050 C   0  0  0  0  0  0  0  0  0  0  0  0
  152.7681  139.2405  159.7223 C   0  0  0  0  0  0  0  0  0  0  0  0
  151.9104  140.1641  158.9654 N   0  0  0  0  0  0  0  0  0  0  0  0
  150.9263  139.9055  158.0597 C   0  0  0  0  0  0  0  0  0  0  0  0
  150.3926  138.3126  157.5248 S   0  0  0  0  0  0  0  0  0  0  0  0
  148.8041  138.0347  158.3549 C   0  0  0  0  0  0  0  0  0  0  0  0
  148.8690  136.8890  159.3654 C   0  0  0  0  0  0  0  0  0  0  0  0
  149.5684  135.9073  159.1111 O   0  0  0  0  0  0  0  0  0  0  0  0
  148.1052  137.1317  160.4582 N   0  5  0  0  0  0  0  0  0  0  0  0
  147.6617  136.1066  161.2009 C   0  0  0  0  0  0  0  0  0  0  0  0
  147.2175  134.8487  160.7090 C   0  0  0  0  0  0  0  0  0  0  0  0
  146.8683  134.1753  161.8451 C   0  0  0  0  0  0  0  0  0  0  0  0
  146.3323  132.8063  162.0883 C   0  0  0  0  0  0  0  0  0  0  0  0
  147.0711  134.9576  162.9390 O   0  0  0  0  0  0  0  0  0  0  0  0
  147.5729  136.1948  162.5176 N   0  0  0  0  0  0  0  0  0  0  0  0
  150.4310  141.1004  157.6346 N   0  3  0  0  0  0  0  0  0  0  0  0
  151.1114  142.1398  158.2704 C   0  0  0  0  0  0  0  0  0  0  0  0
  150.9696  143.5199  158.1631 C   0  0  0  0  0  0  0  0  0  0  0  0
  151.8339  144.3081  158.9512 C   0  0  0  0  0  0  0  0  0  0  0  0
  152.7911  143.7203  159.8033 C   0  0  0  0  0  0  0  0  0  0  0  0
  152.9240  142.3200  159.9061 C   0  0  0  0  0  0  0  0  0  0  0  0
  152.0653  141.5467  159.1247 C   0  0  0  0  0  0  0  0  0  0  0  0
  156.4550  139.9593  159.5530 H   0  0  0  0  0  0  0  0  0  0  0  0
  155.7337  138.6071  160.4264 H   0  0  0  0  0  0  0  0  0  0  0  0
  154.8842  140.1608  160.3304 H   0  0  0  0  0  0  0  0  0  0  0  0
  153.1457  138.2126  157.8556 H   0  0  0  0  0  0  0  0  0  0  0  0
  153.8295  137.4124  159.2641 H   0  0  0  0  0  0  0  0  0  0  0  0
  152.1184  138.5970  160.3161 H   0  0  0  0  0  0  0  0  0  0  0  0
  153.3691  139.8068  160.4335 H   0  0  0  0  0  0  0  0  0  0  0  0
  148.4810  138.9658  158.8246 H   0  0  0  0  0  0  0  0  0  0  0  0
  148.0557  137.7896  157.6010 H   0  0  0  0  0  0  0  0  0  0  0  0
  147.1688  134.4971  159.6894 H   0  0  0  0  0  0  0  0  0  0  0  0
  145.9332  132.3764  161.1692 H   0  0  0  0  0  0  0  0  0  0  0  0
  145.5303  132.8289  162.8263 H   0  0  0  0  0  0  0  0  0  0  0  0
  147.1164  132.1460  162.4588 H   0  0  0  0  0  0  0  0  0  0  0  0
  150.2385  143.9721  157.5090 H   0  0  0  0  0  0  0  0  0  0  0  0
  151.7628  145.3850  158.8998 H   0  0  0  0  0  0  0  0  0  0  0  0
  153.4387  144.3560  160.3899 H   0  0  0  0  0  0  0  0  0  0  0  0
  153.6653  141.8813  160.5578 H   0  0  0  0  0  0  0  0  0  0  0  0
  149.6845  141.1926  156.9578 H   0  0  0  0  0  0  0  0  0  0  0  0
  1  2  1  0  0  0  0
  1 25  1  0  0  0  0
  1 26  1  0  0  0  0
  1 27  1  0  0  0  0
  2  3  1  0  0  0  0
  3  4  1  0  0  0  0
  3 28  1  0  0  0  0
  3 29  1  0  0  0  0
  4  5  1  0  0  0  0
  4 30  1  0  0  0  0
  4 31  1  0  0  0  0
  5 24  1  0  0  0  0
  5  6  1  0  0  0  0
  6  7  1  0  0  0  0
  6 18  2  0  0  0  0
  7  8  1  0  0  0  0
  8  9  1  0  0  0  0
  8 32  1  0  0  0  0
  8 33  1  0  0  0  0
  9 10  2  0  0  0  0
  9 11  1  0  0  0  0
 11 12  1  0  0  0  0
 12 17  2  0  0  0  0
 12 13  1  0  0  0  0
 13 14  2  0  0  0  0
 13 34  1  0  0  0  0
 14 15  1  0  0  0  0
 14 16  1  0  0  0  0
 15 35  1  0  0  0  0
 15 36  1  0  0  0  0
 15 37  1  0  0  0  0
 16 17  1  0  0  0  0
 18 19  1  0  0  0  0
 18 42  1  0  0  0  0
 19 24  2  0  0  0  0
 19 20  1  0  0  0  0
 20 21  2  0  0  0  0
 20 38  1  0  0  0  0
 21 22  1  0  0  0  0
 21 39  1  0  0  0  0
 22 23  2  0  0  0  0
 22 40  1  0  0  0  0
 23 24  1  0  0  0  0
 23 41  1  0  0  0  0
M  CHG  1  11  -1
M  CHG  1  18   1
M  END
> <s_m_source_file>
AV-unprocessed.smi

> <i_m_source_file_index>
2986

> <i_lp_mmshare_version>
43012

> <i_f3d_flags>
0

> <s_epik_input>
W2NIXTFbY0hdW2NIXVtjSF1jKGMxMiluKFtDSDJdW0NIMl1PW0NIM10pYyhuMilTW0NIMl1DKD1PKVtOSF1jM1tjSF1jKFtDSDNdKW9uMw==

> <s_epik_cmdline>
J2VwaWtfcHl0aG9uJywgJy1waCcsICc3LjAnLCAnLXRuJywgJzgnLCAnLW1hJywgJzIwMCcsICctbWV0YWxfYmluZGluZycsICctaW1hZScsICc8aW5maWxlLm1hZT4nLCAnLW9tYWUnLCAnPG91dGZpbGUubWFlPic=

> <r_epik_Ionization_Penalty>
5.85337

> <r_epik_Ionization_Penalty_Charging>
5.85335

> <r_epik_Ionization_Penalty_Neutral>
1.96301e-05

> <r_epik_State_Penalty>
6.06575

> <r_epik_Charging_Adjusted_Penalty>
11.9191

> <i_epik_Tot_Q>
0

> <i_epik_Tot_abs_Q>
2

> <r_epik_Metal_State_Penalty>
2.64129

> <b_epik_Metal_Only>
1

> <s_lp_Force_Field>
OPLS_2005

> <r_lp_Energy>
5.16942

> <b_lp_Chiralities_Consistent>
1

> <s_lp_Variant>
AV-unprocessed.smi:2986-4

> <Gold.Version>
5.8.1

> <Gold.Id.Protein>
6NUR|6NUR_protein|mol2

> <Gold.PLP.Fitness>
56.6993

> <Gold.PLP.PLP>
-44.6378

> <Gold.PLP.part.hbond>
-4.0000

> <Gold.PLP.part.metal>
0.0000

> <Gold.PLP.part.buried>
-7.6491

> <Gold.PLP.part.nonpolar>
-34.3640

> <Gold.PLP.part.repulsive>
0.0684

> <Gold.PLP.ligand.clash>
0.0000

> <Gold.PLP.ligand.torsion>
1.5125

> <Gold.PLP.Chemscore.Hbond>
4.9317

> <Gold.PLP.Chemscore.CHOScore>
0.0000

> <Gold.PLP.Chemscore.Metal>
0.0000

> <Gold.Chemscore.Hbonds>
donor molecule, donor type, donor heavy atom, donor atom, acceptor molecule, acceptor atom, score
      P1  H  6896  6908       L1    10  1.00
      P1  H  6931  6943       L1    11  1.47
      P1  H  6934  6947       L1    11  1.01
      P1  H  7997  8008       L1     2  1.00

> <Gold.PLP.Chemscore.Internal.Correction>
0.2915

> <Gold.Rescore>
     Score         DG    S(hbond)    S(metal)    S(lipo)     H(rot)  DE(clash)    DE(int)     intcor
     18.54     -21.24       2.71        0.00     107.07       2.27       0.03       2.67       ----

> <Gold.Chemscore.Fitness>
18.5385

> <Gold.Chemscore.DG>
-21.2377

> <Gold.Chemscore.ZeroCoef>
-5.4800

> <Gold.Chemscore.Hbond>
2.7100

> <Gold.Chemscore.Metal>
0.0000

> <Gold.Chemscore.Lipo>
107.0699

> <Gold.Chemscore.Internal_Hbond>
0.0000

> <Gold.Chemscore.DEClash>
0.0308

> <Gold.Chemscore.DEInternal>
2.6684

> <Gold.Chemscore.Rot>
2.2738

> <Gold.Chemscore.Internal.Correction>
   9.000000E+99

> <Gold.Chemscore.Hbonds>
donor molecule, donor type, donor heavy atom, donor atom, acceptor molecule, acceptor atom, score
      P1  H  6896  6908       L1    10  1.00
      P1  H  6931  6943       L1    11  0.18
      P1  H  6934  6947       L1    11  0.46
      P1  H  7997  8008       L1     2  0.84

> <Gold.Chemscore.Hbond.Weighted>
-9.0514

> <Gold.Chemscore.Metal.Weighted>
-0.0000

> <Gold.Chemscore.Lipo.Weighted>
-12.5272

> <Gold.Chemscore.Internal_Hbond.Weighted>
0.0000

> <Gold.Chemscore.DEClash.Weighted>
0.0308

> <Gold.Chemscore.DEInternal.Weighted>
2.6684

> <Gold.Chemscore.Rot.Weighted>
5.8209

> <Gold.Chemscore.Internal.Correction.Weighted>
   9.000000E+99

> <Gold.Protein.RotatedTorsions>
[ 6907 6896 6895 6894 ] final -175.56 input  -60.11 | X-H torsion
[ 7974 7965 7964 7962 ] final  116.66 input  175.53 | X-H torsion
[ 8008 7997 7996 7995 ] final -126.12 input   59.86 | X-H torsion
[ 10167 10162 10161 10158 ] final  -27.41 input  -65.29 | X-H torsion
[ 10718 10713 10712 10709 ] final -128.73 input   66.30 | X-H torsion
[ 10763 10752 10751 10750 ] final -161.32 input  -60.55 | X-H torsion
[ 11005 11000 10999 10996 ] final  -80.60 input  -57.11 | X-H torsion

> <Gold.Protein.ActiveResidues>
 VAL166  LYS551  ARG553  GLY616  TRP617  ASP618  TYR619  PRO620  LYS621  CYS622 
 ASP623  PHE694  ASN695  SER759  ASP760  ASP761  ALA762  ILE779  LEU786  VAL792 
 PHE793  MET794  SER795  GLU796  ALA797  LYS798  CYS799  TRP800  GLU811  SER814 

> <Gold.Protein.RotatedAtoms>
  151.5905  133.3367  159.3026 H   0  0  0  0  0  0  0  0  0  0  0  0  # atno 6907 bound_to 6896
  150.8263  134.7498  159.6827 H   0  0  0  0  0  0  0  0  0  0  0  0  # atno 6908 bound_to 6896
  152.4352  134.5707  159.9972 H   0  0  0  0  0  0  0  0  0  0  0  0  # atno 6909 bound_to 6896
  145.1769  139.3071  143.4438 H   0  0  0  0  0  0  0  0  0  0  0  0  # atno 7974 bound_to 7965
  155.2245  140.0423  157.2953 H   0  0  0  0  0  0  0  0  0  0  0  0  # atno 8008 bound_to 7997
  154.5928  140.2431  155.7868 H   0  0  0  0  0  0  0  0  0  0  0  0  # atno 8009 bound_to 7997
  156.2270  140.2951  156.0101 H   0  0  0  0  0  0  0  0  0  0  0  0  # atno 8010 bound_to 7997
  140.7277  143.4096  151.1128 H   0  0  0  0  0  0  0  0  0  0  0  0  # atno 10167 bound_to 10162
  156.1978  130.6838  151.0503 H   0  0  0  0  0  0  0  0  0  0  0  0  # atno 10718 bound_to 10713
  154.7313  135.3047  154.8886 H   0  0  0  0  0  0  0  0  0  0  0  0  # atno 10763 bound_to 10752
  153.9728  135.6739  153.4751 H   0  0  0  0  0  0  0  0  0  0  0  0  # atno 10764 bound_to 10752
  153.0921  135.4954  154.8631 H   0  0  0  0  0  0  0  0  0  0  0  0  # atno 10765 bound_to 10752
  141.1668  133.7158  156.8298 H   0  0  0  0  0  0  0  0  0  0  0  0  # atno 11005 bound_to 11000
  146.3459  140.1935  142.8589 LP  0  0  0  0  0  0  0  0  0  0  0  0  # atno 17320 bound_to 7965
  145.0175  140.8766  143.5186 LP  0  0  0  0  0  0  0  0  0  0  0  0  # atno 17321 bound_to 7965
  139.7727  143.8470  152.3123 LP  0  0  0  0  0  0  0  0  0  0  0  0  # atno 17342 bound_to 10162
  139.8394  144.7217  150.9350 LP  0  0  0  0  0  0  0  0  0  0  0  0  # atno 17343 bound_to 10162
  157.6968  131.0791  150.6944 LP  0  0  0  0  0  0  0  0  0  0  0  0  # atno 17370 bound_to 10713
  156.7001  130.4621  149.5575 LP  0  0  0  0  0  0  0  0  0  0  0  0  # atno 17371 bound_to 10713
  140.2059  134.8863  157.3221 LP  0  0  0  0  0  0  0  0  0  0  0  0  # atno 17394 bound_to 11000
  140.2137  134.4107  155.7600 LP  0  0  0  0  0  0  0  0  0  0  0  0  # atno 17395 bound_to 11000

$$$$
