AV-unprocessed.smi:2727|AV-procd|sdf|10523|dock4
  -GOLD-   2272014563D 1   1.00000     0.00000
 Structure written by MMmdl.
 40 41  0  0  0  0  0  0  0  0  1 V2000
  148.8944  137.2188  156.0779 O   0  0  0  0  0  0  0  0  0  0  0  0
  148.9233  138.0054  157.0303 C   0  0  0  0  0  0  0  0  0  0  0  0
  148.8253  137.5742  158.2971 N   0  0  0  0  0  0  0  0  0  0  0  0
  148.6867  136.1800  158.7055 C   0  0  0  0  0  0  0  0  0  0  0  0
  148.4629  136.0545  160.2263 C   0  0  0  0  0  0  0  0  0  0  0  0
  147.2194  136.8076  160.7322 C   0  0  0  0  0  0  0  0  0  0  0  0
  146.6778  137.6327  159.9940 O   0  0  0  0  0  0  0  0  0  0  0  0
  146.7574  136.5517  161.9810 N   0  0  0  0  0  0  0  0  0  0  0  0
  147.3688  135.5190  162.8267 C   0  0  0  0  0  0  0  0  0  0  0  0
  146.8427  134.1088  162.4898 C   0  0  0  0  0  0  0  0  0  0  0  0
  145.3573  134.0255  162.0740 C   0  0  0  0  0  0  0  0  0  0  0  0
  144.3942  134.9108  162.8894 C   0  0  0  0  0  0  0  0  0  0  0  0
  144.3079  136.3657  162.3809 C   0  0  0  0  0  0  0  0  0  0  0  0
  145.5877  137.1959  162.5956 C   0  0  0  0  0  0  0  0  0  0  0  0
  149.0581  139.3867  157.0057 N   0  0  0  0  0  0  0  0  0  0  0  0
  148.7825  140.0483  155.9232 C   0  0  0  0  0  0  0  0  0  0  0  0
  148.3428  139.6619  154.6595 N   0  0  0  0  0  0  0  0  0  0  0  0
  148.2182  140.7840  153.8892 C   0  0  0  0  0  0  0  0  0  0  0  0
  148.5626  141.8323  154.6308 C   0  0  0  0  0  0  0  0  0  0  0  0
  148.9118  141.4137  155.8798 O   0  0  0  0  0  0  0  0  0  0  0  0
  148.8570  138.2641  159.0337 H   0  0  0  0  0  0  0  0  0  0  0  0
  147.8699  135.7148  158.1501 H   0  0  0  0  0  0  0  0  0  0  0  0
  149.5975  135.6541  158.4172 H   0  0  0  0  0  0  0  0  0  0  0  0
  148.3722  135.0014  160.4948 H   0  0  0  0  0  0  0  0  0  0  0  0
  149.3393  136.4426  160.7448 H   0  0  0  0  0  0  0  0  0  0  0  0
  148.4570  135.5422  162.7472 H   0  0  0  0  0  0  0  0  0  0  0  0
  147.1672  135.7237  163.8785 H   0  0  0  0  0  0  0  0  0  0  0  0
  147.4446  133.6841  161.6856 H   0  0  0  0  0  0  0  0  0  0  0  0
  147.0122  133.4649  163.3535 H   0  0  0  0  0  0  0  0  0  0  0  0
  145.2581  134.2683  161.0151 H   0  0  0  0  0  0  0  0  0  0  0  0
  145.0428  132.9850  162.1605 H   0  0  0  0  0  0  0  0  0  0  0  0
  143.3960  134.4777  162.8178 H   0  0  0  0  0  0  0  0  0  0  0  0
  144.6536  134.8853  163.9484 H   0  0  0  0  0  0  0  0  0  0  0  0
  144.0386  136.3631  161.3245 H   0  0  0  0  0  0  0  0  0  0  0  0
  143.4850  136.8663  162.8920 H   0  0  0  0  0  0  0  0  0  0  0  0
  145.7519  137.3357  163.6647 H   0  0  0  0  0  0  0  0  0  0  0  0
  145.4396  138.2069  162.2164 H   0  0  0  0  0  0  0  0  0  0  0  0
  148.1405  138.7302  154.3261 H   0  0  0  0  0  0  0  0  0  0  0  0
  147.8876  140.7095  152.8637 H   0  0  0  0  0  0  0  0  0  0  0  0
  148.6103  142.8916  154.4259 H   0  0  0  0  0  0  0  0  0  0  0  0
  1  2  2  0  0  0  0
  2 15  1  0  0  0  0
  2  3  1  0  0  0  0
  3  4  1  0  0  0  0
  3 21  1  0  0  0  0
  4  5  1  0  0  0  0
  4 22  1  0  0  0  0
  4 23  1  0  0  0  0
  5  6  1  0  0  0  0
  5 24  1  0  0  0  0
  5 25  1  0  0  0  0
  6  7  2  0  0  0  0
  6  8  1  0  0  0  0
  8 14  1  0  0  0  0
  8  9  1  0  0  0  0
  9 10  1  0  0  0  0
  9 26  1  0  0  0  0
  9 27  1  0  0  0  0
 10 11  1  0  0  0  0
 10 28  1  0  0  0  0
 10 29  1  0  0  0  0
 11 12  1  0  0  0  0
 11 30  1  0  0  0  0
 11 31  1  0  0  0  0
 12 13  1  0  0  0  0
 12 32  1  0  0  0  0
 12 33  1  0  0  0  0
 13 14  1  0  0  0  0
 13 34  1  0  0  0  0
 13 35  1  0  0  0  0
 14 36  1  0  0  0  0
 14 37  1  0  0  0  0
 15 16  2  0  0  0  0
 16 20  1  0  0  0  0
 16 17  1  0  0  0  0
 17 38  1  0  0  0  0
 17 18  1  0  0  0  0
 18 39  1  0  0  0  0
 18 19  2  0  0  0  0
 19 40  1  0  0  0  0
 19 20  1  0  0  0  0
M  END
> <s_m_source_file>
AV-unprocessed.smi

> <i_m_source_file_index>
2727

> <i_lp_mmshare_version>
43012

> <i_f3d_flags>
0

> <s_epik_input>
bzFbY0hdW2NIXW5jMVtOSF1DKD1PKVtOSF1bQ0gyXVtDSDJdQyg9TylOMltDSDJdW0NIMl1bQ0gyXVtDSDJdW0NIMl1bQ0gyXTI=

> <s_epik_cmdline>
J2VwaWtfcHl0aG9uJywgJy1waCcsICc3LjAnLCAnLXRuJywgJzgnLCAnLW1hJywgJzIwMCcsICctbWV0YWxfYmluZGluZycsICctaW1hZScsICc8aW5maWxlLm1hZT4nLCAnLW9tYWUnLCAnPG91dGZpbGUubWFlPic=

> <r_lp_tautomer_probability>
0.107061

> <r_epik_Ionization_Penalty>
0.376272

> <r_epik_Ionization_Penalty_Charging>
0.375918

> <r_epik_Ionization_Penalty_Neutral>
0.000353756

> <r_epik_State_Penalty>
2.48665

> <r_epik_Charging_Adjusted_Penalty>
2.86256

> <i_epik_Tot_Q>
0

> <i_epik_Tot_abs_Q>
0

> <r_epik_Metal_State_Penalty>
4.1171

> <b_epik_Metal_Only>
0

> <s_lp_Force_Field>
OPLS_2005

> <r_lp_Energy>
47.9019

> <b_lp_Chiralities_Consistent>
1

> <s_lp_Variant>
AV-unprocessed.smi:2727-3

> <Gold.Version>
5.8.1

> <Gold.Id.Protein>
6NUR|6NUR_protein|mol2

> <Gold.PLP.Fitness>
40.7351

> <Gold.PLP.PLP>
-32.2737

> <Gold.PLP.part.hbond>
-1.0000

> <Gold.PLP.part.metal>
0.0000

> <Gold.PLP.part.buried>
-1.8162

> <Gold.PLP.part.nonpolar>
-29.3073

> <Gold.PLP.part.repulsive>
0.2902

> <Gold.PLP.ligand.clash>
0.0000

> <Gold.PLP.ligand.torsion>
0.2758

> <Gold.PLP.Chemscore.Hbond>
1.0000

> <Gold.PLP.Chemscore.CHOScore>
2.0000

> <Gold.PLP.Chemscore.Metal>
0.0000

> <Gold.Chemscore.Hbonds>
donor molecule, donor type, donor heavy atom, donor atom, acceptor molecule, acceptor atom, score
      P1  H  6934  6947       L1     7  0.80
      L1  C    18    39       P1  7957  0.76
      L1  C    19    40       P1  8028  1.00

> <Gold.PLP.Chemscore.Internal.Correction>
0.0131

> <Gold.Rescore>
     Score         DG    S(hbond)    S(metal)    S(lipo)     H(rot)  DE(clash)    DE(int)     intcor
     10.73     -12.53       0.93        0.00      70.97       1.70       0.00       1.80       ----

> <Gold.Chemscore.Fitness>
10.7339

> <Gold.Chemscore.DG>
-12.5345

> <Gold.Chemscore.ZeroCoef>
-5.4800

> <Gold.Chemscore.Hbond>
0.9311

> <Gold.Chemscore.Metal>
0.0000

> <Gold.Chemscore.Lipo>
70.9654

> <Gold.Chemscore.Internal_Hbond>
0.0000

> <Gold.Chemscore.DEClash>
0.0004

> <Gold.Chemscore.DEInternal>
1.8002

> <Gold.Chemscore.Rot>
1.7025

> <Gold.Chemscore.Internal.Correction>
   9.000000E+99

> <Gold.Chemscore.Hbonds>
donor molecule, donor type, donor heavy atom, donor atom, acceptor molecule, acceptor atom, score
      P1  H  6934  6947       L1     7  0.12

> <Gold.Chemscore.Hbond.Weighted>
-3.1099

> <Gold.Chemscore.Metal.Weighted>
-0.0000

> <Gold.Chemscore.Lipo.Weighted>
-8.3030

> <Gold.Chemscore.Internal_Hbond.Weighted>
0.0000

> <Gold.Chemscore.DEClash.Weighted>
0.0004

> <Gold.Chemscore.DEInternal.Weighted>
1.8002

> <Gold.Chemscore.Rot.Weighted>
4.3584

> <Gold.Chemscore.Internal.Correction.Weighted>
   9.000000E+99

> <Gold.Protein.RotatedTorsions>
[ 6907 6896 6895 6894 ] final  -56.94 input  -60.11 | X-H torsion
[ 7974 7965 7964 7962 ] final -176.11 input  175.53 | X-H torsion
[ 8008 7997 7996 7995 ] final   60.50 input   59.86 | X-H torsion
[ 10167 10162 10161 10158 ] final   31.30 input  -65.29 | X-H torsion
[ 10718 10713 10712 10709 ] final -173.58 input   66.30 | X-H torsion
[ 10763 10752 10751 10750 ] final -144.16 input  -60.55 | X-H torsion
[ 11005 11000 10999 10996 ] final   27.48 input  -57.11 | X-H torsion

> <Gold.Protein.ActiveResidues>
 VAL166  LYS551  ARG553  GLY616  TRP617  ASP618  TYR619  PRO620  LYS621  CYS622 
 ASP623  PHE694  ASN695  SER759  ASP760  ASP761  ALA762  ILE779  LEU786  VAL792 
 PHE793  MET794  SER795  GLU796  ALA797  LYS798  CYS799  TRP800  GLU811  SER814 

> <Gold.Protein.RotatedAtoms>
  150.8126  134.7290  159.6701 H   0  0  0  0  0  0  0  0  0  0  0  0  # atno 6907 bound_to 6896
  152.4246  134.5889  159.9978 H   0  0  0  0  0  0  0  0  0  0  0  0  # atno 6908 bound_to 6896
  151.6095  133.3311  159.3100 H   0  0  0  0  0  0  0  0  0  0  0  0  # atno 6909 bound_to 6896
  144.7127  140.1220  143.6404 H   0  0  0  0  0  0  0  0  0  0  0  0  # atno 7974 bound_to 7965
  155.5833  140.3492  155.4546 H   0  0  0  0  0  0  0  0  0  0  0  0  # atno 8008 bound_to 7997
  156.0357  140.1284  157.0235 H   0  0  0  0  0  0  0  0  0  0  0  0  # atno 8009 bound_to 7997
  154.4370  140.1034  156.6149 H   0  0  0  0  0  0  0  0  0  0  0  0  # atno 8010 bound_to 7997
  140.4601  144.0919  150.6211 H   0  0  0  0  0  0  0  0  0  0  0  0  # atno 10167 bound_to 10162
  156.7724  130.9453  151.3120 H   0  0  0  0  0  0  0  0  0  0  0  0  # atno 10718 bound_to 10713
  154.8439  135.3448  154.6303 H   0  0  0  0  0  0  0  0  0  0  0  0  # atno 10763 bound_to 10752
  153.6912  135.6975  153.5094 H   0  0  0  0  0  0  0  0  0  0  0  0  # atno 10764 bound_to 10752
  153.2593  135.4328  155.0833 H   0  0  0  0  0  0  0  0  0  0  0  0  # atno 10765 bound_to 10752
  140.3258  134.2493  155.7710 H   0  0  0  0  0  0  0  0  0  0  0  0  # atno 11005 bound_to 11000
  145.9363  139.2639  143.1295 LP  0  0  0  0  0  0  0  0  0  0  0  0  # atno 17320 bound_to 7965
  145.9471  140.8937  143.0278 LP  0  0  0  0  0  0  0  0  0  0  0  0  # atno 17321 bound_to 7965
  140.4103  143.2660  151.9840 LP  0  0  0  0  0  0  0  0  0  0  0  0  # atno 17342 bound_to 10162
  139.4805  144.5921  151.7754 LP  0  0  0  0  0  0  0  0  0  0  0  0  # atno 17343 bound_to 10162
  157.6685  130.9029  149.9986 LP  0  0  0  0  0  0  0  0  0  0  0  0  # atno 17370 bound_to 10713
  156.1269  130.3644  149.9794 LP  0  0  0  0  0  0  0  0  0  0  0  0  # atno 17371 bound_to 10713
  141.2075  133.7802  157.0112 LP  0  0  0  0  0  0  0  0  0  0  0  0  # atno 17394 bound_to 11000
  140.0903  134.9596  157.1765 LP  0  0  0  0  0  0  0  0  0  0  0  0  # atno 17395 bound_to 11000

$$$$
