AV-unprocessed.smi:2526|AV-procd|sdf|9936|dock2
  -GOLD-   2272013583D 1   1.00000     0.00000
 Structure written by MMmdl.
 29 30  0  0  0  0  0  0  0  0  2 V2000
  151.7325  138.2940  154.7076 C   0  0  0  0  0  0  0  0  0  0  0  0
  150.5902  139.1667  154.5400 N   0  0  0  0  0  0  0  0  0  0  0  0
  149.3233  138.8513  154.1007 C   0  0  0  0  0  0  0  0  0  0  0  0
  148.5848  140.0041  154.1002 C   0  0  0  0  0  0  0  0  0  0  0  0
  147.1399  140.2273  153.6999 C   0  0  2  0  0  0  0  0  0  0  0  0
  146.3096  140.4985  154.8764 N   0  0  0  0  0  0  0  0  0  0  0  0
  145.5414  139.6126  155.5380 C   0  0  0  0  0  0  0  0  0  0  0  0
  144.9748  139.9142  156.5851 O   0  0  0  0  0  0  0  0  0  0  0  0
  145.3277  138.2103  154.9429 C   0  0  0  0  0  0  0  0  0  0  0  0
  146.3025  137.8444  153.8087 C   0  0  0  0  0  0  0  0  0  0  0  0
  146.5565  139.0453  152.8879 C   0  0  2  0  0  0  0  0  0  0  0  0
  147.3976  138.6811  151.7323 N   0  3  0  0  0  0  0  0  0  0  0  0
  149.5090  140.9778  154.5792 C   0  0  0  0  0  0  0  0  0  0  0  0
  150.7059  140.4772  154.8330 N   0  0  0  0  0  0  0  0  0  0  0  0
  151.4754  137.2786  154.4049 H   0  0  0  0  0  0  0  0  0  0  0  0
  152.0397  138.2845  155.7538 H   0  0  0  0  0  0  0  0  0  0  0  0
  152.5613  138.6473  154.0932 H   0  0  0  0  0  0  0  0  0  0  0  0
  149.0554  137.8427  153.8210 H   0  0  0  0  0  0  0  0  0  0  0  0
  147.0776  141.1202  153.0763 H   0  0  0  0  0  0  0  0  0  0  0  0
  146.3876  141.4238  155.2742 H   0  0  0  0  0  0  0  0  0  0  0  0
  145.3813  137.4646  155.7366 H   0  0  0  0  0  0  0  0  0  0  0  0
  144.3071  138.1791  154.5601 H   0  0  0  0  0  0  0  0  0  0  0  0
  147.2417  137.4851  154.2319 H   0  0  0  0  0  0  0  0  0  0  0  0
  145.8909  137.0133  153.2353 H   0  0  0  0  0  0  0  0  0  0  0  0
  145.5953  139.3565  152.4756 H   0  0  0  0  0  0  0  0  0  0  0  0
  147.7748  137.7544  151.8716 H   0  0  0  0  0  0  0  0  0  0  0  0
  148.1554  139.3428  151.6432 H   0  0  0  0  0  0  0  0  0  0  0  0
  149.3461  142.0330  154.7423 H   0  0  0  0  0  0  0  0  0  0  0  0
  146.8391  138.6939  150.8907 H   0  0  0  0  0  0  0  0  0  0  0  0
  1  2  1  0  0  0  0
  1 15  1  0  0  0  0
  1 16  1  0  0  0  0
  1 17  1  0  0  0  0
  2 14  1  0  0  0  0
  2  3  1  0  0  0  0
  3  4  2  0  0  0  0
  3 18  1  0  0  0  0
  4  5  1  0  0  0  0
  4 13  1  0  0  0  0
  5 11  1  0  0  0  0
  5  6  1  0  0  0  0
  5 19  1  0  0  0  0
  6  7  1  0  0  0  0
  6 20  1  0  0  0  0
  7  8  2  0  0  0  0
  7  9  1  0  0  0  0
  9 10  1  0  0  0  0
  9 21  1  0  0  0  0
  9 22  1  0  0  0  0
 10 11  1  0  0  0  0
 10 23  1  0  0  0  0
 10 24  1  0  0  0  0
 11 12  1  0  0  0  0
 11 25  1  0  0  0  0
 12 26  1  0  0  0  0
 12 27  1  0  0  0  0
 12 29  1  0  0  0  0
 13 14  2  0  0  0  0
 13 28  1  0  0  0  0
M  CHG  1  12   1
M  END
> <s_m_source_file>
AV-unprocessed.smi

> <i_m_source_file_index>
2526

> <i_lp_mmshare_version>
43012

> <i_f3d_flags>
0

> <s_epik_input>
W0NIM11uMVtjSF1jKFtjSF1uMSlbQ0BASF0yW05IXUMoPU8pW0NIMl1bQ0gyXVtDQEhdMltOSDJd

> <s_epik_cmdline>
J2VwaWtfcHl0aG9uJywgJy1waCcsICc3LjAnLCAnLXRuJywgJzgnLCAnLW1hJywgJzIwMCcsICctbWV0YWxfYmluZGluZycsICctaW1hZScsICc8aW5maWxlLm1hZT4nLCAnLW9tYWUnLCAnPG91dGZpbGUubWFlPic=

> <r_lp_tautomer_probability>
1

> <r_epik_Ionization_Penalty>
0.00878543

> <r_epik_Ionization_Penalty_Charging>
0.00874185

> <r_epik_Ionization_Penalty_Neutral>
4.35793e-05

> <r_epik_State_Penalty>
0.00660351

> <r_epik_Charging_Adjusted_Penalty>
0.0153454

> <i_epik_Tot_Q>
1

> <i_epik_Tot_abs_Q>
1

> <r_epik_Metal_State_Penalty>
0.00660727

> <b_epik_Metal_Only>
0

> <s_lp_Force_Field>
OPLS_2005

> <r_lp_Energy>
11.1602

> <b_lp_Chiralities_Consistent>
1

> <s_lp_Variant>
AV-unprocessed.smi:2526-3

> <Gold.Version>
5.8.1

> <Gold.Id.Protein>
6NUR|6NUR_protein|mol2

> <Gold.PLP.Fitness>
36.9329

> <Gold.PLP.PLP>
-22.4751

> <Gold.PLP.part.hbond>
-3.0000

> <Gold.PLP.part.metal>
0.0000

> <Gold.PLP.part.buried>
-0.1803

> <Gold.PLP.part.nonpolar>
-18.7575

> <Gold.PLP.part.repulsive>
0.6571

> <Gold.PLP.ligand.clash>
0.0000

> <Gold.PLP.ligand.torsion>
0.2989

> <Gold.PLP.Chemscore.Hbond>
3.8500

> <Gold.PLP.Chemscore.CHOScore>
1.1623

> <Gold.PLP.Chemscore.Metal>
0.0000

> <Gold.Chemscore.Hbonds>
donor molecule, donor type, donor heavy atom, donor atom, acceptor molecule, acceptor atom, score
      L1  H    12    26       P1  7948  2.00
      L1  H    12    27       P1  7957  1.00
      P1  H  7989  7998       L1    14  0.80
      L1  C     3    18       P1  7948  1.00
      L1  C    13    28       P1  8028  0.16

> <Gold.PLP.Chemscore.Internal.Correction>
0.0189

> <Gold.Rescore>
     Score         DG    S(hbond)    S(metal)    S(lipo)     H(rot)  DE(clash)    DE(int)     intcor
     14.55     -15.29       2.11        0.00      45.49       1.00       0.28       0.47       ----

> <Gold.Chemscore.Fitness>
14.5467

> <Gold.Chemscore.DG>
-15.2903

> <Gold.Chemscore.ZeroCoef>
-5.4800

> <Gold.Chemscore.Hbond>
2.1103

> <Gold.Chemscore.Metal>
0.0000

> <Gold.Chemscore.Lipo>
45.4861

> <Gold.Chemscore.Internal_Hbond>
0.0000

> <Gold.Chemscore.DEClash>
0.2777

> <Gold.Chemscore.DEInternal>
0.4659

> <Gold.Chemscore.Rot>
1.0000

> <Gold.Chemscore.Internal.Correction>
   9.000000E+99

> <Gold.Chemscore.Hbonds>
donor molecule, donor type, donor heavy atom, donor atom, acceptor molecule, acceptor atom, score
      L1  H    12    26       P1  7948  1.00
      L1  H    12    27       P1  7957  0.97
      P1  H  7989  7998       L1    14  0.06

> <Gold.Chemscore.Hbond.Weighted>
-7.0484

> <Gold.Chemscore.Metal.Weighted>
-0.0000

> <Gold.Chemscore.Lipo.Weighted>
-5.3219

> <Gold.Chemscore.Internal_Hbond.Weighted>
0.0000

> <Gold.Chemscore.DEClash.Weighted>
0.2777

> <Gold.Chemscore.DEInternal.Weighted>
0.4659

> <Gold.Chemscore.Rot.Weighted>
2.5600

> <Gold.Chemscore.Internal.Correction.Weighted>
   9.000000E+99

> <Gold.Protein.RotatedTorsions>
[ 6907 6896 6895 6894 ] final  115.93 input  -60.11 | X-H torsion
[ 7974 7965 7964 7962 ] final   29.82 input  175.53 | X-H torsion
[ 8008 7997 7996 7995 ] final  -70.94 input   59.86 | X-H torsion
[ 10167 10162 10161 10158 ] final  -31.25 input  -65.29 | X-H torsion
[ 10718 10713 10712 10709 ] final  124.49 input   66.30 | X-H torsion
[ 10763 10752 10751 10750 ] final -154.84 input  -60.55 | X-H torsion
[ 11005 11000 10999 10996 ] final   -0.06 input  -57.11 | X-H torsion

> <Gold.Protein.ActiveResidues>
 VAL166  LYS551  ARG553  GLY616  TRP617  ASP618  TYR619  PRO620  LYS621  CYS622 
 ASP623  PHE694  ASN695  SER759  ASP760  ASP761  ALA762  ILE779  LEU786  VAL792 
 PHE793  MET794  SER795  GLU796  ALA797  LYS798  CYS799  TRP800  GLU811  SER814 

> <Gold.Protein.RotatedAtoms>
  152.4710  133.8031  159.6962 H   0  0  0  0  0  0  0  0  0  0  0  0  # atno 6907 bound_to 6896
  150.8700  133.7510  159.2971 H   0  0  0  0  0  0  0  0  0  0  0  0  # atno 6908 bound_to 6896
  151.5048  135.1066  159.9890 H   0  0  0  0  0  0  0  0  0  0  0  0  # atno 6909 bound_to 6896
  146.1648  139.6870  142.9008 H   0  0  0  0  0  0  0  0  0  0  0  0  # atno 7974 bound_to 7965
  154.5050  140.0825  156.7875 H   0  0  0  0  0  0  0  0  0  0  0  0  # atno 8008 bound_to 7997
  155.3915  140.3433  155.4233 H   0  0  0  0  0  0  0  0  0  0  0  0  # atno 8009 bound_to 7997
  156.1504  140.1556  156.8766 H   0  0  0  0  0  0  0  0  0  0  0  0  # atno 8010 bound_to 7997
  140.7239  143.3785  151.1644 H   0  0  0  0  0  0  0  0  0  0  0  0  # atno 10167 bound_to 10162
  157.5580  131.1091  150.8588 H   0  0  0  0  0  0  0  0  0  0  0  0  # atno 10718 bound_to 10713
  154.7830  135.3181  154.7948 H   0  0  0  0  0  0  0  0  0  0  0  0  # atno 10763 bound_to 10752
  153.8655  135.6849  153.4783 H   0  0  0  0  0  0  0  0  0  0  0  0  # atno 10764 bound_to 10752
  153.1472  135.4714  154.9522 H   0  0  0  0  0  0  0  0  0  0  0  0  # atno 10765 bound_to 10752
  140.6320  133.9566  155.8279 H   0  0  0  0  0  0  0  0  0  0  0  0  # atno 11005 bound_to 11000
  145.4494  141.0427  143.2813 LP  0  0  0  0  0  0  0  0  0  0  0  0  # atno 17320 bound_to 7965
  144.8078  139.6019  143.7043 LP  0  0  0  0  0  0  0  0  0  0  0  0  # atno 17321 bound_to 7965
  139.7370  143.8983  152.3038 LP  0  0  0  0  0  0  0  0  0  0  0  0  # atno 17342 bound_to 10162
  139.8792  144.7027  150.8898 LP  0  0  0  0  0  0  0  0  0  0  0  0  # atno 17343 bound_to 10162
  156.9093  130.5275  149.5280 LP  0  0  0  0  0  0  0  0  0  0  0  0  # atno 17370 bound_to 10713
  156.0636  130.5684  150.9244 LP  0  0  0  0  0  0  0  0  0  0  0  0  # atno 17371 bound_to 10713
  141.0668  134.0264  157.3582 LP  0  0  0  0  0  0  0  0  0  0  0  0  # atno 17394 bound_to 11000
  139.9112  135.0190  156.7700 LP  0  0  0  0  0  0  0  0  0  0  0  0  # atno 17395 bound_to 11000

$$$$
