AV-unprocessed.smi:255|AV-procd|sdf|1954|dock3
  -GOLD-   2262021 93D 1   1.00000     0.00000
 Structure written by MMmdl.
 44 47  0  0  0  0  0  0  0  0  1 V2000
  154.4523  139.8598  158.9885 O   0  0  0  0  0  0  0  0  0  0  0  0
  153.1407  139.7002  159.4852 C   0  0  0  0  0  0  0  0  0  0  0  0
  152.5367  141.0740  159.8391 C   0  0  1  0  0  0  0  0  0  0  0  0
  153.5058  141.9819  160.6030 C   0  0  0  0  0  0  0  0  0  0  0  0
  152.9370  143.3742  160.3467 C   0  0  2  0  0  0  0  0  0  0  0  0
  151.9454  143.6154  161.2056 F   0  0  0  0  0  0  0  0  0  0  0  0
  152.3639  143.2776  158.9291 C   0  0  0  0  0  0  0  0  0  0  0  0
  152.1660  141.8561  158.6596 N   0  0  0  0  0  0  0  0  0  0  0  0
  151.0904  141.5263  157.8965 C   0  0  0  0  0  0  0  0  0  0  0  0
  150.6785  142.3621  156.9060 N   0  0  0  0  0  0  0  0  0  0  0  0
  149.6254  142.0472  156.1468 C   0  0  0  0  0  0  0  0  0  0  0  0
  148.8503  140.9633  156.2046 N   0  0  0  0  0  0  0  0  0  0  0  0
  149.2561  140.1178  157.1943 C   0  0  0  0  0  0  0  0  0  0  0  0
  150.3526  140.3212  158.0798 C   0  0  0  0  0  0  0  0  0  0  0  0
  150.4456  139.2536  158.9656 N   0  0  0  0  0  0  0  0  0  0  0  0
  149.4669  138.4632  158.6191 C   0  0  0  0  0  0  0  0  0  0  0  0
  148.7075  138.8997  157.5572 N   0  0  0  0  0  0  0  0  0  0  0  0
  147.5624  138.2240  156.9653 C   0  0  0  0  0  0  0  0  0  0  0  0
  147.8981  137.4471  155.6687 C   0  0  2  0  0  0  0  0  0  0  0  0
  147.9927  138.3641  154.5940 O   0  0  0  0  0  0  0  0  0  0  0  0
  146.8423  136.3915  155.3316 C   0  0  0  0  0  0  0  0  0  0  0  0
  147.5542  135.0708  155.5980 C   0  0  0  0  0  0  0  0  0  0  0  0
  148.8893  135.3562  155.2223 O   0  0  0  0  0  0  0  0  0  0  0  0
  149.2056  136.6344  155.7538 C   0  0  0  0  0  0  0  0  0  0  0  0
  151.6434  140.9332  160.4501 H   0  0  0  0  0  0  0  0  0  0  0  0
  153.6718  144.1715  160.4607 H   0  0  0  0  0  0  0  0  0  0  0  0
  154.8326  140.6272  159.3877 H   0  0  0  0  0  0  0  0  0  0  0  0
  152.5322  139.1883  158.7392 H   0  0  0  0  0  0  0  0  0  0  0  0
  153.1885  139.0492  160.3577 H   0  0  0  0  0  0  0  0  0  0  0  0
  153.5762  141.7360  161.6630 H   0  0  0  0  0  0  0  0  0  0  0  0
  154.5068  141.9131  160.1745 H   0  0  0  0  0  0  0  0  0  0  0  0
  151.4442  143.8569  158.8316 H   0  0  0  0  0  0  0  0  0  0  0  0
  153.0827  143.6658  158.2068 H   0  0  0  0  0  0  0  0  0  0  0  0
  149.3673  142.7664  155.3833 H   0  0  0  0  0  0  0  0  0  0  0  0
  149.2723  137.5336  159.1339 H   0  0  0  0  0  0  0  0  0  0  0  0
  147.1465  137.5453  157.7111 H   0  0  0  0  0  0  0  0  0  0  0  0
  146.7903  138.9692  156.7689 H   0  0  0  0  0  0  0  0  0  0  0  0
  148.0405  137.8754  153.7866 H   0  0  0  0  0  0  0  0  0  0  0  0
  145.9259  136.4909  155.9143 H   0  0  0  0  0  0  0  0  0  0  0  0
  146.5638  136.4373  154.2772 H   0  0  0  0  0  0  0  0  0  0  0  0
  147.5163  134.8101  156.6570 H   0  0  0  0  0  0  0  0  0  0  0  0
  147.1394  134.2435  155.0218 H   0  0  0  0  0  0  0  0  0  0  0  0
  150.0420  137.0925  155.2242 H   0  0  0  0  0  0  0  0  0  0  0  0
  149.5118  136.4895  156.7901 H   0  0  0  0  0  0  0  0  0  0  0  0
  1  2  1  0  0  0  0
  1 27  1  0  0  0  0
  2  3  1  0  0  0  0
  2 28  1  0  0  0  0
  2 29  1  0  0  0  0
  3 25  1  0  0  0  0
  3  8  1  0  0  0  0
  3  4  1  0  0  0  0
  4  5  1  0  0  0  0
  4 30  1  0  0  0  0
  4 31  1  0  0  0  0
  5 26  1  0  0  0  0
  5  6  1  0  0  0  0
  5  7  1  0  0  0  0
  7  8  1  0  0  0  0
  7 32  1  0  0  0  0
  7 33  1  0  0  0  0
  8  9  1  0  0  0  0
  9 14  1  0  0  0  0
  9 10  2  0  0  0  0
 10 11  1  0  0  0  0
 11 12  2  0  0  0  0
 11 34  1  0  0  0  0
 12 13  1  0  0  0  0
 13 17  1  0  0  0  0
 13 14  2  0  0  0  0
 14 15  1  0  0  0  0
 15 16  2  0  0  0  0
 16 17  1  0  0  0  0
 16 35  1  0  0  0  0
 17 18  1  0  0  0  0
 18 19  1  0  0  0  0
 18 36  1  0  0  0  0
 18 37  1  0  0  0  0
 19 24  1  0  0  0  0
 19 20  1  0  0  0  0
 19 21  1  0  0  0  0
 20 38  1  0  0  0  0
 21 22  1  0  0  0  0
 21 39  1  0  0  0  0
 21 40  1  0  0  0  0
 22 23  1  0  0  0  0
 22 41  1  0  0  0  0
 22 42  1  0  0  0  0
 23 24  1  0  0  0  0
 24 43  1  0  0  0  0
 24 44  1  0  0  0  0
M  END
> <s_m_source_file>
AV-unprocessed.smi

> <i_m_source_file_index>
255

> <i_lp_mmshare_version>
43012

> <i_f3d_flags>
0

> <s_epik_input>
W09IXVtDSDJdW0NAQEhdMVtDSDJdW0NASF0oRilbQ0gyXU4xYyhuW2NIXW4yKWMoYzIzKW5bY0hdbjNbQ0gyXVtDQEBdNChbT0hdKVtDSDJdW0NIMl1PW0NIMl00

> <s_epik_cmdline>
J2VwaWtfcHl0aG9uJywgJy1waCcsICc3LjAnLCAnLXRuJywgJzgnLCAnLW1hJywgJzIwMCcsICctbWV0YWxfYmluZGluZycsICctaW1hZScsICc8aW5maWxlLm1hZT4nLCAnLW9tYWUnLCAnPG91dGZpbGUubWFlPic=

> <r_lp_tautomer_probability>
1

> <r_epik_Ionization_Penalty>
0.0058098

> <r_epik_Ionization_Penalty_Charging>
0

> <r_epik_Ionization_Penalty_Neutral>
0.0058098

> <r_epik_State_Penalty>
0.00411166

> <r_epik_Charging_Adjusted_Penalty>
0.00411166

> <i_epik_Tot_Q>
0

> <i_epik_Tot_abs_Q>
0

> <r_epik_Metal_State_Penalty>
-0

> <b_epik_Metal_Only>
0

> <s_lp_Force_Field>
OPLS_2005

> <r_lp_Energy>
48.4918

> <b_lp_Chiralities_Consistent>
1

> <s_lp_Variant>
AV-unprocessed.smi:255-6

> <Gold.Version>
5.8.1

> <Gold.Id.Protein>
6NUR|6NUR_protein|mol2

> <Gold.PLP.Fitness>
40.3291

> <Gold.PLP.PLP>
-34.1005

> <Gold.PLP.part.hbond>
-2.0000

> <Gold.PLP.part.metal>
0.0000

> <Gold.PLP.part.buried>
-5.3217

> <Gold.PLP.part.nonpolar>
-26.7787

> <Gold.PLP.part.repulsive>
0.2548

> <Gold.PLP.ligand.clash>
0.0000

> <Gold.PLP.ligand.torsion>
1.0524

> <Gold.PLP.Chemscore.Hbond>
2.0000

> <Gold.PLP.Chemscore.CHOScore>
0.6616

> <Gold.PLP.Chemscore.Metal>
0.0000

> <Gold.Chemscore.Hbonds>
donor molecule, donor type, donor heavy atom, donor atom, acceptor molecule, acceptor atom, score
      P1  H  7997  8008       L1     1  1.00
      L1  C    11    34       P1  8028  0.94

> <Gold.PLP.Chemscore.Internal.Correction>
0.3486

> <Gold.Rescore>
     Score         DG    S(hbond)    S(metal)    S(lipo)     H(rot)  DE(clash)    DE(int)     intcor
      7.34     -10.81       1.86        0.00      65.28       3.33       0.01       3.47       ----

> <Gold.Chemscore.Fitness>
7.3352

> <Gold.Chemscore.DG>
-10.8136

> <Gold.Chemscore.ZeroCoef>
-5.4800

> <Gold.Chemscore.Hbond>
1.8604

> <Gold.Chemscore.Metal>
0.0000

> <Gold.Chemscore.Lipo>
65.2817

> <Gold.Chemscore.Internal_Hbond>
0.0000

> <Gold.Chemscore.DEClash>
0.0073

> <Gold.Chemscore.DEInternal>
3.4711

> <Gold.Chemscore.Rot>
3.3273

> <Gold.Chemscore.Internal.Correction>
   9.000000E+99

> <Gold.Chemscore.Hbonds>
donor molecule, donor type, donor heavy atom, donor atom, acceptor molecule, acceptor atom, score
      P1  H  7997  8008       L1     1  0.25

> <Gold.Chemscore.Hbond.Weighted>
-6.2136

> <Gold.Chemscore.Metal.Weighted>
-0.0000

> <Gold.Chemscore.Lipo.Weighted>
-7.6380

> <Gold.Chemscore.Internal_Hbond.Weighted>
0.0000

> <Gold.Chemscore.DEClash.Weighted>
0.0073

> <Gold.Chemscore.DEInternal.Weighted>
3.4711

> <Gold.Chemscore.Rot.Weighted>
8.5179

> <Gold.Chemscore.Internal.Correction.Weighted>
   9.000000E+99

> <Gold.Protein.RotatedTorsions>
[ 6907 6896 6895 6894 ] final   32.25 input  -60.11 | X-H torsion
[ 7974 7965 7964 7962 ] final  168.81 input  175.53 | X-H torsion
[ 8008 7997 7996 7995 ] final -116.89 input   59.86 | X-H torsion
[ 10167 10162 10161 10158 ] final  168.21 input  -65.29 | X-H torsion
[ 10718 10713 10712 10709 ] final   39.03 input   66.30 | X-H torsion
[ 10763 10752 10751 10750 ] final  -27.90 input  -60.55 | X-H torsion
[ 11005 11000 10999 10996 ] final  -70.11 input  -57.11 | X-H torsion

> <Gold.Protein.ActiveResidues>
 VAL166  LYS551  ARG553  GLY616  TRP617  ASP618  TYR619  PRO620  LYS621  CYS622 
 ASP623  PHE694  ASN695  SER759  ASP760  ASP761  ALA762  ILE779  LEU786  VAL792 
 PHE793  MET794  SER795  GLU796  ALA797  LYS798  CYS799  TRP800  GLU811  SER814 

> <Gold.Protein.RotatedAtoms>
  152.0718  134.9529  160.0574 H   0  0  0  0  0  0  0  0  0  0  0  0  # atno 6907 bound_to 6896
  152.0852  133.4167  159.4527 H   0  0  0  0  0  0  0  0  0  0  0  0  # atno 6908 bound_to 6896
  150.6836  134.2856  159.4689 H   0  0  0  0  0  0  0  0  0  0  0  0  # atno 6909 bound_to 6896
  144.7376  139.8961  143.6406 H   0  0  0  0  0  0  0  0  0  0  0  0  # atno 7974 bound_to 7965
  155.0751  140.0394  157.2621 H   0  0  0  0  0  0  0  0  0  0  0  0  # atno 8008 bound_to 7997
  154.6952  140.2661  155.6749 H   0  0  0  0  0  0  0  0  0  0  0  0  # atno 8009 bound_to 7997
  156.2742  140.2751  156.1543 H   0  0  0  0  0  0  0  0  0  0  0  0  # atno 8010 bound_to 7997
  139.4962  144.3839  151.9592 H   0  0  0  0  0  0  0  0  0  0  0  0  # atno 10167 bound_to 10162
  157.3658  130.7674  149.7081 H   0  0  0  0  0  0  0  0  0  0  0  0  # atno 10718 bound_to 10713
  153.7397  135.6933  153.4970 H   0  0  0  0  0  0  0  0  0  0  0  0  # atno 10763 bound_to 10752
  153.2078  135.4413  155.0342 H   0  0  0  0  0  0  0  0  0  0  0  0  # atno 10764 bound_to 10752
  154.8225  135.3429  154.6923 H   0  0  0  0  0  0  0  0  0  0  0  0  # atno 10765 bound_to 10752
  141.1567  133.6781  156.6702 H   0  0  0  0  0  0  0  0  0  0  0  0  # atno 11005 bound_to 11000
  146.1106  139.4110  143.0290 LP  0  0  0  0  0  0  0  0  0  0  0  0  # atno 17320 bound_to 7965
  145.7449  140.9994  143.1281 LP  0  0  0  0  0  0  0  0  0  0  0  0  # atno 17321 bound_to 7965
  140.3276  144.3355  150.5995 LP  0  0  0  0  0  0  0  0  0  0  0  0  # atno 17342 bound_to 10162
  140.5672  143.2185  151.7663 LP  0  0  0  0  0  0  0  0  0  0  0  0  # atno 17343 bound_to 10162
  155.9746  130.4101  150.3912 LP  0  0  0  0  0  0  0  0  0  0  0  0  # atno 17370 bound_to 10713
  157.1996  131.0435  151.2657 LP  0  0  0  0  0  0  0  0  0  0  0  0  # atno 17371 bound_to 10713
  140.3181  134.8031  157.4230 LP  0  0  0  0  0  0  0  0  0  0  0  0  # atno 17394 bound_to 11000
  140.1121  134.5332  155.8257 LP  0  0  0  0  0  0  0  0  0  0  0  0  # atno 17395 bound_to 11000

$$$$
