AV-unprocessed.smi:2922|AV-procd|sdf|11199|dock6
  -GOLD-   2272016 93D 1   1.00000     0.00000
 Structure written by MMmdl.
 30 31  0  0  0  0  0  0  0  0  1 V2000
  145.4715  138.6988  153.0041 N   0  0  0  0  0  0  0  0  0  0  0  0
  146.7090  138.7858  153.5004 C   0  0  0  0  0  0  0  0  0  0  0  0
  147.2705  137.8200  154.0142 O   0  0  0  0  0  0  0  0  0  0  0  0
  147.4089  140.1518  153.4327 C   0  0  1  0  0  0  0  0  0  0  0  0
  146.6653  141.2878  154.1612 C   0  0  0  0  0  0  0  0  0  0  0  0
  147.6583  141.7639  155.2062 C   0  0  0  0  0  0  0  0  0  0  0  0
  148.9990  141.3451  154.6097 C   0  0  1  0  0  0  0  0  0  0  0  0
  150.1372  141.2165  155.6304 C   0  0  0  0  0  0  0  0  0  0  0  0
  150.2380  142.3961  156.4765 N   0  0  0  0  0  0  0  0  0  0  0  0
  150.9764  142.4538  157.6430 C   0  0  0  0  0  0  0  0  0  0  0  0
  151.3396  143.6572  158.1043 N   0  0  0  0  0  0  0  0  0  0  0  0
  152.0598  143.6854  159.2472 C   0  0  0  0  0  0  0  0  0  0  0  0
  152.4127  142.5016  159.9251 C   0  0  0  0  0  0  0  0  0  0  0  0
  153.3304  142.5307  161.3856 Cl  0  0  0  0  0  0  0  0  0  0  0  0
  151.9764  141.2926  159.3477 C   0  0  0  0  0  0  0  0  0  0  0  0
  151.2571  141.2740  158.2035 N   0  0  0  0  0  0  0  0  0  0  0  0
  148.6891  140.0755  154.0599 O   0  0  0  0  0  0  0  0  0  0  0  0
  144.9804  137.8170  153.0272 H   0  0  0  0  0  0  0  0  0  0  0  0
  145.0351  139.5173  152.6044 H   0  0  0  0  0  0  0  0  0  0  0  0
  147.5521  140.4200  152.3850 H   0  0  0  0  0  0  0  0  0  0  0  0
  146.4405  142.0911  153.4585 H   0  0  0  0  0  0  0  0  0  0  0  0
  145.7247  140.9848  154.6232 H   0  0  0  0  0  0  0  0  0  0  0  0
  147.5931  142.8352  155.3986 H   0  0  0  0  0  0  0  0  0  0  0  0
  147.4834  141.2384  156.1463 H   0  0  0  0  0  0  0  0  0  0  0  0
  149.2829  142.0170  153.7973 H   0  0  0  0  0  0  0  0  0  0  0  0
  149.9898  140.3318  156.2510 H   0  0  0  0  0  0  0  0  0  0  0  0
  151.0844  141.0850  155.1061 H   0  0  0  0  0  0  0  0  0  0  0  0
  149.7582  143.2367  156.1888 H   0  0  0  0  0  0  0  0  0  0  0  0
  152.3534  144.6556  159.6204 H   0  0  0  0  0  0  0  0  0  0  0  0
  152.2031  140.3395  159.8020 H   0  0  0  0  0  0  0  0  0  0  0  0
  1  2  1  0  0  0  0
  1 18  1  0  0  0  0
  1 19  1  0  0  0  0
  2  3  2  0  0  0  0
  2  4  1  0  0  0  0
  4 17  1  0  0  0  0
  4  5  1  0  0  0  0
  4 20  1  0  0  0  0
  5  6  1  0  0  0  0
  5 21  1  0  0  0  0
  5 22  1  0  0  0  0
  6  7  1  0  0  0  0
  6 23  1  0  0  0  0
  6 24  1  0  0  0  0
  7  8  1  0  0  0  0
  7 17  1  0  0  0  0
  7 25  1  0  0  0  0
  8  9  1  0  0  0  0
  8 26  1  0  0  0  0
  8 27  1  0  0  0  0
  9 10  1  0  0  0  0
  9 28  1  0  0  0  0
 10 16  1  0  0  0  0
 10 11  2  0  0  0  0
 11 12  1  0  0  0  0
 12 13  2  0  0  0  0
 12 29  1  0  0  0  0
 13 14  1  0  0  0  0
 13 15  1  0  0  0  0
 15 16  2  0  0  0  0
 15 30  1  0  0  0  0
M  END
> <s_m_source_file>
AV-unprocessed.smi

> <i_m_source_file_index>
2922

> <i_lp_mmshare_version>
43012

> <i_f3d_flags>
0

> <s_epik_input>
W05IMl1DKD1PKVtDQEBIXTFbQ0gyXVtDSDJdW0NASF0oTzEpW0NIMl1bTkhdYzJuW2NIXWMoQ2wpW2NIXW4y

> <s_epik_cmdline>
J2VwaWtfcHl0aG9uJywgJy1waCcsICc3LjAnLCAnLXRuJywgJzgnLCAnLW1hJywgJzIwMCcsICctbWV0YWxfYmluZGluZycsICctaW1hZScsICc8aW5maWxlLm1hZT4nLCAnLW9tYWUnLCAnPG91dGZpbGUubWFlPic=

> <r_lp_tautomer_probability>
1

> <r_epik_Ionization_Penalty>
6.13883e-06

> <r_epik_Ionization_Penalty_Charging>
0

> <r_epik_Ionization_Penalty_Neutral>
6.13883e-06

> <r_epik_State_Penalty>
-0

> <r_epik_Charging_Adjusted_Penalty>
0

> <i_epik_Tot_Q>
0

> <i_epik_Tot_abs_Q>
0

> <r_epik_Metal_State_Penalty>
-0

> <b_epik_Metal_Only>
0

> <s_lp_Force_Field>
OPLS_2005

> <r_lp_Energy>
9.86334

> <b_lp_Chiralities_Consistent>
1

> <s_lp_Variant>
AV-unprocessed.smi:2922-2

> <Gold.Version>
5.8.1

> <Gold.Id.Protein>
6NUR|6NUR_protein|mol2

> <Gold.PLP.Fitness>
37.8500

> <Gold.PLP.PLP>
-32.3789

> <Gold.PLP.part.hbond>
-2.0000

> <Gold.PLP.part.metal>
0.0000

> <Gold.PLP.part.buried>
-5.4627

> <Gold.PLP.part.nonpolar>
-25.8952

> <Gold.PLP.part.repulsive>
0.9235

> <Gold.PLP.ligand.clash>
0.0000

> <Gold.PLP.ligand.torsion>
0.2658

> <Gold.PLP.Chemscore.Hbond>
1.9920

> <Gold.PLP.Chemscore.CHOScore>
0.0000

> <Gold.PLP.Chemscore.Metal>
0.0000

> <Gold.Chemscore.Hbonds>
donor molecule, donor type, donor heavy atom, donor atom, acceptor molecule, acceptor atom, score
      L1  H     1    19       P1 10175  0.96
      L1  H     9    28       P1  8028  1.00

> <Gold.PLP.Chemscore.Internal.Correction>
0.0267

> <Gold.Rescore>
     Score         DG    S(hbond)    S(metal)    S(lipo)     H(rot)  DE(clash)    DE(int)     intcor
     15.87     -16.11       1.99        0.00      75.93       1.91       0.02       0.21       ----

> <Gold.Chemscore.Fitness>
15.8696

> <Gold.Chemscore.DG>
-16.1052

> <Gold.Chemscore.ZeroCoef>
-5.4800

> <Gold.Chemscore.Hbond>
1.9884

> <Gold.Chemscore.Metal>
0.0000

> <Gold.Chemscore.Lipo>
75.9342

> <Gold.Chemscore.Internal_Hbond>
0.0000

> <Gold.Chemscore.DEClash>
0.0222

> <Gold.Chemscore.DEInternal>
0.2134

> <Gold.Chemscore.Rot>
1.9142

> <Gold.Chemscore.Internal.Correction>
   9.000000E+99

> <Gold.Chemscore.Hbonds>
donor molecule, donor type, donor heavy atom, donor atom, acceptor molecule, acceptor atom, score
      L1  H     1    19       P1 10175  0.92
      L1  H     9    28       P1  8028  1.00

> <Gold.Chemscore.Hbond.Weighted>
-6.6412

> <Gold.Chemscore.Metal.Weighted>
-0.0000

> <Gold.Chemscore.Lipo.Weighted>
-8.8843

> <Gold.Chemscore.Internal_Hbond.Weighted>
0.0000

> <Gold.Chemscore.DEClash.Weighted>
0.0222

> <Gold.Chemscore.DEInternal.Weighted>
0.2134

> <Gold.Chemscore.Rot.Weighted>
4.9002

> <Gold.Chemscore.Internal.Correction.Weighted>
   9.000000E+99

> <Gold.Protein.RotatedTorsions>
[ 6907 6896 6895 6894 ] final  -47.59 input  -60.11 | X-H torsion
[ 7974 7965 7964 7962 ] final  -96.44 input  175.53 | X-H torsion
[ 8008 7997 7996 7995 ] final  150.51 input   59.86 | X-H torsion
[ 10167 10162 10161 10158 ] final  174.94 input  -65.29 | X-H torsion
[ 10718 10713 10712 10709 ] final  119.95 input   66.30 | X-H torsion
[ 10763 10752 10751 10750 ] final  -47.64 input  -60.55 | X-H torsion
[ 11005 11000 10999 10996 ] final   28.51 input  -57.11 | X-H torsion

> <Gold.Protein.ActiveResidues>
 VAL166  LYS551  ARG553  GLY616  TRP617  ASP618  TYR619  PRO620  LYS621  CYS622 
 ASP623  PHE694  ASN695  SER759  ASP760  ASP761  ALA762  ILE779  LEU786  VAL792 
 PHE793  MET794  SER795  GLU796  ALA797  LYS798  CYS799  TRP800  GLU811  SER814 

> <Gold.Protein.RotatedAtoms>
  150.8993  134.8403  159.7348 H   0  0  0  0  0  0  0  0  0  0  0  0  # atno 6907 bound_to 6896
  152.4883  134.4528  159.9590 H   0  0  0  0  0  0  0  0  0  0  0  0  # atno 6908 bound_to 6896
  151.4581  133.3560  159.2840 H   0  0  0  0  0  0  0  0  0  0  0  0  # atno 6909 bound_to 6896
  145.3468  140.9469  143.2577 H   0  0  0  0  0  0  0  0  0  0  0  0  # atno 7974 bound_to 7965
  156.2712  140.2073  156.6029 H   0  0  0  0  0  0  0  0  0  0  0  0  # atno 8008 bound_to 7997
  154.6892  140.0532  157.0370 H   0  0  0  0  0  0  0  0  0  0  0  0  # atno 8009 bound_to 7997
  155.0890  140.3194  155.4582 H   0  0  0  0  0  0  0  0  0  0  0  0  # atno 8010 bound_to 7997
  139.5159  144.3088  152.0310 H   0  0  0  0  0  0  0  0  0  0  0  0  # atno 10167 bound_to 10162
  157.5925  131.1062  150.7968 H   0  0  0  0  0  0  0  0  0  0  0  0  # atno 10718 bound_to 10713
  154.0647  135.6613  153.4816 H   0  0  0  0  0  0  0  0  0  0  0  0  # atno 10763 bound_to 10752
  153.0413  135.5143  154.7625 H   0  0  0  0  0  0  0  0  0  0  0  0  # atno 10764 bound_to 10752
  154.6672  135.3024  154.9757 H   0  0  0  0  0  0  0  0  0  0  0  0  # atno 10765 bound_to 10752
  140.3148  134.2609  155.7727 H   0  0  0  0  0  0  0  0  0  0  0  0  # atno 11005 bound_to 11000
  144.8748  139.4986  143.6751 LP  0  0  0  0  0  0  0  0  0  0  0  0  # atno 17320 bound_to 7965
  146.2985  139.7351  142.9109 LP  0  0  0  0  0  0  0  0  0  0  0  0  # atno 17321 bound_to 7965
  140.2533  144.4145  150.6213 LP  0  0  0  0  0  0  0  0  0  0  0  0  # atno 17342 bound_to 10162
  140.6209  143.2176  151.6696 LP  0  0  0  0  0  0  0  0  0  0  0  0  # atno 17343 bound_to 10162
  156.8387  130.5040  149.5323 LP  0  0  0  0  0  0  0  0  0  0  0  0  # atno 17370 bound_to 10713
  156.0982  130.5949  150.9849 LP  0  0  0  0  0  0  0  0  0  0  0  0  # atno 17371 bound_to 10713
  141.2100  133.7732  156.9961 LP  0  0  0  0  0  0  0  0  0  0  0  0  # atno 17394 bound_to 11000
  140.0993  134.9545  157.1898 LP  0  0  0  0  0  0  0  0  0  0  0  0  # atno 17395 bound_to 11000

$$$$
