AV-unprocessed.smi:2009|AV-procd|sdf|8145|dock9
  -GOLD-   2272010383D 1   1.00000     0.00000
 Structure written by MMmdl.
 38 39  0  0  0  0  0  0  0  0  1 V2000
  153.9851  137.7359  156.5239 C   0  0  0  0  0  0  0  0  0  0  0  0
  152.6255  138.4046  156.2697 C   0  0  2  0  0  0  0  0  0  0  0  0
  152.2740  138.5320  154.7698 C   0  0  0  0  0  0  0  0  0  0  0  0
  150.9414  139.0602  154.5257 N   0  0  0  0  0  0  0  0  0  0  0  0
  149.8211  138.3840  154.0893 C   0  0  0  0  0  0  0  0  0  0  0  0
  148.8043  139.2912  154.0061 C   0  0  0  0  0  0  0  0  0  0  0  0
  149.4089  140.5134  154.4122 C   0  0  0  0  0  0  0  0  0  0  0  0
  150.6883  140.3731  154.7198 N   0  0  0  0  0  0  0  0  0  0  0  0
  152.6087  139.7153  156.9265 N   0  0  0  0  0  0  0  0  0  0  0  0
  152.5008  139.8281  158.6445 S   0  0  0  0  0  0  0  0  0  0  0  0
  151.2316  139.2288  159.0843 O   0  0  0  0  0  0  0  0  0  0  0  0
  153.7835  139.3809  159.2087 O   0  0  0  0  0  0  0  0  0  0  0  0
  152.3801  141.5487  158.8060 N   0  0  0  0  0  0  0  0  0  0  0  0
  152.3943  142.0881  160.1804 C   0  0  0  0  0  0  0  0  0  0  0  0
  152.6496  143.6045  160.1906 C   0  0  0  0  0  0  0  0  0  0  0  0
  151.6412  144.3436  159.3072 C   0  0  0  0  0  0  0  0  0  0  0  0
  151.6966  143.7671  157.8899 C   0  0  0  0  0  0  0  0  0  0  0  0
  151.4486  142.2498  157.8955 C   0  0  0  0  0  0  0  0  0  0  0  0
  154.0367  136.7607  156.0392 H   0  0  0  0  0  0  0  0  0  0  0  0
  154.1522  137.5821  157.5903 H   0  0  0  0  0  0  0  0  0  0  0  0
  154.8103  138.3399  156.1455 H   0  0  0  0  0  0  0  0  0  0  0  0
  151.8630  137.7844  156.7422 H   0  0  0  0  0  0  0  0  0  0  0  0
  152.9995  139.1817  154.2778 H   0  0  0  0  0  0  0  0  0  0  0  0
  152.3564  137.5670  154.2701 H   0  0  0  0  0  0  0  0  0  0  0  0
  149.8417  137.3243  153.8799 H   0  0  0  0  0  0  0  0  0  0  0  0
  147.7846  139.1100  153.7006 H   0  0  0  0  0  0  0  0  0  0  0  0
  148.9595  141.4923  154.4910 H   0  0  0  0  0  0  0  0  0  0  0  0
  153.2758  140.3771  156.5305 H   0  0  0  0  0  0  0  0  0  0  0  0
  151.4418  141.8592  160.6600 H   0  0  0  0  0  0  0  0  0  0  0  0
  153.1692  141.5892  160.7624 H   0  0  0  0  0  0  0  0  0  0  0  0
  152.5969  143.9827  161.2119 H   0  0  0  0  0  0  0  0  0  0  0  0
  153.6622  143.8062  159.8386 H   0  0  0  0  0  0  0  0  0  0  0  0
  150.6358  144.2350  159.7157 H   0  0  0  0  0  0  0  0  0  0  0  0
  151.8632  145.4109  159.2909 H   0  0  0  0  0  0  0  0  0  0  0  0
  150.9576  144.2611  157.2584 H   0  0  0  0  0  0  0  0  0  0  0  0
  152.6710  143.9758  157.4463 H   0  0  0  0  0  0  0  0  0  0  0  0
  151.5547  141.8651  156.8816 H   0  0  0  0  0  0  0  0  0  0  0  0
  150.4247  142.0360  158.2050 H   0  0  0  0  0  0  0  0  0  0  0  0
  1  2  1  0  0  0  0
  1 19  1  0  0  0  0
  1 20  1  0  0  0  0
  1 21  1  0  0  0  0
  2  3  1  0  0  0  0
  2  9  1  0  0  0  0
  2 22  1  0  0  0  0
  3  4  1  0  0  0  0
  3 23  1  0  0  0  0
  3 24  1  0  0  0  0
  4  8  1  0  0  0  0
  4  5  1  0  0  0  0
  5  6  2  0  0  0  0
  5 25  1  0  0  0  0
  6  7  1  0  0  0  0
  6 26  1  0  0  0  0
  7  8  2  0  0  0  0
  7 27  1  0  0  0  0
  9 10  1  0  0  0  0
  9 28  1  0  0  0  0
 10 11  2  0  0  0  0
 10 12  2  0  0  0  0
 10 13  1  0  0  0  0
 13 18  1  0  0  0  0
 13 14  1  0  0  0  0
 14 15  1  0  0  0  0
 14 29  1  0  0  0  0
 14 30  1  0  0  0  0
 15 16  1  0  0  0  0
 15 31  1  0  0  0  0
 15 32  1  0  0  0  0
 16 17  1  0  0  0  0
 16 33  1  0  0  0  0
 16 34  1  0  0  0  0
 17 18  1  0  0  0  0
 17 35  1  0  0  0  0
 17 36  1  0  0  0  0
 18 37  1  0  0  0  0
 18 38  1  0  0  0  0
M  END
> <s_m_source_file>
AV-unprocessed.smi

> <i_m_source_file_index>
2009

> <i_lp_mmshare_version>
43012

> <i_f3d_flags>
0

> <s_epik_input>
bjFbY0hdW2NIXVtjSF1uMVtDSDJdW0NAQEhdKFtDSDNdKVtOSF1TKD1PKSg9TylOMltDSDJdW0NIMl1bQ0gyXVtDSDJdW0NIMl0y

> <s_epik_cmdline>
J2VwaWtfcHl0aG9uJywgJy1waCcsICc3LjAnLCAnLXRuJywgJzgnLCAnLW1hJywgJzIwMCcsICctbWV0YWxfYmluZGluZycsICctaW1hZScsICc8aW5maWxlLm1hZT4nLCAnLW9tYWUnLCAnPG91dGZpbGUubWFlPic=

> <r_lp_tautomer_probability>
1

> <r_epik_Ionization_Penalty>
0.0313937

> <r_epik_Ionization_Penalty_Charging>
0

> <r_epik_Ionization_Penalty_Neutral>
0.0313937

> <r_epik_State_Penalty>
0.0259441

> <r_epik_Charging_Adjusted_Penalty>
0.0259441

> <i_epik_Tot_Q>
0

> <i_epik_Tot_abs_Q>
0

> <r_epik_Metal_State_Penalty>
0.365037

> <b_epik_Metal_Only>
0

> <s_lp_Force_Field>
OPLS_2005

> <r_lp_Energy>
7.7354

> <b_lp_Chiralities_Consistent>
1

> <s_lp_Variant>
AV-unprocessed.smi:2009-1

> <Gold.Version>
5.8.1

> <Gold.Id.Protein>
6NUR|6NUR_protein|mol2

> <Gold.PLP.Fitness>
41.5552

> <Gold.PLP.PLP>
-36.7956

> <Gold.PLP.part.hbond>
-2.2496

> <Gold.PLP.part.metal>
0.0000

> <Gold.PLP.part.buried>
-1.9760

> <Gold.PLP.part.nonpolar>
-32.6393

> <Gold.PLP.part.repulsive>
0.0765

> <Gold.PLP.ligand.clash>
0.0000

> <Gold.PLP.ligand.torsion>
0.7189

> <Gold.PLP.Chemscore.Hbond>
0.9000

> <Gold.PLP.Chemscore.CHOScore>
0.9052

> <Gold.PLP.Chemscore.Metal>
0.0000

> <Gold.Chemscore.Hbonds>
donor molecule, donor type, donor heavy atom, donor atom, acceptor molecule, acceptor atom, score
      P1  H  7989  7998       L1     8  0.75
      L1  C     5    25       P1  7948  0.92

> <Gold.PLP.Chemscore.Internal.Correction>
0.7818

> <Gold.Rescore>
     Score         DG    S(hbond)    S(metal)    S(lipo)     H(rot)  DE(clash)    DE(int)     intcor
     13.79     -14.83       0.94        0.00      92.99       1.82       0.06       0.98       ----

> <Gold.Chemscore.Fitness>
13.7886

> <Gold.Chemscore.DG>
-14.8285

> <Gold.Chemscore.ZeroCoef>
-5.4800

> <Gold.Chemscore.Hbond>
0.9394

> <Gold.Chemscore.Metal>
0.0000

> <Gold.Chemscore.Lipo>
92.9868

> <Gold.Chemscore.Internal_Hbond>
0.0000

> <Gold.Chemscore.DEClash>
0.0563

> <Gold.Chemscore.DEInternal>
0.9836

> <Gold.Chemscore.Rot>
1.8237

> <Gold.Chemscore.Internal.Correction>
   9.000000E+99

> <Gold.Chemscore.Hbonds>
donor molecule, donor type, donor heavy atom, donor atom, acceptor molecule, acceptor atom, score
      P1  H  7989  7998       L1     8  0.07

> <Gold.Chemscore.Hbond.Weighted>
-3.1376

> <Gold.Chemscore.Metal.Weighted>
-0.0000

> <Gold.Chemscore.Lipo.Weighted>
-10.8795

> <Gold.Chemscore.Internal_Hbond.Weighted>
0.0000

> <Gold.Chemscore.DEClash.Weighted>
0.0563

> <Gold.Chemscore.DEInternal.Weighted>
0.9836

> <Gold.Chemscore.Rot.Weighted>
4.6686

> <Gold.Chemscore.Internal.Correction.Weighted>
   9.000000E+99

> <Gold.Protein.RotatedTorsions>
[ 6907 6896 6895 6894 ] final -121.22 input  -60.11 | X-H torsion
[ 7974 7965 7964 7962 ] final  157.33 input  175.53 | X-H torsion
[ 8008 7997 7996 7995 ] final   70.26 input   59.86 | X-H torsion
[ 10167 10162 10161 10158 ] final -129.40 input  -65.29 | X-H torsion
[ 10718 10713 10712 10709 ] final  118.90 input   66.30 | X-H torsion
[ 10763 10752 10751 10750 ] final  -62.70 input  -60.55 | X-H torsion
[ 11005 11000 10999 10996 ] final  158.61 input  -57.11 | X-H torsion

> <Gold.Protein.ActiveResidues>
 VAL166  LYS551  ARG553  GLY616  TRP617  ASP618  TYR619  PRO620  LYS621  CYS622 
 ASP623  PHE694  ASN695  SER759  ASP760  ASP761  ALA762  ILE779  LEU786  VAL792 
 PHE793  MET794  SER795  GLU796  ALA797  LYS798  CYS799  TRP800  GLU811  SER814 

> <Gold.Protein.RotatedAtoms>
  150.8464  133.7856  159.3041 H   0  0  0  0  0  0  0  0  0  0  0  0  # atno 6907 bound_to 6896
  151.5541  135.1065  159.9966 H   0  0  0  0  0  0  0  0  0  0  0  0  # atno 6908 bound_to 6896
  152.4516  133.7598  159.6796 H   0  0  0  0  0  0  0  0  0  0  0  0  # atno 6909 bound_to 6896
  144.7910  139.7326  143.6221 H   0  0  0  0  0  0  0  0  0  0  0  0  # atno 7974 bound_to 7965
  155.7360  140.3491  155.5082 H   0  0  0  0  0  0  0  0  0  0  0  0  # atno 8008 bound_to 7997
  155.9138  140.1055  157.1281 H   0  0  0  0  0  0  0  0  0  0  0  0  # atno 8009 bound_to 7997
  154.4059  140.1263  156.4578 H   0  0  0  0  0  0  0  0  0  0  0  0  # atno 8010 bound_to 7997
  139.9402  143.6172  152.2506 H   0  0  0  0  0  0  0  0  0  0  0  0  # atno 10167 bound_to 10162
  157.5998  131.1052  150.7821 H   0  0  0  0  0  0  0  0  0  0  0  0  # atno 10718 bound_to 10713
  154.3039  135.6229  153.5436 H   0  0  0  0  0  0  0  0  0  0  0  0  # atno 10763 bound_to 10752
  152.9837  135.5685  154.5253 H   0  0  0  0  0  0  0  0  0  0  0  0  # atno 10764 bound_to 10752
  154.4889  135.2866  155.1489 H   0  0  0  0  0  0  0  0  0  0  0  0  # atno 10765 bound_to 10752
  140.1882  134.8427  157.2881 H   0  0  0  0  0  0  0  0  0  0  0  0  # atno 11005 bound_to 11000
  146.2161  139.5552  142.9649 LP  0  0  0  0  0  0  0  0  0  0  0  0  # atno 17320 bound_to 7965
  145.5796  141.0384  143.2129 LP  0  0  0  0  0  0  0  0  0  0  0  0  # atno 17321 bound_to 7965
  139.6711  144.7661  151.1781 LP  0  0  0  0  0  0  0  0  0  0  0  0  # atno 17342 bound_to 10162
  140.7613  143.5864  150.8842 LP  0  0  0  0  0  0  0  0  0  0  0  0  # atno 17343 bound_to 10162
  156.8223  130.4988  149.5341 LP  0  0  0  0  0  0  0  0  0  0  0  0  # atno 17370 bound_to 10713
  156.1069  130.6011  150.9985 LP  0  0  0  0  0  0  0  0  0  0  0  0  # atno 17371 bound_to 10713
  140.2190  134.4046  155.7575 LP  0  0  0  0  0  0  0  0  0  0  0  0  # atno 17394 bound_to 11000
  141.2225  133.7156  156.8460 LP  0  0  0  0  0  0  0  0  0  0  0  0  # atno 17395 bound_to 11000

$$$$
