AV-unprocessed.smi:157|AV-procd|sdf|1308|dock6
  -GOLD-   2262018593D 1   1.00000     0.00000
 Structure written by MMmdl.
 36 38  0  0  0  0  0  0  0  0  2 V2000
  142.5213  132.0747  148.0021 O   0  0  0  0  0  0  0  0  0  0  0  0
  143.8785  132.0847  148.3909 C   0  0  0  0  0  0  0  0  0  0  0  0
  144.0243  132.6831  149.8007 C   0  0  2  0  0  0  0  0  0  0  0  0
  144.1650  134.1020  149.7441 O   0  0  0  0  0  0  0  0  0  0  0  0
  145.0678  134.5362  150.7161 C   0  0  1  0  0  0  0  0  0  0  0  0
  144.4342  135.6420  151.4981 N   0  0  0  0  0  0  0  0  0  0  0  0
  144.8679  136.9188  151.5293 C   0  0  0  0  0  0  0  0  0  0  0  0
  144.1384  137.7261  152.2803 N   0  3  0  0  0  0  0  0  0  0  0  0
  143.1202  136.9584  152.8042 C   0  0  0  0  0  0  0  0  0  0  0  0
  143.3238  135.6653  152.3151 C   0  0  0  0  0  0  0  0  0  0  0  0
  142.5788  134.4971  152.5397 N   0  0  0  0  0  0  0  0  0  0  0  0
  141.7193  134.3796  153.4987 C   0  0  0  0  0  0  0  0  0  0  0  0
  141.2866  135.3326  154.4055 N   0  0  0  0  0  0  0  0  0  0  0  0
  140.9000  136.6767  154.0156 C   0  0  0  0  0  0  0  0  0  0  0  0
  142.0897  137.5886  153.6883 C   0  0  1  0  0  0  0  0  0  0  0  0
  142.6355  138.0705  154.8987 O   0  0  0  0  0  0  0  0  0  0  0  0
  145.3967  133.3406  151.6118 C   0  0  0  0  0  0  0  0  0  0  0  0
  145.2052  132.1862  150.6508 C   0  0  2  0  0  0  0  0  0  0  0  0
  146.3764  131.9775  149.8838 O   0  0  0  0  0  0  0  0  0  0  0  0
  143.1047  132.4945  150.3571 H   0  0  0  0  0  0  0  0  0  0  0  0
  145.9471  134.9709  150.2386 H   0  0  0  0  0  0  0  0  0  0  0  0
  141.6990  138.4634  153.1672 H   0  0  0  0  0  0  0  0  0  0  0  0
  144.9654  131.2591  151.1721 H   0  0  0  0  0  0  0  0  0  0  0  0
  142.0119  131.6902  148.6993 H   0  0  0  0  0  0  0  0  0  0  0  0
  144.2869  131.0753  148.3372 H   0  0  0  0  0  0  0  0  0  0  0  0
  144.4342  132.6892  147.6738 H   0  0  0  0  0  0  0  0  0  0  0  0
  145.7345  137.2485  150.9846 H   0  0  0  0  0  0  0  0  0  0  0  0
  141.2313  133.4163  153.6542 H   0  0  0  0  0  0  0  0  0  0  0  0
  140.7797  135.0257  155.2238 H   0  0  0  0  0  0  0  0  0  0  0  0
  140.2674  136.5903  153.1308 H   0  0  0  0  0  0  0  0  0  0  0  0
  140.2749  137.1192  154.7918 H   0  0  0  0  0  0  0  0  0  0  0  0
  143.4870  138.4398  154.7223 H   0  0  0  0  0  0  0  0  0  0  0  0
  146.3996  133.4192  152.0329 H   0  0  0  0  0  0  0  0  0  0  0  0
  144.6755  133.2721  152.4270 H   0  0  0  0  0  0  0  0  0  0  0  0
  147.0459  131.6253  150.4507 H   0  0  0  0  0  0  0  0  0  0  0  0
  144.2949  138.7150  152.4284 H   0  0  0  0  0  0  0  0  0  0  0  0
  1  2  1  0  0  0  0
  1 24  1  0  0  0  0
  2  3  1  0  0  0  0
  2 25  1  0  0  0  0
  2 26  1  0  0  0  0
  3 20  1  0  0  0  0
  3 18  1  0  0  0  0
  3  4  1  0  0  0  0
  4  5  1  0  0  0  0
  5 21  1  0  0  0  0
  5  6  1  0  0  0  0
  5 17  1  0  0  0  0
  6 10  1  0  0  0  0
  6  7  1  0  0  0  0
  7  8  2  0  0  0  0
  7 27  1  0  0  0  0
  8  9  1  0  0  0  0
  8 36  1  0  0  0  0
  9 15  1  0  0  0  0
  9 10  2  0  0  0  0
 10 11  1  0  0  0  0
 11 12  2  0  0  0  0
 12 13  1  0  0  0  0
 12 28  1  0  0  0  0
 13 14  1  0  0  0  0
 13 29  1  0  0  0  0
 14 15  1  0  0  0  0
 14 30  1  0  0  0  0
 14 31  1  0  0  0  0
 15 22  1  0  0  0  0
 15 16  1  0  0  0  0
 16 32  1  0  0  0  0
 17 18  1  0  0  0  0
 17 33  1  0  0  0  0
 17 34  1  0  0  0  0
 18 23  1  0  0  0  0
 18 19  1  0  0  0  0
 19 35  1  0  0  0  0
M  CHG  1   8   1
M  END
> <s_m_source_file>
AV-unprocessed.smi

> <i_m_source_file_index>
157

> <i_lp_mmshare_version>
43012

> <i_f3d_flags>
0

> <s_epik_input>
W09IXVtDSDJdW0NASF0xT1tDQEhdKFtDSDJdW0NAQEhdMVtPSF0pbihbY0hdbjIpYyhjMjMpTj1bQ0hdW05IXVtDSDJdW0NASF0zW09IXQ==

> <s_epik_cmdline>
J2VwaWtfcHl0aG9uJywgJy1waCcsICc3LjAnLCAnLXRuJywgJzgnLCAnLW1hJywgJzIwMCcsICctbWV0YWxfYmluZGluZycsICctaW1hZScsICc8aW5maWxlLm1hZT4nLCAnLW9tYWUnLCAnPG91dGZpbGUubWFlPic=

> <r_epik_Ionization_Penalty>
1.68594

> <r_epik_Ionization_Penalty_Charging>
0

> <r_epik_Ionization_Penalty_Neutral>
1.68594

> <r_epik_State_Penalty>
1.79006

> <r_epik_Charging_Adjusted_Penalty>
1.79006

> <i_epik_Tot_Q>
1

> <i_epik_Tot_abs_Q>
1

> <r_epik_Metal_State_Penalty>
5.85324

> <b_epik_Metal_Only>
0

> <s_epik_Chemistry_Notes>
This compound has an imine and may undergo hydrolysis. This compound contains an acetal/aminal-like group ( X-CH(R)-Y where X, Y are N, S, or O) that may be acid/base labile, releasing an aldehyde.

> <s_lp_Force_Field>
OPLS_2005

> <r_lp_Energy>
54.692

> <b_lp_Chiralities_Consistent>
1

> <s_lp_Variant>
AV-unprocessed.smi:157-18

> <Gold.Version>
5.8.1

> <Gold.Id.Protein>
6NUR|6NUR_protein|mol2

> <Gold.PLP.Fitness>
49.1225

> <Gold.PLP.PLP>
-34.1849

> <Gold.PLP.part.hbond>
-7.5064

> <Gold.PLP.part.metal>
0.0000

> <Gold.PLP.part.buried>
-2.0799

> <Gold.PLP.part.nonpolar>
-27.5213

> <Gold.PLP.part.repulsive>
1.6681

> <Gold.PLP.ligand.clash>
0.0000

> <Gold.PLP.ligand.torsion>
0.3906

> <Gold.PLP.Chemscore.Hbond>
4.5721

> <Gold.PLP.Chemscore.CHOScore>
0.6662

> <Gold.PLP.Chemscore.Metal>
0.0000

> <Gold.Chemscore.Hbonds>
donor molecule, donor type, donor heavy atom, donor atom, acceptor molecule, acceptor atom, score
      L1  H     1    24       P1 10952  1.00
      L1  H     8    36       P1 10175  1.98
      L1  H    13    29       P1 11000  1.00
      L1  H    19    35       P1 10747  0.65
      L1  C    12    28       P1 10957  0.70

> <Gold.PLP.Chemscore.Internal.Correction>
0.0040

> <Gold.Rescore>
     Score         DG    S(hbond)    S(metal)    S(lipo)     H(rot)  DE(clash)    DE(int)     intcor
     10.16     -13.94       3.46        0.00      53.62       3.67       3.38       0.40       ----

> <Gold.Chemscore.Fitness>
10.1570

> <Gold.Chemscore.DG>
-13.9400

> <Gold.Chemscore.ZeroCoef>
-5.4800

> <Gold.Chemscore.Hbond>
3.4644

> <Gold.Chemscore.Metal>
0.0000

> <Gold.Chemscore.Lipo>
53.6226

> <Gold.Chemscore.Internal_Hbond>
0.0000

> <Gold.Chemscore.DEClash>
3.3832

> <Gold.Chemscore.DEInternal>
0.3998

> <Gold.Chemscore.Rot>
3.6659

> <Gold.Chemscore.Internal.Correction>
   9.000000E+99

> <Gold.Chemscore.Hbonds>
donor molecule, donor type, donor heavy atom, donor atom, acceptor molecule, acceptor atom, score
      L1  H     1    24       P1 10952  0.96
      L1  H     8    36       P1 10175  0.93
      L1  H    13    29       P1 11000  0.78
      L1  H    19    35       P1 10747  0.63

> <Gold.Chemscore.Hbond.Weighted>
-11.5710

> <Gold.Chemscore.Metal.Weighted>
-0.0000

> <Gold.Chemscore.Lipo.Weighted>
-6.2738

> <Gold.Chemscore.Internal_Hbond.Weighted>
0.0000

> <Gold.Chemscore.DEClash.Weighted>
3.3832

> <Gold.Chemscore.DEInternal.Weighted>
0.3998

> <Gold.Chemscore.Rot.Weighted>
9.3848

> <Gold.Chemscore.Internal.Correction.Weighted>
   9.000000E+99

> <Gold.Protein.RotatedTorsions>
[ 6907 6896 6895 6894 ] final -114.14 input  -60.11 | X-H torsion
[ 7974 7965 7964 7962 ] final  125.64 input  175.53 | X-H torsion
[ 8008 7997 7996 7995 ] final   56.93 input   59.86 | X-H torsion
[ 10167 10162 10161 10158 ] final  -71.27 input  -65.29 | X-H torsion
[ 10718 10713 10712 10709 ] final   64.32 input   66.30 | X-H torsion
[ 10763 10752 10751 10750 ] final  -46.69 input  -60.55 | X-H torsion
[ 11005 11000 10999 10996 ] final -175.76 input  -57.11 | X-H torsion

> <Gold.Protein.ActiveResidues>
 VAL166  LYS551  ARG553  GLY616  TRP617  ASP618  TYR619  PRO620  LYS621  CYS622 
 ASP623  PHE694  ASN695  SER759  ASP760  ASP761  ALA762  ILE779  LEU786  VAL792 
 PHE793  MET794  SER795  GLU796  ALA797  LYS798  CYS799  TRP800  GLU811  SER814 

> <Gold.Protein.RotatedAtoms>
  150.7880  133.8844  159.3295 H   0  0  0  0  0  0  0  0  0  0  0  0  # atno 6907 bound_to 6896
  151.6690  135.0977  160.0204 H   0  0  0  0  0  0  0  0  0  0  0  0  # atno 6908 bound_to 6896
  152.3948  133.6692  159.6302 H   0  0  0  0  0  0  0  0  0  0  0  0  # atno 6909 bound_to 6896
  145.0707  139.3732  143.4959 H   0  0  0  0  0  0  0  0  0  0  0  0  # atno 7974 bound_to 7965
  155.5255  140.3481  155.4415 H   0  0  0  0  0  0  0  0  0  0  0  0  # atno 8008 bound_to 7997
  156.0755  140.1373  156.9804 H   0  0  0  0  0  0  0  0  0  0  0  0  # atno 8009 bound_to 7997
  154.4551  140.0957  156.6708 H   0  0  0  0  0  0  0  0  0  0  0  0  # atno 8010 bound_to 7997
  140.5286  143.2324  151.7302 H   0  0  0  0  0  0  0  0  0  0  0  0  # atno 10167 bound_to 10162
  157.6032  130.9153  149.9830 H   0  0  0  0  0  0  0  0  0  0  0  0  # atno 10718 bound_to 10713
  154.0492  135.6633  153.4798 H   0  0  0  0  0  0  0  0  0  0  0  0  # atno 10763 bound_to 10752
  153.0470  135.5108  154.7767 H   0  0  0  0  0  0  0  0  0  0  0  0  # atno 10764 bound_to 10752
  154.6768  135.3038  154.9633 H   0  0  0  0  0  0  0  0  0  0  0  0  # atno 10765 bound_to 10752
  140.4597  134.6266  157.4837 H   0  0  0  0  0  0  0  0  0  0  0  0  # atno 11005 bound_to 11000
  146.3528  140.0451  142.8640 LP  0  0  0  0  0  0  0  0  0  0  0  0  # atno 17320 bound_to 7965
  145.1295  140.9510  143.4552 LP  0  0  0  0  0  0  0  0  0  0  0  0  # atno 17321 bound_to 7965
  139.4946  144.4148  152.0042 LP  0  0  0  0  0  0  0  0  0  0  0  0  # atno 17342 bound_to 10162
  140.3248  144.3385  150.6001 LP  0  0  0  0  0  0  0  0  0  0  0  0  # atno 17343 bound_to 10162
  156.1110  130.3650  150.0049 LP  0  0  0  0  0  0  0  0  0  0  0  0  # atno 17370 bound_to 10713
  156.8147  130.9337  151.3643 LP  0  0  0  0  0  0  0  0  0  0  0  0  # atno 17371 bound_to 10713
  139.9953  134.6920  155.9619 LP  0  0  0  0  0  0  0  0  0  0  0  0  # atno 17394 bound_to 11000
  141.1627  133.6538  156.4373 LP  0  0  0  0  0  0  0  0  0  0  0  0  # atno 17395 bound_to 11000

$$$$
