AV-unprocessed.smi:527|AV-procd|sdf|2818|dock9
  -GOLD-   2262023303D 1   1.00000     0.00000
 Structure written by MMmdl.
 42 43  0  0  0  0  0  0  0  0  1 V2000
  149.4072  141.1482  156.6587 C   0  0  0  0  0  0  0  0  0  0  0  0
  150.0893  140.8259  155.3132 C   0  0  1  0  0  0  0  0  0  0  0  0
  151.4557  140.1414  155.5201 C   0  0  0  0  0  0  0  0  0  0  0  0
  151.3113  138.6869  155.9949 C   0  0  0  0  0  0  0  0  0  0  0  0
  150.4399  137.8720  155.0294 C   0  0  0  0  0  0  0  0  0  0  0  0
  149.0611  138.5273  154.8049 C   0  0  2  0  0  0  0  0  0  0  0  0
  148.3065  137.7517  153.8221 N   0  0  0  0  0  0  0  0  0  0  0  0
  146.9795  137.5560  153.8403 C   0  0  0  0  0  0  0  0  0  0  0  0
  146.2681  137.8286  154.8098 O   0  0  0  0  0  0  0  0  0  0  0  0
  146.5524  137.0328  152.6745 N   0  0  0  0  0  0  0  0  0  0  0  0
  145.2779  136.8312  152.2816 C   0  0  0  0  0  0  0  0  0  0  0  0
  144.2809  137.1061  152.9548 O   0  0  0  0  0  0  0  0  0  0  0  0
  145.1281  136.2163  150.8836 C   0  0  0  0  0  0  0  0  0  0  0  0
  145.3273  134.7767  150.8694 N   0  0  0  0  0  0  0  0  0  0  0  0
  146.5022  134.0897  151.1476 C   0  0  0  0  0  0  0  0  0  0  0  0
  146.2151  132.7499  151.0148 C   0  0  0  0  0  0  0  0  0  0  0  0
  144.8787  132.5898  150.6563 N   0  0  0  0  0  0  0  0  0  0  0  0
  144.4176  133.8322  150.5904 C   0  0  0  0  0  0  0  0  0  0  0  0
  149.2112  139.9980  154.3367 C   0  0  1  0  0  0  0  0  0  0  0  0
  147.8587  140.6774  154.0433 C   0  0  0  0  0  0  0  0  0  0  0  0
  149.1131  140.2487  157.1984 H   0  0  0  0  0  0  0  0  0  0  0  0
  148.5141  141.7571  156.5196 H   0  0  0  0  0  0  0  0  0  0  0  0
  150.0770  141.7136  157.3071 H   0  0  0  0  0  0  0  0  0  0  0  0
  150.2893  141.7865  154.8362 H   0  0  0  0  0  0  0  0  0  0  0  0
  152.0091  140.1537  154.5802 H   0  0  0  0  0  0  0  0  0  0  0  0
  152.0587  140.7074  156.2311 H   0  0  0  0  0  0  0  0  0  0  0  0
  152.2961  138.2266  156.0798 H   0  0  0  0  0  0  0  0  0  0  0  0
  150.8764  138.6606  156.9943 H   0  0  0  0  0  0  0  0  0  0  0  0
  150.9599  137.7734  154.0754 H   0  0  0  0  0  0  0  0  0  0  0  0
  150.3169  136.8603  155.4179 H   0  0  0  0  0  0  0  0  0  0  0  0
  148.5135  138.5237  155.7489 H   0  0  0  0  0  0  0  0  0  0  0  0
  148.8382  137.3405  153.0689 H   0  0  0  0  0  0  0  0  0  0  0  0
  147.2687  136.7606  152.0179 H   0  0  0  0  0  0  0  0  0  0  0  0
  144.1325  136.4358  150.4956 H   0  0  0  0  0  0  0  0  0  0  0  0
  145.8483  136.6742  150.2044 H   0  0  0  0  0  0  0  0  0  0  0  0
  147.4191  134.5960  151.4117 H   0  0  0  0  0  0  0  0  0  0  0  0
  146.8622  131.8957  151.1494 H   0  0  0  0  0  0  0  0  0  0  0  0
  143.3931  134.0606  150.3355 H   0  0  0  0  0  0  0  0  0  0  0  0
  149.7490  139.9753  153.3873 H   0  0  0  0  0  0  0  0  0  0  0  0
  147.1928  140.6358  154.9053 H   0  0  0  0  0  0  0  0  0  0  0  0
  147.3433  140.1992  153.2104 H   0  0  0  0  0  0  0  0  0  0  0  0
  147.9955  141.7254  153.7755 H   0  0  0  0  0  0  0  0  0  0  0  0
  1  2  1  0  0  0  0
  1 21  1  0  0  0  0
  1 22  1  0  0  0  0
  1 23  1  0  0  0  0
  2 19  1  0  0  0  0
  2  3  1  0  0  0  0
  2 24  1  0  0  0  0
  3  4  1  0  0  0  0
  3 25  1  0  0  0  0
  3 26  1  0  0  0  0
  4  5  1  0  0  0  0
  4 27  1  0  0  0  0
  4 28  1  0  0  0  0
  5  6  1  0  0  0  0
  5 29  1  0  0  0  0
  5 30  1  0  0  0  0
  6  7  1  0  0  0  0
  6 19  1  0  0  0  0
  6 31  1  0  0  0  0
  7  8  1  0  0  0  0
  7 32  1  0  0  0  0
  8  9  2  0  0  0  0
  8 10  1  0  0  0  0
 10 11  1  0  0  0  0
 10 33  1  0  0  0  0
 11 12  2  0  0  0  0
 11 13  1  0  0  0  0
 13 14  1  0  0  0  0
 13 34  1  0  0  0  0
 13 35  1  0  0  0  0
 14 18  1  0  0  0  0
 14 15  1  0  0  0  0
 15 16  2  0  0  0  0
 15 36  1  0  0  0  0
 16 17  1  0  0  0  0
 16 37  1  0  0  0  0
 17 18  2  0  0  0  0
 18 38  1  0  0  0  0
 19 20  1  0  0  0  0
 19 39  1  0  0  0  0
 20 40  1  0  0  0  0
 20 41  1  0  0  0  0
 20 42  1  0  0  0  0
M  END
> <s_m_source_file>
AV-unprocessed.smi

> <i_m_source_file_index>
527

> <i_lp_mmshare_version>
43012

> <i_f3d_flags>
0

> <s_epik_input>
W0NIM11bQ0BASF0xW0NIMl1bQ0gyXVtDSDJdW0NASF0oW0NASF0xW0NIM10pW05IXUMoPU8pW05IXUMoPU8pW0NIMl1uMltjSF1bY0hdbltjSF0y

> <s_epik_cmdline>
J2VwaWtfcHl0aG9uJywgJy1waCcsICc3LjAnLCAnLXRuJywgJzgnLCAnLW1hJywgJzIwMCcsICctbWV0YWxfYmluZGluZycsICctaW1hZScsICc8aW5maWxlLm1hZT4nLCAnLW9tYWUnLCAnPG91dGZpbGUubWFlPic=

> <r_lp_tautomer_probability>
1

> <r_epik_Ionization_Penalty>
0.172132

> <r_epik_Ionization_Penalty_Charging>
0.172105

> <r_epik_Ionization_Penalty_Neutral>
2.71747e-05

> <r_epik_State_Penalty>
0.161503

> <r_epik_Charging_Adjusted_Penalty>
0.333607

> <i_epik_Tot_Q>
0

> <i_epik_Tot_abs_Q>
0

> <r_epik_Metal_State_Penalty>
0.124763

> <b_epik_Metal_Only>
0

> <s_lp_Force_Field>
OPLS_2005

> <r_lp_Energy>
17.6389

> <b_lp_Chiralities_Consistent>
1

> <s_lp_Variant>
AV-unprocessed.smi:527-4

> <Gold.Version>
5.8.1

> <Gold.Id.Protein>
6NUR|6NUR_protein|mol2

> <Gold.PLP.Fitness>
43.4608

> <Gold.PLP.PLP>
-30.1110

> <Gold.PLP.part.hbond>
-2.0000

> <Gold.PLP.part.metal>
0.0000

> <Gold.PLP.part.buried>
-0.2937

> <Gold.PLP.part.nonpolar>
-27.7312

> <Gold.PLP.part.repulsive>
0.4039

> <Gold.PLP.ligand.clash>
0.0000

> <Gold.PLP.ligand.torsion>
0.7174

> <Gold.PLP.Chemscore.Hbond>
1.9280

> <Gold.PLP.Chemscore.CHOScore>
2.9955

> <Gold.PLP.Chemscore.Metal>
0.0000

> <Gold.Chemscore.Hbonds>
donor molecule, donor type, donor heavy atom, donor atom, acceptor molecule, acceptor atom, score
      L1  H     7    32       P1  7948  1.00
      L1  H    10    33       P1  7948  0.91
      L1  C    15    36       P1  7948  1.00
      L1  C    16    37       P1 10747  1.00
      L1  C    18    38       P1 10186  0.99

> <Gold.PLP.Chemscore.Internal.Correction>
0.0142

> <Gold.Rescore>
     Score         DG    S(hbond)    S(metal)    S(lipo)     H(rot)  DE(clash)    DE(int)     intcor
     13.23     -15.45       1.92        0.00      66.69       1.66       0.18       2.04       ----

> <Gold.Chemscore.Fitness>
13.2336

> <Gold.Chemscore.DG>
-15.4524

> <Gold.Chemscore.ZeroCoef>
-5.4800

> <Gold.Chemscore.Hbond>
1.9241

> <Gold.Chemscore.Metal>
0.0000

> <Gold.Chemscore.Lipo>
66.6921

> <Gold.Chemscore.Internal_Hbond>
0.0000

> <Gold.Chemscore.DEClash>
0.1825

> <Gold.Chemscore.DEInternal>
2.0364

> <Gold.Chemscore.Rot>
1.6629

> <Gold.Chemscore.Internal.Correction>
   9.000000E+99

> <Gold.Chemscore.Hbonds>
donor molecule, donor type, donor heavy atom, donor atom, acceptor molecule, acceptor atom, score
      L1  H     7    32       P1  7948  0.95
      L1  H    10    33       P1  7948  0.90

> <Gold.Chemscore.Hbond.Weighted>
-6.4263

> <Gold.Chemscore.Metal.Weighted>
-0.0000

> <Gold.Chemscore.Lipo.Weighted>
-7.8030

> <Gold.Chemscore.Internal_Hbond.Weighted>
0.0000

> <Gold.Chemscore.DEClash.Weighted>
0.1825

> <Gold.Chemscore.DEInternal.Weighted>
2.0364

> <Gold.Chemscore.Rot.Weighted>
4.2569

> <Gold.Chemscore.Internal.Correction.Weighted>
   9.000000E+99

> <Gold.Protein.RotatedTorsions>
[ 6907 6896 6895 6894 ] final  138.36 input  -60.11 | X-H torsion
[ 7974 7965 7964 7962 ] final -141.91 input  175.53 | X-H torsion
[ 8008 7997 7996 7995 ] final -111.76 input   59.86 | X-H torsion
[ 10167 10162 10161 10158 ] final  -49.99 input  -65.29 | X-H torsion
[ 10718 10713 10712 10709 ] final   -1.40 input   66.30 | X-H torsion
[ 10763 10752 10751 10750 ] final   60.14 input  -60.55 | X-H torsion
[ 11005 11000 10999 10996 ] final   55.07 input  -57.11 | X-H torsion

> <Gold.Protein.ActiveResidues>
 VAL166  LYS551  ARG553  GLY616  TRP617  ASP618  TYR619  PRO620  LYS621  CYS622 
 ASP623  PHE694  ASN695  SER759  ASP760  ASP761  ALA762  ILE779  LEU786  VAL792 
 PHE793  MET794  SER795  GLU796  ALA797  LYS798  CYS799  TRP800  GLU811  SER814 

> <Gold.Protein.RotatedAtoms>
  152.2675  133.5352  159.5418 H   0  0  0  0  0  0  0  0  0  0  0  0  # atno 6907 bound_to 6896
  150.7147  134.0744  159.3885 H   0  0  0  0  0  0  0  0  0  0  0  0  # atno 6908 bound_to 6896
  151.8660  135.0507  160.0525 H   0  0  0  0  0  0  0  0  0  0  0  0  # atno 6909 bound_to 6896
  144.8484  140.6023  143.5406 H   0  0  0  0  0  0  0  0  0  0  0  0  # atno 7974 bound_to 7965
  154.9948  140.0395  157.2335 H   0  0  0  0  0  0  0  0  0  0  0  0  # atno 8008 bound_to 7997
  154.7596  140.2782  155.6202 H   0  0  0  0  0  0  0  0  0  0  0  0  # atno 8009 bound_to 7997
  156.2901  140.2631  156.2371 H   0  0  0  0  0  0  0  0  0  0  0  0  # atno 8010 bound_to 7997
  140.6659  143.2675  151.4295 H   0  0  0  0  0  0  0  0  0  0  0  0  # atno 10167 bound_to 10162
  156.8062  130.5409  149.5715 H   0  0  0  0  0  0  0  0  0  0  0  0  # atno 10718 bound_to 10713
  152.9913  135.5547  154.5825 H   0  0  0  0  0  0  0  0  0  0  0  0  # atno 10763 bound_to 10752
  154.5203  135.2807  155.1270 H   0  0  0  0  0  0  0  0  0  0  0  0  # atno 10764 bound_to 10752
  154.2626  135.6378  153.5333 H   0  0  0  0  0  0  0  0  0  0  0  0  # atno 10765 bound_to 10752
  140.0636  134.5567  155.9124 H   0  0  0  0  0  0  0  0  0  0  0  0  # atno 11005 bound_to 11000
  145.4551  139.1519  143.3897 LP  0  0  0  0  0  0  0  0  0  0  0  0  # atno 17320 bound_to 7965
  146.2763  140.4678  142.8794 LP  0  0  0  0  0  0  0  0  0  0  0  0  # atno 17321 bound_to 7965
  139.5908  144.1504  152.2085 LP  0  0  0  0  0  0  0  0  0  0  0  0  # atno 17342 bound_to 10162
  140.0858  144.5662  150.7090 LP  0  0  0  0  0  0  0  0  0  0  0  0  # atno 17343 bound_to 10162
  156.1071  130.6013  150.9989 LP  0  0  0  0  0  0  0  0  0  0  0  0  # atno 17370 bound_to 10713
  157.6529  131.0894  150.8012 LP  0  0  0  0  0  0  0  0  0  0  0  0  # atno 17371 bound_to 10713
  141.1983  133.6601  156.5788 LP  0  0  0  0  0  0  0  0  0  0  0  0  # atno 17394 bound_to 11000
  140.3732  134.7587  157.4612 LP  0  0  0  0  0  0  0  0  0  0  0  0  # atno 17395 bound_to 11000

$$$$
