AV-unprocessed.smi:118|AV-procd|sdf|1131|dock5
  -GOLD-   2262018263D 1   1.00000     0.00000
 Structure written by MMmdl.
 41 44  0  0  0  0  0  0  0  0  1 V2000
  151.2678  139.9429  155.4457 O   0  0  0  0  0  0  0  0  0  0  0  0
  151.1855  139.2603  156.4677 C   0  0  0  0  0  0  0  0  0  0  0  0
  150.7503  137.7880  156.3921 C   0  0  0  0  0  0  0  0  0  0  0  0
  149.5162  137.4933  157.1535 N   0  0  0  0  0  0  0  0  0  0  0  0
  148.2633  137.7115  156.5282 C   0  0  0  0  0  0  0  0  0  0  0  0
  148.1898  138.1574  155.3822 O   0  0  0  0  0  0  0  0  0  0  0  0
  147.0929  137.3621  157.3251 C   0  0  0  0  0  0  0  0  0  0  0  0
  145.8630  137.5204  156.8072 F   0  0  0  0  0  0  0  0  0  0  0  0
  147.2249  136.8756  158.5761 C   0  0  0  0  0  0  0  0  0  0  0  0
  148.4512  136.6881  159.1829 N   0  0  0  0  0  0  0  0  0  0  0  0
  148.5048  136.0878  160.5688 C   0  0  2  0  0  0  0  0  0  0  0  0
  147.8036  134.7205  160.6776 C   0  0  0  0  0  0  0  0  0  0  0  0
  146.7527  134.9614  161.7490 C   0  0  0  0  0  0  0  0  0  0  0  0
  147.2951  136.1791  162.4890 C   0  0  0  0  0  0  0  0  0  0  0  0
  147.8740  136.9598  161.4553 O   0  0  0  0  0  0  0  0  0  0  0  0
  149.6357  136.9674  158.4625 C   0  0  0  0  0  0  0  0  0  0  0  0
  150.7444  136.7520  158.9549 O   0  0  0  0  0  0  0  0  0  0  0  0
  151.4296  139.7179  157.7085 N   0  0  0  0  0  0  0  0  0  0  0  0
  151.8467  141.0181  158.1071 C   0  0  0  0  0  0  0  0  0  0  0  0
  151.4860  142.2009  157.4117 C   0  0  0  0  0  0  0  0  0  0  0  0
  151.9473  143.4644  157.8442 C   0  0  0  0  0  0  0  0  0  0  0  0
  152.7858  143.5769  158.9716 C   0  0  0  0  0  0  0  0  0  0  0  0
  153.1607  142.4057  159.6541 C   0  0  0  0  0  0  0  0  0  0  0  0
  152.7018  141.1386  159.2248 C   0  0  0  0  0  0  0  0  0  0  0  0
  153.1697  140.0858  160.0096 N   0  0  0  0  0  0  0  0  0  0  0  0
  154.0103  140.8539  161.0297 S   0  0  0  0  0  0  0  0  0  0  0  0
  153.9856  142.3607  160.7732 N   0  0  0  0  0  0  0  0  0  0  0  0
  150.6309  137.5142  155.3426 H   0  0  0  0  0  0  0  0  0  0  0  0
  151.5799  137.1664  156.7326 H   0  0  0  0  0  0  0  0  0  0  0  0
  146.3261  136.6263  159.1209 H   0  0  0  0  0  0  0  0  0  0  0  0
  149.5626  136.0185  160.8264 H   0  0  0  0  0  0  0  0  0  0  0  0
  147.3782  134.3900  159.7296 H   0  0  0  0  0  0  0  0  0  0  0  0
  148.5349  133.9807  161.0044 H   0  0  0  0  0  0  0  0  0  0  0  0
  145.7945  135.2030  161.2885 H   0  0  0  0  0  0  0  0  0  0  0  0
  146.6048  134.1003  162.4011 H   0  0  0  0  0  0  0  0  0  0  0  0
  146.5196  136.7290  163.0224 H   0  0  0  0  0  0  0  0  0  0  0  0
  148.0672  135.8891  163.2035 H   0  0  0  0  0  0  0  0  0  0  0  0
  151.2235  139.0798  158.4634 H   0  0  0  0  0  0  0  0  0  0  0  0
  150.8645  142.1621  156.5304 H   0  0  0  0  0  0  0  0  0  0  0  0
  151.6581  144.3524  157.3019 H   0  0  0  0  0  0  0  0  0  0  0  0
  153.1379  144.5438  159.2999 H   0  0  0  0  0  0  0  0  0  0  0  0
  1  2  2  0  0  0  0
  2  3  1  0  0  0  0
  2 18  1  0  0  0  0
  3  4  1  0  0  0  0
  3 28  1  0  0  0  0
  3 29  1  0  0  0  0
  4 16  1  0  0  0  0
  4  5  1  0  0  0  0
  5  6  2  0  0  0  0
  5  7  1  0  0  0  0
  7  8  1  0  0  0  0
  7  9  2  0  0  0  0
  9 10  1  0  0  0  0
  9 30  1  0  0  0  0
 10 11  1  0  0  0  0
 10 16  1  0  0  0  0
 11 15  1  0  0  0  0
 11 12  1  0  0  0  0
 11 31  1  0  0  0  0
 12 13  1  0  0  0  0
 12 32  1  0  0  0  0
 12 33  1  0  0  0  0
 13 14  1  0  0  0  0
 13 34  1  0  0  0  0
 13 35  1  0  0  0  0
 14 15  1  0  0  0  0
 14 36  1  0  0  0  0
 14 37  1  0  0  0  0
 16 17  2  0  0  0  0
 18 19  1  0  0  0  0
 18 38  1  0  0  0  0
 19 24  1  0  0  0  0
 19 20  2  0  0  0  0
 20 21  1  0  0  0  0
 20 39  1  0  0  0  0
 21 22  2  0  0  0  0
 21 40  1  0  0  0  0
 22 23  1  0  0  0  0
 22 41  1  0  0  0  0
 23 27  1  0  0  0  0
 23 24  2  0  0  0  0
 24 25  1  0  0  0  0
 25 26  2  0  0  0  0
 26 27  2  0  0  0  0
M  END
> <s_m_source_file>
AV-unprocessed.smi

> <i_m_source_file_index>
118

> <i_lp_mmshare_version>
43012

> <i_f3d_flags>
0

> <s_epik_input>
TjE9Uz1OYyhjMTIpYyhbY0hdW2NIXVtjSF0yKVtOSF1DKD1PKVtDSDJdbjNjKD1PKWMoRilbY0hdbihjMz1PKVtDQEBIXTRbQ0gyXVtDSDJdW0NIMl1PNA==

> <s_epik_cmdline>
J2VwaWtfcHl0aG9uJywgJy1waCcsICc3LjAnLCAnLXRuJywgJzgnLCAnLW1hJywgJzIwMCcsICctbWV0YWxfYmluZGluZycsICctaW1hZScsICc8aW5maWxlLm1hZT4nLCAnLW9tYWUnLCAnPG91dGZpbGUubWFlPic=

> <r_lp_tautomer_probability>
1

> <r_epik_Ionization_Penalty>
1.81156e-06

> <r_epik_Ionization_Penalty_Charging>
3.88729e-08

> <r_epik_Ionization_Penalty_Neutral>
1.77269e-06

> <r_epik_State_Penalty>
-0

> <r_epik_Charging_Adjusted_Penalty>
3.88729e-08

> <i_epik_Tot_Q>
0

> <i_epik_Tot_abs_Q>
0

> <r_epik_Metal_State_Penalty>
-0

> <b_epik_Metal_Only>
0

> <s_epik_Chemistry_Notes>
This compound contains an acetal/aminal-like group ( X-CH(R)-Y where X, Y are N, S, or O) that may be acid/base labile, releasing an aldehyde.

> <s_lp_Force_Field>
OPLS_2005

> <r_lp_Energy>
47.7675

> <b_lp_Chiralities_Consistent>
1

> <s_lp_Variant>
AV-unprocessed.smi:118-1

> <Gold.Version>
5.8.1

> <Gold.Id.Protein>
6NUR|6NUR_protein|mol2

> <Gold.PLP.Fitness>
51.5215

> <Gold.PLP.PLP>
-41.7627

> <Gold.PLP.part.hbond>
-3.8930

> <Gold.PLP.part.metal>
0.0000

> <Gold.PLP.part.buried>
-5.7590

> <Gold.PLP.part.nonpolar>
-32.8468

> <Gold.PLP.part.repulsive>
0.1527

> <Gold.PLP.ligand.clash>
0.0000

> <Gold.PLP.ligand.torsion>
0.5776

> <Gold.PLP.Chemscore.Hbond>
3.6285

> <Gold.PLP.Chemscore.CHOScore>
0.0000

> <Gold.PLP.Chemscore.Metal>
0.0000

> <Gold.Chemscore.Hbonds>
donor molecule, donor type, donor heavy atom, donor atom, acceptor molecule, acceptor atom, score
      P1  H  6896  6907       L1    17  1.00
      P1  H  6931  6943       L1    15  1.00
      P1  H  6934  6947       L1    15  0.38
      P1  H  7989  7998       L1     1  0.62

> <Gold.PLP.Chemscore.Internal.Correction>
0.0286

> <Gold.Rescore>
     Score         DG    S(hbond)    S(metal)    S(lipo)     H(rot)  DE(clash)    DE(int)     intcor
     18.92     -20.67       2.82        0.00      88.63       1.80       0.14       1.62       ----

> <Gold.Chemscore.Fitness>
18.9192

> <Gold.Chemscore.DG>
-20.6724

> <Gold.Chemscore.ZeroCoef>
-5.4800

> <Gold.Chemscore.Hbond>
2.8218

> <Gold.Chemscore.Metal>
0.0000

> <Gold.Chemscore.Lipo>
88.6313

> <Gold.Chemscore.Internal_Hbond>
0.0000

> <Gold.Chemscore.DEClash>
0.1375

> <Gold.Chemscore.DEInternal>
1.6156

> <Gold.Chemscore.Rot>
1.7977

> <Gold.Chemscore.Internal.Correction>
   9.000000E+99

> <Gold.Chemscore.Hbonds>
donor molecule, donor type, donor heavy atom, donor atom, acceptor molecule, acceptor atom, score
      P1  H  6896  6907       L1    17  0.95
      P1  H  6931  6943       L1    15  0.67
      P1  H  6934  6947       L1    15  0.38
      P1  H  7989  7998       L1     1  0.62

> <Gold.Chemscore.Hbond.Weighted>
-9.4247

> <Gold.Chemscore.Metal.Weighted>
-0.0000

> <Gold.Chemscore.Lipo.Weighted>
-10.3699

> <Gold.Chemscore.Internal_Hbond.Weighted>
0.0000

> <Gold.Chemscore.DEClash.Weighted>
0.1375

> <Gold.Chemscore.DEInternal.Weighted>
1.6156

> <Gold.Chemscore.Rot.Weighted>
4.6022

> <Gold.Chemscore.Internal.Correction.Weighted>
   9.000000E+99

> <Gold.Protein.RotatedTorsions>
[ 6907 6896 6895 6894 ] final  -30.94 input  -60.11 | X-H torsion
[ 7974 7965 7964 7962 ] final  147.40 input  175.53 | X-H torsion
[ 8008 7997 7996 7995 ] final  151.59 input   59.86 | X-H torsion
[ 10167 10162 10161 10158 ] final   -0.68 input  -65.29 | X-H torsion
[ 10718 10713 10712 10709 ] final   99.67 input   66.30 | X-H torsion
[ 10763 10752 10751 10750 ] final   96.01 input  -60.55 | X-H torsion
[ 11005 11000 10999 10996 ] final  141.09 input  -57.11 | X-H torsion

> <Gold.Protein.ActiveResidues>
 VAL166  LYS551  ARG553  GLY616  TRP617  ASP618  TYR619  PRO620  LYS621  CYS622 
 ASP623  PHE694  ASN695  SER759  ASP760  ASP761  ALA762  ILE779  LEU786  VAL792 
 PHE793  MET794  SER795  GLU796  ALA797  LYS798  CYS799  TRP800  GLU811  SER814 

> <Gold.Protein.RotatedAtoms>
  151.0987  134.9959  159.8437 H   0  0  0  0  0  0  0  0  0  0  0  0  # atno 6907 bound_to 6896
  152.5435  134.1976  159.8709 H   0  0  0  0  0  0  0  0  0  0  0  0  # atno 6908 bound_to 6896
  151.2018  133.4562  159.2629 H   0  0  0  0  0  0  0  0  0  0  0  0  # atno 6909 bound_to 6896
  144.8594  139.6024  143.5937 H   0  0  0  0  0  0  0  0  0  0  0  0  # atno 7974 bound_to 7965
  156.2667  140.2044  156.6199 H   0  0  0  0  0  0  0  0  0  0  0  0  # atno 8008 bound_to 7997
  154.6765  140.0544  157.0245 H   0  0  0  0  0  0  0  0  0  0  0  0  # atno 8009 bound_to 7997
  155.1062  140.3211  155.4537 H   0  0  0  0  0  0  0  0  0  0  0  0  # atno 8010 bound_to 7997
  140.6778  143.6866  150.8062 H   0  0  0  0  0  0  0  0  0  0  0  0  # atno 10167 bound_to 10162
  157.6871  131.0676  150.4984 H   0  0  0  0  0  0  0  0  0  0  0  0  # atno 10718 bound_to 10713
  153.2598  135.4234  155.0883 H   0  0  0  0  0  0  0  0  0  0  0  0  # atno 10763 bound_to 10752
  154.8415  135.3446  154.6393 H   0  0  0  0  0  0  0  0  0  0  0  0  # atno 10764 bound_to 10752
  153.6813  135.7038  153.5174 H   0  0  0  0  0  0  0  0  0  0  0  0  # atno 10765 bound_to 10752
  140.0375  134.9321  157.0780 H   0  0  0  0  0  0  0  0  0  0  0  0  # atno 11005 bound_to 11000
  146.2849  139.6976  142.9203 LP  0  0  0  0  0  0  0  0  0  0  0  0  # atno 17320 bound_to 7965
  145.4342  141.0417  143.2894 LP  0  0  0  0  0  0  0  0  0  0  0  0  # atno 17321 bound_to 7965
  140.0561  143.5201  152.2650 LP  0  0  0  0  0  0  0  0  0  0  0  0  # atno 17342 bound_to 10162
  139.6080  144.7601  151.3016 LP  0  0  0  0  0  0  0  0  0  0  0  0  # atno 17343 bound_to 10162
  156.5307  130.4184  149.6203 LP  0  0  0  0  0  0  0  0  0  0  0  0  # atno 17370 bound_to 10713
  156.3072  130.7209  151.2094 LP  0  0  0  0  0  0  0  0  0  0  0  0  # atno 17371 bound_to 10713
  140.4123  134.1968  155.7163 LP  0  0  0  0  0  0  0  0  0  0  0  0  # atno 17394 bound_to 11000
  141.1865  133.8300  157.1065 LP  0  0  0  0  0  0  0  0  0  0  0  0  # atno 17395 bound_to 11000

$$$$
