AV-unprocessed.smi:190|AV-procd|sdf|1492|dock10
  -GOLD-   2262019313D 1   1.00000     0.00000
 Structure written by MMmdl.
 54 58  0  0  0  0  0  0  0  0  1 V2000
  146.3618  137.9845  152.9852 O   0  0  0  0  0  0  0  0  0  0  0  0
  146.1922  138.3723  154.3344 C   0  0  0  0  0  0  0  0  0  0  0  0
  147.4298  139.1252  154.8922 C   0  0  0  0  0  0  0  0  0  0  0  0
  147.2216  139.5171  156.3901 C   0  0  0  0  0  0  0  0  0  0  0  0
  146.8335  138.4206  157.2672 N   0  0  0  0  0  0  0  0  0  0  0  0
  145.5530  137.9837  157.5251 C   0  0  0  0  0  0  0  0  0  0  0  0
  145.4609  136.9802  158.3539 N   0  0  0  0  0  0  0  0  0  0  0  0
  146.7755  136.7231  158.7200 C   0  0  0  0  0  0  0  0  0  0  0  0
  147.3938  135.7853  159.5902 C   0  0  0  0  0  0  0  0  0  0  0  0
  146.6798  134.8797  160.3033 N   0  0  0  0  0  0  0  0  0  0  0  0
  147.0358  133.4733  160.1419 C   0  0  0  0  0  0  0  0  0  0  0  0
  146.4119  132.7353  161.3348 C   0  0  0  0  0  0  0  0  0  0  0  0
  145.6873  133.8227  162.1328 C   0  0  0  0  0  0  0  0  0  0  0  0
  146.4047  135.1158  161.7255 C   0  0  2  0  0  0  0  0  0  0  0  0
  145.5993  136.3757  162.0274 C   0  0  0  0  0  0  0  0  0  0  0  0
  146.6511  137.4490  162.3233 C   0  0  0  0  0  0  0  0  0  0  0  0
  147.8932  136.7704  162.4816 O   0  0  0  0  0  0  0  0  0  0  0  0
  147.6707  135.3689  162.5623 C   0  0  0  0  0  0  0  0  0  0  0  0
  148.7490  135.8171  159.6907 N   0  0  0  0  0  0  0  0  0  0  0  0
  149.4517  136.7225  159.0047 C   0  0  0  0  0  0  0  0  0  0  0  0
  149.0087  137.6636  158.1691 N   0  0  0  0  0  0  0  0  0  0  0  0
  147.6512  137.6220  158.0489 C   0  0  0  0  0  0  0  0  0  0  0  0
  148.6624  138.2048  154.7041 C   0  0  0  0  0  0  0  0  0  0  0  0
  149.9969  138.9404  154.9244 C   0  0  0  0  0  0  0  0  0  0  0  0
  150.0834  140.0560  154.0480 O   0  0  0  0  0  0  0  0  0  0  0  0
  149.0657  141.0197  154.2852 C   0  0  0  0  0  0  0  0  0  0  0  0
  147.6805  140.3940  154.0384 C   0  0  0  0  0  0  0  0  0  0  0  0
  145.8139  138.5329  152.4445 H   0  0  0  0  0  0  0  0  0  0  0  0
  145.2915  138.9808  154.4151 H   0  0  0  0  0  0  0  0  0  0  0  0
  145.9989  137.4705  154.9166 H   0  0  0  0  0  0  0  0  0  0  0  0
  148.1216  139.9673  156.8064 H   0  0  0  0  0  0  0  0  0  0  0  0
  146.4555  140.2891  156.4705 H   0  0  0  0  0  0  0  0  0  0  0  0
  144.6815  138.4307  157.0693 H   0  0  0  0  0  0  0  0  0  0  0  0
  146.6301  133.1029  159.2001 H   0  0  0  0  0  0  0  0  0  0  0  0
  148.1149  133.3166  160.1253 H   0  0  0  0  0  0  0  0  0  0  0  0
  145.7334  131.9414  161.0218 H   0  0  0  0  0  0  0  0  0  0  0  0
  147.1981  132.2828  161.9405 H   0  0  0  0  0  0  0  0  0  0  0  0
  144.6445  133.8648  161.8138 H   0  0  0  0  0  0  0  0  0  0  0  0
  145.6936  133.6368  163.2073 H   0  0  0  0  0  0  0  0  0  0  0  0
  144.9027  136.6538  161.2379 H   0  0  0  0  0  0  0  0  0  0  0  0
  145.0057  136.2197  162.9293 H   0  0  0  0  0  0  0  0  0  0  0  0
  146.7358  138.1621  161.5030 H   0  0  0  0  0  0  0  0  0  0  0  0
  146.4032  138.0062  163.2271 H   0  0  0  0  0  0  0  0  0  0  0  0
  147.4934  135.1238  163.6103 H   0  0  0  0  0  0  0  0  0  0  0  0
  148.5408  134.7990  162.2352 H   0  0  0  0  0  0  0  0  0  0  0  0
  150.5218  136.6875  159.1449 H   0  0  0  0  0  0  0  0  0  0  0  0
  148.6030  137.3316  155.3534 H   0  0  0  0  0  0  0  0  0  0  0  0
  148.6673  137.8106  153.6869 H   0  0  0  0  0  0  0  0  0  0  0  0
  150.1142  139.2676  155.9573 H   0  0  0  0  0  0  0  0  0  0  0  0
  150.8286  138.2678  154.7146 H   0  0  0  0  0  0  0  0  0  0  0  0
  149.1527  141.4203  155.2957 H   0  0  0  0  0  0  0  0  0  0  0  0
  149.2187  141.8584  153.6059 H   0  0  0  0  0  0  0  0  0  0  0  0
  147.6097  140.1412  152.9797 H   0  0  0  0  0  0  0  0  0  0  0  0
  146.9049  141.1385  154.2215 H   0  0  0  0  0  0  0  0  0  0  0  0
  1  2  1  0  0  0  0
  1 28  1  0  0  0  0
  2  3  1  0  0  0  0
  2 29  1  0  0  0  0
  2 30  1  0  0  0  0
  3 27  1  0  0  0  0
  3  4  1  0  0  0  0
  3 23  1  0  0  0  0
  4  5  1  0  0  0  0
  4 31  1  0  0  0  0
  4 32  1  0  0  0  0
  5 22  1  0  0  0  0
  5  6  1  0  0  0  0
  6  7  2  0  0  0  0
  6 33  1  0  0  0  0
  7  8  1  0  0  0  0
  8 22  2  0  0  0  0
  8  9  1  0  0  0  0
  9 10  1  0  0  0  0
  9 19  2  0  0  0  0
 10 14  1  0  0  0  0
 10 11  1  0  0  0  0
 11 12  1  0  0  0  0
 11 34  1  0  0  0  0
 11 35  1  0  0  0  0
 12 13  1  0  0  0  0
 12 36  1  0  0  0  0
 12 37  1  0  0  0  0
 13 14  1  0  0  0  0
 13 38  1  0  0  0  0
 13 39  1  0  0  0  0
 14 18  1  0  0  0  0
 14 15  1  0  0  0  0
 15 16  1  0  0  0  0
 15 40  1  0  0  0  0
 15 41  1  0  0  0  0
 16 17  1  0  0  0  0
 16 42  1  0  0  0  0
 16 43  1  0  0  0  0
 17 18  1  0  0  0  0
 18 44  1  0  0  0  0
 18 45  1  0  0  0  0
 19 20  1  0  0  0  0
 20 21  2  0  0  0  0
 20 46  1  0  0  0  0
 21 22  1  0  0  0  0
 23 24  1  0  0  0  0
 23 47  1  0  0  0  0
 23 48  1  0  0  0  0
 24 25  1  0  0  0  0
 24 49  1  0  0  0  0
 24 50  1  0  0  0  0
 25 26  1  0  0  0  0
 26 27  1  0  0  0  0
 26 51  1  0  0  0  0
 26 52  1  0  0  0  0
 27 53  1  0  0  0  0
 27 54  1  0  0  0  0
M  END
> <s_m_source_file>
AV-unprocessed.smi

> <i_m_source_file_index>
190

> <i_lp_mmshare_version>
43012

> <i_f3d_flags>
0

> <s_epik_input>
W0NIMl0xW0NIMl1PW0NIMl1bQ0gyXUMxKFtDSDJdW09IXSlbQ0gyXW4oW2NIXW4yKWMoYzIzKW5bY0hdbmMzTihbQ0gyXVtDSDJdW0NIMl00KVtDQF00NVtDSDJdW0NIMl1PW0NIMl01

> <s_epik_cmdline>
J2VwaWtfcHl0aG9uJywgJy1waCcsICc3LjAnLCAnLXRuJywgJzgnLCAnLW1hJywgJzIwMCcsICctbWV0YWxfYmluZGluZycsICctaW1hZScsICc8aW5maWxlLm1hZT4nLCAnLW9tYWUnLCAnPG91dGZpbGUubWFlPic=

> <r_lp_tautomer_probability>
1

> <r_epik_Ionization_Penalty>
0.00423054

> <r_epik_Ionization_Penalty_Charging>
0

> <r_epik_Ionization_Penalty_Neutral>
0.00423054

> <r_epik_State_Penalty>
0.00298851

> <r_epik_Charging_Adjusted_Penalty>
0.00298851

> <i_epik_Tot_Q>
0

> <i_epik_Tot_abs_Q>
0

> <r_epik_Metal_State_Penalty>
-0

> <b_epik_Metal_Only>
0

> <s_lp_Force_Field>
OPLS_2005

> <r_lp_Energy>
69.5451

> <b_lp_Chiralities_Consistent>
1

> <s_lp_Variant>
AV-unprocessed.smi:190-2

> <Gold.Version>
5.8.1

> <Gold.Id.Protein>
6NUR|6NUR_protein|mol2

> <Gold.PLP.Fitness>
41.0373

> <Gold.PLP.PLP>
-35.9506

> <Gold.PLP.part.hbond>
-3.5625

> <Gold.PLP.part.metal>
0.0000

> <Gold.PLP.part.buried>
-5.8274

> <Gold.PLP.part.nonpolar>
-27.2370

> <Gold.PLP.part.repulsive>
0.1158

> <Gold.PLP.ligand.clash>
0.0000

> <Gold.PLP.ligand.torsion>
0.6953

> <Gold.PLP.Chemscore.Hbond>
2.0887

> <Gold.PLP.Chemscore.CHOScore>
0.0000

> <Gold.PLP.Chemscore.Metal>
0.0000

> <Gold.Chemscore.Hbonds>
donor molecule, donor type, donor heavy atom, donor atom, acceptor molecule, acceptor atom, score
      P1  H  6896  6907       L1    19  0.06
      P1  H  6931  6943       L1    17  0.85
      P1  H  7989  7998       L1    25  0.94

> <Gold.PLP.Chemscore.Internal.Correction>
0.2112

> <Gold.Rescore>
     Score         DG    S(hbond)    S(metal)    S(lipo)     H(rot)  DE(clash)    DE(int)     intcor
     13.25     -14.12       1.57        0.00      80.77       2.37       0.03       0.84       ----

> <Gold.Chemscore.Fitness>
13.2544

> <Gold.Chemscore.DG>
-14.1249

> <Gold.Chemscore.ZeroCoef>
-5.4800

> <Gold.Chemscore.Hbond>
1.5729

> <Gold.Chemscore.Metal>
0.0000

> <Gold.Chemscore.Lipo>
80.7696

> <Gold.Chemscore.Internal_Hbond>
0.0000

> <Gold.Chemscore.DEClash>
0.0270

> <Gold.Chemscore.DEInternal>
0.8435

> <Gold.Chemscore.Rot>
2.3666

> <Gold.Chemscore.Internal.Correction>
   9.000000E+99

> <Gold.Chemscore.Hbonds>
donor molecule, donor type, donor heavy atom, donor atom, acceptor molecule, acceptor atom, score
      P1  H  6931  6943       L1    17  0.14
      P1  H  7989  7998       L1    25  0.68

> <Gold.Chemscore.Hbond.Weighted>
-5.2535

> <Gold.Chemscore.Metal.Weighted>
-0.0000

> <Gold.Chemscore.Lipo.Weighted>
-9.4500

> <Gold.Chemscore.Internal_Hbond.Weighted>
0.0000

> <Gold.Chemscore.DEClash.Weighted>
0.0270

> <Gold.Chemscore.DEInternal.Weighted>
0.8435

> <Gold.Chemscore.Rot.Weighted>
6.0586

> <Gold.Chemscore.Internal.Correction.Weighted>
   9.000000E+99

> <Gold.Protein.RotatedTorsions>
[ 6907 6896 6895 6894 ] final  -66.15 input  -60.11 | X-H torsion
[ 7974 7965 7964 7962 ] final   -3.65 input  175.53 | X-H torsion
[ 8008 7997 7996 7995 ] final  117.24 input   59.86 | X-H torsion
[ 10167 10162 10161 10158 ] final  103.33 input  -65.29 | X-H torsion
[ 10718 10713 10712 10709 ] final  -90.78 input   66.30 | X-H torsion
[ 10763 10752 10751 10750 ] final  -81.53 input  -60.55 | X-H torsion
[ 11005 11000 10999 10996 ] final  145.30 input  -57.11 | X-H torsion

> <Gold.Protein.ActiveResidues>
 VAL166  LYS551  ARG553  GLY616  TRP617  ASP618  TYR619  PRO620  LYS621  CYS622 
 ASP623  PHE694  ASN695  SER759  ASP760  ASP761  ALA762  ILE779  LEU786  VAL792 
 PHE793  MET794  SER795  GLU796  ALA797  LYS798  CYS799  TRP800  GLU811  SER814 

> <Gold.Protein.RotatedAtoms>
  150.7482  134.6062  159.6061 H   0  0  0  0  0  0  0  0  0  0  0  0  # atno 6907 bound_to 6896
  152.3409  134.7133  160.0273 H   0  0  0  0  0  0  0  0  0  0  0  0  # atno 6908 bound_to 6896
  151.7585  133.3296  159.3448 H   0  0  0  0  0  0  0  0  0  0  0  0  # atno 6909 bound_to 6896
  146.2386  140.1754  142.8332 H   0  0  0  0  0  0  0  0  0  0  0  0  # atno 7974 bound_to 7965
  156.2483  140.2900  156.0648 H   0  0  0  0  0  0  0  0  0  0  0  0  # atno 8008 bound_to 7997
  155.1736  140.0402  157.2885 H   0  0  0  0  0  0  0  0  0  0  0  0  # atno 8009 bound_to 7997
  154.6309  140.2499  155.7442 H   0  0  0  0  0  0  0  0  0  0  0  0  # atno 8010 bound_to 7997
  139.7272  144.7044  151.0778 H   0  0  0  0  0  0  0  0  0  0  0  0  # atno 10167 bound_to 10162
  155.9989  130.4923  150.5375 H   0  0  0  0  0  0  0  0  0  0  0  0  # atno 10718 bound_to 10713
  154.5647  135.5623  153.7040 H   0  0  0  0  0  0  0  0  0  0  0  0  # atno 10763 bound_to 10752
  153.0029  135.6282  154.2196 H   0  0  0  0  0  0  0  0  0  0  0  0  # atno 10764 bound_to 10752
  154.2135  135.2872  155.2930 H   0  0  0  0  0  0  0  0  0  0  0  0  # atno 10765 bound_to 10752
  140.0701  134.9157  157.1330 H   0  0  0  0  0  0  0  0  0  0  0  0  # atno 11005 bound_to 11000
  144.9978  140.8605  143.5300 LP  0  0  0  0  0  0  0  0  0  0  0  0  # atno 17320 bound_to 7965
  145.1769  139.2373  143.5313 LP  0  0  0  0  0  0  0  0  0  0  0  0  # atno 17321 bound_to 7965
  140.7765  143.5089  150.9677 LP  0  0  0  0  0  0  0  0  0  0  0  0  # atno 17342 bound_to 10162
  139.8777  143.7112  152.3160 LP  0  0  0  0  0  0  0  0  0  0  0  0  # atno 17343 bound_to 10162
  157.3315  131.0700  151.1857 LP  0  0  0  0  0  0  0  0  0  0  0  0  # atno 17370 bound_to 10713
  157.2736  130.6716  149.6031 LP  0  0  0  0  0  0  0  0  0  0  0  0  # atno 17371 bound_to 10713
  140.3640  134.2463  155.7184 LP  0  0  0  0  0  0  0  0  0  0  0  0  # atno 17394 bound_to 11000
  141.2008  133.7978  157.0470 LP  0  0  0  0  0  0  0  0  0  0  0  0  # atno 17395 bound_to 11000

$$$$
