AV-unprocessed.smi:2412|AV-procd|sdf|9533|dock3
  -GOLD-   2272013163D 1   1.00000     0.00000
 Structure written by MMmdl.
 38 39  0  0  0  0  0  0  0  0  2 V2000
  152.0593  144.7237  160.7168 C   0  0  0  0  0  0  0  0  0  0  0  0
  151.7988  143.8120  159.5304 C   0  0  0  0  0  0  0  0  0  0  0  0
  151.0857  144.3073  158.4168 C   0  0  0  0  0  0  0  0  0  0  0  0
  150.8500  143.5107  157.3533 N   0  3  0  0  0  0  0  0  0  0  0  0
  151.2750  142.2319  157.2914 C   0  0  0  0  0  0  0  0  0  0  0  0
  151.9935  141.6773  158.3689 C   0  0  0  0  0  0  0  0  0  0  0  0
  152.2537  142.4681  159.5175 C   0  0  0  0  0  0  0  0  0  0  0  0
  152.9916  141.9869  160.6361 N   0  0  0  0  0  0  0  0  0  0  0  0
  154.0906  141.2131  160.6444 C   0  0  0  0  0  0  0  0  0  0  0  0
  154.6325  140.7373  159.6469 O   0  0  0  0  0  0  0  0  0  0  0  0
  154.5290  141.0037  161.8947 N   0  0  0  0  0  0  0  0  0  0  0  0
  155.7251  140.2411  162.2491 C   0  0  0  0  0  0  0  0  0  0  0  0
  155.5603  139.4112  163.5364 C   0  0  0  0  0  0  0  0  0  0  0  0
  155.8453  139.9064  164.6287 O   0  0  0  0  0  0  0  0  0  0  0  0
  155.0923  138.1508  163.4246 N   0  0  0  0  0  0  0  0  0  0  0  0
  154.8714  137.2183  164.5299 C   0  0  0  0  0  0  0  0  0  0  0  0
  154.1473  136.0170  163.9204 C   0  0  0  0  0  0  0  0  0  0  0  0
  154.5484  136.0430  162.4523 C   0  0  0  0  0  0  0  0  0  0  0  0
  154.7526  137.5269  162.1472 C   0  0  0  0  0  0  0  0  0  0  0  0
  151.6099  145.7060  160.5675 H   0  0  0  0  0  0  0  0  0  0  0  0
  153.1311  144.8619  160.8627 H   0  0  0  0  0  0  0  0  0  0  0  0
  151.6378  144.2964  161.6271 H   0  0  0  0  0  0  0  0  0  0  0  0
  150.6997  145.3136  158.3428 H   0  0  0  0  0  0  0  0  0  0  0  0
  151.0362  141.6954  156.3845 H   0  0  0  0  0  0  0  0  0  0  0  0
  152.3438  140.6596  158.2860 H   0  0  0  0  0  0  0  0  0  0  0  0
  152.6081  142.2209  161.5402 H   0  0  0  0  0  0  0  0  0  0  0  0
  154.0223  141.4291  162.6570 H   0  0  0  0  0  0  0  0  0  0  0  0
  155.9522  139.5680  161.4222 H   0  0  0  0  0  0  0  0  0  0  0  0
  156.5750  140.9183  162.3484 H   0  0  0  0  0  0  0  0  0  0  0  0
  155.8361  136.9149  164.9391 H   0  0  0  0  0  0  0  0  0  0  0  0
  154.2810  137.6578  165.3348 H   0  0  0  0  0  0  0  0  0  0  0  0
  154.3994  135.0767  164.4115 H   0  0  0  0  0  0  0  0  0  0  0  0
  153.0689  136.1590  164.0052 H   0  0  0  0  0  0  0  0  0  0  0  0
  155.4913  135.5098  162.3233 H   0  0  0  0  0  0  0  0  0  0  0  0
  153.8084  135.5754  161.8022 H   0  0  0  0  0  0  0  0  0  0  0  0
  153.8304  137.9720  161.7705 H   0  0  0  0  0  0  0  0  0  0  0  0
  155.5310  137.6729  161.3964 H   0  0  0  0  0  0  0  0  0  0  0  0
  150.3336  143.8930  156.5606 H   0  0  0  0  0  0  0  0  0  0  0  0
  1  2  1  0  0  0  0
  1 20  1  0  0  0  0
  1 21  1  0  0  0  0
  1 22  1  0  0  0  0
  2  7  1  0  0  0  0
  2  3  2  0  0  0  0
  3  4  1  0  0  0  0
  3 23  1  0  0  0  0
  4  5  2  0  0  0  0
  4 38  1  0  0  0  0
  5  6  1  0  0  0  0
  5 24  1  0  0  0  0
  6  7  2  0  0  0  0
  6 25  1  0  0  0  0
  7  8  1  0  0  0  0
  8  9  1  0  0  0  0
  8 26  1  0  0  0  0
  9 10  2  0  0  0  0
  9 11  1  0  0  0  0
 11 12  1  0  0  0  0
 11 27  1  0  0  0  0
 12 13  1  0  0  0  0
 12 28  1  0  0  0  0
 12 29  1  0  0  0  0
 13 14  2  0  0  0  0
 13 15  1  0  0  0  0
 15 19  1  0  0  0  0
 15 16  1  0  0  0  0
 16 17  1  0  0  0  0
 16 30  1  0  0  0  0
 16 31  1  0  0  0  0
 17 18  1  0  0  0  0
 17 32  1  0  0  0  0
 17 33  1  0  0  0  0
 18 19  1  0  0  0  0
 18 34  1  0  0  0  0
 18 35  1  0  0  0  0
 19 36  1  0  0  0  0
 19 37  1  0  0  0  0
M  CHG  1   4   1
M  END
> <s_m_source_file>
AV-unprocessed.smi

> <i_m_source_file_index>
2412

> <i_lp_mmshare_version>
43012

> <i_f3d_flags>
0

> <s_epik_input>
W0NIM11jMVtjSF1uW2NIXVtjSF1jMVtOSF1DKD1PKVtOSF1bQ0gyXUMoPU8pTjJbQ0gyXVtDSDJdW0NIMl1bQ0gyXTI=

> <s_epik_cmdline>
J2VwaWtfcHl0aG9uJywgJy1waCcsICc3LjAnLCAnLXRuJywgJzgnLCAnLW1hJywgJzIwMCcsICctbWV0YWxfYmluZGluZycsICctaW1hZScsICc8aW5maWxlLm1hZT4nLCAnLW9tYWUnLCAnPG91dGZpbGUubWFlPic=

> <r_epik_Ionization_Penalty>
0.861722

> <r_epik_Ionization_Penalty_Charging>
0.861704

> <r_epik_Ionization_Penalty_Neutral>
1.84974e-05

> <r_epik_State_Penalty>
0.898238

> <r_epik_Charging_Adjusted_Penalty>
1.75994

> <i_epik_Tot_Q>
1

> <i_epik_Tot_abs_Q>
1

> <r_epik_Metal_State_Penalty>
1.0245

> <b_epik_Metal_Only>
0

> <s_lp_Force_Field>
OPLS_2005

> <r_lp_Energy>
33.6381

> <b_lp_Chiralities_Consistent>
1

> <s_lp_Variant>
AV-unprocessed.smi:2412-2

> <Gold.Version>
5.8.1

> <Gold.Id.Protein>
6NUR|6NUR_protein|mol2

> <Gold.PLP.Fitness>
45.6072

> <Gold.PLP.PLP>
-41.3299

> <Gold.PLP.part.hbond>
-2.0504

> <Gold.PLP.part.metal>
0.0000

> <Gold.PLP.part.buried>
-5.1714

> <Gold.PLP.part.nonpolar>
-34.1172

> <Gold.PLP.part.repulsive>
0.0683

> <Gold.PLP.ligand.clash>
0.0000

> <Gold.PLP.ligand.torsion>
0.8629

> <Gold.PLP.Chemscore.Hbond>
2.0000

> <Gold.PLP.Chemscore.CHOScore>
0.0000

> <Gold.PLP.Chemscore.Metal>
0.0000

> <Gold.Chemscore.Hbonds>
donor molecule, donor type, donor heavy atom, donor atom, acceptor molecule, acceptor atom, score
      L1  H     4    38       P1  8028  2.00

> <Gold.PLP.Chemscore.Internal.Correction>
0.0032

> <Gold.Rescore>
     Score         DG    S(hbond)    S(metal)    S(lipo)     H(rot)  DE(clash)    DE(int)     intcor
     15.95     -17.56       0.98        0.00     103.33       1.28       0.09       1.53       ----

> <Gold.Chemscore.Fitness>
15.9461

> <Gold.Chemscore.DG>
-17.5573

> <Gold.Chemscore.ZeroCoef>
-5.4800

> <Gold.Chemscore.Hbond>
0.9762

> <Gold.Chemscore.Metal>
0.0000

> <Gold.Chemscore.Lipo>
103.3339

> <Gold.Chemscore.Internal_Hbond>
0.0000

> <Gold.Chemscore.DEClash>
0.0852

> <Gold.Chemscore.DEInternal>
1.5260

> <Gold.Chemscore.Rot>
1.2786

> <Gold.Chemscore.Internal.Correction>
   9.000000E+99

> <Gold.Chemscore.Hbonds>
donor molecule, donor type, donor heavy atom, donor atom, acceptor molecule, acceptor atom, score
      L1  H     4    38       P1  8028  0.99

> <Gold.Chemscore.Hbond.Weighted>
-3.2605

> <Gold.Chemscore.Metal.Weighted>
-0.0000

> <Gold.Chemscore.Lipo.Weighted>
-12.0901

> <Gold.Chemscore.Internal_Hbond.Weighted>
0.0000

> <Gold.Chemscore.DEClash.Weighted>
0.0852

> <Gold.Chemscore.DEInternal.Weighted>
1.5260

> <Gold.Chemscore.Rot.Weighted>
3.2733

> <Gold.Chemscore.Internal.Correction.Weighted>
   9.000000E+99

> <Gold.Protein.RotatedTorsions>
[ 6907 6896 6895 6894 ] final  -16.54 input  -60.11 | X-H torsion
[ 7974 7965 7964 7962 ] final  -54.16 input  175.53 | X-H torsion
[ 8008 7997 7996 7995 ] final  -79.57 input   59.86 | X-H torsion
[ 10167 10162 10161 10158 ] final  -12.07 input  -65.29 | X-H torsion
[ 10718 10713 10712 10709 ] final   -5.65 input   66.30 | X-H torsion
[ 10763 10752 10751 10750 ] final  159.29 input  -60.55 | X-H torsion
[ 11005 11000 10999 10996 ] final   57.26 input  -57.11 | X-H torsion

> <Gold.Protein.ActiveResidues>
 VAL166  LYS551  ARG553  GLY616  TRP617  ASP618  TYR619  PRO620  LYS621  CYS622 
 ASP623  PHE694  ASN695  SER759  ASP760  ASP761  ALA762  ILE779  LEU786  VAL792 
 PHE793  MET794  SER795  GLU796  ALA797  LYS798  CYS799  TRP800  GLU811  SER814 

> <Gold.Protein.RotatedAtoms>
  151.3071  135.0784  159.9258 H   0  0  0  0  0  0  0  0  0  0  0  0  # atno 6907 bound_to 6896
  152.5285  133.9774  159.7801 H   0  0  0  0  0  0  0  0  0  0  0  0  # atno 6908 bound_to 6896
  151.0071  133.5949  159.2718 H   0  0  0  0  0  0  0  0  0  0  0  0  # atno 6909 bound_to 6896
  145.8887  140.8088  142.9803 H   0  0  0  0  0  0  0  0  0  0  0  0  # atno 7974 bound_to 7965
  154.5798  140.0676  156.9087 H   0  0  0  0  0  0  0  0  0  0  0  0  # atno 8008 bound_to 7997
  155.2483  140.3350  155.4266 H   0  0  0  0  0  0  0  0  0  0  0  0  # atno 8009 bound_to 7997
  156.2181  140.1787  156.7527 H   0  0  0  0  0  0  0  0  0  0  0  0  # atno 8010 bound_to 7997
  140.7153  143.5572  150.9236 H   0  0  0  0  0  0  0  0  0  0  0  0  # atno 10167 bound_to 10162
  156.7435  130.5217  149.5819 H   0  0  0  0  0  0  0  0  0  0  0  0  # atno 10718 bound_to 10713
  154.2294  135.2779  155.2895 H   0  0  0  0  0  0  0  0  0  0  0  0  # atno 10763 bound_to 10752
  154.5636  135.5639  153.7033 H   0  0  0  0  0  0  0  0  0  0  0  0  # atno 10764 bound_to 10752
  153.0023  135.6304  154.2436 H   0  0  0  0  0  0  0  0  0  0  0  0  # atno 10765 bound_to 10752
  140.0466  134.5796  155.9315 H   0  0  0  0  0  0  0  0  0  0  0  0  # atno 11005 bound_to 11000
  144.6729  140.1495  143.7431 LP  0  0  0  0  0  0  0  0  0  0  0  0  # atno 17320 bound_to 7965
  145.8935  139.2389  143.1535 LP  0  0  0  0  0  0  0  0  0  0  0  0  # atno 17321 bound_to 7965
  139.9297  143.6508  152.3079 LP  0  0  0  0  0  0  0  0  0  0  0  0  # atno 17342 bound_to 10162
  139.6954  144.7642  151.1365 LP  0  0  0  0  0  0  0  0  0  0  0  0  # atno 17343 bound_to 10162
  156.1449  130.6270  151.0517 LP  0  0  0  0  0  0  0  0  0  0  0  0  # atno 17370 bound_to 10713
  157.6808  131.0838  150.7374 LP  0  0  0  0  0  0  0  0  0  0  0  0  # atno 17371 bound_to 10713
  141.1910  133.6570  156.5437 LP  0  0  0  0  0  0  0  0  0  0  0  0  # atno 17394 bound_to 11000
  140.3983  134.7379  157.4764 LP  0  0  0  0  0  0  0  0  0  0  0  0  # atno 17395 bound_to 11000

$$$$
