AV-unprocessed.smi:72|AV-procd|sdf|685|dock9
  -GOLD-   2262016593D 1   1.00000     0.00000
 Structure written by MMmdl.
 29 30  0  0  0  0  0  0  0  0  1 V2000
  154.1514  138.3388  154.8508 N   0  0  0  0  0  0  0  0  0  0  0  0
  152.8798  138.5198  154.8741 C   0  0  0  0  0  0  0  0  0  0  0  0
  151.9266  137.6618  154.3064 N   0  0  0  0  0  0  0  0  0  0  0  0
  150.6723  137.9838  154.3882 C   0  0  0  0  0  0  0  0  0  0  0  0
  150.2243  139.2163  155.0258 N   0  0  0  0  0  0  0  0  0  0  0  0
  148.7561  139.5958  155.1434 C   0  0  2  0  0  0  0  0  0  0  0  0
  147.9584  138.6772  154.4576 O   0  0  0  0  0  0  0  0  0  0  0  0
  147.7014  139.1557  153.1432 C   0  0  1  0  0  0  0  0  0  0  0  0
  146.4747  138.4420  152.5566 C   0  0  0  0  0  0  0  0  0  0  0  0
  146.8356  137.7555  151.3773 O   0  0  0  0  0  0  0  0  0  0  0  0
  147.4869  140.6503  153.3866 C   0  0  2  0  0  0  0  0  0  0  0  0
  147.7909  141.3871  152.2191 O   0  0  0  0  0  0  0  0  0  0  0  0
  148.4788  140.9747  154.5020 C   0  0  1  0  0  0  0  0  0  0  0  0
  147.8984  141.8708  155.4271 O   0  0  0  0  0  0  0  0  0  0  0  0
  151.1747  140.0601  155.6542 C   0  0  0  0  0  0  0  0  0  0  0  0
  150.8490  141.0776  156.2660 O   0  0  0  0  0  0  0  0  0  0  0  0
  152.4650  139.6808  155.5371 N   0  0  0  0  0  0  0  0  0  0  0  0
  148.5427  139.5426  156.2126 H   0  0  0  0  0  0  0  0  0  0  0  0
  148.5801  139.0069  152.5125 H   0  0  0  0  0  0  0  0  0  0  0  0
  146.4597  140.8382  153.7042 H   0  0  0  0  0  0  0  0  0  0  0  0
  149.4015  141.3975  154.1008 H   0  0  0  0  0  0  0  0  0  0  0  0
  154.3707  137.4851  154.3575 H   0  0  0  0  0  0  0  0  0  0  0  0
  149.8853  137.3463  153.9854 H   0  0  0  0  0  0  0  0  0  0  0  0
  146.0313  137.7543  153.2774 H   0  0  0  0  0  0  0  0  0  0  0  0
  145.7090  139.1708  152.2893 H   0  0  0  0  0  0  0  0  0  0  0  0
  147.2715  136.9525  151.6188 H   0  0  0  0  0  0  0  0  0  0  0  0
  148.6583  141.1448  151.9321 H   0  0  0  0  0  0  0  0  0  0  0  0
  148.2767  142.7262  155.2894 H   0  0  0  0  0  0  0  0  0  0  0  0
  153.1674  140.2694  155.9609 H   0  0  0  0  0  0  0  0  0  0  0  0
  1  2  2  0  0  0  0
  1 22  1  0  0  0  0
  2 17  1  0  0  0  0
  2  3  1  0  0  0  0
  3  4  2  0  0  0  0
  4  5  1  0  0  0  0
  4 23  1  0  0  0  0
  5  6  1  0  0  0  0
  5 15  1  0  0  0  0
  6 18  1  0  0  0  0
  6 13  1  0  0  0  0
  6  7  1  0  0  0  0
  7  8  1  0  0  0  0
  8 19  1  0  0  0  0
  8  9  1  0  0  0  0
  8 11  1  0  0  0  0
  9 10  1  0  0  0  0
  9 24  1  0  0  0  0
  9 25  1  0  0  0  0
 10 26  1  0  0  0  0
 11 20  1  0  0  0  0
 11 12  1  0  0  0  0
 11 13  1  0  0  0  0
 12 27  1  0  0  0  0
 13 21  1  0  0  0  0
 13 14  1  0  0  0  0
 14 28  1  0  0  0  0
 15 16  2  0  0  0  0
 15 17  1  0  0  0  0
 17 29  1  0  0  0  0
M  END
> <s_m_source_file>
AV-unprocessed.smi

> <i_m_source_file_index>
72

> <i_lp_mmshare_version>
43012

> <i_f3d_flags>
0

> <s_epik_input>
W05IMl1jMW5bY0hdbihjKD1PKW4xKVtDQEBIXTJPW0NASF0oW0NIMl1bT0hdKVtDQEBIXShbT0hdKVtDQEhdMltPSF0=

> <s_epik_cmdline>
J2VwaWtfcHl0aG9uJywgJy1waCcsICc3LjAnLCAnLXRuJywgJzgnLCAnLW1hJywgJzIwMCcsICctbWV0YWxfYmluZGluZycsICctaW1hZScsICc8aW5maWxlLm1hZT4nLCAnLW9tYWUnLCAnPG91dGZpbGUubWFlPic=

> <r_lp_tautomer_probability>
7.17554e-07

> <r_epik_Ionization_Penalty>
0.0066451

> <r_epik_Ionization_Penalty_Charging>
0.00663793

> <r_epik_Ionization_Penalty_Neutral>
7.17052e-06

> <r_epik_State_Penalty>
0.419231

> <r_epik_Charging_Adjusted_Penalty>
0.425868

> <i_epik_Tot_Q>
0

> <i_epik_Tot_abs_Q>
0

> <r_epik_Metal_State_Penalty>
1.44144

> <b_epik_Metal_Only>
0

> <s_epik_Chemistry_Notes>
This compound contains an acetal/aminal-like group ( X-CH(R)-Y where X, Y are N, S, or O) that may be acid/base labile, releasing an aldehyde.

> <s_lp_Force_Field>
OPLS_2005

> <r_lp_Energy>
35.407

> <b_lp_Chiralities_Consistent>
1

> <s_lp_Variant>
AV-unprocessed.smi:72-23

> <Gold.Version>
5.8.1

> <Gold.Id.Protein>
6NUR|6NUR_protein|mol2

> <Gold.PLP.Fitness>
37.0526

> <Gold.PLP.PLP>
-24.1718

> <Gold.PLP.part.hbond>
-7.0532

> <Gold.PLP.part.metal>
0.0000

> <Gold.PLP.part.buried>
3.3386

> <Gold.PLP.part.nonpolar>
-22.4078

> <Gold.PLP.part.repulsive>
1.0584

> <Gold.PLP.ligand.clash>
0.0000

> <Gold.PLP.ligand.torsion>
0.7630

> <Gold.PLP.Chemscore.Hbond>
3.7895

> <Gold.PLP.Chemscore.CHOScore>
1.0000

> <Gold.PLP.Chemscore.Metal>
0.0000

> <Gold.Chemscore.Hbonds>
donor molecule, donor type, donor heavy atom, donor atom, acceptor molecule, acceptor atom, score
      L1  H    10    26       P1  7948  0.83
      L1  H    12    27       P1  7957  0.94
      L1  H    14    28       P1  8028  0.83
      P1  H  7954  7966       L1    10  0.30
      P1  H  7997  8010       L1     1  0.37
      P1  H 10752 10764       L1     3  0.43
      L1  C     4    23       P1  7948  0.98

> <Gold.PLP.Chemscore.Internal.Correction>
0.0382

> <Gold.Rescore>
     Score         DG    S(hbond)    S(metal)    S(lipo)     H(rot)  DE(clash)    DE(int)     intcor
      3.48      -8.31       2.99        0.00      27.56       4.06       2.91       1.92       ----

> <Gold.Chemscore.Fitness>
3.4776

> <Gold.Chemscore.DG>
-8.3120

> <Gold.Chemscore.ZeroCoef>
-5.4800

> <Gold.Chemscore.Hbond>
2.9945

> <Gold.Chemscore.Metal>
0.0000

> <Gold.Chemscore.Lipo>
27.5556

> <Gold.Chemscore.Internal_Hbond>
0.0000

> <Gold.Chemscore.DEClash>
2.9117

> <Gold.Chemscore.DEInternal>
1.9228

> <Gold.Chemscore.Rot>
4.0600

> <Gold.Chemscore.Internal.Correction>
   9.000000E+99

> <Gold.Chemscore.Hbonds>
donor molecule, donor type, donor heavy atom, donor atom, acceptor molecule, acceptor atom, score
      L1  H    10    26       P1  7948  0.81
      L1  H    12    27       P1  7957  0.90
      L1  H    14    28       P1  8028  0.81
      P1  H  7997  8010       L1     1  0.04
      P1  H 10752 10764       L1     3  0.19

> <Gold.Chemscore.Hbond.Weighted>
-10.0016

> <Gold.Chemscore.Metal.Weighted>
-0.0000

> <Gold.Chemscore.Lipo.Weighted>
-3.2240

> <Gold.Chemscore.Internal_Hbond.Weighted>
0.0000

> <Gold.Chemscore.DEClash.Weighted>
2.9117

> <Gold.Chemscore.DEInternal.Weighted>
1.9228

> <Gold.Chemscore.Rot.Weighted>
10.3936

> <Gold.Chemscore.Internal.Correction.Weighted>
   9.000000E+99

> <Gold.Protein.RotatedTorsions>
[ 6907 6896 6895 6894 ] final   24.62 input  -60.11 | X-H torsion
[ 7974 7965 7964 7962 ] final  109.54 input  175.53 | X-H torsion
[ 8008 7997 7996 7995 ] final  113.22 input   59.86 | X-H torsion
[ 10167 10162 10161 10158 ] final -135.07 input  -65.29 | X-H torsion
[ 10718 10713 10712 10709 ] final   76.87 input   66.30 | X-H torsion
[ 10763 10752 10751 10750 ] final  -83.97 input  -60.55 | X-H torsion
[ 11005 11000 10999 10996 ] final  -27.86 input  -57.11 | X-H torsion

> <Gold.Protein.ActiveResidues>
 VAL166  LYS551  ARG553  GLY616  TRP617  ASP618  TYR619  PRO620  LYS621  CYS622 
 ASP623  PHE694  ASN695  SER759  ASP760  ASP761  ALA762  ILE779  LEU786  VAL792 
 PHE793  MET794  SER795  GLU796  ALA797  LYS798  CYS799  TRP800  GLU811  SER814 

> <Gold.Protein.RotatedAtoms>
  151.9603  135.0127  160.0546 H   0  0  0  0  0  0  0  0  0  0  0  0  # atno 6907 bound_to 6896
  152.1874  133.4745  159.4998 H   0  0  0  0  0  0  0  0  0  0  0  0  # atno 6908 bound_to 6896
  150.6928  134.1673  159.4242 H   0  0  0  0  0  0  0  0  0  0  0  0  # atno 6909 bound_to 6896
  145.2665  139.2682  143.3989 H   0  0  0  0  0  0  0  0  0  0  0  0  # atno 7974 bound_to 7965
  156.2243  140.2984  156.0029 H   0  0  0  0  0  0  0  0  0  0  0  0  # atno 8008 bound_to 7997
  155.2397  140.0422  157.2990 H   0  0  0  0  0  0  0  0  0  0  0  0  # atno 8009 bound_to 7997
  154.5891  140.2396  155.7954 H   0  0  0  0  0  0  0  0  0  0  0  0  # atno 8010 bound_to 7997
  139.8816  143.6832  152.2626 H   0  0  0  0  0  0  0  0  0  0  0  0  # atno 10167 bound_to 10162
  157.6689  130.9795  150.1559 H   0  0  0  0  0  0  0  0  0  0  0  0  # atno 10718 bound_to 10713
  154.5941  135.5537  153.7307 H   0  0  0  0  0  0  0  0  0  0  0  0  # atno 10763 bound_to 10752
  153.0128  135.6350  154.1808 H   0  0  0  0  0  0  0  0  0  0  0  0  # atno 10764 bound_to 10752
  154.1749  135.2890  155.3050 H   0  0  0  0  0  0  0  0  0  0  0  0  # atno 10765 bound_to 10752
  140.9157  133.7432  156.0731 H   0  0  0  0  0  0  0  0  0  0  0  0  # atno 11005 bound_to 11000
  146.3259  140.3096  142.8626 LP  0  0  0  0  0  0  0  0  0  0  0  0  # atno 17320 bound_to 7965
  144.9372  140.8040  143.5652 LP  0  0  0  0  0  0  0  0  0  0  0  0  # atno 17321 bound_to 7965
  139.7191  144.7606  151.0985 LP  0  0  0  0  0  0  0  0  0  0  0  0  # atno 17342 bound_to 10162
  140.7743  143.5231  150.9512 LP  0  0  0  0  0  0  0  0  0  0  0  0  # atno 17343 bound_to 10162
  156.2347  130.3685  149.8405 LP  0  0  0  0  0  0  0  0  0  0  0  0  # atno 17370 bound_to 10713
  156.6222  130.8631  151.3478 LP  0  0  0  0  0  0  0  0  0  0  0  0  # atno 17371 bound_to 10713
  140.8053  134.3462  157.5428 LP  0  0  0  0  0  0  0  0  0  0  0  0  # atno 17394 bound_to 11000
  139.8765  134.9222  156.3294 LP  0  0  0  0  0  0  0  0  0  0  0  0  # atno 17395 bound_to 11000

$$$$
