AV-unprocessed.smi:609|AV-procd|sdf|3052|dock3
  -GOLD-   2262023573D 1   1.00000     0.00000
 Structure written by MMmdl.
 43 45  0  0  0  0  0  0  0  0  2 V2000
  152.6074  143.8963  161.0816 C   0  0  0  0  0  0  0  0  0  0  0  0
  152.3010  143.0263  159.8743 C   0  0  0  0  0  0  0  0  0  0  0  0
  151.3028  143.4539  158.9703 C   0  0  0  0  0  0  0  0  0  0  0  0
  151.0461  142.6371  157.8755 C   0  0  0  0  0  0  0  0  0  0  0  0
  150.1413  142.7793  156.8212 N   0  3  0  0  0  0  0  0  0  0  0  0
  150.2554  141.7160  155.9781 C   0  0  0  0  0  0  0  0  0  0  0  0
  151.2186  140.8962  156.4789 N   0  0  0  0  0  0  0  0  0  0  0  0
  151.7285  139.6216  155.9538 C   0  0  0  0  0  0  0  0  0  0  0  0
  150.7313  138.9252  155.0082 C   0  0  1  0  0  0  0  0  0  0  0  0
  150.5982  139.6674  153.8114 O   0  0  0  0  0  0  0  0  0  0  0  0
  151.1740  137.4909  154.6630 C   0  0  0  0  0  0  0  0  0  0  0  0
  150.8691  136.3110  156.0169 S   0  0  0  0  0  0  0  0  0  0  0  0
  152.2340  136.6866  157.0765 C   0  0  0  0  0  0  0  0  0  0  0  0
  153.5114  136.4457  156.7910 N   0  0  0  0  0  0  0  0  0  0  0  0
  154.2208  136.8951  157.8989 C   0  0  0  0  0  0  0  0  0  0  0  0
  153.3415  137.3947  158.8279 C   0  0  0  0  0  0  0  0  0  0  0  0
  152.0706  137.2517  158.2872 N   0  0  0  0  0  0  0  0  0  0  0  0
  150.8257  137.6441  158.9181 C   0  0  0  0  0  0  0  0  0  0  0  0
  151.7409  141.4304  157.6630 C   0  0  0  0  0  0  0  0  0  0  0  0
  152.7274  140.9947  158.5446 C   0  0  0  0  0  0  0  0  0  0  0  0
  153.0042  141.8118  159.6639 C   0  0  0  0  0  0  0  0  0  0  0  0
  154.0770  141.3617  160.6409 C   0  0  0  0  0  0  0  0  0  0  0  0
  152.0241  144.8176  161.0679 H   0  0  0  0  0  0  0  0  0  0  0  0
  153.6620  144.1721  161.0995 H   0  0  0  0  0  0  0  0  0  0  0  0
  152.3720  143.3649  162.0040 H   0  0  0  0  0  0  0  0  0  0  0  0
  150.7635  144.3773  159.1237 H   0  0  0  0  0  0  0  0  0  0  0  0
  149.6858  141.5530  155.0744 H   0  0  0  0  0  0  0  0  0  0  0  0
  152.6911  139.7872  155.4693 H   0  0  0  0  0  0  0  0  0  0  0  0
  151.9265  138.9818  156.8146 H   0  0  0  0  0  0  0  0  0  0  0  0
  149.7551  138.9034  155.4929 H   0  0  0  0  0  0  0  0  0  0  0  0
  150.0058  139.2052  153.2377 H   0  0  0  0  0  0  0  0  0  0  0  0
  150.6403  137.1408  153.7787 H   0  0  0  0  0  0  0  0  0  0  0  0
  152.2330  137.4666  154.4055 H   0  0  0  0  0  0  0  0  0  0  0  0
  155.2977  136.8243  157.9411 H   0  0  0  0  0  0  0  0  0  0  0  0
  153.5104  137.8273  159.8032 H   0  0  0  0  0  0  0  0  0  0  0  0
  151.0213  138.0836  159.8967 H   0  0  0  0  0  0  0  0  0  0  0  0
  150.1848  136.7712  159.0448 H   0  0  0  0  0  0  0  0  0  0  0  0
  150.3132  138.3794  158.2971 H   0  0  0  0  0  0  0  0  0  0  0  0
  153.2680  140.0742  158.3813 H   0  0  0  0  0  0  0  0  0  0  0  0
  154.4920  140.3934  160.3598 H   0  0  0  0  0  0  0  0  0  0  0  0
  153.6655  141.2680  161.6461 H   0  0  0  0  0  0  0  0  0  0  0  0
  154.8963  142.0806  160.6664 H   0  0  0  0  0  0  0  0  0  0  0  0
  149.4940  143.5448  156.6840 H   0  0  0  0  0  0  0  0  0  0  0  0
  1  2  1  0  0  0  0
  1 23  1  0  0  0  0
  1 24  1  0  0  0  0
  1 25  1  0  0  0  0
  2 21  1  0  0  0  0
  2  3  2  0  0  0  0
  3  4  1  0  0  0  0
  3 26  1  0  0  0  0
  4 19  2  0  0  0  0
  4  5  1  0  0  0  0
  5  6  2  0  0  0  0
  5 43  1  0  0  0  0
  6  7  1  0  0  0  0
  6 27  1  0  0  0  0
  7  8  1  0  0  0  0
  7 19  1  0  0  0  0
  8  9  1  0  0  0  0
  8 28  1  0  0  0  0
  8 29  1  0  0  0  0
  9 10  1  0  0  0  0
  9 11  1  0  0  0  0
  9 30  1  0  0  0  0
 10 31  1  0  0  0  0
 11 12  1  0  0  0  0
 11 32  1  0  0  0  0
 11 33  1  0  0  0  0
 12 13  1  0  0  0  0
 13 17  1  0  0  0  0
 13 14  2  0  0  0  0
 14 15  1  0  0  0  0
 15 16  2  0  0  0  0
 15 34  1  0  0  0  0
 16 17  1  0  0  0  0
 16 35  1  0  0  0  0
 17 18  1  0  0  0  0
 18 36  1  0  0  0  0
 18 37  1  0  0  0  0
 18 38  1  0  0  0  0
 19 20  1  0  0  0  0
 20 21  2  0  0  0  0
 20 39  1  0  0  0  0
 21 22  1  0  0  0  0
 22 40  1  0  0  0  0
 22 41  1  0  0  0  0
 22 42  1  0  0  0  0
M  CHG  1   5   1
M  END
> <s_m_source_file>
AV-unprocessed.smi

> <i_m_source_file_index>
609

> <i_lp_mmshare_version>
43012

> <i_f3d_flags>
0

> <s_epik_input>
W0NIM11jKFtjSF0xKWMoW0NIM10pW2NIXWMoYzEyKW4oW2NIXW4yKVtDSDJdW0NASF0oW09IXSlbQ0gyXVNjM25bY0hdW2NIXW4zW0NIM10=

> <s_epik_cmdline>
J2VwaWtfcHl0aG9uJywgJy1waCcsICc3LjAnLCAnLXRuJywgJzgnLCAnLW1hJywgJzIwMCcsICctbWV0YWxfYmluZGluZycsICctaW1hZScsICc8aW5maWxlLm1hZT4nLCAnLW9tYWUnLCAnPG91dGZpbGUubWFlPic=

> <r_epik_Ionization_Penalty>
2.09683

> <r_epik_Ionization_Penalty_Charging>
2.09682

> <r_epik_Ionization_Penalty_Neutral>
2.49751e-06

> <r_epik_State_Penalty>
2.21514

> <r_epik_Charging_Adjusted_Penalty>
4.31197

> <i_epik_Tot_Q>
1

> <i_epik_Tot_abs_Q>
1

> <r_epik_Metal_State_Penalty>
1.52634

> <b_epik_Metal_Only>
0

> <s_lp_Force_Field>
OPLS_2005

> <r_lp_Energy>
12.6573

> <b_lp_Chiralities_Consistent>
1

> <s_lp_Variant>
AV-unprocessed.smi:609-8

> <Gold.Version>
5.8.1

> <Gold.Id.Protein>
6NUR|6NUR_protein|mol2

> <Gold.PLP.Fitness>
56.2845

> <Gold.PLP.PLP>
-44.8352

> <Gold.PLP.part.hbond>
-3.8749

> <Gold.PLP.part.metal>
0.0000

> <Gold.PLP.part.buried>
-3.7342

> <Gold.PLP.part.nonpolar>
-36.0962

> <Gold.PLP.part.repulsive>
0.0322

> <Gold.PLP.ligand.clash>
0.0000

> <Gold.PLP.ligand.torsion>
0.6402

> <Gold.PLP.Chemscore.Hbond>
4.2184

> <Gold.PLP.Chemscore.CHOScore>
0.0000

> <Gold.PLP.Chemscore.Metal>
0.0000

> <Gold.Chemscore.Hbonds>
donor molecule, donor type, donor heavy atom, donor atom, acceptor molecule, acceptor atom, score
      L1  H     5    43       P1  8028  1.95
      L1  H    10    31       P1  7957  0.16
      P1  H  7989  7998       L1    10  1.00
      P1  H 10752 10765       L1    14  1.00

> <Gold.PLP.Chemscore.Internal.Correction>
0.0744

> <Gold.Rescore>
     Score         DG    S(hbond)    S(metal)    S(lipo)     H(rot)  DE(clash)    DE(int)     intcor
     20.45     -22.18       2.92        0.00     113.53       2.48       0.45       1.28       ----

> <Gold.Chemscore.Fitness>
20.4527

> <Gold.Chemscore.DG>
-22.1762

> <Gold.Chemscore.ZeroCoef>
-5.4800

> <Gold.Chemscore.Hbond>
2.9218

> <Gold.Chemscore.Metal>
0.0000

> <Gold.Chemscore.Lipo>
113.5330

> <Gold.Chemscore.Internal_Hbond>
0.0000

> <Gold.Chemscore.DEClash>
0.4461

> <Gold.Chemscore.DEInternal>
1.2774

> <Gold.Chemscore.Rot>
2.4789

> <Gold.Chemscore.Internal.Correction>
   9.000000E+99

> <Gold.Chemscore.Hbonds>
donor molecule, donor type, donor heavy atom, donor atom, acceptor molecule, acceptor atom, score
      L1  H     5    43       P1  8028  0.93
      L1  H    10    31       P1  7957  0.15
      P1  H  7989  7998       L1    10  0.93
      P1  H 10752 10765       L1    14  0.88

> <Gold.Chemscore.Hbond.Weighted>
-9.7587

> <Gold.Chemscore.Metal.Weighted>
-0.0000

> <Gold.Chemscore.Lipo.Weighted>
-13.2834

> <Gold.Chemscore.Internal_Hbond.Weighted>
0.0000

> <Gold.Chemscore.DEClash.Weighted>
0.4461

> <Gold.Chemscore.DEInternal.Weighted>
1.2774

> <Gold.Chemscore.Rot.Weighted>
6.3459

> <Gold.Chemscore.Internal.Correction.Weighted>
   9.000000E+99

> <Gold.Protein.RotatedTorsions>
[ 6907 6896 6895 6894 ] final   23.07 input  -60.11 | X-H torsion
[ 7974 7965 7964 7962 ] final  -13.57 input  175.53 | X-H torsion
[ 8008 7997 7996 7995 ] final  164.06 input   59.86 | X-H torsion
[ 10167 10162 10161 10158 ] final   23.29 input  -65.29 | X-H torsion
[ 10718 10713 10712 10709 ] final   17.86 input   66.30 | X-H torsion
[ 10763 10752 10751 10750 ] final -105.94 input  -60.55 | X-H torsion
[ 11005 11000 10999 10996 ] final   75.31 input  -57.11 | X-H torsion

> <Gold.Protein.ActiveResidues>
 VAL166  LYS551  ARG553  GLY616  TRP617  ASP618  TYR619  PRO620  LYS621  CYS622 
 ASP623  PHE694  ASN695  SER759  ASP760  ASP761  ALA762  ILE779  LEU786  VAL792 
 PHE793  MET794  SER795  GLU796  ALA797  LYS798  CYS799  TRP800  GLU811  SER814 

> <Gold.Protein.RotatedAtoms>
  151.9367  135.0232  160.0532 H   0  0  0  0  0  0  0  0  0  0  0  0  # atno 6907 bound_to 6896
  152.2071  133.4879  159.5098 H   0  0  0  0  0  0  0  0  0  0  0  0  # atno 6908 bound_to 6896
  150.6967  134.1432  159.4155 H   0  0  0  0  0  0  0  0  0  0  0  0  # atno 6909 bound_to 6896
  146.2109  140.3223  142.8391 H   0  0  0  0  0  0  0  0  0  0  0  0  # atno 7974 bound_to 7965
  156.1909  140.1707  156.8094 H   0  0  0  0  0  0  0  0  0  0  0  0  # atno 8008 bound_to 7997
  154.5470  140.0725  156.8637 H   0  0  0  0  0  0  0  0  0  0  0  0  # atno 8009 bound_to 7997
  155.3102  140.3367  155.4246 H   0  0  0  0  0  0  0  0  0  0  0  0  # atno 8010 bound_to 7997
  140.5280  143.9889  150.6451 H   0  0  0  0  0  0  0  0  0  0  0  0  # atno 10167 bound_to 10162
  157.0881  130.6416  149.5842 H   0  0  0  0  0  0  0  0  0  0  0  0  # atno 10718 bound_to 10713
  154.7980  135.4730  154.0207 H   0  0  0  0  0  0  0  0  0  0  0  0  # atno 10763 bound_to 10752
  153.1735  135.6829  153.8582 H   0  0  0  0  0  0  0  0  0  0  0  0  # atno 10764 bound_to 10752
  153.8157  135.3211  155.3383 H   0  0  0  0  0  0  0  0  0  0  0  0  # atno 10765 bound_to 10752
  139.9350  134.7507  156.1255 H   0  0  0  0  0  0  0  0  0  0  0  0  # atno 11005 bound_to 11000
  144.8911  140.7525  143.5926 LP  0  0  0  0  0  0  0  0  0  0  0  0  # atno 17320 bound_to 7965
  145.3145  139.1808  143.4621 LP  0  0  0  0  0  0  0  0  0  0  0  0  # atno 17321 bound_to 7965
  140.3256  143.3109  152.0739 LP  0  0  0  0  0  0  0  0  0  0  0  0  # atno 17342 bound_to 10162
  139.4945  144.6544  151.6605 LP  0  0  0  0  0  0  0  0  0  0  0  0  # atno 17343 bound_to 10162
  155.9905  130.4957  150.7261 LP  0  0  0  0  0  0  0  0  0  0  0  0  # atno 17370 bound_to 10713
  157.4744  131.0896  151.0606 LP  0  0  0  0  0  0  0  0  0  0  0  0  # atno 17371 bound_to 10713
  141.0959  133.6696  156.2643 LP  0  0  0  0  0  0  0  0  0  0  0  0  # atno 17394 bound_to 11000
  140.6101  134.5467  157.5532 LP  0  0  0  0  0  0  0  0  0  0  0  0  # atno 17395 bound_to 11000

$$$$
