AV-unprocessed.smi:3028|AV-procd|sdf|11524|dock4
  -GOLD-   2272016463D 1   1.00000     0.00000
 Structure written by MMmdl.
 47 48  0  0  0  0  0  0  0  0  1 V2000
  151.2665  143.4933  158.2477 C   0  0  0  0  0  0  0  0  0  0  0  0
  151.0842  142.2219  157.4698 C   0  0  0  0  0  0  0  0  0  0  0  0
  151.3622  140.8907  157.8914 C   0  0  0  0  0  0  0  0  0  0  0  0
  151.0899  139.9899  156.9624 N   0  0  0  0  0  0  0  0  0  0  0  0
  150.6270  140.7096  155.9154 N   0  0  0  0  0  0  0  0  0  0  0  0
  150.2164  140.0405  154.6870 C   0  0  1  0  0  0  0  0  0  0  0  0
  150.6217  138.5543  154.7372 C   0  0  0  0  0  0  0  0  0  0  0  0
  148.7054  140.2474  154.3940 C   0  0  1  0  0  0  0  0  0  0  0  0
  148.3041  141.7280  154.2582 C   0  0  0  0  0  0  0  0  0  0  0  0
  148.3586  139.5979  153.1331 N   0  0  0  0  0  0  0  0  0  0  0  0
  146.9471  139.1931  153.0914 C   0  0  0  0  0  0  0  0  0  0  0  0
  146.6568  138.1257  152.0251 C   0  0  0  0  0  0  0  0  0  0  0  0
  146.7912  138.3878  150.8304 O   0  0  0  0  0  0  0  0  0  0  0  0
  146.2652  136.9014  152.4177 N   0  0  0  0  0  0  0  0  0  0  0  0
  145.9425  135.7547  151.5706 C   0  0  0  0  0  0  0  0  0  0  0  0
  144.4921  135.8648  151.0770 C   0  0  0  0  0  0  0  0  0  0  0  0
  144.0839  134.5981  150.3067 C   0  0  0  0  0  0  0  0  0  0  0  0
  144.2629  133.4492  151.1282 O   0  0  0  0  0  0  0  0  0  0  0  0
  145.6188  133.2469  151.5122 C   0  0  0  0  0  0  0  0  0  0  0  0
  146.1131  134.4385  152.3483 C   0  0  0  0  0  0  0  0  0  0  0  0
  150.6150  142.0601  156.1968 C   0  0  0  0  0  0  0  0  0  0  0  0
  151.7542  143.3157  159.2064 H   0  0  0  0  0  0  0  0  0  0  0  0
  150.3118  143.9759  158.4576 H   0  0  0  0  0  0  0  0  0  0  0  0
  151.8793  144.2130  157.7046 H   0  0  0  0  0  0  0  0  0  0  0  0
  151.7527  140.5544  158.8408 H   0  0  0  0  0  0  0  0  0  0  0  0
  150.7831  140.5065  153.8787 H   0  0  0  0  0  0  0  0  0  0  0  0
  150.4606  138.0641  153.7771 H   0  0  0  0  0  0  0  0  0  0  0  0
  150.0503  138.0082  155.4884 H   0  0  0  0  0  0  0  0  0  0  0  0
  151.6793  138.4455  154.9797 H   0  0  0  0  0  0  0  0  0  0  0  0
  148.1245  139.8295  155.2189 H   0  0  0  0  0  0  0  0  0  0  0  0
  148.4523  142.2729  155.1906 H   0  0  0  0  0  0  0  0  0  0  0  0
  147.2496  141.8266  153.9972 H   0  0  0  0  0  0  0  0  0  0  0  0
  148.8865  142.2294  153.4843 H   0  0  0  0  0  0  0  0  0  0  0  0
  148.9739  138.8115  152.9805 H   0  0  0  0  0  0  0  0  0  0  0  0
  146.6535  138.7977  154.0646 H   0  0  0  0  0  0  0  0  0  0  0  0
  146.3348  140.0732  152.8935 H   0  0  0  0  0  0  0  0  0  0  0  0
  146.1846  136.7503  153.4129 H   0  0  0  0  0  0  0  0  0  0  0  0
  146.5885  135.7367  150.6918 H   0  0  0  0  0  0  0  0  0  0  0  0
  143.8188  135.9999  151.9250 H   0  0  0  0  0  0  0  0  0  0  0  0
  144.3742  136.7428  150.4409 H   0  0  0  0  0  0  0  0  0  0  0  0
  143.0360  134.6602  150.0123 H   0  0  0  0  0  0  0  0  0  0  0  0
  144.6659  134.4962  149.3895 H   0  0  0  0  0  0  0  0  0  0  0  0
  145.6861  132.3279  152.0947 H   0  0  0  0  0  0  0  0  0  0  0  0
  146.2419  133.1089  150.6273 H   0  0  0  0  0  0  0  0  0  0  0  0
  147.1558  134.2877  152.6278 H   0  0  0  0  0  0  0  0  0  0  0  0
  145.5454  134.4814  153.2791 H   0  0  0  0  0  0  0  0  0  0  0  0
  150.2754  142.7882  155.4749 H   0  0  0  0  0  0  0  0  0  0  0  0
  1  2  1  0  0  0  0
  1 22  1  0  0  0  0
  1 23  1  0  0  0  0
  1 24  1  0  0  0  0
  2 21  2  0  0  0  0
  2  3  1  0  0  0  0
  3  4  2  0  0  0  0
  3 25  1  0  0  0  0
  4  5  1  0  0  0  0
  5  6  1  0  0  0  0
  5 21  1  0  0  0  0
  6  7  1  0  0  0  0
  6  8  1  0  0  0  0
  6 26  1  0  0  0  0
  7 27  1  0  0  0  0
  7 28  1  0  0  0  0
  7 29  1  0  0  0  0
  8  9  1  0  0  0  0
  8 10  1  0  0  0  0
  8 30  1  0  0  0  0
  9 31  1  0  0  0  0
  9 32  1  0  0  0  0
  9 33  1  0  0  0  0
 10 11  1  0  0  0  0
 10 34  1  0  0  0  0
 11 12  1  0  0  0  0
 11 35  1  0  0  0  0
 11 36  1  0  0  0  0
 12 13  2  0  0  0  0
 12 14  1  0  0  0  0
 14 15  1  0  0  0  0
 14 37  1  0  0  0  0
 15 20  1  0  0  0  0
 15 16  1  0  0  0  0
 15 38  1  0  0  0  0
 16 17  1  0  0  0  0
 16 39  1  0  0  0  0
 16 40  1  0  0  0  0
 17 18  1  0  0  0  0
 17 41  1  0  0  0  0
 17 42  1  0  0  0  0
 18 19  1  0  0  0  0
 19 20  1  0  0  0  0
 19 43  1  0  0  0  0
 19 44  1  0  0  0  0
 20 45  1  0  0  0  0
 20 46  1  0  0  0  0
 21 47  1  0  0  0  0
M  END
> <s_m_source_file>
AV-unprocessed.smi

> <i_m_source_file_index>
3028

> <i_lp_mmshare_version>
43012

> <i_f3d_flags>
0

> <s_epik_input>
W0NIM11jMVtjSF1ubihbY0hdMSlbQ0BIXShbQ0gzXSlbQ0BIXShbQ0gzXSlbTkhdW0NIMl1DKD1PKVtOSF1bQ0hdMltDSDJdW0NIMl1PW0NIMl1bQ0gyXTI=

> <s_epik_cmdline>
J2VwaWtfcHl0aG9uJywgJy1waCcsICc3LjAnLCAnLXRuJywgJzgnLCAnLW1hJywgJzIwMCcsICctbWV0YWxfYmluZGluZycsICctaW1hZScsICc8aW5maWxlLm1hZT4nLCAnLW9tYWUnLCAnPG91dGZpbGUubWFlPic=

> <r_lp_tautomer_probability>
1

> <r_epik_Ionization_Penalty>
0.88617

> <r_epik_Ionization_Penalty_Charging>
0

> <r_epik_Ionization_Penalty_Neutral>
0.88617

> <r_epik_State_Penalty>
0.921066

> <r_epik_Charging_Adjusted_Penalty>
0.921066

> <i_epik_Tot_Q>
0

> <i_epik_Tot_abs_Q>
0

> <r_epik_Metal_State_Penalty>
0.917309

> <b_epik_Metal_Only>
0

> <s_lp_Force_Field>
OPLS_2005

> <r_lp_Energy>
18.7055

> <b_lp_Chiralities_Consistent>
1

> <s_lp_Variant>
AV-unprocessed.smi:3028-8

> <Gold.Version>
5.8.1

> <Gold.Id.Protein>
6NUR|6NUR_protein|mol2

> <Gold.PLP.Fitness>
43.7400

> <Gold.PLP.PLP>
-39.2513

> <Gold.PLP.part.hbond>
-2.4239

> <Gold.PLP.part.metal>
0.0000

> <Gold.PLP.part.buried>
0.3447

> <Gold.PLP.part.nonpolar>
-37.9292

> <Gold.PLP.part.repulsive>
0.7973

> <Gold.PLP.ligand.clash>
0.0000

> <Gold.PLP.ligand.torsion>
0.8315

> <Gold.PLP.Chemscore.Hbond>
1.0000

> <Gold.PLP.Chemscore.CHOScore>
1.0000

> <Gold.PLP.Chemscore.Metal>
0.0000

> <Gold.Chemscore.Hbonds>
donor molecule, donor type, donor heavy atom, donor atom, acceptor molecule, acceptor atom, score
      P1  H  7954  7966       L1    13  1.00
      L1  C    21    47       P1  8028  1.00

> <Gold.PLP.Chemscore.Internal.Correction>
0.1518

> <Gold.Rescore>
     Score         DG    S(hbond)    S(metal)    S(lipo)     H(rot)  DE(clash)    DE(int)     intcor
     12.62     -14.59       0.98        0.00      92.12       1.92       0.93       1.05       ----

> <Gold.Chemscore.Fitness>
12.6153

> <Gold.Chemscore.DG>
-14.5940

> <Gold.Chemscore.ZeroCoef>
-5.4800

> <Gold.Chemscore.Hbond>
0.9760

> <Gold.Chemscore.Metal>
0.0000

> <Gold.Chemscore.Lipo>
92.1176

> <Gold.Chemscore.Internal_Hbond>
0.0000

> <Gold.Chemscore.DEClash>
0.9291

> <Gold.Chemscore.DEInternal>
1.0496

> <Gold.Chemscore.Rot>
1.9233

> <Gold.Chemscore.Internal.Correction>
   9.000000E+99

> <Gold.Chemscore.Hbonds>
donor molecule, donor type, donor heavy atom, donor atom, acceptor molecule, acceptor atom, score
      P1  H  7954  7966       L1    13  0.95

> <Gold.Chemscore.Hbond.Weighted>
-3.2598

> <Gold.Chemscore.Metal.Weighted>
-0.0000

> <Gold.Chemscore.Lipo.Weighted>
-10.7778

> <Gold.Chemscore.Internal_Hbond.Weighted>
0.0000

> <Gold.Chemscore.DEClash.Weighted>
0.9291

> <Gold.Chemscore.DEInternal.Weighted>
1.0496

> <Gold.Chemscore.Rot.Weighted>
4.9235

> <Gold.Chemscore.Internal.Correction.Weighted>
   9.000000E+99

> <Gold.Protein.RotatedTorsions>
[ 6907 6896 6895 6894 ] final   83.98 input  -60.11 | X-H torsion
[ 7974 7965 7964 7962 ] final   76.60 input  175.53 | X-H torsion
[ 8008 7997 7996 7995 ] final   91.26 input   59.86 | X-H torsion
[ 10167 10162 10161 10158 ] final  -15.94 input  -65.29 | X-H torsion
[ 10718 10713 10712 10709 ] final   86.48 input   66.30 | X-H torsion
[ 10763 10752 10751 10750 ] final   60.59 input  -60.55 | X-H torsion
[ 11005 11000 10999 10996 ] final  -41.33 input  -57.11 | X-H torsion

> <Gold.Protein.ActiveResidues>
 VAL166  LYS551  ARG553  GLY616  TRP617  ASP618  TYR619  PRO620  LYS621  CYS622 
 ASP623  PHE694  ASN695  SER759  ASP760  ASP761  ALA762  ILE779  LEU786  VAL792 
 PHE793  MET794  SER795  GLU796  ALA797  LYS798  CYS799  TRP800  GLU811  SER814 

> <Gold.Protein.RotatedAtoms>
  152.5341  134.2812  159.9007 H   0  0  0  0  0  0  0  0  0  0  0  0  # atno 6907 bound_to 6896
  151.2766  133.4223  159.2632 H   0  0  0  0  0  0  0  0  0  0  0  0  # atno 6908 bound_to 6896
  151.0320  134.9561  159.8173 H   0  0  0  0  0  0  0  0  0  0  0  0  # atno 6909 bound_to 6896
  145.7008  139.2582  143.1706 H   0  0  0  0  0  0  0  0  0  0  0  0  # atno 7974 bound_to 7965
  156.0216  140.3340  155.7045 H   0  0  0  0  0  0  0  0  0  0  0  0  # atno 8008 bound_to 7997
  155.6014  140.0656  157.2749 H   0  0  0  0  0  0  0  0  0  0  0  0  # atno 8009 bound_to 7997
  154.4318  140.1810  156.1164 H   0  0  0  0  0  0  0  0  0  0  0  0  # atno 8010 bound_to 7997
  140.7226  143.5166  150.9684 H   0  0  0  0  0  0  0  0  0  0  0  0  # atno 10167 bound_to 10162
  157.6929  131.0217  150.2979 H   0  0  0  0  0  0  0  0  0  0  0  0  # atno 10718 bound_to 10713
  152.9925  135.5531  154.5897 H   0  0  0  0  0  0  0  0  0  0  0  0  # atno 10763 bound_to 10752
  154.5261  135.2810  155.1222 H   0  0  0  0  0  0  0  0  0  0  0  0  # atno 10764 bound_to 10752
  154.2556  135.6390  153.5309 H   0  0  0  0  0  0  0  0  0  0  0  0  # atno 10765 bound_to 10752
  141.0238  133.6850  156.2442 H   0  0  0  0  0  0  0  0  0  0  0  0  # atno 11005 bound_to 11000
  146.0799  140.7775  142.9646 LP  0  0  0  0  0  0  0  0  0  0  0  0  # atno 17320 bound_to 7965
  144.6969  140.3473  143.7188 LP  0  0  0  0  0  0  0  0  0  0  0  0  # atno 17321 bound_to 7965
  139.8882  143.6986  152.3148 LP  0  0  0  0  0  0  0  0  0  0  0  0  # atno 17342 bound_to 10162
  139.7292  144.7586  151.0829 LP  0  0  0  0  0  0  0  0  0  0  0  0  # atno 17343 bound_to 10162
  156.3500  130.3829  149.7337 LP  0  0  0  0  0  0  0  0  0  0  0  0  # atno 17370 bound_to 10713
  156.4818  130.8044  151.3058 LP  0  0  0  0  0  0  0  0  0  0  0  0  # atno 17371 bound_to 10713
  140.6527  134.5050  157.5578 LP  0  0  0  0  0  0  0  0  0  0  0  0  # atno 17394 bound_to 11000
  139.9163  134.8240  156.1356 LP  0  0  0  0  0  0  0  0  0  0  0  0  # atno 17395 bound_to 11000

$$$$
