AV-unprocessed.smi:3089|AV-procd|sdf|11771|dock6
  -GOLD-   2272017153D 1   1.00000     0.00000
 Structure written by MMmdl.
 25 25  0  0  0  0  0  0  0  0  2 V2000
  146.8597  128.9059  152.0854 C   0  0  0  0  0  0  0  0  0  0  0  0
  146.3852  130.2264  151.7302 N   0  0  0  0  0  0  0  0  0  0  0  0
  145.2721  130.5730  150.9962 C   0  0  0  0  0  0  0  0  0  0  0  0
  145.2319  131.9388  150.9212 C   0  0  0  0  0  0  0  0  0  0  0  0
  144.2071  132.8166  150.2335 C   0  0  2  0  0  0  0  0  0  0  0  0
  144.5456  134.2994  150.4639 C   0  0  0  0  0  0  0  0  0  0  0  0
  142.9087  132.6291  150.7658 O   0  0  0  0  0  0  0  0  0  0  0  0
  144.1327  132.5080  148.7216 C   0  0  0  0  0  0  0  0  0  0  0  0
  143.3565  133.5211  147.9822 N   0  3  0  0  0  0  0  0  0  0  0  0
  146.3915  132.3352  151.6515 C   0  0  0  0  0  0  0  0  0  0  0  0
  147.0736  131.3113  152.1369 N   0  0  0  0  0  0  0  0  0  0  0  0
  146.1906  128.1459  151.6811 H   0  0  0  0  0  0  0  0  0  0  0  0
  146.8952  128.8051  153.1707 H   0  0  0  0  0  0  0  0  0  0  0  0
  147.8590  128.7504  151.6781 H   0  0  0  0  0  0  0  0  0  0  0  0
  144.6045  129.8265  150.5915 H   0  0  0  0  0  0  0  0  0  0  0  0
  145.5232  134.5535  150.0522 H   0  0  0  0  0  0  0  0  0  0  0  0
  144.5654  134.5412  151.5275 H   0  0  0  0  0  0  0  0  0  0  0  0
  143.8136  134.9556  149.9913 H   0  0  0  0  0  0  0  0  0  0  0  0
  142.3675  133.3618  150.5127 H   0  0  0  0  0  0  0  0  0  0  0  0
  145.1322  132.4476  148.2889 H   0  0  0  0  0  0  0  0  0  0  0  0
  143.6614  131.5382  148.5570 H   0  0  0  0  0  0  0  0  0  0  0  0
  142.9275  133.0983  147.1717 H   0  0  0  0  0  0  0  0  0  0  0  0
  143.9738  134.2655  147.6902 H   0  0  0  0  0  0  0  0  0  0  0  0
  146.7539  133.3339  151.8463 H   0  0  0  0  0  0  0  0  0  0  0  0
  142.6407  133.8996  148.5860 H   0  0  0  0  0  0  0  0  0  0  0  0
  1  2  1  0  0  0  0
  1 12  1  0  0  0  0
  1 13  1  0  0  0  0
  1 14  1  0  0  0  0
  2 11  1  0  0  0  0
  2  3  1  0  0  0  0
  3  4  2  0  0  0  0
  3 15  1  0  0  0  0
  4  5  1  0  0  0  0
  4 10  1  0  0  0  0
  5  6  1  0  0  0  0
  5  7  1  0  0  0  0
  5  8  1  0  0  0  0
  6 16  1  0  0  0  0
  6 17  1  0  0  0  0
  6 18  1  0  0  0  0
  7 19  1  0  0  0  0
  8  9  1  0  0  0  0
  8 20  1  0  0  0  0
  8 21  1  0  0  0  0
  9 22  1  0  0  0  0
  9 23  1  0  0  0  0
  9 25  1  0  0  0  0
 10 11  2  0  0  0  0
 10 24  1  0  0  0  0
M  CHG  1   9   1
M  END
> <s_m_source_file>
AV-unprocessed.smi

> <i_m_source_file_index>
3089

> <i_lp_mmshare_version>
43012

> <i_f3d_flags>
0

> <s_epik_input>
W0NIM11uMVtjSF1jKFtjSF1uMSlbQ0BAXShbQ0gzXSkoW09IXSlbQ0gyXVtOSDJd

> <s_epik_cmdline>
J2VwaWtfcHl0aG9uJywgJy1waCcsICc3LjAnLCAnLXRuJywgJzgnLCAnLW1hJywgJzIwMCcsICctbWV0YWxfYmluZGluZycsICctaW1hZScsICc8aW5maWxlLm1hZT4nLCAnLW9tYWUnLCAnPG91dGZpbGUubWFlPic=

> <r_lp_tautomer_probability>
1

> <r_epik_Ionization_Penalty>
0.0140512

> <r_epik_Ionization_Penalty_Charging>
0.0140431

> <r_epik_Ionization_Penalty_Neutral>
8.10489e-06

> <r_epik_State_Penalty>
0.0109628

> <r_epik_Charging_Adjusted_Penalty>
0.0250059

> <i_epik_Tot_Q>
1

> <i_epik_Tot_abs_Q>
1

> <r_epik_Metal_State_Penalty>
0.0109638

> <b_epik_Metal_Only>
0

> <s_lp_Force_Field>
OPLS_2005

> <r_lp_Energy>
3.27267

> <b_lp_Chiralities_Consistent>
1

> <s_lp_Variant>
AV-unprocessed.smi:3089-2

> <Gold.Version>
5.8.1

> <Gold.Id.Protein>
6NUR|6NUR_protein|mol2

> <Gold.PLP.Fitness>
42.1960

> <Gold.PLP.PLP>
-27.5625

> <Gold.PLP.part.hbond>
-4.0000

> <Gold.PLP.part.metal>
0.0000

> <Gold.PLP.part.buried>
-5.1209

> <Gold.PLP.part.nonpolar>
-18.8285

> <Gold.PLP.part.repulsive>
1.0331

> <Gold.PLP.ligand.clash>
0.0000

> <Gold.PLP.ligand.torsion>
0.1075

> <Gold.PLP.Chemscore.Hbond>
4.9440

> <Gold.PLP.Chemscore.CHOScore>
0.0000

> <Gold.PLP.Chemscore.Metal>
0.0000

> <Gold.Chemscore.Hbonds>
donor molecule, donor type, donor heavy atom, donor atom, acceptor molecule, acceptor atom, score
      L1  H     7    19       P1 10186  1.00
      L1  H     9    22       P1 10195  1.00
      L1  H     9    23       P1  7921  0.49
      L1  H     9    25       P1 10186  2.00

> <Gold.PLP.Chemscore.Internal.Correction>
0.0165

> <Gold.Rescore>
     Score         DG    S(hbond)    S(metal)    S(lipo)     H(rot)  DE(clash)    DE(int)     intcor
     19.82     -20.94       3.77        0.00      65.90       1.89       0.37       0.75       ----

> <Gold.Chemscore.Fitness>
19.8192

> <Gold.Chemscore.DG>
-20.9401

> <Gold.Chemscore.ZeroCoef>
-5.4800

> <Gold.Chemscore.Hbond>
3.7678

> <Gold.Chemscore.Metal>
0.0000

> <Gold.Chemscore.Lipo>
65.8960

> <Gold.Chemscore.Internal_Hbond>
0.0000

> <Gold.Chemscore.DEClash>
0.3677

> <Gold.Chemscore.DEInternal>
0.7532

> <Gold.Chemscore.Rot>
1.8883

> <Gold.Chemscore.Internal.Correction>
   9.000000E+99

> <Gold.Chemscore.Hbonds>
donor molecule, donor type, donor heavy atom, donor atom, acceptor molecule, acceptor atom, score
      L1  H     7    19       P1 10186  0.97
      L1  H     9    22       P1 10195  0.93
      L1  H     9    23       P1  7921  0.49
      L1  H     9    25       P1 10186  0.99

> <Gold.Chemscore.Hbond.Weighted>
-12.5843

> <Gold.Chemscore.Metal.Weighted>
-0.0000

> <Gold.Chemscore.Lipo.Weighted>
-7.7098

> <Gold.Chemscore.Internal_Hbond.Weighted>
0.0000

> <Gold.Chemscore.DEClash.Weighted>
0.3677

> <Gold.Chemscore.DEInternal.Weighted>
0.7532

> <Gold.Chemscore.Rot.Weighted>
4.8341

> <Gold.Chemscore.Internal.Correction.Weighted>
   9.000000E+99

> <Gold.Protein.RotatedTorsions>
[ 6907 6896 6895 6894 ] final   96.02 input  -60.11 | X-H torsion
[ 7974 7965 7964 7962 ] final  -74.42 input  175.53 | X-H torsion
[ 8008 7997 7996 7995 ] final -139.17 input   59.86 | X-H torsion
[ 10167 10162 10161 10158 ] final -169.95 input  -65.29 | X-H torsion
[ 10718 10713 10712 10709 ] final   88.79 input   66.30 | X-H torsion
[ 10763 10752 10751 10750 ] final -172.84 input  -60.55 | X-H torsion
[ 11005 11000 10999 10996 ] final  -53.52 input  -57.11 | X-H torsion

> <Gold.Protein.ActiveResidues>
 VAL166  LYS551  ARG553  GLY616  TRP617  ASP618  TYR619  PRO620  LYS621  CYS622 
 ASP623  PHE694  ASN695  SER759  ASP760  ASP761  ALA762  ILE779  LEU786  VAL792 
 PHE793  MET794  SER795  GLU796  ALA797  LYS798  CYS799  TRP800  GLU811  SER814 

> <Gold.Protein.RotatedAtoms>
  152.5439  134.0950  159.8293 H   0  0  0  0  0  0  0  0  0  0  0  0  # atno 6907 bound_to 6896
  151.1035  133.5218  159.2616 H   0  0  0  0  0  0  0  0  0  0  0  0  # atno 6908 bound_to 6896
  151.1964  135.0433  159.8908 H   0  0  0  0  0  0  0  0  0  0  0  0  # atno 6909 bound_to 6896
  145.6393  140.9315  143.1044 H   0  0  0  0  0  0  0  0  0  0  0  0  # atno 7974 bound_to 7965
  155.4404  140.0531  157.3011 H   0  0  0  0  0  0  0  0  0  0  0  0  # atno 8008 bound_to 7997
  154.4820  140.2085  155.9698 H   0  0  0  0  0  0  0  0  0  0  0  0  # atno 8009 bound_to 7997
  156.1220  140.3186  155.8227 H   0  0  0  0  0  0  0  0  0  0  0  0  # atno 8010 bound_to 7997
  139.5891  144.1252  152.1613 H   0  0  0  0  0  0  0  0  0  0  0  0  # atno 10167 bound_to 10162
  157.6951  131.0308  150.3328 H   0  0  0  0  0  0  0  0  0  0  0  0  # atno 10718 bound_to 10713
  154.6147  135.2868  155.0393 H   0  0  0  0  0  0  0  0  0  0  0  0  # atno 10763 bound_to 10752
  154.1610  135.6488  153.4989 H   0  0  0  0  0  0  0  0  0  0  0  0  # atno 10764 bound_to 10752
  153.0210  135.5378  154.6914 H   0  0  0  0  0  0  0  0  0  0  0  0  # atno 10765 bound_to 10752
  141.0980  133.6622  156.4184 H   0  0  0  0  0  0  0  0  0  0  0  0  # atno 11005 bound_to 11000
  144.7163  139.8184  143.7397 LP  0  0  0  0  0  0  0  0  0  0  0  0  # atno 17320 bound_to 7965
  146.1294  139.4326  143.0178 LP  0  0  0  0  0  0  0  0  0  0  0  0  # atno 17321 bound_to 7965
  140.0822  144.5691  150.7114 LP  0  0  0  0  0  0  0  0  0  0  0  0  # atno 17342 bound_to 10162
  140.7158  143.2543  151.4439 LP  0  0  0  0  0  0  0  0  0  0  0  0  # atno 17343 bound_to 10162
  156.3799  130.3878  149.7109 LP  0  0  0  0  0  0  0  0  0  0  0  0  # atno 17370 bound_to 10713
  156.4495  130.7900  151.2921 LP  0  0  0  0  0  0  0  0  0  0  0  0  # atno 17371 bound_to 10713
  140.5092  134.6411  157.5278 LP  0  0  0  0  0  0  0  0  0  0  0  0  # atno 17394 bound_to 11000
  139.9822  134.7118  155.9838 LP  0  0  0  0  0  0  0  0  0  0  0  0  # atno 17395 bound_to 11000

$$$$
