AV-unprocessed.smi:449|AV-procd|sdf|2606|dock2
  -GOLD-   2262023 03D 1   1.00000     0.00000
 Structure written by MMmdl.
 38 39  0  0  0  0  0  0  0  0  1 V2000
  153.9943  133.3523  165.2667 C   0  0  0  0  0  0  0  0  0  0  0  0
  155.2604  134.2935  164.3767 S   0  0  0  0  0  0  0  0  0  0  0  0
  154.3446  134.6661  162.8571 C   0  0  0  0  0  0  0  0  0  0  0  0
  155.1650  135.5589  161.9130 C   0  0  0  0  0  0  0  0  0  0  0  0
  154.3194  136.6501  161.2497 C   0  0  0  0  0  0  0  0  0  0  0  0
  153.3825  136.3353  160.5154 O   0  0  0  0  0  0  0  0  0  0  0  0
  154.6837  137.9169  161.5242 N   0  0  0  0  0  0  0  0  0  0  0  0
  154.0870  139.1233  161.0714 C   0  0  0  0  0  0  0  0  0  0  0  0
  153.3393  139.0108  159.8805 C   0  0  0  0  0  0  0  0  0  0  0  0
  152.7106  140.1507  159.3449 C   0  0  0  0  0  0  0  0  0  0  0  0
  152.8340  141.3933  160.0107 C   0  0  0  0  0  0  0  0  0  0  0  0
  152.2367  142.5793  159.5315 N   0  0  0  0  0  0  0  0  0  0  0  0
  151.2288  142.4112  158.4874 C   0  0  0  0  0  0  0  0  0  0  0  0
  150.4316  143.7136  158.2984 C   0  0  0  0  0  0  0  0  0  0  0  0
  151.3239  144.7929  158.0405 O   0  0  0  0  0  0  0  0  0  0  0  0
  152.2196  145.0084  159.1259 C   0  0  0  0  0  0  0  0  0  0  0  0
  153.0831  143.7538  159.3427 C   0  0  0  0  0  0  0  0  0  0  0  0
  153.6057  141.4026  161.1956 C   0  0  0  0  0  0  0  0  0  0  0  0
  154.2106  140.3115  161.7096 N   0  0  0  0  0  0  0  0  0  0  0  0
  154.3747  133.0337  166.2370 H   0  0  0  0  0  0  0  0  0  0  0  0
  153.7080  132.4668  164.6988 H   0  0  0  0  0  0  0  0  0  0  0  0
  153.1072  133.9651  165.4273 H   0  0  0  0  0  0  0  0  0  0  0  0
  154.0860  133.7251  162.3702 H   0  0  0  0  0  0  0  0  0  0  0  0
  153.4093  135.1586  163.1267 H   0  0  0  0  0  0  0  0  0  0  0  0
  155.9845  136.0182  162.4679 H   0  0  0  0  0  0  0  0  0  0  0  0
  155.6200  134.9524  161.1294 H   0  0  0  0  0  0  0  0  0  0  0  0
  155.4765  138.0288  162.1389 H   0  0  0  0  0  0  0  0  0  0  0  0
  153.2448  138.0601  159.3761 H   0  0  0  0  0  0  0  0  0  0  0  0
  152.1383  140.0461  158.4358 H   0  0  0  0  0  0  0  0  0  0  0  0
  151.7292  142.1434  157.5559 H   0  0  0  0  0  0  0  0  0  0  0  0
  150.5367  141.6029  158.7187 H   0  0  0  0  0  0  0  0  0  0  0  0
  149.7436  143.6141  157.4589 H   0  0  0  0  0  0  0  0  0  0  0  0
  149.8274  143.9300  159.1809 H   0  0  0  0  0  0  0  0  0  0  0  0
  152.8540  145.8650  158.8983 H   0  0  0  0  0  0  0  0  0  0  0  0
  151.6604  145.2574  160.0293 H   0  0  0  0  0  0  0  0  0  0  0  0
  153.7215  143.9035  160.2143 H   0  0  0  0  0  0  0  0  0  0  0  0
  153.7326  143.5968  158.4804 H   0  0  0  0  0  0  0  0  0  0  0  0
  153.7670  142.3159  161.7487 H   0  0  0  0  0  0  0  0  0  0  0  0
  1  2  1  0  0  0  0
  1 20  1  0  0  0  0
  1 21  1  0  0  0  0
  1 22  1  0  0  0  0
  2  3  1  0  0  0  0
  3  4  1  0  0  0  0
  3 23  1  0  0  0  0
  3 24  1  0  0  0  0
  4  5  1  0  0  0  0
  4 25  1  0  0  0  0
  4 26  1  0  0  0  0
  5  6  2  0  0  0  0
  5  7  1  0  0  0  0
  7  8  1  0  0  0  0
  7 27  1  0  0  0  0
  8 19  1  0  0  0  0
  8  9  2  0  0  0  0
  9 10  1  0  0  0  0
  9 28  1  0  0  0  0
 10 11  2  0  0  0  0
 10 29  1  0  0  0  0
 11 12  1  0  0  0  0
 11 18  1  0  0  0  0
 12 17  1  0  0  0  0
 12 13  1  0  0  0  0
 13 14  1  0  0  0  0
 13 30  1  0  0  0  0
 13 31  1  0  0  0  0
 14 15  1  0  0  0  0
 14 32  1  0  0  0  0
 14 33  1  0  0  0  0
 15 16  1  0  0  0  0
 16 17  1  0  0  0  0
 16 34  1  0  0  0  0
 16 35  1  0  0  0  0
 17 36  1  0  0  0  0
 17 37  1  0  0  0  0
 18 19  2  0  0  0  0
 18 38  1  0  0  0  0
M  END
> <s_m_source_file>
AV-unprocessed.smi

> <i_m_source_file_index>
449

> <i_lp_mmshare_version>
43012

> <i_f3d_flags>
0

> <s_epik_input>
W0NIM11TW0NIMl1bQ0gyXUMoPU8pW05IXWMxW2NIXVtjSF1jKFtjSF1uMSlOMltDSDJdW0NIMl1PW0NIMl1bQ0gyXTI=

> <s_epik_cmdline>
J2VwaWtfcHl0aG9uJywgJy1waCcsICc3LjAnLCAnLXRuJywgJzgnLCAnLW1hJywgJzIwMCcsICctbWV0YWxfYmluZGluZycsICctaW1hZScsICc8aW5maWxlLm1hZT4nLCAnLW9tYWUnLCAnPG91dGZpbGUubWFlPic=

> <r_lp_tautomer_probability>
1

> <r_epik_Ionization_Penalty>
0.00212969

> <r_epik_Ionization_Penalty_Charging>
0

> <r_epik_Ionization_Penalty_Neutral>
0.00212969

> <r_epik_State_Penalty>
0.00229518

> <r_epik_Charging_Adjusted_Penalty>
0.00229518

> <i_epik_Tot_Q>
0

> <i_epik_Tot_abs_Q>
0

> <r_epik_Metal_State_Penalty>
-0

> <b_epik_Metal_Only>
0

> <s_lp_Force_Field>
OPLS_2005

> <r_lp_Energy>
23.7251

> <b_lp_Chiralities_Consistent>
1

> <s_lp_Variant>
AV-unprocessed.smi:449-1

> <Gold.Version>
5.8.1

> <Gold.Id.Protein>
6NUR|6NUR_protein|mol2

> <Gold.PLP.Fitness>
37.8363

> <Gold.PLP.PLP>
-35.6423

> <Gold.PLP.part.hbond>
-1.0000

> <Gold.PLP.part.metal>
0.0000

> <Gold.PLP.part.buried>
-5.3310

> <Gold.PLP.part.nonpolar>
-28.8933

> <Gold.PLP.part.repulsive>
0.1531

> <Gold.PLP.ligand.clash>
0.0000

> <Gold.PLP.ligand.torsion>
0.6103

> <Gold.PLP.Chemscore.Hbond>
1.0000

> <Gold.PLP.Chemscore.CHOScore>
0.0000

> <Gold.PLP.Chemscore.Metal>
0.0000

> <Gold.Chemscore.Hbonds>
donor molecule, donor type, donor heavy atom, donor atom, acceptor molecule, acceptor atom, score
      P1  H  6896  6907       L1     6  1.00

> <Gold.PLP.Chemscore.Internal.Correction>
0.4146

> <Gold.Rescore>
     Score         DG    S(hbond)    S(metal)    S(lipo)     H(rot)  DE(clash)    DE(int)     intcor
     14.96     -17.34       1.00        0.00     104.63       1.45       0.18       2.21       ----

> <Gold.Chemscore.Fitness>
14.9581

> <Gold.Chemscore.DG>
-17.3401

> <Gold.Chemscore.ZeroCoef>
-5.4800

> <Gold.Chemscore.Hbond>
0.9966

> <Gold.Chemscore.Metal>
0.0000

> <Gold.Chemscore.Lipo>
104.6314

> <Gold.Chemscore.Internal_Hbond>
0.0000

> <Gold.Chemscore.DEClash>
0.1770

> <Gold.Chemscore.DEInternal>
2.2050

> <Gold.Chemscore.Rot>
1.4493

> <Gold.Chemscore.Internal.Correction>
   9.000000E+99

> <Gold.Chemscore.Hbonds>
donor molecule, donor type, donor heavy atom, donor atom, acceptor molecule, acceptor atom, score
      P1  H  6896  6907       L1     6  1.00

> <Gold.Chemscore.Hbond.Weighted>
-3.3286

> <Gold.Chemscore.Metal.Weighted>
-0.0000

> <Gold.Chemscore.Lipo.Weighted>
-12.2419

> <Gold.Chemscore.Internal_Hbond.Weighted>
0.0000

> <Gold.Chemscore.DEClash.Weighted>
0.1770

> <Gold.Chemscore.DEInternal.Weighted>
2.2050

> <Gold.Chemscore.Rot.Weighted>
3.7103

> <Gold.Chemscore.Internal.Correction.Weighted>
   9.000000E+99

> <Gold.Protein.RotatedTorsions>
[ 6907 6896 6895 6894 ] final   31.63 input  -60.11 | X-H torsion
[ 7974 7965 7964 7962 ] final  -51.48 input  175.53 | X-H torsion
[ 8008 7997 7996 7995 ] final  -81.49 input   59.86 | X-H torsion
[ 10167 10162 10161 10158 ] final  108.86 input  -65.29 | X-H torsion
[ 10718 10713 10712 10709 ] final -136.49 input   66.30 | X-H torsion
[ 10763 10752 10751 10750 ] final   89.57 input  -60.55 | X-H torsion
[ 11005 11000 10999 10996 ] final    1.92 input  -57.11 | X-H torsion

> <Gold.Protein.ActiveResidues>
 VAL166  LYS551  ARG553  GLY616  TRP617  ASP618  TYR619  PRO620  LYS621  CYS622 
 ASP623  PHE694  ASN695  SER759  ASP760  ASP761  ALA762  ILE779  LEU786  VAL792 
 PHE793  MET794  SER795  GLU796  ALA797  LYS798  CYS799  TRP800  GLU811  SER814 

> <Gold.Protein.RotatedAtoms>
  152.0631  134.9582  160.0574 H   0  0  0  0  0  0  0  0  0  0  0  0  # atno 6907 bound_to 6896
  152.0937  133.4209  159.4564 H   0  0  0  0  0  0  0  0  0  0  0  0  # atno 6908 bound_to 6896
  150.6837  134.2761  159.4651 H   0  0  0  0  0  0  0  0  0  0  0  0  # atno 6909 bound_to 6896
  145.9185  140.7854  142.9659 H   0  0  0  0  0  0  0  0  0  0  0  0  # atno 7974 bound_to 7965
  154.5988  140.0647  156.9340 H   0  0  0  0  0  0  0  0  0  0  0  0  # atno 8008 bound_to 7997
  155.2167  140.3327  155.4303 H   0  0  0  0  0  0  0  0  0  0  0  0  # atno 8009 bound_to 7997
  156.2305  140.1838  156.7239 H   0  0  0  0  0  0  0  0  0  0  0  0  # atno 8010 bound_to 7997
  139.6812  144.7118  151.1512 H   0  0  0  0  0  0  0  0  0  0  0  0  # atno 10167 bound_to 10162
  156.2776  130.7302  151.1289 H   0  0  0  0  0  0  0  0  0  0  0  0  # atno 10718 bound_to 10713
  153.1885  135.4465  155.0119 H   0  0  0  0  0  0  0  0  0  0  0  0  # atno 10763 bound_to 10752
  154.8075  135.3280  154.7395 H   0  0  0  0  0  0  0  0  0  0  0  0  # atno 10764 bound_to 10752
  153.7852  135.6974  153.4936 H   0  0  0  0  0  0  0  0  0  0  0  0  # atno 10765 bound_to 10752
  140.6101  133.9757  155.8173 H   0  0  0  0  0  0  0  0  0  0  0  0  # atno 11005 bound_to 11000
  144.6750  140.1938  143.7394 LP  0  0  0  0  0  0  0  0  0  0  0  0  # atno 17320 bound_to 7965
  145.8580  139.2208  143.1733 LP  0  0  0  0  0  0  0  0  0  0  0  0  # atno 17321 bound_to 7965
  140.7653  143.5696  150.9010 LP  0  0  0  0  0  0  0  0  0  0  0  0  # atno 17342 bound_to 10162
  139.9368  143.6428  152.3063 LP  0  0  0  0  0  0  0  0  0  0  0  0  # atno 17343 bound_to 10162
  157.7304  131.0616  150.5728 LP  0  0  0  0  0  0  0  0  0  0  0  0  # atno 17370 bound_to 10713
  156.5830  130.4309  149.5969 LP  0  0  0  0  0  0  0  0  0  0  0  0  # atno 17371 bound_to 10713
  141.0814  134.0056  157.3380 LP  0  0  0  0  0  0  0  0  0  0  0  0  # atno 17394 bound_to 11000
  139.9196  135.0199  156.8013 LP  0  0  0  0  0  0  0  0  0  0  0  0  # atno 17395 bound_to 11000

$$$$
