AV-unprocessed.smi:223|AV-procd|sdf|1706|dock3
  -GOLD-   2262020163D 1   1.00000     0.00000
 Structure written by MMmdl.
 47 50  0  0  0  0  0  0  0  0  1 V2000
  152.8624  142.3639  162.1226 C   0  0  0  0  0  0  0  0  0  0  0  0
  152.3363  142.5021  160.6892 C   0  0  1  0  0  0  0  0  0  0  0  0
  151.9219  143.8900  160.4257 C   0  0  0  0  0  0  0  0  0  0  0  0
  151.5971  144.9814  160.2201 N   0  0  0  0  0  0  0  0  0  0  0  0
  153.3745  141.9929  159.6678 C   0  0  0  0  0  0  0  0  0  0  0  0
  153.2083  140.5857  159.3035 N   0  0  0  0  0  0  0  0  0  0  0  0
  152.6977  140.3189  158.0699 C   0  0  0  0  0  0  0  0  0  0  0  0
  153.2717  139.3467  157.3108 N   0  0  0  0  0  0  0  0  0  0  0  0
  152.8084  139.0747  156.0882 C   0  0  0  0  0  0  0  0  0  0  0  0
  151.7931  139.6424  155.4369 N   0  0  0  0  0  0  0  0  0  0  0  0
  151.2019  140.6112  156.1920 C   0  0  0  0  0  0  0  0  0  0  0  0
  151.5882  141.0136  157.5032 C   0  0  0  0  0  0  0  0  0  0  0  0
  150.7478  142.0297  157.9445 N   0  0  0  0  0  0  0  0  0  0  0  0
  149.9225  142.2216  156.9529 C   0  0  0  0  0  0  0  0  0  0  0  0
  150.1149  141.4033  155.8635 N   0  0  0  0  0  0  0  0  0  0  0  0
  149.3415  141.3933  154.6302 C   0  0  0  0  0  0  0  0  0  0  0  0
  147.8608  140.9838  154.8264 C   0  0  2  0  0  0  0  0  0  0  0  0
  147.8032  139.6058  155.1464 O   0  0  0  0  0  0  0  0  0  0  0  0
  147.0130  141.2412  153.5783 C   0  0  0  0  0  0  0  0  0  0  0  0
  146.1334  142.4200  153.9771 C   0  0  0  0  0  0  0  0  0  0  0  0
  145.8966  142.1778  155.3521 O   0  0  0  0  0  0  0  0  0  0  0  0
  147.1362  141.7878  155.9247 C   0  0  0  0  0  0  0  0  0  0  0  0
  154.1460  139.6264  159.8830 C   0  0  0  0  0  0  0  0  0  0  0  0
  154.6815  139.8709  161.2764 C   0  0  0  0  0  0  0  0  0  0  0  0
  155.5838  140.0467  160.0780 C   0  0  0  0  0  0  0  0  0  0  0  0
  152.1148  142.6904  162.8461 H   0  0  0  0  0  0  0  0  0  0  0  0
  153.7582  142.9670  162.2740 H   0  0  0  0  0  0  0  0  0  0  0  0
  153.1126  141.3277  162.3505 H   0  0  0  0  0  0  0  0  0  0  0  0
  151.4318  141.8983  160.6137 H   0  0  0  0  0  0  0  0  0  0  0  0
  153.3028  142.5951  158.7613 H   0  0  0  0  0  0  0  0  0  0  0  0
  154.3849  142.1577  160.0383 H   0  0  0  0  0  0  0  0  0  0  0  0
  153.3265  138.2910  155.5553 H   0  0  0  0  0  0  0  0  0  0  0  0
  149.1424  142.9676  156.9936 H   0  0  0  0  0  0  0  0  0  0  0  0
  149.3984  142.3880  154.1863 H   0  0  0  0  0  0  0  0  0  0  0  0
  149.8298  140.7182  153.9260 H   0  0  0  0  0  0  0  0  0  0  0  0
  148.4964  139.1618  154.6826 H   0  0  0  0  0  0  0  0  0  0  0  0
  147.6041  141.4492  152.6857 H   0  0  0  0  0  0  0  0  0  0  0  0
  146.3749  140.3845  153.3543 H   0  0  0  0  0  0  0  0  0  0  0  0
  146.6636  143.3657  153.8534 H   0  0  0  0  0  0  0  0  0  0  0  0
  145.2043  142.4656  153.4086 H   0  0  0  0  0  0  0  0  0  0  0  0
  146.9902  141.2312  156.8514 H   0  0  0  0  0  0  0  0  0  0  0  0
  147.6815  142.6994  156.1703 H   0  0  0  0  0  0  0  0  0  0  0  0
  153.9854  138.5840  159.6160 H   0  0  0  0  0  0  0  0  0  0  0  0
  154.3566  140.7703  161.7961 H   0  0  0  0  0  0  0  0  0  0  0  0
  154.8461  139.0008  161.9083 H   0  0  0  0  0  0  0  0  0  0  0  0
  156.3517  139.2946  159.9103 H   0  0  0  0  0  0  0  0  0  0  0  0
  155.8587  141.0633  159.8036 H   0  0  0  0  0  0  0  0  0  0  0  0
  1  2  1  0  0  0  0
  1 26  1  0  0  0  0
  1 27  1  0  0  0  0
  1 28  1  0  0  0  0
  2  3  1  0  0  0  0
  2  5  1  0  0  0  0
  2 29  1  0  0  0  0
  3  4  3  0  0  0  0
  5  6  1  0  0  0  0
  5 30  1  0  0  0  0
  5 31  1  0  0  0  0
  6  7  1  0  0  0  0
  6 23  1  0  0  0  0
  7 12  1  0  0  0  0
  7  8  2  0  0  0  0
  8  9  1  0  0  0  0
  9 10  2  0  0  0  0
  9 32  1  0  0  0  0
 10 11  1  0  0  0  0
 11 15  1  0  0  0  0
 11 12  2  0  0  0  0
 12 13  1  0  0  0  0
 13 14  2  0  0  0  0
 14 15  1  0  0  0  0
 14 33  1  0  0  0  0
 15 16  1  0  0  0  0
 16 17  1  0  0  0  0
 16 34  1  0  0  0  0
 16 35  1  0  0  0  0
 17 22  1  0  0  0  0
 17 18  1  0  0  0  0
 17 19  1  0  0  0  0
 18 36  1  0  0  0  0
 19 20  1  0  0  0  0
 19 37  1  0  0  0  0
 19 38  1  0  0  0  0
 20 21  1  0  0  0  0
 20 39  1  0  0  0  0
 20 40  1  0  0  0  0
 21 22  1  0  0  0  0
 22 41  1  0  0  0  0
 22 42  1  0  0  0  0
 23 25  1  0  0  0  0
 23 24  1  0  0  0  0
 23 43  1  0  0  0  0
 24 25  1  0  0  0  0
 24 44  1  0  0  0  0
 24 45  1  0  0  0  0
 25 46  1  0  0  0  0
 25 47  1  0  0  0  0
M  END
> <s_m_source_file>
AV-unprocessed.smi

> <i_m_source_file_index>
223

> <i_lp_mmshare_version>
43012

> <i_f3d_flags>
0

> <s_epik_input>
TiNDW0NAQEhdKFtDSDNdKVtDSDJdTihbQ0hdMVtDSDJdW0NIMl0xKWMobltjSF1uMiljKGMyMyluW2NIXW4zW0NIMl1bQ0BAXTQoW09IXSlbQ0gyXVtDSDJdT1tDSDJdNA==

> <s_epik_cmdline>
J2VwaWtfcHl0aG9uJywgJy1waCcsICc3LjAnLCAnLXRuJywgJzgnLCAnLW1hJywgJzIwMCcsICctbWV0YWxfYmluZGluZycsICctaW1hZScsICc8aW5maWxlLm1hZT4nLCAnLW9tYWUnLCAnPG91dGZpbGUubWFlPic=

> <r_lp_tautomer_probability>
1

> <r_epik_Ionization_Penalty>
0.000756152

> <r_epik_Ionization_Penalty_Charging>
0

> <r_epik_Ionization_Penalty_Neutral>
0.000756152

> <r_epik_State_Penalty>
0.00038036

> <r_epik_Charging_Adjusted_Penalty>
0.00038036

> <i_epik_Tot_Q>
0

> <i_epik_Tot_abs_Q>
0

> <r_epik_Metal_State_Penalty>
-0

> <b_epik_Metal_Only>
0

> <s_lp_Force_Field>
OPLS_2005

> <r_lp_Energy>
37.1983

> <b_lp_Chiralities_Consistent>
1

> <s_lp_Variant>
AV-unprocessed.smi:223-4

> <Gold.Version>
5.8.1

> <Gold.Id.Protein>
6NUR|6NUR_protein|mol2

> <Gold.PLP.Fitness>
52.4262

> <Gold.PLP.PLP>
-48.8561

> <Gold.PLP.part.hbond>
-1.0000

> <Gold.PLP.part.metal>
0.0000

> <Gold.PLP.part.buried>
-2.8525

> <Gold.PLP.part.nonpolar>
-44.3436

> <Gold.PLP.part.repulsive>
0.3634

> <Gold.PLP.ligand.clash>
0.0000

> <Gold.PLP.ligand.torsion>
1.5215

> <Gold.PLP.Chemscore.Hbond>
0.7296

> <Gold.PLP.Chemscore.CHOScore>
0.9999

> <Gold.PLP.Chemscore.Metal>
0.0000

> <Gold.Chemscore.Hbonds>
donor molecule, donor type, donor heavy atom, donor atom, acceptor molecule, acceptor atom, score
      P1  H  7989  7998       L1    10  0.25
      P1  H  7997  8009       L1     8  0.46
      L1  C    14    33       P1  8028  0.96

> <Gold.PLP.Chemscore.Internal.Correction>
1.4248

> <Gold.Rescore>
     Score         DG    S(hbond)    S(metal)    S(lipo)     H(rot)  DE(clash)    DE(int)     intcor
      7.91      -9.21       0.01        0.00      91.05       2.72       0.06       1.25       ----

> <Gold.Chemscore.Fitness>
7.9066

> <Gold.Chemscore.DG>
-9.2114

> <Gold.Chemscore.ZeroCoef>
-5.4800

> <Gold.Chemscore.Hbond>
0.0103

> <Gold.Chemscore.Metal>
0.0000

> <Gold.Chemscore.Lipo>
91.0489

> <Gold.Chemscore.Internal_Hbond>
0.0000

> <Gold.Chemscore.DEClash>
0.0564

> <Gold.Chemscore.DEInternal>
1.2484

> <Gold.Chemscore.Rot>
2.7171

> <Gold.Chemscore.Internal.Correction>
   9.000000E+99

> <Gold.Chemscore.Hbonds>
donor molecule, donor type, donor heavy atom, donor atom, acceptor molecule, acceptor atom, score
      P1  H  7989  7998       L1    10  0.02
      P1  H  7997  8009       L1     8  0.07

> <Gold.Chemscore.Hbond.Weighted>
-0.0344

> <Gold.Chemscore.Metal.Weighted>
-0.0000

> <Gold.Chemscore.Lipo.Weighted>
-10.6527

> <Gold.Chemscore.Internal_Hbond.Weighted>
0.0000

> <Gold.Chemscore.DEClash.Weighted>
0.0564

> <Gold.Chemscore.DEInternal.Weighted>
1.2484

> <Gold.Chemscore.Rot.Weighted>
6.9558

> <Gold.Chemscore.Internal.Correction.Weighted>
   9.000000E+99

> <Gold.Protein.RotatedTorsions>
[ 6907 6896 6895 6894 ] final   20.38 input  -60.11 | X-H torsion
[ 7974 7965 7964 7962 ] final -117.50 input  175.53 | X-H torsion
[ 8008 7997 7996 7995 ] final  132.12 input   59.86 | X-H torsion
[ 10167 10162 10161 10158 ] final   61.66 input  -65.29 | X-H torsion
[ 10718 10713 10712 10709 ] final   27.18 input   66.30 | X-H torsion
[ 10763 10752 10751 10750 ] final -125.23 input  -60.55 | X-H torsion
[ 11005 11000 10999 10996 ] final   42.66 input  -57.11 | X-H torsion

> <Gold.Protein.ActiveResidues>
 VAL166  LYS551  ARG553  GLY616  TRP617  ASP618  TYR619  PRO620  LYS621  CYS622 
 ASP623  PHE694  ASN695  SER759  ASP760  ASP761  ALA762  ILE779  LEU786  VAL792 
 PHE793  MET794  SER795  GLU796  ALA797  LYS798  CYS799  TRP800  GLU811  SER814 

> <Gold.Protein.RotatedAtoms>
  151.8955  135.0399  160.0501 H   0  0  0  0  0  0  0  0  0  0  0  0  # atno 6907 bound_to 6896
  152.2401  133.5123  159.5273 H   0  0  0  0  0  0  0  0  0  0  0  0  # atno 6908 bound_to 6896
  150.7051  134.1017  159.4011 H   0  0  0  0  0  0  0  0  0  0  0  0  # atno 6909 bound_to 6896
  145.0845  140.8448  143.4019 H   0  0  0  0  0  0  0  0  0  0  0  0  # atno 7974 bound_to 7965
  156.2979  140.2554  156.3038 H   0  0  0  0  0  0  0  0  0  0  0  0  # atno 8008 bound_to 7997
  154.9392  140.0396  157.2107 H   0  0  0  0  0  0  0  0  0  0  0  0  # atno 8009 bound_to 7997
  154.8143  140.2849  155.5836 H   0  0  0  0  0  0  0  0  0  0  0  0  # atno 8010 bound_to 7997
  140.1524  144.4450  150.6752 H   0  0  0  0  0  0  0  0  0  0  0  0  # atno 10167 bound_to 10162
  157.2168  130.6960  149.6252 H   0  0  0  0  0  0  0  0  0  0  0  0  # atno 10718 bound_to 10713
  154.8733  135.4036  154.3235 H   0  0  0  0  0  0  0  0  0  0  0  0  # atno 10763 bound_to 10752
  153.4059  135.7019  153.6398 H   0  0  0  0  0  0  0  0  0  0  0  0  # atno 10764 bound_to 10752
  153.5121  135.3705  155.2562 H   0  0  0  0  0  0  0  0  0  0  0  0  # atno 10765 bound_to 10752
  140.1718  134.4212  155.8252 H   0  0  0  0  0  0  0  0  0  0  0  0  # atno 11005 bound_to 11000
  145.1139  139.2738  143.5623 LP  0  0  0  0  0  0  0  0  0  0  0  0  # atno 17320 bound_to 7965
  146.3531  140.0743  142.8621 LP  0  0  0  0  0  0  0  0  0  0  0  0  # atno 17321 bound_to 7965
  140.6694  143.2280  151.5662 LP  0  0  0  0  0  0  0  0  0  0  0  0  # atno 17342 bound_to 10162
  139.5419  144.2623  152.1368 LP  0  0  0  0  0  0  0  0  0  0  0  0  # atno 17343 bound_to 10162
  155.9685  130.4533  150.5806 LP  0  0  0  0  0  0  0  0  0  0  0  0  # atno 17370 bound_to 10713
  157.3616  131.0751  151.1631 LP  0  0  0  0  0  0  0  0  0  0  0  0  # atno 17371 bound_to 10713
  141.2218  133.6959  156.7777 LP  0  0  0  0  0  0  0  0  0  0  0  0  # atno 17394 bound_to 11000
  140.2368  134.8643  157.3533 LP  0  0  0  0  0  0  0  0  0  0  0  0  # atno 17395 bound_to 11000

$$$$
