AV-unprocessed.smi:964|AV-procd|sdf|4277|dock4
  -GOLD-   22720 2183D 1   1.00000     0.00000
 Structure written by MMmdl.
 20 20  0  0  0  0  0  0  0  0  2 V2000
  150.9052  141.0150  156.6971 C   0  0  0  0  0  0  0  0  0  0  0  0
  150.0762  140.6675  155.5081 C   0  0  0  0  0  0  0  0  0  0  0  0
  148.7316  140.9074  155.4437 N   0  0  0  0  0  0  0  0  0  0  0  0
  148.4677  140.4410  154.2280 C   0  0  0  0  0  0  0  0  0  0  0  0
  147.1153  140.4212  153.5942 C   0  0  0  0  0  0  0  0  0  0  0  0
  146.7120  139.0173  153.1229 C   0  0  0  0  0  0  0  0  0  0  0  0
  147.5700  138.5514  152.0208 N   0  3  0  0  0  0  0  0  0  0  0  0
  149.5534  139.9572  153.6198 N   0  0  0  0  0  0  0  0  0  0  0  0
  150.6196  140.0938  154.4360 N   0  0  0  0  0  0  0  0  0  0  0  0
  150.3111  141.5491  157.4392 H   0  0  0  0  0  0  0  0  0  0  0  0
  151.7408  141.6507  156.4031 H   0  0  0  0  0  0  0  0  0  0  0  0
  151.3015  140.1098  157.1582 H   0  0  0  0  0  0  0  0  0  0  0  0
  146.3909  140.7974  154.3179 H   0  0  0  0  0  0  0  0  0  0  0  0
  147.1071  141.1180  152.7547 H   0  0  0  0  0  0  0  0  0  0  0  0
  146.7817  138.3064  153.9471 H   0  0  0  0  0  0  0  0  0  0  0  0
  145.6761  139.0145  152.7819 H   0  0  0  0  0  0  0  0  0  0  0  0
  148.1164  137.7605  152.3314 H   0  0  0  0  0  0  0  0  0  0  0  0
  148.1897  139.2961  151.7348 H   0  0  0  0  0  0  0  0  0  0  0  0
  146.9935  138.2733  151.2392 H   0  0  0  0  0  0  0  0  0  0  0  0
  149.6148  139.5476  152.6984 H   0  0  0  0  0  0  0  0  0  0  0  0
  1  2  1  0  0  0  0
  1 10  1  0  0  0  0
  1 11  1  0  0  0  0
  1 12  1  0  0  0  0
  2  9  2  0  0  0  0
  2  3  1  0  0  0  0
  3  4  2  0  0  0  0
  4  5  1  0  0  0  0
  4  8  1  0  0  0  0
  5  6  1  0  0  0  0
  5 13  1  0  0  0  0
  5 14  1  0  0  0  0
  6  7  1  0  0  0  0
  6 15  1  0  0  0  0
  6 16  1  0  0  0  0
  7 17  1  0  0  0  0
  7 18  1  0  0  0  0
  7 19  1  0  0  0  0
  8  9  1  0  0  0  0
  8 20  1  0  0  0  0
M  CHG  1   7   1
M  END
> <s_m_source_file>
AV-unprocessed.smi

> <i_m_source_file_index>
964

> <i_lp_mmshare_version>
43012

> <i_f3d_flags>
0

> <s_epik_input>
W0NIM11jMW5jKG5bbkhdMSlbQ0gyXVtDSDJdW05IMl0=

> <s_epik_cmdline>
J2VwaWtfcHl0aG9uJywgJy1waCcsICc3LjAnLCAnLXRuJywgJzgnLCAnLW1hJywgJzIwMCcsICctbWV0YWxfYmluZGluZycsICctaW1hZScsICc8aW5maWxlLm1hZT4nLCAnLW9tYWUnLCAnPG91dGZpbGUubWFlPic=

> <r_lp_tautomer_probability>
0.948284

> <r_epik_Ionization_Penalty>
0.00675923

> <r_epik_Ionization_Penalty_Charging>
0.00465044

> <r_epik_Ionization_Penalty_Neutral>
0.00210879

> <r_epik_State_Penalty>
0.393939

> <r_epik_Charging_Adjusted_Penalty>
0.398589

> <i_epik_Tot_Q>
1

> <i_epik_Tot_abs_Q>
1

> <r_epik_Metal_State_Penalty>
0.594419

> <b_epik_Metal_Only>
0

> <s_lp_Force_Field>
OPLS_2005

> <r_lp_Energy>
1.69127

> <b_lp_Chiralities_Consistent>
1

> <s_lp_Variant>
AV-unprocessed.smi:964-1

> <Gold.Version>
5.8.1

> <Gold.Id.Protein>
6NUR|6NUR_protein|mol2

> <Gold.PLP.Fitness>
30.8596

> <Gold.PLP.PLP>
-16.4995

> <Gold.PLP.part.hbond>
-3.6288

> <Gold.PLP.part.metal>
0.0000

> <Gold.PLP.part.buried>
-4.6060

> <Gold.PLP.part.nonpolar>
-10.4468

> <Gold.PLP.part.repulsive>
1.0428

> <Gold.PLP.ligand.clash>
0.0000

> <Gold.PLP.ligand.torsion>
0.0444

> <Gold.PLP.Chemscore.Hbond>
4.8160

> <Gold.PLP.Chemscore.CHOScore>
0.0000

> <Gold.PLP.Chemscore.Metal>
0.0000

> <Gold.Chemscore.Hbonds>
donor molecule, donor type, donor heavy atom, donor atom, acceptor molecule, acceptor atom, score
      L1  H     7    17       P1  7948  1.82
      L1  H     7    18       P1  7957  1.00
      L1  H     8    20       P1  7957  0.78
      P1  H  7989  7998       L1     9  1.00

> <Gold.PLP.Chemscore.Internal.Correction>
0.0008

> <Gold.Rescore>
     Score         DG    S(hbond)    S(metal)    S(lipo)     H(rot)  DE(clash)    DE(int)     intcor
     14.61     -15.94       3.68        0.00      17.35       1.51       0.00       1.32       ----

> <Gold.Chemscore.Fitness>
14.6121

> <Gold.Chemscore.DG>
-15.9357

> <Gold.Chemscore.ZeroCoef>
-5.4800

> <Gold.Chemscore.Hbond>
3.6788

> <Gold.Chemscore.Metal>
0.0000

> <Gold.Chemscore.Lipo>
17.3465

> <Gold.Chemscore.Internal_Hbond>
0.0000

> <Gold.Chemscore.DEClash>
0.0000

> <Gold.Chemscore.DEInternal>
1.3236

> <Gold.Chemscore.Rot>
1.5082

> <Gold.Chemscore.Internal.Correction>
   9.000000E+99

> <Gold.Chemscore.Hbonds>
donor molecule, donor type, donor heavy atom, donor atom, acceptor molecule, acceptor atom, score
      L1  H     7    17       P1  7948  0.88
      L1  H     7    18       P1  7957  0.98
      L1  H     8    20       P1  7957  0.77
      P1  H  7989  7998       L1     9  0.29

> <Gold.Chemscore.Hbond.Weighted>
-12.2872

> <Gold.Chemscore.Metal.Weighted>
-0.0000

> <Gold.Chemscore.Lipo.Weighted>
-2.0295

> <Gold.Chemscore.Internal_Hbond.Weighted>
0.0000

> <Gold.Chemscore.DEClash.Weighted>
0.0000

> <Gold.Chemscore.DEInternal.Weighted>
1.3236

> <Gold.Chemscore.Rot.Weighted>
3.8611

> <Gold.Chemscore.Internal.Correction.Weighted>
   9.000000E+99

> <Gold.Protein.RotatedTorsions>
[ 6907 6896 6895 6894 ] final -157.33 input  -60.11 | X-H torsion
[ 7974 7965 7964 7962 ] final  109.98 input  175.53 | X-H torsion
[ 8008 7997 7996 7995 ] final  -96.57 input   59.86 | X-H torsion
[ 10167 10162 10161 10158 ] final    6.39 input  -65.29 | X-H torsion
[ 10718 10713 10712 10709 ] final -138.22 input   66.30 | X-H torsion
[ 10763 10752 10751 10750 ] final   96.67 input  -60.55 | X-H torsion
[ 11005 11000 10999 10996 ] final  110.44 input  -57.11 | X-H torsion

> <Gold.Protein.ActiveResidues>
 VAL166  LYS551  ARG553  GLY616  TRP617  ASP618  TYR619  PRO620  LYS621  CYS622 
 ASP623  PHE694  ASN695  SER759  ASP760  ASP761  ALA762  ILE779  LEU786  VAL792 
 PHE793  MET794  SER795  GLU796  ALA797  LYS798  CYS799  TRP800  GLU811  SER814 

> <Gold.Protein.RotatedAtoms>
  151.3013  133.4121  159.2639 H   0  0  0  0  0  0  0  0  0  0  0  0  # atno 6907 bound_to 6896
  151.0193  134.9457  159.8061 H   0  0  0  0  0  0  0  0  0  0  0  0  # atno 6908 bound_to 6896
  152.5320  134.2976  159.9119 H   0  0  0  0  0  0  0  0  0  0  0  0  # atno 6909 bound_to 6896
  145.2609  139.2703  143.4017 H   0  0  0  0  0  0  0  0  0  0  0  0  # atno 7974 bound_to 7965
  154.7762  140.0470  157.1091 H   0  0  0  0  0  0  0  0  0  0  0  0  # atno 8008 bound_to 7997
  154.9759  140.3095  155.4948 H   0  0  0  0  0  0  0  0  0  0  0  0  # atno 8009 bound_to 7997
  156.2929  140.2244  156.4855 H   0  0  0  0  0  0  0  0  0  0  0  0  # atno 8010 bound_to 7997
  140.6430  143.7728  150.7457 H   0  0  0  0  0  0  0  0  0  0  0  0  # atno 10167 bound_to 10162
  156.2969  130.7406  151.1448 H   0  0  0  0  0  0  0  0  0  0  0  0  # atno 10718 bound_to 10713
  153.2677  135.4210  155.0957 H   0  0  0  0  0  0  0  0  0  0  0  0  # atno 10763 bound_to 10752
  154.8444  135.3464  154.6288 H   0  0  0  0  0  0  0  0  0  0  0  0  # atno 10764 bound_to 10752
  153.6708  135.7044  153.5205 H   0  0  0  0  0  0  0  0  0  0  0  0  # atno 10765 bound_to 10752
  139.8882  134.9484  156.6279 H   0  0  0  0  0  0  0  0  0  0  0  0  # atno 11005 bound_to 11000
  146.3275  140.3025  142.8621 LP  0  0  0  0  0  0  0  0  0  0  0  0  # atno 17320 bound_to 7965
  144.9419  140.8088  143.5625 LP  0  0  0  0  0  0  0  0  0  0  0  0  # atno 17321 bound_to 7965
  140.1364  143.4480  152.2222 LP  0  0  0  0  0  0  0  0  0  0  0  0  # atno 17342 bound_to 10162
  139.5640  144.7423  151.4075 LP  0  0  0  0  0  0  0  0  0  0  0  0  # atno 17343 bound_to 10162
  157.7357  131.0569  150.5452 LP  0  0  0  0  0  0  0  0  0  0  0  0  # atno 17370 bound_to 10713
  156.5575  130.4247  149.6078 LP  0  0  0  0  0  0  0  0  0  0  0  0  # atno 17371 bound_to 10713
  140.7689  133.8755  155.8476 LP  0  0  0  0  0  0  0  0  0  0  0  0  # atno 17394 bound_to 11000
  140.9859  134.1343  157.4453 LP  0  0  0  0  0  0  0  0  0  0  0  0  # atno 17395 bound_to 11000

$$$$
