AV-unprocessed.smi:2867|AV-procd|sdf|11024|dock3
  -GOLD-   2272015483D 1   1.00000     0.00000
 Structure written by MMmdl.
 41 43  0  0  0  0  0  0  0  0  2 V2000
  152.4518  137.7055  160.1854 C   0  0  0  0  0  0  0  0  0  0  0  0
  151.3929  137.2457  159.3649 O   0  0  0  0  0  0  0  0  0  0  0  0
  150.6125  138.3050  158.8344 C   0  0  0  0  0  0  0  0  0  0  0  0
  151.4543  139.1050  157.8310 C   0  0  0  0  0  0  0  0  0  0  0  0
  150.6464  140.0913  157.0961 N   0  0  0  0  0  0  0  0  0  0  0  0
  150.5863  141.4506  157.1826 C   0  0  0  0  0  0  0  0  0  0  0  0
  151.3527  142.3089  158.0985 C   0  0  0  0  0  0  0  0  0  0  0  0
  151.5104  143.6838  157.8190 C   0  0  0  0  0  0  0  0  0  0  0  0
  152.2440  144.5156  158.6872 C   0  0  0  0  0  0  0  0  0  0  0  0
  152.8249  143.9793  159.8513 C   0  0  0  0  0  0  0  0  0  0  0  0
  152.6688  142.6120  160.1447 C   0  0  0  0  0  0  0  0  0  0  0  0
  153.2226  142.0920  161.2656 F   0  0  0  0  0  0  0  0  0  0  0  0
  151.9349  141.7843  159.2732 C   0  0  0  0  0  0  0  0  0  0  0  0
  149.7154  141.9075  156.2432 N   0  3  0  0  0  0  0  0  0  0  0  0
  149.1968  140.8186  155.5397 C   0  0  0  0  0  0  0  0  0  0  0  0
  148.2783  140.7677  154.4961 C   0  0  0  0  0  0  0  0  0  0  0  0
  147.9712  139.4855  153.9937 C   0  0  0  0  0  0  0  0  0  0  0  0
  146.7911  139.3340  152.6575 S   0  0  0  0  0  0  0  0  0  0  0  0
  147.6730  138.4132  151.5028 N   0  0  0  0  0  0  0  0  0  0  0  0
  145.6651  138.5075  153.1183 O   0  0  0  0  0  0  0  0  0  0  0  0
  146.5594  140.6666  152.0794 O   0  0  0  0  0  0  0  0  0  0  0  0
  148.5652  138.3182  154.5181 C   0  0  0  0  0  0  0  0  0  0  0  0
  149.4954  138.3850  155.5762 C   0  0  0  0  0  0  0  0  0  0  0  0
  149.7928  139.6533  156.0760 C   0  0  0  0  0  0  0  0  0  0  0  0
  153.0243  136.8543  160.5540 H   0  0  0  0  0  0  0  0  0  0  0  0
  152.0717  138.2549  161.0476 H   0  0  0  0  0  0  0  0  0  0  0  0
  153.1309  138.3523  159.6286 H   0  0  0  0  0  0  0  0  0  0  0  0
  149.7245  137.9049  158.3426 H   0  0  0  0  0  0  0  0  0  0  0  0
  150.2740  138.9601  159.6383 H   0  0  0  0  0  0  0  0  0  0  0  0
  152.2786  139.6160  158.3283 H   0  0  0  0  0  0  0  0  0  0  0  0
  151.9095  138.4288  157.1095 H   0  0  0  0  0  0  0  0  0  0  0  0
  151.0725  144.1063  156.9263 H   0  0  0  0  0  0  0  0  0  0  0  0
  152.3617  145.5648  158.4592 H   0  0  0  0  0  0  0  0  0  0  0  0
  153.3879  144.6155  160.5182 H   0  0  0  0  0  0  0  0  0  0  0  0
  151.8167  140.7378  159.5131 H   0  0  0  0  0  0  0  0  0  0  0  0
  147.8243  141.6598  154.0901 H   0  0  0  0  0  0  0  0  0  0  0  0
  147.9009  137.4780  151.8394 H   0  0  0  0  0  0  0  0  0  0  0  0
  148.4761  138.9190  151.1299 H   0  0  0  0  0  0  0  0  0  0  0  0
  148.3069  137.3536  154.1054 H   0  0  0  0  0  0  0  0  0  0  0  0
  149.9478  137.4874  155.9710 H   0  0  0  0  0  0  0  0  0  0  0  0
  149.4953  142.8844  156.0984 H   0  0  0  0  0  0  0  0  0  0  0  0
  1  2  1  0  0  0  0
  1 25  1  0  0  0  0
  1 26  1  0  0  0  0
  1 27  1  0  0  0  0
  2  3  1  0  0  0  0
  3  4  1  0  0  0  0
  3 28  1  0  0  0  0
  3 29  1  0  0  0  0
  4  5  1  0  0  0  0
  4 30  1  0  0  0  0
  4 31  1  0  0  0  0
  5 24  1  0  0  0  0
  5  6  1  0  0  0  0
  6  7  1  0  0  0  0
  6 14  2  0  0  0  0
  7 13  1  0  0  0  0
  7  8  2  0  0  0  0
  8  9  1  0  0  0  0
  8 32  1  0  0  0  0
  9 10  2  0  0  0  0
  9 33  1  0  0  0  0
 10 11  1  0  0  0  0
 10 34  1  0  0  0  0
 11 12  1  0  0  0  0
 11 13  2  0  0  0  0
 13 35  1  0  0  0  0
 14 15  1  0  0  0  0
 14 41  1  0  0  0  0
 15 24  2  0  0  0  0
 15 16  1  0  0  0  0
 16 17  2  0  0  0  0
 16 36  1  0  0  0  0
 17 18  1  0  0  0  0
 17 22  1  0  0  0  0
 18 19  1  0  0  0  0
 18 20  2  0  0  0  0
 18 21  2  0  0  0  0
 19 37  1  0  0  0  0
 19 38  1  0  0  0  0
 22 23  2  0  0  0  0
 22 39  1  0  0  0  0
 23 24  1  0  0  0  0
 23 40  1  0  0  0  0
M  CHG  1  14   1
M  END
> <s_m_source_file>
AV-unprocessed.smi

> <i_m_source_file_index>
2867

> <i_lp_mmshare_version>
43012

> <i_f3d_flags>
0

> <s_epik_input>
W05IMl1TKD1PKSg9TyljKFtjSF0xKVtjSF1bY0hdYyhjMTIpbihbQ0gyXVtDSDJdT1tDSDNdKWMobjIpLWMzW2NIXVtjSF1bY0hdYyhGKVtjSF0z

> <s_epik_cmdline>
J2VwaWtfcHl0aG9uJywgJy1waCcsICc3LjAnLCAnLXRuJywgJzgnLCAnLW1hJywgJzIwMCcsICctbWV0YWxfYmluZGluZycsICctaW1hZScsICc8aW5maWxlLm1hZT4nLCAnLW9tYWUnLCAnPG91dGZpbGUubWFlPic=

> <r_epik_Ionization_Penalty>
1.25825

> <r_epik_Ionization_Penalty_Charging>
1.24336

> <r_epik_Ionization_Penalty_Neutral>
0.014884

> <r_epik_State_Penalty>
1.4115

> <r_epik_Charging_Adjusted_Penalty>
2.65486

> <i_epik_Tot_Q>
1

> <i_epik_Tot_abs_Q>
1

> <r_epik_Metal_State_Penalty>
3.65574

> <b_epik_Metal_Only>
0

> <s_lp_Force_Field>
OPLS_2005

> <r_lp_Energy>
21.7235

> <b_lp_Chiralities_Consistent>
1

> <s_lp_Variant>
AV-unprocessed.smi:2867-2

> <Gold.Version>
5.8.1

> <Gold.Id.Protein>
6NUR|6NUR_protein|mol2

> <Gold.PLP.Fitness>
53.2822

> <Gold.PLP.PLP>
-40.9355

> <Gold.PLP.part.hbond>
-4.3458

> <Gold.PLP.part.metal>
0.0000

> <Gold.PLP.part.buried>
-4.7828

> <Gold.PLP.part.nonpolar>
-35.9306

> <Gold.PLP.part.repulsive>
3.0450

> <Gold.PLP.ligand.clash>
0.0000

> <Gold.PLP.ligand.torsion>
1.4447

> <Gold.PLP.Chemscore.Hbond>
4.4013

> <Gold.PLP.Chemscore.CHOScore>
0.0000

> <Gold.PLP.Chemscore.Metal>
0.0000

> <Gold.Chemscore.Hbonds>
donor molecule, donor type, donor heavy atom, donor atom, acceptor molecule, acceptor atom, score
      L1  H    14    41       P1  8028  2.00
      L1  H    19    37       P1  7948  0.93
      L1  H    19    38       P1  7957  0.80
      P1  H  6896  6907       L1     2  0.50

> <Gold.PLP.Chemscore.Internal.Correction>
2.0323

> <Gold.Rescore>
     Score         DG    S(hbond)    S(metal)    S(lipo)     H(rot)  DE(clash)    DE(int)     intcor
     19.80     -23.15       2.51        0.00     111.53       1.47       1.78       1.57       ----

> <Gold.Chemscore.Fitness>
19.7997

> <Gold.Chemscore.DG>
-23.1523

> <Gold.Chemscore.ZeroCoef>
-5.4800

> <Gold.Chemscore.Hbond>
2.5137

> <Gold.Chemscore.Metal>
0.0000

> <Gold.Chemscore.Lipo>
111.5329

> <Gold.Chemscore.Internal_Hbond>
0.0000

> <Gold.Chemscore.DEClash>
1.7796

> <Gold.Chemscore.DEInternal>
1.5729

> <Gold.Chemscore.Rot>
1.4738

> <Gold.Chemscore.Internal.Correction>
   9.000000E+99

> <Gold.Chemscore.Hbonds>
donor molecule, donor type, donor heavy atom, donor atom, acceptor molecule, acceptor atom, score
      L1  H    14    41       P1  8028  0.97
      L1  H    19    37       P1  7948  0.88
      L1  H    19    38       P1  7957  0.11
      P1  H  6896  6907       L1     2  0.06

> <Gold.Chemscore.Hbond.Weighted>
-8.3959

> <Gold.Chemscore.Metal.Weighted>
-0.0000

> <Gold.Chemscore.Lipo.Weighted>
-13.0493

> <Gold.Chemscore.Internal_Hbond.Weighted>
0.0000

> <Gold.Chemscore.DEClash.Weighted>
1.7796

> <Gold.Chemscore.DEInternal.Weighted>
1.5729

> <Gold.Chemscore.Rot.Weighted>
3.7730

> <Gold.Chemscore.Internal.Correction.Weighted>
   9.000000E+99

> <Gold.Protein.RotatedTorsions>
[ 6907 6896 6895 6894 ] final   -1.06 input  -60.11 | X-H torsion
[ 7974 7965 7964 7962 ] final  115.75 input  175.53 | X-H torsion
[ 8008 7997 7996 7995 ] final   35.14 input   59.86 | X-H torsion
[ 10167 10162 10161 10158 ] final  152.83 input  -65.29 | X-H torsion
[ 10718 10713 10712 10709 ] final  -97.88 input   66.30 | X-H torsion
[ 10763 10752 10751 10750 ] final  150.30 input  -60.55 | X-H torsion
[ 11005 11000 10999 10996 ] final -108.47 input  -57.11 | X-H torsion

> <Gold.Protein.ActiveResidues>
 VAL166  LYS551  ARG553  GLY616  TRP617  ASP618  TYR619  PRO620  LYS621  CYS622 
 ASP623  PHE694  ASN695  SER759  ASP760  ASP761  ALA762  ILE779  LEU786  VAL792 
 PHE793  MET794  SER795  GLU796  ALA797  LYS798  CYS799  TRP800  GLU811  SER814 

> <Gold.Protein.RotatedAtoms>
  151.5522  135.1067  159.9952 H   0  0  0  0  0  0  0  0  0  0  0  0  # atno 6907 bound_to 6896
  152.4486  133.7580  159.6741 H   0  0  0  0  0  0  0  0  0  0  0  0  # atno 6908 bound_to 6896
  150.8408  133.7872  159.3086 H   0  0  0  0  0  0  0  0  0  0  0  0  # atno 6909 bound_to 6896
  145.1881  139.3014  143.4382 H   0  0  0  0  0  0  0  0  0  0  0  0  # atno 7974 bound_to 7965
  155.1663  140.3288  155.4401 H   0  0  0  0  0  0  0  0  0  0  0  0  # atno 8008 bound_to 7997
  156.2525  140.1951  156.6718 H   0  0  0  0  0  0  0  0  0  0  0  0  # atno 8009 bound_to 7997
  154.6369  140.0575  156.9786 H   0  0  0  0  0  0  0  0  0  0  0  0  # atno 8010 bound_to 7997
  139.4830  144.5324  151.7700 H   0  0  0  0  0  0  0  0  0  0  0  0  # atno 10167 bound_to 10162
  156.0094  130.5213  150.6439 H   0  0  0  0  0  0  0  0  0  0  0  0  # atno 10718 bound_to 10713
  154.0853  135.2856  155.3282 H   0  0  0  0  0  0  0  0  0  0  0  0  # atno 10763 bound_to 10752
  154.6656  135.5318  153.8076 H   0  0  0  0  0  0  0  0  0  0  0  0  # atno 10764 bound_to 10752
  153.0433  135.6545  154.1026 H   0  0  0  0  0  0  0  0  0  0  0  0  # atno 10765 bound_to 10752
  141.0900  133.9072  157.2098 H   0  0  0  0  0  0  0  0  0  0  0  0  # atno 11005 bound_to 11000
  146.3441  140.2084  142.8590 LP  0  0  0  0  0  0  0  0  0  0  0  0  # atno 17320 bound_to 7965
  145.0068  140.8680  143.5248 LP  0  0  0  0  0  0  0  0  0  0  0  0  # atno 17321 bound_to 7965
  140.4852  144.1391  150.5940 LP  0  0  0  0  0  0  0  0  0  0  0  0  # atno 17342 bound_to 10162
  140.4233  143.2601  151.9688 LP  0  0  0  0  0  0  0  0  0  0  0  0  # atno 17343 bound_to 10162
  157.4214  131.0837  151.1127 LP  0  0  0  0  0  0  0  0  0  0  0  0  # atno 17370 bound_to 10713
  157.1728  130.6275  149.5646 LP  0  0  0  0  0  0  0  0  0  0  0  0  # atno 17371 bound_to 10713
  139.9724  135.0124  156.9546 LP  0  0  0  0  0  0  0  0  0  0  0  0  # atno 17394 bound_to 11000
  140.5274  134.0847  155.7307 LP  0  0  0  0  0  0  0  0  0  0  0  0  # atno 17395 bound_to 11000

$$$$
