AV-unprocessed.smi:809|AV-procd|sdf|3806|dock8
  -GOLD-   22720 1243D 1   1.00000     0.00000
 Structure written by MMmdl.
 40 41  0  0  0  0  0  0  0  0  2 V2000
  151.6874  140.4048  156.1399 C   0  0  0  0  0  0  0  0  0  0  0  0
  150.3937  140.3074  155.3944 C   0  0  0  0  0  0  0  0  0  0  0  0
  149.5600  141.3420  155.0459 C   0  0  0  0  0  0  0  0  0  0  0  0
  148.1531  140.7847  154.1799 S   0  0  0  0  0  0  0  0  0  0  0  0
  148.7602  139.1431  154.3288 C   0  0  0  0  0  0  0  0  0  0  0  0
  148.0590  138.0304  153.7943 N   0  0  0  0  0  0  0  0  0  0  0  0
  146.8109  137.6217  154.0812 C   0  0  0  0  0  0  0  0  0  0  0  0
  146.0443  138.1776  154.8685 O   0  0  0  0  0  0  0  0  0  0  0  0
  146.4955  136.5097  153.4014 N   0  0  0  0  0  0  0  0  0  0  0  0
  145.2260  135.7893  153.4829 C   0  0  0  0  0  0  0  0  0  0  0  0
  144.2715  136.1036  152.3000 C   0  0  1  0  0  0  0  0  0  0  0  0
  144.0169  137.4948  152.3502 O   0  0  0  0  0  0  0  0  0  0  0  0
  144.8252  135.7592  150.8975 C   0  0  0  0  0  0  0  0  0  0  0  0
  144.8791  134.2402  150.6566 C   0  0  0  0  0  0  0  0  0  0  0  0
  143.5409  133.6260  150.8373 N   0  3  1  0  0  0  0  0  0  0  0  0
  143.5322  132.1869  150.4973 C   0  0  0  0  0  0  0  0  0  0  0  0
  142.9813  133.8902  152.1861 C   0  0  0  0  0  0  0  0  0  0  0  0
  142.9063  135.4025  152.4726 C   0  0  0  0  0  0  0  0  0  0  0  0
  149.9262  139.0572  154.9794 N   0  0  0  0  0  0  0  0  0  0  0  0
  151.9964  141.4424  156.2683 H   0  0  0  0  0  0  0  0  0  0  0  0
  152.4876  139.8865  155.6111 H   0  0  0  0  0  0  0  0  0  0  0  0
  151.6035  139.9603  157.1318 H   0  0  0  0  0  0  0  0  0  0  0  0
  149.6885  142.3956  155.2451 H   0  0  0  0  0  0  0  0  0  0  0  0
  148.5707  137.4776  153.1224 H   0  0  0  0  0  0  0  0  0  0  0  0
  147.1895  136.1233  152.7779 H   0  0  0  0  0  0  0  0  0  0  0  0
  145.4150  134.7178  153.5473 H   0  0  0  0  0  0  0  0  0  0  0  0
  144.7494  136.0528  154.4282 H   0  0  0  0  0  0  0  0  0  0  0  0
  143.6813  137.7736  151.5120 H   0  0  0  0  0  0  0  0  0  0  0  0
  144.1816  136.2030  150.1360 H   0  0  0  0  0  0  0  0  0  0  0  0
  145.8091  136.2005  150.7386 H   0  0  0  0  0  0  0  0  0  0  0  0
  145.2324  134.0487  149.6426 H   0  0  0  0  0  0  0  0  0  0  0  0
  145.5914  133.7666  151.3319 H   0  0  0  0  0  0  0  0  0  0  0  0
  144.1729  131.6203  151.1744 H   0  0  0  0  0  0  0  0  0  0  0  0
  143.8870  132.0291  149.4783 H   0  0  0  0  0  0  0  0  0  0  0  0
  142.5217  131.7821  150.5633 H   0  0  0  0  0  0  0  0  0  0  0  0
  141.9803  133.4620  152.2510 H   0  0  0  0  0  0  0  0  0  0  0  0
  143.5843  133.3827  152.9396 H   0  0  0  0  0  0  0  0  0  0  0  0
  142.5167  135.5704  153.4777 H   0  0  0  0  0  0  0  0  0  0  0  0
  142.1785  135.8440  151.7898 H   0  0  0  0  0  0  0  0  0  0  0  0
  142.9260  134.0792  150.1766 H   0  0  0  0  0  0  0  0  0  0  0  0
  1  2  1  0  0  0  0
  1 20  1  0  0  0  0
  1 21  1  0  0  0  0
  1 22  1  0  0  0  0
  2 19  1  0  0  0  0
  2  3  2  0  0  0  0
  3  4  1  0  0  0  0
  3 23  1  0  0  0  0
  4  5  1  0  0  0  0
  5  6  1  0  0  0  0
  5 19  2  0  0  0  0
  6  7  1  0  0  0  0
  6 24  1  0  0  0  0
  7  8  2  0  0  0  0
  7  9  1  0  0  0  0
  9 10  1  0  0  0  0
  9 25  1  0  0  0  0
 10 11  1  0  0  0  0
 10 26  1  0  0  0  0
 10 27  1  0  0  0  0
 11 18  1  0  0  0  0
 11 12  1  0  0  0  0
 11 13  1  0  0  0  0
 12 28  1  0  0  0  0
 13 14  1  0  0  0  0
 13 29  1  0  0  0  0
 13 30  1  0  0  0  0
 14 15  1  0  0  0  0
 14 31  1  0  0  0  0
 14 32  1  0  0  0  0
 15 16  1  0  0  0  0
 15 17  1  0  0  0  0
 15 40  1  0  0  0  0
 16 33  1  0  0  0  0
 16 34  1  0  0  0  0
 16 35  1  0  0  0  0
 17 18  1  0  0  0  0
 17 36  1  0  0  0  0
 17 37  1  0  0  0  0
 18 38  1  0  0  0  0
 18 39  1  0  0  0  0
M  CHG  1  15   1
M  END
> <s_m_source_file>
AV-unprocessed.smi

> <i_m_source_file_index>
809

> <i_lp_mmshare_version>
43012

> <i_f3d_flags>
0

> <s_epik_input>
W0NIM11jMVtjSF1zYyhuMSlbTkhdQyg9TylbTkhdW0NIMl1DMihbT0hdKVtDSDJdW0NIMl1OKFtDSDNdKVtDSDJdW0NIMl0y

> <s_epik_cmdline>
J2VwaWtfcHl0aG9uJywgJy1waCcsICc3LjAnLCAnLXRuJywgJzgnLCAnLW1hJywgJzIwMCcsICctbWV0YWxfYmluZGluZycsICctaW1hZScsICc8aW5maWxlLm1hZT4nLCAnLW9tYWUnLCAnPG91dGZpbGUubWFlPic=

> <r_lp_tautomer_probability>
0.999

> <r_epik_Ionization_Penalty>
0.00116503

> <r_epik_Ionization_Penalty_Charging>
0.000767707

> <r_epik_Ionization_Penalty_Neutral>
0.00039732

> <r_epik_State_Penalty>
0.000177984

> <r_epik_Charging_Adjusted_Penalty>
0.00094569

> <i_epik_Tot_Q>
1

> <i_epik_Tot_abs_Q>
1

> <r_epik_Metal_State_Penalty>
0.00775393

> <b_epik_Metal_Only>
0

> <s_lp_Force_Field>
OPLS_2005

> <r_lp_Energy>
16.2661

> <b_lp_Chiralities_Consistent>
1

> <s_lp_Variant>
AV-unprocessed.smi:809-2

> <Gold.Version>
5.8.1

> <Gold.Id.Protein>
6NUR|6NUR_protein|mol2

> <Gold.PLP.Fitness>
49.9563

> <Gold.PLP.PLP>
-33.3752

> <Gold.PLP.part.hbond>
-5.0000

> <Gold.PLP.part.metal>
0.0000

> <Gold.PLP.part.buried>
-4.3683

> <Gold.PLP.part.nonpolar>
-25.4095

> <Gold.PLP.part.repulsive>
0.1896

> <Gold.PLP.ligand.clash>
0.0000

> <Gold.PLP.ligand.torsion>
0.6889

> <Gold.PLP.Chemscore.Hbond>
4.9840

> <Gold.PLP.Chemscore.CHOScore>
1.0000

> <Gold.PLP.Chemscore.Metal>
0.0000

> <Gold.Chemscore.Hbonds>
donor molecule, donor type, donor heavy atom, donor atom, acceptor molecule, acceptor atom, score
      L1  H     6    24       P1  7948  1.00
      L1  H     9    25       P1  7948  1.00
      L1  H    12    28       P1 10171  1.00
      L1  H    15    40       P1 10186  1.84
      L1  C     3    23       P1  8028  1.00

> <Gold.PLP.Chemscore.Internal.Correction>
0.0068

> <Gold.Rescore>
     Score         DG    S(hbond)    S(metal)    S(lipo)     H(rot)  DE(clash)    DE(int)     intcor
     20.70     -21.59       3.79        0.00      69.97       1.85       0.20       0.69       ----

> <Gold.Chemscore.Fitness>
20.6973

> <Gold.Chemscore.DG>
-21.5946

> <Gold.Chemscore.ZeroCoef>
-5.4800

> <Gold.Chemscore.Hbond>
3.7893

> <Gold.Chemscore.Metal>
0.0000

> <Gold.Chemscore.Lipo>
69.9739

> <Gold.Chemscore.Internal_Hbond>
0.0000

> <Gold.Chemscore.DEClash>
0.2033

> <Gold.Chemscore.DEInternal>
0.6939

> <Gold.Chemscore.Rot>
1.8471

> <Gold.Chemscore.Internal.Correction>
   9.000000E+99

> <Gold.Chemscore.Hbonds>
donor molecule, donor type, donor heavy atom, donor atom, acceptor molecule, acceptor atom, score
      L1  H     6    24       P1  7948  1.00
      L1  H     9    25       P1  7948  0.94
      L1  H    12    28       P1 10171  0.96
      L1  H    15    40       P1 10186  0.81

> <Gold.Chemscore.Hbond.Weighted>
-12.6563

> <Gold.Chemscore.Metal.Weighted>
-0.0000

> <Gold.Chemscore.Lipo.Weighted>
-8.1869

> <Gold.Chemscore.Internal_Hbond.Weighted>
0.0000

> <Gold.Chemscore.DEClash.Weighted>
0.2033

> <Gold.Chemscore.DEInternal.Weighted>
0.6939

> <Gold.Chemscore.Rot.Weighted>
4.7286

> <Gold.Chemscore.Internal.Correction.Weighted>
   9.000000E+99

> <Gold.Protein.RotatedTorsions>
[ 6907 6896 6895 6894 ] final -140.92 input  -60.11 | X-H torsion
[ 7974 7965 7964 7962 ] final   91.90 input  175.53 | X-H torsion
[ 8008 7997 7996 7995 ] final  -11.15 input   59.86 | X-H torsion
[ 10167 10162 10161 10158 ] final   -6.05 input  -65.29 | X-H torsion
[ 10718 10713 10712 10709 ] final -143.46 input   66.30 | X-H torsion
[ 10763 10752 10751 10750 ] final -115.32 input  -60.55 | X-H torsion
[ 11005 11000 10999 10996 ] final  144.46 input  -57.11 | X-H torsion

> <Gold.Protein.ActiveResidues>
 VAL166  LYS551  ARG553  GLY616  TRP617  ASP618  TYR619  PRO620  LYS621  CYS622 
 ASP623  PHE694  ASN695  SER759  ASP760  ASP761  ALA762  ILE779  LEU786  VAL792 
 PHE793  MET794  SER795  GLU796  ALA797  LYS798  CYS799  TRP800  GLU811  SER814 

> <Gold.Protein.RotatedAtoms>
  151.0670  133.5497  159.2629 H   0  0  0  0  0  0  0  0  0  0  0  0  # atno 6907 bound_to 6896
  151.2451  135.0602  159.9050 H   0  0  0  0  0  0  0  0  0  0  0  0  # atno 6908 bound_to 6896
  152.5406  134.0439  159.8133 H   0  0  0  0  0  0  0  0  0  0  0  0  # atno 6909 bound_to 6896
  145.4995  139.2276  143.2785 H   0  0  0  0  0  0  0  0  0  0  0  0  # atno 7974 bound_to 7965
  154.5490  140.2310  155.8516 H   0  0  0  0  0  0  0  0  0  0  0  0  # atno 8008 bound_to 7997
  156.1929  140.3072  155.9330 H   0  0  0  0  0  0  0  0  0  0  0  0  # atno 8009 bound_to 7997
  155.3108  140.0435  157.3025 H   0  0  0  0  0  0  0  0  0  0  0  0  # atno 8010 bound_to 7997
  140.6984  143.6238  150.8587 H   0  0  0  0  0  0  0  0  0  0  0  0  # atno 10167 bound_to 10162
  156.3582  130.7724  151.1887 H   0  0  0  0  0  0  0  0  0  0  0  0  # atno 10718 bound_to 10713
  154.8476  135.4386  154.1645 H   0  0  0  0  0  0  0  0  0  0  0  0  # atno 10763 bound_to 10752
  153.2774  135.6950  153.7426 H   0  0  0  0  0  0  0  0  0  0  0  0  # atno 10764 bound_to 10752
  153.6643  135.3429  155.3111 H   0  0  0  0  0  0  0  0  0  0  0  0  # atno 10765 bound_to 10752
  140.0634  134.9192  157.1222 H   0  0  0  0  0  0  0  0  0  0  0  0  # atno 11005 bound_to 11000
  146.2235  140.5795  142.9007 LP  0  0  0  0  0  0  0  0  0  0  0  0  # atno 17320 bound_to 7965
  144.7788  140.5796  143.6620 LP  0  0  0  0  0  0  0  0  0  0  0  0  # atno 17321 bound_to 7965
  139.9958  143.5797  152.2893 LP  0  0  0  0  0  0  0  0  0  0  0  0  # atno 17342 bound_to 10162
  139.6469  144.7658  151.2226 LP  0  0  0  0  0  0  0  0  0  0  0  0  # atno 17343 bound_to 10162
  157.7470  131.0408  150.4614 LP  0  0  0  0  0  0  0  0  0  0  0  0  # atno 17370 bound_to 10713
  156.4821  130.4076  149.6456 LP  0  0  0  0  0  0  0  0  0  0  0  0  # atno 17371 bound_to 10713
  140.3736  134.2363  155.7176 LP  0  0  0  0  0  0  0  0  0  0  0  0  # atno 17394 bound_to 11000
  141.1982  133.8040  157.0591 LP  0  0  0  0  0  0  0  0  0  0  0  0  # atno 17395 bound_to 11000

$$$$
