AV-unprocessed.smi:2276|AV-procd|sdf|9173|dock7
  -GOLD-   2272012383D 1   1.00000     0.00000
 Structure written by MMmdl.
 53 54  0  0  0  0  0  0  0  0  2 V2000
  145.4779  132.1990  149.4842 C   0  0  0  0  0  0  0  0  0  0  0  0
  145.1955  133.1007  150.6676 C   0  0  0  0  0  0  0  0  0  0  0  0
  143.8723  133.3235  151.0927 C   0  0  0  0  0  0  0  0  0  0  0  0
  143.6620  134.1682  152.1996 C   0  0  0  0  0  0  0  0  0  0  0  0
  142.2647  134.4571  152.7060 C   0  0  0  0  0  0  0  0  0  0  0  0
  144.6684  134.7750  152.8633 N   0  0  0  0  0  0  0  0  0  0  0  0
  145.9482  134.5670  152.4644 C   0  0  0  0  0  0  0  0  0  0  0  0
  147.0687  135.1936  153.0712 N   0  0  0  0  0  0  0  0  0  0  0  0
  147.1423  135.7046  154.3120 C   0  0  0  0  0  0  0  0  0  0  0  0
  146.2145  135.7317  155.1209 O   0  0  0  0  0  0  0  0  0  0  0  0
  148.3570  136.2206  154.5524 N   0  0  0  0  0  0  0  0  0  0  0  0
  148.7288  137.0501  155.6994 C   0  0  0  0  0  0  0  0  0  0  0  0
  149.2451  138.4626  155.3194 C   0  0  1  0  0  0  0  0  0  0  0  0
  148.6333  138.9127  153.9835 C   0  0  0  0  0  0  0  0  0  0  0  0
  148.9930  139.5099  156.4357 C   0  0  0  0  0  0  0  0  0  0  0  0
  148.5862  140.8343  155.9484 N   0  0  0  0  0  0  0  0  0  0  0  0
  148.1788  141.7109  157.0514 C   0  0  0  0  0  0  0  0  0  0  0  0
  149.3755  142.1483  157.9307 C   0  0  0  0  0  0  0  0  0  0  0  0
  150.4192  142.8126  157.1138 N   0  3  0  0  0  0  0  0  0  0  0  0
  151.5798  143.2529  157.9174 C   0  0  0  0  0  0  0  0  0  0  0  0
  150.8169  141.9608  155.9704 C   0  0  0  0  0  0  0  0  0  0  0  0
  149.5802  141.5571  155.1433 C   0  0  0  0  0  0  0  0  0  0  0  0
  146.2462  133.7330  151.3637 C   0  0  0  0  0  0  0  0  0  0  0  0
  145.2776  131.1600  149.7467 H   0  0  0  0  0  0  0  0  0  0  0  0
  146.5176  132.2775  149.1651 H   0  0  0  0  0  0  0  0  0  0  0  0
  144.8425  132.4688  148.6402 H   0  0  0  0  0  0  0  0  0  0  0  0
  143.0417  132.8567  150.5834 H   0  0  0  0  0  0  0  0  0  0  0  0
  141.5401  133.7628  152.2799 H   0  0  0  0  0  0  0  0  0  0  0  0
  141.9682  135.4707  152.4359 H   0  0  0  0  0  0  0  0  0  0  0  0
  142.2239  134.3646  153.7918 H   0  0  0  0  0  0  0  0  0  0  0  0
  147.8270  135.4208  152.4451 H   0  0  0  0  0  0  0  0  0  0  0  0
  149.0590  136.1159  153.8345 H   0  0  0  0  0  0  0  0  0  0  0  0
  147.8735  137.1289  156.3719 H   0  0  0  0  0  0  0  0  0  0  0  0
  149.5032  136.5130  156.2479 H   0  0  0  0  0  0  0  0  0  0  0  0
  150.3140  138.3546  155.1535 H   0  0  0  0  0  0  0  0  0  0  0  0
  147.5521  139.0308  154.0618 H   0  0  0  0  0  0  0  0  0  0  0  0
  148.8321  138.1854  153.1959 H   0  0  0  0  0  0  0  0  0  0  0  0
  149.0496  139.8665  153.6590 H   0  0  0  0  0  0  0  0  0  0  0  0
  148.2179  139.1273  157.1011 H   0  0  0  0  0  0  0  0  0  0  0  0
  149.8799  139.6194  157.0542 H   0  0  0  0  0  0  0  0  0  0  0  0
  147.6929  142.5936  156.6334 H   0  0  0  0  0  0  0  0  0  0  0  0
  147.4260  141.2094  157.6607 H   0  0  0  0  0  0  0  0  0  0  0  0
  149.0247  142.8453  158.6923 H   0  0  0  0  0  0  0  0  0  0  0  0
  149.8032  141.3009  158.4675 H   0  0  0  0  0  0  0  0  0  0  0  0
  152.0976  142.3999  158.3586 H   0  0  0  0  0  0  0  0  0  0  0  0
  151.2613  143.9156  158.7224 H   0  0  0  0  0  0  0  0  0  0  0  0
  152.2912  143.7989  157.2970 H   0  0  0  0  0  0  0  0  0  0  0  0
  151.5127  142.5123  155.3371 H   0  0  0  0  0  0  0  0  0  0  0  0
  151.3535  141.0836  156.3276 H   0  0  0  0  0  0  0  0  0  0  0  0
  149.8796  140.9796  154.2709 H   0  0  0  0  0  0  0  0  0  0  0  0
  149.1083  142.4555  154.7427 H   0  0  0  0  0  0  0  0  0  0  0  0
  147.2703  133.5818  151.0535 H   0  0  0  0  0  0  0  0  0  0  0  0
  149.9966  143.6424  156.7229 H   0  0  0  0  0  0  0  0  0  0  0  0
  1  2  1  0  0  0  0
  1 24  1  0  0  0  0
  1 25  1  0  0  0  0
  1 26  1  0  0  0  0
  2 23  1  0  0  0  0
  2  3  2  0  0  0  0
  3  4  1  0  0  0  0
  3 27  1  0  0  0  0
  4  5  1  0  0  0  0
  4  6  2  0  0  0  0
  5 28  1  0  0  0  0
  5 29  1  0  0  0  0
  5 30  1  0  0  0  0
  6  7  1  0  0  0  0
  7  8  1  0  0  0  0
  7 23  2  0  0  0  0
  8  9  1  0  0  0  0
  8 31  1  0  0  0  0
  9 10  2  0  0  0  0
  9 11  1  0  0  0  0
 11 12  1  0  0  0  0
 11 32  1  0  0  0  0
 12 13  1  0  0  0  0
 12 33  1  0  0  0  0
 12 34  1  0  0  0  0
 13 14  1  0  0  0  0
 13 15  1  0  0  0  0
 13 35  1  0  0  0  0
 14 36  1  0  0  0  0
 14 37  1  0  0  0  0
 14 38  1  0  0  0  0
 15 16  1  0  0  0  0
 15 39  1  0  0  0  0
 15 40  1  0  0  0  0
 16 22  1  0  0  0  0
 16 17  1  0  0  0  0
 17 18  1  0  0  0  0
 17 41  1  0  0  0  0
 17 42  1  0  0  0  0
 18 19  1  0  0  0  0
 18 43  1  0  0  0  0
 18 44  1  0  0  0  0
 19 20  1  0  0  0  0
 19 21  1  0  0  0  0
 19 53  1  0  0  0  0
 20 45  1  0  0  0  0
 20 46  1  0  0  0  0
 20 47  1  0  0  0  0
 21 22  1  0  0  0  0
 21 48  1  0  0  0  0
 21 49  1  0  0  0  0
 22 50  1  0  0  0  0
 22 51  1  0  0  0  0
 23 52  1  0  0  0  0
M  CHG  1  19   1
M  END
> <s_m_source_file>
AV-unprocessed.smi

> <i_m_source_file_index>
2276

> <i_lp_mmshare_version>
43012

> <i_f3d_flags>
0

> <s_epik_input>
W0NIM11jMVtjSF1jKFtDSDNdKW5jKFtjSF0xKVtOSF1DKD1PKVtOSF1bQ0gyXVtDQEhdKFtDSDNdKVtDSDJdTjJbQ0gyXVtDSDJdTihbQ0gzXSlbQ0gyXVtDSDJdMg==

> <s_epik_cmdline>
J2VwaWtfcHl0aG9uJywgJy1waCcsICc3LjAnLCAnLXRuJywgJzgnLCAnLW1hJywgJzIwMCcsICctbWV0YWxfYmluZGluZycsICctaW1hZScsICc8aW5maWxlLm1hZT4nLCAnLW9tYWUnLCAnPG91dGZpbGUubWFlPic=

> <r_epik_Ionization_Penalty>
0.0247364

> <r_epik_Ionization_Penalty_Charging>
0.0230248

> <r_epik_Ionization_Penalty_Neutral>
0.00171164

> <r_epik_State_Penalty>
0.239056

> <r_epik_Charging_Adjusted_Penalty>
0.262081

> <i_epik_Tot_Q>
1

> <i_epik_Tot_abs_Q>
1

> <r_epik_Metal_State_Penalty>
0.239048

> <b_epik_Metal_Only>
0

> <s_lp_Force_Field>
OPLS_2005

> <r_lp_Energy>
20.5392

> <b_lp_Chiralities_Consistent>
1

> <s_lp_Variant>
AV-unprocessed.smi:2276-2

> <Gold.Version>
5.8.1

> <Gold.Id.Protein>
6NUR|6NUR_protein|mol2

> <Gold.PLP.Fitness>
42.4827

> <Gold.PLP.PLP>
-34.1837

> <Gold.PLP.part.hbond>
-2.9299

> <Gold.PLP.part.metal>
0.0000

> <Gold.PLP.part.buried>
-5.6011

> <Gold.PLP.part.nonpolar>
-25.0299

> <Gold.PLP.part.repulsive>
0.1644

> <Gold.PLP.ligand.clash>
0.0000

> <Gold.PLP.ligand.torsion>
1.0805

> <Gold.PLP.Chemscore.Hbond>
3.4644

> <Gold.PLP.Chemscore.CHOScore>
0.0000

> <Gold.PLP.Chemscore.Metal>
0.0000

> <Gold.Chemscore.Hbonds>
donor molecule, donor type, donor heavy atom, donor atom, acceptor molecule, acceptor atom, score
      L1  H     8    31       P1  7948  0.88
      L1  H    11    32       P1  7948  0.66
      L1  H    19    53       P1  8028  2.00

> <Gold.PLP.Chemscore.Internal.Correction>
0.0669

> <Gold.Rescore>
     Score         DG    S(hbond)    S(metal)    S(lipo)     H(rot)  DE(clash)    DE(int)     intcor
     18.79     -21.21       2.86        0.00      88.35       1.63       0.03       2.39       ----

> <Gold.Chemscore.Fitness>
18.7914

> <Gold.Chemscore.DG>
-21.2100

> <Gold.Chemscore.ZeroCoef>
-5.4800

> <Gold.Chemscore.Hbond>
2.8625

> <Gold.Chemscore.Metal>
0.0000

> <Gold.Chemscore.Lipo>
88.3537

> <Gold.Chemscore.Internal_Hbond>
0.0000

> <Gold.Chemscore.DEClash>
0.0315

> <Gold.Chemscore.DEInternal>
2.3871

> <Gold.Chemscore.Rot>
1.6282

> <Gold.Chemscore.Internal.Correction>
   9.000000E+99

> <Gold.Chemscore.Hbonds>
donor molecule, donor type, donor heavy atom, donor atom, acceptor molecule, acceptor atom, score
      L1  H     8    31       P1  7948  0.85
      L1  H    11    32       P1  7948  0.62
      L1  H    19    53       P1  8028  1.00

> <Gold.Chemscore.Hbond.Weighted>
-9.5607

> <Gold.Chemscore.Metal.Weighted>
-0.0000

> <Gold.Chemscore.Lipo.Weighted>
-10.3374

> <Gold.Chemscore.Internal_Hbond.Weighted>
0.0000

> <Gold.Chemscore.DEClash.Weighted>
0.0315

> <Gold.Chemscore.DEInternal.Weighted>
2.3871

> <Gold.Chemscore.Rot.Weighted>
4.1682

> <Gold.Chemscore.Internal.Correction.Weighted>
   9.000000E+99

> <Gold.Protein.RotatedTorsions>
[ 6907 6896 6895 6894 ] final    0.92 input  -60.11 | X-H torsion
[ 7974 7965 7964 7962 ] final   40.80 input  175.53 | X-H torsion
[ 8008 7997 7996 7995 ] final  125.65 input   59.86 | X-H torsion
[ 10167 10162 10161 10158 ] final  134.86 input  -65.29 | X-H torsion
[ 10718 10713 10712 10709 ] final  137.01 input   66.30 | X-H torsion
[ 10763 10752 10751 10750 ] final   31.61 input  -60.55 | X-H torsion
[ 11005 11000 10999 10996 ] final   90.74 input  -57.11 | X-H torsion

> <Gold.Protein.ActiveResidues>
 VAL166  LYS551  ARG553  GLY616  TRP617  ASP618  TYR619  PRO620  LYS621  CYS622 
 ASP623  PHE694  ASN695  SER759  ASP760  ASP761  ALA762  ILE779  LEU786  VAL792 
 PHE793  MET794  SER795  GLU796  ALA797  LYS798  CYS799  TRP800  GLU811  SER814 

> <Gold.Protein.RotatedAtoms>
  151.5843  135.1057  160.0024 H   0  0  0  0  0  0  0  0  0  0  0  0  # atno 6907 bound_to 6896
  152.4338  133.7321  159.6604 H   0  0  0  0  0  0  0  0  0  0  0  0  # atno 6908 bound_to 6896
  150.8234  133.8143  159.3152 H   0  0  0  0  0  0  0  0  0  0  0  0  # atno 6909 bound_to 6896
  146.0876  139.5490  142.9497 H   0  0  0  0  0  0  0  0  0  0  0  0  # atno 7974 bound_to 7965
  156.2840  140.2711  156.1984 H   0  0  0  0  0  0  0  0  0  0  0  0  # atno 8008 bound_to 7997
  155.0387  140.0386  157.2519 H   0  0  0  0  0  0  0  0  0  0  0  0  # atno 8009 bound_to 7997
  154.7293  140.2703  155.6476 H   0  0  0  0  0  0  0  0  0  0  0  0  # atno 8010 bound_to 7997
  139.5239  144.6546  151.5200 H   0  0  0  0  0  0  0  0  0  0  0  0  # atno 10167 bound_to 10162
  157.4406  131.1057  151.0148 H   0  0  0  0  0  0  0  0  0  0  0  0  # atno 10718 bound_to 10713
  153.0306  135.6434  154.1226 H   0  0  0  0  0  0  0  0  0  0  0  0  # atno 10763 bound_to 10752
  154.0949  135.2863  155.3265 H   0  0  0  0  0  0  0  0  0  0  0  0  # atno 10764 bound_to 10752
  154.6439  135.5450  153.7885 H   0  0  0  0  0  0  0  0  0  0  0  0  # atno 10765 bound_to 10752
  139.8851  134.8632  156.3327 H   0  0  0  0  0  0  0  0  0  0  0  0  # atno 11005 bound_to 11000
  145.6101  141.0341  143.1971 LP  0  0  0  0  0  0  0  0  0  0  0  0  # atno 17320 bound_to 7965
  144.7336  139.7650  143.7337 LP  0  0  0  0  0  0  0  0  0  0  0  0  # atno 17321 bound_to 7965
  140.6366  143.8972  150.6653 LP  0  0  0  0  0  0  0  0  0  0  0  0  # atno 17342 bound_to 10162
  140.2293  143.3748  152.1579 LP  0  0  0  0  0  0  0  0  0  0  0  0  # atno 17343 bound_to 10162
  157.1012  130.5983  149.5461 LP  0  0  0  0  0  0  0  0  0  0  0  0  # atno 17370 bound_to 10713
  155.9947  130.5012  150.7430 LP  0  0  0  0  0  0  0  0  0  0  0  0  # atno 17371 bound_to 10713
  140.9712  133.7326  156.0537 LP  0  0  0  0  0  0  0  0  0  0  0  0  # atno 17394 bound_to 11000
  140.7869  134.3662  157.5474 LP  0  0  0  0  0  0  0  0  0  0  0  0  # atno 17395 bound_to 11000

$$$$
