AV-unprocessed.smi:1915|AV-procd|sdf|7762|dock4
  -GOLD-   22720 9503D 1   1.00000     0.00000
 Structure written by MMmdl.
 45 46  0  0  0  0  0  0  0  0  2 V2000
  151.5410  141.9993  158.6910 C   0  0  0  0  0  0  0  0  0  0  0  0
  151.0257  140.9023  157.7438 C   0  0  0  0  0  0  0  0  0  0  0  0
  151.1187  139.5236  158.4132 C   0  0  0  0  0  0  0  0  0  0  0  0
  151.7373  140.8886  156.3723 C   0  0  0  0  0  0  0  0  0  0  0  0
  151.1151  139.9695  155.4212 N   0  0  0  0  0  0  0  0  0  0  0  0
  151.8845  138.8889  154.8291 C   0  0  0  0  0  0  0  0  0  0  0  0
  150.8461  137.9884  154.1301 C   0  0  1  0  0  0  0  0  0  0  0  0
  150.5478  136.7221  154.9493 C   0  0  0  0  0  0  0  0  0  0  0  0
  151.0962  136.5446  156.0380 O   0  0  0  0  0  0  0  0  0  0  0  0
  149.6968  135.8380  154.4048 N   0  0  0  0  0  0  0  0  0  0  0  0
  149.2861  134.5741  155.0136 C   0  0  0  0  0  0  0  0  0  0  0  0
  149.4497  133.3603  154.0745 C   0  0  0  0  0  0  0  0  0  0  0  0
  148.2093  133.0360  153.2589 C   0  0  0  0  0  0  0  0  0  0  0  0
  147.5807  131.7737  153.3257 C   0  0  0  0  0  0  0  0  0  0  0  0
  146.4618  131.5164  152.5059 C   0  0  0  0  0  0  0  0  0  0  0  0
  145.9932  132.5262  151.6404 C   0  0  0  0  0  0  0  0  0  0  0  0
  146.6555  133.7703  151.6174 C   0  0  0  0  0  0  0  0  0  0  0  0
  147.7263  133.9771  152.4149 N   0  3  0  0  0  0  0  0  0  0  0  0
  149.5977  138.8818  153.9824 C   0  0  0  0  0  0  0  0  0  0  0  0
  149.8720  140.0401  154.9295 C   0  0  0  0  0  0  0  0  0  0  0  0
  149.0295  140.8935  155.2020 O   0  0  0  0  0  0  0  0  0  0  0  0
  152.6133  141.9016  158.8633 H   0  0  0  0  0  0  0  0  0  0  0  0
  151.0419  141.9469  159.6589 H   0  0  0  0  0  0  0  0  0  0  0  0
  151.3547  142.9960  158.2911 H   0  0  0  0  0  0  0  0  0  0  0  0
  149.9688  141.0995  157.5660 H   0  0  0  0  0  0  0  0  0  0  0  0
  152.1539  139.2577  158.6298 H   0  0  0  0  0  0  0  0  0  0  0  0
  150.7027  138.7458  157.7724 H   0  0  0  0  0  0  0  0  0  0  0  0
  150.5662  139.5038  159.3533 H   0  0  0  0  0  0  0  0  0  0  0  0
  151.7608  141.8967  155.9545 H   0  0  0  0  0  0  0  0  0  0  0  0
  152.7800  140.5949  156.5009 H   0  0  0  0  0  0  0  0  0  0  0  0
  152.5875  139.3027  154.1049 H   0  0  0  0  0  0  0  0  0  0  0  0
  152.4652  138.3620  155.5873 H   0  0  0  0  0  0  0  0  0  0  0  0
  151.2127  137.6956  153.1449 H   0  0  0  0  0  0  0  0  0  0  0  0
  149.2910  136.0637  153.5077 H   0  0  0  0  0  0  0  0  0  0  0  0
  149.8350  134.4059  155.9418 H   0  0  0  0  0  0  0  0  0  0  0  0
  148.2381  134.6686  155.2985 H   0  0  0  0  0  0  0  0  0  0  0  0
  150.2764  133.5435  153.3875 H   0  0  0  0  0  0  0  0  0  0  0  0
  149.7324  132.4820  154.6567 H   0  0  0  0  0  0  0  0  0  0  0  0
  147.9591  131.0063  153.9849 H   0  0  0  0  0  0  0  0  0  0  0  0
  145.9724  130.5540  152.5372 H   0  0  0  0  0  0  0  0  0  0  0  0
  145.1411  132.3474  151.0009 H   0  0  0  0  0  0  0  0  0  0  0  0
  146.3691  134.5964  150.9833 H   0  0  0  0  0  0  0  0  0  0  0  0
  149.5061  139.2624  152.9647 H   0  0  0  0  0  0  0  0  0  0  0  0
  148.6626  138.3814  154.2395 H   0  0  0  0  0  0  0  0  0  0  0  0
  148.1971  134.8811  152.3732 H   0  0  0  0  0  0  0  0  0  0  0  0
  1  2  1  0  0  0  0
  1 22  1  0  0  0  0
  1 23  1  0  0  0  0
  1 24  1  0  0  0  0
  2  3  1  0  0  0  0
  2  4  1  0  0  0  0
  2 25  1  0  0  0  0
  3 26  1  0  0  0  0
  3 27  1  0  0  0  0
  3 28  1  0  0  0  0
  4  5  1  0  0  0  0
  4 29  1  0  0  0  0
  4 30  1  0  0  0  0
  5 20  1  0  0  0  0
  5  6  1  0  0  0  0
  6  7  1  0  0  0  0
  6 31  1  0  0  0  0
  6 32  1  0  0  0  0
  7  8  1  0  0  0  0
  7 19  1  0  0  0  0
  7 33  1  0  0  0  0
  8  9  2  0  0  0  0
  8 10  1  0  0  0  0
 10 11  1  0  0  0  0
 10 34  1  0  0  0  0
 11 12  1  0  0  0  0
 11 35  1  0  0  0  0
 11 36  1  0  0  0  0
 12 13  1  0  0  0  0
 12 37  1  0  0  0  0
 12 38  1  0  0  0  0
 13 18  1  0  0  0  0
 13 14  2  0  0  0  0
 14 15  1  0  0  0  0
 14 39  1  0  0  0  0
 15 16  2  0  0  0  0
 15 40  1  0  0  0  0
 16 17  1  0  0  0  0
 16 41  1  0  0  0  0
 17 18  2  0  0  0  0
 17 42  1  0  0  0  0
 18 45  1  0  0  0  0
 19 20  1  0  0  0  0
 19 43  1  0  0  0  0
 19 44  1  0  0  0  0
 20 21  2  0  0  0  0
M  CHG  1  18   1
M  END
> <s_m_source_file>
AV-unprocessed.smi

> <i_m_source_file_index>
1915

> <i_lp_mmshare_version>
43012

> <i_f3d_flags>
0

> <s_epik_input>
W0NIM11bQ0hdKFtDSDNdKVtDSDJdTjFbQ0gyXVtDQEhdKFtDSDJdQzE9TylDKD1PKVtOSF1bQ0gyXVtDSDJdYzJbY0hdW2NIXVtjSF1bY0hdbjI=

> <s_epik_cmdline>
J2VwaWtfcHl0aG9uJywgJy1waCcsICc3LjAnLCAnLXRuJywgJzgnLCAnLW1hJywgJzIwMCcsICctbWV0YWxfYmluZGluZycsICctaW1hZScsICc8aW5maWxlLm1hZT4nLCAnLW9tYWUnLCAnPG91dGZpbGUubWFlPic=

> <r_epik_Ionization_Penalty>
1.88249

> <r_epik_Ionization_Penalty_Charging>
1.88249

> <r_epik_Ionization_Penalty_Neutral>
3.64574e-08

> <r_epik_State_Penalty>
2.00238

> <r_epik_Charging_Adjusted_Penalty>
3.88487

> <i_epik_Tot_Q>
1

> <i_epik_Tot_abs_Q>
1

> <r_epik_Metal_State_Penalty>
2.02676

> <b_epik_Metal_Only>
0

> <s_lp_Force_Field>
OPLS_2005

> <r_lp_Energy>
19.4357

> <b_lp_Chiralities_Consistent>
1

> <s_lp_Variant>
AV-unprocessed.smi:1915-3

> <Gold.Version>
5.8.1

> <Gold.Id.Protein>
6NUR|6NUR_protein|mol2

> <Gold.PLP.Fitness>
48.7051

> <Gold.PLP.PLP>
-39.8195

> <Gold.PLP.part.hbond>
-2.3075

> <Gold.PLP.part.metal>
0.0000

> <Gold.PLP.part.buried>
-2.6811

> <Gold.PLP.part.nonpolar>
-34.1961

> <Gold.PLP.part.repulsive>
0.1848

> <Gold.PLP.ligand.clash>
0.0000

> <Gold.PLP.ligand.torsion>
0.3039

> <Gold.PLP.Chemscore.Hbond>
3.1162

> <Gold.PLP.Chemscore.CHOScore>
0.0000

> <Gold.PLP.Chemscore.Metal>
0.0000

> <Gold.Chemscore.Hbonds>
donor molecule, donor type, donor heavy atom, donor atom, acceptor molecule, acceptor atom, score
      L1  H    10    34       P1  7948  1.00
      L1  H    18    45       P1  7948  2.00

> <Gold.PLP.Chemscore.Internal.Correction>
0.1449

> <Gold.Rescore>
     Score         DG    S(hbond)    S(metal)    S(lipo)     H(rot)  DE(clash)    DE(int)     intcor
     16.97     -17.45       2.10        0.00      83.16       1.86       0.20       0.27       ----

> <Gold.Chemscore.Fitness>
16.9749

> <Gold.Chemscore.DG>
-17.4457

> <Gold.Chemscore.ZeroCoef>
-5.4800

> <Gold.Chemscore.Hbond>
2.0980

> <Gold.Chemscore.Metal>
0.0000

> <Gold.Chemscore.Lipo>
83.1589

> <Gold.Chemscore.Internal_Hbond>
0.0000

> <Gold.Chemscore.DEClash>
0.1968

> <Gold.Chemscore.DEInternal>
0.2740

> <Gold.Chemscore.Rot>
1.8638

> <Gold.Chemscore.Internal.Correction>
   9.000000E+99

> <Gold.Chemscore.Hbonds>
donor molecule, donor type, donor heavy atom, donor atom, acceptor molecule, acceptor atom, score
      L1  H    10    34       P1  7948  0.74
      L1  H    18    45       P1  7948  0.49

> <Gold.Chemscore.Hbond.Weighted>
-7.0074

> <Gold.Chemscore.Metal.Weighted>
-0.0000

> <Gold.Chemscore.Lipo.Weighted>
-9.7296

> <Gold.Chemscore.Internal_Hbond.Weighted>
0.0000

> <Gold.Chemscore.DEClash.Weighted>
0.1968

> <Gold.Chemscore.DEInternal.Weighted>
0.2740

> <Gold.Chemscore.Rot.Weighted>
4.7713

> <Gold.Chemscore.Internal.Correction.Weighted>
   9.000000E+99

> <Gold.Protein.RotatedTorsions>
[ 6907 6896 6895 6894 ] final  -66.44 input  -60.11 | X-H torsion
[ 7974 7965 7964 7962 ] final -130.77 input  175.53 | X-H torsion
[ 8008 7997 7996 7995 ] final -149.03 input   59.86 | X-H torsion
[ 10167 10162 10161 10158 ] final   40.08 input  -65.29 | X-H torsion
[ 10718 10713 10712 10709 ] final  172.10 input   66.30 | X-H torsion
[ 10763 10752 10751 10750 ] final -172.27 input  -60.55 | X-H torsion
[ 11005 11000 10999 10996 ] final  150.80 input  -57.11 | X-H torsion

> <Gold.Protein.ActiveResidues>
 VAL166  LYS551  ARG553  GLY616  TRP617  ASP618  TYR619  PRO620  LYS621  CYS622 
 ASP623  PHE694  ASN695  SER759  ASP760  ASP761  ALA762  ILE779  LEU786  VAL792 
 PHE793  MET794  SER795  GLU796  ALA797  LYS798  CYS799  TRP800  GLU811  SER814 

> <Gold.Protein.RotatedAtoms>
  150.7465  134.6021  159.6041 H   0  0  0  0  0  0  0  0  0  0  0  0  # atno 6907 bound_to 6896
  152.3379  134.7170  160.0281 H   0  0  0  0  0  0  0  0  0  0  0  0  # atno 6908 bound_to 6896
  151.7632  133.3299  159.3460 H   0  0  0  0  0  0  0  0  0  0  0  0  # atno 6909 bound_to 6896
  144.9443  140.7274  143.4827 H   0  0  0  0  0  0  0  0  0  0  0  0  # atno 7974 bound_to 7965
  155.6010  140.0662  157.2733 H   0  0  0  0  0  0  0  0  0  0  0  0  # atno 8008 bound_to 7997
  154.4279  140.1818  156.1221 H   0  0  0  0  0  0  0  0  0  0  0  0  # atno 8009 bound_to 7997
  156.0159  140.3322  155.6992 H   0  0  0  0  0  0  0  0  0  0  0  0  # atno 8010 bound_to 7997
  140.3777  144.2022  150.6131 H   0  0  0  0  0  0  0  0  0  0  0  0  # atno 10167 bound_to 10162
  156.9839  131.0127  151.2874 H   0  0  0  0  0  0  0  0  0  0  0  0  # atno 10718 bound_to 10713
  154.6211  135.2875  155.0324 H   0  0  0  0  0  0  0  0  0  0  0  0  # atno 10763 bound_to 10752
  154.1519  135.6502  153.4969 H   0  0  0  0  0  0  0  0  0  0  0  0  # atno 10764 bound_to 10752
  153.0236  135.5357  154.7002 H   0  0  0  0  0  0  0  0  0  0  0  0  # atno 10765 bound_to 10752
  140.1163  134.8892  157.2009 H   0  0  0  0  0  0  0  0  0  0  0  0  # atno 11005 bound_to 11000
  145.2942  139.1873  143.4724 LP  0  0  0  0  0  0  0  0  0  0  0  0  # atno 17320 bound_to 7965
  146.3297  140.2923  142.8616 LP  0  0  0  0  0  0  0  0  0  0  0  0  # atno 17321 bound_to 7965
  140.4970  143.2329  151.8735 LP  0  0  0  0  0  0  0  0  0  0  0  0  # atno 17342 bound_to 10162
  139.4798  144.5103  151.8942 LP  0  0  0  0  0  0  0  0  0  0  0  0  # atno 17343 bound_to 10162
  157.5507  130.8180  149.8141 LP  0  0  0  0  0  0  0  0  0  0  0  0  # atno 17370 bound_to 10713
  156.0234  130.3788  150.1895 LP  0  0  0  0  0  0  0  0  0  0  0  0  # atno 17371 bound_to 10713
  140.3024  134.3117  155.7286 LP  0  0  0  0  0  0  0  0  0  0  0  0  # atno 17394 bound_to 11000
  141.2142  133.7600  156.9659 LP  0  0  0  0  0  0  0  0  0  0  0  0  # atno 17395 bound_to 11000

$$$$
