AV-unprocessed.smi:3037|AV-procd|sdf|11586|dock10
  -GOLD-   2272016563D 1   1.00000     0.00000
 Structure written by MMmdl.
 47 48  0  0  0  0  0  0  0  0  2 V2000
  143.8452  132.7101  148.6231 C   0  0  0  0  0  0  0  0  0  0  0  0
  144.5952  132.5856  149.9180 C   0  0  0  0  0  0  0  0  0  0  0  0
  144.1058  132.1148  151.1696 C   0  0  0  0  0  0  0  0  0  0  0  0
  145.0256  132.1319  152.1205 N   0  0  0  0  0  0  0  0  0  0  0  0
  146.1312  132.6107  151.5119 N   0  0  0  0  0  0  0  0  0  0  0  0
  147.3610  132.7703  152.2672 C   0  0  0  0  0  0  0  0  0  0  0  0
  147.1923  133.6615  153.5151 C   0  0  2  0  0  0  0  0  0  0  0  0
  146.0005  134.6323  153.3931 C   0  0  0  0  0  0  0  0  0  0  0  0
  148.4559  134.3931  153.7596 N   0  3  0  0  0  0  0  0  0  0  0  0
  148.6624  134.8637  155.1457 C   0  0  0  0  0  0  0  0  0  0  0  0
  149.7836  135.9175  155.2053 C   0  0  0  0  0  0  0  0  0  0  0  0
  149.2961  137.3558  154.9555 C   0  0  0  0  0  0  0  0  0  0  0  0
  148.0871  137.5881  154.9993 O   0  0  0  0  0  0  0  0  0  0  0  0
  150.2082  138.3244  154.6940 N   0  0  0  0  0  0  0  0  0  0  0  0
  149.8332  139.7304  154.4881 C   0  0  0  0  0  0  0  0  0  0  0  0
  150.3344  140.5633  155.6823 C   0  0  0  0  0  0  0  0  0  0  0  0
  151.8524  140.3916  155.8753 C   0  0  0  0  0  0  0  0  0  0  0  0
  152.2546  138.9055  155.9092 C   0  0  0  0  0  0  0  0  0  0  0  0
  151.6679  138.1494  154.7030 C   0  0  0  0  0  0  0  0  0  0  0  0
  145.8989  132.8964  150.1831 C   0  0  0  0  0  0  0  0  0  0  0  0
  142.9299  132.1179  148.6264 H   0  0  0  0  0  0  0  0  0  0  0  0
  144.4425  132.3717  147.7763 H   0  0  0  0  0  0  0  0  0  0  0  0
  143.5585  133.7428  148.4236 H   0  0  0  0  0  0  0  0  0  0  0  0
  143.1137  131.7641  151.4133 H   0  0  0  0  0  0  0  0  0  0  0  0
  147.7048  131.7768  152.5585 H   0  0  0  0  0  0  0  0  0  0  0  0
  148.1281  133.1823  151.6087 H   0  0  0  0  0  0  0  0  0  0  0  0
  147.0164  133.0037  154.3677 H   0  0  0  0  0  0  0  0  0  0  0  0
  145.0629  134.0966  153.2452 H   0  0  0  0  0  0  0  0  0  0  0  0
  146.1291  135.3116  152.5499 H   0  0  0  0  0  0  0  0  0  0  0  0
  145.8729  135.2359  154.2911 H   0  0  0  0  0  0  0  0  0  0  0  0
  149.2160  133.7643  153.5428 H   0  0  0  0  0  0  0  0  0  0  0  0
  147.7340  135.2894  155.5267 H   0  0  0  0  0  0  0  0  0  0  0  0
  148.9153  134.0118  155.7790 H   0  0  0  0  0  0  0  0  0  0  0  0
  150.2657  135.8756  156.1830 H   0  0  0  0  0  0  0  0  0  0  0  0
  150.5389  135.6725  154.4574 H   0  0  0  0  0  0  0  0  0  0  0  0
  150.2839  140.0919  153.5627 H   0  0  0  0  0  0  0  0  0  0  0  0
  148.7585  139.8707  154.3666 H   0  0  0  0  0  0  0  0  0  0  0  0
  150.0938  141.6161  155.5336 H   0  0  0  0  0  0  0  0  0  0  0  0
  149.8131  140.2509  156.5881 H   0  0  0  0  0  0  0  0  0  0  0  0
  152.3737  140.8832  155.0529 H   0  0  0  0  0  0  0  0  0  0  0  0
  152.1761  140.8919  156.7883 H   0  0  0  0  0  0  0  0  0  0  0  0
  153.3410  138.8137  155.9184 H   0  0  0  0  0  0  0  0  0  0  0  0
  151.8971  138.4506  156.8339 H   0  0  0  0  0  0  0  0  0  0  0  0
  151.9883  137.1096  154.7326 H   0  0  0  0  0  0  0  0  0  0  0  0
  152.0802  138.5521  153.7766 H   0  0  0  0  0  0  0  0  0  0  0  0
  146.6726  133.2922  149.5417 H   0  0  0  0  0  0  0  0  0  0  0  0
  148.5035  135.1808  153.1293 H   0  0  0  0  0  0  0  0  0  0  0  0
  1  2  1  0  0  0  0
  1 21  1  0  0  0  0
  1 22  1  0  0  0  0
  1 23  1  0  0  0  0
  2 20  2  0  0  0  0
  2  3  1  0  0  0  0
  3  4  2  0  0  0  0
  3 24  1  0  0  0  0
  4  5  1  0  0  0  0
  5  6  1  0  0  0  0
  5 20  1  0  0  0  0
  6  7  1  0  0  0  0
  6 25  1  0  0  0  0
  6 26  1  0  0  0  0
  7  8  1  0  0  0  0
  7  9  1  0  0  0  0
  7 27  1  0  0  0  0
  8 28  1  0  0  0  0
  8 29  1  0  0  0  0
  8 30  1  0  0  0  0
  9 10  1  0  0  0  0
  9 31  1  0  0  0  0
  9 47  1  0  0  0  0
 10 11  1  0  0  0  0
 10 32  1  0  0  0  0
 10 33  1  0  0  0  0
 11 12  1  0  0  0  0
 11 34  1  0  0  0  0
 11 35  1  0  0  0  0
 12 13  2  0  0  0  0
 12 14  1  0  0  0  0
 14 19  1  0  0  0  0
 14 15  1  0  0  0  0
 15 16  1  0  0  0  0
 15 36  1  0  0  0  0
 15 37  1  0  0  0  0
 16 17  1  0  0  0  0
 16 38  1  0  0  0  0
 16 39  1  0  0  0  0
 17 18  1  0  0  0  0
 17 40  1  0  0  0  0
 17 41  1  0  0  0  0
 18 19  1  0  0  0  0
 18 42  1  0  0  0  0
 18 43  1  0  0  0  0
 19 44  1  0  0  0  0
 19 45  1  0  0  0  0
 20 46  1  0  0  0  0
M  CHG  1   9   1
M  END
> <s_m_source_file>
AV-unprocessed.smi

> <i_m_source_file_index>
3037

> <i_lp_mmshare_version>
43012

> <i_f3d_flags>
0

> <s_epik_input>
W0NIM11jMVtjSF1ubihbY0hdMSlbQ0gyXVtDQEhdKFtDSDNdKVtOSF1bQ0gyXVtDSDJdQyg9TylOMltDSDJdW0NIMl1bQ0gyXVtDSDJdW0NIMl0y

> <s_epik_cmdline>
J2VwaWtfcHl0aG9uJywgJy1waCcsICc3LjAnLCAnLXRuJywgJzgnLCAnLW1hJywgJzIwMCcsICctbWV0YWxfYmluZGluZycsICctaW1hZScsICc8aW5maWxlLm1hZT4nLCAnLW9tYWUnLCAnPG91dGZpbGUubWFlPic=

> <r_lp_tautomer_probability>
1

> <r_epik_Ionization_Penalty>
0.00574983

> <r_epik_Ionization_Penalty_Charging>
0.00574185

> <r_epik_Ionization_Penalty_Neutral>
7.97936e-06

> <r_epik_State_Penalty>
0.00421386

> <r_epik_Charging_Adjusted_Penalty>
0.00995571

> <i_epik_Tot_Q>
1

> <i_epik_Tot_abs_Q>
1

> <r_epik_Metal_State_Penalty>
-0

> <b_epik_Metal_Only>
0

> <s_lp_Force_Field>
OPLS_2005

> <r_lp_Energy>
27.2307

> <b_lp_Chiralities_Consistent>
1

> <s_lp_Variant>
AV-unprocessed.smi:3037-1

> <Gold.Version>
5.8.1

> <Gold.Id.Protein>
6NUR|6NUR_protein|mol2

> <Gold.PLP.Fitness>
42.9448

> <Gold.PLP.PLP>
-38.9736

> <Gold.PLP.part.hbond>
-1.0000

> <Gold.PLP.part.metal>
0.0000

> <Gold.PLP.part.buried>
-3.1064

> <Gold.PLP.part.nonpolar>
-34.3699

> <Gold.PLP.part.repulsive>
0.2374

> <Gold.PLP.ligand.clash>
0.0000

> <Gold.PLP.ligand.torsion>
1.0610

> <Gold.PLP.Chemscore.Hbond>
2.0000

> <Gold.PLP.Chemscore.CHOScore>
0.0000

> <Gold.PLP.Chemscore.Metal>
0.0000

> <Gold.Chemscore.Hbonds>
donor molecule, donor type, donor heavy atom, donor atom, acceptor molecule, acceptor atom, score
      L1  H     9    47       P1  7948  2.00

> <Gold.PLP.Chemscore.Internal.Correction>
0.0931

> <Gold.Rescore>
     Score         DG    S(hbond)    S(metal)    S(lipo)     H(rot)  DE(clash)    DE(int)     intcor
     14.39     -15.16       0.90        0.00      97.38       1.84       0.09       0.68       ----

> <Gold.Chemscore.Fitness>
14.3882

> <Gold.Chemscore.DG>
-15.1583

> <Gold.Chemscore.ZeroCoef>
-5.4800

> <Gold.Chemscore.Hbond>
0.8954

> <Gold.Chemscore.Metal>
0.0000

> <Gold.Chemscore.Lipo>
97.3819

> <Gold.Chemscore.Internal_Hbond>
0.0000

> <Gold.Chemscore.DEClash>
0.0928

> <Gold.Chemscore.DEInternal>
0.6773

> <Gold.Chemscore.Rot>
1.8383

> <Gold.Chemscore.Internal.Correction>
   9.000000E+99

> <Gold.Chemscore.Hbonds>
donor molecule, donor type, donor heavy atom, donor atom, acceptor molecule, acceptor atom, score
      L1  H     9    47       P1  7948  0.85

> <Gold.Chemscore.Hbond.Weighted>
-2.9907

> <Gold.Chemscore.Metal.Weighted>
-0.0000

> <Gold.Chemscore.Lipo.Weighted>
-11.3937

> <Gold.Chemscore.Internal_Hbond.Weighted>
0.0000

> <Gold.Chemscore.DEClash.Weighted>
0.0928

> <Gold.Chemscore.DEInternal.Weighted>
0.6773

> <Gold.Chemscore.Rot.Weighted>
4.7062

> <Gold.Chemscore.Internal.Correction.Weighted>
   9.000000E+99

> <Gold.Protein.RotatedTorsions>
[ 6907 6896 6895 6894 ] final   40.70 input  -60.11 | X-H torsion
[ 7974 7965 7964 7962 ] final  120.00 input  175.53 | X-H torsion
[ 8008 7997 7996 7995 ] final  -85.81 input   59.86 | X-H torsion
[ 10167 10162 10161 10158 ] final -129.46 input  -65.29 | X-H torsion
[ 10718 10713 10712 10709 ] final   -8.23 input   66.30 | X-H torsion
[ 10763 10752 10751 10750 ] final -119.17 input  -60.55 | X-H torsion
[ 11005 11000 10999 10996 ] final  157.57 input  -57.11 | X-H torsion

> <Gold.Protein.ActiveResidues>
 VAL166  LYS551  ARG553  GLY616  TRP617  ASP618  TYR619  PRO620  LYS621  CYS622 
 ASP623  PHE694  ASN695  SER759  ASP760  ASP761  ALA762  ILE779  LEU786  VAL792 
 PHE793  MET794  SER795  GLU796  ALA797  LYS798  CYS799  TRP800  GLU811  SER814 

> <Gold.Protein.RotatedAtoms>
  152.1859  134.8714  160.0521 H   0  0  0  0  0  0  0  0  0  0  0  0  # atno 6907 bound_to 6896
  151.9621  133.3693  159.4047 H   0  0  0  0  0  0  0  0  0  0  0  0  # atno 6908 bound_to 6896
  150.6926  134.4153  159.5224 H   0  0  0  0  0  0  0  0  0  0  0  0  # atno 6909 bound_to 6896
  145.1363  139.3295  143.4639 H   0  0  0  0  0  0  0  0  0  0  0  0  # atno 7974 bound_to 7965
  154.6449  140.0586  156.9889 H   0  0  0  0  0  0  0  0  0  0  0  0  # atno 8008 bound_to 7997
  155.1460  140.3270  155.4423 H   0  0  0  0  0  0  0  0  0  0  0  0  # atno 8009 bound_to 7997
  156.2549  140.1956  156.6574 H   0  0  0  0  0  0  0  0  0  0  0  0  # atno 8010 bound_to 7997
  139.9396  143.6179  152.2507 H   0  0  0  0  0  0  0  0  0  0  0  0  # atno 10167 bound_to 10162
  156.7057  130.5106  149.5905 H   0  0  0  0  0  0  0  0  0  0  0  0  # atno 10718 bound_to 10713
  154.8609  135.4248  154.2256 H   0  0  0  0  0  0  0  0  0  0  0  0  # atno 10763 bound_to 10752
  153.3252  135.6984  153.7001 H   0  0  0  0  0  0  0  0  0  0  0  0  # atno 10764 bound_to 10752
  153.6040  135.3531  155.2929 H   0  0  0  0  0  0  0  0  0  0  0  0  # atno 10765 bound_to 10752
  140.1782  134.8494  157.2772 H   0  0  0  0  0  0  0  0  0  0  0  0  # atno 11005 bound_to 11000
  146.3509  140.1383  142.8595 LP  0  0  0  0  0  0  0  0  0  0  0  0  # atno 17320 bound_to 7965
  145.0580  140.9067  143.4956 LP  0  0  0  0  0  0  0  0  0  0  0  0  # atno 17321 bound_to 7965
  139.6716  144.7660  151.1773 LP  0  0  0  0  0  0  0  0  0  0  0  0  # atno 17342 bound_to 10162
  140.7615  143.5857  150.8848 LP  0  0  0  0  0  0  0  0  0  0  0  0  # atno 17343 bound_to 10162
  156.1697  130.6429  151.0822 LP  0  0  0  0  0  0  0  0  0  0  0  0  # atno 17370 bound_to 10713
  157.6956  131.0795  150.6979 LP  0  0  0  0  0  0  0  0  0  0  0  0  # atno 17371 bound_to 10713
  140.2297  134.3923  155.7527 LP  0  0  0  0  0  0  0  0  0  0  0  0  # atno 17394 bound_to 11000
  141.2221  133.7209  156.8622 LP  0  0  0  0  0  0  0  0  0  0  0  0  # atno 17395 bound_to 11000

$$$$
