AV-unprocessed.smi:72|AV-procd|sdf|670|dock7
  -GOLD-   2262016573D 1   1.00000     0.00000
 Structure written by MMmdl.
 29 30  0  0  0  0  0  0  0  0  1 V2000
  146.7272  140.2611  152.2367 N   0  0  0  0  0  0  0  0  0  0  0  0
  147.2187  140.3766  153.4187 C   0  0  0  0  0  0  0  0  0  0  0  0
  146.4778  140.6279  154.5838 N   0  0  0  0  0  0  0  0  0  0  0  0
  147.1088  140.7249  155.7132 C   0  0  0  0  0  0  0  0  0  0  0  0
  148.5542  140.5878  155.8076 N   0  0  0  0  0  0  0  0  0  0  0  0
  149.2600  140.7080  157.1421 C   0  0  1  0  0  0  0  0  0  0  0  0
  150.0379  139.5670  157.3348 O   0  0  0  0  0  0  0  0  0  0  0  0
  151.2342  139.9285  158.0092 C   0  0  1  0  0  0  0  0  0  0  0  0
  152.3176  138.8687  157.7566 C   0  0  0  0  0  0  0  0  0  0  0  0
  153.5277  139.2537  158.3734 O   0  0  0  0  0  0  0  0  0  0  0  0
  151.5621  141.2964  157.4024 C   0  0  2  0  0  0  0  0  0  0  0  0
  152.3647  142.0528  158.2861 O   0  0  0  0  0  0  0  0  0  0  0  0
  150.1900  141.9390  157.2403 C   0  0  1  0  0  0  0  0  0  0  0  0
  150.1661  142.7937  156.1108 O   0  0  0  0  0  0  0  0  0  0  0  0
  149.3150  140.3143  154.6455 C   0  0  0  0  0  0  0  0  0  0  0  0
  150.5349  140.1536  154.6739 O   0  0  0  0  0  0  0  0  0  0  0  0
  148.6107  140.2286  153.4960 N   0  0  0  0  0  0  0  0  0  0  0  0
  148.4854  140.7110  157.9102 H   0  0  0  0  0  0  0  0  0  0  0  0
  151.0239  140.0364  159.0757 H   0  0  0  0  0  0  0  0  0  0  0  0
  152.0545  141.1748  156.4359 H   0  0  0  0  0  0  0  0  0  0  0  0
  149.9055  142.4983  158.1332 H   0  0  0  0  0  0  0  0  0  0  0  0
  145.7249  140.3785  152.2558 H   0  0  0  0  0  0  0  0  0  0  0  0
  146.6013  140.9088  156.6614 H   0  0  0  0  0  0  0  0  0  0  0  0
  152.0034  137.8869  158.1123 H   0  0  0  0  0  0  0  0  0  0  0  0
  152.5117  138.7788  156.6875 H   0  0  0  0  0  0  0  0  0  0  0  0
  153.4179  139.2000  159.3106 H   0  0  0  0  0  0  0  0  0  0  0  0
  151.9828  142.0039  159.1494 H   0  0  0  0  0  0  0  0  0  0  0  0
  149.4925  143.4436  156.2418 H   0  0  0  0  0  0  0  0  0  0  0  0
  149.1254  140.0386  152.6488 H   0  0  0  0  0  0  0  0  0  0  0  0
  1  2  2  0  0  0  0
  1 22  1  0  0  0  0
  2 17  1  0  0  0  0
  2  3  1  0  0  0  0
  3  4  2  0  0  0  0
  4  5  1  0  0  0  0
  4 23  1  0  0  0  0
  5  6  1  0  0  0  0
  5 15  1  0  0  0  0
  6 18  1  0  0  0  0
  6 13  1  0  0  0  0
  6  7  1  0  0  0  0
  7  8  1  0  0  0  0
  8 19  1  0  0  0  0
  8  9  1  0  0  0  0
  8 11  1  0  0  0  0
  9 10  1  0  0  0  0
  9 24  1  0  0  0  0
  9 25  1  0  0  0  0
 10 26  1  0  0  0  0
 11 20  1  0  0  0  0
 11 12  1  0  0  0  0
 11 13  1  0  0  0  0
 12 27  1  0  0  0  0
 13 21  1  0  0  0  0
 13 14  1  0  0  0  0
 14 28  1  0  0  0  0
 15 16  2  0  0  0  0
 15 17  1  0  0  0  0
 17 29  1  0  0  0  0
M  END
> <s_m_source_file>
AV-unprocessed.smi

> <i_m_source_file_index>
72

> <i_lp_mmshare_version>
43012

> <i_f3d_flags>
0

> <s_epik_input>
W05IMl1jMW5bY0hdbihjKD1PKW4xKVtDQEBIXTJPW0NASF0oW0NIMl1bT0hdKVtDQEBIXShbT0hdKVtDQEhdMltPSF0=

> <s_epik_cmdline>
J2VwaWtfcHl0aG9uJywgJy1waCcsICc3LjAnLCAnLXRuJywgJzgnLCAnLW1hJywgJzIwMCcsICctbWV0YWxfYmluZGluZycsICctaW1hZScsICc8aW5maWxlLm1hZT4nLCAnLW9tYWUnLCAnPG91dGZpbGUubWFlPic=

> <r_lp_tautomer_probability>
7.17554e-07

> <r_epik_Ionization_Penalty>
0.0066451

> <r_epik_Ionization_Penalty_Charging>
0.00663793

> <r_epik_Ionization_Penalty_Neutral>
7.17052e-06

> <r_epik_State_Penalty>
0.419231

> <r_epik_Charging_Adjusted_Penalty>
0.425868

> <i_epik_Tot_Q>
0

> <i_epik_Tot_abs_Q>
0

> <r_epik_Metal_State_Penalty>
1.44144

> <b_epik_Metal_Only>
0

> <s_epik_Chemistry_Notes>
This compound contains an acetal/aminal-like group ( X-CH(R)-Y where X, Y are N, S, or O) that may be acid/base labile, releasing an aldehyde.

> <s_lp_Force_Field>
OPLS_2005

> <r_lp_Energy>
43.9506

> <b_lp_Chiralities_Consistent>
1

> <s_lp_Variant>
AV-unprocessed.smi:72-8

> <Gold.Version>
5.8.1

> <Gold.Id.Protein>
6NUR|6NUR_protein|mol2

> <Gold.PLP.Fitness>
35.6188

> <Gold.PLP.PLP>
-21.1517

> <Gold.PLP.part.hbond>
-5.2901

> <Gold.PLP.part.metal>
0.0000

> <Gold.PLP.part.buried>
-5.2281

> <Gold.PLP.part.nonpolar>
-11.4476

> <Gold.PLP.part.repulsive>
0.3152

> <Gold.PLP.ligand.clash>
0.0000

> <Gold.PLP.ligand.torsion>
0.0879

> <Gold.PLP.Chemscore.Hbond>
4.8388

> <Gold.PLP.Chemscore.CHOScore>
0.0000

> <Gold.PLP.Chemscore.Metal>
0.0000

> <Gold.Chemscore.Hbonds>
donor molecule, donor type, donor heavy atom, donor atom, acceptor molecule, acceptor atom, score
      L1  H     1    22       P1 10175  0.98
      L1  H    14    28       P1  8028  0.87
      L1  H    17    29       P1  7957  1.00
      P1  H  7989  7998       L1    16  1.00
      P1  H  7997  8010       L1    10  1.00

> <Gold.PLP.Chemscore.Internal.Correction>
0.1266

> <Gold.Rescore>
     Score         DG    S(hbond)    S(metal)    S(lipo)     H(rot)  DE(clash)    DE(int)     intcor
     10.22     -12.85       4.58        0.00      21.20       4.06       0.18       2.45       ----

> <Gold.Chemscore.Fitness>
10.2182

> <Gold.Chemscore.DG>
-12.8529

> <Gold.Chemscore.ZeroCoef>
-5.4800

> <Gold.Chemscore.Hbond>
4.5765

> <Gold.Chemscore.Metal>
0.0000

> <Gold.Chemscore.Lipo>
21.2035

> <Gold.Chemscore.Internal_Hbond>
0.0000

> <Gold.Chemscore.DEClash>
0.1822

> <Gold.Chemscore.DEInternal>
2.4524

> <Gold.Chemscore.Rot>
4.0600

> <Gold.Chemscore.Internal.Correction>
   9.000000E+99

> <Gold.Chemscore.Hbonds>
donor molecule, donor type, donor heavy atom, donor atom, acceptor molecule, acceptor atom, score
      L1  H     1    22       P1 10175  0.36
      L1  H    14    28       P1  8028  0.80
      L1  H    17    29       P1  7957  0.97
      P1  H  7989  7998       L1    16  0.99
      P1  H  7997  8010       L1    10  0.78

> <Gold.Chemscore.Hbond.Weighted>
-15.2857

> <Gold.Chemscore.Metal.Weighted>
-0.0000

> <Gold.Chemscore.Lipo.Weighted>
-2.4808

> <Gold.Chemscore.Internal_Hbond.Weighted>
0.0000

> <Gold.Chemscore.DEClash.Weighted>
0.1822

> <Gold.Chemscore.DEInternal.Weighted>
2.4524

> <Gold.Chemscore.Rot.Weighted>
10.3936

> <Gold.Chemscore.Internal.Correction.Weighted>
   9.000000E+99

> <Gold.Protein.RotatedTorsions>
[ 6907 6896 6895 6894 ] final   85.12 input  -60.11 | X-H torsion
[ 7974 7965 7964 7962 ] final  -97.69 input  175.53 | X-H torsion
[ 8008 7997 7996 7995 ] final   25.16 input   59.86 | X-H torsion
[ 10167 10162 10161 10158 ] final   49.91 input  -65.29 | X-H torsion
[ 10718 10713 10712 10709 ] final  178.57 input   66.30 | X-H torsion
[ 10763 10752 10751 10750 ] final   64.47 input  -60.55 | X-H torsion
[ 11005 11000 10999 10996 ] final -155.15 input  -57.11 | X-H torsion

> <Gold.Protein.ActiveResidues>
 VAL166  LYS551  ARG553  GLY616  TRP617  ASP618  TYR619  PRO620  LYS621  CYS622 
 ASP623  PHE694  ASN695  SER759  ASP760  ASP761  ALA762  ILE779  LEU786  VAL792 
 PHE793  MET794  SER795  GLU796  ALA797  LYS798  CYS799  TRP800  GLU811  SER814 

> <Gold.Protein.RotatedAtoms>
  152.5368  134.2635  159.8943 H   0  0  0  0  0  0  0  0  0  0  0  0  # atno 6907 bound_to 6896
  151.2594  133.4303  159.2623 H   0  0  0  0  0  0  0  0  0  0  0  0  # atno 6908 bound_to 6896
  151.0467  134.9659  159.8246 H   0  0  0  0  0  0  0  0  0  0  0  0  # atno 6909 bound_to 6896
  145.3304  140.9440  143.2665 H   0  0  0  0  0  0  0  0  0  0  0  0  # atno 7974 bound_to 7965
  155.0075  140.3132  155.4843 H   0  0  0  0  0  0  0  0  0  0  0  0  # atno 8008 bound_to 7997
  156.2915  140.2220  156.5129 H   0  0  0  0  0  0  0  0  0  0  0  0  # atno 8009 bound_to 7997
  154.7564  140.0462  157.0924 H   0  0  0  0  0  0  0  0  0  0  0  0  # atno 8010 bound_to 7997
  140.2779  144.3190  150.6272 H   0  0  0  0  0  0  0  0  0  0  0  0  # atno 10167 bound_to 10162
  156.8886  130.9839  151.3052 H   0  0  0  0  0  0  0  0  0  0  0  0  # atno 10718 bound_to 10713
  153.0057  135.5392  154.6516 H   0  0  0  0  0  0  0  0  0  0  0  0  # atno 10763 bound_to 10752
  154.5746  135.2844  155.0795 H   0  0  0  0  0  0  0  0  0  0  0  0  # atno 10764 bound_to 10752
  154.1948  135.6494  153.5122 H   0  0  0  0  0  0  0  0  0  0  0  0  # atno 10765 bound_to 10752
  140.6896  134.4056  157.5220 H   0  0  0  0  0  0  0  0  0  0  0  0  # atno 11005 bound_to 11000
  144.8868  139.4828  143.6697 LP  0  0  0  0  0  0  0  0  0  0  0  0  # atno 17320 bound_to 7965
  146.3047  139.7542  142.9065 LP  0  0  0  0  0  0  0  0  0  0  0  0  # atno 17321 bound_to 7965
  140.5836  143.2171  151.7383 LP  0  0  0  0  0  0  0  0  0  0  0  0  # atno 17342 bound_to 10162
  139.4970  144.4044  152.0147 LP  0  0  0  0  0  0  0  0  0  0  0  0  # atno 17343 bound_to 10162
  157.6098  130.8574  149.8933 LP  0  0  0  0  0  0  0  0  0  0  0  0  # atno 17370 bound_to 10713
  156.0641  130.3695  150.0918 LP  0  0  0  0  0  0  0  0  0  0  0  0  # atno 17371 bound_to 10713
  139.8927  134.8748  156.2257 LP  0  0  0  0  0  0  0  0  0  0  0  0  # atno 17394 bound_to 11000
  141.0252  133.7019  156.1336 LP  0  0  0  0  0  0  0  0  0  0  0  0  # atno 17395 bound_to 11000

$$$$
