AV-unprocessed.smi:2760|AV-procd|sdf|10629|dock3
  -GOLD-   2272015 73D 1   1.00000     0.00000
 Structure written by MMmdl.
 32 33  0  0  0  0  0  0  0  0  1 V2000
  151.8443  136.5313  157.9769 O   0  0  0  0  0  0  0  0  0  0  0  0
  151.2478  136.4978  156.9026 C   0  0  0  0  0  0  0  0  0  0  0  0
  150.8601  137.7361  156.2156 C   0  0  0  0  0  0  0  0  0  0  0  0
  150.2082  137.6717  155.0374 C   0  0  0  0  0  0  0  0  0  0  0  0
  149.7747  138.8742  154.2669 C   0  0  0  0  0  0  0  0  0  0  0  0
  149.0835  140.0486  154.9258 C   0  0  0  0  0  0  0  0  0  0  0  0
  148.3180  139.1609  153.9729 C   0  0  0  0  0  0  0  0  0  0  0  0
  149.9057  136.4413  154.4790 N   0  0  0  0  0  0  0  0  0  0  0  0
  150.2800  135.2798  155.1465 C   0  0  0  0  0  0  0  0  0  0  0  0
  149.7872  133.7661  154.2485 S   0  0  0  0  0  0  0  0  0  0  0  0
  148.0355  134.0386  153.8382 C   0  0  0  0  0  0  0  0  0  0  0  0
  147.5981  133.1681  152.6572 C   0  0  0  0  0  0  0  0  0  0  0  0
  146.2218  133.3974  152.4080 O   0  0  0  0  0  0  0  0  0  0  0  0
  145.7394  132.6772  151.2847 C   0  0  0  0  0  0  0  0  0  0  0  0
  144.4864  133.3676  150.7319 C   0  0  0  0  0  0  0  0  0  0  0  0
  144.1837  132.8438  149.5448 F   0  0  0  0  0  0  0  0  0  0  0  0
  143.4559  133.1823  151.5566 F   0  0  0  0  0  0  0  0  0  0  0  0
  144.7097  134.6726  150.5795 F   0  0  0  0  0  0  0  0  0  0  0  0
  150.9110  135.2819  156.2853 N   0  0  0  0  0  0  0  0  0  0  0  0
  149.4173  136.4335  153.5956 H   0  0  0  0  0  0  0  0  0  0  0  0
  151.0995  138.6923  156.6578 H   0  0  0  0  0  0  0  0  0  0  0  0
  150.4767  139.1236  153.4730 H   0  0  0  0  0  0  0  0  0  0  0  0
  148.8377  139.9775  155.9836 H   0  0  0  0  0  0  0  0  0  0  0  0
  149.3495  141.0448  154.5785 H   0  0  0  0  0  0  0  0  0  0  0  0
  148.0767  139.5669  152.9927 H   0  0  0  0  0  0  0  0  0  0  0  0
  147.5639  138.5022  154.3994 H   0  0  0  0  0  0  0  0  0  0  0  0
  147.8819  135.0904  153.5935 H   0  0  0  0  0  0  0  0  0  0  0  0
  147.4205  133.8081  154.7088 H   0  0  0  0  0  0  0  0  0  0  0  0
  148.1856  133.4152  151.7716 H   0  0  0  0  0  0  0  0  0  0  0  0
  147.7673  132.1145  152.8849 H   0  0  0  0  0  0  0  0  0  0  0  0
  146.5087  132.6311  150.5121 H   0  0  0  0  0  0  0  0  0  0  0  0
  145.5022  131.6515  151.5720 H   0  0  0  0  0  0  0  0  0  0  0  0
  1  2  2  0  0  0  0
  2 19  1  0  0  0  0
  2  3  1  0  0  0  0
  3 21  1  0  0  0  0
  3  4  2  0  0  0  0
  4  5  1  0  0  0  0
  4  8  1  0  0  0  0
  5  7  1  0  0  0  0
  5  6  1  0  0  0  0
  5 22  1  0  0  0  0
  6  7  1  0  0  0  0
  6 23  1  0  0  0  0
  6 24  1  0  0  0  0
  7 25  1  0  0  0  0
  7 26  1  0  0  0  0
  8  9  1  0  0  0  0
  8 20  1  0  0  0  0
  9 10  1  0  0  0  0
  9 19  2  0  0  0  0
 10 11  1  0  0  0  0
 11 12  1  0  0  0  0
 11 27  1  0  0  0  0
 11 28  1  0  0  0  0
 12 13  1  0  0  0  0
 12 29  1  0  0  0  0
 12 30  1  0  0  0  0
 13 14  1  0  0  0  0
 14 15  1  0  0  0  0
 14 31  1  0  0  0  0
 14 32  1  0  0  0  0
 15 16  1  0  0  0  0
 15 17  1  0  0  0  0
 15 18  1  0  0  0  0
M  END
> <s_m_source_file>
AV-unprocessed.smi

> <i_m_source_file_index>
2760

> <i_lp_mmshare_version>
43012

> <i_f3d_flags>
0

> <s_epik_input>
W09IXWMxW2NIXWMoW0NIXTJbQ0gyXVtDSDJdMiluYyhuMSlTW0NIMl1bQ0gyXU9bQ0gyXUMoRikoRilG

> <s_epik_cmdline>
J2VwaWtfcHl0aG9uJywgJy1waCcsICc3LjAnLCAnLXRuJywgJzgnLCAnLW1hJywgJzIwMCcsICctbWV0YWxfYmluZGluZycsICctaW1hZScsICc8aW5maWxlLm1hZT4nLCAnLW9tYWUnLCAnPG91dGZpbGUubWFlPic=

> <r_lp_tautomer_probability>
0.273662

> <r_epik_Ionization_Penalty>
0.0792867

> <r_epik_Ionization_Penalty_Charging>
0.0792819

> <r_epik_Ionization_Penalty_Neutral>
4.79647e-06

> <r_epik_State_Penalty>
1.03359

> <r_epik_Charging_Adjusted_Penalty>
1.11287

> <i_epik_Tot_Q>
0

> <i_epik_Tot_abs_Q>
0

> <r_epik_Metal_State_Penalty>
1.68441

> <b_epik_Metal_Only>
0

> <s_lp_Force_Field>
OPLS_2005

> <r_lp_Energy>
16.1148

> <b_lp_Chiralities_Consistent>
1

> <s_lp_Variant>
AV-unprocessed.smi:2760-2

> <Gold.Version>
5.8.1

> <Gold.Id.Protein>
6NUR|6NUR_protein|mol2

> <Gold.PLP.Fitness>
36.5052

> <Gold.PLP.PLP>
-34.5338

> <Gold.PLP.part.hbond>
-2.6922

> <Gold.PLP.part.metal>
0.0000

> <Gold.PLP.part.buried>
-1.9713

> <Gold.PLP.part.nonpolar>
-28.6179

> <Gold.PLP.part.repulsive>
0.1774

> <Gold.PLP.ligand.clash>
0.0000

> <Gold.PLP.ligand.torsion>
0.6163

> <Gold.PLP.Chemscore.Hbond>
1.0000

> <Gold.PLP.Chemscore.CHOScore>
0.0000

> <Gold.PLP.Chemscore.Metal>
0.0000

> <Gold.Chemscore.Hbonds>
donor molecule, donor type, donor heavy atom, donor atom, acceptor molecule, acceptor atom, score
      L1  H     8    20       P1  7948  1.00

> <Gold.PLP.Chemscore.Internal.Correction>
0.2040

> <Gold.Rescore>
     Score         DG    S(hbond)    S(metal)    S(lipo)     H(rot)  DE(clash)    DE(int)     intcor
      8.99      -9.94       1.43        0.00      53.62       2.57       0.00       0.95       ----

> <Gold.Chemscore.Fitness>
8.9852

> <Gold.Chemscore.DG>
-9.9401

> <Gold.Chemscore.ZeroCoef>
-5.4800

> <Gold.Chemscore.Hbond>
1.4255

> <Gold.Chemscore.Metal>
0.0000

> <Gold.Chemscore.Lipo>
53.6171

> <Gold.Chemscore.Internal_Hbond>
0.0000

> <Gold.Chemscore.DEClash>
0.0005

> <Gold.Chemscore.DEInternal>
0.9545

> <Gold.Chemscore.Rot>
2.5680

> <Gold.Chemscore.Internal.Correction>
   9.000000E+99

> <Gold.Chemscore.Hbonds>
donor molecule, donor type, donor heavy atom, donor atom, acceptor molecule, acceptor atom, score
      L1  H     8    20       P1  7948  0.82

> <Gold.Chemscore.Hbond.Weighted>
-4.7611

> <Gold.Chemscore.Metal.Weighted>
-0.0000

> <Gold.Chemscore.Lipo.Weighted>
-6.2732

> <Gold.Chemscore.Internal_Hbond.Weighted>
0.0000

> <Gold.Chemscore.DEClash.Weighted>
0.0005

> <Gold.Chemscore.DEInternal.Weighted>
0.9545

> <Gold.Chemscore.Rot.Weighted>
6.5741

> <Gold.Chemscore.Internal.Correction.Weighted>
   9.000000E+99

> <Gold.Protein.RotatedTorsions>
[ 6907 6896 6895 6894 ] final   55.93 input  -60.11 | X-H torsion
[ 7974 7965 7964 7962 ] final    9.17 input  175.53 | X-H torsion
[ 8008 7997 7996 7995 ] final -172.80 input   59.86 | X-H torsion
[ 10167 10162 10161 10158 ] final   26.44 input  -65.29 | X-H torsion
[ 10718 10713 10712 10709 ] final -136.11 input   66.30 | X-H torsion
[ 10763 10752 10751 10750 ] final    1.65 input  -60.55 | X-H torsion
[ 11005 11000 10999 10996 ] final  -81.65 input  -57.11 | X-H torsion

> <Gold.Protein.ActiveResidues>
 VAL166  LYS551  ARG553  GLY616  TRP617  ASP618  TYR619  PRO620  LYS621  CYS622 
 ASP623  PHE694  ASN695  SER759  ASP760  ASP761  ALA762  ILE779  LEU786  VAL792 
 PHE793  MET794  SER795  GLU796  ALA797  LYS798  CYS799  TRP800  GLU811  SER814 

> <Gold.Protein.RotatedAtoms>
  152.3587  134.6903  160.0213 H   0  0  0  0  0  0  0  0  0  0  0  0  # atno 6907 bound_to 6896
  151.7233  133.3310  159.3329 H   0  0  0  0  0  0  0  0  0  0  0  0  # atno 6908 bound_to 6896
  150.7590  134.6363  159.6257 H   0  0  0  0  0  0  0  0  0  0  0  0  # atno 6909 bound_to 6896
  146.2407  139.9823  142.8435 H   0  0  0  0  0  0  0  0  0  0  0  0  # atno 7974 bound_to 7965
  155.9492  140.1123  157.0991 H   0  0  0  0  0  0  0  0  0  0  0  0  # atno 8008 bound_to 7997
  154.4106  140.1204  156.5096 H   0  0  0  0  0  0  0  0  0  0  0  0  # atno 8009 bound_to 7997
  155.6863  140.3473  155.4878 H   0  0  0  0  0  0  0  0  0  0  0  0  # atno 8010 bound_to 7997
  140.5023  144.0296  150.6337 H   0  0  0  0  0  0  0  0  0  0  0  0  # atno 10167 bound_to 10162
  156.2734  130.7279  151.1253 H   0  0  0  0  0  0  0  0  0  0  0  0  # atno 10718 bound_to 10713
  153.3053  135.6959  153.7165 H   0  0  0  0  0  0  0  0  0  0  0  0  # atno 10763 bound_to 10752
  153.6063  135.3453  155.2964 H   0  0  0  0  0  0  0  0  0  0  0  0  # atno 10764 bound_to 10752
  154.8561  135.4352  154.2176 H   0  0  0  0  0  0  0  0  0  0  0  0  # atno 10765 bound_to 10752
  141.1666  133.7206  156.8454 H   0  0  0  0  0  0  0  0  0  0  0  0  # atno 11005 bound_to 11000
  145.1580  140.9658  143.4393 LP  0  0  0  0  0  0  0  0  0  0  0  0  # atno 17320 bound_to 7965
  145.0142  139.3482  143.6104 LP  0  0  0  0  0  0  0  0  0  0  0  0  # atno 17321 bound_to 7965
  140.3595  143.2916  152.0399 LP  0  0  0  0  0  0  0  0  0  0  0  0  # atno 17342 bound_to 10162
  139.4875  144.6314  151.7063 LP  0  0  0  0  0  0  0  0  0  0  0  0  # atno 17343 bound_to 10162
  157.7291  131.0626  150.5788 LP  0  0  0  0  0  0  0  0  0  0  0  0  # atno 17370 bound_to 10713
  156.5886  130.4323  149.5946 LP  0  0  0  0  0  0  0  0  0  0  0  0  # atno 17371 bound_to 10713
  140.1953  134.8936  157.3108 LP  0  0  0  0  0  0  0  0  0  0  0  0  # atno 17394 bound_to 11000
  140.2245  134.3983  155.7550 LP  0  0  0  0  0  0  0  0  0  0  0  0  # atno 17395 bound_to 11000

$$$$
