AV-unprocessed.smi:2751|AV-procd|sdf|10595|dock9
  -GOLD-   2272015 43D 1   1.00000     0.00000
 Structure written by MMmdl.
 34 35  0  0  0  0  0  0  0  0  1 V2000
  144.8612  137.5049  152.6088 O   0  0  0  0  0  0  0  0  0  0  0  0
  146.0114  137.1593  152.3364 C   0  0  0  0  0  0  0  0  0  0  0  0
  147.0861  137.9336  152.5460 N   0  0  0  0  0  0  0  0  0  0  0  0
  147.0536  139.2694  153.1303 C   0  0  0  0  0  0  0  0  0  0  0  0
  148.4444  139.9267  153.1234 C   0  0  0  0  0  0  0  0  0  0  0  0
  149.0213  140.1121  154.5356 C   0  0  2  0  0  0  0  0  0  0  0  0
  148.5072  141.4017  155.2047 C   0  0  0  0  0  0  0  0  0  0  0  0
  149.1562  141.5898  156.5806 C   0  0  0  0  0  0  0  0  0  0  0  0
  150.6810  141.5175  156.4470 C   0  0  0  0  0  0  0  0  0  0  0  0
  151.0915  140.2330  155.7097 C   0  0  0  0  0  0  0  0  0  0  0  0
  150.4436  140.1727  154.4426 O   0  0  0  0  0  0  0  0  0  0  0  0
  146.3580  135.9775  151.7996 N   0  0  0  0  0  0  0  0  0  0  0  0
  145.5011  134.9025  151.4531 C   0  0  0  0  0  0  0  0  0  0  0  0
  144.1682  134.9304  151.4094 N   0  0  0  0  0  0  0  0  0  0  0  0
  143.8040  133.6480  151.0253 C   0  0  0  0  0  0  0  0  0  0  0  0
  144.9479  132.9108  150.8569 C   0  0  0  0  0  0  0  0  0  0  0  0
  146.0365  133.6968  151.1246 O   0  0  0  0  0  0  0  0  0  0  0  0
  147.9933  137.5717  152.2902 H   0  0  0  0  0  0  0  0  0  0  0  0
  146.3322  139.8932  152.5998 H   0  0  0  0  0  0  0  0  0  0  0  0
  146.6886  139.1781  154.1536 H   0  0  0  0  0  0  0  0  0  0  0  0
  149.1322  139.3317  152.5209 H   0  0  0  0  0  0  0  0  0  0  0  0
  148.3769  140.9015  152.6386 H   0  0  0  0  0  0  0  0  0  0  0  0
  148.7376  139.2520  155.1452 H   0  0  0  0  0  0  0  0  0  0  0  0
  148.7358  142.2612  154.5731 H   0  0  0  0  0  0  0  0  0  0  0  0
  147.4220  141.3686  155.3074 H   0  0  0  0  0  0  0  0  0  0  0  0
  148.8560  142.5427  157.0171 H   0  0  0  0  0  0  0  0  0  0  0  0
  148.8096  140.8094  157.2592 H   0  0  0  0  0  0  0  0  0  0  0  0
  151.0420  142.3857  155.8941 H   0  0  0  0  0  0  0  0  0  0  0  0
  151.1490  141.5554  157.4309 H   0  0  0  0  0  0  0  0  0  0  0  0
  152.1703  140.2182  155.5548 H   0  0  0  0  0  0  0  0  0  0  0  0
  150.8430  139.3491  156.2990 H   0  0  0  0  0  0  0  0  0  0  0  0
  147.3410  135.8257  151.6287 H   0  0  0  0  0  0  0  0  0  0  0  0
  142.7693  133.3630  150.9042 H   0  0  0  0  0  0  0  0  0  0  0  0
  145.1457  131.8885  150.5705 H   0  0  0  0  0  0  0  0  0  0  0  0
  1  2  2  0  0  0  0
  2  3  1  0  0  0  0
  2 12  1  0  0  0  0
  3  4  1  0  0  0  0
  3 18  1  0  0  0  0
  4  5  1  0  0  0  0
  4 19  1  0  0  0  0
  4 20  1  0  0  0  0
  5  6  1  0  0  0  0
  5 21  1  0  0  0  0
  5 22  1  0  0  0  0
  6 11  1  0  0  0  0
  6  7  1  0  0  0  0
  6 23  1  0  0  0  0
  7  8  1  0  0  0  0
  7 24  1  0  0  0  0
  7 25  1  0  0  0  0
  8  9  1  0  0  0  0
  8 26  1  0  0  0  0
  8 27  1  0  0  0  0
  9 10  1  0  0  0  0
  9 28  1  0  0  0  0
  9 29  1  0  0  0  0
 10 11  1  0  0  0  0
 10 30  1  0  0  0  0
 10 31  1  0  0  0  0
 12 13  1  0  0  0  0
 12 32  1  0  0  0  0
 13 17  1  0  0  0  0
 13 14  2  0  0  0  0
 14 15  1  0  0  0  0
 15 16  2  0  0  0  0
 15 33  1  0  0  0  0
 16 17  1  0  0  0  0
 16 34  1  0  0  0  0
M  END
> <s_m_source_file>
AV-unprocessed.smi

> <i_m_source_file_index>
2751

> <i_lp_mmshare_version>
43012

> <i_f3d_flags>
0

> <s_epik_input>
bzFbY0hdW2NIXW5jMVtOSF1DKD1PKVtOSF1bQ0gyXVtDSDJdW0NAQEhdMltDSDJdW0NIMl1bQ0gyXVtDSDJdTzI=

> <s_epik_cmdline>
J2VwaWtfcHl0aG9uJywgJy1waCcsICc3LjAnLCAnLXRuJywgJzgnLCAnLW1hJywgJzIwMCcsICctbWV0YWxfYmluZGluZycsICctaW1hZScsICc8aW5maWxlLm1hZT4nLCAnLW9tYWUnLCAnPG91dGZpbGUubWFlPic=

> <r_lp_tautomer_probability>
0.785861

> <r_epik_Ionization_Penalty>
4.88827e-05

> <r_epik_Ionization_Penalty_Charging>
0

> <r_epik_Ionization_Penalty_Neutral>
4.88827e-05

> <r_epik_State_Penalty>
0.0434822

> <r_epik_Charging_Adjusted_Penalty>
0.0434822

> <i_epik_Tot_Q>
0

> <i_epik_Tot_abs_Q>
0

> <r_epik_Metal_State_Penalty>
0.0598982

> <b_epik_Metal_Only>
0

> <s_lp_Force_Field>
OPLS_2005

> <r_lp_Energy>
7.87484

> <b_lp_Chiralities_Consistent>
1

> <s_lp_Variant>
AV-unprocessed.smi:2751-1

> <Gold.Version>
5.8.1

> <Gold.Id.Protein>
6NUR|6NUR_protein|mol2

> <Gold.PLP.Fitness>
35.7304

> <Gold.PLP.PLP>
-25.1270

> <Gold.PLP.part.hbond>
-3.0000

> <Gold.PLP.part.metal>
0.0000

> <Gold.PLP.part.buried>
1.1154

> <Gold.PLP.part.nonpolar>
-24.5236

> <Gold.PLP.part.repulsive>
0.7847

> <Gold.PLP.ligand.clash>
0.0000

> <Gold.PLP.ligand.torsion>
0.6603

> <Gold.PLP.Chemscore.Hbond>
2.9920

> <Gold.PLP.Chemscore.CHOScore>
0.9815

> <Gold.PLP.Chemscore.Metal>
0.0000

> <Gold.Chemscore.Hbonds>
donor molecule, donor type, donor heavy atom, donor atom, acceptor molecule, acceptor atom, score
      L1  H     3    18       P1  7948  0.99
      L1  H    12    32       P1  7948  1.00
      P1  H  7989  7998       L1    11  1.00
      L1  C    15    33       P1 10186  0.99

> <Gold.PLP.Chemscore.Internal.Correction>
0.0036

> <Gold.Rescore>
     Score         DG    S(hbond)    S(metal)    S(lipo)     H(rot)  DE(clash)    DE(int)     intcor
     13.30     -16.99       2.70        0.00      57.07       1.63       1.86       1.83       ----

> <Gold.Chemscore.Fitness>
13.2976

> <Gold.Chemscore.DG>
-16.9906

> <Gold.Chemscore.ZeroCoef>
-5.4800

> <Gold.Chemscore.Hbond>
2.6985

> <Gold.Chemscore.Metal>
0.0000

> <Gold.Chemscore.Lipo>
57.0741

> <Gold.Chemscore.Internal_Hbond>
0.0000

> <Gold.Chemscore.DEClash>
1.8631

> <Gold.Chemscore.DEInternal>
1.8299

> <Gold.Chemscore.Rot>
1.6328

> <Gold.Chemscore.Internal.Correction>
   9.000000E+99

> <Gold.Chemscore.Hbonds>
donor molecule, donor type, donor heavy atom, donor atom, acceptor molecule, acceptor atom, score
      L1  H     3    18       P1  7948  0.93
      L1  H    12    32       P1  7948  0.97
      P1  H  7989  7998       L1    11  0.25

> <Gold.Chemscore.Hbond.Weighted>
-9.0129

> <Gold.Chemscore.Metal.Weighted>
-0.0000

> <Gold.Chemscore.Lipo.Weighted>
-6.6777

> <Gold.Chemscore.Internal_Hbond.Weighted>
0.0000

> <Gold.Chemscore.DEClash.Weighted>
1.8631

> <Gold.Chemscore.DEInternal.Weighted>
1.8299

> <Gold.Chemscore.Rot.Weighted>
4.1799

> <Gold.Chemscore.Internal.Correction.Weighted>
   9.000000E+99

> <Gold.Protein.RotatedTorsions>
[ 6907 6896 6895 6894 ] final -167.65 input  -60.11 | X-H torsion
[ 7974 7965 7964 7962 ] final  -33.31 input  175.53 | X-H torsion
[ 8008 7997 7996 7995 ] final   88.91 input   59.86 | X-H torsion
[ 10167 10162 10161 10158 ] final  114.75 input  -65.29 | X-H torsion
[ 10718 10713 10712 10709 ] final -134.64 input   66.30 | X-H torsion
[ 10763 10752 10751 10750 ] final   55.69 input  -60.55 | X-H torsion
[ 11005 11000 10999 10996 ] final  -37.38 input  -57.11 | X-H torsion

> <Gold.Protein.ActiveResidues>
 VAL166  LYS551  ARG553  GLY616  TRP617  ASP618  TYR619  PRO620  LYS621  CYS622 
 ASP623  PHE694  ASN695  SER759  ASP760  ASP761  ALA762  ILE779  LEU786  VAL792 
 PHE793  MET794  SER795  GLU796  ALA797  LYS798  CYS799  TRP800  GLU811  SER814 

> <Gold.Protein.RotatedAtoms>
  151.4630  133.3588  159.2811 H   0  0  0  0  0  0  0  0  0  0  0  0  # atno 6907 bound_to 6896
  150.9013  134.8427  159.7372 H   0  0  0  0  0  0  0  0  0  0  0  0  # atno 6908 bound_to 6896
  152.4881  134.4550  159.9639 H   0  0  0  0  0  0  0  0  0  0  0  0  # atno 6909 bound_to 6896
  146.0921  140.5900  142.8859 H   0  0  0  0  0  0  0  0  0  0  0  0  # atno 7974 bound_to 7965
  155.9936  140.3366  155.6776 H   0  0  0  0  0  0  0  0  0  0  0  0  # atno 8008 bound_to 7997
  155.6387  140.0693  157.2643 H   0  0  0  0  0  0  0  0  0  0  0  0  # atno 8009 bound_to 7997
  154.4227  140.1746  156.1537 H   0  0  0  0  0  0  0  0  0  0  0  0  # atno 8010 bound_to 7997
  139.6366  144.7120  151.2322 H   0  0  0  0  0  0  0  0  0  0  0  0  # atno 10167 bound_to 10162
  156.2576  130.7191  151.1113 H   0  0  0  0  0  0  0  0  0  0  0  0  # atno 10718 bound_to 10713
  152.9820  135.5702  154.5107 H   0  0  0  0  0  0  0  0  0  0  0  0  # atno 10763 bound_to 10752
  154.4612  135.2781  155.1714 H   0  0  0  0  0  0  0  0  0  0  0  0  # atno 10764 bound_to 10752
  154.3301  135.6251  153.5601 H   0  0  0  0  0  0  0  0  0  0  0  0  # atno 10765 bound_to 10752
  140.9947  133.6986  156.1913 H   0  0  0  0  0  0  0  0  0  0  0  0  # atno 11005 bound_to 11000
  144.7368  140.4830  143.6898 LP  0  0  0  0  0  0  0  0  0  0  0  0  # atno 17320 bound_to 7965
  145.6019  139.1504  143.3124 LP  0  0  0  0  0  0  0  0  0  0  0  0  # atno 17321 bound_to 7965
  140.7468  143.6385  150.8357 LP  0  0  0  0  0  0  0  0  0  0  0  0  # atno 17342 bound_to 10162
  140.0017  143.5737  152.2873 LP  0  0  0  0  0  0  0  0  0  0  0  0  # atno 17343 bound_to 10162
  157.7238  131.0663  150.6019 LP  0  0  0  0  0  0  0  0  0  0  0  0  # atno 17370 bound_to 10713
  156.6104  130.4378  149.5861 LP  0  0  0  0  0  0  0  0  0  0  0  0  # atno 17371 bound_to 10713
  140.6984  134.4590  157.5587 LP  0  0  0  0  0  0  0  0  0  0  0  0  # atno 17394 bound_to 11000
  139.9009  134.8558  156.1901 LP  0  0  0  0  0  0  0  0  0  0  0  0  # atno 17395 bound_to 11000

$$$$
