AV-unprocessed.smi:1047|AV-procd|sdf|4593|dock5
  -GOLD-   22720 3 73D 1   1.00000     0.00000
 Structure written by MMmdl.
 55 57  0  0  0  0  0  0  0  0  1 V2000
  147.3859  131.0635  161.0858 C   0  0  0  0  0  0  0  0  0  0  0  0
  147.3301  132.3376  160.2311 C   0  0  0  0  0  0  0  0  0  0  0  0
  148.0677  133.4768  160.7743 N   0  0  0  0  0  0  0  0  0  0  0  0
  147.2817  134.1736  161.7861 C   0  0  0  0  0  0  0  0  0  0  0  0
  148.0354  135.3810  162.3677 C   0  0  0  0  0  0  0  0  0  0  0  0
  148.4058  136.2606  161.3115 O   0  0  0  0  0  0  0  0  0  0  0  0
  149.2296  135.6360  160.3293 C   0  0  2  0  0  0  0  0  0  0  0  0
  149.5666  136.6778  159.2531 C   0  0  0  0  0  0  0  0  0  0  0  0
  150.1265  136.0416  158.0654 N   0  0  0  0  0  0  0  0  0  0  0  0
  151.4171  136.5912  157.6632 C   0  0  0  0  0  0  0  0  0  0  0  0
  151.2736  137.5027  156.4332 C   0  0  2  0  0  0  0  0  0  0  0  0
  151.4805  136.7238  155.2700 O   0  0  0  0  0  0  0  0  0  0  0  0
  152.2971  138.6544  156.4535 C   0  0  0  0  0  0  0  0  0  0  0  0
  151.6901  139.9297  156.7916 N   0  0  0  0  0  0  0  0  0  0  0  0
  150.7290  140.5813  156.1086 C   0  0  0  0  0  0  0  0  0  0  0  0
  150.3107  141.7425  156.6039 N   0  0  0  0  0  0  0  0  0  0  0  0
  151.0919  141.8578  157.7411 C   0  0  0  0  0  0  0  0  0  0  0  0
  151.1375  142.8713  158.7232 C   0  0  0  0  0  0  0  0  0  0  0  0
  152.0288  142.7818  159.8163 C   0  0  0  0  0  0  0  0  0  0  0  0
  152.0424  143.8934  160.8510 C   0  0  0  0  0  0  0  0  0  0  0  0
  152.8947  141.6651  159.9377 C   0  0  0  0  0  0  0  0  0  0  0  0
  153.8650  141.5506  161.1001 C   0  0  0  0  0  0  0  0  0  0  0  0
  152.8595  140.6420  158.9670 C   0  0  0  0  0  0  0  0  0  0  0  0
  151.9673  140.7420  157.8851 C   0  0  0  0  0  0  0  0  0  0  0  0
  148.4648  134.4326  159.7420 C   0  0  0  0  0  0  0  0  0  0  0  0
  146.7319  130.2965  160.6705 H   0  0  0  0  0  0  0  0  0  0  0  0
  147.0576  131.2603  162.1068 H   0  0  0  0  0  0  0  0  0  0  0  0
  148.3902  130.6428  161.1278 H   0  0  0  0  0  0  0  0  0  0  0  0
  147.6801  132.1151  159.2220 H   0  0  0  0  0  0  0  0  0  0  0  0
  146.2800  132.6151  160.1290 H   0  0  0  0  0  0  0  0  0  0  0  0
  146.3390  134.5125  161.3534 H   0  0  0  0  0  0  0  0  0  0  0  0
  147.0248  133.4870  162.5935 H   0  0  0  0  0  0  0  0  0  0  0  0
  147.4036  135.9184  163.0749 H   0  0  0  0  0  0  0  0  0  0  0  0
  148.9243  135.0580  162.9119 H   0  0  0  0  0  0  0  0  0  0  0  0
  150.1506  135.2800  160.7956 H   0  0  0  0  0  0  0  0  0  0  0  0
  148.6618  137.2200  158.9762 H   0  0  0  0  0  0  0  0  0  0  0  0
  150.2616  137.4146  159.6584 H   0  0  0  0  0  0  0  0  0  0  0  0
  150.2172  135.0428  158.2254 H   0  0  0  0  0  0  0  0  0  0  0  0
  151.8265  137.1685  158.4931 H   0  0  0  0  0  0  0  0  0  0  0  0
  152.1327  135.7929  157.4604 H   0  0  0  0  0  0  0  0  0  0  0  0
  150.2678  137.9251  156.3989 H   0  0  0  0  0  0  0  0  0  0  0  0
  150.6474  136.5914  154.8446 H   0  0  0  0  0  0  0  0  0  0  0  0
  153.0809  138.4487  157.1835 H   0  0  0  0  0  0  0  0  0  0  0  0
  152.7903  138.7472  155.4848 H   0  0  0  0  0  0  0  0  0  0  0  0
  150.3098  140.1782  155.1982 H   0  0  0  0  0  0  0  0  0  0  0  0
  150.4786  143.7220  158.6294 H   0  0  0  0  0  0  0  0  0  0  0  0
  153.0210  144.3727  160.8833 H   0  0  0  0  0  0  0  0  0  0  0  0
  151.8171  143.4967  161.8413 H   0  0  0  0  0  0  0  0  0  0  0  0
  151.3016  144.6600  160.6222 H   0  0  0  0  0  0  0  0  0  0  0  0
  154.4710  140.6473  161.0246 H   0  0  0  0  0  0  0  0  0  0  0  0
  153.3254  141.5149  162.0467 H   0  0  0  0  0  0  0  0  0  0  0  0
  154.5411  142.4058  161.1185 H   0  0  0  0  0  0  0  0  0  0  0  0
  153.5105  139.7842  159.0484 H   0  0  0  0  0  0  0  0  0  0  0  0
  149.0998  133.9445  159.0032 H   0  0  0  0  0  0  0  0  0  0  0  0
  147.5815  134.7882  159.2089 H   0  0  0  0  0  0  0  0  0  0  0  0
  1  2  1  0  0  0  0
  1 26  1  0  0  0  0
  1 27  1  0  0  0  0
  1 28  1  0  0  0  0
  2  3  1  0  0  0  0
  2 29  1  0  0  0  0
  2 30  1  0  0  0  0
  3 25  1  0  0  0  0
  3  4  1  0  0  0  0
  4  5  1  0  0  0  0
  4 31  1  0  0  0  0
  4 32  1  0  0  0  0
  5  6  1  0  0  0  0
  5 33  1  0  0  0  0
  5 34  1  0  0  0  0
  6  7  1  0  0  0  0
  7  8  1  0  0  0  0
  7 25  1  0  0  0  0
  7 35  1  0  0  0  0
  8  9  1  0  0  0  0
  8 36  1  0  0  0  0
  8 37  1  0  0  0  0
  9 10  1  0  0  0  0
  9 38  1  0  0  0  0
 10 11  1  0  0  0  0
 10 39  1  0  0  0  0
 10 40  1  0  0  0  0
 11 12  1  0  0  0  0
 11 13  1  0  0  0  0
 11 41  1  0  0  0  0
 12 42  1  0  0  0  0
 13 14  1  0  0  0  0
 13 43  1  0  0  0  0
 13 44  1  0  0  0  0
 14 24  1  0  0  0  0
 14 15  1  0  0  0  0
 15 16  2  0  0  0  0
 15 45  1  0  0  0  0
 16 17  1  0  0  0  0
 17 24  2  0  0  0  0
 17 18  1  0  0  0  0
 18 19  2  0  0  0  0
 18 46  1  0  0  0  0
 19 20  1  0  0  0  0
 19 21  1  0  0  0  0
 20 47  1  0  0  0  0
 20 48  1  0  0  0  0
 20 49  1  0  0  0  0
 21 22  1  0  0  0  0
 21 23  2  0  0  0  0
 22 50  1  0  0  0  0
 22 51  1  0  0  0  0
 22 52  1  0  0  0  0
 23 24  1  0  0  0  0
 23 53  1  0  0  0  0
 25 54  1  0  0  0  0
 25 55  1  0  0  0  0
M  END
> <s_m_source_file>
AV-unprocessed.smi

> <i_m_source_file_index>
1047

> <i_lp_mmshare_version>
43012

> <i_f3d_flags>
0

> <s_epik_input>
W0NIM11bQ0gyXU4xW0NIMl1bQ0gyXU9bQ0BIXShbQ0gyXTEpW0NIMl1bTkhdW0NIMl1bQ0BIXShbT0hdKVtDSDJdbihbY0hdbjIpYyhjMjMpW2NIXWMoW0NIM10pYyhbY0hdMylbQ0gzXQ==

> <s_epik_cmdline>
J2VwaWtfcHl0aG9uJywgJy1waCcsICc3LjAnLCAnLXRuJywgJzgnLCAnLW1hJywgJzIwMCcsICctbWV0YWxfYmluZGluZycsICctaW1hZScsICc8aW5maWxlLm1hZT4nLCAnLW9tYWUnLCAnPG91dGZpbGUubWFlPic=

> <r_epik_Ionization_Penalty>
2.74124

> <r_epik_Ionization_Penalty_Charging>
0

> <r_epik_Ionization_Penalty_Neutral>
2.74124

> <r_epik_State_Penalty>
2.37482

> <r_epik_Charging_Adjusted_Penalty>
2.37482

> <i_epik_Tot_Q>
0

> <i_epik_Tot_abs_Q>
0

> <r_epik_Metal_State_Penalty>
2.25944

> <b_epik_Metal_Only>
0

> <s_lp_Force_Field>
OPLS_2005

> <r_lp_Energy>
33.9666

> <b_lp_Chiralities_Consistent>
1

> <s_lp_Variant>
AV-unprocessed.smi:1047-34

> <Gold.Version>
5.8.1

> <Gold.Id.Protein>
6NUR|6NUR_protein|mol2

> <Gold.PLP.Fitness>
52.6661

> <Gold.PLP.PLP>
-48.4281

> <Gold.PLP.part.hbond>
-3.0678

> <Gold.PLP.part.metal>
0.0000

> <Gold.PLP.part.buried>
-5.3945

> <Gold.PLP.part.nonpolar>
-39.6682

> <Gold.PLP.part.repulsive>
0.0949

> <Gold.PLP.ligand.clash>
0.0000

> <Gold.PLP.ligand.torsion>
2.0845

> <Gold.PLP.Chemscore.Hbond>
2.7680

> <Gold.PLP.Chemscore.CHOScore>
0.0000

> <Gold.PLP.Chemscore.Metal>
0.0000

> <Gold.Chemscore.Hbonds>
donor molecule, donor type, donor heavy atom, donor atom, acceptor molecule, acceptor atom, score
      P1  H  6931  6943       L1     6  0.67
      P1  H 10752 10764       L1    12  1.00

> <Gold.PLP.Chemscore.Internal.Correction>
0.1030

> <Gold.Rescore>
     Score         DG    S(hbond)    S(metal)    S(lipo)     H(rot)  DE(clash)    DE(int)     intcor
     18.15     -20.12       1.93        0.00     125.17       2.52       0.00       1.97       ----

> <Gold.Chemscore.Fitness>
18.1531

> <Gold.Chemscore.DG>
-20.1221

> <Gold.Chemscore.ZeroCoef>
-5.4800

> <Gold.Chemscore.Hbond>
1.9335

> <Gold.Chemscore.Metal>
0.0000

> <Gold.Chemscore.Lipo>
125.1704

> <Gold.Chemscore.Internal_Hbond>
0.0000

> <Gold.Chemscore.DEClash>
0.0000

> <Gold.Chemscore.DEInternal>
1.9690

> <Gold.Chemscore.Rot>
2.5237

> <Gold.Chemscore.Internal.Correction>
   9.000000E+99

> <Gold.Chemscore.Hbonds>
donor molecule, donor type, donor heavy atom, donor atom, acceptor molecule, acceptor atom, score
      P1  H  6931  6943       L1     6  0.56
      P1  H 10752 10764       L1    12  0.89

> <Gold.Chemscore.Hbond.Weighted>
-6.4578

> <Gold.Chemscore.Metal.Weighted>
-0.0000

> <Gold.Chemscore.Lipo.Weighted>
-14.6449

> <Gold.Chemscore.Internal_Hbond.Weighted>
0.0000

> <Gold.Chemscore.DEClash.Weighted>
0.0000

> <Gold.Chemscore.DEInternal.Weighted>
1.9690

> <Gold.Chemscore.Rot.Weighted>
6.4607

> <Gold.Chemscore.Internal.Correction.Weighted>
   9.000000E+99

> <Gold.Protein.RotatedTorsions>
[ 6907 6896 6895 6894 ] final  -18.68 input  -60.11 | X-H torsion
[ 7974 7965 7964 7962 ] final   85.16 input  175.53 | X-H torsion
[ 8008 7997 7996 7995 ] final -176.77 input   59.86 | X-H torsion
[ 10167 10162 10161 10158 ] final  167.19 input  -65.29 | X-H torsion
[ 10718 10713 10712 10709 ] final   79.20 input   66.30 | X-H torsion
[ 10763 10752 10751 10750 ] final  -58.26 input  -60.55 | X-H torsion
[ 11005 11000 10999 10996 ] final -123.25 input  -57.11 | X-H torsion

> <Gold.Protein.ActiveResidues>
 VAL166  LYS551  ARG553  GLY616  TRP617  ASP618  TYR619  PRO620  LYS621  CYS622 
 ASP623  PHE694  ASN695  SER759  ASP760  ASP761  ALA762  ILE779  LEU786  VAL792 
 PHE793  MET794  SER795  GLU796  ALA797  LYS798  CYS799  TRP800  GLU811  SER814 

> <Gold.Protein.RotatedAtoms>
  151.2745  135.0695  159.9146 H   0  0  0  0  0  0  0  0  0  0  0  0  # atno 6907 bound_to 6896
  152.5345  134.0096  159.7942 H   0  0  0  0  0  0  0  0  0  0  0  0  # atno 6908 bound_to 6896
  151.0339  133.5715  159.2689 H   0  0  0  0  0  0  0  0  0  0  0  0  # atno 6909 bound_to 6896
  145.5892  139.2335  143.2309 H   0  0  0  0  0  0  0  0  0  0  0  0  # atno 7974 bound_to 7965
  155.9989  140.1216  157.0567 H   0  0  0  0  0  0  0  0  0  0  0  0  # atno 8008 bound_to 7997
  154.4236  140.1111  156.5737 H   0  0  0  0  0  0  0  0  0  0  0  0  # atno 8009 bound_to 7997
  155.6240  140.3472  155.4663 H   0  0  0  0  0  0  0  0  0  0  0  0  # atno 8010 bound_to 7997
  139.4940  144.3948  151.9477 H   0  0  0  0  0  0  0  0  0  0  0  0  # atno 10167 bound_to 10162
  157.6769  130.9903  150.1898 H   0  0  0  0  0  0  0  0  0  0  0  0  # atno 10718 bound_to 10713
  154.2354  135.6353  153.5189 H   0  0  0  0  0  0  0  0  0  0  0  0  # atno 10763 bound_to 10752
  152.9940  135.5529  154.5968 H   0  0  0  0  0  0  0  0  0  0  0  0  # atno 10764 bound_to 10752
  154.5461  135.2898  155.1026 H   0  0  0  0  0  0  0  0  0  0  0  0  # atno 10765 bound_to 10752
  140.9933  134.0508  157.3628 H   0  0  0  0  0  0  0  0  0  0  0  0  # atno 11005 bound_to 11000
  146.1659  140.6718  142.9256 LP  0  0  0  0  0  0  0  0  0  0  0  0  # atno 17320 bound_to 7965
  144.7359  140.4806  143.6904 LP  0  0  0  0  0  0  0  0  0  0  0  0  # atno 17321 bound_to 7965
  140.3386  144.3231  150.5972 LP  0  0  0  0  0  0  0  0  0  0  0  0  # atno 17342 bound_to 10162
  140.5585  143.2195  151.7806 LP  0  0  0  0  0  0  0  0  0  0  0  0  # atno 17343 bound_to 10162
  156.2612  130.3711  149.8129 LP  0  0  0  0  0  0  0  0  0  0  0  0  # atno 17370 bound_to 10713
  156.5874  130.8491  151.3399 LP  0  0  0  0  0  0  0  0  0  0  0  0  # atno 17371 bound_to 10713
  139.9002  135.0161  156.7233 LP  0  0  0  0  0  0  0  0  0  0  0  0  # atno 17394 bound_to 11000
  140.7006  133.9310  155.8022 LP  0  0  0  0  0  0  0  0  0  0  0  0  # atno 17395 bound_to 11000

$$$$
