AV-unprocessed.smi:2491|AV-procd|sdf|9809|dock3
  -GOLD-   2272013443D 1   1.00000     0.00000
 Structure written by MMmdl.
 27 28  0  0  0  0  0  0  0  0  1 V2000
  148.6007  142.5383  157.2411 N   0  0  0  0  0  0  0  0  0  0  0  0
  149.0075  141.2665  157.2261 C   0  0  0  0  0  0  0  0  0  0  0  0
  148.5000  140.4101  157.9487 O   0  0  0  0  0  0  0  0  0  0  0  0
  150.1389  140.9044  156.2449 C   0  0  2  0  0  0  0  0  0  0  0  0
  149.5211  140.0485  155.1129 C   0  0  0  0  0  0  0  0  0  0  0  0
  150.5149  139.6505  154.1783 O   0  0  0  0  0  0  0  0  0  0  0  0
  151.5014  138.8362  154.7936 C   0  0  0  0  0  0  0  0  0  0  0  0
  152.2244  139.6575  155.8691 C   0  0  0  0  0  0  0  0  0  0  0  0
  151.2822  140.1975  156.8488 N   0  0  0  0  0  0  0  0  0  0  0  0
  151.8803  140.6729  158.0145 C   0  0  0  0  0  0  0  0  0  0  0  0
  151.6748  141.9544  158.3506 N   0  0  0  0  0  0  0  0  0  0  0  0
  152.2731  142.4030  159.4749 C   0  0  0  0  0  0  0  0  0  0  0  0
  153.0884  141.5652  160.2603 C   0  0  0  0  0  0  0  0  0  0  0  0
  153.8560  142.1327  161.6973 Cl  0  0  0  0  0  0  0  0  0  0  0  0
  153.2454  140.2398  159.8097 C   0  0  0  0  0  0  0  0  0  0  0  0
  152.6433  139.7999  158.6835 N   0  0  0  0  0  0  0  0  0  0  0  0
  147.8651  142.8204  157.8726 H   0  0  0  0  0  0  0  0  0  0  0  0
  149.0314  143.2138  156.6269 H   0  0  0  0  0  0  0  0  0  0  0  0
  150.5246  141.8261  155.8048 H   0  0  0  0  0  0  0  0  0  0  0  0
  149.0221  139.1630  155.5121 H   0  0  0  0  0  0  0  0  0  0  0  0
  148.7621  140.6196  154.5766 H   0  0  0  0  0  0  0  0  0  0  0  0
  151.0470  137.9405  155.2209 H   0  0  0  0  0  0  0  0  0  0  0  0
  152.2104  138.5035  154.0353 H   0  0  0  0  0  0  0  0  0  0  0  0
  152.9724  139.0278  156.3526 H   0  0  0  0  0  0  0  0  0  0  0  0
  152.7633  140.4852  155.4055 H   0  0  0  0  0  0  0  0  0  0  0  0
  152.0998  143.4339  159.7461 H   0  0  0  0  0  0  0  0  0  0  0  0
  153.8558  139.5313  160.3499 H   0  0  0  0  0  0  0  0  0  0  0  0
  1  2  1  0  0  0  0
  1 17  1  0  0  0  0
  1 18  1  0  0  0  0
  2  3  2  0  0  0  0
  2  4  1  0  0  0  0
  4  9  1  0  0  0  0
  4  5  1  0  0  0  0
  4 19  1  0  0  0  0
  5  6  1  0  0  0  0
  5 20  1  0  0  0  0
  5 21  1  0  0  0  0
  6  7  1  0  0  0  0
  7  8  1  0  0  0  0
  7 22  1  0  0  0  0
  7 23  1  0  0  0  0
  8  9  1  0  0  0  0
  8 24  1  0  0  0  0
  8 25  1  0  0  0  0
  9 10  1  0  0  0  0
 10 16  1  0  0  0  0
 10 11  2  0  0  0  0
 11 12  1  0  0  0  0
 12 13  2  0  0  0  0
 12 26  1  0  0  0  0
 13 14  1  0  0  0  0
 13 15  1  0  0  0  0
 15 16  2  0  0  0  0
 15 27  1  0  0  0  0
M  END
> <s_m_source_file>
AV-unprocessed.smi

> <i_m_source_file_index>
2491

> <i_lp_mmshare_version>
43012

> <i_f3d_flags>
0

> <s_epik_input>
W05IMl1DKD1PKVtDQEBIXTFbQ0gyXU9bQ0gyXVtDSDJdTjFjMm5bY0hdYyhDbClbY0hdbjI=

> <s_epik_cmdline>
J2VwaWtfcHl0aG9uJywgJy1waCcsICc3LjAnLCAnLXRuJywgJzgnLCAnLW1hJywgJzIwMCcsICctbWV0YWxfYmluZGluZycsICctaW1hZScsICc8aW5maWxlLm1hZT4nLCAnLW9tYWUnLCAnPG91dGZpbGUubWFlPic=

> <r_lp_tautomer_probability>
1

> <r_epik_Ionization_Penalty>
2.68452e-07

> <r_epik_Ionization_Penalty_Charging>
0

> <r_epik_Ionization_Penalty_Neutral>
2.68452e-07

> <r_epik_State_Penalty>
-0

> <r_epik_Charging_Adjusted_Penalty>
0

> <i_epik_Tot_Q>
0

> <i_epik_Tot_abs_Q>
0

> <r_epik_Metal_State_Penalty>
-0

> <b_epik_Metal_Only>
0

> <s_lp_Force_Field>
OPLS_2005

> <r_lp_Energy>
10.3646

> <b_lp_Chiralities_Consistent>
1

> <s_lp_Variant>
AV-unprocessed.smi:2491-1

> <Gold.Version>
5.8.1

> <Gold.Id.Protein>
6NUR|6NUR_protein|mol2

> <Gold.PLP.Fitness>
33.9907

> <Gold.PLP.PLP>
-28.5791

> <Gold.PLP.part.hbond>
-2.2856

> <Gold.PLP.part.metal>
0.0000

> <Gold.PLP.part.buried>
-3.8380

> <Gold.PLP.part.nonpolar>
-22.5742

> <Gold.PLP.part.repulsive>
0.2042

> <Gold.PLP.ligand.clash>
0.0000

> <Gold.PLP.ligand.torsion>
0.4274

> <Gold.PLP.Chemscore.Hbond>
1.9440

> <Gold.PLP.Chemscore.CHOScore>
0.0000

> <Gold.PLP.Chemscore.Metal>
0.0000

> <Gold.Chemscore.Hbonds>
donor molecule, donor type, donor heavy atom, donor atom, acceptor molecule, acceptor atom, score
      L1  H     1    18       P1  8028  0.96
      P1  H  7989  7998       L1     6  0.85

> <Gold.PLP.Chemscore.Internal.Correction>
0.4344

> <Gold.Rescore>
     Score         DG    S(hbond)    S(metal)    S(lipo)     H(rot)  DE(clash)    DE(int)     intcor
     13.05     -13.66       1.38        0.00      63.04       1.49       0.00       0.61       ----

> <Gold.Chemscore.Fitness>
13.0525

> <Gold.Chemscore.DG>
-13.6600

> <Gold.Chemscore.ZeroCoef>
-5.4800

> <Gold.Chemscore.Hbond>
1.3809

> <Gold.Chemscore.Metal>
0.0000

> <Gold.Chemscore.Lipo>
63.0386

> <Gold.Chemscore.Internal_Hbond>
0.0000

> <Gold.Chemscore.DEClash>
0.0000

> <Gold.Chemscore.DEInternal>
0.6074

> <Gold.Chemscore.Rot>
1.4874

> <Gold.Chemscore.Internal.Correction>
   9.000000E+99

> <Gold.Chemscore.Hbonds>
donor molecule, donor type, donor heavy atom, donor atom, acceptor molecule, acceptor atom, score
      L1  H     1    18       P1  8028  0.89
      P1  H  7989  7998       L1     6  0.14

> <Gold.Chemscore.Hbond.Weighted>
-4.6122

> <Gold.Chemscore.Metal.Weighted>
-0.0000

> <Gold.Chemscore.Lipo.Weighted>
-7.3755

> <Gold.Chemscore.Internal_Hbond.Weighted>
0.0000

> <Gold.Chemscore.DEClash.Weighted>
0.0000

> <Gold.Chemscore.DEInternal.Weighted>
0.6074

> <Gold.Chemscore.Rot.Weighted>
3.8077

> <Gold.Chemscore.Internal.Correction.Weighted>
   9.000000E+99

> <Gold.Protein.RotatedTorsions>
[ 6907 6896 6895 6894 ] final -113.40 input  -60.11 | X-H torsion
[ 7974 7965 7964 7962 ] final  107.77 input  175.53 | X-H torsion
[ 8008 7997 7996 7995 ] final   18.71 input   59.86 | X-H torsion
[ 10167 10162 10161 10158 ] final  108.39 input  -65.29 | X-H torsion
[ 10718 10713 10712 10709 ] final  175.06 input   66.30 | X-H torsion
[ 10763 10752 10751 10750 ] final  -27.41 input  -60.55 | X-H torsion
[ 11005 11000 10999 10996 ] final  -45.50 input  -57.11 | X-H torsion

> <Gold.Protein.ActiveResidues>
 VAL166  LYS551  ARG553  GLY616  TRP617  ASP618  TYR619  PRO620  LYS621  CYS622 
 ASP623  PHE694  ASN695  SER759  ASP760  ASP761  ALA762  ILE779  LEU786  VAL792 
 PHE793  MET794  SER795  GLU796  ALA797  LYS798  CYS799  TRP800  GLU811  SER814 

> <Gold.Protein.RotatedAtoms>
  150.7827  133.8950  159.3324 H   0  0  0  0  0  0  0  0  0  0  0  0  # atno 6907 bound_to 6896
  151.6808  135.0960  160.0225 H   0  0  0  0  0  0  0  0  0  0  0  0  # atno 6908 bound_to 6896
  152.3882  133.6603  159.6251 H   0  0  0  0  0  0  0  0  0  0  0  0  # atno 6909 bound_to 6896
  145.2893  139.2606  143.3873 H   0  0  0  0  0  0  0  0  0  0  0  0  # atno 7974 bound_to 7965
  154.9100  140.3012  155.5271 H   0  0  0  0  0  0  0  0  0  0  0  0  # atno 8008 bound_to 7997
  156.3015  140.2391  156.4073 H   0  0  0  0  0  0  0  0  0  0  0  0  # atno 8009 bound_to 7997
  154.8435  140.0412  157.1546 H   0  0  0  0  0  0  0  0  0  0  0  0  # atno 8010 bound_to 7997
  139.6850  144.7114  151.1448 H   0  0  0  0  0  0  0  0  0  0  0  0  # atno 10167 bound_to 10162
  156.9404  130.9999  151.2969 H   0  0  0  0  0  0  0  0  0  0  0  0  # atno 10718 bound_to 10713
  153.7316  135.6938  153.4988 H   0  0  0  0  0  0  0  0  0  0  0  0  # atno 10763 bound_to 10752
  153.2132  135.4395  155.0402 H   0  0  0  0  0  0  0  0  0  0  0  0  # atno 10764 bound_to 10752
  154.8251  135.3442  154.6846 H   0  0  0  0  0  0  0  0  0  0  0  0  # atno 10765 bound_to 10752
  141.0519  133.6739  156.3022 H   0  0  0  0  0  0  0  0  0  0  0  0  # atno 11005 bound_to 11000
  146.3190  140.3380  142.8645 LP  0  0  0  0  0  0  0  0  0  0  0  0  # atno 17320 bound_to 7965
  144.9187  140.7842  143.5762 LP  0  0  0  0  0  0  0  0  0  0  0  0  # atno 17321 bound_to 7965
  140.7665  143.5643  150.9065 LP  0  0  0  0  0  0  0  0  0  0  0  0  # atno 17342 bound_to 10162
  139.9317  143.6485  152.3075 LP  0  0  0  0  0  0  0  0  0  0  0  0  # atno 17343 bound_to 10162
  157.5788  130.8362  149.8494 LP  0  0  0  0  0  0  0  0  0  0  0  0  # atno 17370 bound_to 10713
  156.0407  130.3740  150.1443 LP  0  0  0  0  0  0  0  0  0  0  0  0  # atno 17371 bound_to 10713
  140.6038  134.5528  157.5522 LP  0  0  0  0  0  0  0  0  0  0  0  0  # atno 17394 bound_to 11000
  139.9358  134.7878  156.0808 LP  0  0  0  0  0  0  0  0  0  0  0  0  # atno 17395 bound_to 11000

$$$$
