AV-unprocessed.smi:2049|AV-procd|sdf|8323|dock7
  -GOLD-   2272010593D 1   1.00000     0.00000
 Structure written by MMmdl.
 50 52  0  0  0  0  0  0  0  0  1 V2000
  151.6631  136.8681  156.1715 O   0  0  0  0  0  0  0  0  0  0  0  0
  151.1035  136.9095  155.0757 C   0  0  0  0  0  0  0  0  0  0  0  0
  151.2428  138.1473  154.1814 C   0  0  0  0  0  0  0  0  0  0  0  0
  150.9600  139.3937  154.9100 N   0  0  0  0  0  0  0  0  0  0  0  0
  149.8458  140.1477  154.5049 C   0  0  0  0  0  0  0  0  0  0  0  0
  149.5248  141.2901  155.1287 C   0  0  0  0  0  0  0  0  0  0  0  0
  150.3954  141.6943  156.2403 C   0  0  0  0  0  0  0  0  0  0  0  0
  151.4097  141.0076  156.6146 N   0  0  0  0  0  0  0  0  0  0  0  0
  151.7433  139.8068  155.9600 C   0  0  0  0  0  0  0  0  0  0  0  0
  152.7145  139.1389  156.3175 O   0  0  0  0  0  0  0  0  0  0  0  0
  150.3515  135.9126  154.5876 N   0  0  0  0  0  0  0  0  0  0  0  0
  150.1530  134.6019  155.2051 C   0  0  0  0  0  0  0  0  0  0  0  0
  148.6494  134.3212  155.5464 C   0  0  0  0  0  0  0  0  0  0  0  0
  148.1467  135.3600  156.5040 N   0  0  0  0  0  0  0  0  0  0  0  0
  148.9135  135.4678  157.7538 C   0  0  0  0  0  0  0  0  0  0  0  0
  148.4484  136.6446  158.6269 C   0  0  0  0  0  0  0  0  0  0  0  0
  147.0645  136.5041  158.9168 O   0  0  0  0  0  0  0  0  0  0  0  0
  146.2723  136.4641  157.7375 C   0  0  0  0  0  0  0  0  0  0  0  0
  146.7178  135.2921  156.8457 C   0  0  0  0  0  0  0  0  0  0  0  0
  147.8337  134.3477  154.2085 C   0  0  0  0  0  0  0  0  0  0  0  0
  148.1986  133.2392  153.2028 C   0  0  0  0  0  0  0  0  0  0  0  0
  148.0661  131.8527  153.8442 C   0  0  0  0  0  0  0  0  0  0  0  0
  148.8941  131.7569  155.1319 C   0  0  0  0  0  0  0  0  0  0  0  0
  148.5336  132.8768  156.1282 C   0  0  0  0  0  0  0  0  0  0  0  0
  152.2447  138.1905  153.7495 H   0  0  0  0  0  0  0  0  0  0  0  0
  150.5675  138.0309  153.3328 H   0  0  0  0  0  0  0  0  0  0  0  0
  149.2812  139.7413  153.6784 H   0  0  0  0  0  0  0  0  0  0  0  0
  148.6826  141.9149  154.8707 H   0  0  0  0  0  0  0  0  0  0  0  0
  150.1193  142.6298  156.7334 H   0  0  0  0  0  0  0  0  0  0  0  0
  149.9340  136.0453  153.6780 H   0  0  0  0  0  0  0  0  0  0  0  0
  150.5853  133.8270  154.5752 H   0  0  0  0  0  0  0  0  0  0  0  0
  150.7678  134.5652  156.1034 H   0  0  0  0  0  0  0  0  0  0  0  0
  148.8224  134.5479  158.3314 H   0  0  0  0  0  0  0  0  0  0  0  0
  149.9733  135.6135  157.5571 H   0  0  0  0  0  0  0  0  0  0  0  0
  149.0071  136.6661  159.5625 H   0  0  0  0  0  0  0  0  0  0  0  0
  148.6302  137.5951  158.1229 H   0  0  0  0  0  0  0  0  0  0  0  0
  145.2252  136.3488  158.0178 H   0  0  0  0  0  0  0  0  0  0  0  0
  146.3572  137.4106  157.2010 H   0  0  0  0  0  0  0  0  0  0  0  0
  146.0946  135.3311  155.9564 H   0  0  0  0  0  0  0  0  0  0  0  0
  146.4916  134.3569  157.3572 H   0  0  0  0  0  0  0  0  0  0  0  0
  146.7739  134.2002  154.4025 H   0  0  0  0  0  0  0  0  0  0  0  0
  147.9102  135.3230  153.7274 H   0  0  0  0  0  0  0  0  0  0  0  0
  147.5356  133.3027  152.3395 H   0  0  0  0  0  0  0  0  0  0  0  0
  149.2039  133.3773  152.8081 H   0  0  0  0  0  0  0  0  0  0  0  0
  147.0175  131.6551  154.0703 H   0  0  0  0  0  0  0  0  0  0  0  0
  148.3805  131.0828  153.1388 H   0  0  0  0  0  0  0  0  0  0  0  0
  148.7250  130.7866  155.5999 H   0  0  0  0  0  0  0  0  0  0  0  0
  149.9567  131.7886  154.8921 H   0  0  0  0  0  0  0  0  0  0  0  0
  149.1675  132.7674  157.0081 H   0  0  0  0  0  0  0  0  0  0  0  0
  147.5158  132.6906  156.4691 H   0  0  0  0  0  0  0  0  0  0  0  0
  1  2  2  0  0  0  0
  2  3  1  0  0  0  0
  2 11  1  0  0  0  0
  3  4  1  0  0  0  0
  3 25  1  0  0  0  0
  3 26  1  0  0  0  0
  4  9  1  0  0  0  0
  4  5  1  0  0  0  0
  5  6  2  0  0  0  0
  5 27  1  0  0  0  0
  6  7  1  0  0  0  0
  6 28  1  0  0  0  0
  7  8  2  0  0  0  0
  7 29  1  0  0  0  0
  8  9  1  0  0  0  0
  9 10  2  0  0  0  0
 11 12  1  0  0  0  0
 11 30  1  0  0  0  0
 12 13  1  0  0  0  0
 12 31  1  0  0  0  0
 12 32  1  0  0  0  0
 13 24  1  0  0  0  0
 13 14  1  0  0  0  0
 13 20  1  0  0  0  0
 14 19  1  0  0  0  0
 14 15  1  0  0  0  0
 15 16  1  0  0  0  0
 15 33  1  0  0  0  0
 15 34  1  0  0  0  0
 16 17  1  0  0  0  0
 16 35  1  0  0  0  0
 16 36  1  0  0  0  0
 17 18  1  0  0  0  0
 18 19  1  0  0  0  0
 18 37  1  0  0  0  0
 18 38  1  0  0  0  0
 19 39  1  0  0  0  0
 19 40  1  0  0  0  0
 20 21  1  0  0  0  0
 20 41  1  0  0  0  0
 20 42  1  0  0  0  0
 21 22  1  0  0  0  0
 21 43  1  0  0  0  0
 21 44  1  0  0  0  0
 22 23  1  0  0  0  0
 22 45  1  0  0  0  0
 22 46  1  0  0  0  0
 23 24  1  0  0  0  0
 23 47  1  0  0  0  0
 23 48  1  0  0  0  0
 24 49  1  0  0  0  0
 24 50  1  0  0  0  0
M  END
> <s_m_source_file>
AV-unprocessed.smi

> <i_m_source_file_index>
2049

> <i_lp_mmshare_version>
43012

> <i_f3d_flags>
0

> <s_epik_input>
Tz1jMW5bY0hdW2NIXVtjSF1uMVtDSDJdQyg9TylbTkhdW0NIMl1DMihbQ0gyXVtDSDJdW0NIMl1bQ0gyXVtDSDJdMilOM1tDSDJdW0NIMl1PW0NIMl1bQ0gyXTM=

> <s_epik_cmdline>
J2VwaWtfcHl0aG9uJywgJy1waCcsICc3LjAnLCAnLXRuJywgJzgnLCAnLW1hJywgJzIwMCcsICctbWV0YWxfYmluZGluZycsICctaW1hZScsICc8aW5maWxlLm1hZT4nLCAnLW9tYWUnLCAnPG91dGZpbGUubWFlPic=

> <r_lp_tautomer_probability>
1

> <r_epik_Ionization_Penalty>
0.421133

> <r_epik_Ionization_Penalty_Charging>
1.67008e-08

> <r_epik_Ionization_Penalty_Neutral>
0.421133

> <r_epik_State_Penalty>
0.421833

> <r_epik_Charging_Adjusted_Penalty>
0.421833

> <i_epik_Tot_Q>
0

> <i_epik_Tot_abs_Q>
0

> <r_epik_Metal_State_Penalty>
0.421832

> <b_epik_Metal_Only>
0

> <s_lp_Force_Field>
OPLS_2005

> <r_lp_Energy>
55.5371

> <b_lp_Chiralities_Consistent>
1

> <s_lp_Variant>
AV-unprocessed.smi:2049-2

> <Gold.Version>
5.8.1

> <Gold.Id.Protein>
6NUR|6NUR_protein|mol2

> <Gold.PLP.Fitness>
45.3039

> <Gold.PLP.PLP>
-35.1851

> <Gold.PLP.part.hbond>
-3.6518

> <Gold.PLP.part.metal>
0.0000

> <Gold.PLP.part.buried>
-0.7015

> <Gold.PLP.part.nonpolar>
-30.7576

> <Gold.PLP.part.repulsive>
0.1447

> <Gold.PLP.ligand.clash>
0.0000

> <Gold.PLP.ligand.torsion>
0.1373

> <Gold.PLP.Chemscore.Hbond>
1.6000

> <Gold.PLP.Chemscore.CHOScore>
1.8372

> <Gold.PLP.Chemscore.Metal>
0.0000

> <Gold.Chemscore.Hbonds>
donor molecule, donor type, donor heavy atom, donor atom, acceptor molecule, acceptor atom, score
      L1  H    11    30       P1  7948  0.75
      P1  H  7997  8010       L1    10  1.00
      L1  C     5    27       P1  7957  0.93
      L1  C     7    29       P1  8028  0.67

> <Gold.PLP.Chemscore.Internal.Correction>
0.0820

> <Gold.Rescore>
     Score         DG    S(hbond)    S(metal)    S(lipo)     H(rot)  DE(clash)    DE(int)     intcor
     11.33     -14.23       1.80        0.00      66.15       1.95       0.02       2.89       ----

> <Gold.Chemscore.Fitness>
11.3252

> <Gold.Chemscore.DG>
-14.2342

> <Gold.Chemscore.ZeroCoef>
-5.4800

> <Gold.Chemscore.Hbond>
1.8008

> <Gold.Chemscore.Metal>
0.0000

> <Gold.Chemscore.Lipo>
66.1508

> <Gold.Chemscore.Internal_Hbond>
0.0000

> <Gold.Chemscore.DEClash>
0.0208

> <Gold.Chemscore.DEInternal>
2.8882

> <Gold.Chemscore.Rot>
1.9531

> <Gold.Chemscore.Internal.Correction>
   9.000000E+99

> <Gold.Chemscore.Hbonds>
donor molecule, donor type, donor heavy atom, donor atom, acceptor molecule, acceptor atom, score
      L1  H    11    30       P1  7948  0.09
      P1  H  7997  8010       L1    10  0.88

> <Gold.Chemscore.Hbond.Weighted>
-6.0145

> <Gold.Chemscore.Metal.Weighted>
-0.0000

> <Gold.Chemscore.Lipo.Weighted>
-7.7396

> <Gold.Chemscore.Internal_Hbond.Weighted>
0.0000

> <Gold.Chemscore.DEClash.Weighted>
0.0208

> <Gold.Chemscore.DEInternal.Weighted>
2.8882

> <Gold.Chemscore.Rot.Weighted>
5.0000

> <Gold.Chemscore.Internal.Correction.Weighted>
   9.000000E+99

> <Gold.Protein.RotatedTorsions>
[ 6907 6896 6895 6894 ] final -106.21 input  -60.11 | X-H torsion
[ 7974 7965 7964 7962 ] final -165.17 input  175.53 | X-H torsion
[ 8008 7997 7996 7995 ] final   75.83 input   59.86 | X-H torsion
[ 10167 10162 10161 10158 ] final  130.99 input  -65.29 | X-H torsion
[ 10718 10713 10712 10709 ] final  102.77 input   66.30 | X-H torsion
[ 10763 10752 10751 10750 ] final -112.88 input  -60.55 | X-H torsion
[ 11005 11000 10999 10996 ] final   41.87 input  -57.11 | X-H torsion

> <Gold.Protein.ActiveResidues>
 VAL166  LYS551  ARG553  GLY616  TRP617  ASP618  TYR619  PRO620  LYS621  CYS622 
 ASP623  PHE694  ASN695  SER759  ASP760  ASP761  ALA762  ILE779  LEU786  VAL792 
 PHE793  MET794  SER795  GLU796  ALA797  LYS798  CYS799  TRP800  GLU811  SER814 

> <Gold.Protein.RotatedAtoms>
  150.7377  134.0010  159.3637 H   0  0  0  0  0  0  0  0  0  0  0  0  # atno 6907 bound_to 6896
  151.7964  135.0719  160.0403 H   0  0  0  0  0  0  0  0  0  0  0  0  # atno 6908 bound_to 6896
  152.3172  133.5778  159.5756 H   0  0  0  0  0  0  0  0  0  0  0  0  # atno 6909 bound_to 6896
  144.7277  140.2853  143.6229 H   0  0  0  0  0  0  0  0  0  0  0  0  # atno 7974 bound_to 7965
  155.8186  140.3470  155.5500 H   0  0  0  0  0  0  0  0  0  0  0  0  # atno 8008 bound_to 7997
  155.8366  140.0935  157.1780 H   0  0  0  0  0  0  0  0  0  0  0  0  # atno 8009 bound_to 7997
  154.4004  140.1402  156.3665 H   0  0  0  0  0  0  0  0  0  0  0  0  # atno 8010 bound_to 7997
  139.5404  144.6725  151.4643 H   0  0  0  0  0  0  0  0  0  0  0  0  # atno 10167 bound_to 10162
  157.6792  131.0762  150.5455 H   0  0  0  0  0  0  0  0  0  0  0  0  # atno 10718 bound_to 10713
  154.8370  135.4475  154.1262 H   0  0  0  0  0  0  0  0  0  0  0  0  # atno 10763 bound_to 10752
  153.2484  135.6924  153.7712 H   0  0  0  0  0  0  0  0  0  0  0  0  # atno 10764 bound_to 10752
  153.7033  135.3368  155.3205 H   0  0  0  0  0  0  0  0  0  0  0  0  # atno 10765 bound_to 10752
  140.1793  134.4123  155.8209 H   0  0  0  0  0  0  0  0  0  0  0  0  # atno 11005 bound_to 11000
  145.7909  139.1926  143.2103 LP  0  0  0  0  0  0  0  0  0  0  0  0  # atno 17320 bound_to 7965
  146.0757  140.7820  142.9666 LP  0  0  0  0  0  0  0  0  0  0  0  0  # atno 17321 bound_to 7965
  140.6631  143.8455  150.6911 LP  0  0  0  0  0  0  0  0  0  0  0  0  # atno 17342 bound_to 10162
  140.1856  143.4078  152.1901 LP  0  0  0  0  0  0  0  0  0  0  0  0  # atno 17343 bound_to 10162
  156.5761  130.4292  149.5998 LP  0  0  0  0  0  0  0  0  0  0  0  0  # atno 17370 bound_to 10713
  156.2700  130.7011  151.1806 LP  0  0  0  0  0  0  0  0  0  0  0  0  # atno 17371 bound_to 10713
  141.2222  133.6993  156.7903 LP  0  0  0  0  0  0  0  0  0  0  0  0  # atno 17394 bound_to 11000
  140.2286  134.8703  157.3452 LP  0  0  0  0  0  0  0  0  0  0  0  0  # atno 17395 bound_to 11000

$$$$
