AV-unprocessed.smi:2039|AV-procd|sdf|8283|dock4
  -GOLD-   2272010553D 1   1.00000     0.00000
 Structure written by MMmdl.
 33 34  0  0  0  0  0  0  0  0  1 V2000
  152.2610  131.9271  157.4044 C   0  0  0  0  0  0  0  0  0  0  0  0
  151.3971  132.7554  156.5157 C   0  0  0  0  0  0  0  0  0  0  0  0
  151.3497  134.0912  156.5890 N   0  0  0  0  0  0  0  0  0  0  0  0
  150.4747  134.6383  155.6610 N   0  0  0  0  0  0  0  0  0  0  0  0
  149.8863  133.6954  154.9122 C   0  0  0  0  0  0  0  0  0  0  0  0
  148.9446  133.9751  153.8867 N   0  0  0  0  0  0  0  0  0  0  0  0
  147.7873  133.3431  153.6228 C   0  0  0  0  0  0  0  0  0  0  0  0
  147.3367  132.3880  154.2562 O   0  0  0  0  0  0  0  0  0  0  0  0
  147.1665  133.8893  152.5670 N   0  0  0  0  0  0  0  0  0  0  0  0
  145.8907  133.4425  152.0151 C   0  0  2  0  0  0  0  0  0  0  0  0
  146.0498  132.0293  151.4259 C   0  0  0  0  0  0  0  0  0  0  0  0
  144.7386  131.5316  150.7926 C   0  0  0  0  0  0  0  0  0  0  0  0
  144.1922  132.5114  149.7372 C   0  0  2  0  0  0  0  0  0  0  0  0
  145.0239  132.5042  148.5937 O   0  0  0  0  0  0  0  0  0  0  0  0
  144.0758  133.9416  150.2979 C   0  0  0  0  0  0  0  0  0  0  0  0
  145.3873  134.4272  150.9403 C   0  0  0  0  0  0  0  0  0  0  0  0
  150.3590  132.0461  155.2850 S   0  0  0  0  0  0  0  0  0  0  0  0
  152.7795  132.5533  158.1312 H   0  0  0  0  0  0  0  0  0  0  0  0
  153.0031  131.3940  156.8100 H   0  0  0  0  0  0  0  0  0  0  0  0
  151.6530  131.1994  157.9420 H   0  0  0  0  0  0  0  0  0  0  0  0
  149.1812  134.7474  153.2815 H   0  0  0  0  0  0  0  0  0  0  0  0
  147.6085  134.6722  152.1078 H   0  0  0  0  0  0  0  0  0  0  0  0
  145.1547  133.3916  152.8201 H   0  0  0  0  0  0  0  0  0  0  0  0
  146.8402  132.0279  150.6739 H   0  0  0  0  0  0  0  0  0  0  0  0
  146.3653  131.3334  152.2040 H   0  0  0  0  0  0  0  0  0  0  0  0
  144.8851  130.5444  150.3525 H   0  0  0  0  0  0  0  0  0  0  0  0
  143.9934  131.4052  151.5791 H   0  0  0  0  0  0  0  0  0  0  0  0
  143.2067  132.1737  149.4146 H   0  0  0  0  0  0  0  0  0  0  0  0
  145.4167  133.3589  148.5026 H   0  0  0  0  0  0  0  0  0  0  0  0
  143.7642  134.6322  149.5135 H   0  0  0  0  0  0  0  0  0  0  0  0
  143.2870  133.9636  151.0509 H   0  0  0  0  0  0  0  0  0  0  0  0
  145.2313  135.4141  151.3778 H   0  0  0  0  0  0  0  0  0  0  0  0
  146.1477  134.5513  150.1679 H   0  0  0  0  0  0  0  0  0  0  0  0
  1  2  1  0  0  0  0
  1 18  1  0  0  0  0
  1 19  1  0  0  0  0
  1 20  1  0  0  0  0
  2 17  1  0  0  0  0
  2  3  2  0  0  0  0
  3  4  1  0  0  0  0
  4  5  2  0  0  0  0
  5  6  1  0  0  0  0
  5 17  1  0  0  0  0
  6  7  1  0  0  0  0
  6 21  1  0  0  0  0
  7  8  2  0  0  0  0
  7  9  1  0  0  0  0
  9 10  1  0  0  0  0
  9 22  1  0  0  0  0
 10 16  1  0  0  0  0
 10 11  1  0  0  0  0
 10 23  1  0  0  0  0
 11 12  1  0  0  0  0
 11 24  1  0  0  0  0
 11 25  1  0  0  0  0
 12 13  1  0  0  0  0
 12 26  1  0  0  0  0
 12 27  1  0  0  0  0
 13 14  1  0  0  0  0
 13 15  1  0  0  0  0
 13 28  1  0  0  0  0
 14 29  1  0  0  0  0
 15 16  1  0  0  0  0
 15 30  1  0  0  0  0
 15 31  1  0  0  0  0
 16 32  1  0  0  0  0
 16 33  1  0  0  0  0
M  END
> <s_m_source_file>
AV-unprocessed.smi

> <i_m_source_file_index>
2039

> <i_lp_mmshare_version>
43012

> <i_f3d_flags>
0

> <s_epik_input>
W0NIM11jMW5uYyhzMSlbTkhdQyg9TylbTkhdW0NAQEhdMltDSDJdW0NIMl1bQ0BASF0oW09IXSlbQ0gyXVtDSDJdMg==

> <s_epik_cmdline>
J2VwaWtfcHl0aG9uJywgJy1waCcsICc3LjAnLCAnLXRuJywgJzgnLCAnLW1hJywgJzIwMCcsICctbWV0YWxfYmluZGluZycsICctaW1hZScsICc8aW5maWxlLm1hZT4nLCAnLW9tYWUnLCAnPG91dGZpbGUubWFlPic=

> <r_lp_tautomer_probability>
1

> <r_epik_Ionization_Penalty>
0.000385244

> <r_epik_Ionization_Penalty_Charging>
0

> <r_epik_Ionization_Penalty_Neutral>
0.000385244

> <r_epik_State_Penalty>
-0

> <r_epik_Charging_Adjusted_Penalty>
0

> <i_epik_Tot_Q>
0

> <i_epik_Tot_abs_Q>
0

> <r_epik_Metal_State_Penalty>
0.189642

> <b_epik_Metal_Only>
0

> <s_lp_Force_Field>
OPLS_2005

> <r_lp_Energy>
9.23932

> <b_lp_Chiralities_Consistent>
1

> <s_lp_Variant>
AV-unprocessed.smi:2039-2

> <Gold.Version>
5.8.1

> <Gold.Id.Protein>
6NUR|6NUR_protein|mol2

> <Gold.PLP.Fitness>
35.9923

> <Gold.PLP.PLP>
-28.9986

> <Gold.PLP.part.hbond>
-4.0000

> <Gold.PLP.part.metal>
0.0000

> <Gold.PLP.part.buried>
-4.0947

> <Gold.PLP.part.nonpolar>
-21.5582

> <Gold.PLP.part.repulsive>
0.1146

> <Gold.PLP.ligand.clash>
0.0000

> <Gold.PLP.ligand.torsion>
0.4046

> <Gold.PLP.Chemscore.Hbond>
2.6000

> <Gold.PLP.Chemscore.CHOScore>
0.0000

> <Gold.PLP.Chemscore.Metal>
0.0000

> <Gold.Chemscore.Hbonds>
donor molecule, donor type, donor heavy atom, donor atom, acceptor molecule, acceptor atom, score
      L1  H     6    21       P1  7948  0.60
      L1  H     9    22       P1  7948  1.00
      L1  H    14    29       P1  7921  0.90

> <Gold.PLP.Chemscore.Internal.Correction>
0.0030

> <Gold.Rescore>
     Score         DG    S(hbond)    S(metal)    S(lipo)     H(rot)  DE(clash)    DE(int)     intcor
     13.24     -13.63       1.57        0.00      57.80       1.50       0.08       0.32       ----

> <Gold.Chemscore.Fitness>
13.2366

> <Gold.Chemscore.DG>
-13.6343

> <Gold.Chemscore.ZeroCoef>
-5.4800

> <Gold.Chemscore.Hbond>
1.5665

> <Gold.Chemscore.Metal>
0.0000

> <Gold.Chemscore.Lipo>
57.8029

> <Gold.Chemscore.Internal_Hbond>
0.0000

> <Gold.Chemscore.DEClash>
0.0759

> <Gold.Chemscore.DEInternal>
0.3217

> <Gold.Chemscore.Rot>
1.5004

> <Gold.Chemscore.Internal.Correction>
   9.000000E+99

> <Gold.Chemscore.Hbonds>
donor molecule, donor type, donor heavy atom, donor atom, acceptor molecule, acceptor atom, score
      L1  H     6    21       P1  7948  0.04
      L1  H     9    22       P1  7948  0.65
      L1  H    14    29       P1  7921  0.18

> <Gold.Chemscore.Hbond.Weighted>
-5.2322

> <Gold.Chemscore.Metal.Weighted>
-0.0000

> <Gold.Chemscore.Lipo.Weighted>
-6.7629

> <Gold.Chemscore.Internal_Hbond.Weighted>
0.0000

> <Gold.Chemscore.DEClash.Weighted>
0.0759

> <Gold.Chemscore.DEInternal.Weighted>
0.3217

> <Gold.Chemscore.Rot.Weighted>
3.8409

> <Gold.Chemscore.Internal.Correction.Weighted>
   9.000000E+99

> <Gold.Protein.RotatedTorsions>
[ 6907 6896 6895 6894 ] final  117.41 input  -60.11 | X-H torsion
[ 7974 7965 7964 7962 ] final   54.53 input  175.53 | X-H torsion
[ 8008 7997 7996 7995 ] final   96.71 input   59.86 | X-H torsion
[ 10167 10162 10161 10158 ] final -124.48 input  -65.29 | X-H torsion
[ 10718 10713 10712 10709 ] final  100.74 input   66.30 | X-H torsion
[ 10763 10752 10751 10750 ] final  164.13 input  -60.55 | X-H torsion
[ 11005 11000 10999 10996 ] final  -16.68 input  -57.11 | X-H torsion

> <Gold.Protein.ActiveResidues>
 VAL166  LYS551  ARG553  GLY616  TRP617  ASP618  TYR619  PRO620  LYS621  CYS622 
 ASP623  PHE694  ASN695  SER759  ASP760  ASP761  ALA762  ILE779  LEU786  VAL792 
 PHE793  MET794  SER795  GLU796  ALA797  LYS798  CYS799  TRP800  GLU811  SER814 

> <Gold.Protein.RotatedAtoms>
  152.4614  133.7830  159.6860 H   0  0  0  0  0  0  0  0  0  0  0  0  # atno 6907 bound_to 6896
  150.8559  133.7706  159.3015 H   0  0  0  0  0  0  0  0  0  0  0  0  # atno 6908 bound_to 6896
  151.5286  135.1071  159.9949 H   0  0  0  0  0  0  0  0  0  0  0  0  # atno 6909 bound_to 6896
  145.9599  139.4050  143.0254 H   0  0  0  0  0  0  0  0  0  0  0  0  # atno 7974 bound_to 7965
  156.0824  140.3269  155.7711 H   0  0  0  0  0  0  0  0  0  0  0  0  # atno 8008 bound_to 7997
  155.5130  140.0578  157.2937 H   0  0  0  0  0  0  0  0  0  0  0  0  # atno 8009 bound_to 7997
  154.4590  140.1957  156.0315 H   0  0  0  0  0  0  0  0  0  0  0  0  # atno 8010 bound_to 7997
  139.9923  143.5627  152.2337 H   0  0  0  0  0  0  0  0  0  0  0  0  # atno 10167 bound_to 10162
  157.6846  131.0707  150.5147 H   0  0  0  0  0  0  0  0  0  0  0  0  # atno 10718 bound_to 10713
  154.3042  135.2758  155.2596 H   0  0  0  0  0  0  0  0  0  0  0  0  # atno 10763 bound_to 10752
  154.5020  135.5805  153.6542 H   0  0  0  0  0  0  0  0  0  0  0  0  # atno 10764 bound_to 10752
  152.9896  135.6160  154.3215 H   0  0  0  0  0  0  0  0  0  0  0  0  # atno 10765 bound_to 10752
  140.8092  133.8153  155.9546 H   0  0  0  0  0  0  0  0  0  0  0  0  # atno 11005 bound_to 11000
  145.8054  140.9751  143.0977 LP  0  0  0  0  0  0  0  0  0  0  0  0  # atno 17320 bound_to 7965
  144.6813  139.9854  143.7484 LP  0  0  0  0  0  0  0  0  0  0  0  0  # atno 17321 bound_to 7965
  139.6331  144.7646  151.2495 LP  0  0  0  0  0  0  0  0  0  0  0  0  # atno 17342 bound_to 10162
  140.7450  143.6445  150.8304 LP  0  0  0  0  0  0  0  0  0  0  0  0  # atno 17343 bound_to 10162
  156.5463  130.4220  149.6129 LP  0  0  0  0  0  0  0  0  0  0  0  0  # atno 17370 bound_to 10713
  156.2941  130.7141  151.1997 LP  0  0  0  0  0  0  0  0  0  0  0  0  # atno 17371 bound_to 10713
  140.9215  134.2136  157.4923 LP  0  0  0  0  0  0  0  0  0  0  0  0  # atno 17394 bound_to 11000
  139.8715  134.9794  156.5036 LP  0  0  0  0  0  0  0  0  0  0  0  0  # atno 17395 bound_to 11000

$$$$
