AV-unprocessed.smi:1347|AV-procd|sdf|5516|dock5
  -GOLD-   22720 5103D 1   1.00000     0.00000
 Structure written by MMmdl.
 38 39  0  0  0  0  0  0  0  0  1 V2000
  146.6108  142.3626  153.8206 C   0  0  0  0  0  0  0  0  0  0  0  0
  147.6217  141.9277  154.7126 O   0  0  0  0  0  0  0  0  0  0  0  0
  148.8924  141.8425  154.0885 C   0  0  0  0  0  0  0  0  0  0  0  0
  149.9007  141.2737  155.0856 C   0  0  0  0  0  0  0  0  0  0  0  0
  150.4734  140.2097  154.8512 O   0  0  0  0  0  0  0  0  0  0  0  0
  150.1177  142.0010  156.1913 N   0  0  0  0  0  0  0  0  0  0  0  0
  151.0800  141.6734  157.2378 C   0  0  0  0  0  0  0  0  0  0  0  0
  151.2834  142.7920  158.2549 C   0  0  0  0  0  0  0  0  0  0  0  0
  150.4729  143.9451  158.1887 C   0  0  0  0  0  0  0  0  0  0  0  0
  150.6621  144.9732  159.1300 C   0  0  0  0  0  0  0  0  0  0  0  0
  151.6618  144.8085  160.1061 C   0  0  0  0  0  0  0  0  0  0  0  0
  152.4469  143.7137  160.1825 N   0  0  0  0  0  0  0  0  0  0  0  0
  152.2652  142.7214  159.2777 C   0  0  0  0  0  0  0  0  0  0  0  0
  153.0950  141.5943  159.3839 N   0  0  0  0  0  0  0  0  0  0  0  0
  154.2182  141.7603  160.2957 C   0  0  0  0  0  0  0  0  0  0  0  0
  155.1498  140.5394  160.1992 C   0  0  0  0  0  0  0  0  0  0  0  0
  154.4085  139.3483  160.4517 O   0  0  0  0  0  0  0  0  0  0  0  0
  153.3523  139.1617  159.5129 C   0  0  0  0  0  0  0  0  0  0  0  0
  152.3747  140.3457  159.5968 C   0  0  0  0  0  0  0  0  0  0  0  0
  145.6552  142.4073  154.3431 H   0  0  0  0  0  0  0  0  0  0  0  0
  146.5035  141.6749  152.9808 H   0  0  0  0  0  0  0  0  0  0  0  0
  146.8293  143.3584  153.4327 H   0  0  0  0  0  0  0  0  0  0  0  0
  148.8481  141.1850  153.2190 H   0  0  0  0  0  0  0  0  0  0  0  0
  149.2127  142.8283  153.7461 H   0  0  0  0  0  0  0  0  0  0  0  0
  149.6002  142.8606  156.3022 H   0  0  0  0  0  0  0  0  0  0  0  0
  150.7235  140.7879  157.7645 H   0  0  0  0  0  0  0  0  0  0  0  0
  152.0322  141.3948  156.7838 H   0  0  0  0  0  0  0  0  0  0  0  0
  149.7111  144.0417  157.4291 H   0  0  0  0  0  0  0  0  0  0  0  0
  150.0545  145.8654  159.1050 H   0  0  0  0  0  0  0  0  0  0  0  0
  151.8362  145.5766  160.8449 H   0  0  0  0  0  0  0  0  0  0  0  0
  154.7649  142.6709  160.0478 H   0  0  0  0  0  0  0  0  0  0  0  0
  153.8515  141.8690  161.3173 H   0  0  0  0  0  0  0  0  0  0  0  0
  155.6185  140.4854  159.2153 H   0  0  0  0  0  0  0  0  0  0  0  0
  155.9536  140.6200  160.9311 H   0  0  0  0  0  0  0  0  0  0  0  0
  153.7591  139.0654  158.5048 H   0  0  0  0  0  0  0  0  0  0  0  0
  152.8349  138.2291  159.7388 H   0  0  0  0  0  0  0  0  0  0  0  0
  151.8919  140.3596  160.5749 H   0  0  0  0  0  0  0  0  0  0  0  0
  151.5887  140.2383  158.8482 H   0  0  0  0  0  0  0  0  0  0  0  0
  1  2  1  0  0  0  0
  1 20  1  0  0  0  0
  1 21  1  0  0  0  0
  1 22  1  0  0  0  0
  2  3  1  0  0  0  0
  3  4  1  0  0  0  0
  3 23  1  0  0  0  0
  3 24  1  0  0  0  0
  4  5  2  0  0  0  0
  4  6  1  0  0  0  0
  6  7  1  0  0  0  0
  6 25  1  0  0  0  0
  7  8  1  0  0  0  0
  7 26  1  0  0  0  0
  7 27  1  0  0  0  0
  8 13  1  0  0  0  0
  8  9  2  0  0  0  0
  9 10  1  0  0  0  0
  9 28  1  0  0  0  0
 10 11  2  0  0  0  0
 10 29  1  0  0  0  0
 11 12  1  0  0  0  0
 11 30  1  0  0  0  0
 12 13  2  0  0  0  0
 13 14  1  0  0  0  0
 14 19  1  0  0  0  0
 14 15  1  0  0  0  0
 15 16  1  0  0  0  0
 15 31  1  0  0  0  0
 15 32  1  0  0  0  0
 16 17  1  0  0  0  0
 16 33  1  0  0  0  0
 16 34  1  0  0  0  0
 17 18  1  0  0  0  0
 18 19  1  0  0  0  0
 18 35  1  0  0  0  0
 18 36  1  0  0  0  0
 19 37  1  0  0  0  0
 19 38  1  0  0  0  0
M  END
> <s_m_source_file>
AV-unprocessed.smi

> <i_m_source_file_index>
1347

> <i_lp_mmshare_version>
43012

> <i_f3d_flags>
0

> <s_epik_input>
W0NIM11PW0NIMl1DKD1PKVtOSF1bQ0gyXWMxW2NIXVtjSF1bY0hdbmMxTjJbQ0gyXVtDSDJdT1tDSDJdW0NIMl0y

> <s_epik_cmdline>
J2VwaWtfcHl0aG9uJywgJy1waCcsICc3LjAnLCAnLXRuJywgJzgnLCAnLW1hJywgJzIwMCcsICctbWV0YWxfYmluZGluZycsICctaW1hZScsICc8aW5maWxlLm1hZT4nLCAnLW9tYWUnLCAnPG91dGZpbGUubWFlPic=

> <r_lp_tautomer_probability>
1

> <r_epik_Ionization_Penalty>
0.00422298

> <r_epik_Ionization_Penalty_Charging>
0

> <r_epik_Ionization_Penalty_Neutral>
0.00422298

> <r_epik_State_Penalty>
0.00303469

> <r_epik_Charging_Adjusted_Penalty>
0.00303469

> <i_epik_Tot_Q>
0

> <i_epik_Tot_abs_Q>
0

> <r_epik_Metal_State_Penalty>
-0

> <b_epik_Metal_Only>
0

> <s_lp_Force_Field>
OPLS_2005

> <r_lp_Energy>
19.5871

> <b_lp_Chiralities_Consistent>
1

> <s_lp_Variant>
AV-unprocessed.smi:1347-1

> <Gold.Version>
5.8.1

> <Gold.Id.Protein>
6NUR|6NUR_protein|mol2

> <Gold.PLP.Fitness>
42.3807

> <Gold.PLP.PLP>
-36.8349

> <Gold.PLP.part.hbond>
-2.0000

> <Gold.PLP.part.metal>
0.0000

> <Gold.PLP.part.buried>
-2.7266

> <Gold.PLP.part.nonpolar>
-32.6060

> <Gold.PLP.part.repulsive>
0.3420

> <Gold.PLP.ligand.clash>
0.0000

> <Gold.PLP.ligand.torsion>
0.2093

> <Gold.PLP.Chemscore.Hbond>
1.9350

> <Gold.PLP.Chemscore.CHOScore>
0.0000

> <Gold.PLP.Chemscore.Metal>
0.0000

> <Gold.Chemscore.Hbonds>
donor molecule, donor type, donor heavy atom, donor atom, acceptor molecule, acceptor atom, score
      L1  H     6    25       P1  8028  0.84
      P1  H  7989  7998       L1     5  0.80

> <Gold.PLP.Chemscore.Internal.Correction>
0.1596

> <Gold.Rescore>
     Score         DG    S(hbond)    S(metal)    S(lipo)     H(rot)  DE(clash)    DE(int)     intcor
     12.73     -14.01       0.95        0.00      88.13       1.94       0.15       1.13       ----

> <Gold.Chemscore.Fitness>
12.7290

> <Gold.Chemscore.DG>
-14.0072

> <Gold.Chemscore.ZeroCoef>
-5.4800

> <Gold.Chemscore.Hbond>
0.9517

> <Gold.Chemscore.Metal>
0.0000

> <Gold.Chemscore.Lipo>
88.1306

> <Gold.Chemscore.Internal_Hbond>
0.0000

> <Gold.Chemscore.DEClash>
0.1461

> <Gold.Chemscore.DEInternal>
1.1321

> <Gold.Chemscore.Rot>
1.9385

> <Gold.Chemscore.Internal.Correction>
   9.000000E+99

> <Gold.Chemscore.Hbonds>
donor molecule, donor type, donor heavy atom, donor atom, acceptor molecule, acceptor atom, score
      L1  H     6    25       P1  8028  0.80
      P1  H  7989  7998       L1     5  0.12

> <Gold.Chemscore.Hbond.Weighted>
-3.1786

> <Gold.Chemscore.Metal.Weighted>
-0.0000

> <Gold.Chemscore.Lipo.Weighted>
-10.3113

> <Gold.Chemscore.Internal_Hbond.Weighted>
0.0000

> <Gold.Chemscore.DEClash.Weighted>
0.1461

> <Gold.Chemscore.DEInternal.Weighted>
1.1321

> <Gold.Chemscore.Rot.Weighted>
4.9627

> <Gold.Chemscore.Internal.Correction.Weighted>
   9.000000E+99

> <Gold.Protein.RotatedTorsions>
[ 6907 6896 6895 6894 ] final  -79.94 input  -60.11 | X-H torsion
[ 7974 7965 7964 7962 ] final  113.11 input  175.53 | X-H torsion
[ 8008 7997 7996 7995 ] final   67.33 input   59.86 | X-H torsion
[ 10167 10162 10161 10158 ] final   86.23 input  -65.29 | X-H torsion
[ 10718 10713 10712 10709 ] final   70.63 input   66.30 | X-H torsion
[ 10763 10752 10751 10750 ] final   38.78 input  -60.55 | X-H torsion
[ 11005 11000 10999 10996 ] final   65.14 input  -57.11 | X-H torsion

> <Gold.Protein.ActiveResidues>
 VAL166  LYS551  ARG553  GLY616  TRP617  ASP618  TYR619  PRO620  LYS621  CYS622 
 ASP623  PHE694  ASN695  SER759  ASP760  ASP761  ALA762  ILE779  LEU786  VAL792 
 PHE793  MET794  SER795  GLU796  ALA797  LYS798  CYS799  TRP800  GLU811  SER814 

> <Gold.Protein.RotatedAtoms>
  150.6939  134.4045  159.5133 H   0  0  0  0  0  0  0  0  0  0  0  0  # atno 6907 bound_to 6896
  152.1813  134.8748  160.0535 H   0  0  0  0  0  0  0  0  0  0  0  0  # atno 6908 bound_to 6896
  151.9738  133.3700  159.4118 H   0  0  0  0  0  0  0  0  0  0  0  0  # atno 6909 bound_to 6896
  145.2211  139.2862  143.4218 H   0  0  0  0  0  0  0  0  0  0  0  0  # atno 7974 bound_to 7965
  155.6912  140.3496  155.4894 H   0  0  0  0  0  0  0  0  0  0  0  0  # atno 8008 bound_to 7997
  155.9522  140.1121  157.0989 H   0  0  0  0  0  0  0  0  0  0  0  0  # atno 8009 bound_to 7997
  154.4124  140.1192  156.5054 H   0  0  0  0  0  0  0  0  0  0  0  0  # atno 8010 bound_to 7997
  139.8896  144.6393  150.8753 H   0  0  0  0  0  0  0  0  0  0  0  0  # atno 10167 bound_to 10162
  157.6410  130.9487  150.0678 H   0  0  0  0  0  0  0  0  0  0  0  0  # atno 10718 bound_to 10713
  152.9989  135.6239  154.2360 H   0  0  0  0  0  0  0  0  0  0  0  0  # atno 10763 bound_to 10752
  154.2101  135.2800  155.2963 H   0  0  0  0  0  0  0  0  0  0  0  0  # atno 10764 bound_to 10752
  154.5613  135.5704  153.7069 H   0  0  0  0  0  0  0  0  0  0  0  0  # atno 10765 bound_to 10752
  139.9914  134.6586  156.0085 H   0  0  0  0  0  0  0  0  0  0  0  0  # atno 11005 bound_to 11000
  146.3376  140.2517  142.8599 LP  0  0  0  0  0  0  0  0  0  0  0  0  # atno 17320 bound_to 7965
  144.9765  140.8418  143.5423 LP  0  0  0  0  0  0  0  0  0  0  0  0  # atno 17321 bound_to 7965
  140.7729  143.3520  151.1995 LP  0  0  0  0  0  0  0  0  0  0  0  0  # atno 17342 bound_to 10162
  139.7121  143.9359  152.2952 LP  0  0  0  0  0  0  0  0  0  0  0  0  # atno 17343 bound_to 10162
  156.1691  130.3646  149.9190 LP  0  0  0  0  0  0  0  0  0  0  0  0  # atno 17370 bound_to 10713
  156.7170  130.8992  151.3615 LP  0  0  0  0  0  0  0  0  0  0  0  0  # atno 17371 bound_to 10713
  141.1569  133.6542  156.4189 LP  0  0  0  0  0  0  0  0  0  0  0  0  # atno 17394 bound_to 11000
  140.4902  134.6583  157.5207 LP  0  0  0  0  0  0  0  0  0  0  0  0  # atno 17395 bound_to 11000

$$$$
