AV-unprocessed.smi:1079|AV-procd|sdf|4705|dock3
  -GOLD-   22720 3233D 1   1.00000     0.00000
 Structure written by MMmdl.
 43 44  0  0  0  0  0  0  0  0  2 V2000
  147.1168  136.9212  162.5928 C   0  0  0  0  0  0  0  0  0  0  0  0
  147.3518  137.2399  161.2332 O   0  0  0  0  0  0  0  0  0  0  0  0
  146.2374  136.9480  160.4059 C   0  0  0  0  0  0  0  0  0  0  0  0
  146.6994  136.7807  158.9483 C   0  0  0  0  0  0  0  0  0  0  0  0
  148.1364  137.0953  158.7864 N   0  0  0  0  0  0  0  0  0  0  0  0
  148.5199  138.2706  158.0851 C   0  0  0  0  0  0  0  0  0  0  0  0
  147.5360  139.0859  157.5440 N   0  0  0  0  0  0  0  0  0  0  0  0
  149.8377  138.5666  157.9212 C   0  0  0  0  0  0  0  0  0  0  0  0
  150.2641  139.7420  157.2698 N   0  0  0  0  0  0  0  0  0  0  0  0
  149.8480  141.0268  157.8569 C   0  0  0  0  0  0  0  0  0  0  0  0
  151.0114  141.8935  158.3135 C   0  0  0  0  0  0  0  0  0  0  0  0
  151.1722  143.1965  157.7964 C   0  0  0  0  0  0  0  0  0  0  0  0
  152.2460  144.0014  158.2228 C   0  0  0  0  0  0  0  0  0  0  0  0
  153.1667  143.5055  159.1660 C   0  0  0  0  0  0  0  0  0  0  0  0
  153.0127  142.2044  159.6822 C   0  0  0  0  0  0  0  0  0  0  0  0
  151.9380  141.3998  159.2564 C   0  0  0  0  0  0  0  0  0  0  0  0
  150.9280  139.7110  156.0838 C   0  0  0  0  0  0  0  0  0  0  0  0
  151.2087  138.3640  155.4058 C   0  0  0  0  0  0  0  0  0  0  0  0
  151.2929  140.7336  155.5018 O   0  0  0  0  0  0  0  0  0  0  0  0
  150.8424  137.6704  158.5088 C   0  0  0  0  0  0  0  0  0  0  0  0
  152.0409  137.9367  158.4174 O   0  0  0  0  0  0  0  0  0  0  0  0
  150.3999  136.5560  159.1480 N   0  5  0  0  0  0  0  0  0  0  0  0
  149.0808  136.2449  159.2940 C   0  0  0  0  0  0  0  0  0  0  0  0
  148.7196  135.2178  159.8704 O   0  0  0  0  0  0  0  0  0  0  0  0
  147.9998  137.1644  163.1834 H   0  0  0  0  0  0  0  0  0  0  0  0
  146.9094  135.8578  162.7180 H   0  0  0  0  0  0  0  0  0  0  0  0
  146.2774  137.4922  162.9922 H   0  0  0  0  0  0  0  0  0  0  0  0
  145.7688  136.0236  160.7457 H   0  0  0  0  0  0  0  0  0  0  0  0
  145.4866  137.7361  160.4828 H   0  0  0  0  0  0  0  0  0  0  0  0
  146.4497  135.7827  158.5897 H   0  0  0  0  0  0  0  0  0  0  0  0
  146.1004  137.4324  158.3101 H   0  0  0  0  0  0  0  0  0  0  0  0
  146.5569  138.8592  157.6398 H   0  0  0  0  0  0  0  0  0  0  0  0
  147.7450  140.0333  157.2631 H   0  0  0  0  0  0  0  0  0  0  0  0
  149.2278  141.5754  157.1456 H   0  0  0  0  0  0  0  0  0  0  0  0
  149.2097  140.8594  158.7260 H   0  0  0  0  0  0  0  0  0  0  0  0
  150.4716  143.5824  157.0707 H   0  0  0  0  0  0  0  0  0  0  0  0
  152.3624  144.9993  157.8265 H   0  0  0  0  0  0  0  0  0  0  0  0
  153.9903  144.1227  159.4930 H   0  0  0  0  0  0  0  0  0  0  0  0
  153.7174  141.8235  160.4064 H   0  0  0  0  0  0  0  0  0  0  0  0
  151.8237  140.4047  159.6605 H   0  0  0  0  0  0  0  0  0  0  0  0
  150.3071  137.7532  155.3510 H   0  0  0  0  0  0  0  0  0  0  0  0
  151.9772  137.8107  155.9454 H   0  0  0  0  0  0  0  0  0  0  0  0
  151.5651  138.5175  154.3866 H   0  0  0  0  0  0  0  0  0  0  0  0
  1  2  1  0  0  0  0
  1 25  1  0  0  0  0
  1 26  1  0  0  0  0
  1 27  1  0  0  0  0
  2  3  1  0  0  0  0
  3  4  1  0  0  0  0
  3 28  1  0  0  0  0
  3 29  1  0  0  0  0
  4  5  1  0  0  0  0
  4 30  1  0  0  0  0
  4 31  1  0  0  0  0
  5 23  1  0  0  0  0
  5  6  1  0  0  0  0
  6  7  1  0  0  0  0
  6  8  2  0  0  0  0
  7 32  1  0  0  0  0
  7 33  1  0  0  0  0
  8  9  1  0  0  0  0
  8 20  1  0  0  0  0
  9 10  1  0  0  0  0
  9 17  1  0  0  0  0
 10 11  1  0  0  0  0
 10 34  1  0  0  0  0
 10 35  1  0  0  0  0
 11 16  1  0  0  0  0
 11 12  2  0  0  0  0
 12 13  1  0  0  0  0
 12 36  1  0  0  0  0
 13 14  2  0  0  0  0
 13 37  1  0  0  0  0
 14 15  1  0  0  0  0
 14 38  1  0  0  0  0
 15 16  2  0  0  0  0
 15 39  1  0  0  0  0
 16 40  1  0  0  0  0
 17 18  1  0  0  0  0
 17 19  2  0  0  0  0
 18 41  1  0  0  0  0
 18 42  1  0  0  0  0
 18 43  1  0  0  0  0
 20 21  2  0  0  0  0
 20 22  1  0  0  0  0
 22 23  1  0  0  0  0
 23 24  2  0  0  0  0
M  CHG  1  22  -1
M  END
> <s_m_source_file>
AV-unprocessed.smi

> <i_m_source_file_index>
1079

> <i_lp_mmshare_version>
43012

> <i_f3d_flags>
0

> <s_epik_input>
W0NIM11PW0NIMl1bQ0gyXW4xYyhbTkgyXSljKGMoPU8pW25IXWMxPU8pTihDKD1PKVtDSDNdKVtDSDJdYzJbY0hdW2NIXVtjSF1bY0hdW2NIXTI=

> <s_epik_cmdline>
J2VwaWtfcHl0aG9uJywgJy1waCcsICc3LjAnLCAnLXRuJywgJzgnLCAnLW1hJywgJzIwMCcsICctbWV0YWxfYmluZGluZycsICctaW1hZScsICc8aW5maWxlLm1hZT4nLCAnLW9tYWUnLCAnPG91dGZpbGUubWFlPic=

> <r_lp_tautomer_probability>
1

> <r_epik_Ionization_Penalty>
7.02899

> <r_epik_Ionization_Penalty_Charging>
0.353543

> <r_epik_Ionization_Penalty_Neutral>
6.67545

> <r_epik_State_Penalty>
6.67544

> <r_epik_Charging_Adjusted_Penalty>
7.02899

> <i_epik_Tot_Q>
-1

> <i_epik_Tot_abs_Q>
1

> <r_epik_Metal_State_Penalty>
2.59023

> <b_epik_Metal_Only>
1

> <s_epik_Chemistry_Notes>
This compound has an imine and may undergo hydrolysis.

> <s_lp_Force_Field>
OPLS_2005

> <r_lp_Energy>
37.6248

> <b_lp_Chiralities_Consistent>
1

> <s_lp_Variant>
AV-unprocessed.smi:1079-2

> <Gold.Version>
5.8.1

> <Gold.Id.Protein>
6NUR|6NUR_protein|mol2

> <Gold.PLP.Fitness>
49.6262

> <Gold.PLP.PLP>
-39.4956

> <Gold.PLP.part.hbond>
-4.3019

> <Gold.PLP.part.metal>
0.0000

> <Gold.PLP.part.buried>
-4.2421

> <Gold.PLP.part.nonpolar>
-30.5876

> <Gold.PLP.part.repulsive>
0.0939

> <Gold.PLP.ligand.clash>
0.0000

> <Gold.PLP.ligand.torsion>
1.8570

> <Gold.PLP.Chemscore.Hbond>
3.8980

> <Gold.PLP.Chemscore.CHOScore>
0.0000

> <Gold.PLP.Chemscore.Metal>
0.0000

> <Gold.Chemscore.Hbonds>
donor molecule, donor type, donor heavy atom, donor atom, acceptor molecule, acceptor atom, score
      P1  H  6896  6907       L1    22  1.40
      P1  H  6931  6943       L1     2  0.23
      P1  H  6934  6947       L1     2  0.60
      P1  H  7989  7998       L1    19  0.77

> <Gold.PLP.Chemscore.Internal.Correction>
2.1505

> <Gold.Rescore>
     Score         DG    S(hbond)    S(metal)    S(lipo)     H(rot)  DE(clash)    DE(int)     intcor
     12.93     -17.84       2.48        0.00      78.15       1.98       0.01       4.90       ----

> <Gold.Chemscore.Fitness>
12.9255

> <Gold.Chemscore.DG>
-17.8376

> <Gold.Chemscore.ZeroCoef>
-5.4800

> <Gold.Chemscore.Hbond>
2.4818

> <Gold.Chemscore.Metal>
0.0000

> <Gold.Chemscore.Lipo>
78.1471

> <Gold.Chemscore.Internal_Hbond>
0.0000

> <Gold.Chemscore.DEClash>
0.0073

> <Gold.Chemscore.DEInternal>
4.9047

> <Gold.Chemscore.Rot>
1.9824

> <Gold.Chemscore.Internal.Correction>
   9.000000E+99

> <Gold.Chemscore.Hbonds>
donor molecule, donor type, donor heavy atom, donor atom, acceptor molecule, acceptor atom, score
      P1  H  6896  6907       L1    22  0.07
      P1  H  6934  6947       L1     2  0.03
      P1  H  7989  7998       L1    19  0.71

> <Gold.Chemscore.Hbond.Weighted>
-8.2893

> <Gold.Chemscore.Metal.Weighted>
-0.0000

> <Gold.Chemscore.Lipo.Weighted>
-9.1432

> <Gold.Chemscore.Internal_Hbond.Weighted>
0.0000

> <Gold.Chemscore.DEClash.Weighted>
0.0073

> <Gold.Chemscore.DEInternal.Weighted>
4.9047

> <Gold.Chemscore.Rot.Weighted>
5.0749

> <Gold.Chemscore.Internal.Correction.Weighted>
   9.000000E+99

> <Gold.Protein.RotatedTorsions>
[ 6907 6896 6895 6894 ] final  -40.43 input  -60.11 | X-H torsion
[ 7974 7965 7964 7962 ] final  -86.56 input  175.53 | X-H torsion
[ 8008 7997 7996 7995 ] final   44.72 input   59.86 | X-H torsion
[ 10167 10162 10161 10158 ] final   18.01 input  -65.29 | X-H torsion
[ 10718 10713 10712 10709 ] final -168.13 input   66.30 | X-H torsion
[ 10763 10752 10751 10750 ] final -177.66 input  -60.55 | X-H torsion
[ 11005 11000 10999 10996 ] final -153.31 input  -57.11 | X-H torsion

> <Gold.Protein.ActiveResidues>
 VAL166  LYS551  ARG553  GLY616  TRP617  ASP618  TYR619  PRO620  LYS621  CYS622 
 ASP623  PHE694  ASN695  SER759  ASP760  ASP761  ALA762  ILE779  LEU786  VAL792 
 PHE793  MET794  SER795  GLU796  ALA797  LYS798  CYS799  TRP800  GLU811  SER814 

> <Gold.Protein.RotatedAtoms>
  150.9786  134.9145  159.7830 H   0  0  0  0  0  0  0  0  0  0  0  0  # atno 6907 bound_to 6896
  152.5214  134.3442  159.9238 H   0  0  0  0  0  0  0  0  0  0  0  0  # atno 6908 bound_to 6896
  151.3450  133.3906  159.2709 H   0  0  0  0  0  0  0  0  0  0  0  0  # atno 6909 bound_to 6896
  145.4783  140.9558  143.1878 H   0  0  0  0  0  0  0  0  0  0  0  0  # atno 7974 bound_to 7965
  155.3241  140.3398  155.4240 H   0  0  0  0  0  0  0  0  0  0  0  0  # atno 8008 bound_to 7997
  156.1894  140.1692  156.8158 H   0  0  0  0  0  0  0  0  0  0  0  0  # atno 8009 bound_to 7997
  154.5425  140.0722  156.8517 H   0  0  0  0  0  0  0  0  0  0  0  0  # atno 8010 bound_to 7997
  140.5684  143.9207  150.6694 H   0  0  0  0  0  0  0  0  0  0  0  0  # atno 10167 bound_to 10162
  156.6925  130.9165  151.3070 H   0  0  0  0  0  0  0  0  0  0  0  0  # atno 10718 bound_to 10713
  154.5573  135.2817  155.0952 H   0  0  0  0  0  0  0  0  0  0  0  0  # atno 10763 bound_to 10752
  154.2375  135.6363  153.5199 H   0  0  0  0  0  0  0  0  0  0  0  0  # atno 10764 bound_to 10752
  153.0019  135.5552  154.6157 H   0  0  0  0  0  0  0  0  0  0  0  0  # atno 10765 bound_to 10752
  140.7095  134.3848  157.5199 H   0  0  0  0  0  0  0  0  0  0  0  0  # atno 11005 bound_to 11000
  144.7904  139.6340  143.7116 LP  0  0  0  0  0  0  0  0  0  0  0  0  # atno 17320 bound_to 7965
  146.2356  139.5899  142.9526 LP  0  0  0  0  0  0  0  0  0  0  0  0  # atno 17321 bound_to 7965
  140.2676  143.3479  152.1267 LP  0  0  0  0  0  0  0  0  0  0  0  0  # atno 17342 bound_to 10162
  139.5105  144.6885  151.5824 LP  0  0  0  0  0  0  0  0  0  0  0  0  # atno 17343 bound_to 10162
  157.7003  130.9326  150.0767 LP  0  0  0  0  0  0  0  0  0  0  0  0  # atno 17370 bound_to 10713
  156.1787  130.3649  149.9065 LP  0  0  0  0  0  0  0  0  0  0  0  0  # atno 17371 bound_to 10713
  139.8875  134.8880  156.2524 LP  0  0  0  0  0  0  0  0  0  0  0  0  # atno 17394 bound_to 11000
  141.0096  133.7103  156.1090 LP  0  0  0  0  0  0  0  0  0  0  0  0  # atno 17395 bound_to 11000

$$$$
