AV-unprocessed.smi:3042|AV-procd|sdf|11600|dock9
  -GOLD-   2272016583D 1   1.00000     0.00000
 Structure written by MMmdl.
 33 34  0  0  0  0  0  0  0  0  2 V2000
  148.1746  142.4163  154.4055 N   0  3  0  0  0  0  0  0  0  0  0  0
  148.6726  141.2583  155.1704 C   0  0  0  0  0  0  0  0  0  0  0  0
  150.2219  141.2010  155.2011 C   0  0  1  0  0  0  0  0  0  0  0  0
  150.7302  142.2144  156.2259 C   0  0  0  0  0  0  0  0  0  0  0  0
  151.5137  143.3239  155.8374 C   0  0  0  0  0  0  0  0  0  0  0  0
  151.9622  144.2202  156.8260 C   0  0  0  0  0  0  0  0  0  0  0  0
  151.6055  143.9738  158.1664 C   0  0  0  0  0  0  0  0  0  0  0  0
  150.8570  142.9178  158.5511 N   0  0  0  0  0  0  0  0  0  0  0  0
  150.4295  142.0637  157.5975 C   0  0  0  0  0  0  0  0  0  0  0  0
  150.7788  139.8548  155.4503 N   0  0  0  0  0  0  0  0  0  0  0  0
  152.2458  139.8500  155.3970 C   0  0  0  0  0  0  0  0  0  0  0  0
  152.8415  138.4558  155.6558 C   0  0  0  0  0  0  0  0  0  0  0  0
  152.3151  137.5324  154.7116 O   0  0  0  0  0  0  0  0  0  0  0  0
  150.8968  137.4545  154.7657 C   0  0  0  0  0  0  0  0  0  0  0  0
  150.2891  138.8447  154.5078 C   0  0  0  0  0  0  0  0  0  0  0  0
  148.5157  142.3664  153.4562 H   0  0  0  0  0  0  0  0  0  0  0  0
  148.4991  143.2705  154.8356 H   0  0  0  0  0  0  0  0  0  0  0  0
  148.2664  141.3031  156.1815 H   0  0  0  0  0  0  0  0  0  0  0  0
  148.2482  140.3764  154.6930 H   0  0  0  0  0  0  0  0  0  0  0  0
  150.5735  141.5304  154.2218 H   0  0  0  0  0  0  0  0  0  0  0  0
  151.7677  143.4854  154.8000 H   0  0  0  0  0  0  0  0  0  0  0  0
  152.5640  145.0778  156.5635 H   0  0  0  0  0  0  0  0  0  0  0  0
  151.9315  144.6416  158.9500 H   0  0  0  0  0  0  0  0  0  0  0  0
  149.8339  141.2308  157.9415 H   0  0  0  0  0  0  0  0  0  0  0  0
  152.5803  140.2064  154.4216 H   0  0  0  0  0  0  0  0  0  0  0  0
  152.6612  140.5354  156.1353 H   0  0  0  0  0  0  0  0  0  0  0  0
  153.9267  138.4843  155.5579 H   0  0  0  0  0  0  0  0  0  0  0  0
  152.6191  138.1211  156.6703 H   0  0  0  0  0  0  0  0  0  0  0  0
  150.5509  136.7448  154.0142 H   0  0  0  0  0  0  0  0  0  0  0  0
  150.5827  137.0697  155.7374 H   0  0  0  0  0  0  0  0  0  0  0  0
  149.2079  138.7425  154.5821 H   0  0  0  0  0  0  0  0  0  0  0  0
  150.5110  139.1532  153.4850 H   0  0  0  0  0  0  0  0  0  0  0  0
  147.1645  142.4047  154.4018 H   0  0  0  0  0  0  0  0  0  0  0  0
  1  2  1  0  0  0  0
  1 16  1  0  0  0  0
  1 17  1  0  0  0  0
  1 33  1  0  0  0  0
  2  3  1  0  0  0  0
  2 18  1  0  0  0  0
  2 19  1  0  0  0  0
  3  4  1  0  0  0  0
  3 10  1  0  0  0  0
  3 20  1  0  0  0  0
  4  9  1  0  0  0  0
  4  5  2  0  0  0  0
  5  6  1  0  0  0  0
  5 21  1  0  0  0  0
  6  7  2  0  0  0  0
  6 22  1  0  0  0  0
  7  8  1  0  0  0  0
  7 23  1  0  0  0  0
  8  9  2  0  0  0  0
  9 24  1  0  0  0  0
 10 15  1  0  0  0  0
 10 11  1  0  0  0  0
 11 12  1  0  0  0  0
 11 25  1  0  0  0  0
 11 26  1  0  0  0  0
 12 13  1  0  0  0  0
 12 27  1  0  0  0  0
 12 28  1  0  0  0  0
 13 14  1  0  0  0  0
 14 15  1  0  0  0  0
 14 29  1  0  0  0  0
 14 30  1  0  0  0  0
 15 31  1  0  0  0  0
 15 32  1  0  0  0  0
M  CHG  1   1   1
M  END
> <s_m_source_file>
AV-unprocessed.smi

> <i_m_source_file_index>
3042

> <i_lp_mmshare_version>
43012

> <i_f3d_flags>
0

> <s_epik_input>
W0NIMl0xW0NIMl1PW0NIMl1bQ0gyXU4xW0NASF0oW0NIMl1bTkgyXSljMltjSF1bY0hdW2NIXW5bY0hdMg==

> <s_epik_cmdline>
J2VwaWtfcHl0aG9uJywgJy1waCcsICc3LjAnLCAnLXRuJywgJzgnLCAnLW1hJywgJzIwMCcsICctbWV0YWxfYmluZGluZycsICctaW1hZScsICc8aW5maWxlLm1hZT4nLCAnLW9tYWUnLCAnPG91dGZpbGUubWFlPic=

> <r_epik_Ionization_Penalty>
0.0112597

> <r_epik_Ionization_Penalty_Charging>
0.00794922

> <r_epik_Ionization_Penalty_Neutral>
0.00331052

> <r_epik_State_Penalty>
0.00596555

> <r_epik_Charging_Adjusted_Penalty>
0.0139148

> <i_epik_Tot_Q>
1

> <i_epik_Tot_abs_Q>
1

> <r_epik_Metal_State_Penalty>
0.00603286

> <b_epik_Metal_Only>
0

> <s_lp_Force_Field>
OPLS_2005

> <r_lp_Energy>
28.2789

> <b_lp_Chiralities_Consistent>
1

> <s_lp_Variant>
AV-unprocessed.smi:3042-2

> <Gold.Version>
5.8.1

> <Gold.Id.Protein>
6NUR|6NUR_protein|mol2

> <Gold.PLP.Fitness>
37.3497

> <Gold.PLP.PLP>
-29.9935

> <Gold.PLP.part.hbond>
-2.8620

> <Gold.PLP.part.metal>
0.0000

> <Gold.PLP.part.buried>
-2.8173

> <Gold.PLP.part.nonpolar>
-24.8059

> <Gold.PLP.part.repulsive>
0.3534

> <Gold.PLP.ligand.clash>
0.0000

> <Gold.PLP.ligand.torsion>
0.2381

> <Gold.PLP.Chemscore.Hbond>
2.5863

> <Gold.PLP.Chemscore.CHOScore>
0.0000

> <Gold.PLP.Chemscore.Metal>
0.0000

> <Gold.Chemscore.Hbonds>
donor molecule, donor type, donor heavy atom, donor atom, acceptor molecule, acceptor atom, score
      L1  H     1    17       P1  8028  2.00
      P1  H 10752 10763       L1    13  0.67

> <Gold.PLP.Chemscore.Internal.Correction>
0.0734

> <Gold.Rescore>
     Score         DG    S(hbond)    S(metal)    S(lipo)     H(rot)  DE(clash)    DE(int)     intcor
     15.87     -17.49       1.69        0.00      86.84       1.48       1.24       0.38       ----

> <Gold.Chemscore.Fitness>
15.8719

> <Gold.Chemscore.DG>
-17.4898

> <Gold.Chemscore.ZeroCoef>
-5.4800

> <Gold.Chemscore.Hbond>
1.6915

> <Gold.Chemscore.Metal>
0.0000

> <Gold.Chemscore.Lipo>
86.8420

> <Gold.Chemscore.Internal_Hbond>
0.0000

> <Gold.Chemscore.DEClash>
1.2373

> <Gold.Chemscore.DEInternal>
0.3805

> <Gold.Chemscore.Rot>
1.4846

> <Gold.Chemscore.Internal.Correction>
   9.000000E+99

> <Gold.Chemscore.Hbonds>
donor molecule, donor type, donor heavy atom, donor atom, acceptor molecule, acceptor atom, score
      L1  H     1    17       P1  8028  1.00
      P1  H 10752 10763       L1    13  0.35

> <Gold.Chemscore.Hbond.Weighted>
-5.6497

> <Gold.Chemscore.Metal.Weighted>
-0.0000

> <Gold.Chemscore.Lipo.Weighted>
-10.1605

> <Gold.Chemscore.Internal_Hbond.Weighted>
0.0000

> <Gold.Chemscore.DEClash.Weighted>
1.2373

> <Gold.Chemscore.DEInternal.Weighted>
0.3805

> <Gold.Chemscore.Rot.Weighted>
3.8005

> <Gold.Chemscore.Internal.Correction.Weighted>
   9.000000E+99

> <Gold.Protein.RotatedTorsions>
[ 6907 6896 6895 6894 ] final -174.18 input  -60.11 | X-H torsion
[ 7974 7965 7964 7962 ] final   90.17 input  175.53 | X-H torsion
[ 8008 7997 7996 7995 ] final   45.96 input   59.86 | X-H torsion
[ 10167 10162 10161 10158 ] final  -88.52 input  -65.29 | X-H torsion
[ 10718 10713 10712 10709 ] final   99.86 input   66.30 | X-H torsion
[ 10763 10752 10751 10750 ] final   40.39 input  -60.55 | X-H torsion
[ 11005 11000 10999 10996 ] final   56.37 input  -57.11 | X-H torsion

> <Gold.Protein.ActiveResidues>
 VAL166  LYS551  ARG553  GLY616  TRP617  ASP618  TYR619  PRO620  LYS621  CYS622 
 ASP623  PHE694  ASN695  SER759  ASP760  ASP761  ALA762  ILE779  LEU786  VAL792 
 PHE793  MET794  SER795  GLU796  ALA797  LYS798  CYS799  TRP800  GLU811  SER814 

> <Gold.Protein.RotatedAtoms>
  151.5682  133.3393  159.2984 H   0  0  0  0  0  0  0  0  0  0  0  0  # atno 6907 bound_to 6896
  150.8383  134.7668  159.6922 H   0  0  0  0  0  0  0  0  0  0  0  0  # atno 6908 bound_to 6896
  152.4455  134.5510  159.9918 H   0  0  0  0  0  0  0  0  0  0  0  0  # atno 6909 bound_to 6896
  145.5226  139.2280  143.2663 H   0  0  0  0  0  0  0  0  0  0  0  0  # atno 7974 bound_to 7965
  155.3446  140.3410  155.4239 H   0  0  0  0  0  0  0  0  0  0  0  0  # atno 8008 bound_to 7997
  156.1795  140.1659  156.8335 H   0  0  0  0  0  0  0  0  0  0  0  0  # atno 8009 bound_to 7997
  154.5319  140.0743  156.8342 H   0  0  0  0  0  0  0  0  0  0  0  0  # atno 8010 bound_to 7997
  140.3738  143.2781  151.9467 H   0  0  0  0  0  0  0  0  0  0  0  0  # atno 10167 bound_to 10162
  157.6867  131.0682  150.5013 H   0  0  0  0  0  0  0  0  0  0  0  0  # atno 10718 bound_to 10713
  152.9938  135.6193  154.2619 H   0  0  0  0  0  0  0  0  0  0  0  0  # atno 10763 bound_to 10752
  154.2354  135.2790  155.2876 H   0  0  0  0  0  0  0  0  0  0  0  0  # atno 10764 bound_to 10752
  154.5414  135.5760  153.6900 H   0  0  0  0  0  0  0  0  0  0  0  0  # atno 10765 bound_to 10752
  140.0534  134.5704  155.9236 H   0  0  0  0  0  0  0  0  0  0  0  0  # atno 11005 bound_to 11000
  146.2096  140.6038  142.9065 LP  0  0  0  0  0  0  0  0  0  0  0  0  # atno 17320 bound_to 7965
  144.7668  140.5548  143.6697 LP  0  0  0  0  0  0  0  0  0  0  0  0  # atno 17321 bound_to 7965
  139.4801  144.5882  151.7817 LP  0  0  0  0  0  0  0  0  0  0  0  0  # atno 17342 bound_to 10162
  140.5006  144.1174  150.5970 LP  0  0  0  0  0  0  0  0  0  0  0  0  # atno 17343 bound_to 10162
  156.5334  130.4190  149.6190 LP  0  0  0  0  0  0  0  0  0  0  0  0  # atno 17370 bound_to 10713
  156.3049  130.7197  151.2077 LP  0  0  0  0  0  0  0  0  0  0  0  0  # atno 17371 bound_to 10713
  141.1941  133.6581  156.5579 LP  0  0  0  0  0  0  0  0  0  0  0  0  # atno 17394 bound_to 11000
  140.3881  134.7464  157.4704 LP  0  0  0  0  0  0  0  0  0  0  0  0  # atno 17395 bound_to 11000

$$$$
