AV-unprocessed.smi:1513|AV-procd|sdf|6110|dock1
  -GOLD-   22720 6243D 1   1.00000     0.00000
 Structure written by MMmdl.
 34 35  0  0  0  0  0  0  0  0  3 V2000
  154.8105  137.6288  158.6860 N   0  0  0  0  0  0  0  0  0  0  0  0
  153.2502  137.5497  157.9725 S   0  0  0  0  0  0  0  0  0  0  0  0
  153.4214  136.8408  156.6945 O   0  0  0  0  0  0  0  0  0  0  0  0
  152.3681  136.9604  158.9928 O   0  0  0  0  0  0  0  0  0  0  0  0
  153.0586  139.1474  157.8014 N   0  5  0  0  0  0  0  0  0  0  0  0
  151.7354  139.7182  157.9803 C   0  0  0  0  0  0  0  0  0  0  0  0
  151.7845  141.2506  158.0314 C   0  0  0  0  0  0  0  0  0  0  0  0
  152.7236  141.8671  158.8966 C   0  0  0  0  0  0  0  0  0  0  0  0
  152.8094  143.2716  158.9632 C   0  0  0  0  0  0  0  0  0  0  0  0
  151.9534  144.0473  158.1625 C   0  0  0  0  0  0  0  0  0  0  0  0
  151.0662  143.4394  157.3491 N   0  3  0  0  0  0  0  0  0  0  0  0
  150.9359  142.0925  157.2428 C   0  0  0  0  0  0  0  0  0  0  0  0
  149.9428  141.6184  156.3607 N   0  0  0  0  0  0  0  0  0  0  0  0
  150.4494  140.6850  155.3631 C   0  0  0  0  0  0  0  0  0  0  0  0
  149.3470  140.3571  154.3418 C   0  0  0  0  0  0  0  0  0  0  0  0
  148.1914  139.8744  155.0221 O   0  0  0  0  0  0  0  0  0  0  0  0
  147.6631  140.8376  155.9296 C   0  0  0  0  0  0  0  0  0  0  0  0
  148.7168  141.1626  157.0015 C   0  0  0  0  0  0  0  0  0  0  0  0
  154.8144  138.1812  159.5428 H   0  0  0  0  0  0  0  0  0  0  0  0
  155.5280  137.9052  158.0168 H   0  0  0  0  0  0  0  0  0  0  0  0
  151.0545  139.4026  157.1893 H   0  0  0  0  0  0  0  0  0  0  0  0
  151.2698  139.3881  158.9097 H   0  0  0  0  0  0  0  0  0  0  0  0
  153.3882  141.2824  159.5185 H   0  0  0  0  0  0  0  0  0  0  0  0
  153.5228  143.7456  159.6214 H   0  0  0  0  0  0  0  0  0  0  0  0
  151.9479  145.1274  158.1503 H   0  0  0  0  0  0  0  0  0  0  0  0
  151.3124  141.1177  154.8553 H   0  0  0  0  0  0  0  0  0  0  0  0
  150.7862  139.7706  155.8535 H   0  0  0  0  0  0  0  0  0  0  0  0
  149.0915  141.2358  153.7485 H   0  0  0  0  0  0  0  0  0  0  0  0
  149.6952  139.5946  153.6451 H   0  0  0  0  0  0  0  0  0  0  0  0
  147.3665  141.7385  155.3892 H   0  0  0  0  0  0  0  0  0  0  0  0
  146.7643  140.4334  156.3950 H   0  0  0  0  0  0  0  0  0  0  0  0
  148.9191  140.2758  157.6036 H   0  0  0  0  0  0  0  0  0  0  0  0
  148.3430  141.9356  157.6741 H   0  0  0  0  0  0  0  0  0  0  0  0
  150.4522  144.0266  156.7846 H   0  0  0  0  0  0  0  0  0  0  0  0
  1  2  1  0  0  0  0
  1 19  1  0  0  0  0
  1 20  1  0  0  0  0
  2  3  2  0  0  0  0
  2  4  2  0  0  0  0
  2  5  1  0  0  0  0
  5  6  1  0  0  0  0
  6  7  1  0  0  0  0
  6 21  1  0  0  0  0
  6 22  1  0  0  0  0
  7 12  1  0  0  0  0
  7  8  2  0  0  0  0
  8  9  1  0  0  0  0
  8 23  1  0  0  0  0
  9 10  2  0  0  0  0
  9 24  1  0  0  0  0
 10 11  1  0  0  0  0
 10 25  1  0  0  0  0
 11 12  2  0  0  0  0
 11 34  1  0  0  0  0
 12 13  1  0  0  0  0
 13 18  1  0  0  0  0
 13 14  1  0  0  0  0
 14 15  1  0  0  0  0
 14 26  1  0  0  0  0
 14 27  1  0  0  0  0
 15 16  1  0  0  0  0
 15 28  1  0  0  0  0
 15 29  1  0  0  0  0
 16 17  1  0  0  0  0
 17 18  1  0  0  0  0
 17 30  1  0  0  0  0
 17 31  1  0  0  0  0
 18 32  1  0  0  0  0
 18 33  1  0  0  0  0
M  CHG  1   5  -1
M  CHG  1  11   1
M  END
> <s_m_source_file>
AV-unprocessed.smi

> <i_m_source_file_index>
1513

> <i_lp_mmshare_version>
43012

> <i_f3d_flags>
0

> <s_epik_input>
W05IMl1TKD1PKSg9TylbTkhdW0NIMl1jMVtjSF1bY0hdW2NIXW5jMU4yW0NIMl1bQ0gyXU9bQ0gyXVtDSDJdMg==

> <s_epik_cmdline>
J2VwaWtfcHl0aG9uJywgJy1waCcsICc3LjAnLCAnLXRuJywgJzgnLCAnLW1hJywgJzIwMCcsICctbWV0YWxfYmluZGluZycsICctaW1hZScsICc8aW5maWxlLm1hZT4nLCAnLW9tYWUnLCAnPG91dGZpbGUubWFlPic=

> <r_epik_Ionization_Penalty>
1.53449

> <r_epik_Ionization_Penalty_Charging>
1.53276

> <r_epik_Ionization_Penalty_Neutral>
0.00173209

> <r_epik_State_Penalty>
2.14469

> <r_epik_Charging_Adjusted_Penalty>
3.67745

> <i_epik_Tot_Q>
0

> <i_epik_Tot_abs_Q>
2

> <r_epik_Metal_State_Penalty>
2.50812

> <b_epik_Metal_Only>
0

> <s_lp_Force_Field>
OPLS_2005

> <r_lp_Energy>
20.3057

> <b_lp_Chiralities_Consistent>
1

> <s_lp_Variant>
AV-unprocessed.smi:1513-3

> <Gold.Version>
5.8.1

> <Gold.Id.Protein>
6NUR|6NUR_protein|mol2

> <Gold.PLP.Fitness>
45.4933

> <Gold.PLP.PLP>
-29.3922

> <Gold.PLP.part.hbond>
-3.9500

> <Gold.PLP.part.metal>
0.0000

> <Gold.PLP.part.buried>
-3.8361

> <Gold.PLP.part.nonpolar>
-22.5094

> <Gold.PLP.part.repulsive>
0.1349

> <Gold.PLP.ligand.clash>
0.0000

> <Gold.PLP.ligand.torsion>
1.0080

> <Gold.PLP.Chemscore.Hbond>
5.6678

> <Gold.PLP.Chemscore.CHOScore>
0.0000

> <Gold.PLP.Chemscore.Metal>
0.0000

> <Gold.Chemscore.Hbonds>
donor molecule, donor type, donor heavy atom, donor atom, acceptor molecule, acceptor atom, score
      L1  H    11    34       P1  8028  2.00
      P1  H  6896  6907       L1     4  0.64
      P1  H  7997  8010       L1     5  2.00
      P1  H 10752 10764       L1     3  0.86

> <Gold.PLP.Chemscore.Internal.Correction>
1.1137

> <Gold.Rescore>
     Score         DG    S(hbond)    S(metal)    S(lipo)     H(rot)  DE(clash)    DE(int)     intcor
     19.47     -20.44       3.59        0.00      67.27       1.91       0.03       0.94       ----

> <Gold.Chemscore.Fitness>
19.4718

> <Gold.Chemscore.DG>
-20.4408

> <Gold.Chemscore.ZeroCoef>
-5.4800

> <Gold.Chemscore.Hbond>
3.5884

> <Gold.Chemscore.Metal>
0.0000

> <Gold.Chemscore.Lipo>
67.2711

> <Gold.Chemscore.Internal_Hbond>
0.0000

> <Gold.Chemscore.DEClash>
0.0282

> <Gold.Chemscore.DEInternal>
0.9407

> <Gold.Chemscore.Rot>
1.9121

> <Gold.Chemscore.Internal.Correction>
   9.000000E+99

> <Gold.Chemscore.Hbonds>
donor molecule, donor type, donor heavy atom, donor atom, acceptor molecule, acceptor atom, score
      L1  H    11    34       P1  8028  0.93
      P1  H  6896  6907       L1     4  0.62
      P1  H  7997  8010       L1     5  0.91
      P1  H 10752 10764       L1     3  0.83

> <Gold.Chemscore.Hbond.Weighted>
-11.9851

> <Gold.Chemscore.Metal.Weighted>
-0.0000

> <Gold.Chemscore.Lipo.Weighted>
-7.8707

> <Gold.Chemscore.Internal_Hbond.Weighted>
0.0000

> <Gold.Chemscore.DEClash.Weighted>
0.0282

> <Gold.Chemscore.DEInternal.Weighted>
0.9407

> <Gold.Chemscore.Rot.Weighted>
4.8950

> <Gold.Chemscore.Internal.Correction.Weighted>
   9.000000E+99

> <Gold.Protein.RotatedTorsions>
[ 6907 6896 6895 6894 ] final   10.03 input  -60.11 | X-H torsion
[ 7974 7965 7964 7962 ] final  -12.51 input  175.53 | X-H torsion
[ 8008 7997 7996 7995 ] final   51.52 input   59.86 | X-H torsion
[ 10167 10162 10161 10158 ] final -100.29 input  -65.29 | X-H torsion
[ 10718 10713 10712 10709 ] final -135.04 input   66.30 | X-H torsion
[ 10763 10752 10751 10750 ] final    3.32 input  -60.55 | X-H torsion
[ 11005 11000 10999 10996 ] final  129.04 input  -57.11 | X-H torsion

> <Gold.Protein.ActiveResidues>
 VAL166  LYS551  ARG553  GLY616  TRP617  ASP618  TYR619  PRO620  LYS621  CYS622 
 ASP623  PHE694  ASN695  SER759  ASP760  ASP761  ALA762  ILE779  LEU786  VAL792 
 PHE793  MET794  SER795  GLU796  ALA797  LYS798  CYS799  TRP800  GLU811  SER814 

> <Gold.Protein.RotatedAtoms>
  151.7317  135.0873  160.0300 H   0  0  0  0  0  0  0  0  0  0  0  0  # atno 6907 bound_to 6896
  152.3537  133.6206  159.5972 H   0  0  0  0  0  0  0  0  0  0  0  0  # atno 6908 bound_to 6896
  150.7556  133.9450  159.3509 H   0  0  0  0  0  0  0  0  0  0  0  0  # atno 6909 bound_to 6896
  146.2149  140.3068  142.8379 H   0  0  0  0  0  0  0  0  0  0  0  0  # atno 7974 bound_to 7965
  155.4367  140.3453  155.4285 H   0  0  0  0  0  0  0  0  0  0  0  0  # atno 8008 bound_to 7997
  156.1304  140.1512  156.9104 H   0  0  0  0  0  0  0  0  0  0  0  0  # atno 8009 bound_to 7997
  154.4890  140.0847  156.7532 H   0  0  0  0  0  0  0  0  0  0  0  0  # atno 8010 bound_to 7997
  140.2535  143.3456  152.0693 H   0  0  0  0  0  0  0  0  0  0  0  0  # atno 10167 bound_to 10162
  156.2619  130.7215  151.1152 H   0  0  0  0  0  0  0  0  0  0  0  0  # atno 10718 bound_to 10713
  153.2847  135.6943  153.7351 H   0  0  0  0  0  0  0  0  0  0  0  0  # atno 10763 bound_to 10752
  153.6324  135.3408  155.3047 H   0  0  0  0  0  0  0  0  0  0  0  0  # atno 10764 bound_to 10752
  154.8506  135.4412  154.1912 H   0  0  0  0  0  0  0  0  0  0  0  0  # atno 10765 bound_to 10752
  139.9594  134.9606  156.9090 H   0  0  0  0  0  0  0  0  0  0  0  0  # atno 11005 bound_to 11000
  144.9017  140.7650  143.5863 LP  0  0  0  0  0  0  0  0  0  0  0  0  # atno 17320 bound_to 7965
  145.2995  139.1855  143.4697 LP  0  0  0  0  0  0  0  0  0  0  0  0  # atno 17321 bound_to 7965
  139.5039  144.6764  151.6117 LP  0  0  0  0  0  0  0  0  0  0  0  0  # atno 17342 bound_to 10162
  140.6022  143.9589  150.6394 LP  0  0  0  0  0  0  0  0  0  0  0  0  # atno 17343 bound_to 10162
  157.7253  131.0654  150.5956 LP  0  0  0  0  0  0  0  0  0  0  0  0  # atno 17370 bound_to 10713
  156.6045  130.4363  149.5884 LP  0  0  0  0  0  0  0  0  0  0  0  0  # atno 17371 bound_to 10713
  140.5535  134.0604  155.7376 LP  0  0  0  0  0  0  0  0  0  0  0  0  # atno 17394 bound_to 11000
  141.1269  133.9368  157.2617 LP  0  0  0  0  0  0  0  0  0  0  0  0  # atno 17395 bound_to 11000

$$$$
