AV-unprocessed.smi:2339|AV-procd|sdf|9342|dock7
  -GOLD-   2272012563D 1   1.00000     0.00000
 Structure written by MMmdl.
 49 52  0  0  0  0  0  0  0  0  1 V2000
  145.1907  134.8506  162.8753 C   0  0  0  0  0  0  0  0  0  0  0  0
  145.8930  136.0484  162.2264 C   0  0  0  0  0  0  0  0  0  0  0  0
  146.7721  135.6363  161.1418 N   0  0  0  0  0  0  0  0  0  0  0  0
  146.9473  134.2930  160.8260 C   0  0  0  0  0  0  0  0  0  0  0  0
  147.7973  133.8435  159.8827 C   0  0  0  0  0  0  0  0  0  0  0  0
  148.6124  134.8125  159.1227 C   0  0  0  0  0  0  0  0  0  0  0  0
  149.4002  134.4377  158.2540 O   0  0  0  0  0  0  0  0  0  0  0  0
  148.4298  136.2476  159.4646 C   0  0  0  0  0  0  0  0  0  0  0  0
  149.2068  137.1592  158.7335 N   0  0  0  0  0  0  0  0  0  0  0  0
  148.9085  138.4083  158.3215 C   0  0  0  0  0  0  0  0  0  0  0  0
  147.8478  138.9932  158.5287 O   0  0  0  0  0  0  0  0  0  0  0  0
  149.9210  139.0162  157.6790 N   0  0  0  0  0  0  0  0  0  0  0  0
  149.9332  140.3684  157.1051 C   0  0  2  0  0  0  0  0  0  0  0  0
  150.4422  140.4291  155.6433 C   0  0  2  0  0  0  0  0  0  0  0  0
  150.6383  139.2078  154.7769 C   0  0  0  0  0  0  0  0  0  0  0  0
  152.1317  138.9094  154.9382 C   0  0  0  0  0  0  0  0  0  0  0  0
  152.5086  139.5710  156.1436 O   0  0  0  0  0  0  0  0  0  0  0  0
  151.8059  140.8096  156.1969 C   0  0  2  0  0  0  0  0  0  0  0  0
  151.1718  141.1812  157.5524 C   0  0  0  0  0  0  0  0  0  0  0  0
  151.9344  140.8004  158.8220 C   0  0  0  0  0  0  0  0  0  0  0  0
  152.8561  141.9753  159.1550 C   0  0  0  0  0  0  0  0  0  0  0  0
  152.2032  143.2032  158.5134 C   0  0  0  0  0  0  0  0  0  0  0  0
  150.9656  142.6787  157.7779 C   0  0  0  0  0  0  0  0  0  0  0  0
  147.5351  136.5640  160.4351 C   0  0  0  0  0  0  0  0  0  0  0  0
  144.5444  135.1764  163.6903 H   0  0  0  0  0  0  0  0  0  0  0  0
  145.9133  134.1447  163.2853 H   0  0  0  0  0  0  0  0  0  0  0  0
  144.5728  134.3175  162.1521 H   0  0  0  0  0  0  0  0  0  0  0  0
  145.1513  136.7522  161.8467 H   0  0  0  0  0  0  0  0  0  0  0  0
  146.4708  136.5897  162.9767 H   0  0  0  0  0  0  0  0  0  0  0  0
  146.3324  133.6164  161.4018 H   0  0  0  0  0  0  0  0  0  0  0  0
  147.8975  132.7893  159.6697 H   0  0  0  0  0  0  0  0  0  0  0  0
  150.1390  136.8350  158.5206 H   0  0  0  0  0  0  0  0  0  0  0  0
  150.7970  138.5152  157.6382 H   0  0  0  0  0  0  0  0  0  0  0  0
  149.0038  140.9205  157.2557 H   0  0  0  0  0  0  0  0  0  0  0  0
  149.9881  141.2694  155.1156 H   0  0  0  0  0  0  0  0  0  0  0  0
  150.0308  138.3646  155.1011 H   0  0  0  0  0  0  0  0  0  0  0  0
  150.3893  139.4006  153.7332 H   0  0  0  0  0  0  0  0  0  0  0  0
  152.3444  137.8413  154.9852 H   0  0  0  0  0  0  0  0  0  0  0  0
  152.6983  139.3346  154.1085 H   0  0  0  0  0  0  0  0  0  0  0  0
  152.3000  141.6169  155.6542 H   0  0  0  0  0  0  0  0  0  0  0  0
  151.2333  140.6500  159.6442 H   0  0  0  0  0  0  0  0  0  0  0  0
  152.4983  139.8732  158.7163 H   0  0  0  0  0  0  0  0  0  0  0  0
  152.9887  142.0920  160.2309 H   0  0  0  0  0  0  0  0  0  0  0  0
  153.8417  141.8121  158.7176 H   0  0  0  0  0  0  0  0  0  0  0  0
  151.9336  143.9563  159.2546 H   0  0  0  0  0  0  0  0  0  0  0  0
  152.8960  143.6673  157.8104 H   0  0  0  0  0  0  0  0  0  0  0  0
  150.7974  143.2227  156.8476 H   0  0  0  0  0  0  0  0  0  0  0  0
  150.0835  142.8421  158.3988 H   0  0  0  0  0  0  0  0  0  0  0  0
  147.3259  137.5788  160.7335 H   0  0  0  0  0  0  0  0  0  0  0  0
  1  2  1  0  0  0  0
  1 25  1  0  0  0  0
  1 26  1  0  0  0  0
  1 27  1  0  0  0  0
  2  3  1  0  0  0  0
  2 28  1  0  0  0  0
  2 29  1  0  0  0  0
  3 24  1  0  0  0  0
  3  4  1  0  0  0  0
  4  5  2  0  0  0  0
  4 30  1  0  0  0  0
  5  6  1  0  0  0  0
  5 31  1  0  0  0  0
  6  7  2  0  0  0  0
  6  8  1  0  0  0  0
  8  9  1  0  0  0  0
  8 24  2  0  0  0  0
  9 10  1  0  0  0  0
  9 32  1  0  0  0  0
 10 11  2  0  0  0  0
 10 12  1  0  0  0  0
 12 13  1  0  0  0  0
 12 33  1  0  0  0  0
 13 19  1  0  0  0  0
 13 14  1  0  0  0  0
 13 34  1  0  0  0  0
 14 18  1  0  0  0  0
 14 15  1  0  0  0  0
 14 35  1  0  0  0  0
 15 16  1  0  0  0  0
 15 36  1  0  0  0  0
 15 37  1  0  0  0  0
 16 17  1  0  0  0  0
 16 38  1  0  0  0  0
 16 39  1  0  0  0  0
 17 18  1  0  0  0  0
 18 19  1  0  0  0  0
 18 40  1  0  0  0  0
 19 23  1  0  0  0  0
 19 20  1  0  0  0  0
 20 21  1  0  0  0  0
 20 41  1  0  0  0  0
 20 42  1  0  0  0  0
 21 22  1  0  0  0  0
 21 43  1  0  0  0  0
 21 44  1  0  0  0  0
 22 23  1  0  0  0  0
 22 45  1  0  0  0  0
 22 46  1  0  0  0  0
 23 47  1  0  0  0  0
 23 48  1  0  0  0  0
 24 49  1  0  0  0  0
M  END
> <s_m_source_file>
AV-unprocessed.smi

> <i_m_source_file_index>
2339

> <i_lp_mmshare_version>
43012

> <i_f3d_flags>
0

> <s_epik_input>
W0NIM11bQ0gyXW4xW2NIXVtjSF1jKD1PKWMoW2NIXTEpW05IXUMoPU8pW05IXVtDQEBIXTJbQ0BASF0oW0NIMl1bQ0gyXU8zKVtDQEBIXTNDMjRbQ0gyXVtDSDJdW0NIMl1bQ0gyXTQ=

> <s_epik_cmdline>
J2VwaWtfcHl0aG9uJywgJy1waCcsICc3LjAnLCAnLXRuJywgJzgnLCAnLW1hJywgJzIwMCcsICctbWV0YWxfYmluZGluZycsICctaW1hZScsICc8aW5maWxlLm1hZT4nLCAnLW9tYWUnLCAnPG91dGZpbGUubWFlPic=

> <r_lp_tautomer_probability>
1

> <r_epik_Ionization_Penalty>
0.00145966

> <r_epik_Ionization_Penalty_Charging>
0.00143969

> <r_epik_Ionization_Penalty_Neutral>
1.99697e-05

> <r_epik_State_Penalty>
0.000961843

> <r_epik_Charging_Adjusted_Penalty>
0.00240153

> <i_epik_Tot_Q>
0

> <i_epik_Tot_abs_Q>
0

> <r_epik_Metal_State_Penalty>
-0

> <b_epik_Metal_Only>
0

> <s_lp_Force_Field>
OPLS_2005

> <r_lp_Energy>
59.2385

> <b_lp_Chiralities_Consistent>
1

> <s_lp_Variant>
AV-unprocessed.smi:2339-7

> <Gold.Version>
5.8.1

> <Gold.Id.Protein>
6NUR|6NUR_protein|mol2

> <Gold.PLP.Fitness>
45.2939

> <Gold.PLP.PLP>
-39.7644

> <Gold.PLP.part.hbond>
-3.0000

> <Gold.PLP.part.metal>
0.0000

> <Gold.PLP.part.buried>
-5.1347

> <Gold.PLP.part.nonpolar>
-32.3680

> <Gold.PLP.part.repulsive>
0.2458

> <Gold.PLP.ligand.clash>
0.0000

> <Gold.PLP.ligand.torsion>
0.3364

> <Gold.PLP.Chemscore.Hbond>
2.0000

> <Gold.PLP.Chemscore.CHOScore>
0.0000

> <Gold.PLP.Chemscore.Metal>
0.0000

> <Gold.Chemscore.Hbonds>
donor molecule, donor type, donor heavy atom, donor atom, acceptor molecule, acceptor atom, score
      P1  H  6896  6907       L1     7  0.90
      P1  H  7997  8008       L1    17  1.00

> <Gold.PLP.Chemscore.Internal.Correction>
0.2022

> <Gold.Rescore>
     Score         DG    S(hbond)    S(metal)    S(lipo)     H(rot)  DE(clash)    DE(int)     intcor
     19.59     -20.04       1.44        0.00     108.77       1.17       0.10       0.34       ----

> <Gold.Chemscore.Fitness>
19.5904

> <Gold.Chemscore.DG>
-20.0370

> <Gold.Chemscore.ZeroCoef>
-5.4800

> <Gold.Chemscore.Hbond>
1.4427

> <Gold.Chemscore.Metal>
0.0000

> <Gold.Chemscore.Lipo>
108.7668

> <Gold.Chemscore.Internal_Hbond>
0.0000

> <Gold.Chemscore.DEClash>
0.1024

> <Gold.Chemscore.DEInternal>
0.3442

> <Gold.Chemscore.Rot>
1.1670

> <Gold.Chemscore.Internal.Correction>
   9.000000E+99

> <Gold.Chemscore.Hbonds>
donor molecule, donor type, donor heavy atom, donor atom, acceptor molecule, acceptor atom, score
      P1  H  6896  6907       L1     7  0.18
      P1  H  7997  8008       L1    17  0.39

> <Gold.Chemscore.Hbond.Weighted>
-4.8187

> <Gold.Chemscore.Metal.Weighted>
-0.0000

> <Gold.Chemscore.Lipo.Weighted>
-12.7257

> <Gold.Chemscore.Internal_Hbond.Weighted>
0.0000

> <Gold.Chemscore.DEClash.Weighted>
0.1024

> <Gold.Chemscore.DEInternal.Weighted>
0.3442

> <Gold.Chemscore.Rot.Weighted>
2.9874

> <Gold.Chemscore.Internal.Correction.Weighted>
   9.000000E+99

> <Gold.Protein.RotatedTorsions>
[ 6907 6896 6895 6894 ] final -109.22 input  -60.11 | X-H torsion
[ 7974 7965 7964 7962 ] final -175.41 input  175.53 | X-H torsion
[ 8008 7997 7996 7995 ] final  -54.15 input   59.86 | X-H torsion
[ 10167 10162 10161 10158 ] final  129.16 input  -65.29 | X-H torsion
[ 10718 10713 10712 10709 ] final  -93.84 input   66.30 | X-H torsion
[ 10763 10752 10751 10750 ] final  -48.79 input  -60.55 | X-H torsion
[ 11005 11000 10999 10996 ] final -106.20 input  -57.11 | X-H torsion

> <Gold.Protein.ActiveResidues>
 VAL166  LYS551  ARG553  GLY616  TRP617  ASP618  TYR619  PRO620  LYS621  CYS622 
 ASP623  PHE694  ASN695  SER759  ASP760  ASP761  ALA762  ILE779  LEU786  VAL792 
 PHE793  MET794  SER795  GLU796  ALA797  LYS798  CYS799  TRP800  GLU811  SER814 

> <Gold.Protein.RotatedAtoms>
  150.7548  133.9562  159.3500 H   0  0  0  0  0  0  0  0  0  0  0  0  # atno 6907 bound_to 6896
  151.7483  135.0836  160.0336 H   0  0  0  0  0  0  0  0  0  0  0  0  # atno 6908 bound_to 6896
  152.3483  133.6111  159.5962 H   0  0  0  0  0  0  0  0  0  0  0  0  # atno 6909 bound_to 6896
  144.7128  140.1325  143.6397 H   0  0  0  0  0  0  0  0  0  0  0  0  # atno 7974 bound_to 7965
  154.4154  140.1183  156.5269 H   0  0  0  0  0  0  0  0  0  0  0  0  # atno 8008 bound_to 7997
  155.6645  140.3496  155.4776 H   0  0  0  0  0  0  0  0  0  0  0  0  # atno 8009 bound_to 7997
  155.9685  140.1137  157.0823 H   0  0  0  0  0  0  0  0  0  0  0  0  # atno 8010 bound_to 7997
  139.5491  144.6798  151.4379 H   0  0  0  0  0  0  0  0  0  0  0  0  # atno 10167 bound_to 10162
  156.0018  130.5043  150.5836 H   0  0  0  0  0  0  0  0  0  0  0  0  # atno 10718 bound_to 10713
  154.0836  135.6587  153.4841 H   0  0  0  0  0  0  0  0  0  0  0  0  # atno 10763 bound_to 10752
  153.0347  135.5185  154.7450 H   0  0  0  0  0  0  0  0  0  0  0  0  # atno 10764 bound_to 10752
  154.6552  135.3007  154.9904 H   0  0  0  0  0  0  0  0  0  0  0  0  # atno 10765 bound_to 10752
  141.1016  133.8873  157.1827 H   0  0  0  0  0  0  0  0  0  0  0  0  # atno 11005 bound_to 11000
  145.9274  139.2584  143.1345 LP  0  0  0  0  0  0  0  0  0  0  0  0  # atno 17320 bound_to 7965
  145.9558  140.8874  143.0236 LP  0  0  0  0  0  0  0  0  0  0  0  0  # atno 17321 bound_to 7965
  140.6748  143.8213  150.7045 LP  0  0  0  0  0  0  0  0  0  0  0  0  # atno 17342 bound_to 10162
  140.1648  143.4244  152.2042 LP  0  0  0  0  0  0  0  0  0  0  0  0  # atno 17343 bound_to 10162
  157.3712  131.0766  151.1556 LP  0  0  0  0  0  0  0  0  0  0  0  0  # atno 17370 bound_to 10713
  157.2308  130.6524  149.5849 LP  0  0  0  0  0  0  0  0  0  0  0  0  # atno 17371 bound_to 10713
  139.9870  135.0078  156.9885 LP  0  0  0  0  0  0  0  0  0  0  0  0  # atno 17394 bound_to 11000
  140.5007  134.1100  155.7250 LP  0  0  0  0  0  0  0  0  0  0  0  0  # atno 17395 bound_to 11000

$$$$
