AV-unprocessed.smi:662|AV-procd|sdf|3243|dock6
  -GOLD-   22720 0193D 1   1.00000     0.00000
 Structure written by MMmdl.
 34 35  0  0  0  0  0  0  0  0  2 V2000
  143.9466  136.0842  152.2321 O   0  0  0  0  0  0  0  0  0  0  0  0
  145.0788  135.9002  151.7865 C   0  0  0  0  0  0  0  0  0  0  0  0
  146.1109  136.7121  152.0764 N   0  0  0  0  0  0  0  0  0  0  0  0
  146.0323  137.8838  152.9420 C   0  0  0  0  0  0  0  0  0  0  0  0
  146.6950  139.1113  152.2967 C   0  0  0  0  0  0  0  0  0  0  0  0
  147.5468  139.8679  153.2592 C   0  0  0  0  0  0  0  0  0  0  0  0
  148.5218  139.3050  153.9771 N   0  0  0  0  0  0  0  0  0  0  0  0
  149.1559  140.2108  154.8346 C   0  0  0  0  0  0  0  0  0  0  0  0
  150.2844  139.7448  155.7088 C   0  0  0  0  0  0  0  0  0  0  0  0
  150.8597  140.7616  156.3510 F   0  0  0  0  0  0  0  0  0  0  0  0
  149.8546  138.8814  156.6285 F   0  0  0  0  0  0  0  0  0  0  0  0
  151.2291  139.1375  154.9914 F   0  0  0  0  0  0  0  0  0  0  0  0
  148.6288  141.4774  154.7612 C   0  0  0  0  0  0  0  0  0  0  0  0
  147.3191  141.5751  153.6163 S   0  0  0  0  0  0  0  0  0  0  0  0
  145.3293  134.7029  150.8530 C   0  0  2  0  0  0  0  0  0  0  0  0
  144.0826  133.8168  150.7284 C   0  0  0  0  0  0  0  0  0  0  0  0
  144.6537  132.4700  150.3120 C   0  0  0  0  0  0  0  0  0  0  0  0
  145.9995  132.4072  151.0358 C   0  0  0  0  0  0  0  0  0  0  0  0
  146.4117  133.8004  151.3085 N   0  3  0  0  0  0  0  0  0  0  0  0
  147.0116  136.5141  151.6667 H   0  0  0  0  0  0  0  0  0  0  0  0
  144.9799  138.0909  153.1384 H   0  0  0  0  0  0  0  0  0  0  0  0
  146.4902  137.6666  153.9088 H   0  0  0  0  0  0  0  0  0  0  0  0
  147.3135  138.8102  151.4500 H   0  0  0  0  0  0  0  0  0  0  0  0
  145.9339  139.7856  151.9026 H   0  0  0  0  0  0  0  0  0  0  0  0
  148.9290  142.3557  155.3133 H   0  0  0  0  0  0  0  0  0  0  0  0
  145.6075  135.0788  149.8675 H   0  0  0  0  0  0  0  0  0  0  0  0
  143.5761  133.7152  151.6902 H   0  0  0  0  0  0  0  0  0  0  0  0
  143.3600  134.2034  150.0087 H   0  0  0  0  0  0  0  0  0  0  0  0
  143.9990  131.6334  150.5581 H   0  0  0  0  0  0  0  0  0  0  0  0
  144.8156  132.4622  149.2331 H   0  0  0  0  0  0  0  0  0  0  0  0
  145.8955  131.8883  151.9892 H   0  0  0  0  0  0  0  0  0  0  0  0
  146.7529  131.8810  150.4489 H   0  0  0  0  0  0  0  0  0  0  0  0
  147.2718  134.0245  150.8286 H   0  0  0  0  0  0  0  0  0  0  0  0
  146.5323  133.9082  152.3051 H   0  0  0  0  0  0  0  0  0  0  0  0
  1  2  2  0  0  0  0
  2  3  1  0  0  0  0
  2 15  1  0  0  0  0
  3  4  1  0  0  0  0
  3 20  1  0  0  0  0
  4  5  1  0  0  0  0
  4 21  1  0  0  0  0
  4 22  1  0  0  0  0
  5  6  1  0  0  0  0
  5 23  1  0  0  0  0
  5 24  1  0  0  0  0
  6 14  1  0  0  0  0
  6  7  2  0  0  0  0
  7  8  1  0  0  0  0
  8  9  1  0  0  0  0
  8 13  2  0  0  0  0
  9 10  1  0  0  0  0
  9 11  1  0  0  0  0
  9 12  1  0  0  0  0
 13 14  1  0  0  0  0
 13 25  1  0  0  0  0
 15 19  1  0  0  0  0
 15 16  1  0  0  0  0
 15 26  1  0  0  0  0
 16 17  1  0  0  0  0
 16 27  1  0  0  0  0
 16 28  1  0  0  0  0
 17 18  1  0  0  0  0
 17 29  1  0  0  0  0
 17 30  1  0  0  0  0
 18 19  1  0  0  0  0
 18 31  1  0  0  0  0
 18 32  1  0  0  0  0
 19 33  1  0  0  0  0
 19 34  1  0  0  0  0
M  CHG  1  19   1
M  END
> <s_m_source_file>
AV-unprocessed.smi

> <i_m_source_file_index>
662

> <i_lp_mmshare_version>
43012

> <i_f3d_flags>
0

> <s_epik_input>
W05IXTFbQ0gyXVtDSDJdW0NIMl1bQ0BIXTFDKD1PKVtOSF1bQ0gyXVtDSDJdYzJuYyhDKEYpKEYpRilbY0hdczI=

> <s_epik_cmdline>
J2VwaWtfcHl0aG9uJywgJy1waCcsICc3LjAnLCAnLXRuJywgJzgnLCAnLW1hJywgJzIwMCcsICctbWV0YWxfYmluZGluZycsICctaW1hZScsICc8aW5maWxlLm1hZT4nLCAnLW9tYWUnLCAnPG91dGZpbGUubWFlPic=

> <r_epik_Ionization_Penalty>
0.0382401

> <r_epik_Ionization_Penalty_Charging>
0.0382382

> <r_epik_Ionization_Penalty_Neutral>
1.85239e-06

> <r_epik_State_Penalty>
0.0320549

> <r_epik_Charging_Adjusted_Penalty>
0.0702931

> <i_epik_Tot_Q>
1

> <i_epik_Tot_abs_Q>
1

> <r_epik_Metal_State_Penalty>
0.0320549

> <b_epik_Metal_Only>
0

> <s_lp_Force_Field>
OPLS_2005

> <r_lp_Energy>
7.29414

> <b_lp_Chiralities_Consistent>
1

> <s_lp_Variant>
AV-unprocessed.smi:662-1

> <Gold.Version>
5.8.1

> <Gold.Id.Protein>
6NUR|6NUR_protein|mol2

> <Gold.PLP.Fitness>
41.3445

> <Gold.PLP.PLP>
-36.7643

> <Gold.PLP.part.hbond>
-1.0000

> <Gold.PLP.part.metal>
0.0000

> <Gold.PLP.part.buried>
-3.0738

> <Gold.PLP.part.nonpolar>
-33.5141

> <Gold.PLP.part.repulsive>
1.4945

> <Gold.PLP.ligand.clash>
0.0000

> <Gold.PLP.ligand.torsion>
0.5868

> <Gold.PLP.Chemscore.Hbond>
0.9120

> <Gold.PLP.Chemscore.CHOScore>
0.9986

> <Gold.PLP.Chemscore.Metal>
0.0000

> <Gold.Chemscore.Hbonds>
donor molecule, donor type, donor heavy atom, donor atom, acceptor molecule, acceptor atom, score
      L1  H     3    20       P1  7948  1.00
      L1  C    13    25       P1  8028  1.00

> <Gold.PLP.Chemscore.Internal.Correction>
0.0221

> <Gold.Rescore>
     Score         DG    S(hbond)    S(metal)    S(lipo)     H(rot)  DE(clash)    DE(int)     intcor
     12.04     -12.52       0.93        0.00      76.65       1.97       0.11       0.38       ----

> <Gold.Chemscore.Fitness>
12.0392

> <Gold.Chemscore.DG>
-12.5240

> <Gold.Chemscore.ZeroCoef>
-5.4800

> <Gold.Chemscore.Hbond>
0.9337

> <Gold.Chemscore.Metal>
0.0000

> <Gold.Chemscore.Lipo>
76.6475

> <Gold.Chemscore.Internal_Hbond>
0.0000

> <Gold.Chemscore.DEClash>
0.1051

> <Gold.Chemscore.DEInternal>
0.3797

> <Gold.Chemscore.Rot>
1.9697

> <Gold.Chemscore.Internal.Correction>
   9.000000E+99

> <Gold.Chemscore.Hbonds>
donor molecule, donor type, donor heavy atom, donor atom, acceptor molecule, acceptor atom, score
      L1  H     3    20       P1  7948  0.95

> <Gold.Chemscore.Hbond.Weighted>
-3.1186

> <Gold.Chemscore.Metal.Weighted>
-0.0000

> <Gold.Chemscore.Lipo.Weighted>
-8.9678

> <Gold.Chemscore.Internal_Hbond.Weighted>
0.0000

> <Gold.Chemscore.DEClash.Weighted>
0.1051

> <Gold.Chemscore.DEInternal.Weighted>
0.3797

> <Gold.Chemscore.Rot.Weighted>
5.0424

> <Gold.Chemscore.Internal.Correction.Weighted>
   9.000000E+99

> <Gold.Protein.RotatedTorsions>
[ 6907 6896 6895 6894 ] final   15.29 input  -60.11 | X-H torsion
[ 7974 7965 7964 7962 ] final -142.75 input  175.53 | X-H torsion
[ 8008 7997 7996 7995 ] final  -99.36 input   59.86 | X-H torsion
[ 10167 10162 10161 10158 ] final -156.48 input  -65.29 | X-H torsion
[ 10718 10713 10712 10709 ] final  127.58 input   66.30 | X-H torsion
[ 10763 10752 10751 10750 ] final  -64.94 input  -60.55 | X-H torsion
[ 11005 11000 10999 10996 ] final  160.50 input  -57.11 | X-H torsion

> <Gold.Protein.ActiveResidues>
 VAL166  LYS551  ARG553  GLY616  TRP617  ASP618  TYR619  PRO620  LYS621  CYS622 
 ASP623  PHE694  ASN695  SER759  ASP760  ASP761  ALA762  ILE779  LEU786  VAL792 
 PHE793  MET794  SER795  GLU796  ALA797  LYS798  CYS799  TRP800  GLU811  SER814 

> <Gold.Protein.RotatedAtoms>
  151.8157  135.0667  160.0418 H   0  0  0  0  0  0  0  0  0  0  0  0  # atno 6907 bound_to 6896
  152.2988  133.5630  159.5613 H   0  0  0  0  0  0  0  0  0  0  0  0  # atno 6908 bound_to 6896
  150.7263  134.0238  159.3752 H   0  0  0  0  0  0  0  0  0  0  0  0  # atno 6909 bound_to 6896
  144.8420  140.5919  143.5446 H   0  0  0  0  0  0  0  0  0  0  0  0  # atno 7974 bound_to 7965
  154.8138  140.0448  157.1362 H   0  0  0  0  0  0  0  0  0  0  0  0  # atno 8008 bound_to 7997
  154.9337  140.3043  155.5135 H   0  0  0  0  0  0  0  0  0  0  0  0  # atno 8009 bound_to 7997
  156.2974  140.2318  156.4400 H   0  0  0  0  0  0  0  0  0  0  0  0  # atno 8010 bound_to 7997
  139.6847  143.9522  152.2355 H   0  0  0  0  0  0  0  0  0  0  0  0  # atno 10167 bound_to 10162
  157.5320  131.1098  150.8994 H   0  0  0  0  0  0  0  0  0  0  0  0  # atno 10718 bound_to 10713
  154.3376  135.6163  153.5581 H   0  0  0  0  0  0  0  0  0  0  0  0  # atno 10763 bound_to 10752
  152.9806  135.5762  154.4890 H   0  0  0  0  0  0  0  0  0  0  0  0  # atno 10764 bound_to 10752
  154.4588  135.2855  155.1705 H   0  0  0  0  0  0  0  0  0  0  0  0  # atno 10765 bound_to 10752
  140.2066  134.8299  157.3075 H   0  0  0  0  0  0  0  0  0  0  0  0  # atno 11005 bound_to 11000
  145.4675  139.1506  143.3832 LP  0  0  0  0  0  0  0  0  0  0  0  0  # atno 17320 bound_to 7965
  146.2711  140.4807  142.8814 LP  0  0  0  0  0  0  0  0  0  0  0  0  # atno 17321 bound_to 7965
  139.9321  144.6735  150.8352 LP  0  0  0  0  0  0  0  0  0  0  0  0  # atno 17342 bound_to 10162
  140.7664  143.3301  151.2428 LP  0  0  0  0  0  0  0  0  0  0  0  0  # atno 17343 bound_to 10162
  156.9572  130.5442  149.5284 LP  0  0  0  0  0  0  0  0  0  0  0  0  # atno 17370 bound_to 10713
  156.0430  130.5510  150.8815 LP  0  0  0  0  0  0  0  0  0  0  0  0  # atno 17371 bound_to 10713
  140.1996  134.4271  155.7670 LP  0  0  0  0  0  0  0  0  0  0  0  0  # atno 17394 bound_to 11000
  141.2227  133.7066  156.8162 LP  0  0  0  0  0  0  0  0  0  0  0  0  # atno 17395 bound_to 11000

$$$$
