AV-unprocessed.smi:1783|AV-procd|sdf|7193|dock9
  -GOLD-   22720 8433D 1   1.00000     0.00000
 Structure written by MMmdl.
 30 31  0  0  0  0  0  0  0  0  1 V2000
  150.3903  142.4070  158.6490 O   0  0  0  0  0  0  0  0  0  0  0  0
  151.3174  142.7293  157.9063 C   0  0  0  0  0  0  0  0  0  0  0  0
  151.4855  142.2826  156.6453 N   0  0  0  0  0  0  0  0  0  0  0  0
  150.6892  141.4017  155.8949 C   0  0  0  0  0  0  0  0  0  0  0  0
  149.4195  141.6588  155.4853 C   0  0  0  0  0  0  0  0  0  0  0  0
  148.6545  140.7050  154.6995 C   0  0  0  0  0  0  0  0  0  0  0  0
  147.2052  140.9672  154.3205 C   0  0  0  0  0  0  0  0  0  0  0  0
  147.0332  140.7568  153.0162 F   0  0  0  0  0  0  0  0  0  0  0  0
  146.3773  140.1593  154.9846 F   0  0  0  0  0  0  0  0  0  0  0  0
  146.8620  142.2278  154.5861 F   0  0  0  0  0  0  0  0  0  0  0  0
  149.2678  139.5451  154.4001 C   0  0  0  0  0  0  0  0  0  0  0  0
  150.5807  139.2829  154.7972 N   0  0  0  0  0  0  0  0  0  0  0  0
  151.3385  140.1328  155.5261 C   0  0  0  0  0  0  0  0  0  0  0  0
  152.4884  139.8268  155.8395 O   0  0  0  0  0  0  0  0  0  0  0  0
  152.3937  143.7112  158.4117 C   0  0  1  0  0  0  0  0  0  0  0  0
  151.8410  145.0275  158.9680 C   0  0  0  0  0  0  0  0  0  0  0  0
  151.4358  144.6704  160.3888 C   0  0  0  0  0  0  0  0  0  0  0  0
  152.3114  143.4595  160.7284 C   0  0  0  0  0  0  0  0  0  0  0  0
  153.0644  143.1763  159.5501 O   0  0  0  0  0  0  0  0  0  0  0  0
  150.9764  138.3965  154.5186 H   0  0  0  0  0  0  0  0  0  0  0  0
  152.3313  142.5829  156.1812 H   0  0  0  0  0  0  0  0  0  0  0  0
  148.9417  142.5974  155.7131 H   0  0  0  0  0  0  0  0  0  0  0  0
  148.8076  138.7380  153.8493 H   0  0  0  0  0  0  0  0  0  0  0  0
  153.1049  143.8894  157.6046 H   0  0  0  0  0  0  0  0  0  0  0  0
  152.6378  145.7719  158.9891 H   0  0  0  0  0  0  0  0  0  0  0  0
  151.0190  145.4487  158.3880 H   0  0  0  0  0  0  0  0  0  0  0  0
  151.5874  145.5021  161.0774 H   0  0  0  0  0  0  0  0  0  0  0  0
  150.3820  144.3914  160.4265 H   0  0  0  0  0  0  0  0  0  0  0  0
  152.9849  143.6605  161.5620 H   0  0  0  0  0  0  0  0  0  0  0  0
  151.6960  142.5981  160.9911 H   0  0  0  0  0  0  0  0  0  0  0  0
  1  2  2  0  0  0  0
  2  3  1  0  0  0  0
  2 15  1  0  0  0  0
  3  4  1  0  0  0  0
  3 21  1  0  0  0  0
  4 13  1  0  0  0  0
  4  5  2  0  0  0  0
  5  6  1  0  0  0  0
  5 22  1  0  0  0  0
  6  7  1  0  0  0  0
  6 11  2  0  0  0  0
  7  8  1  0  0  0  0
  7  9  1  0  0  0  0
  7 10  1  0  0  0  0
 11 12  1  0  0  0  0
 11 23  1  0  0  0  0
 12 20  1  0  0  0  0
 12 13  1  0  0  0  0
 13 14  2  0  0  0  0
 15 19  1  0  0  0  0
 15 16  1  0  0  0  0
 15 24  1  0  0  0  0
 16 17  1  0  0  0  0
 16 25  1  0  0  0  0
 16 26  1  0  0  0  0
 17 18  1  0  0  0  0
 17 27  1  0  0  0  0
 17 28  1  0  0  0  0
 18 19  1  0  0  0  0
 18 29  1  0  0  0  0
 18 30  1  0  0  0  0
M  END
> <s_m_source_file>
AV-unprocessed.smi

> <i_m_source_file_index>
1783

> <i_lp_mmshare_version>
43012

> <i_f3d_flags>
0

> <s_epik_input>
TzFbQ0gyXVtDSDJdW0NIMl1bQ0BIXTFDKD1PKVtOSF1jMltjSF1jKEMoRikoRilGKVtjSF1bbkhdYzI9Tw==

> <s_epik_cmdline>
J2VwaWtfcHl0aG9uJywgJy1waCcsICc3LjAnLCAnLXRuJywgJzgnLCAnLW1hJywgJzIwMCcsICctbWV0YWxfYmluZGluZycsICctaW1hZScsICc8aW5maWxlLm1hZT4nLCAnLW9tYWUnLCAnPG91dGZpbGUubWFlPic=

> <r_lp_tautomer_probability>
0.999

> <r_epik_Ionization_Penalty>
0.00885957

> <r_epik_Ionization_Penalty_Charging>
0.00885947

> <r_epik_Ionization_Penalty_Neutral>
9.33956e-08

> <r_epik_State_Penalty>
0.00669851

> <r_epik_Charging_Adjusted_Penalty>
0.015558

> <i_epik_Tot_Q>
0

> <i_epik_Tot_abs_Q>
0

> <r_epik_Metal_State_Penalty>
0.320804

> <b_epik_Metal_Only>
0

> <s_lp_Force_Field>
OPLS_2005

> <r_lp_Energy>
32.0123

> <b_lp_Chiralities_Consistent>
1

> <s_lp_Variant>
AV-unprocessed.smi:1783-2

> <Gold.Version>
5.8.1

> <Gold.Id.Protein>
6NUR|6NUR_protein|mol2

> <Gold.PLP.Fitness>
41.4711

> <Gold.PLP.PLP>
-40.1601

> <Gold.PLP.part.hbond>
-1.0000

> <Gold.PLP.part.metal>
0.0000

> <Gold.PLP.part.buried>
-1.6703

> <Gold.PLP.part.nonpolar>
-37.0040

> <Gold.PLP.part.repulsive>
0.2730

> <Gold.PLP.ligand.clash>
0.0000

> <Gold.PLP.ligand.torsion>
0.8789

> <Gold.PLP.Chemscore.Hbond>
1.0000

> <Gold.PLP.Chemscore.CHOScore>
0.0000

> <Gold.PLP.Chemscore.Metal>
0.0000

> <Gold.Chemscore.Hbonds>
donor molecule, donor type, donor heavy atom, donor atom, acceptor molecule, acceptor atom, score
      P1  H  7997  8010       L1    14  1.00

> <Gold.PLP.Chemscore.Internal.Correction>
0.0688

> <Gold.Rescore>
     Score         DG    S(hbond)    S(metal)    S(lipo)     H(rot)  DE(clash)    DE(int)     intcor
     12.48     -15.55       1.00        0.00      79.42       1.00       0.58       2.49       ----

> <Gold.Chemscore.Fitness>
12.4833

> <Gold.Chemscore.DG>
-15.5520

> <Gold.Chemscore.ZeroCoef>
-5.4800

> <Gold.Chemscore.Hbond>
0.9999

> <Gold.Chemscore.Metal>
0.0000

> <Gold.Chemscore.Lipo>
79.4203

> <Gold.Chemscore.Internal_Hbond>
0.0000

> <Gold.Chemscore.DEClash>
0.5764

> <Gold.Chemscore.DEInternal>
2.4922

> <Gold.Chemscore.Rot>
1.0000

> <Gold.Chemscore.Internal.Correction>
   9.000000E+99

> <Gold.Chemscore.Hbonds>
donor molecule, donor type, donor heavy atom, donor atom, acceptor molecule, acceptor atom, score
      P1  H  7997  8010       L1    14  0.99

> <Gold.Chemscore.Hbond.Weighted>
-3.3398

> <Gold.Chemscore.Metal.Weighted>
-0.0000

> <Gold.Chemscore.Lipo.Weighted>
-9.2922

> <Gold.Chemscore.Internal_Hbond.Weighted>
0.0000

> <Gold.Chemscore.DEClash.Weighted>
0.5764

> <Gold.Chemscore.DEInternal.Weighted>
2.4922

> <Gold.Chemscore.Rot.Weighted>
2.5600

> <Gold.Chemscore.Internal.Correction.Weighted>
   9.000000E+99

> <Gold.Protein.RotatedTorsions>
[ 6907 6896 6895 6894 ] final  179.03 input  -60.11 | X-H torsion
[ 7974 7965 7964 7962 ] final   14.00 input  175.53 | X-H torsion
[ 8008 7997 7996 7995 ] final   93.80 input   59.86 | X-H torsion
[ 10167 10162 10161 10158 ] final   34.33 input  -65.29 | X-H torsion
[ 10718 10713 10712 10709 ] final -108.00 input   66.30 | X-H torsion
[ 10763 10752 10751 10750 ] final  -82.66 input  -60.55 | X-H torsion
[ 11005 11000 10999 10996 ] final  -22.22 input  -57.11 | X-H torsion

> <Gold.Protein.ActiveResidues>
 VAL166  LYS551  ARG553  GLY616  TRP617  ASP618  TYR619  PRO620  LYS621  CYS622 
 ASP623  PHE694  ASN695  SER759  ASP760  ASP761  ALA762  ILE779  LEU786  VAL792 
 PHE793  MET794  SER795  GLU796  ALA797  LYS798  CYS799  TRP800  GLU811  SER814 

> <Gold.Protein.RotatedAtoms>
  151.6782  133.3312  159.3212 H   0  0  0  0  0  0  0  0  0  0  0  0  # atno 6907 bound_to 6896
  150.7835  134.6804  159.6450 H   0  0  0  0  0  0  0  0  0  0  0  0  # atno 6908 bound_to 6896
  152.3899  134.6461  160.0163 H   0  0  0  0  0  0  0  0  0  0  0  0  # atno 6909 bound_to 6896
  146.2316  139.9105  142.8525 H   0  0  0  0  0  0  0  0  0  0  0  0  # atno 7974 bound_to 7965
  156.0508  140.3308  155.7349 H   0  0  0  0  0  0  0  0  0  0  0  0  # atno 8008 bound_to 7997
  155.5603  140.0618  157.2848 H   0  0  0  0  0  0  0  0  0  0  0  0  # atno 8009 bound_to 7997
  154.4435  140.1878  156.0764 H   0  0  0  0  0  0  0  0  0  0  0  0  # atno 8010 bound_to 7997
  140.4325  144.1304  150.6161 H   0  0  0  0  0  0  0  0  0  0  0  0  # atno 10167 bound_to 10162
  156.0464  130.5691  150.7900 H   0  0  0  0  0  0  0  0  0  0  0  0  # atno 10718 bound_to 10713
  154.5784  135.5583  153.7161 H   0  0  0  0  0  0  0  0  0  0  0  0  # atno 10763 bound_to 10752
  153.0073  135.6314  154.2017 H   0  0  0  0  0  0  0  0  0  0  0  0  # atno 10764 bound_to 10752
  154.1957  135.2880  155.2987 H   0  0  0  0  0  0  0  0  0  0  0  0  # atno 10765 bound_to 10752
  140.8636  133.7770  156.0104 H   0  0  0  0  0  0  0  0  0  0  0  0  # atno 11005 bound_to 11000
  145.2234  140.9944  143.4032 LP  0  0  0  0  0  0  0  0  0  0  0  0  # atno 17320 bound_to 7965
  144.9591  139.3999  143.6365 LP  0  0  0  0  0  0  0  0  0  0  0  0  # atno 17321 bound_to 7965
  140.4411  143.2526  151.9472 LP  0  0  0  0  0  0  0  0  0  0  0  0  # atno 17342 bound_to 10162
  139.4785  144.5653  151.8174 LP  0  0  0  0  0  0  0  0  0  0  0  0  # atno 17343 bound_to 10162
  157.5343  131.0938  150.9913 LP  0  0  0  0  0  0  0  0  0  0  0  0  # atno 17370 bound_to 10713
  157.0212  130.5674  149.5331 LP  0  0  0  0  0  0  0  0  0  0  0  0  # atno 17371 bound_to 10713
  140.8654  134.2790  157.5215 LP  0  0  0  0  0  0  0  0  0  0  0  0  # atno 17394 bound_to 11000
  139.8708  134.9540  156.4162 LP  0  0  0  0  0  0  0  0  0  0  0  0  # atno 17395 bound_to 11000

$$$$
