AV-unprocessed.smi:3263|AV-procd|sdf|12491|dock3
  -GOLD-   2272018393D 1   1.00000     0.00000
 Structure written by MMmdl.
 42 44  0  0  0  0  0  0  0  0  2 V2000
  151.2267  140.9504  156.4349 O   0  0  0  0  0  0  0  0  0  0  0  0
  150.6065  142.0068  156.3110 C   0  0  0  0  0  0  0  0  0  0  0  0
  151.1257  143.3065  156.9398 C   0  0  0  0  0  0  0  0  0  0  0  0
  151.1365  143.3000  158.4864 C   0  0  1  0  0  0  0  0  0  0  0  0
  151.6742  141.9923  159.1184 C   0  0  0  0  0  0  0  0  0  0  0  0
  152.8046  142.4857  160.0390 C   0  0  2  0  0  0  0  0  0  0  0  0
  152.2010  143.2568  161.2272 C   0  0  0  0  0  0  0  0  0  0  0  0
  151.7287  144.5694  160.5743 C   0  0  0  0  0  0  0  0  0  0  0  0
  152.0883  144.3588  159.0909 C   0  0  1  0  0  0  0  0  0  0  0  0
  153.4108  143.6068  159.2053 C   0  0  0  0  0  0  0  0  0  0  0  0
  149.4520  142.0993  155.6330 N   0  0  0  0  0  0  0  0  0  0  0  0
  148.7828  140.9882  154.9662 C   0  0  0  0  0  0  0  0  0  0  0  0
  147.9130  141.4703  153.7924 C   0  0  0  0  0  0  0  0  0  0  0  0
  146.6644  142.1918  154.2607 C   0  0  0  0  0  0  0  0  0  0  0  0
  146.1531  143.3216  153.5857 C   0  0  0  0  0  0  0  0  0  0  0  0
  144.9898  143.9499  154.0774 C   0  0  0  0  0  0  0  0  0  0  0  0
  144.3639  143.4371  155.2324 C   0  0  0  0  0  0  0  0  0  0  0  0
  144.9183  142.3072  155.8678 C   0  0  0  0  0  0  0  0  0  0  0  0
  146.0346  141.7336  155.3666 N   0  3  0  0  0  0  0  0  0  0  0  0
  152.1241  143.5061  156.5497 H   0  0  0  0  0  0  0  0  0  0  0  0
  150.4943  144.1273  156.5962 H   0  0  0  0  0  0  0  0  0  0  0  0
  150.1199  143.4913  158.8349 H   0  0  0  0  0  0  0  0  0  0  0  0
  150.9026  141.4477  159.6637 H   0  0  0  0  0  0  0  0  0  0  0  0
  152.0777  141.3204  158.3598 H   0  0  0  0  0  0  0  0  0  0  0  0
  153.5020  141.7010  160.3339 H   0  0  0  0  0  0  0  0  0  0  0  0
  151.3846  142.7103  161.7007 H   0  0  0  0  0  0  0  0  0  0  0  0
  152.9567  143.4569  161.9878 H   0  0  0  0  0  0  0  0  0  0  0  0
  150.6644  144.7528  160.7260 H   0  0  0  0  0  0  0  0  0  0  0  0
  152.2738  145.4192  160.9870 H   0  0  0  0  0  0  0  0  0  0  0  0
  152.1354  145.2897  158.5248 H   0  0  0  0  0  0  0  0  0  0  0  0
  154.1844  144.1681  159.7328 H   0  0  0  0  0  0  0  0  0  0  0  0
  153.8071  143.2694  158.2464 H   0  0  0  0  0  0  0  0  0  0  0  0
  149.0078  143.0046  155.5746 H   0  0  0  0  0  0  0  0  0  0  0  0
  149.5483  140.2998  154.6073 H   0  0  0  0  0  0  0  0  0  0  0  0
  148.1789  140.4334  155.6867 H   0  0  0  0  0  0  0  0  0  0  0  0
  148.4832  142.1408  153.1480 H   0  0  0  0  0  0  0  0  0  0  0  0
  147.6205  140.6232  153.1704 H   0  0  0  0  0  0  0  0  0  0  0  0
  146.6452  143.7039  152.7030 H   0  0  0  0  0  0  0  0  0  0  0  0
  144.5828  144.8151  153.5748 H   0  0  0  0  0  0  0  0  0  0  0  0
  143.4720  143.9035  155.6249 H   0  0  0  0  0  0  0  0  0  0  0  0
  144.5060  141.8485  156.7547 H   0  0  0  0  0  0  0  0  0  0  0  0
  146.4183  140.9171  155.8430 H   0  0  0  0  0  0  0  0  0  0  0  0
  1  2  2  0  0  0  0
  2  3  1  0  0  0  0
  2 11  1  0  0  0  0
  3  4  1  0  0  0  0
  3 20  1  0  0  0  0
  3 21  1  0  0  0  0
  4  9  1  0  0  0  0
  4  5  1  0  0  0  0
  4 22  1  0  0  0  0
  5  6  1  0  0  0  0
  5 23  1  0  0  0  0
  5 24  1  0  0  0  0
  6 10  1  0  0  0  0
  6  7  1  0  0  0  0
  6 25  1  0  0  0  0
  7  8  1  0  0  0  0
  7 26  1  0  0  0  0
  7 27  1  0  0  0  0
  8  9  1  0  0  0  0
  8 28  1  0  0  0  0
  8 29  1  0  0  0  0
  9 10  1  0  0  0  0
  9 30  1  0  0  0  0
 10 31  1  0  0  0  0
 10 32  1  0  0  0  0
 11 12  1  0  0  0  0
 11 33  1  0  0  0  0
 12 13  1  0  0  0  0
 12 34  1  0  0  0  0
 12 35  1  0  0  0  0
 13 14  1  0  0  0  0
 13 36  1  0  0  0  0
 13 37  1  0  0  0  0
 14 19  1  0  0  0  0
 14 15  2  0  0  0  0
 15 16  1  0  0  0  0
 15 38  1  0  0  0  0
 16 17  2  0  0  0  0
 16 39  1  0  0  0  0
 17 18  1  0  0  0  0
 17 40  1  0  0  0  0
 18 19  2  0  0  0  0
 18 41  1  0  0  0  0
 19 42  1  0  0  0  0
M  CHG  1  19   1
M  END
> <s_m_source_file>
AV-unprocessed.smi

> <i_m_source_file_index>
3263

> <i_lp_mmshare_version>
43012

> <i_f3d_flags>
0

> <s_epik_input>
W0NIMl0xW0NIMl1bQ0BASF0oW0NIMl0yKVtDQEBIXShbQ0gyXVtDQEhdMTIpW0NIMl1DKD1PKVtOSF1bQ0gyXVtDSDJdYzNbY0hdW2NIXVtjSF1bY0hdbjM=

> <s_epik_cmdline>
J2VwaWtfcHl0aG9uJywgJy1waCcsICc3LjAnLCAnLXRuJywgJzgnLCAnLW1hJywgJzIwMCcsICctbWV0YWxfYmluZGluZycsICctaW1hZScsICc8aW5maWxlLm1hZT4nLCAnLW9tYWUnLCAnPG91dGZpbGUubWFlPic=

> <r_epik_Ionization_Penalty>
1.83579

> <r_epik_Ionization_Penalty_Charging>
1.83579

> <r_epik_Ionization_Penalty_Neutral>
2.47288e-08

> <r_epik_State_Penalty>
1.95213

> <r_epik_Charging_Adjusted_Penalty>
3.78793

> <i_epik_Tot_Q>
1

> <i_epik_Tot_abs_Q>
1

> <r_epik_Metal_State_Penalty>
1.97847

> <b_epik_Metal_Only>
0

> <s_lp_Force_Field>
OPLS_2005

> <r_lp_Energy>
52.562

> <b_lp_Chiralities_Consistent>
1

> <s_lp_Variant>
AV-unprocessed.smi:3263-6

> <Gold.Version>
5.8.1

> <Gold.Id.Protein>
6NUR|6NUR_protein|mol2

> <Gold.PLP.Fitness>
48.5872

> <Gold.PLP.PLP>
-46.9879

> <Gold.PLP.part.hbond>
-1.0000

> <Gold.PLP.part.metal>
0.0000

> <Gold.PLP.part.buried>
-4.8711

> <Gold.PLP.part.nonpolar>
-40.6847

> <Gold.PLP.part.repulsive>
0.1704

> <Gold.PLP.ligand.clash>
0.0000

> <Gold.PLP.ligand.torsion>
0.7302

> <Gold.PLP.Chemscore.Hbond>
1.0000

> <Gold.PLP.Chemscore.CHOScore>
0.0000

> <Gold.PLP.Chemscore.Metal>
0.0000

> <Gold.Chemscore.Hbonds>
donor molecule, donor type, donor heavy atom, donor atom, acceptor molecule, acceptor atom, score
      L1  H    11    33       P1  8028  1.00

> <Gold.PLP.Chemscore.Internal.Correction>
0.0598

> <Gold.Rescore>
     Score         DG    S(hbond)    S(metal)    S(lipo)     H(rot)  DE(clash)    DE(int)     intcor
     18.14     -20.15       0.99        0.00     131.33       1.56       0.45       1.56       ----

> <Gold.Chemscore.Fitness>
18.1429

> <Gold.Chemscore.DG>
-20.1534

> <Gold.Chemscore.ZeroCoef>
-5.4800

> <Gold.Chemscore.Hbond>
0.9915

> <Gold.Chemscore.Metal>
0.0000

> <Gold.Chemscore.Lipo>
131.3306

> <Gold.Chemscore.Internal_Hbond>
0.0000

> <Gold.Chemscore.DEClash>
0.4477

> <Gold.Chemscore.DEInternal>
1.5628

> <Gold.Chemscore.Rot>
1.5640

> <Gold.Chemscore.Internal.Correction>
   9.000000E+99

> <Gold.Chemscore.Hbonds>
donor molecule, donor type, donor heavy atom, donor atom, acceptor molecule, acceptor atom, score
      L1  H    11    33       P1  8028  0.99

> <Gold.Chemscore.Hbond.Weighted>
-3.3115

> <Gold.Chemscore.Metal.Weighted>
-0.0000

> <Gold.Chemscore.Lipo.Weighted>
-15.3657

> <Gold.Chemscore.Internal_Hbond.Weighted>
0.0000

> <Gold.Chemscore.DEClash.Weighted>
0.4477

> <Gold.Chemscore.DEInternal.Weighted>
1.5628

> <Gold.Chemscore.Rot.Weighted>
4.0038

> <Gold.Chemscore.Internal.Correction.Weighted>
   9.000000E+99

> <Gold.Protein.RotatedTorsions>
[ 6907 6896 6895 6894 ] final   59.28 input  -60.11 | X-H torsion
[ 7974 7965 7964 7962 ] final   21.59 input  175.53 | X-H torsion
[ 8008 7997 7996 7995 ] final  100.39 input   59.86 | X-H torsion
[ 10167 10162 10161 10158 ] final -177.76 input  -65.29 | X-H torsion
[ 10718 10713 10712 10709 ] final  179.58 input   66.30 | X-H torsion
[ 10763 10752 10751 10750 ] final  176.35 input  -60.55 | X-H torsion
[ 11005 11000 10999 10996 ] final   56.15 input  -57.11 | X-H torsion

> <Gold.Protein.ActiveResidues>
 VAL166  LYS551  ARG553  GLY616  TRP617  ASP618  TYR619  PRO620  LYS621  CYS622 
 ASP623  PHE694  ASN695  SER759  ASP760  ASP761  ALA762  ILE779  LEU786  VAL792 
 PHE793  MET794  SER795  GLU796  ALA797  LYS798  CYS799  TRP800  GLU811  SER814 

> <Gold.Protein.RotatedAtoms>
  152.3900  134.6456  160.0110 H   0  0  0  0  0  0  0  0  0  0  0  0  # atno 6907 bound_to 6896
  151.6693  133.3309  159.3200 H   0  0  0  0  0  0  0  0  0  0  0  0  # atno 6908 bound_to 6896
  150.7818  134.6813  159.6490 H   0  0  0  0  0  0  0  0  0  0  0  0  # atno 6909 bound_to 6896
  146.2065  139.8005  142.8722 H   0  0  0  0  0  0  0  0  0  0  0  0  # atno 7974 bound_to 7965
  156.1199  140.3214  155.8192 H   0  0  0  0  0  0  0  0  0  0  0  0  # atno 8008 bound_to 7997
  155.4524  140.0533  157.3017 H   0  0  0  0  0  0  0  0  0  0  0  0  # atno 8009 bound_to 7997
  154.4819  140.2057  155.9757 H   0  0  0  0  0  0  0  0  0  0  0  0  # atno 8010 bound_to 7997
  139.5464  144.2223  152.0997 H   0  0  0  0  0  0  0  0  0  0  0  0  # atno 10167 bound_to 10162
  156.8736  130.9792  151.3070 H   0  0  0  0  0  0  0  0  0  0  0  0  # atno 10718 bound_to 10713
  154.4799  135.2774  155.1578 H   0  0  0  0  0  0  0  0  0  0  0  0  # atno 10763 bound_to 10752
  154.3293  135.6193  153.5547 H   0  0  0  0  0  0  0  0  0  0  0  0  # atno 10764 bound_to 10752
  152.9874  135.5761  154.5198 H   0  0  0  0  0  0  0  0  0  0  0  0  # atno 10765 bound_to 10752
  140.0551  134.5681  155.9217 H   0  0  0  0  0  0  0  0  0  0  0  0  # atno 11005 bound_to 11000
  145.3301  141.0264  143.3451 LP  0  0  0  0  0  0  0  0  0  0  0  0  # atno 17320 bound_to 7965
  144.8805  139.4911  143.6725 LP  0  0  0  0  0  0  0  0  0  0  0  0  # atno 17321 bound_to 7965
  140.1710  144.4935  150.6579 LP  0  0  0  0  0  0  0  0  0  0  0  0  # atno 17342 bound_to 10162
  140.6714  143.2287  151.5616 LP  0  0  0  0  0  0  0  0  0  0  0  0  # atno 17343 bound_to 10162
  157.6181  130.8634  149.9062 LP  0  0  0  0  0  0  0  0  0  0  0  0  # atno 17370 bound_to 10713
  156.0713  130.3685  150.0769 LP  0  0  0  0  0  0  0  0  0  0  0  0  # atno 17371 bound_to 10713
  141.1948  133.6584  156.5614 LP  0  0  0  0  0  0  0  0  0  0  0  0  # atno 17394 bound_to 11000
  140.3856  134.7485  157.4689 LP  0  0  0  0  0  0  0  0  0  0  0  0  # atno 17395 bound_to 11000

$$$$
