AV-unprocessed.smi:2002|AV-procd|sdf|8114|dock8
  -GOLD-   2272010343D 1   1.00000     0.00000
 Structure written by MMmdl.
 39 40  0  0  0  0  0  0  0  0  2 V2000
  145.9067  132.0988  149.6143 C   0  0  0  0  0  0  0  0  0  0  0  0
  145.7325  132.1165  151.1390 C   0  0  0  0  0  0  0  0  0  0  0  0
  147.0001  131.8214  151.8468 N   0  3  2  0  0  0  0  0  0  0  0  0
  146.8773  130.7936  152.9026 C   0  0  0  0  0  0  0  0  0  0  0  0
  147.9532  131.1371  153.9291 C   0  0  0  0  0  0  0  0  0  0  0  0
  147.9412  132.6628  153.9210 C   0  0  1  0  0  0  0  0  0  0  0  0
  149.2061  133.3020  154.5256 C   0  0  0  0  0  0  0  0  0  0  0  0
  149.3411  134.7075  154.1532 N   0  0  0  0  0  0  0  0  0  0  0  0
  149.9181  135.6606  154.8997 C   0  0  0  0  0  0  0  0  0  0  0  0
  150.4156  135.4466  156.0050 O   0  0  0  0  0  0  0  0  0  0  0  0
  149.8828  136.8520  154.2796 N   0  0  0  0  0  0  0  0  0  0  0  0
  150.4024  138.0944  154.7270 C   0  0  0  0  0  0  0  0  0  0  0  0
  149.7219  139.0536  155.5323 C   0  0  0  0  0  0  0  0  0  0  0  0
  150.6489  140.0473  155.6736 C   0  0  0  0  0  0  0  0  0  0  0  0
  150.6314  141.3560  156.3859 C   0  0  0  0  0  0  0  0  0  0  0  0
  151.7944  139.7244  155.0150 O   0  0  0  0  0  0  0  0  0  0  0  0
  151.6275  138.4724  154.4116 N   0  0  0  0  0  0  0  0  0  0  0  0
  147.6776  132.9984  152.4438 C   0  0  0  0  0  0  0  0  0  0  0  0
  144.9533  132.2750  149.1159 H   0  0  0  0  0  0  0  0  0  0  0  0
  146.2856  131.1354  149.2718 H   0  0  0  0  0  0  0  0  0  0  0  0
  146.5992  132.8702  149.2773 H   0  0  0  0  0  0  0  0  0  0  0  0
  145.3366  133.0779  151.4691 H   0  0  0  0  0  0  0  0  0  0  0  0
  144.9943  131.3616  151.4132 H   0  0  0  0  0  0  0  0  0  0  0  0
  145.8943  130.8605  153.3727 H   0  0  0  0  0  0  0  0  0  0  0  0
  146.9882  129.7871  152.4978 H   0  0  0  0  0  0  0  0  0  0  0  0
  147.7464  130.7163  154.9136 H   0  0  0  0  0  0  0  0  0  0  0  0
  148.9218  130.7613  153.5958 H   0  0  0  0  0  0  0  0  0  0  0  0
  147.0744  132.9856  154.5009 H   0  0  0  0  0  0  0  0  0  0  0  0
  149.1504  133.2565  155.6133 H   0  0  0  0  0  0  0  0  0  0  0  0
  150.0971  132.7377  154.2444 H   0  0  0  0  0  0  0  0  0  0  0  0
  148.9563  134.9764  153.2590 H   0  0  0  0  0  0  0  0  0  0  0  0
  149.4371  136.8746  153.3742 H   0  0  0  0  0  0  0  0  0  0  0  0
  148.7247  139.0352  155.9449 H   0  0  0  0  0  0  0  0  0  0  0  0
  149.6266  141.5960  156.7341 H   0  0  0  0  0  0  0  0  0  0  0  0
  150.9616  142.1598  155.7278 H   0  0  0  0  0  0  0  0  0  0  0  0
  151.2932  141.3326  157.2515 H   0  0  0  0  0  0  0  0  0  0  0  0
  148.6125  133.1437  151.9023 H   0  0  0  0  0  0  0  0  0  0  0  0
  147.0970  133.9172  152.3504 H   0  0  0  0  0  0  0  0  0  0  0  0
  147.6406  131.4449  151.1623 H   0  0  0  0  0  0  0  0  0  0  0  0
  1  2  1  0  0  0  0
  1 19  1  0  0  0  0
  1 20  1  0  0  0  0
  1 21  1  0  0  0  0
  2  3  1  0  0  0  0
  2 22  1  0  0  0  0
  2 23  1  0  0  0  0
  3 18  1  0  0  0  0
  3  4  1  0  0  0  0
  3 39  1  0  0  0  0
  4  5  1  0  0  0  0
  4 24  1  0  0  0  0
  4 25  1  0  0  0  0
  5  6  1  0  0  0  0
  5 26  1  0  0  0  0
  5 27  1  0  0  0  0
  6  7  1  0  0  0  0
  6 18  1  0  0  0  0
  6 28  1  0  0  0  0
  7  8  1  0  0  0  0
  7 29  1  0  0  0  0
  7 30  1  0  0  0  0
  8  9  1  0  0  0  0
  8 31  1  0  0  0  0
  9 10  2  0  0  0  0
  9 11  1  0  0  0  0
 11 12  1  0  0  0  0
 11 32  1  0  0  0  0
 12 17  2  0  0  0  0
 12 13  1  0  0  0  0
 13 14  2  0  0  0  0
 13 33  1  0  0  0  0
 14 15  1  0  0  0  0
 14 16  1  0  0  0  0
 15 34  1  0  0  0  0
 15 35  1  0  0  0  0
 15 36  1  0  0  0  0
 16 17  1  0  0  0  0
 18 37  1  0  0  0  0
 18 38  1  0  0  0  0
M  CHG  1   3   1
M  END
> <s_m_source_file>
AV-unprocessed.smi

> <i_m_source_file_index>
2002

> <i_lp_mmshare_version>
43012

> <i_f3d_flags>
0

> <s_epik_input>
W0NIM11bQ0gyXU4xW0NIMl1bQ0gyXVtDQEhdKFtDSDJdMSlbQ0gyXVtOSF1DKD1PKVtOSF1jMltjSF1jKFtDSDNdKW9uMg==

> <s_epik_cmdline>
J2VwaWtfcHl0aG9uJywgJy1waCcsICc3LjAnLCAnLXRuJywgJzgnLCAnLW1hJywgJzIwMCcsICctbWV0YWxfYmluZGluZycsICctaW1hZScsICc8aW5maWxlLm1hZT4nLCAnLW9tYWUnLCAnPG91dGZpbGUubWFlPic=

> <r_epik_Ionization_Penalty>
0.000632871

> <r_epik_Ionization_Penalty_Charging>
0.000610951

> <r_epik_Ionization_Penalty_Neutral>
2.19198e-05

> <r_epik_State_Penalty>
0.000385263

> <r_epik_Charging_Adjusted_Penalty>
0.000996214

> <i_epik_Tot_Q>
1

> <i_epik_Tot_abs_Q>
1

> <r_epik_Metal_State_Penalty>
-0

> <b_epik_Metal_Only>
0

> <s_lp_Force_Field>
OPLS_2005

> <r_lp_Energy>
27.554

> <b_lp_Chiralities_Consistent>
1

> <s_lp_Variant>
AV-unprocessed.smi:2002-2

> <Gold.Version>
5.8.1

> <Gold.Id.Protein>
6NUR|6NUR_protein|mol2

> <Gold.PLP.Fitness>
40.1357

> <Gold.PLP.PLP>
-31.7306

> <Gold.PLP.part.hbond>
-4.5669

> <Gold.PLP.part.metal>
0.0000

> <Gold.PLP.part.buried>
-3.7463

> <Gold.PLP.part.nonpolar>
-24.4623

> <Gold.PLP.part.repulsive>
0.2886

> <Gold.PLP.ligand.clash>
0.0000

> <Gold.PLP.ligand.torsion>
1.7185

> <Gold.PLP.Chemscore.Hbond>
3.9440

> <Gold.PLP.Chemscore.CHOScore>
0.0000

> <Gold.PLP.Chemscore.Metal>
0.0000

> <Gold.Chemscore.Hbonds>
donor molecule, donor type, donor heavy atom, donor atom, acceptor molecule, acceptor atom, score
      L1  H     3    39       P1 10747  1.00
      L1  H     8    31       P1  7948  0.94
      L1  H    11    32       P1  7948  1.00
      P1  H  7989  7998       L1    16  1.00

> <Gold.PLP.Chemscore.Internal.Correction>
0.0101

> <Gold.Rescore>
     Score         DG    S(hbond)    S(metal)    S(lipo)     H(rot)  DE(clash)    DE(int)     intcor
     16.45     -17.96       2.77        0.00      60.79       1.52       0.03       1.48       ----

> <Gold.Chemscore.Fitness>
16.4520

> <Gold.Chemscore.DG>
-17.9571

> <Gold.Chemscore.ZeroCoef>
-5.4800

> <Gold.Chemscore.Hbond>
2.7730

> <Gold.Chemscore.Metal>
0.0000

> <Gold.Chemscore.Lipo>
60.7890

> <Gold.Chemscore.Internal_Hbond>
0.0000

> <Gold.Chemscore.DEClash>
0.0270

> <Gold.Chemscore.DEInternal>
1.4780

> <Gold.Chemscore.Rot>
1.5223

> <Gold.Chemscore.Internal.Correction>
   9.000000E+99

> <Gold.Chemscore.Hbonds>
donor molecule, donor type, donor heavy atom, donor atom, acceptor molecule, acceptor atom, score
      L1  H     3    39       P1 10747  1.00
      L1  H     8    31       P1  7948  0.23
      L1  H    11    32       P1  7948  0.86
      P1  H  7989  7998       L1    16  0.09

> <Gold.Chemscore.Hbond.Weighted>
-9.2618

> <Gold.Chemscore.Metal.Weighted>
-0.0000

> <Gold.Chemscore.Lipo.Weighted>
-7.1123

> <Gold.Chemscore.Internal_Hbond.Weighted>
0.0000

> <Gold.Chemscore.DEClash.Weighted>
0.0270

> <Gold.Chemscore.DEInternal.Weighted>
1.4780

> <Gold.Chemscore.Rot.Weighted>
3.8971

> <Gold.Chemscore.Internal.Correction.Weighted>
   9.000000E+99

> <Gold.Protein.RotatedTorsions>
[ 6907 6896 6895 6894 ] final  122.87 input  -60.11 | X-H torsion
[ 7974 7965 7964 7962 ] final   50.52 input  175.53 | X-H torsion
[ 8008 7997 7996 7995 ] final  118.64 input   59.86 | X-H torsion
[ 10167 10162 10161 10158 ] final -118.89 input  -65.29 | X-H torsion
[ 10718 10713 10712 10709 ] final   74.87 input   66.30 | X-H torsion
[ 10763 10752 10751 10750 ] final  149.31 input  -60.55 | X-H torsion
[ 11005 11000 10999 10996 ] final  100.76 input  -57.11 | X-H torsion

> <Gold.Protein.ActiveResidues>
 VAL166  LYS551  ARG553  GLY616  TRP617  ASP618  TYR619  PRO620  LYS621  CYS622 
 ASP623  PHE694  ASN695  SER759  ASP760  ASP761  ALA762  ILE779  LEU786  VAL792 
 PHE793  MET794  SER795  GLU796  ALA797  LYS798  CYS799  TRP800  GLU811  SER814 

> <Gold.Protein.RotatedAtoms>
  152.4208  133.7112  159.6479 H   0  0  0  0  0  0  0  0  0  0  0  0  # atno 6907 bound_to 6896
  150.8084  133.8457  159.3200 H   0  0  0  0  0  0  0  0  0  0  0  0  # atno 6908 bound_to 6896
  151.6174  135.1037  160.0146 H   0  0  0  0  0  0  0  0  0  0  0  0  # atno 6909 bound_to 6896
  146.0004  139.4433  143.0018 H   0  0  0  0  0  0  0  0  0  0  0  0  # atno 7974 bound_to 7965
  156.2556  140.2870  156.0867 H   0  0  0  0  0  0  0  0  0  0  0  0  # atno 8008 bound_to 7997
  155.1508  140.0397  157.2838 H   0  0  0  0  0  0  0  0  0  0  0  0  # atno 8009 bound_to 7997
  154.6462  140.2534  155.7272 H   0  0  0  0  0  0  0  0  0  0  0  0  # atno 8010 bound_to 7997
  140.0526  143.5045  152.2074 H   0  0  0  0  0  0  0  0  0  0  0  0  # atno 10167 bound_to 10162
  157.6610  130.9698  150.1272 H   0  0  0  0  0  0  0  0  0  0  0  0  # atno 10718 bound_to 10713
  154.0690  135.2868  155.3311 H   0  0  0  0  0  0  0  0  0  0  0  0  # atno 10763 bound_to 10752
  154.6759  135.5282  153.8202 H   0  0  0  0  0  0  0  0  0  0  0  0  # atno 10764 bound_to 10752
  153.0492  135.6569  154.0873 H   0  0  0  0  0  0  0  0  0  0  0  0  # atno 10765 bound_to 10752
  139.8771  134.9154  156.4805 H   0  0  0  0  0  0  0  0  0  0  0  0  # atno 11005 bound_to 11000
  145.7496  140.9977  143.1257 LP  0  0  0  0  0  0  0  0  0  0  0  0  # atno 17320 bound_to 7965
  144.6917  139.9198  143.7467 LP  0  0  0  0  0  0  0  0  0  0  0  0  # atno 17321 bound_to 7965
  139.5944  144.7561  151.3323 LP  0  0  0  0  0  0  0  0  0  0  0  0  # atno 17342 bound_to 10162
  140.7210  143.7136  150.7750 LP  0  0  0  0  0  0  0  0  0  0  0  0  # atno 17343 bound_to 10162
  156.2128  130.3668  149.8650 LP  0  0  0  0  0  0  0  0  0  0  0  0  # atno 17370 bound_to 10713
  156.6524  130.8749  151.3533 LP  0  0  0  0  0  0  0  0  0  0  0  0  # atno 17371 bound_to 10713
  140.8731  133.7974  155.9385 LP  0  0  0  0  0  0  0  0  0  0  0  0  # atno 17394 bound_to 11000
  140.8932  134.2469  157.5083 LP  0  0  0  0  0  0  0  0  0  0  0  0  # atno 17395 bound_to 11000

$$$$
