AV-unprocessed.smi:1667|AV-procd|sdf|6673|dock1
  -GOLD-   22720 7383D 1   1.00000     0.00000
 Structure written by MMmdl.
 45 47  0  0  0  0  0  0  0  0  1 V2000
  147.3787  134.5897  158.7997 C   0  0  0  0  0  0  0  0  0  0  0  0
  148.6610  134.9438  158.0548 C   0  0  0  0  0  0  0  0  0  0  0  0
  149.5760  134.1249  157.9872 O   0  0  0  0  0  0  0  0  0  0  0  0
  148.7011  136.1691  157.5042 N   0  0  0  0  0  0  0  0  0  0  0  0
  149.7842  136.7728  156.7235 C   0  0  1  0  0  0  0  0  0  0  0  0
  150.5907  135.7516  155.8976 C   0  0  0  0  0  0  0  0  0  0  0  0
  149.2505  137.9370  155.9218 C   0  0  0  0  0  0  0  0  0  0  0  0
  148.4632  137.7585  154.8584 N   0  0  0  0  0  0  0  0  0  0  0  0
  148.1512  139.0472  154.4810 C   0  0  0  0  0  0  0  0  0  0  0  0
  147.3504  139.5223  153.4181 C   0  0  0  0  0  0  0  0  0  0  0  0
  147.1609  140.9069  153.2310 C   0  0  0  0  0  0  0  0  0  0  0  0
  147.7662  141.8333  154.1041 C   0  0  0  0  0  0  0  0  0  0  0  0
  148.5673  141.3795  155.1695 C   0  0  0  0  0  0  0  0  0  0  0  0
  148.7588  139.9959  155.3493 C   0  0  0  0  0  0  0  0  0  0  0  0
  149.4698  139.2337  156.2737 N   0  0  0  0  0  0  0  0  0  0  0  0
  150.2512  139.7594  157.3914 C   0  0  0  0  0  0  0  0  0  0  0  0
  151.4176  140.6851  156.9708 C   0  0  2  0  0  0  0  0  0  0  0  0
  152.4604  139.9311  156.3850 O   0  0  0  0  0  0  0  0  0  0  0  0
  151.9047  141.5821  158.1013 C   0  0  0  0  0  0  0  0  0  0  0  0
  152.5126  141.0352  159.2542 C   0  0  0  0  0  0  0  0  0  0  0  0
  152.9418  141.8768  160.2984 C   0  0  0  0  0  0  0  0  0  0  0  0
  152.7633  143.2697  160.1995 C   0  0  0  0  0  0  0  0  0  0  0  0
  152.1580  143.8208  159.0540 C   0  0  0  0  0  0  0  0  0  0  0  0
  151.9819  145.1598  158.9591 F   0  0  0  0  0  0  0  0  0  0  0  0
  151.7321  142.9798  158.0076 C   0  0  0  0  0  0  0  0  0  0  0  0
  150.4858  137.1565  157.4594 H   0  0  0  0  0  0  0  0  0  0  0  0
  147.2114  135.2844  159.6231 H   0  0  0  0  0  0  0  0  0  0  0  0
  147.4347  133.5811  159.2103 H   0  0  0  0  0  0  0  0  0  0  0  0
  146.5221  134.6369  158.1269 H   0  0  0  0  0  0  0  0  0  0  0  0
  147.8845  136.7484  157.6329 H   0  0  0  0  0  0  0  0  0  0  0  0
  151.4464  136.2291  155.4206 H   0  0  0  0  0  0  0  0  0  0  0  0
  149.9942  135.2924  155.1094 H   0  0  0  0  0  0  0  0  0  0  0  0
  150.9731  134.9518  156.5320 H   0  0  0  0  0  0  0  0  0  0  0  0
  146.8788  138.8194  152.7474 H   0  0  0  0  0  0  0  0  0  0  0  0
  146.5461  141.2595  152.4159 H   0  0  0  0  0  0  0  0  0  0  0  0
  147.6151  142.8925  153.9562 H   0  0  0  0  0  0  0  0  0  0  0  0
  149.0312  142.0880  155.8391 H   0  0  0  0  0  0  0  0  0  0  0  0
  149.5705  140.3108  158.0412 H   0  0  0  0  0  0  0  0  0  0  0  0
  150.6186  138.9345  158.0009 H   0  0  0  0  0  0  0  0  0  0  0  0
  151.0491  141.3371  156.1779 H   0  0  0  0  0  0  0  0  0  0  0  0
  152.1430  139.5587  155.5765 H   0  0  0  0  0  0  0  0  0  0  0  0
  152.6426  139.9670  159.3488 H   0  0  0  0  0  0  0  0  0  0  0  0
  153.4016  141.4524  161.1786 H   0  0  0  0  0  0  0  0  0  0  0  0
  153.0885  143.9143  161.0026 H   0  0  0  0  0  0  0  0  0  0  0  0
  151.2641  143.4114  157.1350 H   0  0  0  0  0  0  0  0  0  0  0  0
  1  2  1  0  0  0  0
  1 27  1  0  0  0  0
  1 28  1  0  0  0  0
  1 29  1  0  0  0  0
  2  3  2  0  0  0  0
  2  4  1  0  0  0  0
  4  5  1  0  0  0  0
  4 30  1  0  0  0  0
  5 26  1  0  0  0  0
  5  6  1  0  0  0  0
  5  7  1  0  0  0  0
  6 31  1  0  0  0  0
  6 32  1  0  0  0  0
  6 33  1  0  0  0  0
  7 15  1  0  0  0  0
  7  8  2  0  0  0  0
  8  9  1  0  0  0  0
  9 14  2  0  0  0  0
  9 10  1  0  0  0  0
 10 11  2  0  0  0  0
 10 34  1  0  0  0  0
 11 12  1  0  0  0  0
 11 35  1  0  0  0  0
 12 13  2  0  0  0  0
 12 36  1  0  0  0  0
 13 14  1  0  0  0  0
 13 37  1  0  0  0  0
 14 15  1  0  0  0  0
 15 16  1  0  0  0  0
 16 17  1  0  0  0  0
 16 38  1  0  0  0  0
 16 39  1  0  0  0  0
 17 18  1  0  0  0  0
 17 19  1  0  0  0  0
 17 40  1  0  0  0  0
 18 41  1  0  0  0  0
 19 25  1  0  0  0  0
 19 20  2  0  0  0  0
 20 21  1  0  0  0  0
 20 42  1  0  0  0  0
 21 22  2  0  0  0  0
 21 43  1  0  0  0  0
 22 23  1  0  0  0  0
 22 44  1  0  0  0  0
 23 24  1  0  0  0  0
 23 25  2  0  0  0  0
 25 45  1  0  0  0  0
M  END
> <s_m_source_file>
AV-unprocessed.smi

> <i_m_source_file_index>
1667

> <i_lp_mmshare_version>
43012

> <i_f3d_flags>
0

> <s_epik_input>
W0NIM11DKD1PKVtOSF1bQ0BASF0oW0NIM10pYyhuMSluKGMoYzEyKVtjSF1bY0hdW2NIXVtjSF0yKVtDSDJdW0NASF0oW09IXSljM1tjSF1bY0hdW2NIXWMoRilbY0hdMw==

> <s_epik_cmdline>
J2VwaWtfcHl0aG9uJywgJy1waCcsICc3LjAnLCAnLXRuJywgJzgnLCAnLW1hJywgJzIwMCcsICctbWV0YWxfYmluZGluZycsICctaW1hZScsICc8aW5maWxlLm1hZT4nLCAnLW9tYWUnLCAnPG91dGZpbGUubWFlPic=

> <r_epik_Ionization_Penalty>
0.133011

> <r_epik_Ionization_Penalty_Charging>
0

> <r_epik_Ionization_Penalty_Neutral>
0.133011

> <r_epik_State_Penalty>
0.122384

> <r_epik_Charging_Adjusted_Penalty>
0.122384

> <i_epik_Tot_Q>
0

> <i_epik_Tot_abs_Q>
0

> <r_epik_Metal_State_Penalty>
0.0997374

> <b_epik_Metal_Only>
0

> <s_lp_Force_Field>
OPLS_2005

> <r_lp_Energy>
8.264

> <b_lp_Chiralities_Consistent>
1

> <s_lp_Variant>
AV-unprocessed.smi:1667-1

> <Gold.Version>
5.8.1

> <Gold.Id.Protein>
6NUR|6NUR_protein|mol2

> <Gold.PLP.Fitness>
47.9775

> <Gold.PLP.PLP>
-43.0358

> <Gold.PLP.part.hbond>
-2.0000

> <Gold.PLP.part.metal>
0.0000

> <Gold.PLP.part.buried>
-5.9309

> <Gold.PLP.part.nonpolar>
-35.5676

> <Gold.PLP.part.repulsive>
0.1586

> <Gold.PLP.ligand.clash>
0.0000

> <Gold.PLP.ligand.torsion>
0.6800

> <Gold.PLP.Chemscore.Hbond>
2.0000

> <Gold.PLP.Chemscore.CHOScore>
0.0000

> <Gold.PLP.Chemscore.Metal>
0.0000

> <Gold.Chemscore.Hbonds>
donor molecule, donor type, donor heavy atom, donor atom, acceptor molecule, acceptor atom, score
      P1  H  6896  6907       L1     3  1.00
      P1  H  7997  8010       L1    18  1.00

> <Gold.PLP.Chemscore.Internal.Correction>
0.3017

> <Gold.Rescore>
     Score         DG    S(hbond)    S(metal)    S(lipo)     H(rot)  DE(clash)    DE(int)     intcor
     17.43     -19.53       1.98        0.00     117.71       2.48       0.15       1.95       ----

> <Gold.Chemscore.Fitness>
17.4313

> <Gold.Chemscore.DG>
-19.5315

> <Gold.Chemscore.ZeroCoef>
-5.4800

> <Gold.Chemscore.Hbond>
1.9814

> <Gold.Chemscore.Metal>
0.0000

> <Gold.Chemscore.Lipo>
117.7096

> <Gold.Chemscore.Internal_Hbond>
0.0000

> <Gold.Chemscore.DEClash>
0.1521

> <Gold.Chemscore.DEInternal>
1.9482

> <Gold.Chemscore.Rot>
2.4760

> <Gold.Chemscore.Internal.Correction>
   9.000000E+99

> <Gold.Chemscore.Hbonds>
donor molecule, donor type, donor heavy atom, donor atom, acceptor molecule, acceptor atom, score
      P1  H  6896  6907       L1     3  0.98
      P1  H  7997  8010       L1    18  0.74

> <Gold.Chemscore.Hbond.Weighted>
-6.6180

> <Gold.Chemscore.Metal.Weighted>
-0.0000

> <Gold.Chemscore.Lipo.Weighted>
-13.7720

> <Gold.Chemscore.Internal_Hbond.Weighted>
0.0000

> <Gold.Chemscore.DEClash.Weighted>
0.1521

> <Gold.Chemscore.DEInternal.Weighted>
1.9482

> <Gold.Chemscore.Rot.Weighted>
6.3385

> <Gold.Chemscore.Internal.Correction.Weighted>
   9.000000E+99

> <Gold.Protein.RotatedTorsions>
[ 6907 6896 6895 6894 ] final -112.53 input  -60.11 | X-H torsion
[ 7974 7965 7964 7962 ] final   76.13 input  175.53 | X-H torsion
[ 8008 7997 7996 7995 ] final   79.99 input   59.86 | X-H torsion
[ 10167 10162 10161 10158 ] final  -38.16 input  -65.29 | X-H torsion
[ 10718 10713 10712 10709 ] final   39.35 input   66.30 | X-H torsion
[ 10763 10752 10751 10750 ] final  178.21 input  -60.55 | X-H torsion
[ 11005 11000 10999 10996 ] final  139.53 input  -57.11 | X-H torsion

> <Gold.Protein.ActiveResidues>
 VAL166  LYS551  ARG553  GLY616  TRP617  ASP618  TYR619  PRO620  LYS621  CYS622 
 ASP623  PHE694  ASN695  SER759  ASP760  ASP761  ALA762  ILE779  LEU786  VAL792 
 PHE793  MET794  SER795  GLU796  ALA797  LYS798  CYS799  TRP800  GLU811  SER814 

> <Gold.Protein.RotatedAtoms>
  150.7765  133.9076  159.3359 H   0  0  0  0  0  0  0  0  0  0  0  0  # atno 6907 bound_to 6896
  151.6949  135.0938  160.0250 H   0  0  0  0  0  0  0  0  0  0  0  0  # atno 6908 bound_to 6896
  152.3802  133.6498  159.6191 H   0  0  0  0  0  0  0  0  0  0  0  0  # atno 6909 bound_to 6896
  145.7067  139.2601  143.1674 H   0  0  0  0  0  0  0  0  0  0  0  0  # atno 7974 bound_to 7965
  155.8773  140.3446  155.5863 H   0  0  0  0  0  0  0  0  0  0  0  0  # atno 8008 bound_to 7997
  155.7759  140.0852  157.2103 H   0  0  0  0  0  0  0  0  0  0  0  0  # atno 8009 bound_to 7997
  154.4022  140.1509  156.2983 H   0  0  0  0  0  0  0  0  0  0  0  0  # atno 8010 bound_to 7997
  140.7099  143.3295  151.2603 H   0  0  0  0  0  0  0  0  0  0  0  0  # atno 10167 bound_to 10162
  157.3695  130.7693  149.7108 H   0  0  0  0  0  0  0  0  0  0  0  0  # atno 10718 bound_to 10713
  154.5047  135.2785  155.1392 H   0  0  0  0  0  0  0  0  0  0  0  0  # atno 10763 bound_to 10752
  154.3011  135.6248  153.5429 H   0  0  0  0  0  0  0  0  0  0  0  0  # atno 10764 bound_to 10752
  152.9908  135.5697  154.5498 H   0  0  0  0  0  0  0  0  0  0  0  0  # atno 10765 bound_to 10752
  140.0261  134.9374  157.0571 H   0  0  0  0  0  0  0  0  0  0  0  0  # atno 11005 bound_to 11000
  146.0749  140.7828  142.9670 LP  0  0  0  0  0  0  0  0  0  0  0  0  # atno 17320 bound_to 7965
  144.6953  140.3399  143.7201 LP  0  0  0  0  0  0  0  0  0  0  0  0  # atno 17321 bound_to 7965
  139.6772  143.9916  152.2788 LP  0  0  0  0  0  0  0  0  0  0  0  0  # atno 17342 bound_to 10162
  139.9534  144.6605  150.8149 LP  0  0  0  0  0  0  0  0  0  0  0  0  # atno 17343 bound_to 10162
  155.9753  130.4091  150.3862 LP  0  0  0  0  0  0  0  0  0  0  0  0  # atno 17370 bound_to 10713
  157.1951  131.0424  151.2680 LP  0  0  0  0  0  0  0  0  0  0  0  0  # atno 17371 bound_to 10713
  140.4304  134.1787  155.7168 LP  0  0  0  0  0  0  0  0  0  0  0  0  # atno 17394 bound_to 11000
  141.1803  133.8427  157.1279 LP  0  0  0  0  0  0  0  0  0  0  0  0  # atno 17395 bound_to 11000

$$$$
