AV-unprocessed.smi:810|AV-procd|sdf|3809|dock1
  -GOLD-   22720 1243D 1   1.00000     0.00000
 Structure written by MMmdl.
 34 35  0  0  0  0  0  0  0  0  1 V2000
  144.9826  138.0302  153.2184 O   0  0  0  0  0  0  0  0  0  0  0  0
  145.9815  137.3792  152.9136 C   0  0  0  0  0  0  0  0  0  0  0  0
  147.2526  137.7820  153.0813 N   0  0  0  0  0  0  0  0  0  0  0  0
  147.7283  138.9987  153.6408 C   0  0  0  0  0  0  0  0  0  0  0  0
  149.0166  139.1679  154.2037 C   0  0  0  0  0  0  0  0  0  0  0  0
  149.3751  140.4313  154.7119 C   0  0  0  0  0  0  0  0  0  0  0  0
  148.4380  141.4795  154.6327 C   0  0  0  0  0  0  0  0  0  0  0  0
  147.2124  141.3364  154.0860 N   0  0  0  0  0  0  0  0  0  0  0  0
  146.8758  140.1226  153.6002 C   0  0  0  0  0  0  0  0  0  0  0  0
  145.9304  136.1666  152.3439 N   0  0  0  0  0  0  0  0  0  0  0  0
  144.7088  135.4462  151.9929 C   0  0  2  0  0  0  0  0  0  0  0  0
  144.0253  134.9312  153.2745 C   0  0  0  0  0  0  0  0  0  0  0  0
  142.4902  134.9026  153.1887 C   0  0  0  0  0  0  0  0  0  0  0  0
  141.9608  134.2713  154.3343 O   0  0  0  0  0  0  0  0  0  0  0  0
  144.9562  134.3065  151.0187 C   0  0  0  0  0  0  0  0  0  0  0  0
  144.4088  132.9220  151.2730 C   0  0  0  0  0  0  0  0  0  0  0  0
  145.8960  133.1761  151.3656 C   0  0  0  0  0  0  0  0  0  0  0  0
  147.9642  137.1718  152.7065 H   0  0  0  0  0  0  0  0  0  0  0  0
  149.7369  138.3658  154.2445 H   0  0  0  0  0  0  0  0  0  0  0  0
  150.3489  140.5939  155.1496 H   0  0  0  0  0  0  0  0  0  0  0  0
  148.6817  142.4605  155.0130 H   0  0  0  0  0  0  0  0  0  0  0  0
  145.8885  140.0456  153.1683 H   0  0  0  0  0  0  0  0  0  0  0  0
  146.8032  135.7099  152.1237 H   0  0  0  0  0  0  0  0  0  0  0  0
  144.0156  136.1424  151.5161 H   0  0  0  0  0  0  0  0  0  0  0  0
  144.3807  133.9212  153.4839 H   0  0  0  0  0  0  0  0  0  0  0  0
  144.3334  135.5418  154.1246 H   0  0  0  0  0  0  0  0  0  0  0  0
  142.0786  135.9101  153.1231 H   0  0  0  0  0  0  0  0  0  0  0  0
  142.1655  134.3581  152.3016 H   0  0  0  0  0  0  0  0  0  0  0  0
  142.1580  133.3482  154.2881 H   0  0  0  0  0  0  0  0  0  0  0  0
  144.9724  134.6235  149.9775 H   0  0  0  0  0  0  0  0  0  0  0  0
  143.8714  132.7496  152.2036 H   0  0  0  0  0  0  0  0  0  0  0  0
  144.0449  132.3617  150.4142 H   0  0  0  0  0  0  0  0  0  0  0  0
  146.5248  132.7830  150.5695 H   0  0  0  0  0  0  0  0  0  0  0  0
  146.3433  133.1733  152.3578 H   0  0  0  0  0  0  0  0  0  0  0  0
  1  2  2  0  0  0  0
  2  3  1  0  0  0  0
  2 10  1  0  0  0  0
  3  4  1  0  0  0  0
  3 18  1  0  0  0  0
  4  9  1  0  0  0  0
  4  5  2  0  0  0  0
  5  6  1  0  0  0  0
  5 19  1  0  0  0  0
  6  7  2  0  0  0  0
  6 20  1  0  0  0  0
  7  8  1  0  0  0  0
  7 21  1  0  0  0  0
  8  9  2  0  0  0  0
  9 22  1  0  0  0  0
 10 11  1  0  0  0  0
 10 23  1  0  0  0  0
 11 12  1  0  0  0  0
 11 15  1  0  0  0  0
 11 24  1  0  0  0  0
 12 13  1  0  0  0  0
 12 25  1  0  0  0  0
 12 26  1  0  0  0  0
 13 14  1  0  0  0  0
 13 27  1  0  0  0  0
 13 28  1  0  0  0  0
 14 29  1  0  0  0  0
 15 17  1  0  0  0  0
 15 16  1  0  0  0  0
 15 30  1  0  0  0  0
 16 17  1  0  0  0  0
 16 31  1  0  0  0  0
 16 32  1  0  0  0  0
 17 33  1  0  0  0  0
 17 34  1  0  0  0  0
M  END
> <s_m_source_file>
AV-unprocessed.smi

> <i_m_source_file_index>
810

> <i_lp_mmshare_version>
43012

> <i_f3d_flags>
0

> <s_epik_input>
W09IXVtDSDJdW0NIMl1bQ0BIXShbQ0hdMVtDSDJdW0NIMl0xKVtOSF1DKD1PKVtOSF1jMltjSF1bY0hdW2NIXW5bY0hdMg==

> <s_epik_cmdline>
J2VwaWtfcHl0aG9uJywgJy1waCcsICc3LjAnLCAnLXRuJywgJzgnLCAnLW1hJywgJzIwMCcsICctbWV0YWxfYmluZGluZycsICctaW1hZScsICc8aW5maWxlLm1hZT4nLCAnLW9tYWUnLCAnPG91dGZpbGUubWFlPic=

> <r_epik_Ionization_Penalty>
0.00486911

> <r_epik_Ionization_Penalty_Charging>
0

> <r_epik_Ionization_Penalty_Neutral>
0.00486911

> <r_epik_State_Penalty>
0.00350304

> <r_epik_Charging_Adjusted_Penalty>
0.00350304

> <i_epik_Tot_Q>
0

> <i_epik_Tot_abs_Q>
0

> <r_epik_Metal_State_Penalty>
-0

> <b_epik_Metal_Only>
0

> <s_lp_Force_Field>
OPLS_2005

> <r_lp_Energy>
17.5915

> <b_lp_Chiralities_Consistent>
1

> <s_lp_Variant>
AV-unprocessed.smi:810-1

> <Gold.Version>
5.8.1

> <Gold.Id.Protein>
6NUR|6NUR_protein|mol2

> <Gold.PLP.Fitness>
42.2028

> <Gold.PLP.PLP>
-28.7161

> <Gold.PLP.part.hbond>
-3.9655

> <Gold.PLP.part.metal>
0.0000

> <Gold.PLP.part.buried>
-5.1927

> <Gold.PLP.part.nonpolar>
-22.7714

> <Gold.PLP.part.repulsive>
2.2063

> <Gold.PLP.ligand.clash>
0.0000

> <Gold.PLP.ligand.torsion>
1.4156

> <Gold.PLP.Chemscore.Hbond>
3.0704

> <Gold.PLP.Chemscore.CHOScore>
2.0000

> <Gold.PLP.Chemscore.Metal>
0.0000

> <Gold.Chemscore.Hbonds>
donor molecule, donor type, donor heavy atom, donor atom, acceptor molecule, acceptor atom, score
      L1  H     3    18       P1  7948  1.00
      L1  H    10    23       P1  7948  0.46
      L1  H    14    29       P1 10957  1.00
      P1  H 11000 11005       L1    14  0.69
      L1  C     7    21       P1  8028  1.00
      L1  C     9    22       P1 10175  1.00

> <Gold.PLP.Chemscore.Internal.Correction>
1.1067

> <Gold.Rescore>
     Score         DG    S(hbond)    S(metal)    S(lipo)     H(rot)  DE(clash)    DE(int)     intcor
     13.80     -16.51       2.94        0.00      60.86       2.31       0.12       2.58       ----

> <Gold.Chemscore.Fitness>
13.8031

> <Gold.Chemscore.DG>
-16.5074

> <Gold.Chemscore.ZeroCoef>
-5.4800

> <Gold.Chemscore.Hbond>
2.9401

> <Gold.Chemscore.Metal>
0.0000

> <Gold.Chemscore.Lipo>
60.8554

> <Gold.Chemscore.Internal_Hbond>
0.0000

> <Gold.Chemscore.DEClash>
0.1243

> <Gold.Chemscore.DEInternal>
2.5799

> <Gold.Chemscore.Rot>
2.3097

> <Gold.Chemscore.Internal.Correction>
   9.000000E+99

> <Gold.Chemscore.Hbonds>
donor molecule, donor type, donor heavy atom, donor atom, acceptor molecule, acceptor atom, score
      L1  H     3    18       P1  7948  0.99
      L1  H    10    23       P1  7948  0.45
      L1  H    14    29       P1 10957  1.00
      P1  H 11000 11005       L1    14  0.10

> <Gold.Chemscore.Hbond.Weighted>
-9.8200

> <Gold.Chemscore.Metal.Weighted>
-0.0000

> <Gold.Chemscore.Lipo.Weighted>
-7.1201

> <Gold.Chemscore.Internal_Hbond.Weighted>
0.0000

> <Gold.Chemscore.DEClash.Weighted>
0.1243

> <Gold.Chemscore.DEInternal.Weighted>
2.5799

> <Gold.Chemscore.Rot.Weighted>
5.9127

> <Gold.Chemscore.Internal.Correction.Weighted>
   9.000000E+99

> <Gold.Protein.RotatedTorsions>
[ 6907 6896 6895 6894 ] final   13.52 input  -60.11 | X-H torsion
[ 7974 7965 7964 7962 ] final  -64.79 input  175.53 | X-H torsion
[ 8008 7997 7996 7995 ] final   78.40 input   59.86 | X-H torsion
[ 10167 10162 10161 10158 ] final   60.54 input  -65.29 | X-H torsion
[ 10718 10713 10712 10709 ] final   84.17 input   66.30 | X-H torsion
[ 10763 10752 10751 10750 ] final  121.06 input  -60.55 | X-H torsion
[ 11005 11000 10999 10996 ] final   14.08 input  -57.11 | X-H torsion

> <Gold.Protein.ActiveResidues>
 VAL166  LYS551  ARG553  GLY616  TRP617  ASP618  TYR619  PRO620  LYS621  CYS622 
 ASP623  PHE694  ASN695  SER759  ASP760  ASP761  ALA762  ILE779  LEU786  VAL792 
 PHE793  MET794  SER795  GLU796  ALA797  LYS798  CYS799  TRP800  GLU811  SER814 

> <Gold.Protein.RotatedAtoms>
  151.7876  135.0744  160.0382 H   0  0  0  0  0  0  0  0  0  0  0  0  # atno 6907 bound_to 6896
  152.3179  133.5818  159.5733 H   0  0  0  0  0  0  0  0  0  0  0  0  # atno 6908 bound_to 6896
  150.7354  133.9971  159.3668 H   0  0  0  0  0  0  0  0  0  0  0  0  # atno 6909 bound_to 6896
  145.7624  140.8855  143.0423 H   0  0  0  0  0  0  0  0  0  0  0  0  # atno 7974 bound_to 7965
  155.8552  140.3456  155.5719 H   0  0  0  0  0  0  0  0  0  0  0  0  # atno 8008 bound_to 7997
  155.7994  140.0883  157.1985 H   0  0  0  0  0  0  0  0  0  0  0  0  # atno 8009 bound_to 7997
  154.4009  140.1468  156.3244 H   0  0  0  0  0  0  0  0  0  0  0  0  # atno 8010 bound_to 7997
  140.1645  144.4338  150.6692 H   0  0  0  0  0  0  0  0  0  0  0  0  # atno 10167 bound_to 10162
  157.6893  131.0122  150.2632 H   0  0  0  0  0  0  0  0  0  0  0  0  # atno 10718 bound_to 10713
  153.6081  135.3435  155.2969 H   0  0  0  0  0  0  0  0  0  0  0  0  # atno 10763 bound_to 10752
  154.8623  135.4244  154.2339 H   0  0  0  0  0  0  0  0  0  0  0  0  # atno 10764 bound_to 10752
  153.3183  135.7036  153.7125 H   0  0  0  0  0  0  0  0  0  0  0  0  # atno 10765 bound_to 10752
  140.4735  134.1007  155.7737 H   0  0  0  0  0  0  0  0  0  0  0  0  # atno 11005 bound_to 11000
  144.6828  139.9741  143.7482 LP  0  0  0  0  0  0  0  0  0  0  0  0  # atno 17320 bound_to 7965
  146.0251  139.3285  143.0789 LP  0  0  0  0  0  0  0  0  0  0  0  0  # atno 17321 bound_to 7965
  140.6622  143.2256  151.5829 LP  0  0  0  0  0  0  0  0  0  0  0  0  # atno 17342 bound_to 10162
  139.5366  144.2764  152.1264 LP  0  0  0  0  0  0  0  0  0  0  0  0  # atno 17343 bound_to 10162
  156.3208  130.3785  149.7577 LP  0  0  0  0  0  0  0  0  0  0  0  0  # atno 17370 bound_to 10713
  156.5147  130.8188  151.3182 LP  0  0  0  0  0  0  0  0  0  0  0  0  # atno 17371 bound_to 10713
  141.1565  133.8872  157.1962 LP  0  0  0  0  0  0  0  0  0  0  0  0  # atno 17394 bound_to 11000
  139.9870  135.0078  156.9887 LP  0  0  0  0  0  0  0  0  0  0  0  0  # atno 17395 bound_to 11000

$$$$
