AV-unprocessed.smi:662|AV-procd|sdf|3244|dock2
  -GOLD-   22720 0193D 1   1.00000     0.00000
 Structure written by MMmdl.
 34 35  0  0  0  0  0  0  0  0  2 V2000
  146.7494  132.1151  153.2476 O   0  0  0  0  0  0  0  0  0  0  0  0
  147.1860  133.1579  152.7589 C   0  0  0  0  0  0  0  0  0  0  0  0
  148.1707  133.8771  153.3194 N   0  0  0  0  0  0  0  0  0  0  0  0
  148.8489  133.5330  154.5639 C   0  0  0  0  0  0  0  0  0  0  0  0
  150.2818  134.0882  154.5980 C   0  0  0  0  0  0  0  0  0  0  0  0
  150.3347  135.4944  155.0924 C   0  0  0  0  0  0  0  0  0  0  0  0
  151.4627  136.2053  155.1636 N   0  0  0  0  0  0  0  0  0  0  0  0
  151.2641  137.4863  155.6899 C   0  0  0  0  0  0  0  0  0  0  0  0
  152.4285  138.4244  155.8276 C   0  0  0  0  0  0  0  0  0  0  0  0
  152.9698  138.7122  154.6436 F   0  0  0  0  0  0  0  0  0  0  0  0
  152.0554  139.5744  156.3882 F   0  0  0  0  0  0  0  0  0  0  0  0
  153.3859  137.8935  156.5875 F   0  0  0  0  0  0  0  0  0  0  0  0
  149.9557  137.7281  156.0329 C   0  0  0  0  0  0  0  0  0  0  0  0
  148.9306  136.3576  155.7069 S   0  0  0  0  0  0  0  0  0  0  0  0
  146.6202  133.6916  151.4380 C   0  0  1  0  0  0  0  0  0  0  0  0
  145.2994  132.9971  151.0800 C   0  0  0  0  0  0  0  0  0  0  0  0
  144.5838  134.0292  150.2214 C   0  0  0  0  0  0  0  0  0  0  0  0
  145.0156  135.3664  150.8257 C   0  0  0  0  0  0  0  0  0  0  0  0
  146.2987  135.1332  151.5212 N   0  3  0  0  0  0  0  0  0  0  0  0
  148.4757  134.7191  152.8522 H   0  0  0  0  0  0  0  0  0  0  0  0
  148.2714  133.9446  155.3924 H   0  0  0  0  0  0  0  0  0  0  0  0
  148.8547  132.4499  154.6992 H   0  0  0  0  0  0  0  0  0  0  0  0
  150.9137  133.4723  155.2398 H   0  0  0  0  0  0  0  0  0  0  0  0
  150.7230  134.0532  153.6014 H   0  0  0  0  0  0  0  0  0  0  0  0
  149.5353  138.6270  156.4589 H   0  0  0  0  0  0  0  0  0  0  0  0
  147.3448  133.5560  150.6333 H   0  0  0  0  0  0  0  0  0  0  0  0
  145.4488  132.0519  150.5568 H   0  0  0  0  0  0  0  0  0  0  0  0
  144.7050  132.7945  151.9731 H   0  0  0  0  0  0  0  0  0  0  0  0
  144.9412  133.9584  149.1930 H   0  0  0  0  0  0  0  0  0  0  0  0
  143.5014  133.8977  150.2090 H   0  0  0  0  0  0  0  0  0  0  0  0
  145.1139  136.1437  150.0673 H   0  0  0  0  0  0  0  0  0  0  0  0
  144.2850  135.7060  151.5606 H   0  0  0  0  0  0  0  0  0  0  0  0
  146.1912  135.3833  152.4945 H   0  0  0  0  0  0  0  0  0  0  0  0
  147.0415  135.6773  151.1067 H   0  0  0  0  0  0  0  0  0  0  0  0
  1  2  2  0  0  0  0
  2  3  1  0  0  0  0
  2 15  1  0  0  0  0
  3  4  1  0  0  0  0
  3 20  1  0  0  0  0
  4  5  1  0  0  0  0
  4 21  1  0  0  0  0
  4 22  1  0  0  0  0
  5  6  1  0  0  0  0
  5 23  1  0  0  0  0
  5 24  1  0  0  0  0
  6 14  1  0  0  0  0
  6  7  2  0  0  0  0
  7  8  1  0  0  0  0
  8  9  1  0  0  0  0
  8 13  2  0  0  0  0
  9 10  1  0  0  0  0
  9 11  1  0  0  0  0
  9 12  1  0  0  0  0
 13 14  1  0  0  0  0
 13 25  1  0  0  0  0
 15 19  1  0  0  0  0
 15 16  1  0  0  0  0
 15 26  1  0  0  0  0
 16 17  1  0  0  0  0
 16 27  1  0  0  0  0
 16 28  1  0  0  0  0
 17 18  1  0  0  0  0
 17 29  1  0  0  0  0
 17 30  1  0  0  0  0
 18 19  1  0  0  0  0
 18 31  1  0  0  0  0
 18 32  1  0  0  0  0
 19 33  1  0  0  0  0
 19 34  1  0  0  0  0
M  CHG  1  19   1
M  END
> <s_m_source_file>
AV-unprocessed.smi

> <i_m_source_file_index>
662

> <i_lp_mmshare_version>
43012

> <i_f3d_flags>
0

> <s_epik_input>
W05IXTFbQ0gyXVtDSDJdW0NIMl1bQ0BIXTFDKD1PKVtOSF1bQ0gyXVtDSDJdYzJuYyhDKEYpKEYpRilbY0hdczI=

> <s_epik_cmdline>
J2VwaWtfcHl0aG9uJywgJy1waCcsICc3LjAnLCAnLXRuJywgJzgnLCAnLW1hJywgJzIwMCcsICctbWV0YWxfYmluZGluZycsICctaW1hZScsICc8aW5maWxlLm1hZT4nLCAnLW9tYWUnLCAnPG91dGZpbGUubWFlPic=

> <r_epik_Ionization_Penalty>
0.0382401

> <r_epik_Ionization_Penalty_Charging>
0.0382382

> <r_epik_Ionization_Penalty_Neutral>
1.85239e-06

> <r_epik_State_Penalty>
0.0320549

> <r_epik_Charging_Adjusted_Penalty>
0.0702931

> <i_epik_Tot_Q>
1

> <i_epik_Tot_abs_Q>
1

> <r_epik_Metal_State_Penalty>
0.0320549

> <b_epik_Metal_Only>
0

> <s_lp_Force_Field>
OPLS_2005

> <r_lp_Energy>
5.09297

> <b_lp_Chiralities_Consistent>
1

> <s_lp_Variant>
AV-unprocessed.smi:662-2

> <Gold.Version>
5.8.1

> <Gold.Id.Protein>
6NUR|6NUR_protein|mol2

> <Gold.PLP.Fitness>
39.6223

> <Gold.PLP.PLP>
-30.9880

> <Gold.PLP.part.hbond>
-3.0000

> <Gold.PLP.part.metal>
0.0000

> <Gold.PLP.part.buried>
-3.7694

> <Gold.PLP.part.nonpolar>
-24.4284

> <Gold.PLP.part.repulsive>
0.2972

> <Gold.PLP.ligand.clash>
0.0000

> <Gold.PLP.ligand.torsion>
0.6563

> <Gold.PLP.Chemscore.Hbond>
3.3005

> <Gold.PLP.Chemscore.CHOScore>
0.0000

> <Gold.PLP.Chemscore.Metal>
0.0000

> <Gold.Chemscore.Hbonds>
donor molecule, donor type, donor heavy atom, donor atom, acceptor molecule, acceptor atom, score
      L1  H     3    20       P1  7948  1.00
      L1  H    19    34       P1  7948  1.14
      P1  H 10752 10763       L1     7  1.00

> <Gold.PLP.Chemscore.Internal.Correction>
0.0454

> <Gold.Rescore>
     Score         DG    S(hbond)    S(metal)    S(lipo)     H(rot)  DE(clash)    DE(int)     intcor
     14.19     -14.83       2.38        0.00      55.13       1.97       0.00       0.64       ----

> <Gold.Chemscore.Fitness>
14.1916

> <Gold.Chemscore.DG>
-14.8326

> <Gold.Chemscore.ZeroCoef>
-5.4800

> <Gold.Chemscore.Hbond>
2.3788

> <Gold.Chemscore.Metal>
0.0000

> <Gold.Chemscore.Lipo>
55.1256

> <Gold.Chemscore.Internal_Hbond>
0.0000

> <Gold.Chemscore.DEClash>
0.0050

> <Gold.Chemscore.DEInternal>
0.6360

> <Gold.Chemscore.Rot>
1.9697

> <Gold.Chemscore.Internal.Correction>
   9.000000E+99

> <Gold.Chemscore.Hbonds>
donor molecule, donor type, donor heavy atom, donor atom, acceptor molecule, acceptor atom, score
      L1  H     3    20       P1  7948  0.35
      L1  H    19    34       P1  7948  0.51
      P1  H 10752 10763       L1     7  0.98

> <Gold.Chemscore.Hbond.Weighted>
-7.9453

> <Gold.Chemscore.Metal.Weighted>
-0.0000

> <Gold.Chemscore.Lipo.Weighted>
-6.4497

> <Gold.Chemscore.Internal_Hbond.Weighted>
0.0000

> <Gold.Chemscore.DEClash.Weighted>
0.0050

> <Gold.Chemscore.DEInternal.Weighted>
0.6360

> <Gold.Chemscore.Rot.Weighted>
5.0424

> <Gold.Chemscore.Internal.Correction.Weighted>
   9.000000E+99

> <Gold.Protein.RotatedTorsions>
[ 6907 6896 6895 6894 ] final  124.50 input  -60.11 | X-H torsion
[ 7974 7965 7964 7962 ] final  128.51 input  175.53 | X-H torsion
[ 8008 7997 7996 7995 ] final   51.43 input   59.86 | X-H torsion
[ 10167 10162 10161 10158 ] final  -47.18 input  -65.29 | X-H torsion
[ 10718 10713 10712 10709 ] final   95.83 input   66.30 | X-H torsion
[ 10763 10752 10751 10750 ] final   58.27 input  -60.55 | X-H torsion
[ 11005 11000 10999 10996 ] final  110.52 input  -57.11 | X-H torsion

> <Gold.Protein.ActiveResidues>
 VAL166  LYS551  ARG553  GLY616  TRP617  ASP618  TYR619  PRO620  LYS621  CYS622 
 ASP623  PHE694  ASN695  SER759  ASP760  ASP761  ALA762  ILE779  LEU786  VAL792 
 PHE793  MET794  SER795  GLU796  ALA797  LYS798  CYS799  TRP800  GLU811  SER814 

> <Gold.Protein.RotatedAtoms>
  152.4073  133.6908  159.6366 H   0  0  0  0  0  0  0  0  0  0  0  0  # atno 6907 bound_to 6896
  150.7956  133.8687  159.3261 H   0  0  0  0  0  0  0  0  0  0  0  0  # atno 6908 bound_to 6896
  151.6438  135.1011  160.0198 H   0  0  0  0  0  0  0  0  0  0  0  0  # atno 6909 bound_to 6896
  145.0388  139.3981  143.5112 H   0  0  0  0  0  0  0  0  0  0  0  0  # atno 7974 bound_to 7965
  155.4352  140.3452  155.4284 H   0  0  0  0  0  0  0  0  0  0  0  0  # atno 8008 bound_to 7997
  156.1312  140.1515  156.9093 H   0  0  0  0  0  0  0  0  0  0  0  0  # atno 8009 bound_to 7997
  154.4896  140.0845  156.7545 H   0  0  0  0  0  0  0  0  0  0  0  0  # atno 8010 bound_to 7997
  140.6786  143.2796  151.3890 H   0  0  0  0  0  0  0  0  0  0  0  0  # atno 10167 bound_to 10162
  157.6934  131.0558  150.4398 H   0  0  0  0  0  0  0  0  0  0  0  0  # atno 10718 bound_to 10713
  152.9867  135.5612  154.5525 H   0  0  0  0  0  0  0  0  0  0  0  0  # atno 10763 bound_to 10752
  154.4959  135.2795  155.1462 H   0  0  0  0  0  0  0  0  0  0  0  0  # atno 10764 bound_to 10752
  154.2912  135.6326  153.5439 H   0  0  0  0  0  0  0  0  0  0  0  0  # atno 10765 bound_to 10752
  139.8884  134.9486  156.6292 H   0  0  0  0  0  0  0  0  0  0  0  0  # atno 11005 bound_to 11000
  146.3507  139.9978  142.8679 LP  0  0  0  0  0  0  0  0  0  0  0  0  # atno 17320 bound_to 7965
  145.1675  140.9704  143.4341 LP  0  0  0  0  0  0  0  0  0  0  0  0  # atno 17321 bound_to 7965
  139.6094  144.1131  152.2282 LP  0  0  0  0  0  0  0  0  0  0  0  0  # atno 17342 bound_to 10162
  140.0540  144.5910  150.7314 LP  0  0  0  0  0  0  0  0  0  0  0  0  # atno 17343 bound_to 10162
  156.4758  130.4063  149.6491 LP  0  0  0  0  0  0  0  0  0  0  0  0  # atno 17370 bound_to 10713
  156.3554  130.7454  151.2419 LP  0  0  0  0  0  0  0  0  0  0  0  0  # atno 17371 bound_to 10713
  140.7679  133.8762  155.8469 LP  0  0  0  0  0  0  0  0  0  0  0  0  # atno 17394 bound_to 11000
  140.9866  134.1334  157.4446 LP  0  0  0  0  0  0  0  0  0  0  0  0  # atno 17395 bound_to 11000

$$$$
