AV-unprocessed.smi:1522|AV-procd|sdf|6136|dock3
  -GOLD-   22720 6283D 1   1.00000     0.00000
 Structure written by MMmdl.
 34 35  0  0  0  0  0  0  0  0  3 V2000
  149.6229  131.3526  153.9298 C   0  0  0  0  0  0  0  0  0  0  0  0
  149.0558  132.5816  153.1847 C   0  0  2  0  0  0  0  0  0  0  0  0
  148.6996  133.7014  154.1933 C   0  0  0  0  0  0  0  0  0  0  0  0
  149.6220  134.8337  154.1180 N   0  0  0  0  0  0  0  0  0  0  0  0
  150.6032  135.1281  154.9823 C   0  0  0  0  0  0  0  0  0  0  0  0
  150.7601  134.4446  155.9956 O   0  0  0  0  0  0  0  0  0  0  0  0
  151.3540  136.1872  154.6085 N   0  5  0  0  0  0  0  0  0  0  0  0
  150.8276  137.4227  154.6330 C   0  0  0  0  0  0  0  0  0  0  0  0
  151.5767  138.5251  154.4689 N   0  0  0  0  0  0  0  0  0  0  0  0
  150.8393  139.6995  154.5293 N   0  0  0  0  0  0  0  0  0  0  0  0
  149.5449  139.4510  154.7285 C   0  0  0  0  0  0  0  0  0  0  0  0
  149.1098  137.7600  154.8619 S   0  0  0  0  0  0  0  0  0  0  0  0
  147.8870  132.2352  152.3241 N   0  3  0  0  0  0  0  0  0  0  0  0
  146.8604  131.3956  152.9758 C   0  0  0  0  0  0  0  0  0  0  0  0
  145.6561  131.4573  152.0405 C   0  0  0  0  0  0  0  0  0  0  0  0
  145.7416  132.8421  151.3936 C   0  0  0  0  0  0  0  0  0  0  0  0
  147.1408  133.3709  151.7376 C   0  0  0  0  0  0  0  0  0  0  0  0
  150.4187  131.6469  154.6147 H   0  0  0  0  0  0  0  0  0  0  0  0
  150.0543  130.6219  153.2460 H   0  0  0  0  0  0  0  0  0  0  0  0
  148.8549  130.8467  154.5163 H   0  0  0  0  0  0  0  0  0  0  0  0
  149.8485  132.9543  152.5342 H   0  0  0  0  0  0  0  0  0  0  0  0
  147.7020  134.0818  153.9721 H   0  0  0  0  0  0  0  0  0  0  0  0
  148.6408  133.3152  155.2116 H   0  0  0  0  0  0  0  0  0  0  0  0
  149.5304  135.4358  153.3124 H   0  0  0  0  0  0  0  0  0  0  0  0
  148.8420  140.2679  154.7958 H   0  0  0  0  0  0  0  0  0  0  0  0
  147.1913  130.3722  153.1463 H   0  0  0  0  0  0  0  0  0  0  0  0
  146.5960  131.8263  153.9429 H   0  0  0  0  0  0  0  0  0  0  0  0
  145.7504  130.6881  151.2725 H   0  0  0  0  0  0  0  0  0  0  0  0
  144.7134  131.2921  152.5627 H   0  0  0  0  0  0  0  0  0  0  0  0
  145.5971  132.7716  150.3147 H   0  0  0  0  0  0  0  0  0  0  0  0
  144.9735  133.5098  151.7856 H   0  0  0  0  0  0  0  0  0  0  0  0
  147.0483  134.1702  152.4746 H   0  0  0  0  0  0  0  0  0  0  0  0
  147.6526  133.7728  150.8624 H   0  0  0  0  0  0  0  0  0  0  0  0
  148.2432  131.7000  151.5437 H   0  0  0  0  0  0  0  0  0  0  0  0
  1  2  1  0  0  0  0
  1 18  1  0  0  0  0
  1 19  1  0  0  0  0
  1 20  1  0  0  0  0
  2  3  1  0  0  0  0
  2 13  1  0  0  0  0
  2 21  1  0  0  0  0
  3  4  1  0  0  0  0
  3 22  1  0  0  0  0
  3 23  1  0  0  0  0
  4  5  1  0  0  0  0
  4 24  1  0  0  0  0
  5  6  2  0  0  0  0
  5  7  1  0  0  0  0
  7  8  1  0  0  0  0
  8 12  1  0  0  0  0
  8  9  2  0  0  0  0
  9 10  1  0  0  0  0
 10 11  2  0  0  0  0
 11 12  1  0  0  0  0
 11 25  1  0  0  0  0
 13 17  1  0  0  0  0
 13 14  1  0  0  0  0
 13 34  1  0  0  0  0
 14 15  1  0  0  0  0
 14 26  1  0  0  0  0
 14 27  1  0  0  0  0
 15 16  1  0  0  0  0
 15 28  1  0  0  0  0
 15 29  1  0  0  0  0
 16 17  1  0  0  0  0
 16 30  1  0  0  0  0
 16 31  1  0  0  0  0
 17 32  1  0  0  0  0
 17 33  1  0  0  0  0
M  CHG  1   7  -1
M  CHG  1  13   1
M  END
> <s_m_source_file>
AV-unprocessed.smi

> <i_m_source_file_index>
1522

> <i_lp_mmshare_version>
43012

> <i_f3d_flags>
0

> <s_epik_input>
W0NIMl0xW0NIMl1bQ0gyXVtDSDJdTjFbQ0BIXShbQ0gzXSlbQ0gyXVtOSF1DKD1PKVtOSF1jMm5uW2NIXXMy

> <s_epik_cmdline>
J2VwaWtfcHl0aG9uJywgJy1waCcsICc3LjAnLCAnLXRuJywgJzgnLCAnLW1hJywgJzIwMCcsICctbWV0YWxfYmluZGluZycsICctaW1hZScsICc8aW5maWxlLm1hZT4nLCAnLW9tYWUnLCAnPG91dGZpbGUubWFlPic=

> <r_lp_tautomer_probability>
1

> <r_epik_Ionization_Penalty>
3.04208

> <r_epik_Ionization_Penalty_Charging>
3.00964

> <r_epik_Ionization_Penalty_Neutral>
0.0324455

> <r_epik_State_Penalty>
3.0051

> <r_epik_Charging_Adjusted_Penalty>
6.01474

> <i_epik_Tot_Q>
0

> <i_epik_Tot_abs_Q>
2

> <r_epik_Metal_State_Penalty>
0.454155

> <b_epik_Metal_Only>
1

> <s_lp_Force_Field>
OPLS_2005

> <r_lp_Energy>
27.863

> <b_lp_Chiralities_Consistent>
1

> <s_lp_Variant>
AV-unprocessed.smi:1522-3

> <Gold.Version>
5.8.1

> <Gold.Id.Protein>
6NUR|6NUR_protein|mol2

> <Gold.PLP.Fitness>
40.2511

> <Gold.PLP.PLP>
-29.2394

> <Gold.PLP.part.hbond>
-4.0000

> <Gold.PLP.part.metal>
0.0000

> <Gold.PLP.part.buried>
-4.7066

> <Gold.PLP.part.nonpolar>
-21.1466

> <Gold.PLP.part.repulsive>
0.4714

> <Gold.PLP.ligand.clash>
0.0000

> <Gold.PLP.ligand.torsion>
1.6707

> <Gold.PLP.Chemscore.Hbond>
4.7500

> <Gold.PLP.Chemscore.CHOScore>
0.0000

> <Gold.PLP.Chemscore.Metal>
0.0000

> <Gold.Chemscore.Hbonds>
donor molecule, donor type, donor heavy atom, donor atom, acceptor molecule, acceptor atom, score
      L1  H     4    24       P1  7948  0.65
      L1  H    13    34       P1 10747  1.00
      P1  H  7989  7998       L1    10  1.00
      P1  H 10752 10764       L1     7  2.00

> <Gold.PLP.Chemscore.Internal.Correction>
0.1032

> <Gold.Rescore>
     Score         DG    S(hbond)    S(metal)    S(lipo)     H(rot)  DE(clash)    DE(int)     intcor
     15.85     -17.48       2.94        0.00      55.27       1.68       0.05       1.58       ----

> <Gold.Chemscore.Fitness>
15.8478

> <Gold.Chemscore.DG>
-17.4772

> <Gold.Chemscore.ZeroCoef>
-5.4800

> <Gold.Chemscore.Hbond>
2.9406

> <Gold.Chemscore.Metal>
0.0000

> <Gold.Chemscore.Lipo>
55.2703

> <Gold.Chemscore.Internal_Hbond>
0.0000

> <Gold.Chemscore.DEClash>
0.0515

> <Gold.Chemscore.DEInternal>
1.5779

> <Gold.Chemscore.Rot>
1.6762

> <Gold.Chemscore.Internal.Correction>
   9.000000E+99

> <Gold.Chemscore.Hbonds>
donor molecule, donor type, donor heavy atom, donor atom, acceptor molecule, acceptor atom, score
      L1  H     4    24       P1  7948  0.06
      L1  H    13    34       P1 10747  1.00
      P1  H  7989  7998       L1    10  0.60
      P1  H 10752 10764       L1     7  0.40

> <Gold.Chemscore.Hbond.Weighted>
-9.8216

> <Gold.Chemscore.Metal.Weighted>
-0.0000

> <Gold.Chemscore.Lipo.Weighted>
-6.4666

> <Gold.Chemscore.Internal_Hbond.Weighted>
0.0000

> <Gold.Chemscore.DEClash.Weighted>
0.0515

> <Gold.Chemscore.DEInternal.Weighted>
1.5779

> <Gold.Chemscore.Rot.Weighted>
4.2910

> <Gold.Chemscore.Internal.Correction.Weighted>
   9.000000E+99

> <Gold.Protein.RotatedTorsions>
[ 6907 6896 6895 6894 ] final  -55.50 input  -60.11 | X-H torsion
[ 7974 7965 7964 7962 ] final  -67.93 input  175.53 | X-H torsion
[ 8008 7997 7996 7995 ] final   93.68 input   59.86 | X-H torsion
[ 10167 10162 10161 10158 ] final  -12.09 input  -65.29 | X-H torsion
[ 10718 10713 10712 10709 ] final  -89.33 input   66.30 | X-H torsion
[ 10763 10752 10751 10750 ] final  -54.90 input  -60.55 | X-H torsion
[ 11005 11000 10999 10996 ] final   44.68 input  -57.11 | X-H torsion

> <Gold.Protein.ActiveResidues>
 VAL166  LYS551  ARG553  GLY616  TRP617  ASP618  TYR619  PRO620  LYS621  CYS622 
 ASP623  PHE694  ASN695  SER759  ASP760  ASP761  ALA762  ILE779  LEU786  VAL792 
 PHE793  MET794  SER795  GLU796  ALA797  LYS798  CYS799  TRP800  GLU811  SER814 

> <Gold.Protein.RotatedAtoms>
  150.8246  134.7471  159.6801 H   0  0  0  0  0  0  0  0  0  0  0  0  # atno 6907 bound_to 6896
  152.4358  134.5685  159.9924 H   0  0  0  0  0  0  0  0  0  0  0  0  # atno 6908 bound_to 6896
  151.5861  133.3334  159.3054 H   0  0  0  0  0  0  0  0  0  0  0  0  # atno 6909 bound_to 6896
  145.7229  140.9030  143.0620 H   0  0  0  0  0  0  0  0  0  0  0  0  # atno 7974 bound_to 7965
  156.0494  140.3310  155.7334 H   0  0  0  0  0  0  0  0  0  0  0  0  # atno 8008 bound_to 7997
  155.5624  140.0620  157.2843 H   0  0  0  0  0  0  0  0  0  0  0  0  # atno 8009 bound_to 7997
  154.4429  140.1875  156.0784 H   0  0  0  0  0  0  0  0  0  0  0  0  # atno 8010 bound_to 7997
  140.7153  143.5569  150.9238 H   0  0  0  0  0  0  0  0  0  0  0  0  # atno 10167 bound_to 10162
  155.9984  130.4868  150.5155 H   0  0  0  0  0  0  0  0  0  0  0  0  # atno 10718 bound_to 10713
  154.1822  135.6441  153.5037 H   0  0  0  0  0  0  0  0  0  0  0  0  # atno 10763 bound_to 10752
  153.0056  135.5408  154.6502 H   0  0  0  0  0  0  0  0  0  0  0  0  # atno 10764 bound_to 10752
  154.5869  135.2930  155.0648 H   0  0  0  0  0  0  0  0  0  0  0  0  # atno 10765 bound_to 10752
  140.1529  134.4439  155.8369 H   0  0  0  0  0  0  0  0  0  0  0  0  # atno 11005 bound_to 11000
  144.6912  139.9227  143.7468 LP  0  0  0  0  0  0  0  0  0  0  0  0  # atno 17320 bound_to 7965
  146.0608  139.3602  143.0582 LP  0  0  0  0  0  0  0  0  0  0  0  0  # atno 17321 bound_to 7965
  139.9294  143.6511  152.3079 LP  0  0  0  0  0  0  0  0  0  0  0  0  # atno 17342 bound_to 10162
  139.6956  144.7641  151.1362 LP  0  0  0  0  0  0  0  0  0  0  0  0  # atno 17343 bound_to 10162
  157.3123  131.0666  151.1992 LP  0  0  0  0  0  0  0  0  0  0  0  0  # atno 17370 bound_to 10713
  157.2934  130.6807  149.6126 LP  0  0  0  0  0  0  0  0  0  0  0  0  # atno 17371 bound_to 10713
  141.2201  133.6880  156.7454 LP  0  0  0  0  0  0  0  0  0  0  0  0  # atno 17394 bound_to 11000
  140.2583  134.8487  157.3734 LP  0  0  0  0  0  0  0  0  0  0  0  0  # atno 17395 bound_to 11000

$$$$
