AV-unprocessed.smi:35|AV-procd|sdf|277|dock4
  -GOLD-   2262016 43D 1   1.00000     0.00000
 Structure written by MMmdl.
 28 29  0  0  0  0  0  0  0  0  2 V2000
  151.6166  137.1651  159.9841 O   0  0  0  0  0  0  0  0  0  0  0  0
  151.0983  138.0051  159.2508 C   0  0  0  0  0  0  0  0  0  0  0  0
  151.7263  139.1611  158.8887 N   0  5  0  0  0  0  0  0  0  0  0  0
  151.1472  140.0891  158.0713 C   0  0  0  0  0  0  0  0  0  0  0  0
  151.7085  141.1301  157.7293 O   0  0  0  0  0  0  0  0  0  0  0  0
  149.8362  139.8488  157.5759 N   0  0  0  0  0  0  0  0  0  0  0  0
  149.1986  140.8825  156.6678 C   0  0  2  0  0  0  0  0  0  0  0  0
  147.9325  140.4396  156.2558 O   0  0  0  0  0  0  0  0  0  0  0  0
  147.8314  140.3811  154.8324 C   0  0  2  0  0  0  0  0  0  0  0  0
  147.9449  138.9095  154.3797 C   0  0  0  0  0  0  0  0  0  0  0  0
  148.1160  138.8225  152.9804 O   0  0  0  0  0  0  0  0  0  0  0  0
  148.9377  141.3323  154.3562 C   0  0  2  0  0  0  0  0  0  0  0  0
  149.3795  141.1409  153.0251 O   0  0  0  0  0  0  0  0  0  0  0  0
  150.0317  141.1769  155.4016 C   0  0  2  0  0  0  0  0  0  0  0  0
  150.9578  140.1516  155.0771 O   0  0  0  0  0  0  0  0  0  0  0  0
  149.1732  138.6855  157.9292 C   0  0  0  0  0  0  0  0  0  0  0  0
  149.7521  137.7725  158.7348 C   0  0  0  0  0  0  0  0  0  0  0  0
  148.6883  136.1537  159.1529 Br  0  0  0  0  0  0  0  0  0  0  0  0
  149.0462  141.7653  157.2914 H   0  0  0  0  0  0  0  0  0  0  0  0
  146.8508  140.7635  154.5460 H   0  0  0  0  0  0  0  0  0  0  0  0
  148.7534  138.3850  154.8871 H   0  0  0  0  0  0  0  0  0  0  0  0
  147.0230  138.3801  154.6198 H   0  0  0  0  0  0  0  0  0  0  0  0
  148.1967  137.9110  152.7446 H   0  0  0  0  0  0  0  0  0  0  0  0
  148.5525  142.3505  154.4270 H   0  0  0  0  0  0  0  0  0  0  0  0
  149.1377  140.2691  152.7529 H   0  0  0  0  0  0  0  0  0  0  0  0
  150.5888  142.1040  155.5404 H   0  0  0  0  0  0  0  0  0  0  0  0
  151.4766  139.9681  155.8459 H   0  0  0  0  0  0  0  0  0  0  0  0
  148.1782  138.4905  157.5635 H   0  0  0  0  0  0  0  0  0  0  0  0
  1  2  2  0  0  0  0
  2 17  1  0  0  0  0
  2  3  1  0  0  0  0
  3  4  1  0  0  0  0
  4  5  2  0  0  0  0
  4  6  1  0  0  0  0
  6  7  1  0  0  0  0
  6 16  1  0  0  0  0
  7 14  1  0  0  0  0
  7  8  1  0  0  0  0
  7 19  1  0  0  0  0
  8  9  1  0  0  0  0
  9 10  1  0  0  0  0
  9 12  1  0  0  0  0
  9 20  1  0  0  0  0
 10 11  1  0  0  0  0
 10 21  1  0  0  0  0
 10 22  1  0  0  0  0
 11 23  1  0  0  0  0
 12 13  1  0  0  0  0
 12 14  1  0  0  0  0
 12 24  1  0  0  0  0
 13 25  1  0  0  0  0
 14 15  1  0  0  0  0
 14 26  1  0  0  0  0
 15 27  1  0  0  0  0
 16 17  2  0  0  0  0
 16 28  1  0  0  0  0
 17 18  1  0  0  0  0
M  CHG  1   3  -1
M  END
> <s_m_source_file>
AV-unprocessed.smi

> <i_m_source_file_index>
35

> <i_lp_mmshare_version>
43012

> <i_f3d_flags>
0

> <s_epik_input>
Tz1jMVtuSF1jKD1PKW4oW2NIXWMxQnIpW0NAQEhdMk9bQ0BASF0oW0NIMl1bT0hdKVtDQEBIXShbT0hdKVtDQEhdMltPSF0=

> <s_epik_cmdline>
J2VwaWtfcHl0aG9uJywgJy1waCcsICc3LjAnLCAnLXRuJywgJzgnLCAnLW1hJywgJzIwMCcsICctbWV0YWxfYmluZGluZycsICctaW1hZScsICc8aW5maWxlLm1hZT4nLCAnLW9tYWUnLCAnPG91dGZpbGUubWFlPic=

> <r_epik_Ionization_Penalty>
1.06112

> <r_epik_Ionization_Penalty_Charging>
2.1796e-09

> <r_epik_Ionization_Penalty_Neutral>
1.06112

> <r_epik_State_Penalty>
1.11484

> <r_epik_Charging_Adjusted_Penalty>
1.11484

> <i_epik_Tot_Q>
-1

> <i_epik_Tot_abs_Q>
1

> <r_epik_Metal_State_Penalty>
0.0032876

> <b_epik_Metal_Only>
0

> <s_epik_Chemistry_Notes>
This compound contains an acetal/aminal-like group ( X-CH(R)-Y where X, Y are N, S, or O) that may be acid/base labile, releasing an aldehyde.

> <s_lp_Force_Field>
OPLS_2005

> <r_lp_Energy>
49.5496

> <b_lp_Chiralities_Consistent>
1

> <s_lp_Variant>
AV-unprocessed.smi:35-31

> <Gold.Version>
5.8.1

> <Gold.Id.Protein>
6NUR|6NUR_protein|mol2

> <Gold.PLP.Fitness>
37.1663

> <Gold.PLP.PLP>
-24.7536

> <Gold.PLP.part.hbond>
-5.7336

> <Gold.PLP.part.metal>
0.0000

> <Gold.PLP.part.buried>
-4.9699

> <Gold.PLP.part.nonpolar>
-14.3643

> <Gold.PLP.part.repulsive>
0.0265

> <Gold.PLP.ligand.clash>
0.0000

> <Gold.PLP.ligand.torsion>
0.0598

> <Gold.PLP.Chemscore.Hbond>
4.1760

> <Gold.PLP.Chemscore.CHOScore>
0.0000

> <Gold.PLP.Chemscore.Metal>
0.0000

> <Gold.Chemscore.Hbonds>
donor molecule, donor type, donor heavy atom, donor atom, acceptor molecule, acceptor atom, score
      L1  H    11    23       P1  7948  1.00
      L1  H    13    25       P1  7957  0.18
      P1  H  6896  6907       L1     1  1.00
      P1  H  7989  7998       L1    15  0.95
      P1  H  8011  8017       L1    13  0.94

> <Gold.PLP.Chemscore.Internal.Correction>
0.0043

> <Gold.Rescore>
     Score         DG    S(hbond)    S(metal)    S(lipo)     H(rot)  DE(clash)    DE(int)     intcor
     11.38     -13.73       4.20        0.00      29.82       3.63       0.01       2.34       ----

> <Gold.Chemscore.Fitness>
11.3756

> <Gold.Chemscore.DG>
-13.7280

> <Gold.Chemscore.ZeroCoef>
-5.4800

> <Gold.Chemscore.Hbond>
4.2042

> <Gold.Chemscore.Metal>
0.0000

> <Gold.Chemscore.Lipo>
29.8169

> <Gold.Chemscore.Internal_Hbond>
0.0000

> <Gold.Chemscore.DEClash>
0.0110

> <Gold.Chemscore.DEInternal>
2.3413

> <Gold.Chemscore.Rot>
3.6261

> <Gold.Chemscore.Internal.Correction>
   9.000000E+99

> <Gold.Chemscore.Hbonds>
donor molecule, donor type, donor heavy atom, donor atom, acceptor molecule, acceptor atom, score
      L1  H    11    23       P1  7948  0.93
      L1  H    13    25       P1  7957  0.19
      P1  H  6896  6907       L1     1  0.97
      P1  H  7989  7998       L1    15  0.21
      P1  H  8011  8017       L1    13  0.81

> <Gold.Chemscore.Hbond.Weighted>
-14.0422

> <Gold.Chemscore.Metal.Weighted>
-0.0000

> <Gold.Chemscore.Lipo.Weighted>
-3.4886

> <Gold.Chemscore.Internal_Hbond.Weighted>
0.0000

> <Gold.Chemscore.DEClash.Weighted>
0.0110

> <Gold.Chemscore.DEInternal.Weighted>
2.3413

> <Gold.Chemscore.Rot.Weighted>
9.2828

> <Gold.Chemscore.Internal.Correction.Weighted>
   9.000000E+99

> <Gold.Protein.RotatedTorsions>
[ 6907 6896 6895 6894 ] final    0.22 input  -60.11 | X-H torsion
[ 7974 7965 7964 7962 ] final   94.13 input  175.53 | X-H torsion
[ 8008 7997 7996 7995 ] final  -41.84 input   59.86 | X-H torsion
[ 10167 10162 10161 10158 ] final  175.26 input  -65.29 | X-H torsion
[ 10718 10713 10712 10709 ] final    9.48 input   66.30 | X-H torsion
[ 10763 10752 10751 10750 ] final  174.10 input  -60.55 | X-H torsion
[ 11005 11000 10999 10996 ] final  -51.78 input  -57.11 | X-H torsion

> <Gold.Protein.ActiveResidues>
 VAL166  LYS551  ARG553  GLY616  TRP617  ASP618  TYR619  PRO620  LYS621  CYS622 
 ASP623  PHE694  ASN695  SER759  ASP760  ASP761  ALA762  ILE779  LEU786  VAL792 
 PHE793  MET794  SER795  GLU796  ALA797  LYS798  CYS799  TRP800  GLU811  SER814 

> <Gold.Protein.RotatedAtoms>
  151.5729  135.1062  159.9999 H   0  0  0  0  0  0  0  0  0  0  0  0  # atno 6907 bound_to 6896
  152.4392  133.7412  159.6652 H   0  0  0  0  0  0  0  0  0  0  0  0  # atno 6908 bound_to 6896
  150.8294  133.8047  159.3128 H   0  0  0  0  0  0  0  0  0  0  0  0  # atno 6909 bound_to 6896
  145.4697  139.2282  143.2942 H   0  0  0  0  0  0  0  0  0  0  0  0  # atno 7974 bound_to 7965
  154.4002  140.1489  156.3257 H   0  0  0  0  0  0  0  0  0  0  0  0  # atno 8008 bound_to 7997
  155.8489  140.3458  155.5659 H   0  0  0  0  0  0  0  0  0  0  0  0  # atno 8009 bound_to 7997
  155.8006  140.0869  157.1950 H   0  0  0  0  0  0  0  0  0  0  0  0  # atno 8010 bound_to 7997
  139.5171  144.3052  152.0342 H   0  0  0  0  0  0  0  0  0  0  0  0  # atno 10167 bound_to 10162
  156.9669  130.5954  149.5666 H   0  0  0  0  0  0  0  0  0  0  0  0  # atno 10718 bound_to 10713
  154.4493  135.2764  155.1792 H   0  0  0  0  0  0  0  0  0  0  0  0  # atno 10763 bound_to 10752
  154.3626  135.6126  153.5702 H   0  0  0  0  0  0  0  0  0  0  0  0  # atno 10764 bound_to 10752
  152.9846  135.5838  154.4835 H   0  0  0  0  0  0  0  0  0  0  0  0  # atno 10765 bound_to 10752
  141.0889  133.6636  156.3928 H   0  0  0  0  0  0  0  0  0  0  0  0  # atno 11005 bound_to 11000
  146.2404  140.5474  142.8936 LP  0  0  0  0  0  0  0  0  0  0  0  0  # atno 17320 bound_to 7965
  144.7953  140.6110  143.6514 LP  0  0  0  0  0  0  0  0  0  0  0  0  # atno 17321 bound_to 7965
  140.2498  144.4181  150.6226 LP  0  0  0  0  0  0  0  0  0  0  0  0  # atno 17342 bound_to 10162
  140.6232  143.2178  151.6650 LP  0  0  0  0  0  0  0  0  0  0  0  0  # atno 17343 bound_to 10162
  156.0299  130.5391  150.8506 LP  0  0  0  0  0  0  0  0  0  0  0  0  # atno 17370 bound_to 10713
  157.5619  131.0946  150.9546 LP  0  0  0  0  0  0  0  0  0  0  0  0  # atno 17371 bound_to 10713
  140.5297  134.6224  157.5346 LP  0  0  0  0  0  0  0  0  0  0  0  0  # atno 17394 bound_to 11000
  139.9712  134.7290  156.0038 LP  0  0  0  0  0  0  0  0  0  0  0  0  # atno 17395 bound_to 11000

$$$$
