AV-unprocessed.smi:1591|AV-procd|sdf|6399|dock4
  -GOLD-   22720 7 33D 1   1.00000     0.00000
 Structure written by MMmdl.
 51 54  0  0  0  0  0  0  0  0  2 V2000
  146.8259  138.7160  152.2668 C   0  0  0  0  0  0  0  0  0  0  0  0
  146.2788  138.4595  153.6794 C   0  0  0  0  0  0  0  0  0  0  0  0
  146.2390  136.9617  154.0732 C   0  0  2  0  0  0  0  0  0  0  0  0
  147.6089  136.4945  154.2992 N   0  0  0  0  0  0  0  0  0  0  0  0
  148.0932  135.9667  155.4343 C   0  0  0  0  0  0  0  0  0  0  0  0
  147.4488  135.8854  156.4796 O   0  0  0  0  0  0  0  0  0  0  0  0
  149.5273  135.4355  155.3651 C   0  0  0  0  0  0  0  0  0  0  0  0
  149.5334  133.9799  155.1548 N   0  0  0  0  0  0  0  0  0  0  0  0
  148.9332  133.5002  153.9768 C   0  0  0  0  0  0  0  0  0  0  0  0
  148.8534  132.1845  153.7033 C   0  0  0  0  0  0  0  0  0  0  0  0
  149.4103  131.2451  154.6684 C   0  0  0  0  0  0  0  0  0  0  0  0
  149.3454  130.0395  154.4361 O   0  0  0  0  0  0  0  0  0  0  0  0
  149.9829  131.7587  155.7963 N   0  5  0  0  0  0  0  0  0  0  0  0
  150.0546  133.1001  156.0624 C   0  0  0  0  0  0  0  0  0  0  0  0
  150.5715  133.5397  157.0897 O   0  0  0  0  0  0  0  0  0  0  0  0
  145.4984  136.0188  153.0633 C   0  0  0  0  0  0  0  0  0  0  0  0
  144.1463  136.6209  152.5803 C   0  0  0  0  0  0  0  0  0  0  0  0
  143.4569  135.6757  151.5718 C   0  0  1  0  0  0  0  0  0  0  0  0
  144.3666  135.4736  150.3428 C   0  0  0  0  0  0  0  0  0  0  0  0
  145.6976  134.8419  150.7979 C   0  0  2  0  0  0  0  0  0  0  0  0
  145.4306  133.4779  151.4628 C   0  0  0  0  0  0  0  0  0  0  0  0
  144.5195  133.6879  152.6874 C   0  0  2  0  0  0  0  0  0  0  0  0
  143.1817  134.3127  152.2401 C   0  0  0  0  0  0  0  0  0  0  0  0
  145.2123  134.6266  153.6985 C   0  0  0  0  0  0  0  0  0  0  0  0
  146.3903  135.7811  151.8055 C   0  0  0  0  0  0  0  0  0  0  0  0
  146.9001  139.7860  152.0710 H   0  0  0  0  0  0  0  0  0  0  0  0
  146.1808  138.2878  151.4992 H   0  0  0  0  0  0  0  0  0  0  0  0
  147.8214  138.2874  152.1474 H   0  0  0  0  0  0  0  0  0  0  0  0
  146.9113  139.0131  154.3711 H   0  0  0  0  0  0  0  0  0  0  0  0
  145.2844  138.8993  153.7538 H   0  0  0  0  0  0  0  0  0  0  0  0
  145.6871  136.9126  155.0136 H   0  0  0  0  0  0  0  0  0  0  0  0
  148.2263  136.5194  153.5009 H   0  0  0  0  0  0  0  0  0  0  0  0
  150.0730  135.9337  154.5619 H   0  0  0  0  0  0  0  0  0  0  0  0
  150.0547  135.7101  156.2798 H   0  0  0  0  0  0  0  0  0  0  0  0
  148.5386  134.2618  153.3201 H   0  0  0  0  0  0  0  0  0  0  0  0
  148.3860  131.8334  152.7953 H   0  0  0  0  0  0  0  0  0  0  0  0
  143.4777  136.7907  153.4243 H   0  0  0  0  0  0  0  0  0  0  0  0
  144.3008  137.5940  152.1127 H   0  0  0  0  0  0  0  0  0  0  0  0
  142.5127  136.1178  151.2521 H   0  0  0  0  0  0  0  0  0  0  0  0
  143.8754  134.8336  149.6089 H   0  0  0  0  0  0  0  0  0  0  0  0
  144.5510  136.4276  149.8469 H   0  0  0  0  0  0  0  0  0  0  0  0
  146.3449  134.7008  149.9317 H   0  0  0  0  0  0  0  0  0  0  0  0
  144.9618  132.7953  150.7530 H   0  0  0  0  0  0  0  0  0  0  0  0
  146.3699  133.0133  151.7648 H   0  0  0  0  0  0  0  0  0  0  0  0
  144.3271  132.7253  153.1621 H   0  0  0  0  0  0  0  0  0  0  0  0
  142.5169  134.4374  153.0956 H   0  0  0  0  0  0  0  0  0  0  0  0
  142.6680  133.6477  151.5447 H   0  0  0  0  0  0  0  0  0  0  0  0
  146.1401  134.1741  154.0514 H   0  0  0  0  0  0  0  0  0  0  0  0
  144.5642  134.7191  154.5690 H   0  0  0  0  0  0  0  0  0  0  0  0
  146.6127  136.7196  151.2976 H   0  0  0  0  0  0  0  0  0  0  0  0
  147.3538  135.3623  152.0998 H   0  0  0  0  0  0  0  0  0  0  0  0
  1  2  1  0  0  0  0
  1 26  1  0  0  0  0
  1 27  1  0  0  0  0
  1 28  1  0  0  0  0
  2  3  1  0  0  0  0
  2 29  1  0  0  0  0
  2 30  1  0  0  0  0
  3  4  1  0  0  0  0
  3 16  1  0  0  0  0
  3 31  1  0  0  0  0
  4  5  1  0  0  0  0
  4 32  1  0  0  0  0
  5  6  2  0  0  0  0
  5  7  1  0  0  0  0
  7  8  1  0  0  0  0
  7 33  1  0  0  0  0
  7 34  1  0  0  0  0
  8 14  1  0  0  0  0
  8  9  1  0  0  0  0
  9 10  2  0  0  0  0
  9 35  1  0  0  0  0
 10 11  1  0  0  0  0
 10 36  1  0  0  0  0
 11 12  2  0  0  0  0
 11 13  1  0  0  0  0
 13 14  1  0  0  0  0
 14 15  2  0  0  0  0
 16 24  1  0  0  0  0
 16 25  1  0  0  0  0
 16 17  1  0  0  0  0
 17 18  1  0  0  0  0
 17 37  1  0  0  0  0
 17 38  1  0  0  0  0
 18 23  1  0  0  0  0
 18 19  1  0  0  0  0
 18 39  1  0  0  0  0
 19 20  1  0  0  0  0
 19 40  1  0  0  0  0
 19 41  1  0  0  0  0
 20 21  1  0  0  0  0
 20 25  1  0  0  0  0
 20 42  1  0  0  0  0
 21 22  1  0  0  0  0
 21 43  1  0  0  0  0
 21 44  1  0  0  0  0
 22 23  1  0  0  0  0
 22 24  1  0  0  0  0
 22 45  1  0  0  0  0
 23 46  1  0  0  0  0
 23 47  1  0  0  0  0
 24 48  1  0  0  0  0
 24 49  1  0  0  0  0
 25 50  1  0  0  0  0
 25 51  1  0  0  0  0
M  CHG  1  13  -1
M  END
> <s_m_source_file>
AV-unprocessed.smi

> <i_m_source_file_index>
1591

> <i_lp_mmshare_version>
43012

> <i_f3d_flags>
0

> <s_epik_input>
W0NIMl0xW0NASF0oW0NIMl0yKVtDSDJdW0NASF0oW0NIMl0zKVtDSDJdW0NAQEhdMVtDSDJdQzIzW0NASF0oW0NIMl1bQ0gzXSlbTkhdQyg9TylbQ0gyXW40W2NIXVtjSF1jKD1PKVtuSF1jND1P

> <s_epik_cmdline>
J2VwaWtfcHl0aG9uJywgJy1waCcsICc3LjAnLCAnLXRuJywgJzgnLCAnLW1hJywgJzIwMCcsICctbWV0YWxfYmluZGluZycsICctaW1hZScsICc8aW5maWxlLm1hZT4nLCAnLW9tYWUnLCAnPG91dGZpbGUubWFlPic=

> <r_lp_tautomer_probability>
0.999537

> <r_epik_Ionization_Penalty>
3.13902

> <r_epik_Ionization_Penalty_Charging>
2.97334e-08

> <r_epik_Ionization_Penalty_Neutral>
3.13902

> <r_epik_State_Penalty>
3.13814

> <r_epik_Charging_Adjusted_Penalty>
3.13814

> <i_epik_Tot_Q>
-1

> <i_epik_Tot_abs_Q>
1

> <r_epik_Metal_State_Penalty>
0.465244

> <b_epik_Metal_Only>
1

> <s_lp_Force_Field>
OPLS_2005

> <r_lp_Energy>
48.864

> <b_lp_Chiralities_Consistent>
1

> <s_lp_Variant>
AV-unprocessed.smi:1591-3

> <Gold.Version>
5.8.1

> <Gold.Id.Protein>
6NUR|6NUR_protein|mol2

> <Gold.PLP.Fitness>
39.9341

> <Gold.PLP.PLP>
-33.2960

> <Gold.PLP.part.hbond>
-2.0000

> <Gold.PLP.part.metal>
0.0000

> <Gold.PLP.part.buried>
-0.9600

> <Gold.PLP.part.nonpolar>
-31.0958

> <Gold.PLP.part.repulsive>
0.0628

> <Gold.PLP.ligand.clash>
0.0000

> <Gold.PLP.ligand.torsion>
0.6399

> <Gold.PLP.Chemscore.Hbond>
1.6406

> <Gold.PLP.Chemscore.CHOScore>
0.9692

> <Gold.PLP.Chemscore.Metal>
0.0000

> <Gold.Chemscore.Hbonds>
donor molecule, donor type, donor heavy atom, donor atom, acceptor molecule, acceptor atom, score
      L1  H     4    32       P1  7948  1.00
      P1  H  6896  6909       L1    15  0.58
      L1  C     9    35       P1  7948  0.99

> <Gold.PLP.Chemscore.Internal.Correction>
0.0884

> <Gold.Rescore>
     Score         DG    S(hbond)    S(metal)    S(lipo)     H(rot)  DE(clash)    DE(int)     intcor
     13.36     -16.04       1.95        0.00      78.04       1.99       1.69       0.99       ----

> <Gold.Chemscore.Fitness>
13.3551

> <Gold.Chemscore.DG>
-16.0398

> <Gold.Chemscore.ZeroCoef>
-5.4800

> <Gold.Chemscore.Hbond>
1.9499

> <Gold.Chemscore.Metal>
0.0000

> <Gold.Chemscore.Lipo>
78.0413

> <Gold.Chemscore.Internal_Hbond>
0.0000

> <Gold.Chemscore.DEClash>
1.6931

> <Gold.Chemscore.DEInternal>
0.9915

> <Gold.Chemscore.Rot>
1.9858

> <Gold.Chemscore.Internal.Correction>
   9.000000E+99

> <Gold.Chemscore.Hbonds>
donor molecule, donor type, donor heavy atom, donor atom, acceptor molecule, acceptor atom, score
      L1  H     4    32       P1  7948  1.00
      P1  H  6896  6909       L1    15  0.57

> <Gold.Chemscore.Hbond.Weighted>
-6.5126

> <Gold.Chemscore.Metal.Weighted>
-0.0000

> <Gold.Chemscore.Lipo.Weighted>
-9.1308

> <Gold.Chemscore.Internal_Hbond.Weighted>
0.0000

> <Gold.Chemscore.DEClash.Weighted>
1.6931

> <Gold.Chemscore.DEInternal.Weighted>
0.9915

> <Gold.Chemscore.Rot.Weighted>
5.0836

> <Gold.Chemscore.Internal.Correction.Weighted>
   9.000000E+99

> <Gold.Protein.RotatedTorsions>
[ 6907 6896 6895 6894 ] final  -14.63 input  -60.11 | X-H torsion
[ 7974 7965 7964 7962 ] final  -56.16 input  175.53 | X-H torsion
[ 8008 7997 7996 7995 ] final   28.94 input   59.86 | X-H torsion
[ 10167 10162 10161 10158 ] final    1.76 input  -65.29 | X-H torsion
[ 10718 10713 10712 10709 ] final  -48.06 input   66.30 | X-H torsion
[ 10763 10752 10751 10750 ] final   96.50 input  -60.55 | X-H torsion
[ 11005 11000 10999 10996 ] final -135.99 input  -57.11 | X-H torsion

> <Gold.Protein.ActiveResidues>
 VAL166  LYS551  ARG553  GLY616  TRP617  ASP618  TYR619  PRO620  LYS621  CYS622 
 ASP623  PHE694  ASN695  SER759  ASP760  ASP761  ALA762  ILE779  LEU786  VAL792 
 PHE793  MET794  SER795  GLU796  ALA797  LYS798  CYS799  TRP800  GLU811  SER814 

> <Gold.Protein.RotatedAtoms>
  151.3364  135.0853  159.9355 H   0  0  0  0  0  0  0  0  0  0  0  0  # atno 6907 bound_to 6896
  152.5222  133.9491  159.7673 H   0  0  0  0  0  0  0  0  0  0  0  0  # atno 6908 bound_to 6896
  150.9839  133.6164  159.2748 H   0  0  0  0  0  0  0  0  0  0  0  0  # atno 6909 bound_to 6896
  145.8659  140.8252  142.9913 H   0  0  0  0  0  0  0  0  0  0  0  0  # atno 7974 bound_to 7965
  155.0666  140.3196  155.4643 H   0  0  0  0  0  0  0  0  0  0  0  0  # atno 8008 bound_to 7997
  156.2800  140.2119  156.5738 H   0  0  0  0  0  0  0  0  0  0  0  0  # atno 8009 bound_to 7997
  154.7088  140.0500  157.0518 H   0  0  0  0  0  0  0  0  0  0  0  0  # atno 8010 bound_to 7997
  140.6667  143.7159  150.7841 H   0  0  0  0  0  0  0  0  0  0  0  0  # atno 10167 bound_to 10162
  156.2024  130.4157  149.9223 H   0  0  0  0  0  0  0  0  0  0  0  0  # atno 10718 bound_to 10713
  153.2657  135.4216  155.0938 H   0  0  0  0  0  0  0  0  0  0  0  0  # atno 10763 bound_to 10752
  154.8437  135.3460  154.6314 H   0  0  0  0  0  0  0  0  0  0  0  0  # atno 10764 bound_to 10752
  153.6734  135.7042  153.5197 H   0  0  0  0  0  0  0  0  0  0  0  0  # atno 10765 bound_to 10752
  140.8847  134.1888  157.4568 H   0  0  0  0  0  0  0  0  0  0  0  0  # atno 11005 bound_to 11000
  144.6726  140.1165  143.7452 LP  0  0  0  0  0  0  0  0  0  0  0  0  # atno 17320 bound_to 7965
  145.9194  139.2536  143.1390 LP  0  0  0  0  0  0  0  0  0  0  0  0  # atno 17321 bound_to 7965
  140.0838  143.4943  152.2516 LP  0  0  0  0  0  0  0  0  0  0  0  0  # atno 17342 bound_to 10162
  139.5919  144.7553  151.3380 LP  0  0  0  0  0  0  0  0  0  0  0  0  # atno 17343 bound_to 10162
  156.6928  130.8902  151.3590 LP  0  0  0  0  0  0  0  0  0  0  0  0  # atno 17370 bound_to 10713
  157.6993  130.9316  150.0738 LP  0  0  0  0  0  0  0  0  0  0  0  0  # atno 17371 bound_to 10713
  139.8723  134.9832  156.5189 LP  0  0  0  0  0  0  0  0  0  0  0  0  # atno 17394 bound_to 11000
  140.8419  133.8198  155.9084 LP  0  0  0  0  0  0  0  0  0  0  0  0  # atno 17395 bound_to 11000

$$$$
