AV-unprocessed.smi:1269|AV-procd|sdf|5329|dock4
  -GOLD-   22720 4453D 1   1.00000     0.00000
 Structure written by MMmdl.
 44 45  0  0  0  0  0  0  0  0  2 V2000
  151.1234  141.1888  158.0329 C   0  0  0  0  0  0  0  0  0  0  0  0
  151.5270  140.6486  156.7794 O   0  0  0  0  0  0  0  0  0  0  0  0
  150.6401  139.8403  156.0984 C   0  0  0  0  0  0  0  0  0  0  0  0
  149.5267  139.3266  156.7921 C   0  0  0  0  0  0  0  0  0  0  0  0
  148.6148  138.5032  156.1045 C   0  0  0  0  0  0  0  0  0  0  0  0
  148.8496  138.2115  154.7387 C   0  0  0  0  0  0  0  0  0  0  0  0
  148.0053  137.4097  153.9214 N   0  0  0  0  0  0  0  0  0  0  0  0
  146.6897  137.1627  154.0429 C   0  0  0  0  0  0  0  0  0  0  0  0
  145.9630  137.5801  154.9435 O   0  0  0  0  0  0  0  0  0  0  0  0
  146.2482  136.3914  153.0381 N   0  0  0  0  0  0  0  0  0  0  0  0
  144.8755  135.9150  152.8568 C   0  0  2  0  0  0  0  0  0  0  0  0
  143.9053  137.0786  153.1029 C   0  0  0  0  0  0  0  0  0  0  0  0
  144.5665  134.7198  153.7882 C   0  0  0  0  0  0  0  0  0  0  0  0
  144.5989  133.4116  153.0862 N   0  3  0  0  0  0  0  0  0  0  0  0
  144.0490  133.4727  151.7120 C   0  0  0  0  0  0  0  0  0  0  0  0
  144.0353  132.0686  151.0835 C   0  0  0  0  0  0  0  0  0  0  0  0
  145.3500  131.5249  151.0947 O   0  0  0  0  0  0  0  0  0  0  0  0
  145.8623  131.3910  152.4153 C   0  0  0  0  0  0  0  0  0  0  0  0
  145.9384  132.7754  153.0792 C   0  0  0  0  0  0  0  0  0  0  0  0
  149.9911  138.7810  154.1365 C   0  0  0  0  0  0  0  0  0  0  0  0
  150.8676  139.5726  154.7889 N   0  0  0  0  0  0  0  0  0  0  0  0
  151.9297  141.8003  158.4377 H   0  0  0  0  0  0  0  0  0  0  0  0
  150.9103  140.4009  158.7568 H   0  0  0  0  0  0  0  0  0  0  0  0
  150.2445  141.8269  157.9287 H   0  0  0  0  0  0  0  0  0  0  0  0
  149.3723  139.5637  157.8344 H   0  0  0  0  0  0  0  0  0  0  0  0
  147.7576  138.1283  156.6398 H   0  0  0  0  0  0  0  0  0  0  0  0
  148.4712  136.9463  153.1547 H   0  0  0  0  0  0  0  0  0  0  0  0
  146.9209  136.0947  152.3457 H   0  0  0  0  0  0  0  0  0  0  0  0
  144.7379  135.6065  151.8196 H   0  0  0  0  0  0  0  0  0  0  0  0
  142.8723  136.7687  152.9417 H   0  0  0  0  0  0  0  0  0  0  0  0
  144.1070  137.9091  152.4252 H   0  0  0  0  0  0  0  0  0  0  0  0
  143.9838  137.4547  154.1235 H   0  0  0  0  0  0  0  0  0  0  0  0
  145.3098  134.7136  154.5872 H   0  0  0  0  0  0  0  0  0  0  0  0
  143.5992  134.8488  154.2766 H   0  0  0  0  0  0  0  0  0  0  0  0
  143.0341  133.8719  151.7346 H   0  0  0  0  0  0  0  0  0  0  0  0
  144.6500  134.1519  151.1054 H   0  0  0  0  0  0  0  0  0  0  0  0
  143.3520  131.4085  151.6206 H   0  0  0  0  0  0  0  0  0  0  0  0
  143.6831  132.1209  150.0531 H   0  0  0  0  0  0  0  0  0  0  0  0
  145.2338  130.7146  152.9973 H   0  0  0  0  0  0  0  0  0  0  0  0
  146.8547  130.9423  152.3667 H   0  0  0  0  0  0  0  0  0  0  0  0
  146.6449  133.4096  152.5412 H   0  0  0  0  0  0  0  0  0  0  0  0
  146.3158  132.6690  154.0957 H   0  0  0  0  0  0  0  0  0  0  0  0
  150.2106  138.5956  153.0949 H   0  0  0  0  0  0  0  0  0  0  0  0
  143.9874  132.7977  153.6058 H   0  0  0  0  0  0  0  0  0  0  0  0
  1  2  1  0  0  0  0
  1 22  1  0  0  0  0
  1 23  1  0  0  0  0
  1 24  1  0  0  0  0
  2  3  1  0  0  0  0
  3 21  1  0  0  0  0
  3  4  2  0  0  0  0
  4  5  1  0  0  0  0
  4 25  1  0  0  0  0
  5  6  2  0  0  0  0
  5 26  1  0  0  0  0
  6  7  1  0  0  0  0
  6 20  1  0  0  0  0
  7  8  1  0  0  0  0
  7 27  1  0  0  0  0
  8  9  2  0  0  0  0
  8 10  1  0  0  0  0
 10 11  1  0  0  0  0
 10 28  1  0  0  0  0
 11 12  1  0  0  0  0
 11 13  1  0  0  0  0
 11 29  1  0  0  0  0
 12 30  1  0  0  0  0
 12 31  1  0  0  0  0
 12 32  1  0  0  0  0
 13 14  1  0  0  0  0
 13 33  1  0  0  0  0
 13 34  1  0  0  0  0
 14 19  1  0  0  0  0
 14 15  1  0  0  0  0
 14 44  1  0  0  0  0
 15 16  1  0  0  0  0
 15 35  1  0  0  0  0
 15 36  1  0  0  0  0
 16 17  1  0  0  0  0
 16 37  1  0  0  0  0
 16 38  1  0  0  0  0
 17 18  1  0  0  0  0
 18 19  1  0  0  0  0
 18 39  1  0  0  0  0
 18 40  1  0  0  0  0
 19 41  1  0  0  0  0
 19 42  1  0  0  0  0
 20 21  2  0  0  0  0
 20 43  1  0  0  0  0
M  CHG  1  14   1
M  END
> <s_m_source_file>
AV-unprocessed.smi

> <i_m_source_file_index>
1269

> <i_lp_mmshare_version>
43012

> <i_f3d_flags>
0

> <s_epik_input>
W0NIM11PYzFbY0hdW2NIXWMoW2NIXW4xKVtOSF1DKD1PKVtOSF1bQ0BIXShbQ0gzXSlbQ0gyXU4yW0NIMl1bQ0gyXU9bQ0gyXVtDSDJdMg==

> <s_epik_cmdline>
J2VwaWtfcHl0aG9uJywgJy1waCcsICc3LjAnLCAnLXRuJywgJzgnLCAnLW1hJywgJzIwMCcsICctbWV0YWxfYmluZGluZycsICctaW1hZScsICc8aW5maWxlLm1hZT4nLCAnLW9tYWUnLCAnPG91dGZpbGUubWFlPic=

> <r_lp_tautomer_probability>
1

> <r_epik_Ionization_Penalty>
0.602604

> <r_epik_Ionization_Penalty_Charging>
0.602531

> <r_epik_Ionization_Penalty_Neutral>
7.37831e-05

> <r_epik_State_Penalty>
0.617039

> <r_epik_Charging_Adjusted_Penalty>
1.21957

> <i_epik_Tot_Q>
1

> <i_epik_Tot_abs_Q>
1

> <r_epik_Metal_State_Penalty>
0.617045

> <b_epik_Metal_Only>
0

> <s_lp_Force_Field>
OPLS_2005

> <r_lp_Energy>
25.4267

> <b_lp_Chiralities_Consistent>
1

> <s_lp_Variant>
AV-unprocessed.smi:1269-3

> <Gold.Version>
5.8.1

> <Gold.Id.Protein>
6NUR|6NUR_protein|mol2

> <Gold.PLP.Fitness>
38.9457

> <Gold.PLP.PLP>
-24.6073

> <Gold.PLP.part.hbond>
-3.9347

> <Gold.PLP.part.metal>
0.0000

> <Gold.PLP.part.buried>
-5.3552

> <Gold.PLP.part.nonpolar>
-16.8774

> <Gold.PLP.part.repulsive>
0.2628

> <Gold.PLP.ligand.clash>
0.0371

> <Gold.PLP.ligand.torsion>
1.4623

> <Gold.PLP.Chemscore.Hbond>
4.7317

> <Gold.PLP.Chemscore.CHOScore>
1.0251

> <Gold.PLP.Chemscore.Metal>
0.0000

> <Gold.Chemscore.Hbonds>
donor molecule, donor type, donor heavy atom, donor atom, acceptor molecule, acceptor atom, score
      L1  H     7    27       P1  7948  1.00
      L1  H    10    28       P1  7948  0.76
      L1  H    14    44       P1 10957  1.95
      P1  H  7989  7998       L1    21  1.00
      L1  C    20    43       P1  7948  0.07
      L1  C    20    43       P1  7957  0.96

> <Gold.PLP.Chemscore.Internal.Correction>
0.0300

> <Gold.Rescore>
     Score         DG    S(hbond)    S(metal)    S(lipo)     H(rot)  DE(clash)    DE(int)     intcor
     15.36     -18.98       3.53        0.00      53.57       1.78       0.13       3.49       ----

> <Gold.Chemscore.Fitness>
15.3576

> <Gold.Chemscore.DG>
-18.9843

> <Gold.Chemscore.ZeroCoef>
-5.4800

> <Gold.Chemscore.Hbond>
3.5311

> <Gold.Chemscore.Metal>
0.0000

> <Gold.Chemscore.Lipo>
53.5670

> <Gold.Chemscore.Internal_Hbond>
0.0000

> <Gold.Chemscore.DEClash>
0.1344

> <Gold.Chemscore.DEInternal>
3.4923

> <Gold.Chemscore.Rot>
1.7801

> <Gold.Chemscore.Internal.Correction>
   9.000000E+99

> <Gold.Chemscore.Hbonds>
donor molecule, donor type, donor heavy atom, donor atom, acceptor molecule, acceptor atom, score
      L1  H     7    27       P1  7948  0.95
      L1  H    10    28       P1  7948  0.73
      L1  H    14    44       P1 10957  0.64
      P1  H  7989  7998       L1    21  0.63

> <Gold.Chemscore.Hbond.Weighted>
-11.7940

> <Gold.Chemscore.Metal.Weighted>
-0.0000

> <Gold.Chemscore.Lipo.Weighted>
-6.2673

> <Gold.Chemscore.Internal_Hbond.Weighted>
0.0000

> <Gold.Chemscore.DEClash.Weighted>
0.1344

> <Gold.Chemscore.DEInternal.Weighted>
3.4923

> <Gold.Chemscore.Rot.Weighted>
4.5570

> <Gold.Chemscore.Internal.Correction.Weighted>
   9.000000E+99

> <Gold.Protein.RotatedTorsions>
[ 6907 6896 6895 6894 ] final -161.00 input  -60.11 | X-H torsion
[ 7974 7965 7964 7962 ] final   29.79 input  175.53 | X-H torsion
[ 8008 7997 7996 7995 ] final  -82.64 input   59.86 | X-H torsion
[ 10167 10162 10161 10158 ] final  167.00 input  -65.29 | X-H torsion
[ 10718 10713 10712 10709 ] final  -68.63 input   66.30 | X-H torsion
[ 10763 10752 10751 10750 ] final   52.09 input  -60.55 | X-H torsion
[ 11005 11000 10999 10996 ] final   86.35 input  -57.11 | X-H torsion

> <Gold.Protein.ActiveResidues>
 VAL166  LYS551  ARG553  GLY616  TRP617  ASP618  TYR619  PRO620  LYS621  CYS622 
 ASP623  PHE694  ASN695  SER759  ASP760  ASP761  ALA762  ILE779  LEU786  VAL792 
 PHE793  MET794  SER795  GLU796  ALA797  LYS798  CYS799  TRP800  GLU811  SER814 

> <Gold.Protein.RotatedAtoms>
  151.3579  133.3901  159.2686 H   0  0  0  0  0  0  0  0  0  0  0  0  # atno 6907 bound_to 6896
  150.9749  134.9116  159.7820 H   0  0  0  0  0  0  0  0  0  0  0  0  # atno 6908 bound_to 6896
  152.5197  134.3541  159.9314 H   0  0  0  0  0  0  0  0  0  0  0  0  # atno 6909 bound_to 6896
  146.1651  139.6875  142.9007 H   0  0  0  0  0  0  0  0  0  0  0  0  # atno 7974 bound_to 7965
  154.6107  140.0630  156.9490 H   0  0  0  0  0  0  0  0  0  0  0  0  # atno 8008 bound_to 7997
  155.1977  140.3312  155.4330 H   0  0  0  0  0  0  0  0  0  0  0  0  # atno 8009 bound_to 7997
  156.2375  140.1870  156.7063 H   0  0  0  0  0  0  0  0  0  0  0  0  # atno 8010 bound_to 7997
  139.4936  144.3968  151.9455 H   0  0  0  0  0  0  0  0  0  0  0  0  # atno 10167 bound_to 10162
  156.0495  130.4298  150.2029 H   0  0  0  0  0  0  0  0  0  0  0  0  # atno 10718 bound_to 10713
  152.9787  135.5824  154.4522 H   0  0  0  0  0  0  0  0  0  0  0  0  # atno 10763 bound_to 10752
  154.4109  135.2770  155.2039 H   0  0  0  0  0  0  0  0  0  0  0  0  # atno 10764 bound_to 10752
  154.3829  135.6142  153.5855 H   0  0  0  0  0  0  0  0  0  0  0  0  # atno 10765 bound_to 10752
  139.8947  134.8349  156.2709 H   0  0  0  0  0  0  0  0  0  0  0  0  # atno 11005 bound_to 11000
  145.4489  141.0427  143.2815 LP  0  0  0  0  0  0  0  0  0  0  0  0  # atno 17320 bound_to 7965
  144.8080  139.6014  143.7042 LP  0  0  0  0  0  0  0  0  0  0  0  0  # atno 17321 bound_to 7965
  140.3406  144.3207  150.5968 LP  0  0  0  0  0  0  0  0  0  0  0  0  # atno 17342 bound_to 10162
  140.5569  143.2198  151.7832 LP  0  0  0  0  0  0  0  0  0  0  0  0  # atno 17343 bound_to 10162
  157.0114  130.9952  151.3364 LP  0  0  0  0  0  0  0  0  0  0  0  0  # atno 17370 bound_to 10713
  157.5407  130.8118  149.8025 LP  0  0  0  0  0  0  0  0  0  0  0  0  # atno 17371 bound_to 10713
  141.0101  133.7100  156.1098 LP  0  0  0  0  0  0  0  0  0  0  0  0  # atno 17394 bound_to 11000
  140.7379  134.4183  157.5558 LP  0  0  0  0  0  0  0  0  0  0  0  0  # atno 17395 bound_to 11000

$$$$
