AV-unprocessed.smi:3225|AV-procd|sdf|12311|dock10
  -GOLD-   2272018153D 1   1.00000     0.00000
 Structure written by MMmdl.
 41 42  0  0  0  0  0  0  0  0  2 V2000
  151.1794  139.9682  156.2835 C   0  0  0  0  0  0  0  0  0  0  0  0
  150.8712  141.4301  156.6485 C   0  0  2  0  0  0  0  0  0  0  0  0
  150.7172  141.6367  158.1736 C   0  0  0  0  0  0  0  0  0  0  0  0
  151.1582  142.9470  158.6168 N   0  0  0  0  0  0  0  0  0  0  0  0
  152.3698  143.5674  158.3945 C   0  0  0  0  0  0  0  0  0  0  0  0
  152.3237  144.7818  159.0169 C   0  0  0  0  0  0  0  0  0  0  0  0
  151.0293  144.8113  159.6067 C   0  0  0  0  0  0  0  0  0  0  0  0
  150.3354  143.7097  159.3685 N   0  0  0  0  0  0  0  0  0  0  0  0
  149.6552  141.8692  155.9281 N   0  3  0  0  0  0  0  0  0  0  0  0
  149.5632  141.4294  154.5199 C   0  0  0  0  0  0  0  0  0  0  0  0
  148.4566  142.1896  153.7784 C   0  0  0  0  0  0  0  0  0  0  0  0
  147.2975  142.5864  154.7081 C   0  0  0  0  0  0  0  0  0  0  0  0
  146.5669  143.7441  154.1992 N   0  0  0  0  0  0  0  0  0  0  0  0
  146.8167  144.2487  152.8594 C   0  0  0  0  0  0  0  0  0  0  0  0
  146.0234  145.5606  152.7752 C   0  0  0  0  0  0  0  0  0  0  0  0
  145.0569  145.5383  153.9644 C   0  0  0  0  0  0  0  0  0  0  0  0
  145.5947  144.4124  154.8312 C   0  0  0  0  0  0  0  0  0  0  0  0
  145.1681  144.1750  155.9604 O   0  0  0  0  0  0  0  0  0  0  0  0
  152.1217  139.6353  156.7195 H   0  0  0  0  0  0  0  0  0  0  0  0
  151.2648  139.8437  155.2034 H   0  0  0  0  0  0  0  0  0  0  0  0
  150.3950  139.2971  156.6351 H   0  0  0  0  0  0  0  0  0  0  0  0
  151.7065  142.0343  156.2907 H   0  0  0  0  0  0  0  0  0  0  0  0
  149.6787  141.5171  158.4825 H   0  0  0  0  0  0  0  0  0  0  0  0
  151.2902  140.8817  158.7136 H   0  0  0  0  0  0  0  0  0  0  0  0
  153.1544  143.1004  157.8174 H   0  0  0  0  0  0  0  0  0  0  0  0
  153.0977  145.5343  159.0486 H   0  0  0  0  0  0  0  0  0  0  0  0
  150.5769  145.5935  160.1984 H   0  0  0  0  0  0  0  0  0  0  0  0
  148.8572  141.4827  156.4120 H   0  0  0  0  0  0  0  0  0  0  0  0
  150.5158  141.5904  154.0157 H   0  0  0  0  0  0  0  0  0  0  0  0
  149.3598  140.3581  154.4915 H   0  0  0  0  0  0  0  0  0  0  0  0
  148.8800  143.0822  153.3159 H   0  0  0  0  0  0  0  0  0  0  0  0
  148.0733  141.5715  152.9652 H   0  0  0  0  0  0  0  0  0  0  0  0
  146.6080  141.7485  154.8215 H   0  0  0  0  0  0  0  0  0  0  0  0
  147.6748  142.8104  155.7071 H   0  0  0  0  0  0  0  0  0  0  0  0
  147.8817  144.4070  152.6845 H   0  0  0  0  0  0  0  0  0  0  0  0
  146.4529  143.5249  152.1289 H   0  0  0  0  0  0  0  0  0  0  0  0
  146.6989  146.4125  152.8639 H   0  0  0  0  0  0  0  0  0  0  0  0
  145.4996  145.6558  151.8235 H   0  0  0  0  0  0  0  0  0  0  0  0
  145.0415  146.4864  154.5027 H   0  0  0  0  0  0  0  0  0  0  0  0
  144.0418  145.2977  153.6473 H   0  0  0  0  0  0  0  0  0  0  0  0
  149.5959  142.8766  155.9695 H   0  0  0  0  0  0  0  0  0  0  0  0
  1  2  1  0  0  0  0
  1 19  1  0  0  0  0
  1 20  1  0  0  0  0
  1 21  1  0  0  0  0
  2  3  1  0  0  0  0
  2  9  1  0  0  0  0
  2 22  1  0  0  0  0
  3  4  1  0  0  0  0
  3 23  1  0  0  0  0
  3 24  1  0  0  0  0
  4  8  1  0  0  0  0
  4  5  1  0  0  0  0
  5  6  2  0  0  0  0
  5 25  1  0  0  0  0
  6  7  1  0  0  0  0
  6 26  1  0  0  0  0
  7  8  2  0  0  0  0
  7 27  1  0  0  0  0
  9 10  1  0  0  0  0
  9 28  1  0  0  0  0
  9 41  1  0  0  0  0
 10 11  1  0  0  0  0
 10 29  1  0  0  0  0
 10 30  1  0  0  0  0
 11 12  1  0  0  0  0
 11 31  1  0  0  0  0
 11 32  1  0  0  0  0
 12 13  1  0  0  0  0
 12 33  1  0  0  0  0
 12 34  1  0  0  0  0
 13 17  1  0  0  0  0
 13 14  1  0  0  0  0
 14 15  1  0  0  0  0
 14 35  1  0  0  0  0
 14 36  1  0  0  0  0
 15 16  1  0  0  0  0
 15 37  1  0  0  0  0
 15 38  1  0  0  0  0
 16 17  1  0  0  0  0
 16 39  1  0  0  0  0
 16 40  1  0  0  0  0
 17 18  2  0  0  0  0
M  CHG  1   9   1
M  END
> <s_m_source_file>
AV-unprocessed.smi

> <i_m_source_file_index>
3225

> <i_lp_mmshare_version>
43012

> <i_f3d_flags>
0

> <s_epik_input>
bjFbY0hdW2NIXVtjSF1uMVtDSDJdW0NAQEhdKFtDSDNdKVtOSF1bQ0gyXVtDSDJdW0NIMl1OMltDSDJdW0NIMl1bQ0gyXUMyPU8=

> <s_epik_cmdline>
J2VwaWtfcHl0aG9uJywgJy1waCcsICc3LjAnLCAnLXRuJywgJzgnLCAnLW1hJywgJzIwMCcsICctbWV0YWxfYmluZGluZycsICctaW1hZScsICc8aW5maWxlLm1hZT4nLCAnLW9tYWUnLCAnPG91dGZpbGUubWFlPic=

> <r_lp_tautomer_probability>
1

> <r_epik_Ionization_Penalty>
0.00490443

> <r_epik_Ionization_Penalty_Charging>
0.00490019

> <r_epik_Ionization_Penalty_Neutral>
4.24076e-06

> <r_epik_State_Penalty>
0.00355741

> <r_epik_Charging_Adjusted_Penalty>
0.0084576

> <i_epik_Tot_Q>
1

> <i_epik_Tot_abs_Q>
1

> <r_epik_Metal_State_Penalty>
-0

> <b_epik_Metal_Only>
0

> <s_lp_Force_Field>
OPLS_2005

> <r_lp_Energy>
20.009

> <b_lp_Chiralities_Consistent>
1

> <s_lp_Variant>
AV-unprocessed.smi:3225-1

> <Gold.Version>
5.8.1

> <Gold.Id.Protein>
6NUR|6NUR_protein|mol2

> <Gold.PLP.Fitness>
49.3842

> <Gold.PLP.PLP>
-45.3244

> <Gold.PLP.part.hbond>
-1.0000

> <Gold.PLP.part.metal>
0.0000

> <Gold.PLP.part.buried>
-5.0078

> <Gold.PLP.part.nonpolar>
-39.3011

> <Gold.PLP.part.repulsive>
0.2516

> <Gold.PLP.ligand.clash>
0.0039

> <Gold.PLP.ligand.torsion>
0.9950

> <Gold.PLP.Chemscore.Hbond>
2.0000

> <Gold.PLP.Chemscore.CHOScore>
0.0000

> <Gold.PLP.Chemscore.Metal>
0.0000

> <Gold.Chemscore.Hbonds>
donor molecule, donor type, donor heavy atom, donor atom, acceptor molecule, acceptor atom, score
      L1  H     9    41       P1  8028  2.00

> <Gold.PLP.Chemscore.Internal.Correction>
0.0538

> <Gold.Rescore>
     Score         DG    S(hbond)    S(metal)    S(lipo)     H(rot)  DE(clash)    DE(int)     intcor
     13.94     -14.77       0.98        0.00      99.22       2.19       0.15       0.68       ----

> <Gold.Chemscore.Fitness>
13.9418

> <Gold.Chemscore.DG>
-14.7737

> <Gold.Chemscore.ZeroCoef>
-5.4800

> <Gold.Chemscore.Hbond>
0.9843

> <Gold.Chemscore.Metal>
0.0000

> <Gold.Chemscore.Lipo>
99.2179

> <Gold.Chemscore.Internal_Hbond>
0.0000

> <Gold.Chemscore.DEClash>
0.1509

> <Gold.Chemscore.DEInternal>
0.6811

> <Gold.Chemscore.Rot>
2.1884

> <Gold.Chemscore.Internal.Correction>
   9.000000E+99

> <Gold.Chemscore.Hbonds>
donor molecule, donor type, donor heavy atom, donor atom, acceptor molecule, acceptor atom, score
      L1  H     9    41       P1  8028  0.95

> <Gold.Chemscore.Hbond.Weighted>
-3.2875

> <Gold.Chemscore.Metal.Weighted>
-0.0000

> <Gold.Chemscore.Lipo.Weighted>
-11.6085

> <Gold.Chemscore.Internal_Hbond.Weighted>
0.0000

> <Gold.Chemscore.DEClash.Weighted>
0.1509

> <Gold.Chemscore.DEInternal.Weighted>
0.6811

> <Gold.Chemscore.Rot.Weighted>
5.6023

> <Gold.Chemscore.Internal.Correction.Weighted>
   9.000000E+99

> <Gold.Protein.RotatedTorsions>
[ 6907 6896 6895 6894 ] final   90.40 input  -60.11 | X-H torsion
[ 7974 7965 7964 7962 ] final  128.51 input  175.53 | X-H torsion
[ 8008 7997 7996 7995 ] final   94.59 input   59.86 | X-H torsion
[ 10167 10162 10161 10158 ] final  -67.03 input  -65.29 | X-H torsion
[ 10718 10713 10712 10709 ] final -117.97 input   66.30 | X-H torsion
[ 10763 10752 10751 10750 ] final  131.26 input  -60.55 | X-H torsion
[ 11005 11000 10999 10996 ] final -141.15 input  -57.11 | X-H torsion

> <Gold.Protein.ActiveResidues>
 VAL166  LYS551  ARG553  GLY616  TRP617  ASP618  TYR619  PRO620  LYS621  CYS622 
 ASP623  PHE694  ASN695  SER759  ASP760  ASP761  ALA762  ILE779  LEU786  VAL792 
 PHE793  MET794  SER795  GLU796  ALA797  LYS798  CYS799  TRP800  GLU811  SER814 

> <Gold.Protein.RotatedAtoms>
  152.5444  134.1817  159.8637 H   0  0  0  0  0  0  0  0  0  0  0  0  # atno 6907 bound_to 6896
  151.1819  133.4713  159.2601 H   0  0  0  0  0  0  0  0  0  0  0  0  # atno 6908 bound_to 6896
  151.1170  135.0070  159.8576 H   0  0  0  0  0  0  0  0  0  0  0  0  # atno 6909 bound_to 6896
  145.0387  139.3982  143.5113 H   0  0  0  0  0  0  0  0  0  0  0  0  # atno 7974 bound_to 7965
  156.0596  140.3298  155.7446 H   0  0  0  0  0  0  0  0  0  0  0  0  # atno 8008 bound_to 7997
  155.5475  140.0607  157.2874 H   0  0  0  0  0  0  0  0  0  0  0  0  # atno 8009 bound_to 7997
  154.4475  140.1900  156.0641 H   0  0  0  0  0  0  0  0  0  0  0  0  # atno 8010 bound_to 7997
  140.5613  143.2313  151.6721 H   0  0  0  0  0  0  0  0  0  0  0  0  # atno 10167 bound_to 10162
  156.1072  130.6220  150.9232 H   0  0  0  0  0  0  0  0  0  0  0  0  # atno 10718 bound_to 10713
  153.7714  135.3181  155.3352 H   0  0  0  0  0  0  0  0  0  0  0  0  # atno 10763 bound_to 10752
  154.8195  135.4613  154.0741 H   0  0  0  0  0  0  0  0  0  0  0  0  # atno 10764 bound_to 10752
  153.2001  135.6921  153.8326 H   0  0  0  0  0  0  0  0  0  0  0  0  # atno 10765 bound_to 10752
  140.8352  134.2469  157.4837 H   0  0  0  0  0  0  0  0  0  0  0  0  # atno 11005 bound_to 11000
  146.3507  139.9976  142.8679 LP  0  0  0  0  0  0  0  0  0  0  0  0  # atno 17320 bound_to 7965
  145.1676  140.9704  143.4341 LP  0  0  0  0  0  0  0  0  0  0  0  0  # atno 17321 bound_to 7965
  139.5072  144.3656  152.0520 LP  0  0  0  0  0  0  0  0  0  0  0  0  # atno 17342 bound_to 10162
  140.2783  144.3888  150.6127 LP  0  0  0  0  0  0  0  0  0  0  0  0  # atno 17343 bound_to 10162
  157.6250  131.0926  150.8551 LP  0  0  0  0  0  0  0  0  0  0  0  0  # atno 17370 bound_to 10713
  156.8668  130.5132  149.5299 LP  0  0  0  0  0  0  0  0  0  0  0  0  # atno 17371 bound_to 10713
  139.8704  134.9607  156.4372 LP  0  0  0  0  0  0  0  0  0  0  0  0  # atno 17394 bound_to 11000
  140.8955  133.7817  155.9620 LP  0  0  0  0  0  0  0  0  0  0  0  0  # atno 17395 bound_to 11000

$$$$
