AV-unprocessed.smi:951|AV-procd|sdf|4253|dock3
  -GOLD-   22720 2163D 1   1.00000     0.00000
 Structure written by MMmdl.
 52 54  0  0  0  0  0  0  0  0  2 V2000
  146.9138  139.6714  158.0997 O   0  0  0  0  0  0  0  0  0  0  0  0
  147.9113  139.0323  157.7613 C   0  0  0  0  0  0  0  0  0  0  0  0
  149.1167  139.5931  157.5821 N   0  0  0  0  0  0  0  0  0  0  0  0
  149.4183  141.0046  157.7846 C   0  0  0  0  0  0  0  0  0  0  0  0
  150.8656  141.3377  157.3855 C   0  0  0  0  0  0  0  0  0  0  0  0
  151.3623  142.6093  158.0447 C   0  0  0  0  0  0  0  0  0  0  0  0
  152.3923  142.6032  159.0104 C   0  0  0  0  0  0  0  0  0  0  0  0
  152.8010  143.8232  159.5888 C   0  0  0  0  0  0  0  0  0  0  0  0
  152.1717  145.0210  159.1908 C   0  0  0  0  0  0  0  0  0  0  0  0
  151.1469  144.9685  158.2239 C   0  0  0  0  0  0  0  0  0  0  0  0
  150.7837  143.7804  157.6928 N   0  3  0  0  0  0  0  0  0  0  0  0
  147.8182  137.5170  157.4952 C   0  0  2  0  0  0  0  0  0  0  0  0
  147.1921  137.2726  156.1131 C   0  0  0  0  0  0  0  0  0  0  0  0
  146.4867  135.9378  156.2420 C   0  0  0  0  0  0  0  0  0  0  0  0
  146.0797  135.8564  157.7118 C   0  0  0  0  0  0  0  0  0  0  0  0
  146.9707  136.7631  158.4431 N   0  0  0  0  0  0  0  0  0  0  0  0
  147.0606  136.8231  159.7977 C   0  0  0  0  0  0  0  0  0  0  0  0
  147.9200  137.5041  160.3582 O   0  0  0  0  0  0  0  0  0  0  0  0
  146.0706  136.0073  160.6667 C   0  0  0  0  0  0  0  0  0  0  0  0
  146.1934  136.3047  162.1836 C   0  0  0  0  0  0  0  0  0  0  0  0
  147.3898  135.6166  162.8722 C   0  0  0  0  0  0  0  0  0  0  0  0
  147.4256  134.1107  162.5735 C   0  0  0  0  0  0  0  0  0  0  0  0
  147.4141  133.8447  161.0615 C   0  0  0  0  0  0  0  0  0  0  0  0
  146.1835  134.4883  160.3982 C   0  0  0  0  0  0  0  0  0  0  0  0
  149.8806  138.9963  157.2988 H   0  0  0  0  0  0  0  0  0  0  0  0
  148.7120  141.6181  157.2225 H   0  0  0  0  0  0  0  0  0  0  0  0
  149.2607  141.2370  158.8382 H   0  0  0  0  0  0  0  0  0  0  0  0
  151.5264  140.5127  157.6553 H   0  0  0  0  0  0  0  0  0  0  0  0
  150.9447  141.4528  156.3035 H   0  0  0  0  0  0  0  0  0  0  0  0
  152.8630  141.6770  159.3068 H   0  0  0  0  0  0  0  0  0  0  0  0
  153.5871  143.8393  160.3296 H   0  0  0  0  0  0  0  0  0  0  0  0
  152.4704  145.9657  159.6212 H   0  0  0  0  0  0  0  0  0  0  0  0
  150.6108  145.8337  157.8622 H   0  0  0  0  0  0  0  0  0  0  0  0
  148.8148  137.0727  157.5284 H   0  0  0  0  0  0  0  0  0  0  0  0
  146.4503  138.0368  155.8731 H   0  0  0  0  0  0  0  0  0  0  0  0
  147.9335  137.2728  155.3134 H   0  0  0  0  0  0  0  0  0  0  0  0
  145.6415  135.8344  155.5610 H   0  0  0  0  0  0  0  0  0  0  0  0
  147.1928  135.1371  156.0180 H   0  0  0  0  0  0  0  0  0  0  0  0
  145.0510  136.2012  157.8255 H   0  0  0  0  0  0  0  0  0  0  0  0
  146.1400  134.8298  158.0755 H   0  0  0  0  0  0  0  0  0  0  0  0
  145.0584  136.3107  160.4055 H   0  0  0  0  0  0  0  0  0  0  0  0
  146.2429  137.3812  162.3532 H   0  0  0  0  0  0  0  0  0  0  0  0
  145.2775  135.9730  162.6746 H   0  0  0  0  0  0  0  0  0  0  0  0
  148.3277  136.0730  162.5580 H   0  0  0  0  0  0  0  0  0  0  0  0
  147.3307  135.7747  163.9495 H   0  0  0  0  0  0  0  0  0  0  0  0
  148.3121  133.6634  163.0240 H   0  0  0  0  0  0  0  0  0  0  0  0
  146.5651  133.6254  163.0361 H   0  0  0  0  0  0  0  0  0  0  0  0
  148.3297  134.2291  160.6110 H   0  0  0  0  0  0  0  0  0  0  0  0
  147.4115  132.7701  160.8768 H   0  0  0  0  0  0  0  0  0  0  0  0
  145.2840  133.9965  160.7706 H   0  0  0  0  0  0  0  0  0  0  0  0
  146.2047  134.2924  159.3256 H   0  0  0  0  0  0  0  0  0  0  0  0
  150.0394  143.7655  156.9948 H   0  0  0  0  0  0  0  0  0  0  0  0
  1  2  2  0  0  0  0
  2  3  1  0  0  0  0
  2 12  1  0  0  0  0
  3  4  1  0  0  0  0
  3 25  1  0  0  0  0
  4  5  1  0  0  0  0
  4 26  1  0  0  0  0
  4 27  1  0  0  0  0
  5  6  1  0  0  0  0
  5 28  1  0  0  0  0
  5 29  1  0  0  0  0
  6 11  1  0  0  0  0
  6  7  2  0  0  0  0
  7  8  1  0  0  0  0
  7 30  1  0  0  0  0
  8  9  2  0  0  0  0
  8 31  1  0  0  0  0
  9 10  1  0  0  0  0
  9 32  1  0  0  0  0
 10 11  2  0  0  0  0
 10 33  1  0  0  0  0
 11 52  1  0  0  0  0
 12 16  1  0  0  0  0
 12 13  1  0  0  0  0
 12 34  1  0  0  0  0
 13 14  1  0  0  0  0
 13 35  1  0  0  0  0
 13 36  1  0  0  0  0
 14 15  1  0  0  0  0
 14 37  1  0  0  0  0
 14 38  1  0  0  0  0
 15 16  1  0  0  0  0
 15 39  1  0  0  0  0
 15 40  1  0  0  0  0
 16 17  1  0  0  0  0
 17 18  2  0  0  0  0
 17 19  1  0  0  0  0
 19 24  1  0  0  0  0
 19 20  1  0  0  0  0
 19 41  1  0  0  0  0
 20 21  1  0  0  0  0
 20 42  1  0  0  0  0
 20 43  1  0  0  0  0
 21 22  1  0  0  0  0
 21 44  1  0  0  0  0
 21 45  1  0  0  0  0
 22 23  1  0  0  0  0
 22 46  1  0  0  0  0
 22 47  1  0  0  0  0
 23 24  1  0  0  0  0
 23 48  1  0  0  0  0
 23 49  1  0  0  0  0
 24 50  1  0  0  0  0
 24 51  1  0  0  0  0
M  CHG  1  11   1
M  END
> <s_m_source_file>
AV-unprocessed.smi

> <i_m_source_file_index>
951

> <i_lp_mmshare_version>
43012

> <i_f3d_flags>
0

> <s_epik_input>
bjFbY0hdW2NIXVtjSF1bY0hdYzFbQ0gyXVtDSDJdW05IXUMoPU8pW0NAQEhdMltDSDJdW0NIMl1bQ0gyXU4yQyg9TylbQ0hdM1tDSDJdW0NIMl1bQ0gyXVtDSDJdW0NIMl0z

> <s_epik_cmdline>
J2VwaWtfcHl0aG9uJywgJy1waCcsICc3LjAnLCAnLXRuJywgJzgnLCAnLW1hJywgJzIwMCcsICctbWV0YWxfYmluZGluZycsICctaW1hZScsICc8aW5maWxlLm1hZT4nLCAnLW9tYWUnLCAnPG91dGZpbGUubWFlPic=

> <r_epik_Ionization_Penalty>
1.85306

> <r_epik_Ionization_Penalty_Charging>
1.85306

> <r_epik_Ionization_Penalty_Neutral>
5.78903e-08

> <r_epik_State_Penalty>
1.97071

> <r_epik_Charging_Adjusted_Penalty>
3.82377

> <i_epik_Tot_Q>
1

> <i_epik_Tot_abs_Q>
1

> <r_epik_Metal_State_Penalty>
1.99634

> <b_epik_Metal_Only>
0

> <s_lp_Force_Field>
OPLS_2005

> <r_lp_Energy>
27.2114

> <b_lp_Chiralities_Consistent>
1

> <s_lp_Variant>
AV-unprocessed.smi:951-3

> <Gold.Version>
5.8.1

> <Gold.Id.Protein>
6NUR|6NUR_protein|mol2

> <Gold.PLP.Fitness>
48.4241

> <Gold.PLP.PLP>
-40.0268

> <Gold.PLP.part.hbond>
-4.0000

> <Gold.PLP.part.metal>
0.0000

> <Gold.PLP.part.buried>
-4.9220

> <Gold.PLP.part.nonpolar>
-31.1551

> <Gold.PLP.part.repulsive>
0.1250

> <Gold.PLP.ligand.clash>
0.0000

> <Gold.PLP.ligand.torsion>
0.7550

> <Gold.PLP.Chemscore.Hbond>
3.2651

> <Gold.PLP.Chemscore.CHOScore>
0.0000

> <Gold.PLP.Chemscore.Metal>
0.0000

> <Gold.Chemscore.Hbonds>
donor molecule, donor type, donor heavy atom, donor atom, acceptor molecule, acceptor atom, score
      L1  H    11    52       P1  8028  1.95
      P1  H  6931  6943       L1    18  0.57
      P1  H  6934  6947       L1    18  0.72

> <Gold.PLP.Chemscore.Internal.Correction>
0.1120

> <Gold.Rescore>
     Score         DG    S(hbond)    S(metal)    S(lipo)     H(rot)  DE(clash)    DE(int)     intcor
     18.80     -20.85       1.99        0.00     110.82       1.65       0.10       1.95       ----

> <Gold.Chemscore.Fitness>
18.7997

> <Gold.Chemscore.DG>
-20.8484

> <Gold.Chemscore.ZeroCoef>
-5.4800

> <Gold.Chemscore.Hbond>
1.9877

> <Gold.Chemscore.Metal>
0.0000

> <Gold.Chemscore.Lipo>
110.8180

> <Gold.Chemscore.Internal_Hbond>
0.0000

> <Gold.Chemscore.DEClash>
0.1037

> <Gold.Chemscore.DEInternal>
1.9450

> <Gold.Chemscore.Rot>
1.6548

> <Gold.Chemscore.Internal.Correction>
   9.000000E+99

> <Gold.Chemscore.Hbonds>
donor molecule, donor type, donor heavy atom, donor atom, acceptor molecule, acceptor atom, score
      L1  H    11    52       P1  8028  0.89
      P1  H  6931  6943       L1    18  0.54
      P1  H  6934  6947       L1    18  0.54

> <Gold.Chemscore.Hbond.Weighted>
-6.6389

> <Gold.Chemscore.Metal.Weighted>
-0.0000

> <Gold.Chemscore.Lipo.Weighted>
-12.9657

> <Gold.Chemscore.Internal_Hbond.Weighted>
0.0000

> <Gold.Chemscore.DEClash.Weighted>
0.1037

> <Gold.Chemscore.DEInternal.Weighted>
1.9450

> <Gold.Chemscore.Rot.Weighted>
4.2362

> <Gold.Chemscore.Internal.Correction.Weighted>
   9.000000E+99

> <Gold.Protein.RotatedTorsions>
[ 6907 6896 6895 6894 ] final -157.08 input  -60.11 | X-H torsion
[ 7974 7965 7964 7962 ] final  142.39 input  175.53 | X-H torsion
[ 8008 7997 7996 7995 ] final  -62.17 input   59.86 | X-H torsion
[ 10167 10162 10161 10158 ] final  -23.27 input  -65.29 | X-H torsion
[ 10718 10713 10712 10709 ] final   71.26 input   66.30 | X-H torsion
[ 10763 10752 10751 10750 ] final  113.09 input  -60.55 | X-H torsion
[ 11005 11000 10999 10996 ] final   88.04 input  -57.11 | X-H torsion

> <Gold.Protein.ActiveResidues>
 VAL166  LYS551  ARG553  GLY616  TRP617  ASP618  TYR619  PRO620  LYS621  CYS622 
 ASP623  PHE694  ASN695  SER759  ASP760  ASP761  ALA762  ILE779  LEU786  VAL792 
 PHE793  MET794  SER795  GLU796  ALA797  LYS798  CYS799  TRP800  GLU811  SER814 

> <Gold.Protein.RotatedAtoms>
  151.2974  133.4138  159.2637 H   0  0  0  0  0  0  0  0  0  0  0  0  # atno 6907 bound_to 6896
  151.0225  134.9480  159.8077 H   0  0  0  0  0  0  0  0  0  0  0  0  # atno 6908 bound_to 6896
  152.5327  134.2936  159.9105 H   0  0  0  0  0  0  0  0  0  0  0  0  # atno 6909 bound_to 6896
  144.9011  139.5421  143.5753 H   0  0  0  0  0  0  0  0  0  0  0  0  # atno 7974 bound_to 7965
  154.4486  140.1002  156.6545 H   0  0  0  0  0  0  0  0  0  0  0  0  # atno 8008 bound_to 7997
  155.5361  140.3482  155.4418 H   0  0  0  0  0  0  0  0  0  0  0  0  # atno 8009 bound_to 7997
  156.0630  140.1331  156.9908 H   0  0  0  0  0  0  0  0  0  0  0  0  # atno 8010 bound_to 7997
  140.7288  143.4459  151.0588 H   0  0  0  0  0  0  0  0  0  0  0  0  # atno 10167 bound_to 10162
  157.6443  130.9519  150.0765 H   0  0  0  0  0  0  0  0  0  0  0  0  # atno 10718 bound_to 10713
  153.4874  135.3666  155.2474 H   0  0  0  0  0  0  0  0  0  0  0  0  # atno 10763 bound_to 10752
  154.8753  135.3969  154.3628 H   0  0  0  0  0  0  0  0  0  0  0  0  # atno 10764 bound_to 10752
  153.4242  135.7081  153.6339 H   0  0  0  0  0  0  0  0  0  0  0  0  # atno 10765 bound_to 10752
  139.8905  134.8462  156.2944 H   0  0  0  0  0  0  0  0  0  0  0  0  # atno 11005 bound_to 11000
  146.3109  139.7743  142.9020 LP  0  0  0  0  0  0  0  0  0  0  0  0  # atno 17320 bound_to 7965
  145.3614  141.0326  143.3282 LP  0  0  0  0  0  0  0  0  0  0  0  0  # atno 17321 bound_to 7965
  139.8130  143.7924  152.3172 LP  0  0  0  0  0  0  0  0  0  0  0  0  # atno 17342 bound_to 10162
  139.7981  144.7385  150.9863 LP  0  0  0  0  0  0  0  0  0  0  0  0  # atno 17343 bound_to 10162
  156.1754  130.3648  149.9108 LP  0  0  0  0  0  0  0  0  0  0  0  0  # atno 17370 bound_to 10713
  156.7073  130.8956  151.3606 LP  0  0  0  0  0  0  0  0  0  0  0  0  # atno 17371 bound_to 10713
  140.9955  133.7183  156.0879 LP  0  0  0  0  0  0  0  0  0  0  0  0  # atno 17394 bound_to 11000
  140.7568  134.3983  157.5532 LP  0  0  0  0  0  0  0  0  0  0  0  0  # atno 17395 bound_to 11000

$$$$
