AV-unprocessed.smi:2514|AV-procd|sdf|9895|dock10
  -GOLD-   2272013533D 1   1.00000     0.00000
 Structure written by MMmdl.
 24 25  0  0  0  0  0  0  0  0  1 V2000
  152.3845  144.0748  159.3206 C   0  0  0  0  0  0  0  0  0  0  0  0
  151.7086  144.0294  157.9446 C   0  0  2  0  0  0  0  0  0  0  0  0
  150.4956  144.7534  157.9870 O   0  0  0  0  0  0  0  0  0  0  0  0
  151.3743  142.6300  157.5094 C   0  0  0  0  0  0  0  0  0  0  0  0
  150.7317  142.2204  156.3754 C   0  0  0  0  0  0  0  0  0  0  0  0
  150.7228  140.8462  156.4900 N   0  0  0  0  0  0  0  0  0  0  0  0
  150.1077  139.8986  155.6082 C   0  0  0  0  0  0  0  0  0  0  0  0
  150.9472  139.0173  154.6794 C   0  0  0  0  0  0  0  0  0  0  0  0
  149.8720  139.1515  153.7115 N   0  0  0  0  0  0  0  0  0  0  0  0
  149.3953  140.3718  154.3401 C   0  0  0  0  0  0  0  0  0  0  0  0
  151.2853  140.4387  157.6518 N   0  0  0  0  0  0  0  0  0  0  0  0
  151.7028  141.5012  158.2649 N   0  0  0  0  0  0  0  0  0  0  0  0
  153.3250  143.5237  159.3112 H   0  0  0  0  0  0  0  0  0  0  0  0
  151.7496  143.6362  160.0913 H   0  0  0  0  0  0  0  0  0  0  0  0
  152.6054  145.1010  159.6152 H   0  0  0  0  0  0  0  0  0  0  0  0
  152.3586  144.5060  157.2100 H   0  0  0  0  0  0  0  0  0  0  0  0
  150.0790  144.6880  157.1414 H   0  0  0  0  0  0  0  0  0  0  0  0
  150.3050  142.7572  155.5412 H   0  0  0  0  0  0  0  0  0  0  0  0
  149.4434  139.2919  156.2281 H   0  0  0  0  0  0  0  0  0  0  0  0
  151.8724  139.4784  154.3306 H   0  0  0  0  0  0  0  0  0  0  0  0
  151.0955  137.9989  155.0394 H   0  0  0  0  0  0  0  0  0  0  0  0
  150.2151  139.3093  152.7745 H   0  0  0  0  0  0  0  0  0  0  0  0
  148.3105  140.4308  154.4303 H   0  0  0  0  0  0  0  0  0  0  0  0
  149.8280  141.2644  153.8856 H   0  0  0  0  0  0  0  0  0  0  0  0
  1  2  1  0  0  0  0
  1 13  1  0  0  0  0
  1 14  1  0  0  0  0
  1 15  1  0  0  0  0
  2  3  1  0  0  0  0
  2  4  1  0  0  0  0
  2 16  1  0  0  0  0
  3 17  1  0  0  0  0
  4 12  1  0  0  0  0
  4  5  2  0  0  0  0
  5  6  1  0  0  0  0
  5 18  1  0  0  0  0
  6  7  1  0  0  0  0
  6 11  1  0  0  0  0
  7 10  1  0  0  0  0
  7  8  1  0  0  0  0
  7 19  1  0  0  0  0
  8  9  1  0  0  0  0
  8 20  1  0  0  0  0
  8 21  1  0  0  0  0
  9 10  1  0  0  0  0
  9 22  1  0  0  0  0
 10 23  1  0  0  0  0
 10 24  1  0  0  0  0
 11 12  2  0  0  0  0
M  END
> <s_m_source_file>
AV-unprocessed.smi

> <i_m_source_file_index>
2514

> <i_lp_mmshare_version>
43012

> <i_f3d_flags>
0

> <s_epik_input>
W0NIM11bQ0BIXShbT0hdKWMxW2NIXW4obm4xKVtDSF0yW0NIMl1bTkhdW0NIMl0y

> <s_epik_cmdline>
J2VwaWtfcHl0aG9uJywgJy1waCcsICc3LjAnLCAnLXRuJywgJzgnLCAnLW1hJywgJzIwMCcsICctbWV0YWxfYmluZGluZycsICctaW1hZScsICc8aW5maWxlLm1hZT4nLCAnLW9tYWUnLCAnPG91dGZpbGUubWFlPic=

> <r_lp_tautomer_probability>
1

> <r_epik_Ionization_Penalty>
0.704859

> <r_epik_Ionization_Penalty_Charging>
0

> <r_epik_Ionization_Penalty_Neutral>
0.704859

> <r_epik_State_Penalty>
0.727806

> <r_epik_Charging_Adjusted_Penalty>
0.727806

> <i_epik_Tot_Q>
0

> <i_epik_Tot_abs_Q>
0

> <r_epik_Metal_State_Penalty>
0.727738

> <b_epik_Metal_Only>
0

> <s_lp_Force_Field>
OPLS_2005

> <r_lp_Energy>
11.6004

> <b_lp_Chiralities_Consistent>
1

> <s_lp_Variant>
AV-unprocessed.smi:2514-3

> <Gold.Version>
5.8.1

> <Gold.Id.Protein>
6NUR|6NUR_protein|mol2

> <Gold.PLP.Fitness>
35.3971

> <Gold.PLP.PLP>
-26.6068

> <Gold.PLP.part.hbond>
-3.0000

> <Gold.PLP.part.metal>
0.0000

> <Gold.PLP.part.buried>
-2.3935

> <Gold.PLP.part.nonpolar>
-21.7575

> <Gold.PLP.part.repulsive>
0.0000

> <Gold.PLP.ligand.clash>
0.0000

> <Gold.PLP.ligand.torsion>
0.2271

> <Gold.PLP.Chemscore.Hbond>
2.0000

> <Gold.PLP.Chemscore.CHOScore>
1.0000

> <Gold.PLP.Chemscore.Metal>
0.0000

> <Gold.Chemscore.Hbonds>
donor molecule, donor type, donor heavy atom, donor atom, acceptor molecule, acceptor atom, score
      L1  H     3    17       P1  8028  1.00
      L1  H     9    22       P1  7957  0.80
      L1  C     5    18       P1  8028  0.94

> <Gold.PLP.Chemscore.Internal.Correction>
0.2446

> <Gold.Rescore>
     Score         DG    S(hbond)    S(metal)    S(lipo)     H(rot)  DE(clash)    DE(int)     intcor
     13.43     -13.93       1.74        0.00      61.48       1.78       0.05       0.45       ----

> <Gold.Chemscore.Fitness>
13.4258

> <Gold.Chemscore.DG>
-13.9264

> <Gold.Chemscore.ZeroCoef>
-5.4800

> <Gold.Chemscore.Hbond>
1.7411

> <Gold.Chemscore.Metal>
0.0000

> <Gold.Chemscore.Lipo>
61.4845

> <Gold.Chemscore.Internal_Hbond>
0.0000

> <Gold.Chemscore.DEClash>
0.0529

> <Gold.Chemscore.DEInternal>
0.4477

> <Gold.Chemscore.Rot>
1.7823

> <Gold.Chemscore.Internal.Correction>
   9.000000E+99

> <Gold.Chemscore.Hbonds>
donor molecule, donor type, donor heavy atom, donor atom, acceptor molecule, acceptor atom, score
      L1  H     3    17       P1  8028  0.30
      L1  H     9    22       P1  7957  0.65

> <Gold.Chemscore.Hbond.Weighted>
-5.8154

> <Gold.Chemscore.Metal.Weighted>
-0.0000

> <Gold.Chemscore.Lipo.Weighted>
-7.1937

> <Gold.Chemscore.Internal_Hbond.Weighted>
0.0000

> <Gold.Chemscore.DEClash.Weighted>
0.0529

> <Gold.Chemscore.DEInternal.Weighted>
0.4477

> <Gold.Chemscore.Rot.Weighted>
4.5627

> <Gold.Chemscore.Internal.Correction.Weighted>
   9.000000E+99

> <Gold.Protein.RotatedTorsions>
[ 6907 6896 6895 6894 ] final   39.52 input  -60.11 | X-H torsion
[ 7974 7965 7964 7962 ] final   84.60 input  175.53 | X-H torsion
[ 8008 7997 7996 7995 ] final  -86.12 input   59.86 | X-H torsion
[ 10167 10162 10161 10158 ] final   78.10 input  -65.29 | X-H torsion
[ 10718 10713 10712 10709 ] final  -44.99 input   66.30 | X-H torsion
[ 10763 10752 10751 10750 ] final   43.77 input  -60.55 | X-H torsion
[ 11005 11000 10999 10996 ] final  -70.81 input  -57.11 | X-H torsion

> <Gold.Protein.ActiveResidues>
 VAL166  LYS551  ARG553  GLY616  TRP617  ASP618  TYR619  PRO620  LYS621  CYS622 
 ASP623  PHE694  ASN695  SER759  ASP760  ASP761  ALA762  ILE779  LEU786  VAL792 
 PHE793  MET794  SER795  GLU796  ALA797  LYS798  CYS799  TRP800  GLU811  SER814 

> <Gold.Protein.RotatedAtoms>
  152.1706  134.8837  160.0534 H   0  0  0  0  0  0  0  0  0  0  0  0  # atno 6907 bound_to 6896
  151.9798  133.3749  159.4111 H   0  0  0  0  0  0  0  0  0  0  0  0  # atno 6908 bound_to 6896
  150.6901  134.3973  159.5147 H   0  0  0  0  0  0  0  0  0  0  0  0  # atno 6909 bound_to 6896
  145.5966  139.2346  143.2269 H   0  0  0  0  0  0  0  0  0  0  0  0  # atno 7974 bound_to 7965
  154.6483  140.0582  156.9926 H   0  0  0  0  0  0  0  0  0  0  0  0  # atno 8008 bound_to 7997
  155.1411  140.3265  155.4433 H   0  0  0  0  0  0  0  0  0  0  0  0  # atno 8009 bound_to 7997
  156.2564  140.1964  156.6526 H   0  0  0  0  0  0  0  0  0  0  0  0  # atno 8010 bound_to 7997
  139.9745  144.5870  150.7955 H   0  0  0  0  0  0  0  0  0  0  0  0  # atno 10167 bound_to 10162
  156.2329  130.4174  149.8853 H   0  0  0  0  0  0  0  0  0  0  0  0  # atno 10718 bound_to 10713
  152.9854  135.6091  154.3165 H   0  0  0  0  0  0  0  0  0  0  0  0  # atno 10763 bound_to 10752
  154.2877  135.2775  155.2670 H   0  0  0  0  0  0  0  0  0  0  0  0  # atno 10764 bound_to 10752
  154.4980  135.5874  153.6566 H   0  0  0  0  0  0  0  0  0  0  0  0  # atno 10765 bound_to 10752
  141.1581  133.6800  156.6809 H   0  0  0  0  0  0  0  0  0  0  0  0  # atno 11005 bound_to 11000
  146.1607  140.6792  142.9279 LP  0  0  0  0  0  0  0  0  0  0  0  0  # atno 17320 bound_to 7965
  144.7328  140.4721  143.6925 LP  0  0  0  0  0  0  0  0  0  0  0  0  # atno 17321 bound_to 7965
  140.7510  143.2966  151.3190 LP  0  0  0  0  0  0  0  0  0  0  0  0  # atno 17342 bound_to 10162
  139.6456  144.0458  152.2588 LP  0  0  0  0  0  0  0  0  0  0  0  0  # atno 17343 bound_to 10162
  156.6461  130.8725  151.3523 LP  0  0  0  0  0  0  0  0  0  0  0  0  # atno 17370 bound_to 10713
  157.7141  130.9475  150.1192 LP  0  0  0  0  0  0  0  0  0  0  0  0  # atno 17371 bound_to 10713
  140.3103  134.8091  157.4171 LP  0  0  0  0  0  0  0  0  0  0  0  0  # atno 17394 bound_to 11000
  140.1184  134.5252  155.8204 LP  0  0  0  0  0  0  0  0  0  0  0  0  # atno 17395 bound_to 11000

$$$$
