AV-unprocessed.smi:898|AV-procd|sdf|4083|dock9
  -GOLD-   22720 1573D 1   1.00000     0.00000
 Structure written by MMmdl.
 34 36  0  0  0  0  0  0  0  0  1 V2000
  144.4201  136.5470  152.4277 O   0  0  0  0  0  0  0  0  0  0  0  0
  145.6309  136.4812  152.2149 C   0  0  0  0  0  0  0  0  0  0  0  0
  146.5494  137.3511  152.6706 N   0  0  0  0  0  0  0  0  0  0  0  0
  146.3481  138.5018  153.4781 C   0  0  0  0  0  0  0  0  0  0  0  0
  145.5752  138.5183  154.5728 N   0  0  0  0  0  0  0  0  0  0  0  0
  145.5561  139.7688  155.1745 N   0  0  0  0  0  0  0  0  0  0  0  0
  146.3115  140.6594  154.5204 C   0  0  0  0  0  0  0  0  0  0  0  0
  146.4527  142.0728  154.9792 C   0  0  0  0  0  0  0  0  0  0  0  0
  145.2325  142.9217  155.2527 C   0  0  0  0  0  0  0  0  0  0  0  0
  146.1179  143.2391  154.0748 C   0  0  0  0  0  0  0  0  0  0  0  0
  147.1198  140.0294  153.0887 S   0  0  0  0  0  0  0  0  0  0  0  0
  146.2029  135.5084  151.4899 N   0  0  0  0  0  0  0  0  0  0  0  0
  145.4951  134.3986  150.8569 C   0  0  2  0  0  0  0  0  0  0  0  0
  144.3843  133.8723  151.7901 C   0  0  0  0  0  0  0  0  0  0  0  0
  143.5686  132.7337  151.1561 C   0  0  0  0  0  0  0  0  0  0  0  0
  144.4341  131.5141  150.8093 C   0  0  0  0  0  0  0  0  0  0  0  0
  145.7079  131.9382  149.5905 S   0  0  0  0  0  0  0  0  0  0  0  0
  146.5040  133.2953  150.4932 C   0  0  0  0  0  0  0  0  0  0  0  0
  147.5079  137.1628  152.4177 H   0  0  0  0  0  0  0  0  0  0  0  0
  147.3060  142.1762  155.6465 H   0  0  0  0  0  0  0  0  0  0  0  0
  144.2565  142.4874  155.0436 H   0  0  0  0  0  0  0  0  0  0  0  0
  145.2707  143.5942  156.1072 H   0  0  0  0  0  0  0  0  0  0  0  0
  146.7469  144.1242  154.1446 H   0  0  0  0  0  0  0  0  0  0  0  0
  145.7215  143.0271  153.0839 H   0  0  0  0  0  0  0  0  0  0  0  0
  147.2044  135.5347  151.3672 H   0  0  0  0  0  0  0  0  0  0  0  0
  145.0401  134.7570  149.9312 H   0  0  0  0  0  0  0  0  0  0  0  0
  144.8192  133.5306  152.7303 H   0  0  0  0  0  0  0  0  0  0  0  0
  143.7049  134.6859  152.0478 H   0  0  0  0  0  0  0  0  0  0  0  0
  142.7813  132.4297  151.8467 H   0  0  0  0  0  0  0  0  0  0  0  0
  143.0647  133.0954  150.2591 H   0  0  0  0  0  0  0  0  0  0  0  0
  144.9156  131.1212  151.7052 H   0  0  0  0  0  0  0  0  0  0  0  0
  143.8142  130.7148  150.4025 H   0  0  0  0  0  0  0  0  0  0  0  0
  147.3014  133.6986  149.8678 H   0  0  0  0  0  0  0  0  0  0  0  0
  146.9742  132.8929  151.3914 H   0  0  0  0  0  0  0  0  0  0  0  0
  1  2  2  0  0  0  0
  2  3  1  0  0  0  0
  2 12  1  0  0  0  0
  3  4  1  0  0  0  0
  3 19  1  0  0  0  0
  4 11  1  0  0  0  0
  4  5  2  0  0  0  0
  5  6  1  0  0  0  0
  6  7  2  0  0  0  0
  7  8  1  0  0  0  0
  7 11  1  0  0  0  0
  8 10  1  0  0  0  0
  8  9  1  0  0  0  0
  8 20  1  0  0  0  0
  9 10  1  0  0  0  0
  9 21  1  0  0  0  0
  9 22  1  0  0  0  0
 10 23  1  0  0  0  0
 10 24  1  0  0  0  0
 12 13  1  0  0  0  0
 12 25  1  0  0  0  0
 13 18  1  0  0  0  0
 13 14  1  0  0  0  0
 13 26  1  0  0  0  0
 14 15  1  0  0  0  0
 14 27  1  0  0  0  0
 14 28  1  0  0  0  0
 15 16  1  0  0  0  0
 15 29  1  0  0  0  0
 15 30  1  0  0  0  0
 16 17  1  0  0  0  0
 16 31  1  0  0  0  0
 16 32  1  0  0  0  0
 17 18  1  0  0  0  0
 18 33  1  0  0  0  0
 18 34  1  0  0  0  0
M  END
> <s_m_source_file>
AV-unprocessed.smi

> <i_m_source_file_index>
898

> <i_lp_mmshare_version>
43012

> <i_f3d_flags>
0

> <s_epik_input>
W0NIMl0xU1tDSDJdW0NIMl1bQ0gyXVtDQEhdMVtOSF1DKD1PKVtOSF1jMm5uYyhzMilbQ0hdM1tDSDJdW0NIMl0z

> <s_epik_cmdline>
J2VwaWtfcHl0aG9uJywgJy1waCcsICc3LjAnLCAnLXRuJywgJzgnLCAnLW1hJywgJzIwMCcsICctbWV0YWxfYmluZGluZycsICctaW1hZScsICc8aW5maWxlLm1hZT4nLCAnLW9tYWUnLCAnPG91dGZpbGUubWFlPic=

> <r_lp_tautomer_probability>
1

> <r_epik_Ionization_Penalty>
0.000291725

> <r_epik_Ionization_Penalty_Charging>
0

> <r_epik_Ionization_Penalty_Neutral>
0.000291725

> <r_epik_State_Penalty>
-0

> <r_epik_Charging_Adjusted_Penalty>
0

> <i_epik_Tot_Q>
0

> <i_epik_Tot_abs_Q>
0

> <r_epik_Metal_State_Penalty>
0.160962

> <b_epik_Metal_Only>
0

> <s_lp_Force_Field>
OPLS_2005

> <r_lp_Energy>
2.16534

> <b_lp_Chiralities_Consistent>
1

> <s_lp_Variant>
AV-unprocessed.smi:898-1

> <Gold.Version>
5.8.1

> <Gold.Id.Protein>
6NUR|6NUR_protein|mol2

> <Gold.PLP.Fitness>
38.7133

> <Gold.PLP.PLP>
-33.9983

> <Gold.PLP.part.hbond>
-2.0000

> <Gold.PLP.part.metal>
0.0000

> <Gold.PLP.part.buried>
-5.2694

> <Gold.PLP.part.nonpolar>
-27.5416

> <Gold.PLP.part.repulsive>
0.4557

> <Gold.PLP.ligand.clash>
0.0049

> <Gold.PLP.ligand.torsion>
0.7070

> <Gold.PLP.Chemscore.Hbond>
2.0000

> <Gold.PLP.Chemscore.CHOScore>
0.0000

> <Gold.PLP.Chemscore.Metal>
0.0000

> <Gold.Chemscore.Hbonds>
donor molecule, donor type, donor heavy atom, donor atom, acceptor molecule, acceptor atom, score
      L1  H     3    19       P1  7948  1.00
      L1  H    12    25       P1  7948  1.00

> <Gold.PLP.Chemscore.Internal.Correction>
0.1339

> <Gold.Rescore>
     Score         DG    S(hbond)    S(metal)    S(lipo)     H(rot)  DE(clash)    DE(int)     intcor
     16.55     -17.89       1.95        0.00      76.64       1.20       0.14       1.20       ----

> <Gold.Chemscore.Fitness>
16.5475

> <Gold.Chemscore.DG>
-17.8871

> <Gold.Chemscore.ZeroCoef>
-5.4800

> <Gold.Chemscore.Hbond>
1.9537

> <Gold.Chemscore.Metal>
0.0000

> <Gold.Chemscore.Lipo>
76.6375

> <Gold.Chemscore.Internal_Hbond>
0.0000

> <Gold.Chemscore.DEClash>
0.1397

> <Gold.Chemscore.DEInternal>
1.1999

> <Gold.Chemscore.Rot>
1.2050

> <Gold.Chemscore.Internal.Correction>
   9.000000E+99

> <Gold.Chemscore.Hbonds>
donor molecule, donor type, donor heavy atom, donor atom, acceptor molecule, acceptor atom, score
      L1  H     3    19       P1  7948  0.99
      L1  H    12    25       P1  7948  0.92

> <Gold.Chemscore.Hbond.Weighted>
-6.5252

> <Gold.Chemscore.Metal.Weighted>
-0.0000

> <Gold.Chemscore.Lipo.Weighted>
-8.9666

> <Gold.Chemscore.Internal_Hbond.Weighted>
0.0000

> <Gold.Chemscore.DEClash.Weighted>
0.1397

> <Gold.Chemscore.DEInternal.Weighted>
1.1999

> <Gold.Chemscore.Rot.Weighted>
3.0847

> <Gold.Chemscore.Internal.Correction.Weighted>
   9.000000E+99

> <Gold.Protein.RotatedTorsions>
[ 6907 6896 6895 6894 ] final -166.71 input  -60.11 | X-H torsion
[ 7974 7965 7964 7962 ] final  111.20 input  175.53 | X-H torsion
[ 8008 7997 7996 7995 ] final  -67.67 input   59.86 | X-H torsion
[ 10167 10162 10161 10158 ] final  -20.70 input  -65.29 | X-H torsion
[ 10718 10713 10712 10709 ] final  -43.38 input   66.30 | X-H torsion
[ 10763 10752 10751 10750 ] final   41.43 input  -60.55 | X-H torsion
[ 11005 11000 10999 10996 ] final  125.55 input  -57.11 | X-H torsion

> <Gold.Protein.ActiveResidues>
 VAL166  LYS551  ARG553  GLY616  TRP617  ASP618  TYR619  PRO620  LYS621  CYS622 
 ASP623  PHE694  ASN695  SER759  ASP760  ASP761  ALA762  ILE779  LEU786  VAL792 
 PHE793  MET794  SER795  GLU796  ALA797  LYS798  CYS799  TRP800  GLU811  SER814 

> <Gold.Protein.RotatedAtoms>
  151.4479  133.3625  159.2790 H   0  0  0  0  0  0  0  0  0  0  0  0  # atno 6907 bound_to 6896
  150.9112  134.8530  159.7437 H   0  0  0  0  0  0  0  0  0  0  0  0  # atno 6908 bound_to 6896
  152.4933  134.4408  159.9595 H   0  0  0  0  0  0  0  0  0  0  0  0  # atno 6909 bound_to 6896
  145.2453  139.2762  143.4096 H   0  0  0  0  0  0  0  0  0  0  0  0  # atno 7974 bound_to 7965
  154.4815  140.0888  156.7389 H   0  0  0  0  0  0  0  0  0  0  0  0  # atno 8008 bound_to 7997
  155.4457  140.3455  155.4277 H   0  0  0  0  0  0  0  0  0  0  0  0  # atno 8009 bound_to 7997
  156.1199  140.1471  156.9208 H   0  0  0  0  0  0  0  0  0  0  0  0  # atno 8010 bound_to 7997
  140.7278  143.4697  151.0264 H   0  0  0  0  0  0  0  0  0  0  0  0  # atno 10167 bound_to 10162
  156.2496  130.4187  149.8665 H   0  0  0  0  0  0  0  0  0  0  0  0  # atno 10718 bound_to 10713
  152.9908  135.6162  154.2786 H   0  0  0  0  0  0  0  0  0  0  0  0  # atno 10763 bound_to 10752
  154.2516  135.2785  155.2816 H   0  0  0  0  0  0  0  0  0  0  0  0  # atno 10764 bound_to 10752
  154.5283  135.5795  153.6795 H   0  0  0  0  0  0  0  0  0  0  0  0  # atno 10765 bound_to 10752
  139.9412  134.9635  156.8575 H   0  0  0  0  0  0  0  0  0  0  0  0  # atno 11005 bound_to 11000
  146.3317  140.2827  142.8611 LP  0  0  0  0  0  0  0  0  0  0  0  0  # atno 17320 bound_to 7965
  144.9552  140.8219  143.5547 LP  0  0  0  0  0  0  0  0  0  0  0  0  # atno 17321 bound_to 7965
  139.8388  143.7591  152.3180 LP  0  0  0  0  0  0  0  0  0  0  0  0  # atno 17342 bound_to 10162
  139.7733  144.7469  151.0193 LP  0  0  0  0  0  0  0  0  0  0  0  0  # atno 17343 bound_to 10162
  156.6219  130.8630  151.3477 LP  0  0  0  0  0  0  0  0  0  0  0  0  # atno 17370 bound_to 10713
  157.7209  130.9557  150.1435 LP  0  0  0  0  0  0  0  0  0  0  0  0  # atno 17371 bound_to 10713
  140.5947  134.0228  155.7513 LP  0  0  0  0  0  0  0  0  0  0  0  0  # atno 17394 bound_to 11000
  141.1047  133.9713  157.3018 LP  0  0  0  0  0  0  0  0  0  0  0  0  # atno 17395 bound_to 11000

$$$$
