AV-unprocessed.smi:1047|AV-procd|sdf|4603|dock5
  -GOLD-   22720 3 93D 1   1.00000     0.00000
 Structure written by MMmdl.
 57 59  0  0  0  0  0  0  0  0  3 V2000
  143.7807  135.4873  151.2480 C   0  0  0  0  0  0  0  0  0  0  0  0
  145.3043  135.3284  151.1458 C   0  0  0  0  0  0  0  0  0  0  0  0
  146.0356  136.2069  152.0928 N   0  3  2  0  0  0  0  0  0  0  0  0
  145.5783  136.0751  153.4985 C   0  0  0  0  0  0  0  0  0  0  0  0
  146.3938  136.9991  154.4175 C   0  0  0  0  0  0  0  0  0  0  0  0
  146.2904  138.3393  153.9549 O   0  0  0  0  0  0  0  0  0  0  0  0
  146.8281  138.5016  152.6463 C   0  0  2  0  0  0  0  0  0  0  0  0
  146.7413  139.9904  152.2802 C   0  0  0  0  0  0  0  0  0  0  0  0
  146.3410  140.7930  153.4312 N   0  0  0  0  0  0  0  0  0  0  0  0
  147.3868  141.6977  153.8995 C   0  0  0  0  0  0  0  0  0  0  0  0
  148.5526  140.9253  154.5406 C   0  0  1  0  0  0  0  0  0  0  0  0
  149.5376  140.6938  153.5529 O   0  0  0  0  0  0  0  0  0  0  0  0
  149.1802  141.7093  155.7100 C   0  0  0  0  0  0  0  0  0  0  0  0
  150.1796  140.9245  156.4497 N   0  0  0  0  0  0  0  0  0  0  0  0
  150.5334  139.6187  156.3043 C   0  0  0  0  0  0  0  0  0  0  0  0
  151.5054  139.3512  157.2191 N   0  3  0  0  0  0  0  0  0  0  0  0
  151.7767  140.5026  157.9607 C   0  0  0  0  0  0  0  0  0  0  0  0
  152.6775  140.7257  158.9953 C   0  0  0  0  0  0  0  0  0  0  0  0
  152.7163  142.0257  159.5474 C   0  0  0  0  0  0  0  0  0  0  0  0
  153.6912  142.3042  160.6789 C   0  0  0  0  0  0  0  0  0  0  0  0
  151.8668  143.0516  159.0587 C   0  0  0  0  0  0  0  0  0  0  0  0
  151.9176  144.4459  159.6599 C   0  0  0  0  0  0  0  0  0  0  0  0
  150.9573  142.8045  158.0053 C   0  0  0  0  0  0  0  0  0  0  0  0
  150.9303  141.5175  157.4724 C   0  0  0  0  0  0  0  0  0  0  0  0
  146.0110  137.6289  151.6733 C   0  0  0  0  0  0  0  0  0  0  0  0
  143.2774  134.7658  150.6040 H   0  0  0  0  0  0  0  0  0  0  0  0
  143.4508  136.4785  150.9383 H   0  0  0  0  0  0  0  0  0  0  0  0
  143.4337  135.3177  152.2676 H   0  0  0  0  0  0  0  0  0  0  0  0
  145.5460  134.2880  151.3679 H   0  0  0  0  0  0  0  0  0  0  0  0
  145.6426  135.5138  150.1253 H   0  0  0  0  0  0  0  0  0  0  0  0
  144.5188  136.3273  153.5648 H   0  0  0  0  0  0  0  0  0  0  0  0
  145.6847  135.0465  153.8415 H   0  0  0  0  0  0  0  0  0  0  0  0
  146.0115  136.9475  155.4371 H   0  0  0  0  0  0  0  0  0  0  0  0
  147.4402  136.6918  154.4541 H   0  0  0  0  0  0  0  0  0  0  0  0
  147.8728  138.1835  152.6299 H   0  0  0  0  0  0  0  0  0  0  0  0
  147.7126  140.3343  151.9224 H   0  0  0  0  0  0  0  0  0  0  0  0
  146.0392  140.1261  151.4565 H   0  0  0  0  0  0  0  0  0  0  0  0
  145.5062  141.3241  153.2040 H   0  0  0  0  0  0  0  0  0  0  0  0
  147.7443  142.3339  153.0884 H   0  0  0  0  0  0  0  0  0  0  0  0
  146.9583  142.3667  154.6470 H   0  0  0  0  0  0  0  0  0  0  0  0
  148.2009  139.9625  154.9155 H   0  0  0  0  0  0  0  0  0  0  0  0
  149.2186  140.0322  152.9587 H   0  0  0  0  0  0  0  0  0  0  0  0
  149.6269  142.6439  155.3705 H   0  0  0  0  0  0  0  0  0  0  0  0
  148.4055  141.9861  156.4264 H   0  0  0  0  0  0  0  0  0  0  0  0
  150.1186  138.9205  155.5914 H   0  0  0  0  0  0  0  0  0  0  0  0
  153.3220  139.9398  159.3611 H   0  0  0  0  0  0  0  0  0  0  0  0
  153.1563  142.6066  161.5795 H   0  0  0  0  0  0  0  0  0  0  0  0
  154.3822  143.1006  160.4012 H   0  0  0  0  0  0  0  0  0  0  0  0
  154.2824  141.4211  160.9228 H   0  0  0  0  0  0  0  0  0  0  0  0
  151.1961  145.1121  159.1859 H   0  0  0  0  0  0  0  0  0  0  0  0
  152.9086  144.8816  159.5310 H   0  0  0  0  0  0  0  0  0  0  0  0
  151.6889  144.4122  160.7254 H   0  0  0  0  0  0  0  0  0  0  0  0
  150.3160  143.5887  157.6321 H   0  0  0  0  0  0  0  0  0  0  0  0
  146.4217  137.7204  150.6668 H   0  0  0  0  0  0  0  0  0  0  0  0
  144.9773  137.9774  151.6303 H   0  0  0  0  0  0  0  0  0  0  0  0
  147.0039  135.9204  152.0671 H   0  0  0  0  0  0  0  0  0  0  0  0
  151.9501  138.4485  157.3262 H   0  0  0  0  0  0  0  0  0  0  0  0
  1  2  1  0  0  0  0
  1 26  1  0  0  0  0
  1 27  1  0  0  0  0
  1 28  1  0  0  0  0
  2  3  1  0  0  0  0
  2 29  1  0  0  0  0
  2 30  1  0  0  0  0
  3 25  1  0  0  0  0
  3  4  1  0  0  0  0
  3 56  1  0  0  0  0
  4  5  1  0  0  0  0
  4 31  1  0  0  0  0
  4 32  1  0  0  0  0
  5  6  1  0  0  0  0
  5 33  1  0  0  0  0
  5 34  1  0  0  0  0
  6  7  1  0  0  0  0
  7  8  1  0  0  0  0
  7 25  1  0  0  0  0
  7 35  1  0  0  0  0
  8  9  1  0  0  0  0
  8 36  1  0  0  0  0
  8 37  1  0  0  0  0
  9 10  1  0  0  0  0
  9 38  1  0  0  0  0
 10 11  1  0  0  0  0
 10 39  1  0  0  0  0
 10 40  1  0  0  0  0
 11 12  1  0  0  0  0
 11 13  1  0  0  0  0
 11 41  1  0  0  0  0
 12 42  1  0  0  0  0
 13 14  1  0  0  0  0
 13 43  1  0  0  0  0
 13 44  1  0  0  0  0
 14 24  1  0  0  0  0
 14 15  1  0  0  0  0
 15 16  2  0  0  0  0
 15 45  1  0  0  0  0
 16 17  1  0  0  0  0
 16 57  1  0  0  0  0
 17 24  2  0  0  0  0
 17 18  1  0  0  0  0
 18 19  2  0  0  0  0
 18 46  1  0  0  0  0
 19 20  1  0  0  0  0
 19 21  1  0  0  0  0
 20 47  1  0  0  0  0
 20 48  1  0  0  0  0
 20 49  1  0  0  0  0
 21 22  1  0  0  0  0
 21 23  2  0  0  0  0
 22 50  1  0  0  0  0
 22 51  1  0  0  0  0
 22 52  1  0  0  0  0
 23 24  1  0  0  0  0
 23 53  1  0  0  0  0
 25 54  1  0  0  0  0
 25 55  1  0  0  0  0
M  CHG  1   3   1
M  CHG  1  16   1
M  END
> <s_m_source_file>
AV-unprocessed.smi

> <i_m_source_file_index>
1047

> <i_lp_mmshare_version>
43012

> <i_f3d_flags>
0

> <s_epik_input>
W0NIM11bQ0gyXU4xW0NIMl1bQ0gyXU9bQ0BIXShbQ0gyXTEpW0NIMl1bTkhdW0NIMl1bQ0BIXShbT0hdKVtDSDJdbihbY0hdbjIpYyhjMjMpW2NIXWMoW0NIM10pYyhbY0hdMylbQ0gzXQ==

> <s_epik_cmdline>
J2VwaWtfcHl0aG9uJywgJy1waCcsICc3LjAnLCAnLXRuJywgJzgnLCAnLW1hJywgJzIwMCcsICctbWV0YWxfYmluZGluZycsICctaW1hZScsICc8aW5maWxlLm1hZT4nLCAnLW9tYWUnLCAnPG91dGZpbGUubWFlPic=

> <r_epik_Ionization_Penalty>
2.03028

> <r_epik_Ionization_Penalty_Charging>
1.21256

> <r_epik_Ionization_Penalty_Neutral>
0.817715

> <r_epik_State_Penalty>
2.54959

> <r_epik_Charging_Adjusted_Penalty>
3.76215

> <i_epik_Tot_Q>
2

> <i_epik_Tot_abs_Q>
2

> <r_epik_Metal_State_Penalty>
6.52811

> <b_epik_Metal_Only>
0

> <s_lp_Force_Field>
OPLS_2005

> <r_lp_Energy>
34.649

> <b_lp_Chiralities_Consistent>
1

> <s_lp_Variant>
AV-unprocessed.smi:1047-44

> <Gold.Version>
5.8.1

> <Gold.Id.Protein>
6NUR|6NUR_protein|mol2

> <Gold.PLP.Fitness>
58.4338

> <Gold.PLP.PLP>
-48.2256

> <Gold.PLP.part.hbond>
-4.7262

> <Gold.PLP.part.metal>
0.0000

> <Gold.PLP.part.buried>
1.8294

> <Gold.PLP.part.nonpolar>
-46.1044

> <Gold.PLP.part.repulsive>
0.3071

> <Gold.PLP.ligand.clash>
0.0000

> <Gold.PLP.ligand.torsion>
1.6678

> <Gold.PLP.Chemscore.Hbond>
4.4456

> <Gold.PLP.Chemscore.CHOScore>
0.0000

> <Gold.PLP.Chemscore.Metal>
0.0000

> <Gold.Chemscore.Hbonds>
donor molecule, donor type, donor heavy atom, donor atom, acceptor molecule, acceptor atom, score
      L1  H     3    56       P1  7948  2.00
      L1  H     9    38       P1 10175  0.34
      L1  H    12    42       P1  7957  0.45
      P1  H  7989  7998       L1    12  0.36
      P1  H  8011  8017       L1    12  0.76

> <Gold.PLP.Chemscore.Internal.Correction>
0.2069

> <Gold.Rescore>
     Score         DG    S(hbond)    S(metal)    S(lipo)     H(rot)  DE(clash)    DE(int)     intcor
     19.50     -22.30       2.74        0.00     124.93       2.71       1.14       1.66       ----

> <Gold.Chemscore.Fitness>
19.5001

> <Gold.Chemscore.DG>
-22.3035

> <Gold.Chemscore.ZeroCoef>
-5.4800

> <Gold.Chemscore.Hbond>
2.7370

> <Gold.Chemscore.Metal>
0.0000

> <Gold.Chemscore.Lipo>
124.9270

> <Gold.Chemscore.Internal_Hbond>
0.0000

> <Gold.Chemscore.DEClash>
1.1449

> <Gold.Chemscore.DEInternal>
1.6585

> <Gold.Chemscore.Rot>
2.7088

> <Gold.Chemscore.Internal.Correction>
   9.000000E+99

> <Gold.Chemscore.Hbonds>
donor molecule, donor type, donor heavy atom, donor atom, acceptor molecule, acceptor atom, score
      L1  H     3    56       P1  7948  0.96
      L1  H     9    38       P1 10175  0.06
      L1  H    12    42       P1  7957  0.46
      P1  H  7989  7998       L1    12  0.29
      P1  H  8011  8017       L1    12  0.27

> <Gold.Chemscore.Hbond.Weighted>
-9.1417

> <Gold.Chemscore.Metal.Weighted>
-0.0000

> <Gold.Chemscore.Lipo.Weighted>
-14.6165

> <Gold.Chemscore.Internal_Hbond.Weighted>
0.0000

> <Gold.Chemscore.DEClash.Weighted>
1.1449

> <Gold.Chemscore.DEInternal.Weighted>
1.6585

> <Gold.Chemscore.Rot.Weighted>
6.9346

> <Gold.Chemscore.Internal.Correction.Weighted>
   9.000000E+99

> <Gold.Protein.RotatedTorsions>
[ 6907 6896 6895 6894 ] final  -35.96 input  -60.11 | X-H torsion
[ 7974 7965 7964 7962 ] final  118.22 input  175.53 | X-H torsion
[ 8008 7997 7996 7995 ] final    3.99 input   59.86 | X-H torsion
[ 10167 10162 10161 10158 ] final   58.63 input  -65.29 | X-H torsion
[ 10718 10713 10712 10709 ] final  -46.08 input   66.30 | X-H torsion
[ 10763 10752 10751 10750 ] final  153.00 input  -60.55 | X-H torsion
[ 11005 11000 10999 10996 ] final   51.28 input  -57.11 | X-H torsion

> <Gold.Protein.ActiveResidues>
 VAL166  LYS551  ARG553  GLY616  TRP617  ASP618  TYR619  PRO620  LYS621  CYS622 
 ASP623  PHE694  ASN695  SER759  ASP760  ASP761  ALA762  ILE779  LEU786  VAL792 
 PHE793  MET794  SER795  GLU796  ALA797  LYS798  CYS799  TRP800  GLU811  SER814 

> <Gold.Protein.RotatedAtoms>
  151.0332  134.9554  159.8121 H   0  0  0  0  0  0  0  0  0  0  0  0  # atno 6907 bound_to 6896
  152.5349  134.2754  159.8997 H   0  0  0  0  0  0  0  0  0  0  0  0  # atno 6908 bound_to 6896
  151.2764  133.4188  159.2658 H   0  0  0  0  0  0  0  0  0  0  0  0  # atno 6909 bound_to 6896
  145.1578  139.3173  143.4533 H   0  0  0  0  0  0  0  0  0  0  0  0  # atno 7974 bound_to 7965
  154.7104  140.2691  155.6635 H   0  0  0  0  0  0  0  0  0  0  0  0  # atno 8008 bound_to 7997
  156.2793  140.2754  156.1668 H   0  0  0  0  0  0  0  0  0  0  0  0  # atno 8009 bound_to 7997
  155.0643  140.0371  157.2577 H   0  0  0  0  0  0  0  0  0  0  0  0  # atno 8010 bound_to 7997
  140.1851  144.4142  150.6597 H   0  0  0  0  0  0  0  0  0  0  0  0  # atno 10167 bound_to 10162
  156.2218  130.4166  149.8983 H   0  0  0  0  0  0  0  0  0  0  0  0  # atno 10718 bound_to 10713
  154.1291  135.2828  155.3189 H   0  0  0  0  0  0  0  0  0  0  0  0  # atno 10763 bound_to 10752
  154.6368  135.5416  153.7747 H   0  0  0  0  0  0  0  0  0  0  0  0  # atno 10764 bound_to 10752
  153.0287  135.6476  154.1442 H   0  0  0  0  0  0  0  0  0  0  0  0  # atno 10765 bound_to 10752
  140.0946  134.5163  155.8819 H   0  0  0  0  0  0  0  0  0  0  0  0  # atno 11005 bound_to 11000
  146.3486  140.1677  142.8590 LP  0  0  0  0  0  0  0  0  0  0  0  0  # atno 17320 bound_to 7965
  145.0363  140.8910  143.5079 LP  0  0  0  0  0  0  0  0  0  0  0  0  # atno 17321 bound_to 7965
  140.6493  143.2221  151.6113 LP  0  0  0  0  0  0  0  0  0  0  0  0  # atno 17342 bound_to 10162
  139.5279  144.3002  152.1079 LP  0  0  0  0  0  0  0  0  0  0  0  0  # atno 17343 bound_to 10162
  156.6626  130.8788  151.3550 LP  0  0  0  0  0  0  0  0  0  0  0  0  # atno 17370 bound_to 10713
  157.7091  130.9419  150.1030 LP  0  0  0  0  0  0  0  0  0  0  0  0  # atno 17371 bound_to 10713
  141.2088  133.6677  156.6397 LP  0  0  0  0  0  0  0  0  0  0  0  0  # atno 17394 bound_to 11000
  140.3304  134.7933  157.4322 LP  0  0  0  0  0  0  0  0  0  0  0  0  # atno 17395 bound_to 11000

$$$$
