AV-unprocessed.smi:332|AV-procd|sdf|2355|dock6
  -GOLD-   2262022263D 1   1.00000     0.00000
 Structure written by MMmdl.
 42 44  0  0  0  0  0  0  0  0  1 V2000
  149.7265  139.5309  157.9173 C   0  0  0  0  0  0  0  0  0  0  0  0
  150.0106  138.0268  157.7658 C   0  0  1  0  0  0  0  0  0  0  0  0
  148.9094  137.2563  158.3336 N   0  0  0  0  0  0  0  0  0  0  0  0
  148.7953  135.9175  158.3324 C   0  0  0  0  0  0  0  0  0  0  0  0
  149.6630  135.1744  157.8754 O   0  0  0  0  0  0  0  0  0  0  0  0
  147.5114  135.3003  158.9138 C   0  0  0  0  0  0  0  0  0  0  0  0
  147.4823  135.2123  160.3851 N   0  0  0  0  0  0  0  0  0  0  0  0
  147.2694  133.9350  160.9409 C   0  0  0  0  0  0  0  0  0  0  0  0
  147.2057  133.7389  162.2671 C   0  0  0  0  0  0  0  0  0  0  0  0
  147.3650  134.8821  163.1341 C   0  0  0  0  0  0  0  0  0  0  0  0
  147.5645  136.1091  162.6129 C   0  0  0  0  0  0  0  0  0  0  0  0
  147.6267  136.3293  161.1634 C   0  0  0  0  0  0  0  0  0  0  0  0
  147.7892  137.4494  160.6793 O   0  0  0  0  0  0  0  0  0  0  0  0
  150.2090  137.6208  156.2864 C   0  0  1  0  0  0  0  0  0  0  0  0
  149.1442  138.1744  155.3132 C   0  0  0  0  0  0  0  0  0  0  0  0
  149.9933  138.7943  154.1873 C   0  0  1  0  0  0  0  0  0  0  0  0
  150.6251  140.1031  154.6962 C   0  0  0  0  0  0  0  0  0  0  0  0
  151.7092  139.6000  155.6666 C   0  0  0  0  0  0  0  0  0  0  0  0
  151.5317  138.0687  155.6129 C   0  0  2  0  0  0  0  0  0  0  0  0
  151.1978  137.8611  154.1393 C   0  0  0  0  0  0  0  0  0  0  0  0
  150.5419  140.1308  157.5129 H   0  0  0  0  0  0  0  0  0  0  0  0
  149.6101  139.8070  158.9657 H   0  0  0  0  0  0  0  0  0  0  0  0
  148.8129  139.8172  157.3955 H   0  0  0  0  0  0  0  0  0  0  0  0
  150.9238  137.7992  158.3179 H   0  0  0  0  0  0  0  0  0  0  0  0
  148.1502  137.7885  158.7331 H   0  0  0  0  0  0  0  0  0  0  0  0
  146.6645  135.8933  158.5652 H   0  0  0  0  0  0  0  0  0  0  0  0
  147.3669  134.3165  158.4641 H   0  0  0  0  0  0  0  0  0  0  0  0
  147.1525  133.1354  160.2234 H   0  0  0  0  0  0  0  0  0  0  0  0
  147.0361  132.7531  162.6747 H   0  0  0  0  0  0  0  0  0  0  0  0
  147.3240  134.7529  164.2055 H   0  0  0  0  0  0  0  0  0  0  0  0
  147.6810  136.9526  163.2775 H   0  0  0  0  0  0  0  0  0  0  0  0
  150.1792  136.5306  156.2360 H   0  0  0  0  0  0  0  0  0  0  0  0
  148.5186  137.3663  154.9328 H   0  0  0  0  0  0  0  0  0  0  0  0
  148.4860  138.9123  155.7731 H   0  0  0  0  0  0  0  0  0  0  0  0
  149.4564  138.9059  153.2451 H   0  0  0  0  0  0  0  0  0  0  0  0
  151.0755  140.6639  153.8762 H   0  0  0  0  0  0  0  0  0  0  0  0
  149.8971  140.7515  155.1855 H   0  0  0  0  0  0  0  0  0  0  0  0
  152.6992  139.8794  155.3041 H   0  0  0  0  0  0  0  0  0  0  0  0
  151.6051  140.0132  156.6692 H   0  0  0  0  0  0  0  0  0  0  0  0
  152.4074  137.5173  155.9575 H   0  0  0  0  0  0  0  0  0  0  0  0
  150.9379  136.8301  153.8924 H   0  0  0  0  0  0  0  0  0  0  0  0
  151.9838  138.2028  153.4636 H   0  0  0  0  0  0  0  0  0  0  0  0
  1  2  1  0  0  0  0
  1 21  1  0  0  0  0
  1 22  1  0  0  0  0
  1 23  1  0  0  0  0
  2  3  1  0  0  0  0
  2 14  1  0  0  0  0
  2 24  1  0  0  0  0
  3  4  1  0  0  0  0
  3 25  1  0  0  0  0
  4  5  2  0  0  0  0
  4  6  1  0  0  0  0
  6  7  1  0  0  0  0
  6 26  1  0  0  0  0
  6 27  1  0  0  0  0
  7 12  1  0  0  0  0
  7  8  1  0  0  0  0
  8  9  2  0  0  0  0
  8 28  1  0  0  0  0
  9 10  1  0  0  0  0
  9 29  1  0  0  0  0
 10 11  2  0  0  0  0
 10 30  1  0  0  0  0
 11 12  1  0  0  0  0
 11 31  1  0  0  0  0
 12 13  2  0  0  0  0
 14 19  1  0  0  0  0
 14 15  1  0  0  0  0
 14 32  1  0  0  0  0
 15 16  1  0  0  0  0
 15 33  1  0  0  0  0
 15 34  1  0  0  0  0
 16 20  1  0  0  0  0
 16 17  1  0  0  0  0
 16 35  1  0  0  0  0
 17 18  1  0  0  0  0
 17 36  1  0  0  0  0
 17 37  1  0  0  0  0
 18 19  1  0  0  0  0
 18 38  1  0  0  0  0
 18 39  1  0  0  0  0
 19 20  1  0  0  0  0
 19 40  1  0  0  0  0
 20 41  1  0  0  0  0
 20 42  1  0  0  0  0
M  END
> <s_m_source_file>
AV-unprocessed.smi

> <i_m_source_file_index>
332

> <i_lp_mmshare_version>
43012

> <i_f3d_flags>
0

> <s_epik_input>
W0NIMl0xW0NIMl1bQ0BIXShbQ0gyXTIpW0NAQEhdKFtDSDJdW0NAQEhdMTIpW0NASF0oW0NIM10pW05IXUMoPU8pW0NIMl1uM1tjSF1bY0hdW2NIXVtjSF1jMz1P

> <s_epik_cmdline>
J2VwaWtfcHl0aG9uJywgJy1waCcsICc3LjAnLCAnLXRuJywgJzgnLCAnLW1hJywgJzIwMCcsICctbWV0YWxfYmluZGluZycsICctaW1hZScsICc8aW5maWxlLm1hZT4nLCAnLW9tYWUnLCAnPG91dGZpbGUubWFlPic=

> <r_lp_tautomer_probability>
1

> <r_epik_Ionization_Penalty>
4.05802e-07

> <r_epik_Ionization_Penalty_Charging>
3.84175e-07

> <r_epik_Ionization_Penalty_Neutral>
2.16269e-08

> <r_epik_State_Penalty>
-0

> <r_epik_Charging_Adjusted_Penalty>
3.84175e-07

> <i_epik_Tot_Q>
0

> <i_epik_Tot_abs_Q>
0

> <r_epik_Metal_State_Penalty>
-0

> <b_epik_Metal_Only>
0

> <s_lp_Force_Field>
OPLS_2005

> <r_lp_Energy>
59.7758

> <b_lp_Chiralities_Consistent>
1

> <s_lp_Variant>
AV-unprocessed.smi:332-4

> <Gold.Version>
5.8.1

> <Gold.Id.Protein>
6NUR|6NUR_protein|mol2

> <Gold.PLP.Fitness>
42.7951

> <Gold.PLP.PLP>
-35.8809

> <Gold.PLP.part.hbond>
-3.0000

> <Gold.PLP.part.metal>
0.0000

> <Gold.PLP.part.buried>
-1.1935

> <Gold.PLP.part.nonpolar>
-32.5029

> <Gold.PLP.part.repulsive>
0.1211

> <Gold.PLP.ligand.clash>
0.0000

> <Gold.PLP.ligand.torsion>
0.4915

> <Gold.PLP.Chemscore.Hbond>
2.6240

> <Gold.PLP.Chemscore.CHOScore>
0.0000

> <Gold.PLP.Chemscore.Metal>
0.0000

> <Gold.Chemscore.Hbonds>
donor molecule, donor type, donor heavy atom, donor atom, acceptor molecule, acceptor atom, score
      P1  H  6896  6909       L1     5  1.00
      P1  H  6931  6943       L1    13  0.69
      P1  H  6934  6947       L1    13  0.82

> <Gold.PLP.Chemscore.Internal.Correction>
0.0252

> <Gold.Rescore>
     Score         DG    S(hbond)    S(metal)    S(lipo)     H(rot)  DE(clash)    DE(int)     intcor
     13.95     -17.60       1.95        0.00      81.66       1.54       0.57       3.08       ----

> <Gold.Chemscore.Fitness>
13.9475

> <Gold.Chemscore.DG>
-17.5953

> <Gold.Chemscore.ZeroCoef>
-5.4800

> <Gold.Chemscore.Hbond>
1.9471

> <Gold.Chemscore.Metal>
0.0000

> <Gold.Chemscore.Lipo>
81.6568

> <Gold.Chemscore.Internal_Hbond>
0.0000

> <Gold.Chemscore.DEClash>
0.5673

> <Gold.Chemscore.DEInternal>
3.0804

> <Gold.Chemscore.Rot>
1.5398

> <Gold.Chemscore.Internal.Correction>
   9.000000E+99

> <Gold.Chemscore.Hbonds>
donor molecule, donor type, donor heavy atom, donor atom, acceptor molecule, acceptor atom, score
      P1  H  6896  6909       L1     5  0.54
      P1  H  6931  6943       L1    13  0.27
      P1  H  6934  6947       L1    13  0.81

> <Gold.Chemscore.Hbond.Weighted>
-6.5033

> <Gold.Chemscore.Metal.Weighted>
-0.0000

> <Gold.Chemscore.Lipo.Weighted>
-9.5538

> <Gold.Chemscore.Internal_Hbond.Weighted>
0.0000

> <Gold.Chemscore.DEClash.Weighted>
0.5673

> <Gold.Chemscore.DEInternal.Weighted>
3.0804

> <Gold.Chemscore.Rot.Weighted>
3.9419

> <Gold.Chemscore.Internal.Correction.Weighted>
   9.000000E+99

> <Gold.Protein.RotatedTorsions>
[ 6907 6896 6895 6894 ] final   37.87 input  -60.11 | X-H torsion
[ 7974 7965 7964 7962 ] final   40.76 input  175.53 | X-H torsion
[ 8008 7997 7996 7995 ] final -140.76 input   59.86 | X-H torsion
[ 10167 10162 10161 10158 ] final  -86.15 input  -65.29 | X-H torsion
[ 10718 10713 10712 10709 ] final  -98.12 input   66.30 | X-H torsion
[ 10763 10752 10751 10750 ] final  115.82 input  -60.55 | X-H torsion
[ 11005 11000 10999 10996 ] final   80.52 input  -57.11 | X-H torsion

> <Gold.Protein.ActiveResidues>
 VAL166  LYS551  ARG553  GLY616  TRP617  ASP618  TYR619  PRO620  LYS621  CYS622 
 ASP623  PHE694  ASN695  SER759  ASP760  ASP761  ALA762  ILE779  LEU786  VAL792 
 PHE793  MET794  SER795  GLU796  ALA797  LYS798  CYS799  TRP800  GLU811  SER814 

> <Gold.Protein.RotatedAtoms>
  152.1489  134.9004  160.0549 H   0  0  0  0  0  0  0  0  0  0  0  0  # atno 6907 bound_to 6896
  152.0043  133.3832  159.4202 H   0  0  0  0  0  0  0  0  0  0  0  0  # atno 6908 bound_to 6896
  150.6873  134.3722  159.5041 H   0  0  0  0  0  0  0  0  0  0  0  0  # atno 6909 bound_to 6896
  146.0878  139.5495  142.9495 H   0  0  0  0  0  0  0  0  0  0  0  0  # atno 7974 bound_to 7965
  155.4666  140.0550  157.2984 H   0  0  0  0  0  0  0  0  0  0  0  0  # atno 8008 bound_to 7997
  154.4715  140.2042  155.9936 H   0  0  0  0  0  0  0  0  0  0  0  0  # atno 8009 bound_to 7997
  156.1064  140.3211  155.8016 H   0  0  0  0  0  0  0  0  0  0  0  0  # atno 8010 bound_to 7997
  140.3969  143.2679  151.9192 H   0  0  0  0  0  0  0  0  0  0  0  0  # atno 10167 bound_to 10162
  156.0099  130.5224  150.6475 H   0  0  0  0  0  0  0  0  0  0  0  0  # atno 10718 bound_to 10713
  153.5280  135.3584  155.2663 H   0  0  0  0  0  0  0  0  0  0  0  0  # atno 10763 bound_to 10752
  154.8729  135.4061  154.3184 H   0  0  0  0  0  0  0  0  0  0  0  0  # atno 10764 bound_to 10752
  153.3867  135.7070  153.6592 H   0  0  0  0  0  0  0  0  0  0  0  0  # atno 10765 bound_to 10752
  139.9131  134.7927  156.1920 H   0  0  0  0  0  0  0  0  0  0  0  0  # atno 11005 bound_to 11000
  145.6096  141.0342  143.1974 LP  0  0  0  0  0  0  0  0  0  0  0  0  # atno 17320 bound_to 7965
  144.7338  139.7645  143.7337 LP  0  0  0  0  0  0  0  0  0  0  0  0  # atno 17321 bound_to 7965
  139.4786  144.5672  151.8146 LP  0  0  0  0  0  0  0  0  0  0  0  0  # atno 17342 bound_to 10162
  140.4781  144.1490  150.5928 LP  0  0  0  0  0  0  0  0  0  0  0  0  # atno 17343 bound_to 10162
  157.4243  131.0841  151.1101 LP  0  0  0  0  0  0  0  0  0  0  0  0  # atno 17370 bound_to 10713
  157.1693  130.6260  149.5635 LP  0  0  0  0  0  0  0  0  0  0  0  0  # atno 17371 bound_to 10713
  141.0578  133.6857  156.1893 LP  0  0  0  0  0  0  0  0  0  0  0  0  # atno 17394 bound_to 11000
  140.6710  134.4868  157.5587 LP  0  0  0  0  0  0  0  0  0  0  0  0  # atno 17395 bound_to 11000

$$$$
