AV-unprocessed.smi:1842|AV-procd|sdf|7499|dock3
  -GOLD-   22720 9203D 1   1.00000     0.00000
 Structure written by MMmdl.
 38 39  0  0  0  0  0  0  0  0  1 V2000
  151.5989  140.4846  155.3561 O   0  0  0  0  0  0  0  0  0  0  0  0
  150.8024  140.5877  156.2888 C   0  0  0  0  0  0  0  0  0  0  0  0
  150.9082  141.7604  157.2652 C   0  0  0  0  0  0  0  0  0  0  0  0
  152.2110  141.7129  158.0837 C   0  0  0  0  0  0  0  0  0  0  0  0
  152.5209  143.0360  158.8057 C   0  0  0  0  0  0  0  0  0  0  0  0
  151.9475  143.1386  160.2224 C   0  0  0  0  0  0  0  0  0  0  0  0
  151.9353  144.6384  160.5355 C   0  0  0  0  0  0  0  0  0  0  0  0
  151.8974  145.3596  159.1795 C   0  0  0  0  0  0  0  0  0  0  0  0
  151.9294  144.2635  158.1080 C   0  0  0  0  0  0  0  0  0  0  0  0
  149.8081  139.7150  156.5108 N   0  0  0  0  0  0  0  0  0  0  0  0
  149.4904  138.5641  155.6707 C   0  0  0  0  0  0  0  0  0  0  0  0
  149.1620  138.9637  154.2188 C   0  0  0  0  0  0  0  0  0  0  0  0
  147.8411  138.5234  153.8103 N   0  0  0  0  0  0  0  0  0  0  0  0
  147.1591  138.8763  152.6535 C   0  0  0  0  0  0  0  0  0  0  0  0
  145.9530  138.2136  152.6914 C   0  0  0  0  0  0  0  0  0  0  0  0
  145.8721  137.4523  153.8553 N   0  0  0  0  0  0  0  0  0  0  0  0
  147.0249  137.6878  154.4679 C   0  0  0  0  0  0  0  0  0  0  0  0
  150.8443  142.7007  156.7155 H   0  0  0  0  0  0  0  0  0  0  0  0
  150.0468  141.7311  157.9333 H   0  0  0  0  0  0  0  0  0  0  0  0
  152.1397  140.9188  158.8285 H   0  0  0  0  0  0  0  0  0  0  0  0
  153.0459  141.4451  157.4338 H   0  0  0  0  0  0  0  0  0  0  0  0
  153.6029  143.1678  158.8598 H   0  0  0  0  0  0  0  0  0  0  0  0
  150.9257  142.7561  160.2387 H   0  0  0  0  0  0  0  0  0  0  0  0
  152.5243  142.5702  160.9525 H   0  0  0  0  0  0  0  0  0  0  0  0
  151.0886  144.9076  161.1677 H   0  0  0  0  0  0  0  0  0  0  0  0
  152.8438  144.9143  161.0721 H   0  0  0  0  0  0  0  0  0  0  0  0
  151.0110  145.9867  159.0769 H   0  0  0  0  0  0  0  0  0  0  0  0
  152.7683  146.0090  159.0823 H   0  0  0  0  0  0  0  0  0  0  0  0
  152.5013  144.5586  157.2277 H   0  0  0  0  0  0  0  0  0  0  0  0
  150.9108  144.0492  157.7810 H   0  0  0  0  0  0  0  0  0  0  0  0
  149.2056  139.8775  157.3048 H   0  0  0  0  0  0  0  0  0  0  0  0
  150.3228  137.8591  155.6861 H   0  0  0  0  0  0  0  0  0  0  0  0
  148.6398  138.0452  156.1135 H   0  0  0  0  0  0  0  0  0  0  0  0
  149.2299  140.0446  154.0875 H   0  0  0  0  0  0  0  0  0  0  0  0
  149.8931  138.5241  153.5395 H   0  0  0  0  0  0  0  0  0  0  0  0
  147.5772  139.5490  151.9192 H   0  0  0  0  0  0  0  0  0  0  0  0
  145.1439  138.2250  151.9759 H   0  0  0  0  0  0  0  0  0  0  0  0
  147.2848  137.2378  155.4153 H   0  0  0  0  0  0  0  0  0  0  0  0
  1  2  2  0  0  0  0
  2  3  1  0  0  0  0
  2 10  1  0  0  0  0
  3  4  1  0  0  0  0
  3 18  1  0  0  0  0
  3 19  1  0  0  0  0
  4  5  1  0  0  0  0
  4 20  1  0  0  0  0
  4 21  1  0  0  0  0
  5  9  1  0  0  0  0
  5  6  1  0  0  0  0
  5 22  1  0  0  0  0
  6  7  1  0  0  0  0
  6 23  1  0  0  0  0
  6 24  1  0  0  0  0
  7  8  1  0  0  0  0
  7 25  1  0  0  0  0
  7 26  1  0  0  0  0
  8  9  1  0  0  0  0
  8 27  1  0  0  0  0
  8 28  1  0  0  0  0
  9 29  1  0  0  0  0
  9 30  1  0  0  0  0
 10 11  1  0  0  0  0
 10 31  1  0  0  0  0
 11 12  1  0  0  0  0
 11 32  1  0  0  0  0
 11 33  1  0  0  0  0
 12 13  1  0  0  0  0
 12 34  1  0  0  0  0
 12 35  1  0  0  0  0
 13 17  1  0  0  0  0
 13 14  1  0  0  0  0
 14 15  2  0  0  0  0
 14 36  1  0  0  0  0
 15 16  1  0  0  0  0
 15 37  1  0  0  0  0
 16 17  2  0  0  0  0
 17 38  1  0  0  0  0
M  END
> <s_m_source_file>
AV-unprocessed.smi

> <i_m_source_file_index>
1842

> <i_lp_mmshare_version>
43012

> <i_f3d_flags>
0

> <s_epik_input>
W0NIMl0xW0NIMl1bQ0gyXVtDSDJdW0NIXTFbQ0gyXVtDSDJdQyg9TylbTkhdW0NIMl1bQ0gyXW4yW2NIXVtjSF1uW2NIXTI=

> <s_epik_cmdline>
J2VwaWtfcHl0aG9uJywgJy1waCcsICc3LjAnLCAnLXRuJywgJzgnLCAnLW1hJywgJzIwMCcsICctbWV0YWxfYmluZGluZycsICctaW1hZScsICc8aW5maWxlLm1hZT4nLCAnLW9tYWUnLCAnPG91dGZpbGUubWFlPic=

> <r_lp_tautomer_probability>
1

> <r_epik_Ionization_Penalty>
0.595716

> <r_epik_Ionization_Penalty_Charging>
0.595716

> <r_epik_Ionization_Penalty_Neutral>
2.42503e-08

> <r_epik_State_Penalty>
0.60967

> <r_epik_Charging_Adjusted_Penalty>
1.20539

> <i_epik_Tot_Q>
0

> <i_epik_Tot_abs_Q>
0

> <r_epik_Metal_State_Penalty>
0.299956

> <b_epik_Metal_Only>
0

> <s_lp_Force_Field>
OPLS_2005

> <r_lp_Energy>
23.0444

> <b_lp_Chiralities_Consistent>
1

> <s_lp_Variant>
AV-unprocessed.smi:1842-2

> <Gold.Version>
5.8.1

> <Gold.Id.Protein>
6NUR|6NUR_protein|mol2

> <Gold.PLP.Fitness>
41.7127

> <Gold.PLP.PLP>
-33.4793

> <Gold.PLP.part.hbond>
-1.0000

> <Gold.PLP.part.metal>
0.0000

> <Gold.PLP.part.buried>
-1.1487

> <Gold.PLP.part.nonpolar>
-31.8215

> <Gold.PLP.part.repulsive>
0.1668

> <Gold.PLP.ligand.clash>
0.0000

> <Gold.PLP.ligand.torsion>
0.9578

> <Gold.PLP.Chemscore.Hbond>
0.8160

> <Gold.PLP.Chemscore.CHOScore>
2.5519

> <Gold.PLP.Chemscore.Metal>
0.0000

> <Gold.Chemscore.Hbonds>
donor molecule, donor type, donor heavy atom, donor atom, acceptor molecule, acceptor atom, score
      P1  H  7989  7998       L1     1  0.82
      L1  C    14    36       P1  7957  1.00
      L1  C    15    37       P1 10171  1.00
      L1  C    15    37       P1 10175  0.31

> <Gold.PLP.Chemscore.Internal.Correction>
0.0453

> <Gold.Rescore>
     Score         DG    S(hbond)    S(metal)    S(lipo)     H(rot)  DE(clash)    DE(int)     intcor
     13.55     -14.57       0.90        0.00      99.11       2.15       0.14       0.88       ----

> <Gold.Chemscore.Fitness>
13.5482

> <Gold.Chemscore.DG>
-14.5667

> <Gold.Chemscore.ZeroCoef>
-5.4800

> <Gold.Chemscore.Hbond>
0.8955

> <Gold.Chemscore.Metal>
0.0000

> <Gold.Chemscore.Lipo>
99.1097

> <Gold.Chemscore.Internal_Hbond>
0.0000

> <Gold.Chemscore.DEClash>
0.1365

> <Gold.Chemscore.DEInternal>
0.8821

> <Gold.Chemscore.Rot>
2.1484

> <Gold.Chemscore.Internal.Correction>
   9.000000E+99

> <Gold.Chemscore.Hbonds>
donor molecule, donor type, donor heavy atom, donor atom, acceptor molecule, acceptor atom, score
      P1  H  7989  7998       L1     1  0.81

> <Gold.Chemscore.Hbond.Weighted>
-2.9909

> <Gold.Chemscore.Metal.Weighted>
-0.0000

> <Gold.Chemscore.Lipo.Weighted>
-11.5958

> <Gold.Chemscore.Internal_Hbond.Weighted>
0.0000

> <Gold.Chemscore.DEClash.Weighted>
0.1365

> <Gold.Chemscore.DEInternal.Weighted>
0.8821

> <Gold.Chemscore.Rot.Weighted>
5.5000

> <Gold.Chemscore.Internal.Correction.Weighted>
   9.000000E+99

> <Gold.Protein.RotatedTorsions>
[ 6907 6896 6895 6894 ] final -105.63 input  -60.11 | X-H torsion
[ 7974 7965 7964 7962 ] final  -77.30 input  175.53 | X-H torsion
[ 8008 7997 7996 7995 ] final  176.72 input   59.86 | X-H torsion
[ 10167 10162 10161 10158 ] final -144.29 input  -65.29 | X-H torsion
[ 10718 10713 10712 10709 ] final -133.32 input   66.30 | X-H torsion
[ 10763 10752 10751 10750 ] final  -22.19 input  -60.55 | X-H torsion
[ 11005 11000 10999 10996 ] final -110.10 input  -57.11 | X-H torsion

> <Gold.Protein.ActiveResidues>
 VAL166  LYS551  ARG553  GLY616  TRP617  ASP618  TYR619  PRO620  LYS621  CYS622 
 ASP623  PHE694  ASN695  SER759  ASP760  ASP761  ALA762  ILE779  LEU786  VAL792 
 PHE793  MET794  SER795  GLU796  ALA797  LYS798  CYS799  TRP800  GLU811  SER814 

> <Gold.Protein.RotatedAtoms>
  150.7346  134.0098  159.3665 H   0  0  0  0  0  0  0  0  0  0  0  0  # atno 6907 bound_to 6896
  151.8057  135.0693  160.0415 H   0  0  0  0  0  0  0  0  0  0  0  0  # atno 6908 bound_to 6896
  152.3109  133.5715  159.5716 H   0  0  0  0  0  0  0  0  0  0  0  0  # atno 6909 bound_to 6896
  145.6014  140.9408  143.1238 H   0  0  0  0  0  0  0  0  0  0  0  0  # atno 7974 bound_to 7965
  156.0734  140.1376  156.9801 H   0  0  0  0  0  0  0  0  0  0  0  0  # atno 8008 bound_to 7997
  154.4544  140.0967  156.6765 H   0  0  0  0  0  0  0  0  0  0  0  0  # atno 8009 bound_to 7997
  155.5191  140.3456  155.4405 H   0  0  0  0  0  0  0  0  0  0  0  0  # atno 8010 bound_to 7997
  139.7913  143.7963  152.2650 H   0  0  0  0  0  0  0  0  0  0  0  0  # atno 10167 bound_to 10162
  156.2437  130.7111  151.0982 H   0  0  0  0  0  0  0  0  0  0  0  0  # atno 10718 bound_to 10713
  153.6480  135.6982  153.5218 H   0  0  0  0  0  0  0  0  0  0  0  0  # atno 10763 bound_to 10752
  153.2729  135.4209  155.1004 H   0  0  0  0  0  0  0  0  0  0  0  0  # atno 10764 bound_to 10752
  154.8483  135.3583  154.6025 H   0  0  0  0  0  0  0  0  0  0  0  0  # atno 10765 bound_to 10752
  141.0810  133.9219  157.2287 H   0  0  0  0  0  0  0  0  0  0  0  0  # atno 11005 bound_to 11000
  144.7308  139.7732  143.7348 LP  0  0  0  0  0  0  0  0  0  0  0  0  # atno 17320 bound_to 7965
  146.1573  139.4675  143.0011 LP  0  0  0  0  0  0  0  0  0  0  0  0  # atno 17321 bound_to 7965
  139.8055  144.7357  150.9767 LP  0  0  0  0  0  0  0  0  0  0  0  0  # atno 17342 bound_to 10162
  140.7820  143.4303  151.0705 LP  0  0  0  0  0  0  0  0  0  0  0  0  # atno 17343 bound_to 10162
  157.7186  131.0695  150.6228 LP  0  0  0  0  0  0  0  0  0  0  0  0  # atno 17370 bound_to 10713
  156.6303  130.4430  149.5789 LP  0  0  0  0  0  0  0  0  0  0  0  0  # atno 17371 bound_to 10713
  139.9624  135.0150  156.9298 LP  0  0  0  0  0  0  0  0  0  0  0  0  # atno 17394 bound_to 11000
  140.5467  134.0667  155.7357 LP  0  0  0  0  0  0  0  0  0  0  0  0  # atno 17395 bound_to 11000

$$$$
