AV-unprocessed.smi:1349|AV-procd|sdf|5519|dock6
  -GOLD-   22720 5103D 1   1.00000     0.00000
 Structure written by MMmdl.
 43 45  0  0  0  0  0  0  0  0  2 V2000
  151.1606  136.6951  154.7866 O   0  0  0  0  0  0  0  0  0  0  0  0
  150.4064  135.9374  155.7088 C   0  0  0  0  0  0  0  0  0  0  0  0
  149.3029  135.1535  154.9839 C   0  0  0  0  0  0  0  0  0  0  0  0
  149.8405  133.9703  154.1629 C   0  0  0  0  0  0  0  0  0  0  0  0
  148.7366  133.2354  153.4747 C   0  0  0  0  0  0  0  0  0  0  0  0
  147.8412  133.7768  152.6014 N   0  3  0  0  0  0  0  0  0  0  0  0
  146.9615  132.7902  152.1539 C   0  0  0  0  0  0  0  0  0  0  0  0
  145.8885  132.8578  151.2706 C   0  0  0  0  0  0  0  0  0  0  0  0
  145.1899  131.6562  151.0303 C   0  0  0  0  0  0  0  0  0  0  0  0
  145.5653  130.4504  151.6580 C   0  0  0  0  0  0  0  0  0  0  0  0
  146.6556  130.3942  152.5514 C   0  0  0  0  0  0  0  0  0  0  0  0
  147.3415  131.5865  152.7816 C   0  0  0  0  0  0  0  0  0  0  0  0
  148.4433  131.9070  153.5814 N   0  0  0  0  0  0  0  0  0  0  0  0
  149.0796  130.8505  154.3820 C   0  0  0  0  0  0  0  0  0  0  0  0
  150.5454  130.6260  153.9849 C   0  0  0  0  0  0  0  0  0  0  0  0
  151.3749  130.8932  155.1081 O   0  0  0  0  0  0  0  0  0  0  0  0
  152.7402  130.7944  154.9540 C   0  0  0  0  0  0  0  0  0  0  0  0
  153.2081  129.8927  153.9758 C   0  0  0  0  0  0  0  0  0  0  0  0
  154.5879  129.7296  153.7470 C   0  0  0  0  0  0  0  0  0  0  0  0
  155.5178  130.4702  154.5000 C   0  0  0  0  0  0  0  0  0  0  0  0
  155.0649  131.3715  155.4812 C   0  0  0  0  0  0  0  0  0  0  0  0
  153.6843  131.5347  155.7097 C   0  0  0  0  0  0  0  0  0  0  0  0
  150.7045  136.7040  153.9587 H   0  0  0  0  0  0  0  0  0  0  0  0
  151.0669  135.2647  156.2569 H   0  0  0  0  0  0  0  0  0  0  0  0
  149.9647  136.6197  156.4355 H   0  0  0  0  0  0  0  0  0  0  0  0
  148.5964  134.7776  155.7248 H   0  0  0  0  0  0  0  0  0  0  0  0
  148.7378  135.8301  154.3413 H   0  0  0  0  0  0  0  0  0  0  0  0
  150.5565  134.3156  153.4169 H   0  0  0  0  0  0  0  0  0  0  0  0
  150.3782  133.2768  154.8103 H   0  0  0  0  0  0  0  0  0  0  0  0
  145.5985  133.7808  150.7902 H   0  0  0  0  0  0  0  0  0  0  0  0
  144.3492  131.6598  150.3519 H   0  0  0  0  0  0  0  0  0  0  0  0
  145.0057  129.5497  151.4508 H   0  0  0  0  0  0  0  0  0  0  0  0
  146.9342  129.4665  153.0288 H   0  0  0  0  0  0  0  0  0  0  0  0
  148.9922  131.1043  155.4388 H   0  0  0  0  0  0  0  0  0  0  0  0
  148.5098  129.9324  154.2373 H   0  0  0  0  0  0  0  0  0  0  0  0
  150.6818  129.5960  153.6518 H   0  0  0  0  0  0  0  0  0  0  0  0
  150.8050  131.2861  153.1560 H   0  0  0  0  0  0  0  0  0  0  0  0
  152.5007  129.3199  153.3938 H   0  0  0  0  0  0  0  0  0  0  0  0
  154.9323  129.0358  152.9942 H   0  0  0  0  0  0  0  0  0  0  0  0
  156.5765  130.3467  154.3255 H   0  0  0  0  0  0  0  0  0  0  0  0
  155.7776  131.9397  156.0605 H   0  0  0  0  0  0  0  0  0  0  0  0
  153.3753  132.2339  156.4717 H   0  0  0  0  0  0  0  0  0  0  0  0
  147.8325  134.7531  152.3358 H   0  0  0  0  0  0  0  0  0  0  0  0
  1  2  1  0  0  0  0
  1 23  1  0  0  0  0
  2  3  1  0  0  0  0
  2 24  1  0  0  0  0
  2 25  1  0  0  0  0
  3  4  1  0  0  0  0
  3 26  1  0  0  0  0
  3 27  1  0  0  0  0
  4  5  1  0  0  0  0
  4 28  1  0  0  0  0
  4 29  1  0  0  0  0
  5 13  1  0  0  0  0
  5  6  2  0  0  0  0
  6  7  1  0  0  0  0
  6 43  1  0  0  0  0
  7 12  2  0  0  0  0
  7  8  1  0  0  0  0
  8  9  2  0  0  0  0
  8 30  1  0  0  0  0
  9 10  1  0  0  0  0
  9 31  1  0  0  0  0
 10 11  2  0  0  0  0
 10 32  1  0  0  0  0
 11 12  1  0  0  0  0
 11 33  1  0  0  0  0
 12 13  1  0  0  0  0
 13 14  1  0  0  0  0
 14 15  1  0  0  0  0
 14 34  1  0  0  0  0
 14 35  1  0  0  0  0
 15 16  1  0  0  0  0
 15 36  1  0  0  0  0
 15 37  1  0  0  0  0
 16 17  1  0  0  0  0
 17 22  1  0  0  0  0
 17 18  2  0  0  0  0
 18 19  1  0  0  0  0
 18 38  1  0  0  0  0
 19 20  2  0  0  0  0
 19 39  1  0  0  0  0
 20 21  1  0  0  0  0
 20 40  1  0  0  0  0
 21 22  2  0  0  0  0
 21 41  1  0  0  0  0
 22 42  1  0  0  0  0
M  CHG  1   6   1
M  END
> <s_m_source_file>
AV-unprocessed.smi

> <i_m_source_file_index>
1349

> <i_lp_mmshare_version>
43012

> <i_f3d_flags>
0

> <s_epik_input>
W09IXVtDSDJdW0NIMl1bQ0gyXWMobjEpbihjKGMxMilbY0hdW2NIXVtjSF1bY0hdMilbQ0gyXVtDSDJdT2MzW2NIXVtjSF1bY0hdW2NIXVtjSF0z

> <s_epik_cmdline>
J2VwaWtfcHl0aG9uJywgJy1waCcsICc3LjAnLCAnLXRuJywgJzgnLCAnLW1hJywgJzIwMCcsICctbWV0YWxfYmluZGluZycsICctaW1hZScsICc8aW5maWxlLm1hZT4nLCAnLW9tYWUnLCAnPG91dGZpbGUubWFlPic=

> <r_lp_tautomer_probability>
1

> <r_epik_Ionization_Penalty>
0.856072

> <r_epik_Ionization_Penalty_Charging>
0.856072

> <r_epik_Ionization_Penalty_Neutral>
1.64909e-07

> <r_epik_State_Penalty>
0.892118

> <r_epik_Charging_Adjusted_Penalty>
1.74819

> <i_epik_Tot_Q>
1

> <i_epik_Tot_abs_Q>
1

> <r_epik_Metal_State_Penalty>
4.83641

> <b_epik_Metal_Only>
0

> <s_lp_Force_Field>
OPLS_2005

> <r_lp_Energy>
19.1857

> <b_lp_Chiralities_Consistent>
1

> <s_lp_Variant>
AV-unprocessed.smi:1349-2

> <Gold.Version>
5.8.1

> <Gold.Id.Protein>
6NUR|6NUR_protein|mol2

> <Gold.PLP.Fitness>
50.9825

> <Gold.PLP.PLP>
-43.5125

> <Gold.PLP.part.hbond>
-2.0000

> <Gold.PLP.part.metal>
0.0000

> <Gold.PLP.part.buried>
-4.6580

> <Gold.PLP.part.nonpolar>
-36.5074

> <Gold.PLP.part.repulsive>
0.0086

> <Gold.PLP.ligand.clash>
0.0000

> <Gold.PLP.ligand.torsion>
0.8008

> <Gold.PLP.Chemscore.Hbond>
3.0000

> <Gold.PLP.Chemscore.CHOScore>
0.0000

> <Gold.PLP.Chemscore.Metal>
0.0000

> <Gold.Chemscore.Hbonds>
donor molecule, donor type, donor heavy atom, donor atom, acceptor molecule, acceptor atom, score
      L1  H     6    43       P1  7948  1.70
      P1  H 10752 10764       L1     1  0.73

> <Gold.PLP.Chemscore.Internal.Correction>
0.0716

> <Gold.Rescore>
     Score         DG    S(hbond)    S(metal)    S(lipo)     H(rot)  DE(clash)    DE(int)     intcor
     15.15     -16.22       1.62        0.00     100.51       2.51       0.01       1.06       ----

> <Gold.Chemscore.Fitness>
15.1501

> <Gold.Chemscore.DG>
-16.2176

> <Gold.Chemscore.ZeroCoef>
-5.4800

> <Gold.Chemscore.Hbond>
1.6195

> <Gold.Chemscore.Metal>
0.0000

> <Gold.Chemscore.Lipo>
100.5127

> <Gold.Chemscore.Internal_Hbond>
0.0000

> <Gold.Chemscore.DEClash>
0.0117

> <Gold.Chemscore.DEInternal>
1.0558

> <Gold.Chemscore.Rot>
2.5123

> <Gold.Chemscore.Internal.Correction>
   9.000000E+99

> <Gold.Chemscore.Hbonds>
donor molecule, donor type, donor heavy atom, donor atom, acceptor molecule, acceptor atom, score
      L1  H     6    43       P1  7948  0.58
      P1  H 10752 10764       L1     1  0.18

> <Gold.Chemscore.Hbond.Weighted>
-5.4090

> <Gold.Chemscore.Metal.Weighted>
-0.0000

> <Gold.Chemscore.Lipo.Weighted>
-11.7600

> <Gold.Chemscore.Internal_Hbond.Weighted>
0.0000

> <Gold.Chemscore.DEClash.Weighted>
0.0117

> <Gold.Chemscore.DEInternal.Weighted>
1.0558

> <Gold.Chemscore.Rot.Weighted>
6.4314

> <Gold.Chemscore.Internal.Correction.Weighted>
   9.000000E+99

> <Gold.Protein.RotatedTorsions>
[ 6907 6896 6895 6894 ] final  172.03 input  -60.11 | X-H torsion
[ 7974 7965 7964 7962 ] final  162.22 input  175.53 | X-H torsion
[ 8008 7997 7996 7995 ] final -131.28 input   59.86 | X-H torsion
[ 10167 10162 10161 10158 ] final  163.76 input  -65.29 | X-H torsion
[ 10718 10713 10712 10709 ] final  165.96 input   66.30 | X-H torsion
[ 10763 10752 10751 10750 ] final  -50.24 input  -60.55 | X-H torsion
[ 11005 11000 10999 10996 ] final -147.67 input  -57.11 | X-H torsion

> <Gold.Protein.ActiveResidues>
 VAL166  LYS551  ARG553  GLY616  TRP617  ASP618  TYR619  PRO620  LYS621  CYS622 
 ASP623  PHE694  ASN695  SER759  ASP760  ASP761  ALA762  ILE779  LEU786  VAL792 
 PHE793  MET794  SER795  GLU796  ALA797  LYS798  CYS799  TRP800  GLU811  SER814 

> <Gold.Protein.RotatedAtoms>
  151.7908  133.3359  159.3498 H   0  0  0  0  0  0  0  0  0  0  0  0  # atno 6907 bound_to 6896
  150.7392  134.5844  159.5964 H   0  0  0  0  0  0  0  0  0  0  0  0  # atno 6908 bound_to 6896
  152.3211  134.7380  160.0365 H   0  0  0  0  0  0  0  0  0  0  0  0  # atno 6909 bound_to 6896
  144.7647  139.8009  143.6319 H   0  0  0  0  0  0  0  0  0  0  0  0  # atno 7974 bound_to 7965
  155.3097  140.0457  157.3034 H   0  0  0  0  0  0  0  0  0  0  0  0  # atno 8008 bound_to 7997
  154.5440  140.2296  155.8561 H   0  0  0  0  0  0  0  0  0  0  0  0  # atno 8009 bound_to 7997
  156.1907  140.3051  155.9333 H   0  0  0  0  0  0  0  0  0  0  0  0  # atno 8010 bound_to 7997
  139.4878  144.4305  151.9077 H   0  0  0  0  0  0  0  0  0  0  0  0  # atno 10167 bound_to 10162
  157.0727  131.0370  151.2605 H   0  0  0  0  0  0  0  0  0  0  0  0  # atno 10718 bound_to 10713
  154.1071  135.6554  153.4878 H   0  0  0  0  0  0  0  0  0  0  0  0  # atno 10763 bound_to 10752
  153.0269  135.5239  154.7228 H   0  0  0  0  0  0  0  0  0  0  0  0  # atno 10764 bound_to 10752
  154.6398  135.2987  155.0087 H   0  0  0  0  0  0  0  0  0  0  0  0  # atno 10765 bound_to 10752
  140.7692  134.3208  157.5080 H   0  0  0  0  0  0  0  0  0  0  0  0  # atno 11005 bound_to 11000
  146.1744  139.4908  142.9907 LP  0  0  0  0  0  0  0  0  0  0  0  0  # atno 17320 bound_to 7965
  145.6507  141.0263  143.1762 LP  0  0  0  0  0  0  0  0  0  0  0  0  # atno 17321 bound_to 7965
  140.3752  144.2805  150.5915 LP  0  0  0  0  0  0  0  0  0  0  0  0  # atno 17342 bound_to 10162
  140.5283  143.2249  151.8279 LP  0  0  0  0  0  0  0  0  0  0  0  0  # atno 17343 bound_to 10162
  157.4865  130.7796  149.7465 LP  0  0  0  0  0  0  0  0  0  0  0  0  # atno 17370 bound_to 10713
  155.9946  130.3917  150.2853 LP  0  0  0  0  0  0  0  0  0  0  0  0  # atno 17371 bound_to 10713
  139.8758  134.9250  156.3364 LP  0  0  0  0  0  0  0  0  0  0  0  0  # atno 17394 bound_to 11000
  140.9590  133.7401  156.0375 LP  0  0  0  0  0  0  0  0  0  0  0  0  # atno 17395 bound_to 11000

$$$$
