AV-unprocessed.smi:2962|AV-procd|sdf|11316|dock9
  -GOLD-   2272016223D 1   1.00000     0.00000
 Structure written by MMmdl.
 36 37  0  0  0  0  0  0  0  0  1 V2000
  156.2908  139.9773  159.7801 C   0  0  0  0  0  0  0  0  0  0  0  0
  155.0062  139.6855  159.2601 O   0  0  0  0  0  0  0  0  0  0  0  0
  153.9691  139.9488  160.1907 C   0  0  0  0  0  0  0  0  0  0  0  0
  152.6207  139.5117  159.6026 C   0  0  0  0  0  0  0  0  0  0  0  0
  152.0499  140.5297  158.7320 N   0  0  0  0  0  0  0  0  0  0  0  0
  151.3134  140.3610  157.6052 C   0  0  0  0  0  0  0  0  0  0  0  0
  150.8947  138.7688  156.9776 S   0  0  0  0  0  0  0  0  0  0  0  0
  151.4860  138.9860  155.2712 C   0  0  1  0  0  0  0  0  0  0  0  0
  153.0126  139.1813  155.2261 C   0  0  0  0  0  0  0  0  0  0  0  0
  151.0191  137.8283  154.3806 C   0  0  0  0  0  0  0  0  0  0  0  0
  150.2484  138.1453  153.3365 N   0  0  0  0  0  0  0  0  0  0  0  0
  151.3417  136.6662  154.6224 O   0  0  0  0  0  0  0  0  0  0  0  0
  150.9316  141.4804  156.9908 N   0  0  0  0  0  0  0  0  0  0  0  0
  151.4638  142.4676  157.7962 C   0  0  0  0  0  0  0  0  0  0  0  0
  151.4064  143.8752  157.6841 C   0  0  0  0  0  0  0  0  0  0  0  0
  152.0401  144.6937  158.6419 C   0  0  0  0  0  0  0  0  0  0  0  0
  152.7392  144.1180  159.7226 C   0  0  0  0  0  0  0  0  0  0  0  0
  152.8082  142.7176  159.8531 C   0  0  0  0  0  0  0  0  0  0  0  0
  152.1719  141.9054  158.8954 C   0  0  0  0  0  0  0  0  0  0  0  0
  157.0481  139.7635  159.0259 H   0  0  0  0  0  0  0  0  0  0  0  0
  156.5081  139.3678  160.6582 H   0  0  0  0  0  0  0  0  0  0  0  0
  156.3761  141.0297  160.0539 H   0  0  0  0  0  0  0  0  0  0  0  0
  154.1568  139.4105  161.1207 H   0  0  0  0  0  0  0  0  0  0  0  0
  153.9437  141.0133  160.4297 H   0  0  0  0  0  0  0  0  0  0  0  0
  152.7348  138.5772  159.0548 H   0  0  0  0  0  0  0  0  0  0  0  0
  151.9122  139.3079  160.4060 H   0  0  0  0  0  0  0  0  0  0  0  0
  151.0269  139.8919  154.8734 H   0  0  0  0  0  0  0  0  0  0  0  0
  153.3761  139.2434  154.1996 H   0  0  0  0  0  0  0  0  0  0  0  0
  153.5349  138.3587  155.7163 H   0  0  0  0  0  0  0  0  0  0  0  0
  153.3070  140.1037  155.7263 H   0  0  0  0  0  0  0  0  0  0  0  0
  149.9214  137.4223  152.7125 H   0  0  0  0  0  0  0  0  0  0  0  0
  150.0040  139.1108  153.1706 H   0  0  0  0  0  0  0  0  0  0  0  0
  150.8745  144.3254  156.8591 H   0  0  0  0  0  0  0  0  0  0  0  0
  151.9908  145.7686  158.5464 H   0  0  0  0  0  0  0  0  0  0  0  0
  153.2231  144.7522  160.4509 H   0  0  0  0  0  0  0  0  0  0  0  0
  153.3435  142.2731  160.6788 H   0  0  0  0  0  0  0  0  0  0  0  0
  1  2  1  0  0  0  0
  1 20  1  0  0  0  0
  1 21  1  0  0  0  0
  1 22  1  0  0  0  0
  2  3  1  0  0  0  0
  3  4  1  0  0  0  0
  3 23  1  0  0  0  0
  3 24  1  0  0  0  0
  4  5  1  0  0  0  0
  4 25  1  0  0  0  0
  4 26  1  0  0  0  0
  5 19  1  0  0  0  0
  5  6  1  0  0  0  0
  6  7  1  0  0  0  0
  6 13  2  0  0  0  0
  7  8  1  0  0  0  0
  8  9  1  0  0  0  0
  8 10  1  0  0  0  0
  8 27  1  0  0  0  0
  9 28  1  0  0  0  0
  9 29  1  0  0  0  0
  9 30  1  0  0  0  0
 10 11  1  0  0  0  0
 10 12  2  0  0  0  0
 11 31  1  0  0  0  0
 11 32  1  0  0  0  0
 13 14  1  0  0  0  0
 14 19  2  0  0  0  0
 14 15  1  0  0  0  0
 15 16  2  0  0  0  0
 15 33  1  0  0  0  0
 16 17  1  0  0  0  0
 16 34  1  0  0  0  0
 17 18  2  0  0  0  0
 17 35  1  0  0  0  0
 18 19  1  0  0  0  0
 18 36  1  0  0  0  0
M  END
> <s_m_source_file>
AV-unprocessed.smi

> <i_m_source_file_index>
2962

> <i_lp_mmshare_version>
43012

> <i_f3d_flags>
0

> <s_epik_input>
W2NIXTFbY0hdW2NIXVtjSF1jKGMxMiluKFtDSDJdW0NIMl1PW0NIM10pYyhuMilTW0NASF0oW0NIM10pQyg9TylbTkgyXQ==

> <s_epik_cmdline>
J2VwaWtfcHl0aG9uJywgJy1waCcsICc3LjAnLCAnLXRuJywgJzgnLCAnLW1hJywgJzIwMCcsICctbWV0YWxfYmluZGluZycsICctaW1hZScsICc8aW5maWxlLm1hZT4nLCAnLW9tYWUnLCAnPG91dGZpbGUubWFlPic=

> <r_epik_Ionization_Penalty>
0.0199986

> <r_epik_Ionization_Penalty_Charging>
0

> <r_epik_Ionization_Penalty_Neutral>
0.0199986

> <r_epik_State_Penalty>
0.0160044

> <r_epik_Charging_Adjusted_Penalty>
0.0160044

> <i_epik_Tot_Q>
0

> <i_epik_Tot_abs_Q>
0

> <r_epik_Metal_State_Penalty>
0.015472

> <b_epik_Metal_Only>
0

> <s_lp_Force_Field>
OPLS_2005

> <r_lp_Energy>
4.7896

> <b_lp_Chiralities_Consistent>
1

> <s_lp_Variant>
AV-unprocessed.smi:2962-2

> <Gold.Version>
5.8.1

> <Gold.Id.Protein>
6NUR|6NUR_protein|mol2

> <Gold.PLP.Fitness>
49.3450

> <Gold.PLP.PLP>
-40.5508

> <Gold.PLP.part.hbond>
-4.9417

> <Gold.PLP.part.metal>
0.0000

> <Gold.PLP.part.buried>
-1.9416

> <Gold.PLP.part.nonpolar>
-35.2020

> <Gold.PLP.part.repulsive>
0.4981

> <Gold.PLP.ligand.clash>
0.0000

> <Gold.PLP.ligand.torsion>
0.6028

> <Gold.PLP.Chemscore.Hbond>
3.3089

> <Gold.PLP.Chemscore.CHOScore>
0.0000

> <Gold.PLP.Chemscore.Metal>
0.0000

> <Gold.Chemscore.Hbonds>
donor molecule, donor type, donor heavy atom, donor atom, acceptor molecule, acceptor atom, score
      L1  H    11    31       P1  7948  0.80
      L1  H    11    32       P1  7957  0.23
      P1  H  7997  8010       L1     2  1.00
      P1  H 10752 10763       L1    12  1.00

> <Gold.PLP.Chemscore.Internal.Correction>
0.0732

> <Gold.Rescore>
     Score         DG    S(hbond)    S(metal)    S(lipo)     H(rot)  DE(clash)    DE(int)     intcor
     19.00     -20.93       2.70        0.00     109.73       2.50       0.12       1.81       ----

> <Gold.Chemscore.Fitness>
19.0036

> <Gold.Chemscore.DG>
-20.9258

> <Gold.Chemscore.ZeroCoef>
-5.4800

> <Gold.Chemscore.Hbond>
2.6990

> <Gold.Chemscore.Metal>
0.0000

> <Gold.Chemscore.Lipo>
109.7285

> <Gold.Chemscore.Internal_Hbond>
0.0000

> <Gold.Chemscore.DEClash>
0.1155

> <Gold.Chemscore.DEInternal>
1.8067

> <Gold.Chemscore.Rot>
2.5027

> <Gold.Chemscore.Internal.Correction>
   9.000000E+99

> <Gold.Chemscore.Hbonds>
donor molecule, donor type, donor heavy atom, donor atom, acceptor molecule, acceptor atom, score
      L1  H    11    31       P1  7948  0.12
      L1  H    11    32       P1  7957  0.23
      P1  H  7997  8010       L1     2  0.62
      P1  H 10752 10763       L1    12  1.00

> <Gold.Chemscore.Hbond.Weighted>
-9.0146

> <Gold.Chemscore.Metal.Weighted>
-0.0000

> <Gold.Chemscore.Lipo.Weighted>
-12.8382

> <Gold.Chemscore.Internal_Hbond.Weighted>
0.0000

> <Gold.Chemscore.DEClash.Weighted>
0.1155

> <Gold.Chemscore.DEInternal.Weighted>
1.8067

> <Gold.Chemscore.Rot.Weighted>
6.4070

> <Gold.Chemscore.Internal.Correction.Weighted>
   9.000000E+99

> <Gold.Protein.RotatedTorsions>
[ 6907 6896 6895 6894 ] final  -56.36 input  -60.11 | X-H torsion
[ 7974 7965 7964 7962 ] final  114.03 input  175.53 | X-H torsion
[ 8008 7997 7996 7995 ] final    5.71 input   59.86 | X-H torsion
[ 10167 10162 10161 10158 ] final   18.27 input  -65.29 | X-H torsion
[ 10718 10713 10712 10709 ] final  139.48 input   66.30 | X-H torsion
[ 10763 10752 10751 10750 ] final   46.56 input  -60.55 | X-H torsion
[ 11005 11000 10999 10996 ] final  153.31 input  -57.11 | X-H torsion

> <Gold.Protein.ActiveResidues>
 VAL166  LYS551  ARG553  GLY616  TRP617  ASP618  TYR619  PRO620  LYS621  CYS622 
 ASP623  PHE694  ASN695  SER759  ASP760  ASP761  ALA762  ILE779  LEU786  VAL792 
 PHE793  MET794  SER795  GLU796  ALA797  LYS798  CYS799  TRP800  GLU811  SER814 

> <Gold.Protein.RotatedAtoms>
  150.8174  134.7363  159.6741 H   0  0  0  0  0  0  0  0  0  0  0  0  # atno 6907 bound_to 6896
  152.4292  134.5807  159.9957 H   0  0  0  0  0  0  0  0  0  0  0  0  # atno 6908 bound_to 6896
  151.6000  133.3320  159.3081 H   0  0  0  0  0  0  0  0  0  0  0  0  # atno 6909 bound_to 6896
  145.2095  139.2913  143.4276 H   0  0  0  0  0  0  0  0  0  0  0  0  # atno 7974 bound_to 7965
  154.7319  140.2732  155.6449 H   0  0  0  0  0  0  0  0  0  0  0  0  # atno 8008 bound_to 7997
  156.2852  140.2714  156.1946 H   0  0  0  0  0  0  0  0  0  0  0  0  # atno 8009 bound_to 7997
  155.0371  140.0371  157.2485 H   0  0  0  0  0  0  0  0  0  0  0  0  # atno 8010 bound_to 7997
  140.5666  143.9240  150.6681 H   0  0  0  0  0  0  0  0  0  0  0  0  # atno 10167 bound_to 10162
  157.4139  131.1031  151.0425 H   0  0  0  0  0  0  0  0  0  0  0  0  # atno 10718 bound_to 10713
  152.9809  135.6004  154.3619 H   0  0  0  0  0  0  0  0  0  0  0  0  # atno 10763 bound_to 10752
  154.3300  135.2768  155.2478 H   0  0  0  0  0  0  0  0  0  0  0  0  # atno 10764 bound_to 10752
  154.4607  135.5966  153.6309 H   0  0  0  0  0  0  0  0  0  0  0  0  # atno 10765 bound_to 10752
  140.1386  134.8754  157.2301 H   0  0  0  0  0  0  0  0  0  0  0  0  # atno 11005 bound_to 11000
  146.3400  140.2366  142.8594 LP  0  0  0  0  0  0  0  0  0  0  0  0  # atno 17320 bound_to 7965
  144.9869  140.8511  143.5363 LP  0  0  0  0  0  0  0  0  0  0  0  0  # atno 17321 bound_to 7965
  140.2704  143.3460  152.1243 LP  0  0  0  0  0  0  0  0  0  0  0  0  # atno 17342 bound_to 10162
  139.5096  144.6870  151.5862 LP  0  0  0  0  0  0  0  0  0  0  0  0  # atno 17343 bound_to 10162
  157.1379  130.6130  149.5547 LP  0  0  0  0  0  0  0  0  0  0  0  0  # atno 17370 bound_to 10713
  155.9859  130.4891  150.7054 LP  0  0  0  0  0  0  0  0  0  0  0  0  # atno 17371 bound_to 10713
  140.2750  134.3416  155.7361 LP  0  0  0  0  0  0  0  0  0  0  0  0  # atno 17394 bound_to 11000
  141.2182  133.7445  156.9280 LP  0  0  0  0  0  0  0  0  0  0  0  0  # atno 17395 bound_to 11000

$$$$
