AV-unprocessed.smi:2698|AV-procd|sdf|10420|dock2
  -GOLD-   2272014453D 1   1.00000     0.00000
 Structure written by MMmdl.
 33 33  0  0  0  0  0  0  0  0  2 V2000
  151.6508  145.3004  159.4603 C   0  0  0  0  0  0  0  0  0  0  0  0
  151.6848  143.7752  159.2814 C   0  0  0  0  0  0  0  0  0  0  0  0
  153.0799  143.2264  159.6337 C   0  0  0  0  0  0  0  0  0  0  0  0
  151.2137  143.3849  157.8609 C   0  0  0  0  0  0  0  0  0  0  0  0
  151.2585  141.8775  157.5940 C   0  0  0  0  0  0  0  0  0  0  0  0
  151.7033  141.1115  158.4491 O   0  0  0  0  0  0  0  0  0  0  0  0
  150.7988  141.4717  156.3993 N   0  0  0  0  0  0  0  0  0  0  0  0
  150.7202  140.0901  155.9241 C   0  0  1  0  0  0  0  0  0  0  0  0
  149.9094  139.9781  154.6126 C   0  0  0  0  0  0  0  0  0  0  0  0
  148.6281  140.7761  154.5614 C   0  0  0  0  0  0  0  0  0  0  0  0
  147.9004  141.4008  155.5506 C   0  0  0  0  0  0  0  0  0  0  0  0
  146.7931  142.0445  154.9916 N   0  0  0  0  0  0  0  0  0  0  0  0
  146.8952  141.7933  153.6917 C   0  0  0  0  0  0  0  0  0  0  0  0
  147.9592  141.0492  153.3798 N   0  0  0  0  0  0  0  0  0  0  0  0
  152.1294  139.4984  155.8085 C   0  0  0  0  0  0  0  0  0  0  0  0
  152.7704  139.3291  156.8701 O   0  0  0  0  0  0  0  0  0  0  0  0
  152.5461  139.2283  154.6606 O   0  5  0  0  0  0  0  0  0  0  0  0
  148.2320  140.7484  152.4550 H   0  0  0  0  0  0  0  0  0  0  0  0
  152.3407  145.7949  158.7758 H   0  0  0  0  0  0  0  0  0  0  0  0
  151.9280  145.5841  160.4760 H   0  0  0  0  0  0  0  0  0  0  0  0
  150.6528  145.6973  159.2719 H   0  0  0  0  0  0  0  0  0  0  0  0
  150.9772  143.3559  159.9983 H   0  0  0  0  0  0  0  0  0  0  0  0
  153.8305  143.5670  158.9197 H   0  0  0  0  0  0  0  0  0  0  0  0
  153.0983  142.1370  159.6429 H   0  0  0  0  0  0  0  0  0  0  0  0
  153.3914  143.5570  160.6248 H   0  0  0  0  0  0  0  0  0  0  0  0
  150.1923  143.7344  157.7014 H   0  0  0  0  0  0  0  0  0  0  0  0
  151.8241  143.8910  157.1119 H   0  0  0  0  0  0  0  0  0  0  0  0
  150.4743  142.1773  155.7538 H   0  0  0  0  0  0  0  0  0  0  0  0
  150.1996  139.4949  156.6773 H   0  0  0  0  0  0  0  0  0  0  0  0
  150.5266  140.2714  153.7621 H   0  0  0  0  0  0  0  0  0  0  0  0
  149.6488  138.9320  154.4466 H   0  0  0  0  0  0  0  0  0  0  0  0
  148.0922  141.4430  156.6127 H   0  0  0  0  0  0  0  0  0  0  0  0
  146.1904  142.1573  152.9588 H   0  0  0  0  0  0  0  0  0  0  0  0
  1  2  1  0  0  0  0
  1 19  1  0  0  0  0
  1 20  1  0  0  0  0
  1 21  1  0  0  0  0
  2  3  1  0  0  0  0
  2  4  1  0  0  0  0
  2 22  1  0  0  0  0
  3 23  1  0  0  0  0
  3 24  1  0  0  0  0
  3 25  1  0  0  0  0
  4  5  1  0  0  0  0
  4 26  1  0  0  0  0
  4 27  1  0  0  0  0
  5  6  2  0  0  0  0
  5  7  1  0  0  0  0
  7  8  1  0  0  0  0
  7 28  1  0  0  0  0
  8  9  1  0  0  0  0
  8 15  1  0  0  0  0
  8 29  1  0  0  0  0
  9 30  1  0  0  0  0
  9 31  1  0  0  0  0
  9 10  1  0  0  0  0
 10 11  2  0  0  0  0
 10 14  1  0  0  0  0
 11 32  1  0  0  0  0
 11 12  1  0  0  0  0
 12 13  2  0  0  0  0
 13 14  1  0  0  0  0
 13 33  1  0  0  0  0
 14 18  1  0  0  0  0
 15 16  2  0  0  0  0
 15 17  1  0  0  0  0
M  CHG  1  17  -1
M  END
> <s_m_source_file>
AV-unprocessed.smi

> <i_m_source_file_index>
2698

> <i_lp_mmshare_version>
43012

> <i_f3d_flags>
0

> <s_epik_input>
W0NIM11bQ0hdKFtDSDNdKVtDSDJdQyg9TylbTkhdW0NAQEhdKEMoPU8pW09IXSlbQ0gyXWMxW2NIXVtuSF1bY0hdbjE=

> <s_epik_cmdline>
J2VwaWtfcHl0aG9uJywgJy1waCcsICc3LjAnLCAnLXRuJywgJzgnLCAnLW1hJywgJzIwMCcsICctbWV0YWxfYmluZGluZycsICctaW1hZScsICc8aW5maWxlLm1hZT4nLCAnLW9tYWUnLCAnPG91dGZpbGUubWFlPic=

> <r_lp_tautomer_probability>
0.5

> <r_epik_Ionization_Penalty>
0.536153

> <r_epik_Ionization_Penalty_Charging>
0.536153

> <r_epik_Ionization_Penalty_Neutral>
4.95393e-08

> <r_epik_State_Penalty>
0.778213

> <r_epik_Charging_Adjusted_Penalty>
1.31437

> <i_epik_Tot_Q>
-1

> <i_epik_Tot_abs_Q>
1

> <r_epik_Metal_State_Penalty>
0.658344

> <b_epik_Metal_Only>
0

> <s_lp_Force_Field>
OPLS_2005

> <r_lp_Energy>
2.9569

> <b_lp_Chiralities_Consistent>
1

> <s_lp_Variant>
AV-unprocessed.smi:2698-4

> <Gold.Version>
5.8.1

> <Gold.Id.Protein>
6NUR|6NUR_protein|mol2

> <Gold.PLP.Fitness>
45.5158

> <Gold.PLP.PLP>
-36.1483

> <Gold.PLP.part.hbond>
-3.0000

> <Gold.PLP.part.metal>
0.0000

> <Gold.PLP.part.buried>
-4.0508

> <Gold.PLP.part.nonpolar>
-29.9002

> <Gold.PLP.part.repulsive>
0.4727

> <Gold.PLP.ligand.clash>
0.0000

> <Gold.PLP.ligand.torsion>
0.5441

> <Gold.PLP.Chemscore.Hbond>
3.4036

> <Gold.PLP.Chemscore.CHOScore>
0.0000

> <Gold.PLP.Chemscore.Metal>
0.0000

> <Gold.Chemscore.Hbonds>
donor molecule, donor type, donor heavy atom, donor atom, acceptor molecule, acceptor atom, score
      L1  H    14    18       P1  7957  1.00
      P1  H  7989  7998       L1    17  0.41
      P1  H  7997  8010       L1    16  1.80

> <Gold.PLP.Chemscore.Internal.Correction>
0.2449

> <Gold.Rescore>
     Score         DG    S(hbond)    S(metal)    S(lipo)     H(rot)  DE(clash)    DE(int)     intcor
     10.83     -11.90       1.86        0.00      67.60       3.01       0.03       1.04       ----

> <Gold.Chemscore.Fitness>
10.8344

> <Gold.Chemscore.DG>
-11.8961

> <Gold.Chemscore.ZeroCoef>
-5.4800

> <Gold.Chemscore.Hbond>
1.8636

> <Gold.Chemscore.Metal>
0.0000

> <Gold.Chemscore.Lipo>
67.5952

> <Gold.Chemscore.Internal_Hbond>
0.0000

> <Gold.Chemscore.DEClash>
0.0262

> <Gold.Chemscore.DEInternal>
1.0354

> <Gold.Chemscore.Rot>
3.0145

> <Gold.Chemscore.Internal.Correction>
   9.000000E+99

> <Gold.Chemscore.Hbonds>
donor molecule, donor type, donor heavy atom, donor atom, acceptor molecule, acceptor atom, score
      L1  H    14    18       P1  7957  0.92
      P1  H  7989  7998       L1    17  0.14
      P1  H  7997  8010       L1    16  0.18

> <Gold.Chemscore.Hbond.Weighted>
-6.2245

> <Gold.Chemscore.Metal.Weighted>
-0.0000

> <Gold.Chemscore.Lipo.Weighted>
-7.9086

> <Gold.Chemscore.Internal_Hbond.Weighted>
0.0000

> <Gold.Chemscore.DEClash.Weighted>
0.0262

> <Gold.Chemscore.DEInternal.Weighted>
1.0354

> <Gold.Chemscore.Rot.Weighted>
7.7171

> <Gold.Chemscore.Internal.Correction.Weighted>
   9.000000E+99

> <Gold.Protein.RotatedTorsions>
[ 6907 6896 6895 6894 ] final -158.07 input  -60.11 | X-H torsion
[ 7974 7965 7964 7962 ] final -107.52 input  175.53 | X-H torsion
[ 8008 7997 7996 7995 ] final   78.81 input   59.86 | X-H torsion
[ 10167 10162 10161 10158 ] final -119.64 input  -65.29 | X-H torsion
[ 10718 10713 10712 10709 ] final  171.76 input   66.30 | X-H torsion
[ 10763 10752 10751 10750 ] final   28.38 input  -60.55 | X-H torsion
[ 11005 11000 10999 10996 ] final -137.41 input  -57.11 | X-H torsion

> <Gold.Protein.ActiveResidues>
 VAL166  LYS551  ARG553  GLY616  TRP617  ASP618  TYR619  PRO620  LYS621  CYS622 
 ASP623  PHE694  ASN695  SER759  ASP760  ASP761  ALA762  ILE779  LEU786  VAL792 
 PHE793  MET794  SER795  GLU796  ALA797  LYS798  CYS799  TRP800  GLU811  SER814 

> <Gold.Protein.RotatedAtoms>
  151.3125  133.4074  159.2647 H   0  0  0  0  0  0  0  0  0  0  0  0  # atno 6907 bound_to 6896
  151.0102  134.9391  159.8013 H   0  0  0  0  0  0  0  0  0  0  0  0  # atno 6908 bound_to 6896
  152.5299  134.3089  159.9159 H   0  0  0  0  0  0  0  0  0  0  0  0  # atno 6909 bound_to 6896
  145.2043  140.9070  143.3351 H   0  0  0  0  0  0  0  0  0  0  0  0  # atno 7974 bound_to 7965
  155.8610  140.3453  155.5756 H   0  0  0  0  0  0  0  0  0  0  0  0  # atno 8008 bound_to 7997
  155.7934  140.0875  157.2016 H   0  0  0  0  0  0  0  0  0  0  0  0  # atno 8009 bound_to 7997
  154.4012  140.1479  156.3176 H   0  0  0  0  0  0  0  0  0  0  0  0  # atno 8010 bound_to 7997
  140.0445  143.5120  152.2113 H   0  0  0  0  0  0  0  0  0  0  0  0  # atno 10167 bound_to 10162
  156.9888  131.0141  151.2862 H   0  0  0  0  0  0  0  0  0  0  0  0  # atno 10718 bound_to 10713
  153.0495  135.6514  154.0729 H   0  0  0  0  0  0  0  0  0  0  0  0  # atno 10763 bound_to 10752
  154.0420  135.2902  155.3355 H   0  0  0  0  0  0  0  0  0  0  0  0  # atno 10764 bound_to 10752
  154.6775  135.5333  153.8285 H   0  0  0  0  0  0  0  0  0  0  0  0  # atno 10765 bound_to 10752
  140.8714  134.2046  157.4649 H   0  0  0  0  0  0  0  0  0  0  0  0  # atno 11005 bound_to 11000
  144.9917  139.3683  143.6211 LP  0  0  0  0  0  0  0  0  0  0  0  0  # atno 17320 bound_to 7965
  146.3411  139.9102  142.8781 LP  0  0  0  0  0  0  0  0  0  0  0  0  # atno 17321 bound_to 7965
  139.5992  144.7577  151.3212 LP  0  0  0  0  0  0  0  0  0  0  0  0  # atno 17342 bound_to 10162
  140.7245  143.7043  150.7820 LP  0  0  0  0  0  0  0  0  0  0  0  0  # atno 17343 bound_to 10162
  157.5474  130.8159  149.8102 LP  0  0  0  0  0  0  0  0  0  0  0  0  # atno 17370 bound_to 10713
  156.0215  130.3794  150.1947 LP  0  0  0  0  0  0  0  0  0  0  0  0  # atno 17371 bound_to 10713
  139.8712  134.9776  156.4964 LP  0  0  0  0  0  0  0  0  0  0  0  0  # atno 17394 bound_to 11000
  140.8569  133.8089  155.9225 LP  0  0  0  0  0  0  0  0  0  0  0  0  # atno 17395 bound_to 11000

$$$$
