AV-unprocessed.smi:678|AV-procd|sdf|3313|dock3
  -GOLD-   22720 0273D 1   1.00000     0.00000
 Structure written by MMmdl.
 51 52  0  0  0  0  0  0  0  0  2 V2000
  153.7176  141.0979  160.4018 C   0  0  0  0  0  0  0  0  0  0  0  0
  153.0224  142.1077  159.5054 C   0  0  0  0  0  0  0  0  0  0  0  0
  152.9786  143.4200  159.8225 C   0  0  0  0  0  0  0  0  0  0  0  0
  152.3140  144.3722  158.9662 C   0  0  0  0  0  0  0  0  0  0  0  0
  151.7410  143.9210  157.8413 C   0  0  0  0  0  0  0  0  0  0  0  0
  151.7750  142.5597  157.4860 N   0  0  0  0  0  0  0  0  0  0  0  0
  151.1090  142.1779  156.2289 C   0  0  0  0  0  0  0  0  0  0  0  0
  149.9237  141.2289  156.4504 C   0  0  0  0  0  0  0  0  0  0  0  0
  150.0988  140.1137  156.9430 O   0  0  0  0  0  0  0  0  0  0  0  0
  148.7191  141.6903  156.0824 N   0  0  0  0  0  0  0  0  0  0  0  0
  147.4768  140.9275  156.1357 C   0  0  0  0  0  0  0  0  0  0  0  0
  146.9637  140.5920  154.7233 C   0  0  2  0  0  0  0  0  0  0  0  0
  146.3602  139.1758  154.6502 C   0  0  0  0  0  0  0  0  0  0  0  0
  145.9231  138.8654  153.2659 N   0  3  2  0  0  0  0  0  0  0  0  0
  145.2833  137.5319  153.1258 C   0  0  0  0  0  0  0  0  0  0  0  0
  144.6494  137.3030  151.7363 C   0  0  0  0  0  0  0  0  0  0  0  0
  143.5478  136.2356  151.8155 C   0  0  0  0  0  0  0  0  0  0  0  0
  145.6994  136.9125  150.6827 C   0  0  0  0  0  0  0  0  0  0  0  0
  147.0443  139.0557  152.3154 C   0  0  0  0  0  0  0  0  0  0  0  0
  147.6405  140.4649  152.4613 C   0  0  0  0  0  0  0  0  0  0  0  0
  148.0515  140.6635  153.8066 O   0  0  0  0  0  0  0  0  0  0  0  0
  152.3894  141.6169  158.2672 C   0  0  0  0  0  0  0  0  0  0  0  0
  152.4048  140.4263  157.9459 O   0  0  0  0  0  0  0  0  0  0  0  0
  154.1428  141.5760  161.2849 H   0  0  0  0  0  0  0  0  0  0  0  0
  154.5273  140.6040  159.8637 H   0  0  0  0  0  0  0  0  0  0  0  0
  153.0128  140.3368  160.7378 H   0  0  0  0  0  0  0  0  0  0  0  0
  153.4450  143.7700  160.7318 H   0  0  0  0  0  0  0  0  0  0  0  0
  152.2759  145.4196  159.2264 H   0  0  0  0  0  0  0  0  0  0  0  0
  151.2185  144.5669  157.1509 H   0  0  0  0  0  0  0  0  0  0  0  0
  150.7430  143.0568  155.6970 H   0  0  0  0  0  0  0  0  0  0  0  0
  151.8338  141.7163  155.5553 H   0  0  0  0  0  0  0  0  0  0  0  0
  148.6661  142.6239  155.7008 H   0  0  0  0  0  0  0  0  0  0  0  0
  147.5997  140.0204  156.7299 H   0  0  0  0  0  0  0  0  0  0  0  0
  146.7411  141.5399  156.6578 H   0  0  0  0  0  0  0  0  0  0  0  0
  146.2035  141.3240  154.4429 H   0  0  0  0  0  0  0  0  0  0  0  0
  147.0950  138.4376  154.9757 H   0  0  0  0  0  0  0  0  0  0  0  0
  145.5172  139.1105  155.3368 H   0  0  0  0  0  0  0  0  0  0  0  0
  146.0303  136.7540  153.2920 H   0  0  0  0  0  0  0  0  0  0  0  0
  144.5384  137.4088  153.9136 H   0  0  0  0  0  0  0  0  0  0  0  0
  144.1679  138.2227  151.4060 H   0  0  0  0  0  0  0  0  0  0  0  0
  143.9513  135.2686  152.1177 H   0  0  0  0  0  0  0  0  0  0  0  0
  143.0579  136.1040  150.8501 H   0  0  0  0  0  0  0  0  0  0  0  0
  142.7785  136.5154  152.5360 H   0  0  0  0  0  0  0  0  0  0  0  0
  146.2207  135.9963  150.9623 H   0  0  0  0  0  0  0  0  0  0  0  0
  146.4471  137.6954  150.5538 H   0  0  0  0  0  0  0  0  0  0  0  0
  145.2355  136.7455  149.7102 H   0  0  0  0  0  0  0  0  0  0  0  0
  147.8135  138.3042  152.5014 H   0  0  0  0  0  0  0  0  0  0  0  0
  146.6938  138.9113  151.2929 H   0  0  0  0  0  0  0  0  0  0  0  0
  148.5055  140.5774  151.8075 H   0  0  0  0  0  0  0  0  0  0  0  0
  146.9187  141.2298  152.1698 H   0  0  0  0  0  0  0  0  0  0  0  0
  145.2227  139.5488  153.0150 H   0  0  0  0  0  0  0  0  0  0  0  0
  1  2  1  0  0  0  0
  1 24  1  0  0  0  0
  1 25  1  0  0  0  0
  1 26  1  0  0  0  0
  2 22  1  0  0  0  0
  2  3  2  0  0  0  0
  3  4  1  0  0  0  0
  3 27  1  0  0  0  0
  4  5  2  0  0  0  0
  4 28  1  0  0  0  0
  5  6  1  0  0  0  0
  5 29  1  0  0  0  0
  6  7  1  0  0  0  0
  6 22  1  0  0  0  0
  7  8  1  0  0  0  0
  7 30  1  0  0  0  0
  7 31  1  0  0  0  0
  8  9  2  0  0  0  0
  8 10  1  0  0  0  0
 10 11  1  0  0  0  0
 10 32  1  0  0  0  0
 11 12  1  0  0  0  0
 11 33  1  0  0  0  0
 11 34  1  0  0  0  0
 12 21  1  0  0  0  0
 12 13  1  0  0  0  0
 12 35  1  0  0  0  0
 13 14  1  0  0  0  0
 13 36  1  0  0  0  0
 13 37  1  0  0  0  0
 14 15  1  0  0  0  0
 14 19  1  0  0  0  0
 14 51  1  0  0  0  0
 15 16  1  0  0  0  0
 15 38  1  0  0  0  0
 15 39  1  0  0  0  0
 16 17  1  0  0  0  0
 16 18  1  0  0  0  0
 16 40  1  0  0  0  0
 17 41  1  0  0  0  0
 17 42  1  0  0  0  0
 17 43  1  0  0  0  0
 18 44  1  0  0  0  0
 18 45  1  0  0  0  0
 18 46  1  0  0  0  0
 19 20  1  0  0  0  0
 19 47  1  0  0  0  0
 19 48  1  0  0  0  0
 20 21  1  0  0  0  0
 20 49  1  0  0  0  0
 20 50  1  0  0  0  0
 22 23  2  0  0  0  0
M  CHG  1  14   1
M  END
> <s_m_source_file>
AV-unprocessed.smi

> <i_m_source_file_index>
678

> <i_lp_mmshare_version>
43012

> <i_f3d_flags>
0

> <s_epik_input>
W0NIM11jMVtjSF1bY0hdW2NIXW4oYzE9TylbQ0gyXUMoPU8pW05IXVtDSDJdW0NAQEhdMltDSDJdTihbQ0gyXVtDSDJdTzIpW0NIMl1bQ0hdKFtDSDNdKVtDSDNd

> <s_epik_cmdline>
J2VwaWtfcHl0aG9uJywgJy1waCcsICc3LjAnLCAnLXRuJywgJzgnLCAnLW1hJywgJzIwMCcsICctbWV0YWxfYmluZGluZycsICctaW1hZScsICc8aW5maWxlLm1hZT4nLCAnLW9tYWUnLCAnPG91dGZpbGUubWFlPic=

> <r_lp_tautomer_probability>
1

> <r_epik_Ionization_Penalty>
0.0975937

> <r_epik_Ionization_Penalty_Charging>
0.0975937

> <r_epik_Ionization_Penalty_Neutral>
6.27044e-08

> <r_epik_State_Penalty>
0.0877056

> <r_epik_Charging_Adjusted_Penalty>
0.185299

> <i_epik_Tot_Q>
1

> <i_epik_Tot_abs_Q>
1

> <r_epik_Metal_State_Penalty>
0.0877109

> <b_epik_Metal_Only>
0

> <s_lp_Force_Field>
OPLS_2005

> <r_lp_Energy>
27.0363

> <b_lp_Chiralities_Consistent>
1

> <s_lp_Variant>
AV-unprocessed.smi:678-1

> <Gold.Version>
5.8.1

> <Gold.Id.Protein>
6NUR|6NUR_protein|mol2

> <Gold.PLP.Fitness>
53.1869

> <Gold.PLP.PLP>
-43.0661

> <Gold.PLP.part.hbond>
-2.0000

> <Gold.PLP.part.metal>
0.0000

> <Gold.PLP.part.buried>
-2.2560

> <Gold.PLP.part.nonpolar>
-39.2655

> <Gold.PLP.part.repulsive>
0.1705

> <Gold.PLP.ligand.clash>
0.0000

> <Gold.PLP.ligand.torsion>
0.8312

> <Gold.PLP.Chemscore.Hbond>
2.8800

> <Gold.PLP.Chemscore.CHOScore>
1.0000

> <Gold.PLP.Chemscore.Metal>
0.0000

> <Gold.Chemscore.Hbonds>
donor molecule, donor type, donor heavy atom, donor atom, acceptor molecule, acceptor atom, score
      L1  H    10    32       P1  8028  0.83
      L1  H    14    51       P1 10175  2.00
      P1  H  7997  8008       L1    23  0.14
      L1  C     5    29       P1  8028  0.49

> <Gold.PLP.Chemscore.Internal.Correction>
0.1433

> <Gold.Rescore>
     Score         DG    S(hbond)    S(metal)    S(lipo)     H(rot)  DE(clash)    DE(int)     intcor
     18.84     -21.62       2.72        0.00     101.56       1.89       1.35       1.43       ----

> <Gold.Chemscore.Fitness>
18.8401

> <Gold.Chemscore.DG>
-21.6200

> <Gold.Chemscore.ZeroCoef>
-5.4800

> <Gold.Chemscore.Hbond>
2.7210

> <Gold.Chemscore.Metal>
0.0000

> <Gold.Chemscore.Lipo>
101.5636

> <Gold.Chemscore.Internal_Hbond>
0.0000

> <Gold.Chemscore.DEClash>
1.3514

> <Gold.Chemscore.DEInternal>
1.4285

> <Gold.Chemscore.Rot>
1.8871

> <Gold.Chemscore.Internal.Correction>
   9.000000E+99

> <Gold.Chemscore.Hbonds>
donor molecule, donor type, donor heavy atom, donor atom, acceptor molecule, acceptor atom, score
      L1  H    10    32       P1  8028  0.80
      L1  H    14    51       P1 10175  1.00
      P1  H  7997  8008       L1    23  0.08

> <Gold.Chemscore.Hbond.Weighted>
-9.0880

> <Gold.Chemscore.Metal.Weighted>
-0.0000

> <Gold.Chemscore.Lipo.Weighted>
-11.8829

> <Gold.Chemscore.Internal_Hbond.Weighted>
0.0000

> <Gold.Chemscore.DEClash.Weighted>
1.3514

> <Gold.Chemscore.DEInternal.Weighted>
1.4285

> <Gold.Chemscore.Rot.Weighted>
4.8309

> <Gold.Chemscore.Internal.Correction.Weighted>
   9.000000E+99

> <Gold.Protein.RotatedTorsions>
[ 6907 6896 6895 6894 ] final  -32.37 input  -60.11 | X-H torsion
[ 7974 7965 7964 7962 ] final   75.77 input  175.53 | X-H torsion
[ 8008 7997 7996 7995 ] final  -78.28 input   59.86 | X-H torsion
[ 10167 10162 10161 10158 ] final -179.33 input  -65.29 | X-H torsion
[ 10718 10713 10712 10709 ] final  -85.66 input   66.30 | X-H torsion
[ 10763 10752 10751 10750 ] final -172.06 input  -60.55 | X-H torsion
[ 11005 11000 10999 10996 ] final   68.87 input  -57.11 | X-H torsion

> <Gold.Protein.ActiveResidues>
 VAL166  LYS551  ARG553  GLY616  TRP617  ASP618  TYR619  PRO620  LYS621  CYS622 
 ASP623  PHE694  ASN695  SER759  ASP760  ASP761  ALA762  ILE779  LEU786  VAL792 
 PHE793  MET794  SER795  GLU796  ALA797  LYS798  CYS799  TRP800  GLU811  SER814 

> <Gold.Protein.RotatedAtoms>
  151.0797  134.9850  159.8349 H   0  0  0  0  0  0  0  0  0  0  0  0  # atno 6907 bound_to 6896
  152.5418  134.2197  159.8793 H   0  0  0  0  0  0  0  0  0  0  0  0  # atno 6908 bound_to 6896
  151.2226  133.4450  159.2634 H   0  0  0  0  0  0  0  0  0  0  0  0  # atno 6909 bound_to 6896
  145.7113  139.2616  143.1649 H   0  0  0  0  0  0  0  0  0  0  0  0  # atno 7974 bound_to 7965
  154.5674  140.0697  156.8913 H   0  0  0  0  0  0  0  0  0  0  0  0  # atno 8008 bound_to 7997
  155.2697  140.3364  155.4248 H   0  0  0  0  0  0  0  0  0  0  0  0  # atno 8009 bound_to 7997
  156.2092  140.1752  156.7719 H   0  0  0  0  0  0  0  0  0  0  0  0  # atno 8010 bound_to 7997
  139.5391  144.2414  152.0857 H   0  0  0  0  0  0  0  0  0  0  0  0  # atno 10167 bound_to 10162
  155.9995  130.4738  150.4596 H   0  0  0  0  0  0  0  0  0  0  0  0  # atno 10718 bound_to 10713
  154.6235  135.2878  155.0299 H   0  0  0  0  0  0  0  0  0  0  0  0  # atno 10763 bound_to 10752
  154.1485  135.6507  153.4962 H   0  0  0  0  0  0  0  0  0  0  0  0  # atno 10764 bound_to 10752
  153.0247  135.5350  154.7034 H   0  0  0  0  0  0  0  0  0  0  0  0  # atno 10765 bound_to 10752
  139.9686  134.6938  156.0493 H   0  0  0  0  0  0  0  0  0  0  0  0  # atno 11005 bound_to 11000
  146.0710  140.7869  142.9688 LP  0  0  0  0  0  0  0  0  0  0  0  0  # atno 17320 bound_to 7965
  144.6941  140.3341  143.7211 LP  0  0  0  0  0  0  0  0  0  0  0  0  # atno 17321 bound_to 7965
  140.1889  144.4771  150.6489 LP  0  0  0  0  0  0  0  0  0  0  0  0  # atno 17342 bound_to 10162
  140.6612  143.2253  151.5851 LP  0  0  0  0  0  0  0  0  0  0  0  0  # atno 17343 bound_to 10162
  157.2622  131.0569  151.2313 LP  0  0  0  0  0  0  0  0  0  0  0  0  # atno 17370 bound_to 10713
  157.3424  130.7040  149.6389 LP  0  0  0  0  0  0  0  0  0  0  0  0  # atno 17371 bound_to 10713
  141.1366  133.6574  156.3611 LP  0  0  0  0  0  0  0  0  0  0  0  0  # atno 17394 bound_to 11000
  140.5342  134.6183  157.5359 LP  0  0  0  0  0  0  0  0  0  0  0  0  # atno 17395 bound_to 11000

$$$$
