AV-unprocessed.smi:2363|AV-procd|sdf|9416|dock9
  -GOLD-   2272013 53D 1   1.00000     0.00000
 Structure written by MMmdl.
 44 45  0  0  0  0  0  0  0  0  1 V2000
  152.1881  139.0740  156.1647 C   0  0  0  0  0  0  0  0  0  0  0  0
  152.2542  138.5606  154.7191 C   0  0  0  0  0  0  0  0  0  0  0  0
  150.8846  138.1965  154.1187 C   0  0  0  0  0  0  0  0  0  0  0  0
  149.9120  139.2705  154.2438 N   0  0  0  0  0  0  0  0  0  0  0  0
  150.3048  140.4756  154.7122 N   0  0  0  0  0  0  0  0  0  0  0  0
  149.2089  141.2232  154.7027 C   0  0  0  0  0  0  0  0  0  0  0  0
  148.0626  140.5268  154.2248 C   0  0  0  0  0  0  0  0  0  0  0  0
  148.5659  139.2862  153.9420 C   0  0  0  0  0  0  0  0  0  0  0  0
  147.9202  138.1971  153.4465 N   0  0  0  0  0  0  0  0  0  0  0  0
  146.6388  137.8297  153.6168 C   0  0  0  0  0  0  0  0  0  0  0  0
  145.8047  138.4426  154.2831 O   0  0  0  0  0  0  0  0  0  0  0  0
  146.3744  136.6896  152.9609 N   0  0  0  0  0  0  0  0  0  0  0  0
  145.0832  136.0017  152.9178 C   0  0  1  0  0  0  0  0  0  0  0  0
  143.9912  137.0596  152.6843 C   0  0  0  0  0  0  0  0  0  0  0  0
  145.0936  134.8819  151.8426 C   0  0  0  0  0  0  0  0  0  0  0  0
  143.7784  134.0764  151.8183 C   0  0  0  0  0  0  0  0  0  0  0  0
  143.8437  132.9242  150.8026 C   0  0  0  0  0  0  0  0  0  0  0  0
  144.9457  132.0752  151.0971 O   0  0  0  0  0  0  0  0  0  0  0  0
  146.1946  132.7475  150.9993 C   0  0  0  0  0  0  0  0  0  0  0  0
  146.2602  133.8872  152.0283 C   0  0  0  0  0  0  0  0  0  0  0  0
  153.1769  139.3703  156.5150 H   0  0  0  0  0  0  0  0  0  0  0  0
  151.8160  138.3084  156.8458 H   0  0  0  0  0  0  0  0  0  0  0  0
  151.5333  139.9420  156.2437 H   0  0  0  0  0  0  0  0  0  0  0  0
  152.7228  139.3205  154.0932 H   0  0  0  0  0  0  0  0  0  0  0  0
  152.9104  137.6903  154.6788 H   0  0  0  0  0  0  0  0  0  0  0  0
  150.9928  137.9378  153.0649 H   0  0  0  0  0  0  0  0  0  0  0  0
  150.4862  137.3087  154.6120 H   0  0  0  0  0  0  0  0  0  0  0  0
  149.2772  142.2459  155.0427 H   0  0  0  0  0  0  0  0  0  0  0  0
  147.0534  140.8943  154.1157 H   0  0  0  0  0  0  0  0  0  0  0  0
  148.4791  137.5986  152.8565 H   0  0  0  0  0  0  0  0  0  0  0  0
  147.1274  136.2603  152.4436 H   0  0  0  0  0  0  0  0  0  0  0  0
  144.8817  135.5388  153.8854 H   0  0  0  0  0  0  0  0  0  0  0  0
  142.9915  136.6380  152.7837 H   0  0  0  0  0  0  0  0  0  0  0  0
  144.0717  137.5029  151.6912 H   0  0  0  0  0  0  0  0  0  0  0  0
  144.0668  137.8662  153.4146 H   0  0  0  0  0  0  0  0  0  0  0  0
  145.2144  135.3533  150.8658 H   0  0  0  0  0  0  0  0  0  0  0  0
  143.5748  133.6712  152.8105 H   0  0  0  0  0  0  0  0  0  0  0  0
  142.9360  134.7186  151.5636 H   0  0  0  0  0  0  0  0  0  0  0  0
  142.9267  132.3362  150.8459 H   0  0  0  0  0  0  0  0  0  0  0  0
  143.9272  133.3067  149.7841 H   0  0  0  0  0  0  0  0  0  0  0  0
  146.9947  132.0305  151.1842 H   0  0  0  0  0  0  0  0  0  0  0  0
  146.3376  133.1287  149.9871 H   0  0  0  0  0  0  0  0  0  0  0  0
  147.2209  134.3930  151.9302 H   0  0  0  0  0  0  0  0  0  0  0  0
  146.2312  133.4683  153.0351 H   0  0  0  0  0  0  0  0  0  0  0  0
  1  2  1  0  0  0  0
  1 21  1  0  0  0  0
  1 22  1  0  0  0  0
  1 23  1  0  0  0  0
  2  3  1  0  0  0  0
  2 24  1  0  0  0  0
  2 25  1  0  0  0  0
  3  4  1  0  0  0  0
  3 26  1  0  0  0  0
  3 27  1  0  0  0  0
  4  8  1  0  0  0  0
  4  5  1  0  0  0  0
  5  6  2  0  0  0  0
  6  7  1  0  0  0  0
  6 28  1  0  0  0  0
  7  8  2  0  0  0  0
  7 29  1  0  0  0  0
  8  9  1  0  0  0  0
  9 10  1  0  0  0  0
  9 30  1  0  0  0  0
 10 11  2  0  0  0  0
 10 12  1  0  0  0  0
 12 13  1  0  0  0  0
 12 31  1  0  0  0  0
 13 14  1  0  0  0  0
 13 15  1  0  0  0  0
 13 32  1  0  0  0  0
 14 33  1  0  0  0  0
 14 34  1  0  0  0  0
 14 35  1  0  0  0  0
 15 20  1  0  0  0  0
 15 16  1  0  0  0  0
 15 36  1  0  0  0  0
 16 17  1  0  0  0  0
 16 37  1  0  0  0  0
 16 38  1  0  0  0  0
 17 18  1  0  0  0  0
 17 39  1  0  0  0  0
 17 40  1  0  0  0  0
 18 19  1  0  0  0  0
 19 20  1  0  0  0  0
 19 41  1  0  0  0  0
 19 42  1  0  0  0  0
 20 43  1  0  0  0  0
 20 44  1  0  0  0  0
M  END
> <s_m_source_file>
AV-unprocessed.smi

> <i_m_source_file_index>
2363

> <i_lp_mmshare_version>
43012

> <i_f3d_flags>
0

> <s_epik_input>
W0NIM11bQ0gyXVtDSDJdbjFuW2NIXVtjSF1jMVtOSF1DKD1PKVtOSF1bQ0BIXShbQ0gzXSlbQ0hdMltDSDJdW0NIMl1PW0NIMl1bQ0gyXTI=

> <s_epik_cmdline>
J2VwaWtfcHl0aG9uJywgJy1waCcsICc3LjAnLCAnLXRuJywgJzgnLCAnLW1hJywgJzIwMCcsICctbWV0YWxfYmluZGluZycsICctaW1hZScsICc8aW5maWxlLm1hZT4nLCAnLW9tYWUnLCAnPG91dGZpbGUubWFlPic=

> <r_lp_tautomer_probability>
1

> <r_epik_Ionization_Penalty>
3.26671e-05

> <r_epik_Ionization_Penalty_Charging>
0

> <r_epik_Ionization_Penalty_Neutral>
3.26671e-05

> <r_epik_State_Penalty>
-0

> <r_epik_Charging_Adjusted_Penalty>
0

> <i_epik_Tot_Q>
0

> <i_epik_Tot_abs_Q>
0

> <r_epik_Metal_State_Penalty>
-0

> <b_epik_Metal_Only>
0

> <s_lp_Force_Field>
OPLS_2005

> <r_lp_Energy>
15.2221

> <b_lp_Chiralities_Consistent>
1

> <s_lp_Variant>
AV-unprocessed.smi:2363-2

> <Gold.Version>
5.8.1

> <Gold.Id.Protein>
6NUR|6NUR_protein|mol2

> <Gold.PLP.Fitness>
48.0002

> <Gold.PLP.PLP>
-37.0016

> <Gold.PLP.part.hbond>
-3.0481

> <Gold.PLP.part.metal>
0.0000

> <Gold.PLP.part.buried>
-3.7688

> <Gold.PLP.part.nonpolar>
-30.5399

> <Gold.PLP.part.repulsive>
0.3727

> <Gold.PLP.ligand.clash>
0.0000

> <Gold.PLP.ligand.torsion>
0.4326

> <Gold.PLP.Chemscore.Hbond>
2.9760

> <Gold.PLP.Chemscore.CHOScore>
0.9626

> <Gold.PLP.Chemscore.Metal>
0.0000

> <Gold.Chemscore.Hbonds>
donor molecule, donor type, donor heavy atom, donor atom, acceptor molecule, acceptor atom, score
      L1  H     9    30       P1  7948  1.00
      L1  H    12    31       P1  7948  1.00
      P1  H  7989  7998       L1     5  0.98
      L1  C     6    28       P1  8028  0.90

> <Gold.PLP.Chemscore.Internal.Correction>
0.0479

> <Gold.Rescore>
     Score         DG    S(hbond)    S(metal)    S(lipo)     H(rot)  DE(clash)    DE(int)     intcor
     14.75     -17.93       2.24        0.00      75.65       1.52       0.02       3.16       ----

> <Gold.Chemscore.Fitness>
14.7489

> <Gold.Chemscore.DG>
-17.9309

> <Gold.Chemscore.ZeroCoef>
-5.4800

> <Gold.Chemscore.Hbond>
2.2410

> <Gold.Chemscore.Metal>
0.0000

> <Gold.Chemscore.Lipo>
75.6516

> <Gold.Chemscore.Internal_Hbond>
0.0000

> <Gold.Chemscore.DEClash>
0.0189

> <Gold.Chemscore.DEInternal>
3.1631

> <Gold.Chemscore.Rot>
1.5176

> <Gold.Chemscore.Internal.Correction>
   9.000000E+99

> <Gold.Chemscore.Hbonds>
donor molecule, donor type, donor heavy atom, donor atom, acceptor molecule, acceptor atom, score
      L1  H     9    30       P1  7948  1.00
      L1  H    12    31       P1  7948  0.96
      P1  H  7989  7998       L1     5  0.23

> <Gold.Chemscore.Hbond.Weighted>
-7.4848

> <Gold.Chemscore.Metal.Weighted>
-0.0000

> <Gold.Chemscore.Lipo.Weighted>
-8.8512

> <Gold.Chemscore.Internal_Hbond.Weighted>
0.0000

> <Gold.Chemscore.DEClash.Weighted>
0.0189

> <Gold.Chemscore.DEInternal.Weighted>
3.1631

> <Gold.Chemscore.Rot.Weighted>
3.8851

> <Gold.Chemscore.Internal.Correction.Weighted>
   9.000000E+99

> <Gold.Protein.RotatedTorsions>
[ 6907 6896 6895 6894 ] final -135.76 input  -60.11 | X-H torsion
[ 7974 7965 7964 7962 ] final  -48.76 input  175.53 | X-H torsion
[ 8008 7997 7996 7995 ] final   68.13 input   59.86 | X-H torsion
[ 10167 10162 10161 10158 ] final  -95.12 input  -65.29 | X-H torsion
[ 10718 10713 10712 10709 ] final   45.12 input   66.30 | X-H torsion
[ 10763 10752 10751 10750 ] final  132.69 input  -60.55 | X-H torsion
[ 11005 11000 10999 10996 ] final  -81.89 input  -57.11 | X-H torsion

> <Gold.Protein.ActiveResidues>
 VAL166  LYS551  ARG553  GLY616  TRP617  ASP618  TYR619  PRO620  LYS621  CYS622 
 ASP623  PHE694  ASN695  SER759  ASP760  ASP761  ALA762  ILE779  LEU786  VAL792 
 PHE793  MET794  SER795  GLU796  ALA797  LYS798  CYS799  TRP800  GLU811  SER814 

> <Gold.Protein.RotatedAtoms>
  151.0017  133.6049  159.2693 H   0  0  0  0  0  0  0  0  0  0  0  0  # atno 6907 bound_to 6896
  151.3233  135.0823  159.9323 H   0  0  0  0  0  0  0  0  0  0  0  0  # atno 6908 bound_to 6896
  152.5276  133.9661  159.7794 H   0  0  0  0  0  0  0  0  0  0  0  0  # atno 6909 bound_to 6896
  145.9478  140.7601  142.9520 H   0  0  0  0  0  0  0  0  0  0  0  0  # atno 7974 bound_to 7965
  155.7036  140.3495  155.4943 H   0  0  0  0  0  0  0  0  0  0  0  0  # atno 8008 bound_to 7997
  155.9418  140.1103  157.1071 H   0  0  0  0  0  0  0  0  0  0  0  0  # atno 8009 bound_to 7997
  154.4104  140.1211  156.4924 H   0  0  0  0  0  0  0  0  0  0  0  0  # atno 8010 bound_to 7997
  140.3074  143.3125  152.0185 H   0  0  0  0  0  0  0  0  0  0  0  0  # atno 10167 bound_to 10162
  157.4341  130.8042  149.7631 H   0  0  0  0  0  0  0  0  0  0  0  0  # atno 10718 bound_to 10713
  153.7949  135.3150  155.3383 H   0  0  0  0  0  0  0  0  0  0  0  0  # atno 10763 bound_to 10752
  154.8111  135.4666  154.0523 H   0  0  0  0  0  0  0  0  0  0  0  0  # atno 10764 bound_to 10752
  153.1853  135.6900  153.8511 H   0  0  0  0  0  0  0  0  0  0  0  0  # atno 10765 bound_to 10752
  141.1665  133.7218  156.8490 H   0  0  0  0  0  0  0  0  0  0  0  0  # atno 11005 bound_to 11000
  144.6790  140.2385  143.7346 LP  0  0  0  0  0  0  0  0  0  0  0  0  # atno 17320 bound_to 7965
  145.8213  139.2045  143.1936 LP  0  0  0  0  0  0  0  0  0  0  0  0  # atno 17321 bound_to 7965
  139.4901  144.6410  151.6876 LP  0  0  0  0  0  0  0  0  0  0  0  0  # atno 17342 bound_to 10162
  140.5598  144.0287  150.6164 LP  0  0  0  0  0  0  0  0  0  0  0  0  # atno 17343 bound_to 10162
  155.9924  130.3931  150.2943 LP  0  0  0  0  0  0  0  0  0  0  0  0  # atno 17370 bound_to 10713
  157.1103  131.0219  151.3051 LP  0  0  0  0  0  0  0  0  0  0  0  0  # atno 17371 bound_to 10713
  140.1929  134.8952  157.3081 LP  0  0  0  0  0  0  0  0  0  0  0  0  # atno 17394 bound_to 11000
  140.2270  134.3954  155.7539 LP  0  0  0  0  0  0  0  0  0  0  0  0  # atno 17395 bound_to 11000

$$$$
