AV-unprocessed.smi:1288|AV-procd|sdf|5382|dock5
  -GOLD-   22720 4533D 1   1.00000     0.00000
 Structure written by MMmdl.
 42 44  0  0  0  0  0  0  0  0  1 V2000
  152.0316  138.7028  155.9729 C   0  0  0  0  0  0  0  0  0  0  0  0
  151.9768  139.9396  156.8126 C   0  0  0  0  0  0  0  0  0  0  0  0
  152.7427  140.1007  157.8918 N   0  0  0  0  0  0  0  0  0  0  0  0
  152.3757  141.3553  158.3392 C   0  0  0  0  0  0  0  0  0  0  0  0
  152.8284  142.1032  159.4498 C   0  0  0  0  0  0  0  0  0  0  0  0
  152.2977  143.3831  159.7127 C   0  0  0  0  0  0  0  0  0  0  0  0
  151.3092  143.9328  158.8708 C   0  0  0  0  0  0  0  0  0  0  0  0
  150.8445  143.2049  157.7585 C   0  0  0  0  0  0  0  0  0  0  0  0
  151.3772  141.9275  157.5004 C   0  0  0  0  0  0  0  0  0  0  0  0
  151.1446  140.9688  156.5184 N   0  0  0  0  0  0  0  0  0  0  0  0
  150.2025  141.0699  155.4115 C   0  0  0  0  0  0  0  0  0  0  0  0
  148.9755  141.9410  155.7489 C   0  0  1  0  0  0  0  0  0  0  0  0
  148.4387  142.4662  154.5505 O   0  0  0  0  0  0  0  0  0  0  0  0
  147.8791  141.1341  156.4625 C   0  0  0  0  0  0  0  0  0  0  0  0
  146.7283  141.9490  156.6141 O   0  0  0  0  0  0  0  0  0  0  0  0
  145.7105  141.6460  155.6753 C   0  0  0  0  0  0  0  0  0  0  0  0
  145.2129  142.8993  154.9826 C   0  0  0  0  0  0  0  0  0  0  0  0
  145.6361  143.1909  153.6686 C   0  0  0  0  0  0  0  0  0  0  0  0
  145.1724  144.3494  153.0152 C   0  0  0  0  0  0  0  0  0  0  0  0
  144.2837  145.2210  153.6734 C   0  0  0  0  0  0  0  0  0  0  0  0
  143.8577  144.9328  154.9843 C   0  0  0  0  0  0  0  0  0  0  0  0
  144.3186  143.7734  155.6388 C   0  0  0  0  0  0  0  0  0  0  0  0
  143.8965  143.5037  156.8974 F   0  0  0  0  0  0  0  0  0  0  0  0
  152.7490  137.9925  156.3852 H   0  0  0  0  0  0  0  0  0  0  0  0
  152.3404  138.9490  154.9568 H   0  0  0  0  0  0  0  0  0  0  0  0
  151.0546  138.2212  155.9398 H   0  0  0  0  0  0  0  0  0  0  0  0
  153.5848  141.6908  160.1010 H   0  0  0  0  0  0  0  0  0  0  0  0
  152.6506  143.9457  160.5646 H   0  0  0  0  0  0  0  0  0  0  0  0
  150.9071  144.9133  159.0799 H   0  0  0  0  0  0  0  0  0  0  0  0
  150.0856  143.6224  157.1136 H   0  0  0  0  0  0  0  0  0  0  0  0
  150.7265  141.4742  154.5443 H   0  0  0  0  0  0  0  0  0  0  0  0
  149.8877  140.0652  155.1287 H   0  0  0  0  0  0  0  0  0  0  0  0
  149.2885  142.7689  156.3856 H   0  0  0  0  0  0  0  0  0  0  0  0
  148.4844  143.4094  154.5897 H   0  0  0  0  0  0  0  0  0  0  0  0
  147.6497  140.2142  155.9213 H   0  0  0  0  0  0  0  0  0  0  0  0
  148.2241  140.8459  157.4568 H   0  0  0  0  0  0  0  0  0  0  0  0
  146.0846  140.9435  154.9288 H   0  0  0  0  0  0  0  0  0  0  0  0
  144.8738  141.1579  156.1779 H   0  0  0  0  0  0  0  0  0  0  0  0
  146.3160  142.5256  153.1569 H   0  0  0  0  0  0  0  0  0  0  0  0
  145.4979  144.5684  152.0089 H   0  0  0  0  0  0  0  0  0  0  0  0
  143.9277  146.1094  153.1730 H   0  0  0  0  0  0  0  0  0  0  0  0
  143.1749  145.6007  155.4885 H   0  0  0  0  0  0  0  0  0  0  0  0
  1  2  1  0  0  0  0
  1 24  1  0  0  0  0
  1 25  1  0  0  0  0
  1 26  1  0  0  0  0
  2 10  1  0  0  0  0
  2  3  2  0  0  0  0
  3  4  1  0  0  0  0
  4  9  2  0  0  0  0
  4  5  1  0  0  0  0
  5  6  2  0  0  0  0
  5 27  1  0  0  0  0
  6  7  1  0  0  0  0
  6 28  1  0  0  0  0
  7  8  2  0  0  0  0
  7 29  1  0  0  0  0
  8  9  1  0  0  0  0
  8 30  1  0  0  0  0
  9 10  1  0  0  0  0
 10 11  1  0  0  0  0
 11 12  1  0  0  0  0
 11 31  1  0  0  0  0
 11 32  1  0  0  0  0
 12 13  1  0  0  0  0
 12 14  1  0  0  0  0
 12 33  1  0  0  0  0
 13 34  1  0  0  0  0
 14 15  1  0  0  0  0
 14 35  1  0  0  0  0
 14 36  1  0  0  0  0
 15 16  1  0  0  0  0
 16 17  1  0  0  0  0
 16 37  1  0  0  0  0
 16 38  1  0  0  0  0
 17 22  1  0  0  0  0
 17 18  2  0  0  0  0
 18 19  1  0  0  0  0
 18 39  1  0  0  0  0
 19 20  2  0  0  0  0
 19 40  1  0  0  0  0
 20 21  1  0  0  0  0
 20 41  1  0  0  0  0
 21 22  2  0  0  0  0
 21 42  1  0  0  0  0
 22 23  1  0  0  0  0
M  END
> <s_m_source_file>
AV-unprocessed.smi

> <i_m_source_file_index>
1288

> <i_lp_mmshare_version>
43012

> <i_f3d_flags>
0

> <s_epik_input>
W2NIXTFbY0hdW2NIXVtjSF1jKGMxMiluKGMobjIpW0NIM10pW0NIMl1bQ0BIXShbT0hdKVtDSDJdT1tDSDJdYzNbY0hdW2NIXVtjSF1bY0hdYzNG

> <s_epik_cmdline>
J2VwaWtfcHl0aG9uJywgJy1waCcsICc3LjAnLCAnLXRuJywgJzgnLCAnLW1hJywgJzIwMCcsICctbWV0YWxfYmluZGluZycsICctaW1hZScsICc8aW5maWxlLm1hZT4nLCAnLW9tYWUnLCAnPG91dGZpbGUubWFlPic=

> <r_epik_Ionization_Penalty>
0.132603

> <r_epik_Ionization_Penalty_Charging>
0

> <r_epik_Ionization_Penalty_Neutral>
0.132603

> <r_epik_State_Penalty>
0.121982

> <r_epik_Charging_Adjusted_Penalty>
0.121982

> <i_epik_Tot_Q>
0

> <i_epik_Tot_abs_Q>
0

> <r_epik_Metal_State_Penalty>
0.000135431

> <b_epik_Metal_Only>
0

> <s_lp_Force_Field>
OPLS_2005

> <r_lp_Energy>
16.0492

> <b_lp_Chiralities_Consistent>
1

> <s_lp_Variant>
AV-unprocessed.smi:1288-2

> <Gold.Version>
5.8.1

> <Gold.Id.Protein>
6NUR|6NUR_protein|mol2

> <Gold.PLP.Fitness>
47.8236

> <Gold.PLP.PLP>
-45.5649

> <Gold.PLP.part.hbond>
-2.9361

> <Gold.PLP.part.metal>
0.0000

> <Gold.PLP.part.buried>
-3.4395

> <Gold.PLP.part.nonpolar>
-40.1723

> <Gold.PLP.part.repulsive>
0.1348

> <Gold.PLP.ligand.clash>
0.0000

> <Gold.PLP.ligand.torsion>
1.5673

> <Gold.PLP.Chemscore.Hbond>
1.7592

> <Gold.PLP.Chemscore.CHOScore>
0.0000

> <Gold.PLP.Chemscore.Metal>
0.0000

> <Gold.Chemscore.Hbonds>
donor molecule, donor type, donor heavy atom, donor atom, acceptor molecule, acceptor atom, score
      L1  H    13    34       P1  8028  0.88
      P1  H  7997  8008       L1     3  0.94

> <Gold.PLP.Chemscore.Internal.Correction>
0.1157

> <Gold.Rescore>
     Score         DG    S(hbond)    S(metal)    S(lipo)     H(rot)  DE(clash)    DE(int)     intcor
     14.03     -18.02       1.22        0.00     122.43       2.29       1.46       2.53       ----

> <Gold.Chemscore.Fitness>
14.0283

> <Gold.Chemscore.DG>
-18.0217

> <Gold.Chemscore.ZeroCoef>
-5.4800

> <Gold.Chemscore.Hbond>
1.2187

> <Gold.Chemscore.Metal>
0.0000

> <Gold.Chemscore.Lipo>
122.4287

> <Gold.Chemscore.Internal_Hbond>
0.0000

> <Gold.Chemscore.DEClash>
1.4599

> <Gold.Chemscore.DEInternal>
2.5335

> <Gold.Chemscore.Rot>
2.2863

> <Gold.Chemscore.Internal.Correction>
   9.000000E+99

> <Gold.Chemscore.Hbonds>
donor molecule, donor type, donor heavy atom, donor atom, acceptor molecule, acceptor atom, score
      L1  H    13    34       P1  8028  0.86
      P1  H  7997  8008       L1     3  0.19

> <Gold.Chemscore.Hbond.Weighted>
-4.0705

> <Gold.Chemscore.Metal.Weighted>
-0.0000

> <Gold.Chemscore.Lipo.Weighted>
-14.3242

> <Gold.Chemscore.Internal_Hbond.Weighted>
0.0000

> <Gold.Chemscore.DEClash.Weighted>
1.4599

> <Gold.Chemscore.DEInternal.Weighted>
2.5335

> <Gold.Chemscore.Rot.Weighted>
5.8530

> <Gold.Chemscore.Internal.Correction.Weighted>
   9.000000E+99

> <Gold.Protein.RotatedTorsions>
[ 6907 6896 6895 6894 ] final  129.42 input  -60.11 | X-H torsion
[ 7974 7965 7964 7962 ] final   43.92 input  175.53 | X-H torsion
[ 8008 7997 7996 7995 ] final  -86.28 input   59.86 | X-H torsion
[ 10167 10162 10161 10158 ] final  -30.71 input  -65.29 | X-H torsion
[ 10718 10713 10712 10709 ] final  -43.11 input   66.30 | X-H torsion
[ 10763 10752 10751 10750 ] final   13.68 input  -60.55 | X-H torsion
[ 11005 11000 10999 10996 ] final  -61.49 input  -57.11 | X-H torsion

> <Gold.Protein.ActiveResidues>
 VAL166  LYS551  ARG553  GLY616  TRP617  ASP618  TYR619  PRO620  LYS621  CYS622 
 ASP623  PHE694  ASN695  SER759  ASP760  ASP761  ALA762  ILE779  LEU786  VAL792 
 PHE793  MET794  SER795  GLU796  ALA797  LYS798  CYS799  TRP800  GLU811  SER814 

> <Gold.Protein.RotatedAtoms>
  152.3626  133.6316  159.6026 H   0  0  0  0  0  0  0  0  0  0  0  0  # atno 6907 bound_to 6896
  150.7611  133.9399  159.3462 H   0  0  0  0  0  0  0  0  0  0  0  0  # atno 6908 bound_to 6896
  151.7235  135.0890  160.0339 H   0  0  0  0  0  0  0  0  0  0  0  0  # atno 6909 bound_to 6896
  146.0614  139.5133  142.9656 H   0  0  0  0  0  0  0  0  0  0  0  0  # atno 7974 bound_to 7965
  154.6501  140.0580  156.9946 H   0  0  0  0  0  0  0  0  0  0  0  0  # atno 8008 bound_to 7997
  155.1384  140.3263  155.4439 H   0  0  0  0  0  0  0  0  0  0  0  0  # atno 8009 bound_to 7997
  156.2572  140.1968  156.6501 H   0  0  0  0  0  0  0  0  0  0  0  0  # atno 8010 bound_to 7997
  140.7246  143.3827  151.1571 H   0  0  0  0  0  0  0  0  0  0  0  0  # atno 10167 bound_to 10162
  156.2525  130.4189  149.8634 H   0  0  0  0  0  0  0  0  0  0  0  0  # atno 10718 bound_to 10713
  153.1697  135.6810  153.8625 H   0  0  0  0  0  0  0  0  0  0  0  0  # atno 10763 bound_to 10752
  153.7993  135.3158  155.3389 H   0  0  0  0  0  0  0  0  0  0  0  0  # atno 10764 bound_to 10752
  154.7989  135.4790  154.0320 H   0  0  0  0  0  0  0  0  0  0  0  0  # atno 10765 bound_to 10752
  141.1326  133.6630  156.5383 H   0  0  0  0  0  0  0  0  0  0  0  0  # atno 11005 bound_to 11000
  145.6554  141.0253  143.1738 LP  0  0  0  0  0  0  0  0  0  0  0  0  # atno 17320 bound_to 7965
  144.7177  139.8139  143.7393 LP  0  0  0  0  0  0  0  0  0  0  0  0  # atno 17321 bound_to 7965
  139.7419  143.8911  152.3052 LP  0  0  0  0  0  0  0  0  0  0  0  0  # atno 17342 bound_to 10162
  139.8735  144.7055  150.8960 LP  0  0  0  0  0  0  0  0  0  0  0  0  # atno 17343 bound_to 10162
  156.6177  130.8613  151.3468 LP  0  0  0  0  0  0  0  0  0  0  0  0  # atno 17370 bound_to 10713
  157.7220  130.9571  150.1476 LP  0  0  0  0  0  0  0  0  0  0  0  0  # atno 17371 bound_to 10713
  140.4160  134.7230  157.4863 LP  0  0  0  0  0  0  0  0  0  0  0  0  # atno 17394 bound_to 11000
  140.0393  134.6290  155.9001 LP  0  0  0  0  0  0  0  0  0  0  0  0  # atno 17395 bound_to 11000

$$$$
