AV-unprocessed.smi:2883|AV-procd|sdf|11080|dock2
  -GOLD-   2272015553D 1   1.00000     0.00000
 Structure written by MMmdl.
 39 41  0  0  0  0  0  0  0  0  1 V2000
  152.4207  144.8158  157.9747 C   0  0  0  0  0  0  0  0  0  0  0  0
  151.7295  144.1516  159.1887 C   0  0  0  0  0  0  0  0  0  0  0  0
  152.0398  145.0553  160.4056 C   0  0  0  0  0  0  0  0  0  0  0  0
  150.2087  144.1060  158.9529 C   0  0  0  0  0  0  0  0  0  0  0  0
  152.2555  142.7242  159.4155 C   0  0  0  0  0  0  0  0  0  0  0  0
  153.1107  142.5380  160.4299 N   0  0  0  0  0  0  0  0  0  0  0  0
  153.6739  141.3176  160.5547 C   0  0  0  0  0  0  0  0  0  0  0  0
  153.4071  140.2803  159.6403 C   0  0  0  0  0  0  0  0  0  0  0  0
  152.5259  140.5864  158.5847 C   0  0  0  0  0  0  0  0  0  0  0  0
  152.2250  139.6044  157.6310 N   0  0  0  0  0  0  0  0  0  0  0  0
  151.9907  139.9637  156.2355 C   0  0  1  0  0  0  0  0  0  0  0  0
  152.5439  138.9325  155.2489 C   0  0  0  0  0  0  0  0  0  0  0  0
  151.3113  138.6301  154.3848 C   0  0  1  0  0  0  0  0  0  0  0  0
  150.3032  137.7475  155.1315 C   0  0  0  0  0  0  0  0  0  0  0  0
  149.7255  138.7297  156.1487 C   0  0  0  0  0  0  0  0  0  0  0  0
  150.5043  140.0168  155.8273 C   0  0  2  0  0  0  0  0  0  0  0  0
  150.6392  139.8783  154.4229 O   0  0  0  0  0  0  0  0  0  0  0  0
  151.9725  141.8159  158.4730 N   0  0  0  0  0  0  0  0  0  0  0  0
  152.0829  145.8439  157.8398 H   0  0  0  0  0  0  0  0  0  0  0  0
  152.2059  144.2903  157.0435 H   0  0  0  0  0  0  0  0  0  0  0  0
  153.5040  144.8408  158.0983 H   0  0  0  0  0  0  0  0  0  0  0  0
  153.1095  145.0847  160.6163 H   0  0  0  0  0  0  0  0  0  0  0  0
  151.5351  144.7122  161.3096 H   0  0  0  0  0  0  0  0  0  0  0  0
  151.7116  146.0809  160.2329 H   0  0  0  0  0  0  0  0  0  0  0  0
  149.8012  145.1037  158.7880 H   0  0  0  0  0  0  0  0  0  0  0  0
  149.6883  143.6752  159.8090 H   0  0  0  0  0  0  0  0  0  0  0  0
  149.9617  143.5009  158.0799 H   0  0  0  0  0  0  0  0  0  0  0  0
  154.3472  141.1694  161.3859 H   0  0  0  0  0  0  0  0  0  0  0  0
  153.8617  139.3060  159.7442 H   0  0  0  0  0  0  0  0  0  0  0  0
  151.9535  138.6831  157.9418 H   0  0  0  0  0  0  0  0  0  0  0  0
  152.4591  140.9269  156.0279 H   0  0  0  0  0  0  0  0  0  0  0  0
  153.3408  139.3739  154.6495 H   0  0  0  0  0  0  0  0  0  0  0  0
  152.9382  138.0335  155.7250 H   0  0  0  0  0  0  0  0  0  0  0  0
  151.5497  138.2767  153.3813 H   0  0  0  0  0  0  0  0  0  0  0  0
  149.5233  137.3920  154.4574 H   0  0  0  0  0  0  0  0  0  0  0  0
  150.7740  136.8816  155.5979 H   0  0  0  0  0  0  0  0  0  0  0  0
  148.6594  138.8743  155.9707 H   0  0  0  0  0  0  0  0  0  0  0  0
  149.8507  138.3993  157.1800 H   0  0  0  0  0  0  0  0  0  0  0  0
  149.9921  140.9290  156.1344 H   0  0  0  0  0  0  0  0  0  0  0  0
  1  2  1  0  0  0  0
  1 19  1  0  0  0  0
  1 20  1  0  0  0  0
  1 21  1  0  0  0  0
  2  3  1  0  0  0  0
  2  4  1  0  0  0  0
  2  5  1  0  0  0  0
  3 22  1  0  0  0  0
  3 23  1  0  0  0  0
  3 24  1  0  0  0  0
  4 25  1  0  0  0  0
  4 26  1  0  0  0  0
  4 27  1  0  0  0  0
  5 18  1  0  0  0  0
  5  6  2  0  0  0  0
  6  7  1  0  0  0  0
  7  8  2  0  0  0  0
  7 28  1  0  0  0  0
  8  9  1  0  0  0  0
  8 29  1  0  0  0  0
  9 10  1  0  0  0  0
  9 18  2  0  0  0  0
 10 11  1  0  0  0  0
 10 30  1  0  0  0  0
 11 16  1  0  0  0  0
 11 12  1  0  0  0  0
 11 31  1  0  0  0  0
 12 13  1  0  0  0  0
 12 32  1  0  0  0  0
 12 33  1  0  0  0  0
 13 17  1  0  0  0  0
 13 14  1  0  0  0  0
 13 34  1  0  0  0  0
 14 15  1  0  0  0  0
 14 35  1  0  0  0  0
 14 36  1  0  0  0  0
 15 16  1  0  0  0  0
 15 37  1  0  0  0  0
 15 38  1  0  0  0  0
 16 17  1  0  0  0  0
 16 39  1  0  0  0  0
M  END
> <s_m_source_file>
AV-unprocessed.smi

> <i_m_source_file_index>
2883

> <i_lp_mmshare_version>
43012

> <i_f3d_flags>
0

> <s_epik_input>
W0NIM11DKFtDSDNdKShbQ0gzXSljMW5bY0hdW2NIXWMobjEpW05IXVtDQEhdKFtDSDJdW0NAQEhdMjMpW0NAQEhdKE8zKVtDSDJdW0NIMl0y

> <s_epik_cmdline>
J2VwaWtfcHl0aG9uJywgJy1waCcsICc3LjAnLCAnLXRuJywgJzgnLCAnLW1hJywgJzIwMCcsICctbWV0YWxfYmluZGluZycsICctaW1hZScsICc8aW5maWxlLm1hZT4nLCAnLW9tYWUnLCAnPG91dGZpbGUubWFlPic=

> <r_lp_tautomer_probability>
1

> <r_epik_Ionization_Penalty>
0.453006

> <r_epik_Ionization_Penalty_Charging>
0

> <r_epik_Ionization_Penalty_Neutral>
0.453006

> <r_epik_State_Penalty>
0.455155

> <r_epik_Charging_Adjusted_Penalty>
0.455155

> <i_epik_Tot_Q>
0

> <i_epik_Tot_abs_Q>
0

> <r_epik_Metal_State_Penalty>
0.255592

> <b_epik_Metal_Only>
0

> <s_lp_Force_Field>
OPLS_2005

> <r_lp_Energy>
33.5757

> <b_lp_Chiralities_Consistent>
1

> <s_lp_Variant>
AV-unprocessed.smi:2883-6

> <Gold.Version>
5.8.1

> <Gold.Id.Protein>
6NUR|6NUR_protein|mol2

> <Gold.PLP.Fitness>
41.9737

> <Gold.PLP.PLP>
-40.5124

> <Gold.PLP.part.hbond>
-1.0000

> <Gold.PLP.part.metal>
0.0000

> <Gold.PLP.part.buried>
-7.2394

> <Gold.PLP.part.nonpolar>
-33.0137

> <Gold.PLP.part.repulsive>
0.1927

> <Gold.PLP.ligand.clash>
0.0000

> <Gold.PLP.ligand.torsion>
0.8440

> <Gold.PLP.Chemscore.Hbond>
1.0000

> <Gold.PLP.Chemscore.CHOScore>
0.0000

> <Gold.PLP.Chemscore.Metal>
0.0000

> <Gold.Chemscore.Hbonds>
donor molecule, donor type, donor heavy atom, donor atom, acceptor molecule, acceptor atom, score
      P1  H  7989  7998       L1    17  1.00

> <Gold.PLP.Chemscore.Internal.Correction>
0.1493

> <Gold.Rescore>
     Score         DG    S(hbond)    S(metal)    S(lipo)     H(rot)  DE(clash)    DE(int)     intcor
     16.89     -17.82       0.97        0.00     102.84       1.15       0.08       0.85       ----

> <Gold.Chemscore.Fitness>
16.8860

> <Gold.Chemscore.DG>
-17.8176

> <Gold.Chemscore.ZeroCoef>
-5.4800

> <Gold.Chemscore.Hbond>
0.9715

> <Gold.Chemscore.Metal>
0.0000

> <Gold.Chemscore.Lipo>
102.8371

> <Gold.Chemscore.Internal_Hbond>
0.0000

> <Gold.Chemscore.DEClash>
0.0838

> <Gold.Chemscore.DEInternal>
0.8479

> <Gold.Chemscore.Rot>
1.1482

> <Gold.Chemscore.Internal.Correction>
   9.000000E+99

> <Gold.Chemscore.Hbonds>
donor molecule, donor type, donor heavy atom, donor atom, acceptor molecule, acceptor atom, score
      P1  H  7989  7998       L1    17  0.39

> <Gold.Chemscore.Hbond.Weighted>
-3.2449

> <Gold.Chemscore.Metal.Weighted>
-0.0000

> <Gold.Chemscore.Lipo.Weighted>
-12.0319

> <Gold.Chemscore.Internal_Hbond.Weighted>
0.0000

> <Gold.Chemscore.DEClash.Weighted>
0.0838

> <Gold.Chemscore.DEInternal.Weighted>
0.8479

> <Gold.Chemscore.Rot.Weighted>
2.9393

> <Gold.Chemscore.Internal.Correction.Weighted>
   9.000000E+99

> <Gold.Protein.RotatedTorsions>
[ 6907 6896 6895 6894 ] final -107.15 input  -60.11 | X-H torsion
[ 7974 7965 7964 7962 ] final -109.90 input  175.53 | X-H torsion
[ 8008 7997 7996 7995 ] final   26.18 input   59.86 | X-H torsion
[ 10167 10162 10161 10158 ] final  151.39 input  -65.29 | X-H torsion
[ 10718 10713 10712 10709 ] final  119.23 input   66.30 | X-H torsion
[ 10763 10752 10751 10750 ] final  -30.46 input  -60.55 | X-H torsion
[ 11005 11000 10999 10996 ] final  135.01 input  -57.11 | X-H torsion

> <Gold.Protein.ActiveResidues>
 VAL166  LYS551  ARG553  GLY616  TRP617  ASP618  TYR619  PRO620  LYS621  CYS622 
 ASP623  PHE694  ASN695  SER759  ASP760  ASP761  ALA762  ILE779  LEU786  VAL792 
 PHE793  MET794  SER795  GLU796  ALA797  LYS798  CYS799  TRP800  GLU811  SER814 

> <Gold.Protein.RotatedAtoms>
  150.7428  133.9870  159.3594 H   0  0  0  0  0  0  0  0  0  0  0  0  # atno 6907 bound_to 6896
  151.7815  135.0758  160.0384 H   0  0  0  0  0  0  0  0  0  0  0  0  # atno 6908 bound_to 6896
  152.3271  133.5880  159.5820 H   0  0  0  0  0  0  0  0  0  0  0  0  # atno 6909 bound_to 6896
  145.1749  140.8943  143.3514 H   0  0  0  0  0  0  0  0  0  0  0  0  # atno 7974 bound_to 7965
  155.0233  140.3150  155.4785 H   0  0  0  0  0  0  0  0  0  0  0  0  # atno 8008 bound_to 7997
  156.2888  140.2193  156.5294 H   0  0  0  0  0  0  0  0  0  0  0  0  # atno 8009 bound_to 7997
  154.7433  140.0472  157.0818 H   0  0  0  0  0  0  0  0  0  0  0  0  # atno 8010 bound_to 7997
  139.4841  144.5445  151.7508 H   0  0  0  0  0  0  0  0  0  0  0  0  # atno 10167 bound_to 10162
  157.5976  131.1056  150.7866 H   0  0  0  0  0  0  0  0  0  0  0  0  # atno 10718 bound_to 10713
  153.7813  135.6905  153.4888 H   0  0  0  0  0  0  0  0  0  0  0  0  # atno 10763 bound_to 10752
  153.1810  135.4506  155.0026 H   0  0  0  0  0  0  0  0  0  0  0  0  # atno 10764 bound_to 10752
  154.8080  135.3365  154.7315 H   0  0  0  0  0  0  0  0  0  0  0  0  # atno 10765 bound_to 10752
  139.9951  134.9500  156.9947 H   0  0  0  0  0  0  0  0  0  0  0  0  # atno 11005 bound_to 11000
  145.0195  139.3437  143.6079 LP  0  0  0  0  0  0  0  0  0  0  0  0  # atno 17320 bound_to 7965
  146.3463  139.9490  142.8731 LP  0  0  0  0  0  0  0  0  0  0  0  0  # atno 17321 bound_to 7965
  140.4989  144.1199  150.5966 LP  0  0  0  0  0  0  0  0  0  0  0  0  # atno 17342 bound_to 10162
  140.4085  143.2668  151.9861 LP  0  0  0  0  0  0  0  0  0  0  0  0  # atno 17343 bound_to 10162
  156.8273  130.5004  149.5336 LP  0  0  0  0  0  0  0  0  0  0  0  0  # atno 17370 bound_to 10713
  156.1042  130.5992  150.9944 LP  0  0  0  0  0  0  0  0  0  0  0  0  # atno 17371 bound_to 10713
  140.4833  134.1267  155.7220 LP  0  0  0  0  0  0  0  0  0  0  0  0  # atno 17394 bound_to 11000
  141.1598  133.8814  157.1879 LP  0  0  0  0  0  0  0  0  0  0  0  0  # atno 17395 bound_to 11000

$$$$
