AV-unprocessed.smi:528|AV-procd|sdf|2835|dock10
  -GOLD-   2262023323D 1   1.00000     0.00000
 Structure written by MMmdl.
 45 47  0  0  0  0  0  0  0  0  1 V2000
  146.9233  129.3569  161.1432 C   0  0  0  0  0  0  0  0  0  0  0  0
  146.1370  130.6041  160.7039 C   0  0  2  0  0  0  0  0  0  0  0  0
  146.5146  131.7199  161.5700 N   0  0  0  0  0  0  0  0  0  0  0  0
  147.0480  132.8841  161.1685 C   0  0  0  0  0  0  0  0  0  0  0  0
  147.2659  133.1592  159.9877 O   0  0  0  0  0  0  0  0  0  0  0  0
  147.3677  133.8895  162.2845 C   0  0  0  0  0  0  0  0  0  0  0  0
  146.4222  135.0167  162.3497 N   0  0  0  0  0  0  0  0  0  0  0  0
  145.0516  134.7006  162.4311 C   0  0  0  0  0  0  0  0  0  0  0  0
  144.0866  135.6369  162.5089 C   0  0  0  0  0  0  0  0  0  0  0  0
  142.6120  135.2660  162.5354 C   0  0  0  0  0  0  0  0  0  0  0  0
  141.8442  136.3550  162.5810 F   0  0  0  0  0  0  0  0  0  0  0  0
  142.2728  134.5593  161.4566 F   0  0  0  0  0  0  0  0  0  0  0  0
  142.3502  134.5283  163.6136 F   0  0  0  0  0  0  0  0  0  0  0  0
  144.5240  137.0186  162.4714 C   0  0  0  0  0  0  0  0  0  0  0  0
  145.8298  137.3384  162.3807 C   0  0  0  0  0  0  0  0  0  0  0  0
  146.8690  136.3081  162.3175 C   0  0  0  0  0  0  0  0  0  0  0  0
  148.0655  136.5879  162.2396 O   0  0  0  0  0  0  0  0  0  0  0  0
  144.6049  130.3868  160.7596 C   0  0  2  0  0  0  0  0  0  0  0  0
  144.1257  129.1366  159.9813 C   0  0  0  0  0  0  0  0  0  0  0  0
  143.0496  129.6970  159.0349 C   0  0  1  0  0  0  0  0  0  0  0  0
  141.8156  130.1225  159.8508 C   0  0  0  0  0  0  0  0  0  0  0  0
  142.3063  131.3964  160.5633 C   0  0  0  0  0  0  0  0  0  0  0  0
  143.7687  131.5092  160.0908 C   0  0  2  0  0  0  0  0  0  0  0  0
  143.6547  131.0386  158.6447 C   0  0  0  0  0  0  0  0  0  0  0  0
  146.7239  128.5047  160.4942 H   0  0  0  0  0  0  0  0  0  0  0  0
  146.6667  129.0646  162.1621 H   0  0  0  0  0  0  0  0  0  0  0  0
  147.9978  129.5401  161.1115 H   0  0  0  0  0  0  0  0  0  0  0  0
  146.4134  130.8293  159.6728 H   0  0  0  0  0  0  0  0  0  0  0  0
  146.3675  131.5899  162.5605 H   0  0  0  0  0  0  0  0  0  0  0  0
  147.3869  133.3501  163.2323 H   0  0  0  0  0  0  0  0  0  0  0  0
  148.3843  134.2642  162.1500 H   0  0  0  0  0  0  0  0  0  0  0  0
  144.8330  133.6426  162.4171 H   0  0  0  0  0  0  0  0  0  0  0  0
  143.7927  137.8119  162.5198 H   0  0  0  0  0  0  0  0  0  0  0  0
  146.1194  138.3788  162.3558 H   0  0  0  0  0  0  0  0  0  0  0  0
  144.3157  130.2993  161.8084 H   0  0  0  0  0  0  0  0  0  0  0  0
  144.9326  128.6939  159.3959 H   0  0  0  0  0  0  0  0  0  0  0  0
  143.7348  128.3620  160.6420 H   0  0  0  0  0  0  0  0  0  0  0  0
  142.8156  129.0364  158.1998 H   0  0  0  0  0  0  0  0  0  0  0  0
  140.9731  130.3491  159.1960 H   0  0  0  0  0  0  0  0  0  0  0  0
  141.4982  129.3489  160.5509 H   0  0  0  0  0  0  0  0  0  0  0  0
  141.7278  132.2619  160.2376 H   0  0  0  0  0  0  0  0  0  0  0  0
  142.2203  131.3290  161.6484 H   0  0  0  0  0  0  0  0  0  0  0  0
  144.1740  132.5138  160.2113 H   0  0  0  0  0  0  0  0  0  0  0  0
  144.6158  130.9503  158.1357 H   0  0  0  0  0  0  0  0  0  0  0  0
  142.9866  131.6548  158.0405 H   0  0  0  0  0  0  0  0  0  0  0  0
  1  2  1  0  0  0  0
  1 25  1  0  0  0  0
  1 26  1  0  0  0  0
  1 27  1  0  0  0  0
  2  3  1  0  0  0  0
  2 18  1  0  0  0  0
  2 28  1  0  0  0  0
  3  4  1  0  0  0  0
  3 29  1  0  0  0  0
  4  5  2  0  0  0  0
  4  6  1  0  0  0  0
  6  7  1  0  0  0  0
  6 30  1  0  0  0  0
  6 31  1  0  0  0  0
  7 16  1  0  0  0  0
  7  8  1  0  0  0  0
  8  9  2  0  0  0  0
  8 32  1  0  0  0  0
  9 10  1  0  0  0  0
  9 14  1  0  0  0  0
 10 11  1  0  0  0  0
 10 12  1  0  0  0  0
 10 13  1  0  0  0  0
 14 15  2  0  0  0  0
 14 33  1  0  0  0  0
 15 16  1  0  0  0  0
 15 34  1  0  0  0  0
 16 17  2  0  0  0  0
 18 23  1  0  0  0  0
 18 19  1  0  0  0  0
 18 35  1  0  0  0  0
 19 20  1  0  0  0  0
 19 36  1  0  0  0  0
 19 37  1  0  0  0  0
 20 24  1  0  0  0  0
 20 21  1  0  0  0  0
 20 38  1  0  0  0  0
 21 22  1  0  0  0  0
 21 39  1  0  0  0  0
 21 40  1  0  0  0  0
 22 23  1  0  0  0  0
 22 41  1  0  0  0  0
 22 42  1  0  0  0  0
 23 24  1  0  0  0  0
 23 43  1  0  0  0  0
 24 44  1  0  0  0  0
 24 45  1  0  0  0  0
M  END
> <s_m_source_file>
AV-unprocessed.smi

> <i_m_source_file_index>
528

> <i_lp_mmshare_version>
43012

> <i_f3d_flags>
0

> <s_epik_input>
W0NIMl0xW0NIMl1bQ0BASF0oW0NIMl0yKVtDQEBIXShbQ0gyXVtDQEhdMTIpW0NASF0oW0NIM10pW05IXUMoPU8pW0NIMl1uM1tjSF1jKEMoRikoRilGKVtjSF1bY0hdYzM9Tw==

> <s_epik_cmdline>
J2VwaWtfcHl0aG9uJywgJy1waCcsICc3LjAnLCAnLXRuJywgJzgnLCAnLW1hJywgJzIwMCcsICctbWV0YWxfYmluZGluZycsICctaW1hZScsICc8aW5maWxlLm1hZT4nLCAnLW9tYWUnLCAnPG91dGZpbGUubWFlPic=

> <r_lp_tautomer_probability>
1

> <r_epik_Ionization_Penalty>
4.09479e-08

> <r_epik_Ionization_Penalty_Charging>
1.9321e-08

> <r_epik_Ionization_Penalty_Neutral>
2.16269e-08

> <r_epik_State_Penalty>
-0

> <r_epik_Charging_Adjusted_Penalty>
1.9321e-08

> <i_epik_Tot_Q>
0

> <i_epik_Tot_abs_Q>
0

> <r_epik_Metal_State_Penalty>
-0

> <b_epik_Metal_Only>
0

> <s_lp_Force_Field>
OPLS_2005

> <r_lp_Energy>
63.0094

> <b_lp_Chiralities_Consistent>
1

> <s_lp_Variant>
AV-unprocessed.smi:528-5

> <Gold.Version>
5.8.1

> <Gold.Id.Protein>
6NUR|6NUR_protein|mol2

> <Gold.PLP.Fitness>
45.9200

> <Gold.PLP.PLP>
-43.4448

> <Gold.PLP.part.hbond>
-1.0000

> <Gold.PLP.part.metal>
0.0000

> <Gold.PLP.part.buried>
-7.0865

> <Gold.PLP.part.nonpolar>
-35.1499

> <Gold.PLP.part.repulsive>
0.0181

> <Gold.PLP.ligand.clash>
0.0000

> <Gold.PLP.ligand.torsion>
0.3077

> <Gold.PLP.Chemscore.Hbond>
1.0000

> <Gold.PLP.Chemscore.CHOScore>
0.0000

> <Gold.PLP.Chemscore.Metal>
0.0000

> <Gold.Chemscore.Hbonds>
donor molecule, donor type, donor heavy atom, donor atom, acceptor molecule, acceptor atom, score
      P1  H  6931  6943       L1    17  1.00

> <Gold.PLP.Chemscore.Internal.Correction>
0.0907

> <Gold.Rescore>
     Score         DG    S(hbond)    S(metal)    S(lipo)     H(rot)  DE(clash)    DE(int)     intcor
     13.99     -14.30       1.53        0.00      69.30       1.71       0.02       0.29       ----

> <Gold.Chemscore.Fitness>
13.9876

> <Gold.Chemscore.DG>
-14.3012

> <Gold.Chemscore.ZeroCoef>
-5.4800

> <Gold.Chemscore.Hbond>
1.5259

> <Gold.Chemscore.Metal>
0.0000

> <Gold.Chemscore.Lipo>
69.3046

> <Gold.Chemscore.Internal_Hbond>
0.0000

> <Gold.Chemscore.DEClash>
0.0205

> <Gold.Chemscore.DEInternal>
0.2931

> <Gold.Chemscore.Rot>
1.7125

> <Gold.Chemscore.Internal.Correction>
   9.000000E+99

> <Gold.Chemscore.Hbonds>
donor molecule, donor type, donor heavy atom, donor atom, acceptor molecule, acceptor atom, score
      P1  H  6931  6943       L1    17  0.99

> <Gold.Chemscore.Hbond.Weighted>
-5.0965

> <Gold.Chemscore.Metal.Weighted>
-0.0000

> <Gold.Chemscore.Lipo.Weighted>
-8.1086

> <Gold.Chemscore.Internal_Hbond.Weighted>
0.0000

> <Gold.Chemscore.DEClash.Weighted>
0.0205

> <Gold.Chemscore.DEInternal.Weighted>
0.2931

> <Gold.Chemscore.Rot.Weighted>
4.3840

> <Gold.Chemscore.Internal.Correction.Weighted>
   9.000000E+99

> <Gold.Protein.RotatedTorsions>
[ 6907 6896 6895 6894 ] final   45.03 input  -60.11 | X-H torsion
[ 7974 7965 7964 7962 ] final -123.79 input  175.53 | X-H torsion
[ 8008 7997 7996 7995 ] final -156.22 input   59.86 | X-H torsion
[ 10167 10162 10161 10158 ] final   69.53 input  -65.29 | X-H torsion
[ 10718 10713 10712 10709 ] final -111.15 input   66.30 | X-H torsion
[ 10763 10752 10751 10750 ] final  108.01 input  -60.55 | X-H torsion
[ 11005 11000 10999 10996 ] final  -34.62 input  -57.11 | X-H torsion

> <Gold.Protein.ActiveResidues>
 VAL166  LYS551  ARG553  GLY616  TRP617  ASP618  TYR619  PRO620  LYS621  CYS622 
 ASP623  PHE694  ASN695  SER759  ASP760  ASP761  ALA762  ILE779  LEU786  VAL792 
 PHE793  MET794  SER795  GLU796  ALA797  LYS798  CYS799  TRP800  GLU811  SER814 

> <Gold.Protein.RotatedAtoms>
  152.2397  134.8241  160.0461 H   0  0  0  0  0  0  0  0  0  0  0  0  # atno 6907 bound_to 6896
  151.8960  133.3522  159.3822 H   0  0  0  0  0  0  0  0  0  0  0  0  # atno 6908 bound_to 6896
  150.7050  134.4802  159.5511 H   0  0  0  0  0  0  0  0  0  0  0  0  # atno 6909 bound_to 6896
  145.0150  140.7938  143.4416 H   0  0  0  0  0  0  0  0  0  0  0  0  # atno 7974 bound_to 7965
  155.7139  140.0781  157.2359 H   0  0  0  0  0  0  0  0  0  0  0  0  # atno 8008 bound_to 7997
  154.4054  140.1625  156.2380 H   0  0  0  0  0  0  0  0  0  0  0  0  # atno 8009 bound_to 7997
  155.9258  140.3394  155.6212 H   0  0  0  0  0  0  0  0  0  0  0  0  # atno 8010 bound_to 7997
  140.0667  144.5187  150.7255 H   0  0  0  0  0  0  0  0  0  0  0  0  # atno 10167 bound_to 10162
  156.0631  130.5852  150.8335 H   0  0  0  0  0  0  0  0  0  0  0  0  # atno 10718 bound_to 10713
  153.4147  135.3826  155.2073 H   0  0  0  0  0  0  0  0  0  0  0  0  # atno 10763 bound_to 10752
  154.8740  135.3802  154.4458 H   0  0  0  0  0  0  0  0  0  0  0  0  # atno 10764 bound_to 10752
  153.4970  135.7088  153.5915 H   0  0  0  0  0  0  0  0  0  0  0  0  # atno 10765 bound_to 10752
  140.9730  133.7098  156.1556 H   0  0  0  0  0  0  0  0  0  0  0  0  # atno 11005 bound_to 11000
  145.1972  139.2270  143.5211 LP  0  0  0  0  0  0  0  0  0  0  0  0  # atno 17320 bound_to 7965
  146.3476  140.1782  142.8589 LP  0  0  0  0  0  0  0  0  0  0  0  0  # atno 17321 bound_to 7965
  140.7145  143.2533  151.4477 LP  0  0  0  0  0  0  0  0  0  0  0  0  # atno 17342 bound_to 10162
  139.5860  144.1603  152.2030 LP  0  0  0  0  0  0  0  0  0  0  0  0  # atno 17343 bound_to 10162
  157.5654  131.0946  150.9498 LP  0  0  0  0  0  0  0  0  0  0  0  0  # atno 17370 bound_to 10713
  156.9726  130.5497  149.5291 LP  0  0  0  0  0  0  0  0  0  0  0  0  # atno 17371 bound_to 10713
  140.7300  134.4265  157.5567 LP  0  0  0  0  0  0  0  0  0  0  0  0  # atno 17394 bound_to 11000
  139.8920  134.8767  156.2294 LP  0  0  0  0  0  0  0  0  0  0  0  0  # atno 17395 bound_to 11000

$$$$
