AV-unprocessed.smi:1762|AV-procd|sdf|7124|dock8
  -GOLD-   22720 8363D 1   1.00000     0.00000
 Structure written by MMmdl.
 52 53  0  0  0  0  0  0  0  0  3 V2000
  149.7664  134.2283  154.1060 C   0  0  0  0  0  0  0  0  0  0  0  0
  149.3746  135.0060  155.3753 C   0  0  1  0  0  0  0  0  0  0  0  0
  149.5982  136.5263  155.2534 C   0  0  0  0  0  0  0  0  0  0  0  0
  148.5786  137.1615  154.3729 N   0  3  2  0  0  0  0  0  0  0  0  0
  148.7620  138.6345  154.1445 C   0  0  2  0  0  0  0  0  0  0  0  0
  149.3572  139.3142  155.4023 C   0  0  0  0  0  0  0  0  0  0  0  0
  148.6710  139.3633  156.4290 O   0  0  0  0  0  0  0  0  0  0  0  0
  150.6267  139.7458  155.1731 N   0  5  0  0  0  0  0  0  0  0  0  0
  151.5170  140.2730  156.2054 C   0  0  0  0  0  0  0  0  0  0  0  0
  150.8516  141.4666  156.9293 C   0  0  0  0  0  0  0  0  0  0  0  0
  151.6221  142.0180  158.1275 C   0  0  0  0  0  0  0  0  0  0  0  0
  152.0283  141.1614  159.1766 C   0  0  0  0  0  0  0  0  0  0  0  0
  152.7242  141.7132  160.2688 C   0  0  0  0  0  0  0  0  0  0  0  0
  152.9830  143.0970  160.2788 C   0  0  0  0  0  0  0  0  0  0  0  0
  152.5310  143.8705  159.1914 C   0  0  0  0  0  0  0  0  0  0  0  0
  151.8618  143.3524  158.1393 N   0  0  0  0  0  0  0  0  0  0  0  0
  147.4786  139.3859  153.6513 C   0  0  0  0  0  0  0  0  0  0  0  0
  146.9455  138.8447  152.3101 C   0  0  0  0  0  0  0  0  0  0  0  0
  147.6193  140.9215  153.5853 C   0  0  0  0  0  0  0  0  0  0  0  0
  147.2223  136.8124  154.8833 C   0  0  0  0  0  0  0  0  0  0  0  0
  147.0341  135.2885  154.9527 C   0  0  2  0  0  0  0  0  0  0  0  0
  145.6681  134.9068  155.5341 C   0  0  0  0  0  0  0  0  0  0  0  0
  148.0390  134.7281  155.7898 O   0  0  0  0  0  0  0  0  0  0  0  0
  150.8298  134.3446  153.8955 H   0  0  0  0  0  0  0  0  0  0  0  0
  149.2249  134.5724  153.2250 H   0  0  0  0  0  0  0  0  0  0  0  0
  149.5698  133.1628  154.2258 H   0  0  0  0  0  0  0  0  0  0  0  0
  150.0176  134.6409  156.1767 H   0  0  0  0  0  0  0  0  0  0  0  0
  149.5505  136.9883  156.2407 H   0  0  0  0  0  0  0  0  0  0  0  0
  150.6095  136.6789  154.8823 H   0  0  0  0  0  0  0  0  0  0  0  0
  149.4819  138.7075  153.3250 H   0  0  0  0  0  0  0  0  0  0  0  0
  151.7823  139.5079  156.9353 H   0  0  0  0  0  0  0  0  0  0  0  0
  152.4631  140.6193  155.7865 H   0  0  0  0  0  0  0  0  0  0  0  0
  150.7119  142.2784  156.2142 H   0  0  0  0  0  0  0  0  0  0  0  0
  149.8477  141.1870  157.2523 H   0  0  0  0  0  0  0  0  0  0  0  0
  151.8182  140.1025  159.1383 H   0  0  0  0  0  0  0  0  0  0  0  0
  153.0532  141.0860  161.0841 H   0  0  0  0  0  0  0  0  0  0  0  0
  153.5147  143.5542  161.1000 H   0  0  0  0  0  0  0  0  0  0  0  0
  152.7100  144.9352  159.1674 H   0  0  0  0  0  0  0  0  0  0  0  0
  146.6794  139.1666  154.3579 H   0  0  0  0  0  0  0  0  0  0  0  0
  147.6112  139.0816  151.4792 H   0  0  0  0  0  0  0  0  0  0  0  0
  145.9707  139.2734  152.0760 H   0  0  0  0  0  0  0  0  0  0  0  0
  146.8277  137.7611  152.3423 H   0  0  0  0  0  0  0  0  0  0  0  0
  148.2965  141.2323  152.7900 H   0  0  0  0  0  0  0  0  0  0  0  0
  147.9921  141.3411  154.5190 H   0  0  0  0  0  0  0  0  0  0  0  0
  146.6546  141.3878  153.3836 H   0  0  0  0  0  0  0  0  0  0  0  0
  147.0817  137.2572  155.8700 H   0  0  0  0  0  0  0  0  0  0  0  0
  146.4377  137.2170  154.2447 H   0  0  0  0  0  0  0  0  0  0  0  0
  147.1041  134.8642  153.9508 H   0  0  0  0  0  0  0  0  0  0  0  0
  144.8569  135.3051  154.9239 H   0  0  0  0  0  0  0  0  0  0  0  0
  145.5468  135.2948  156.5459 H   0  0  0  0  0  0  0  0  0  0  0  0
  145.5504  133.8237  155.5756 H   0  0  0  0  0  0  0  0  0  0  0  0
  148.6687  136.7298  153.4643 H   0  0  0  0  0  0  0  0  0  0  0  0
  1  2  1  0  0  0  0
  1 24  1  0  0  0  0
  1 25  1  0  0  0  0
  1 26  1  0  0  0  0
  2 23  1  0  0  0  0
  2  3  1  0  0  0  0
  2 27  1  0  0  0  0
  3  4  1  0  0  0  0
  3 28  1  0  0  0  0
  3 29  1  0  0  0  0
  4  5  1  0  0  0  0
  4 20  1  0  0  0  0
  4 52  1  0  0  0  0
  5  6  1  0  0  0  0
  5 17  1  0  0  0  0
  5 30  1  0  0  0  0
  6  7  2  0  0  0  0
  6  8  1  0  0  0  0
  8  9  1  0  0  0  0
  9 10  1  0  0  0  0
  9 31  1  0  0  0  0
  9 32  1  0  0  0  0
 10 11  1  0  0  0  0
 10 33  1  0  0  0  0
 10 34  1  0  0  0  0
 11 16  1  0  0  0  0
 11 12  2  0  0  0  0
 12 13  1  0  0  0  0
 12 35  1  0  0  0  0
 13 14  2  0  0  0  0
 13 36  1  0  0  0  0
 14 15  1  0  0  0  0
 14 37  1  0  0  0  0
 15 16  2  0  0  0  0
 15 38  1  0  0  0  0
 17 18  1  0  0  0  0
 17 19  1  0  0  0  0
 17 39  1  0  0  0  0
 18 40  1  0  0  0  0
 18 41  1  0  0  0  0
 18 42  1  0  0  0  0
 19 43  1  0  0  0  0
 19 44  1  0  0  0  0
 19 45  1  0  0  0  0
 20 21  1  0  0  0  0
 20 46  1  0  0  0  0
 20 47  1  0  0  0  0
 21 22  1  0  0  0  0
 21 23  1  0  0  0  0
 21 48  1  0  0  0  0
 22 49  1  0  0  0  0
 22 50  1  0  0  0  0
 22 51  1  0  0  0  0
M  CHG  1   4   1
M  CHG  1   8  -1
M  END
> <s_m_source_file>
AV-unprocessed.smi

> <i_m_source_file_index>
1762

> <i_lp_mmshare_version>
43012

> <i_f3d_flags>
0

> <s_epik_input>
W0NIM11bQ0BASF0xW0NIMl1OKFtDSDJdW0NASF0oTzEpW0NIM10pW0NAQEhdKFtDSF0oW0NIM10pW0NIM10pQyg9TylbTkhdW0NIMl1bQ0gyXWMyW2NIXVtjSF1bY0hdW2NIXW4y

> <s_epik_cmdline>
J2VwaWtfcHl0aG9uJywgJy1waCcsICc3LjAnLCAnLXRuJywgJzgnLCAnLW1hJywgJzIwMCcsICctbWV0YWxfYmluZGluZycsICctaW1hZScsICc8aW5maWxlLm1hZT4nLCAnLW9tYWUnLCAnPG91dGZpbGUubWFlPic=

> <r_epik_Ionization_Penalty>
7.82966

> <r_epik_Ionization_Penalty_Charging>
7.7461

> <r_epik_Ionization_Penalty_Neutral>
0.0835571

> <r_epik_State_Penalty>
8.52273

> <r_epik_Charging_Adjusted_Penalty>
16.2688

> <i_epik_Tot_Q>
0

> <i_epik_Tot_abs_Q>
2

> <r_epik_Metal_State_Penalty>
4.47451

> <b_epik_Metal_Only>
1

> <s_lp_Force_Field>
OPLS_2005

> <r_lp_Energy>
24.9826

> <b_lp_Chiralities_Consistent>
1

> <s_lp_Variant>
AV-unprocessed.smi:1762-26

> <Gold.Version>
5.8.1

> <Gold.Id.Protein>
6NUR|6NUR_protein|mol2

> <Gold.PLP.Fitness>
46.6367

> <Gold.PLP.PLP>
-40.5540

> <Gold.PLP.part.hbond>
-2.0000

> <Gold.PLP.part.metal>
0.0000

> <Gold.PLP.part.buried>
-4.1743

> <Gold.PLP.part.nonpolar>
-34.3584

> <Gold.PLP.part.repulsive>
0.2216

> <Gold.PLP.ligand.clash>
0.0000

> <Gold.PLP.ligand.torsion>
0.8097

> <Gold.PLP.Chemscore.Hbond>
2.4500

> <Gold.PLP.Chemscore.CHOScore>
0.0000

> <Gold.PLP.Chemscore.Metal>
0.0000

> <Gold.Chemscore.Hbonds>
donor molecule, donor type, donor heavy atom, donor atom, acceptor molecule, acceptor atom, score
      L1  H     4    52       P1  7948  2.00
      P1  H  7989  7998       L1     8  0.31

> <Gold.PLP.Chemscore.Internal.Correction>
0.3521

> <Gold.Rescore>
     Score         DG    S(hbond)    S(metal)    S(lipo)     H(rot)  DE(clash)    DE(int)     intcor
     17.91     -18.81       1.07        0.00     118.41       1.60       0.13       0.77       ----

> <Gold.Chemscore.Fitness>
17.9131

> <Gold.Chemscore.DG>
-18.8114

> <Gold.Chemscore.ZeroCoef>
-5.4800

> <Gold.Chemscore.Hbond>
1.0708

> <Gold.Chemscore.Metal>
0.0000

> <Gold.Chemscore.Lipo>
118.4085

> <Gold.Chemscore.Internal_Hbond>
0.0000

> <Gold.Chemscore.DEClash>
0.1305

> <Gold.Chemscore.DEInternal>
0.7679

> <Gold.Chemscore.Rot>
1.6012

> <Gold.Chemscore.Internal.Correction>
   9.000000E+99

> <Gold.Chemscore.Hbonds>
donor molecule, donor type, donor heavy atom, donor atom, acceptor molecule, acceptor atom, score
      L1  H     4    52       P1  7948  1.00
      P1  H  7989  7998       L1     8  0.03

> <Gold.Chemscore.Hbond.Weighted>
-3.5766

> <Gold.Chemscore.Metal.Weighted>
-0.0000

> <Gold.Chemscore.Lipo.Weighted>
-13.8538

> <Gold.Chemscore.Internal_Hbond.Weighted>
0.0000

> <Gold.Chemscore.DEClash.Weighted>
0.1305

> <Gold.Chemscore.DEInternal.Weighted>
0.7679

> <Gold.Chemscore.Rot.Weighted>
4.0990

> <Gold.Chemscore.Internal.Correction.Weighted>
   9.000000E+99

> <Gold.Protein.RotatedTorsions>
[ 6907 6896 6895 6894 ] final -137.95 input  -60.11 | X-H torsion
[ 7974 7965 7964 7962 ] final -176.51 input  175.53 | X-H torsion
[ 8008 7997 7996 7995 ] final   47.81 input   59.86 | X-H torsion
[ 10167 10162 10161 10158 ] final -134.49 input  -65.29 | X-H torsion
[ 10718 10713 10712 10709 ] final   89.20 input   66.30 | X-H torsion
[ 10763 10752 10751 10750 ] final -141.81 input  -60.55 | X-H torsion
[ 11005 11000 10999 10996 ] final -106.54 input  -57.11 | X-H torsion

> <Gold.Protein.ActiveResidues>
 VAL166  LYS551  ARG553  GLY616  TRP617  ASP618  TYR619  PRO620  LYS621  CYS622 
 ASP623  PHE694  ASN695  SER759  ASP760  ASP761  ALA762  ILE779  LEU786  VAL792 
 PHE793  MET794  SER795  GLU796  ALA797  LYS798  CYS799  TRP800  GLU811  SER814 

> <Gold.Protein.RotatedAtoms>
  151.0289  133.5808  159.2662 H   0  0  0  0  0  0  0  0  0  0  0  0  # atno 6907 bound_to 6896
  151.2897  135.0737  159.9209 H   0  0  0  0  0  0  0  0  0  0  0  0  # atno 6908 bound_to 6896
  152.5340  133.9990  159.7940 H   0  0  0  0  0  0  0  0  0  0  0  0  # atno 6909 bound_to 6896
  144.7127  140.1159  143.6408 H   0  0  0  0  0  0  0  0  0  0  0  0  # atno 7974 bound_to 7965
  155.3752  140.3426  155.4244 H   0  0  0  0  0  0  0  0  0  0  0  0  # atno 8008 bound_to 7997
  156.1640  140.1610  156.8596 H   0  0  0  0  0  0  0  0  0  0  0  0  # atno 8009 bound_to 7997
  154.5167  140.0776  156.8077 H   0  0  0  0  0  0  0  0  0  0  0  0  # atno 8010 bound_to 7997
  139.8875  143.6763  152.2617 H   0  0  0  0  0  0  0  0  0  0  0  0  # atno 10167 bound_to 10162
  157.6954  131.0324  150.3389 H   0  0  0  0  0  0  0  0  0  0  0  0  # atno 10718 bound_to 10713
  154.8532  135.3514  154.5927 H   0  0  0  0  0  0  0  0  0  0  0  0  # atno 10763 bound_to 10752
  153.6536  135.6993  153.5205 H   0  0  0  0  0  0  0  0  0  0  0  0  # atno 10764 bound_to 10752
  153.2874  135.4245  155.1093 H   0  0  0  0  0  0  0  0  0  0  0  0  # atno 10765 bound_to 10752
  141.0999  133.8903  157.1869 H   0  0  0  0  0  0  0  0  0  0  0  0  # atno 11005 bound_to 11000
  145.9414  139.2671  143.1266 LP  0  0  0  0  0  0  0  0  0  0  0  0  # atno 17320 bound_to 7965
  145.9420  140.8973  143.0303 LP  0  0  0  0  0  0  0  0  0  0  0  0  # atno 17321 bound_to 7965
  139.7139  144.7615  151.1066 LP  0  0  0  0  0  0  0  0  0  0  0  0  # atno 17342 bound_to 10162
  140.7733  143.5294  150.9441 LP  0  0  0  0  0  0  0  0  0  0  0  0  # atno 17343 bound_to 10162
  156.3853  130.3888  149.7071 LP  0  0  0  0  0  0  0  0  0  0  0  0  # atno 17370 bound_to 10713
  156.4439  130.7874  151.2896 LP  0  0  0  0  0  0  0  0  0  0  0  0  # atno 17371 bound_to 10713
  139.9847  135.0086  156.9834 LP  0  0  0  0  0  0  0  0  0  0  0  0  # atno 17394 bound_to 11000
  140.5048  134.1061  155.7258 LP  0  0  0  0  0  0  0  0  0  0  0  0  # atno 17395 bound_to 11000

$$$$
