AV-unprocessed.smi:282|AV-procd|sdf|2119|dock5
  -GOLD-   2262021413D 1   1.00000     0.00000
 Structure written by MMmdl.
 65 69  0  0  0  0  0  0  0  0  2 V2000
  144.6827  134.8880  155.7373 C   0  0  0  0  0  0  0  0  0  0  0  0
  145.6846  135.9126  155.1876 C   0  0  0  0  0  0  0  0  0  0  0  0
  146.7678  135.3103  154.2530 C   0  0  2  0  0  0  0  0  0  0  0  0
  146.1209  134.6817  152.9963 C   0  0  0  0  0  0  0  0  0  0  0  0
  147.1178  134.0113  152.1216 N   0  3  2  0  0  0  0  0  0  0  0  0
  146.5346  133.4562  150.8719 C   0  0  0  0  0  0  0  0  0  0  0  0
  145.7450  132.1570  151.1253 C   0  0  0  0  0  0  0  0  0  0  0  0
  146.6066  131.1196  151.8592 C   0  0  0  0  0  0  0  0  0  0  0  0
  147.1955  131.7216  153.1434 C   0  0  0  0  0  0  0  0  0  0  0  0
  147.9701  133.0223  152.8371 C   0  0  2  0  0  0  0  0  0  0  0  0
  148.5993  133.6538  154.0896 C   0  0  0  0  0  0  0  0  0  0  0  0
  147.6010  134.3077  154.9312 N   0  0  0  0  0  0  0  0  0  0  0  0
  148.1404  134.6923  156.1099 C   0  0  0  0  0  0  0  0  0  0  0  0
  148.0730  133.8713  157.1907 N   0  0  0  0  0  0  0  0  0  0  0  0
  148.6198  134.2535  158.3494 C   0  0  0  0  0  0  0  0  0  0  0  0
  149.2653  135.3873  158.6349 N   0  0  0  0  0  0  0  0  0  0  0  0
  149.3326  136.2093  157.5479 C   0  0  0  0  0  0  0  0  0  0  0  0
  148.8008  135.9387  156.2573 C   0  0  0  0  0  0  0  0  0  0  0  0
  149.0676  136.9938  155.3962 N   0  0  0  0  0  0  0  0  0  0  0  0
  149.7273  137.8423  156.1366 C   0  0  0  0  0  0  0  0  0  0  0  0
  149.9172  137.4605  157.4470 N   0  0  0  0  0  0  0  0  0  0  0  0
  150.6211  138.2071  158.4801 C   0  0  0  0  0  0  0  0  0  0  0  0
  152.0831  138.6222  158.1209 C   0  0  0  0  0  0  0  0  0  0  0  0
  152.8880  137.3395  157.7706 C   0  0  0  0  0  0  0  0  0  0  0  0
  153.1487  136.5164  158.8907 O   0  0  0  0  0  0  0  0  0  0  0  0
  152.0484  139.5827  156.9041 C   0  0  0  0  0  0  0  0  0  0  0  0
  151.4917  140.9752  157.2608 C   0  0  0  0  0  0  0  0  0  0  0  0
  152.2318  141.5408  158.3360 O   0  0  0  0  0  0  0  0  0  0  0  0
  152.1629  140.7676  159.5278 C   0  0  0  0  0  0  0  0  0  0  0  0
  152.7774  139.3777  159.2839 C   0  0  0  0  0  0  0  0  0  0  0  0
  143.8876  135.3893  156.2897 H   0  0  0  0  0  0  0  0  0  0  0  0
  145.1546  134.1839  156.4220 H   0  0  0  0  0  0  0  0  0  0  0  0
  144.2178  134.3201  154.9311 H   0  0  0  0  0  0  0  0  0  0  0  0
  145.1010  136.6633  154.6544 H   0  0  0  0  0  0  0  0  0  0  0  0
  146.1611  136.4363  156.0175 H   0  0  0  0  0  0  0  0  0  0  0  0
  147.4277  136.1163  153.9281 H   0  0  0  0  0  0  0  0  0  0  0  0
  145.3529  133.9699  153.2997 H   0  0  0  0  0  0  0  0  0  0  0  0
  145.6200  135.4503  152.4080 H   0  0  0  0  0  0  0  0  0  0  0  0
  145.9001  134.2018  150.3917 H   0  0  0  0  0  0  0  0  0  0  0  0
  147.3488  133.2543  150.1750 H   0  0  0  0  0  0  0  0  0  0  0  0
  144.8479  132.3684  151.7078 H   0  0  0  0  0  0  0  0  0  0  0  0
  145.3989  131.7446  150.1770 H   0  0  0  0  0  0  0  0  0  0  0  0
  146.0131  130.2358  152.0948 H   0  0  0  0  0  0  0  0  0  0  0  0
  147.4146  130.7870  151.2062 H   0  0  0  0  0  0  0  0  0  0  0  0
  146.3965  131.9122  153.8607 H   0  0  0  0  0  0  0  0  0  0  0  0
  147.8592  130.9958  153.6145 H   0  0  0  0  0  0  0  0  0  0  0  0
  148.7890  132.7601  152.1652 H   0  0  0  0  0  0  0  0  0  0  0  0
  149.1348  132.8935  154.6610 H   0  0  0  0  0  0  0  0  0  0  0  0
  149.3404  134.3933  153.7819 H   0  0  0  0  0  0  0  0  0  0  0  0
  148.5293  133.5497  159.1637 H   0  0  0  0  0  0  0  0  0  0  0  0
  150.0928  138.7802  155.7445 H   0  0  0  0  0  0  0  0  0  0  0  0
  150.0324  139.0970  158.7082 H   0  0  0  0  0  0  0  0  0  0  0  0
  150.5887  137.6044  159.3860 H   0  0  0  0  0  0  0  0  0  0  0  0
  152.3504  136.7313  157.0434 H   0  0  0  0  0  0  0  0  0  0  0  0
  153.8437  137.6033  157.3167 H   0  0  0  0  0  0  0  0  0  0  0  0
  153.9318  136.8289  159.3180 H   0  0  0  0  0  0  0  0  0  0  0  0
  153.0545  139.7281  156.5101 H   0  0  0  0  0  0  0  0  0  0  0  0
  151.4688  139.1467  156.0898 H   0  0  0  0  0  0  0  0  0  0  0  0
  151.5763  141.6368  156.3986 H   0  0  0  0  0  0  0  0  0  0  0  0
  150.4324  140.9362  157.5144 H   0  0  0  0  0  0  0  0  0  0  0  0
  152.7193  141.2852  160.3092 H   0  0  0  0  0  0  0  0  0  0  0  0
  151.1315  140.6983  159.8739 H   0  0  0  0  0  0  0  0  0  0  0  0
  152.7660  138.7900  160.2007 H   0  0  0  0  0  0  0  0  0  0  0  0
  153.8321  139.5261  159.0499 H   0  0  0  0  0  0  0  0  0  0  0  0
  147.7432  134.7490  151.8297 H   0  0  0  0  0  0  0  0  0  0  0  0
  1  2  1  0  0  0  0
  1 31  1  0  0  0  0
  1 32  1  0  0  0  0
  1 33  1  0  0  0  0
  2  3  1  0  0  0  0
  2 34  1  0  0  0  0
  2 35  1  0  0  0  0
  3 12  1  0  0  0  0
  3  4  1  0  0  0  0
  3 36  1  0  0  0  0
  4  5  1  0  0  0  0
  4 37  1  0  0  0  0
  4 38  1  0  0  0  0
  5 10  1  0  0  0  0
  5  6  1  0  0  0  0
  5 65  1  0  0  0  0
  6  7  1  0  0  0  0
  6 39  1  0  0  0  0
  6 40  1  0  0  0  0
  7  8  1  0  0  0  0
  7 41  1  0  0  0  0
  7 42  1  0  0  0  0
  8  9  1  0  0  0  0
  8 43  1  0  0  0  0
  8 44  1  0  0  0  0
  9 10  1  0  0  0  0
  9 45  1  0  0  0  0
  9 46  1  0  0  0  0
 10 11  1  0  0  0  0
 10 47  1  0  0  0  0
 11 12  1  0  0  0  0
 11 48  1  0  0  0  0
 11 49  1  0  0  0  0
 12 13  1  0  0  0  0
 13 18  1  0  0  0  0
 13 14  2  0  0  0  0
 14 15  1  0  0  0  0
 15 16  2  0  0  0  0
 15 50  1  0  0  0  0
 16 17  1  0  0  0  0
 17 21  1  0  0  0  0
 17 18  2  0  0  0  0
 18 19  1  0  0  0  0
 19 20  2  0  0  0  0
 20 21  1  0  0  0  0
 20 51  1  0  0  0  0
 21 22  1  0  0  0  0
 22 23  1  0  0  0  0
 22 52  1  0  0  0  0
 22 53  1  0  0  0  0
 23 30  1  0  0  0  0
 23 24  1  0  0  0  0
 23 26  1  0  0  0  0
 24 25  1  0  0  0  0
 24 54  1  0  0  0  0
 24 55  1  0  0  0  0
 25 56  1  0  0  0  0
 26 27  1  0  0  0  0
 26 57  1  0  0  0  0
 26 58  1  0  0  0  0
 27 28  1  0  0  0  0
 27 59  1  0  0  0  0
 27 60  1  0  0  0  0
 28 29  1  0  0  0  0
 29 30  1  0  0  0  0
 29 61  1  0  0  0  0
 29 62  1  0  0  0  0
 30 63  1  0  0  0  0
 30 64  1  0  0  0  0
M  CHG  1   5   1
M  END
> <s_m_source_file>
AV-unprocessed.smi

> <i_m_source_file_index>
282

> <i_lp_mmshare_version>
43012

> <i_f3d_flags>
0

> <s_epik_input>
W0NIMl0xW0NIMl1bQ0gyXVtDSDJdW0NAQEhdKE4xMilbQ0gyXU4oW0NAQEhdKFtDSDJdMilbQ0gyXVtDSDNdKWMobltjSF1uMyljKGMzNCluW2NIXW40W0NIMl1DNShbQ0gyXVtPSF0pW0NIMl1bQ0gyXU9bQ0gyXVtDSDJdNQ==

> <s_epik_cmdline>
J2VwaWtfcHl0aG9uJywgJy1waCcsICc3LjAnLCAnLXRuJywgJzgnLCAnLW1hJywgJzIwMCcsICctbWV0YWxfYmluZGluZycsICctaW1hZScsICc8aW5maWxlLm1hZT4nLCAnLW9tYWUnLCAnPG91dGZpbGUubWFlPic=

> <r_lp_tautomer_probability>
1

> <r_epik_Ionization_Penalty>
0.00308583

> <r_epik_Ionization_Penalty_Charging>
0.00300384

> <r_epik_Ionization_Penalty_Neutral>
8.19894e-05

> <r_epik_State_Penalty>
-0

> <r_epik_Charging_Adjusted_Penalty>
0.00300384

> <i_epik_Tot_Q>
1

> <i_epik_Tot_abs_Q>
1

> <r_epik_Metal_State_Penalty>
-0

> <b_epik_Metal_Only>
0

> <s_lp_Force_Field>
OPLS_2005

> <r_lp_Energy>
60.5871

> <b_lp_Chiralities_Consistent>
1

> <s_lp_Variant>
AV-unprocessed.smi:282-3

> <Gold.Version>
5.8.1

> <Gold.Id.Protein>
6NUR|6NUR_protein|mol2

> <Gold.PLP.Fitness>
40.8491

> <Gold.PLP.PLP>
-30.4588

> <Gold.PLP.part.hbond>
-3.0000

> <Gold.PLP.part.metal>
0.0000

> <Gold.PLP.part.buried>
-3.9175

> <Gold.PLP.part.nonpolar>
-23.5194

> <Gold.PLP.part.repulsive>
0.1885

> <Gold.PLP.ligand.clash>
0.0000

> <Gold.PLP.ligand.torsion>
0.6001

> <Gold.PLP.Chemscore.Hbond>
3.7840

> <Gold.PLP.Chemscore.CHOScore>
0.0000

> <Gold.PLP.Chemscore.Metal>
0.0000

> <Gold.Chemscore.Hbonds>
donor molecule, donor type, donor heavy atom, donor atom, acceptor molecule, acceptor atom, score
      L1  H     5    65       P1  7948  2.00
      P1  H  6896  6907       L1    16  0.80
      P1  H  6896  6908       L1    25  0.47

> <Gold.PLP.Chemscore.Internal.Correction>
0.2386

> <Gold.Rescore>
     Score         DG    S(hbond)    S(metal)    S(lipo)     H(rot)  DE(clash)    DE(int)     intcor
     15.05     -16.77       2.47        0.00      79.72       2.46       0.04       1.67       ----

> <Gold.Chemscore.Fitness>
15.0532

> <Gold.Chemscore.DG>
-16.7654

> <Gold.Chemscore.ZeroCoef>
-5.4800

> <Gold.Chemscore.Hbond>
2.4699

> <Gold.Chemscore.Metal>
0.0000

> <Gold.Chemscore.Lipo>
79.7218

> <Gold.Chemscore.Internal_Hbond>
0.0000

> <Gold.Chemscore.DEClash>
0.0437

> <Gold.Chemscore.DEInternal>
1.6685

> <Gold.Chemscore.Rot>
2.4576

> <Gold.Chemscore.Internal.Correction>
   9.000000E+99

> <Gold.Chemscore.Hbonds>
donor molecule, donor type, donor heavy atom, donor atom, acceptor molecule, acceptor atom, score
      L1  H     5    65       P1  7948  0.40
      P1  H  6896  6907       L1    16  0.12
      P1  H  6896  6908       L1    25  0.35

> <Gold.Chemscore.Hbond.Weighted>
-8.2495

> <Gold.Chemscore.Metal.Weighted>
-0.0000

> <Gold.Chemscore.Lipo.Weighted>
-9.3275

> <Gold.Chemscore.Internal_Hbond.Weighted>
0.0000

> <Gold.Chemscore.DEClash.Weighted>
0.0437

> <Gold.Chemscore.DEInternal.Weighted>
1.6685

> <Gold.Chemscore.Rot.Weighted>
6.2915

> <Gold.Chemscore.Internal.Correction.Weighted>
   9.000000E+99

> <Gold.Protein.RotatedTorsions>
[ 6907 6896 6895 6894 ] final  -69.91 input  -60.11 | X-H torsion
[ 7974 7965 7964 7962 ] final   72.02 input  175.53 | X-H torsion
[ 8008 7997 7996 7995 ] final -105.28 input   59.86 | X-H torsion
[ 10167 10162 10161 10158 ] final -157.48 input  -65.29 | X-H torsion
[ 10718 10713 10712 10709 ] final  171.44 input   66.30 | X-H torsion
[ 10763 10752 10751 10750 ] final -153.81 input  -60.55 | X-H torsion
[ 11005 11000 10999 10996 ] final  -60.98 input  -57.11 | X-H torsion

> <Gold.Protein.ActiveResidues>
 VAL166  LYS551  ARG553  GLY616  TRP617  ASP618  TYR619  PRO620  LYS621  CYS622 
 ASP623  PHE694  ASN695  SER759  ASP760  ASP761  ALA762  ILE779  LEU786  VAL792 
 PHE793  MET794  SER795  GLU796  ALA797  LYS798  CYS799  TRP800  GLU811  SER814 

> <Gold.Protein.RotatedAtoms>
  150.7283  134.5529  159.5803 H   0  0  0  0  0  0  0  0  0  0  0  0  # atno 6907 bound_to 6896
  152.3012  134.7606  160.0366 H   0  0  0  0  0  0  0  0  0  0  0  0  # atno 6908 bound_to 6896
  151.8186  133.3356  159.3614 H   0  0  0  0  0  0  0  0  0  0  0  0  # atno 6909 bound_to 6896
  145.7585  139.2790  143.1390 H   0  0  0  0  0  0  0  0  0  0  0  0  # atno 7974 bound_to 7965
  154.8976  140.0414  157.1874 H   0  0  0  0  0  0  0  0  0  0  0  0  # atno 8008 bound_to 7997
  154.8477  140.2924  155.5597 H   0  0  0  0  0  0  0  0  0  0  0  0  # atno 8009 bound_to 7997
  156.2995  140.2471  156.3430 H   0  0  0  0  0  0  0  0  0  0  0  0  # atno 8010 bound_to 7997
  139.6767  143.9650  152.2314 H   0  0  0  0  0  0  0  0  0  0  0  0  # atno 10167 bound_to 10162
  156.9936  131.0155  151.2850 H   0  0  0  0  0  0  0  0  0  0  0  0  # atno 10718 bound_to 10713
  154.7902  135.3204  154.7795 H   0  0  0  0  0  0  0  0  0  0  0  0  # atno 10763 bound_to 10752
  153.8485  135.6864  153.4799 H   0  0  0  0  0  0  0  0  0  0  0  0  # atno 10764 bound_to 10752
  153.1569  135.4676  154.9657 H   0  0  0  0  0  0  0  0  0  0  0  0  # atno 10765 bound_to 10752
  141.1307  133.6626  156.5306 H   0  0  0  0  0  0  0  0  0  0  0  0  # atno 11005 bound_to 11000
  146.0287  140.8279  142.9887 LP  0  0  0  0  0  0  0  0  0  0  0  0  # atno 17320 bound_to 7965
  144.6835  140.2736  143.7302 LP  0  0  0  0  0  0  0  0  0  0  0  0  # atno 17321 bound_to 7965
  139.9430  144.6670  150.8248 LP  0  0  0  0  0  0  0  0  0  0  0  0  # atno 17342 bound_to 10162
  140.7638  143.3232  151.2574 LP  0  0  0  0  0  0  0  0  0  0  0  0  # atno 17343 bound_to 10162
  157.5441  130.8139  149.8064 LP  0  0  0  0  0  0  0  0  0  0  0  0  # atno 17370 bound_to 10713
  156.0198  130.3800  150.1998 LP  0  0  0  0  0  0  0  0  0  0  0  0  # atno 17371 bound_to 10713
  140.4219  134.7180  157.4894 LP  0  0  0  0  0  0  0  0  0  0  0  0  # atno 17394 bound_to 11000
  140.0354  134.6345  155.9050 LP  0  0  0  0  0  0  0  0  0  0  0  0  # atno 17395 bound_to 11000

$$$$
