AV-unprocessed.smi:2453|AV-procd|sdf|9689|dock3
  -GOLD-   2272013323D 1   1.00000     0.00000
 Structure written by MMmdl.
 40 41  0  0  0  0  0  0  0  0  1 V2000
  151.2820  137.5351  154.3476 C   0  0  0  0  0  0  0  0  0  0  0  0
  150.7419  138.9092  154.7041 C   0  0  0  0  0  0  0  0  0  0  0  0
  151.5688  139.8382  155.3722 C   0  0  0  0  0  0  0  0  0  0  0  0
  151.1686  141.0781  155.7208 N   0  0  0  0  0  0  0  0  0  0  0  0
  149.9097  141.4437  155.4036 C   0  0  0  0  0  0  0  0  0  0  0  0
  149.0006  140.5989  154.7377 C   0  0  0  0  0  0  0  0  0  0  0  0
  149.4152  139.2909  154.3867 C   0  0  0  0  0  0  0  0  0  0  0  0
  148.5838  138.3593  153.7014 N   0  0  0  0  0  0  0  0  0  0  0  0
  147.2622  138.1477  153.8291 C   0  0  0  0  0  0  0  0  0  0  0  0
  146.5115  138.7499  154.5960 O   0  0  0  0  0  0  0  0  0  0  0  0
  146.8519  137.1650  153.0144 N   0  0  0  0  0  0  0  0  0  0  0  0
  145.4764  136.6777  152.8936 C   0  0  2  0  0  0  0  0  0  0  0  0
  145.1316  135.7049  154.0427 C   0  0  0  0  0  0  0  0  0  0  0  0
  145.8826  134.3688  153.9178 C   0  0  0  0  0  0  0  0  0  0  0  0
  145.6331  133.7185  152.5497 C   0  0  0  0  0  0  0  0  0  0  0  0
  145.9929  134.6751  151.4017 C   0  0  0  0  0  0  0  0  0  0  0  0
  145.2318  136.0139  151.5117 C   0  0  2  0  0  0  0  0  0  0  0  0
  145.5531  136.9344  150.3150 C   0  0  0  0  0  0  0  0  0  0  0  0
  146.7683  137.6233  150.5227 O   0  0  0  0  0  0  0  0  0  0  0  0
  152.3100  137.4118  154.6892 H   0  0  0  0  0  0  0  0  0  0  0  0
  151.2664  137.3888  153.2672 H   0  0  0  0  0  0  0  0  0  0  0  0
  150.6775  136.7554  154.8118 H   0  0  0  0  0  0  0  0  0  0  0  0
  152.5844  139.5813  155.6353 H   0  0  0  0  0  0  0  0  0  0  0  0
  149.6186  142.4454  155.6833 H   0  0  0  0  0  0  0  0  0  0  0  0
  148.0174  140.9758  154.5030 H   0  0  0  0  0  0  0  0  0  0  0  0
  149.0702  137.7308  153.0792 H   0  0  0  0  0  0  0  0  0  0  0  0
  147.5405  136.7195  152.4260 H   0  0  0  0  0  0  0  0  0  0  0  0
  144.8080  137.5368  152.9743 H   0  0  0  0  0  0  0  0  0  0  0  0
  145.3436  136.1626  155.0096 H   0  0  0  0  0  0  0  0  0  0  0  0
  144.0584  135.5104  154.0333 H   0  0  0  0  0  0  0  0  0  0  0  0
  146.9520  134.5306  154.0584 H   0  0  0  0  0  0  0  0  0  0  0  0
  145.5671  133.6915  154.7118 H   0  0  0  0  0  0  0  0  0  0  0  0
  146.2142  132.7999  152.4644 H   0  0  0  0  0  0  0  0  0  0  0  0
  144.5846  133.4289  152.4690 H   0  0  0  0  0  0  0  0  0  0  0  0
  147.0684  134.8563  151.4013 H   0  0  0  0  0  0  0  0  0  0  0  0
  145.7641  134.1942  150.4501 H   0  0  0  0  0  0  0  0  0  0  0  0
  144.1684  135.7760  151.4513 H   0  0  0  0  0  0  0  0  0  0  0  0
  145.6079  136.3746  149.3811 H   0  0  0  0  0  0  0  0  0  0  0  0
  144.7650  137.6777  150.1914 H   0  0  0  0  0  0  0  0  0  0  0  0
  147.2092  137.2403  151.2658 H   0  0  0  0  0  0  0  0  0  0  0  0
  1  2  1  0  0  0  0
  1 20  1  0  0  0  0
  1 21  1  0  0  0  0
  1 22  1  0  0  0  0
  2  7  1  0  0  0  0
  2  3  2  0  0  0  0
  3  4  1  0  0  0  0
  3 23  1  0  0  0  0
  4  5  2  0  0  0  0
  5  6  1  0  0  0  0
  5 24  1  0  0  0  0
  6  7  2  0  0  0  0
  6 25  1  0  0  0  0
  7  8  1  0  0  0  0
  8  9  1  0  0  0  0
  8 26  1  0  0  0  0
  9 10  2  0  0  0  0
  9 11  1  0  0  0  0
 11 12  1  0  0  0  0
 11 27  1  0  0  0  0
 12 17  1  0  0  0  0
 12 13  1  0  0  0  0
 12 28  1  0  0  0  0
 13 14  1  0  0  0  0
 13 29  1  0  0  0  0
 13 30  1  0  0  0  0
 14 15  1  0  0  0  0
 14 31  1  0  0  0  0
 14 32  1  0  0  0  0
 15 16  1  0  0  0  0
 15 33  1  0  0  0  0
 15 34  1  0  0  0  0
 16 17  1  0  0  0  0
 16 35  1  0  0  0  0
 16 36  1  0  0  0  0
 17 18  1  0  0  0  0
 17 37  1  0  0  0  0
 18 19  1  0  0  0  0
 18 38  1  0  0  0  0
 18 39  1  0  0  0  0
 19 40  1  0  0  0  0
M  END
> <s_m_source_file>
AV-unprocessed.smi

> <i_m_source_file_index>
2453

> <i_lp_mmshare_version>
43012

> <i_f3d_flags>
0

> <s_epik_input>
W0NIM11jMVtjSF1uW2NIXVtjSF1jMVtOSF1DKD1PKVtOSF1bQ0BASF0yW0NIMl1bQ0gyXVtDSDJdW0NIMl1bQ0BIXTJbQ0gyXVtPSF0=

> <s_epik_cmdline>
J2VwaWtfcHl0aG9uJywgJy1waCcsICc3LjAnLCAnLXRuJywgJzgnLCAnLW1hJywgJzIwMCcsICctbWV0YWxfYmluZGluZycsICctaW1hZScsICc8aW5maWxlLm1hZT4nLCAnLW9tYWUnLCAnPG91dGZpbGUubWFlPic=

> <r_epik_Ionization_Penalty>
0.210691

> <r_epik_Ionization_Penalty_Charging>
0

> <r_epik_Ionization_Penalty_Neutral>
0.210691

> <r_epik_State_Penalty>
0.200732

> <r_epik_Charging_Adjusted_Penalty>
0.200732

> <i_epik_Tot_Q>
0

> <i_epik_Tot_abs_Q>
0

> <r_epik_Metal_State_Penalty>
0.147519

> <b_epik_Metal_Only>
0

> <s_lp_Force_Field>
OPLS_2005

> <r_lp_Energy>
18.5766

> <b_lp_Chiralities_Consistent>
1

> <s_lp_Variant>
AV-unprocessed.smi:2453-3

> <Gold.Version>
5.8.1

> <Gold.Id.Protein>
6NUR|6NUR_protein|mol2

> <Gold.PLP.Fitness>
41.2562

> <Gold.PLP.PLP>
-29.7361

> <Gold.PLP.part.hbond>
-5.7637

> <Gold.PLP.part.metal>
0.0000

> <Gold.PLP.part.buried>
3.1744

> <Gold.PLP.part.nonpolar>
-27.7327

> <Gold.PLP.part.repulsive>
0.1797

> <Gold.PLP.ligand.clash>
0.0000

> <Gold.PLP.ligand.torsion>
0.7520

> <Gold.PLP.Chemscore.Hbond>
3.3350

> <Gold.PLP.Chemscore.CHOScore>
1.0000

> <Gold.PLP.Chemscore.Metal>
0.0000

> <Gold.Chemscore.Hbonds>
donor molecule, donor type, donor heavy atom, donor atom, acceptor molecule, acceptor atom, score
      L1  H     8    26       P1  7948  0.98
      L1  H    11    27       P1  7948  1.00
      L1  H    19    40       P1  7948  0.77
      P1  H  7954  7966       L1    19  0.40
      L1  C     5    24       P1  8028  1.00

> <Gold.PLP.Chemscore.Internal.Correction>
0.0191

> <Gold.Rescore>
     Score         DG    S(hbond)    S(metal)    S(lipo)     H(rot)  DE(clash)    DE(int)     intcor
     14.12     -18.66       2.91        0.00      67.80       1.75       1.67       2.87       ----

> <Gold.Chemscore.Fitness>
14.1217

> <Gold.Chemscore.DG>
-18.6552

> <Gold.Chemscore.ZeroCoef>
-5.4800

> <Gold.Chemscore.Hbond>
2.9104

> <Gold.Chemscore.Metal>
0.0000

> <Gold.Chemscore.Lipo>
67.7994

> <Gold.Chemscore.Internal_Hbond>
0.0000

> <Gold.Chemscore.DEClash>
1.6657

> <Gold.Chemscore.DEInternal>
2.8678

> <Gold.Chemscore.Rot>
1.7493

> <Gold.Chemscore.Internal.Correction>
   9.000000E+99

> <Gold.Chemscore.Hbonds>
donor molecule, donor type, donor heavy atom, donor atom, acceptor molecule, acceptor atom, score
      L1  H     8    26       P1  7948  0.93
      L1  H    11    27       P1  7948  0.98
      L1  H    19    40       P1  7948  0.74
      P1  H  7954  7966       L1    19  0.01

> <Gold.Chemscore.Hbond.Weighted>
-9.7208

> <Gold.Chemscore.Metal.Weighted>
-0.0000

> <Gold.Chemscore.Lipo.Weighted>
-7.9325

> <Gold.Chemscore.Internal_Hbond.Weighted>
0.0000

> <Gold.Chemscore.DEClash.Weighted>
1.6657

> <Gold.Chemscore.DEInternal.Weighted>
2.8678

> <Gold.Chemscore.Rot.Weighted>
4.4782

> <Gold.Chemscore.Internal.Correction.Weighted>
   9.000000E+99

> <Gold.Protein.RotatedTorsions>
[ 6907 6896 6895 6894 ] final -102.72 input  -60.11 | X-H torsion
[ 7974 7965 7964 7962 ] final  119.26 input  175.53 | X-H torsion
[ 8008 7997 7996 7995 ] final  -33.00 input   59.86 | X-H torsion
[ 10167 10162 10161 10158 ] final  -43.38 input  -65.29 | X-H torsion
[ 10718 10713 10712 10709 ] final   87.22 input   66.30 | X-H torsion
[ 10763 10752 10751 10750 ] final   -1.69 input  -60.55 | X-H torsion
[ 11005 11000 10999 10996 ] final   20.42 input  -57.11 | X-H torsion

> <Gold.Protein.ActiveResidues>
 VAL166  LYS551  ARG553  GLY616  TRP617  ASP618  TYR619  PRO620  LYS621  CYS622 
 ASP623  PHE694  ASN695  SER759  ASP760  ASP761  ALA762  ILE779  LEU786  VAL792 
 PHE793  MET794  SER795  GLU796  ALA797  LYS798  CYS799  TRP800  GLU811  SER814 

> <Gold.Protein.RotatedAtoms>
  150.7208  134.0539  159.3807 H   0  0  0  0  0  0  0  0  0  0  0  0  # atno 6907 bound_to 6896
  151.8517  135.0553  160.0469 H   0  0  0  0  0  0  0  0  0  0  0  0  # atno 6908 bound_to 6896
  152.2785  133.5412  159.5519 H   0  0  0  0  0  0  0  0  0  0  0  0  # atno 6909 bound_to 6896
  145.1453  139.3243  143.4595 H   0  0  0  0  0  0  0  0  0  0  0  0  # atno 7974 bound_to 7965
  154.4162  140.1722  156.1818 H   0  0  0  0  0  0  0  0  0  0  0  0  # atno 8008 bound_to 7997
  155.9676  140.3388  155.6522 H   0  0  0  0  0  0  0  0  0  0  0  0  # atno 8009 bound_to 7997
  155.6667  140.0707  157.2525 H   0  0  0  0  0  0  0  0  0  0  0  0  # atno 8010 bound_to 7997
  140.6936  143.2986  151.3344 H   0  0  0  0  0  0  0  0  0  0  0  0  # atno 10167 bound_to 10162
  157.6938  131.0247  150.3090 H   0  0  0  0  0  0  0  0  0  0  0  0  # atno 10718 bound_to 10713
  153.3481  135.6984  153.6811 H   0  0  0  0  0  0  0  0  0  0  0  0  # atno 10763 bound_to 10752
  153.5549  135.3546  155.2775 H   0  0  0  0  0  0  0  0  0  0  0  0  # atno 10764 bound_to 10752
  154.8648  135.4235  154.2710 H   0  0  0  0  0  0  0  0  0  0  0  0  # atno 10765 bound_to 10752
  140.4028  134.1700  155.7664 H   0  0  0  0  0  0  0  0  0  0  0  0  # atno 11005 bound_to 11000
  146.3501  140.1506  142.8592 LP  0  0  0  0  0  0  0  0  0  0  0  0  # atno 17320 bound_to 7965
  145.0488  140.9002  143.5008 LP  0  0  0  0  0  0  0  0  0  0  0  0  # atno 17321 bound_to 7965
  139.6365  144.0621  152.2519 LP  0  0  0  0  0  0  0  0  0  0  0  0  # atno 17342 bound_to 10162
  140.0113  144.6222  150.7645 LP  0  0  0  0  0  0  0  0  0  0  0  0  # atno 17343 bound_to 10162
  156.3594  130.3844  149.7263 LP  0  0  0  0  0  0  0  0  0  0  0  0  # atno 17370 bound_to 10713
  156.4715  130.7998  151.3016 LP  0  0  0  0  0  0  0  0  0  0  0  0  # atno 17371 bound_to 10713
  141.1850  133.8332  157.1119 LP  0  0  0  0  0  0  0  0  0  0  0  0  # atno 17394 bound_to 11000
  140.0323  134.9895  157.0805 LP  0  0  0  0  0  0  0  0  0  0  0  0  # atno 17395 bound_to 11000

$$$$
