AV-unprocessed.smi:774|AV-procd|sdf|3693|dock5
  -GOLD-   22720 1113D 1   1.00000     0.00000
 Structure written by MMmdl.
 37 38  0  0  0  0  0  0  0  0  1 V2000
  145.2919  132.4725  150.0206 C   0  0  0  0  0  0  0  0  0  0  0  0
  145.6366  132.8555  151.4621 C   0  0  0  0  0  0  0  0  0  0  0  0
  145.1849  131.5384  152.6245 S   0  0  0  0  0  0  0  0  0  0  0  0
  145.6331  132.3236  154.1997 C   0  0  2  0  0  0  0  0  0  0  0  0
  144.8431  133.5997  154.4844 C   0  0  0  0  0  0  0  0  0  0  0  0
  145.6872  134.3375  155.5240 C   0  0  0  0  0  0  0  0  0  0  0  0
  147.1513  133.9454  155.2406 C   0  0  2  0  0  0  0  0  0  0  0  0
  147.9126  135.0679  154.6980 N   0  0  0  0  0  0  0  0  0  0  0  0
  148.5904  135.9640  155.4292 C   0  0  0  0  0  0  0  0  0  0  0  0
  148.6365  135.9404  156.6591 O   0  0  0  0  0  0  0  0  0  0  0  0
  149.1797  136.8836  154.6459 N   0  0  0  0  0  0  0  0  0  0  0  0
  149.9919  137.9838  155.0326 C   0  0  0  0  0  0  0  0  0  0  0  0
  150.5219  137.9874  156.3394 C   0  0  0  0  0  0  0  0  0  0  0  0
  151.3153  139.0735  156.7555 C   0  0  0  0  0  0  0  0  0  0  0  0
  151.5409  140.1247  155.8459 C   0  0  0  0  0  0  0  0  0  0  0  0
  151.0290  140.1454  154.5973 N   0  0  0  0  0  0  0  0  0  0  0  0
  150.2704  139.0993  154.2039 C   0  0  0  0  0  0  0  0  0  0  0  0
  147.0940  132.7824  154.2322 C   0  0  0  0  0  0  0  0  0  0  0  0
  145.5664  133.2704  149.3304 H   0  0  0  0  0  0  0  0  0  0  0  0
  144.2233  132.2876  149.9078 H   0  0  0  0  0  0  0  0  0  0  0  0
  145.8231  131.5705  149.7154 H   0  0  0  0  0  0  0  0  0  0  0  0
  146.7044  133.0574  151.5471 H   0  0  0  0  0  0  0  0  0  0  0  0
  145.1115  133.7696  151.7402 H   0  0  0  0  0  0  0  0  0  0  0  0
  145.4708  131.6108  155.0094 H   0  0  0  0  0  0  0  0  0  0  0  0
  144.7683  134.2040  153.5792 H   0  0  0  0  0  0  0  0  0  0  0  0
  143.8312  133.4013  154.8383 H   0  0  0  0  0  0  0  0  0  0  0  0
  145.5111  135.4139  155.4998 H   0  0  0  0  0  0  0  0  0  0  0  0
  145.4115  133.9926  156.5214 H   0  0  0  0  0  0  0  0  0  0  0  0
  147.6184  133.5982  156.1644 H   0  0  0  0  0  0  0  0  0  0  0  0
  147.9225  135.1671  153.6933 H   0  0  0  0  0  0  0  0  0  0  0  0
  148.9798  136.8195  153.6586 H   0  0  0  0  0  0  0  0  0  0  0  0
  150.3280  137.1674  157.0156 H   0  0  0  0  0  0  0  0  0  0  0  0
  151.7395  139.1009  157.7482 H   0  0  0  0  0  0  0  0  0  0  0  0
  152.1441  140.9742  156.1305 H   0  0  0  0  0  0  0  0  0  0  0  0
  149.8682  139.1859  153.2067 H   0  0  0  0  0  0  0  0  0  0  0  0
  147.7699  131.9704  154.5024 H   0  0  0  0  0  0  0  0  0  0  0  0
  147.3887  133.1270  153.2392 H   0  0  0  0  0  0  0  0  0  0  0  0
  1  2  1  0  0  0  0
  1 19  1  0  0  0  0
  1 20  1  0  0  0  0
  1 21  1  0  0  0  0
  2  3  1  0  0  0  0
  2 22  1  0  0  0  0
  2 23  1  0  0  0  0
  3  4  1  0  0  0  0
  4 18  1  0  0  0  0
  4  5  1  0  0  0  0
  4 24  1  0  0  0  0
  5  6  1  0  0  0  0
  5 25  1  0  0  0  0
  5 26  1  0  0  0  0
  6  7  1  0  0  0  0
  6 27  1  0  0  0  0
  6 28  1  0  0  0  0
  7  8  1  0  0  0  0
  7 18  1  0  0  0  0
  7 29  1  0  0  0  0
  8  9  1  0  0  0  0
  8 30  1  0  0  0  0
  9 10  2  0  0  0  0
  9 11  1  0  0  0  0
 11 12  1  0  0  0  0
 11 31  1  0  0  0  0
 12 17  1  0  0  0  0
 12 13  2  0  0  0  0
 13 14  1  0  0  0  0
 13 32  1  0  0  0  0
 14 15  2  0  0  0  0
 14 33  1  0  0  0  0
 15 16  1  0  0  0  0
 15 34  1  0  0  0  0
 16 17  2  0  0  0  0
 17 35  1  0  0  0  0
 18 36  1  0  0  0  0
 18 37  1  0  0  0  0
M  END
> <s_m_source_file>
AV-unprocessed.smi

> <i_m_source_file_index>
774

> <i_lp_mmshare_version>
43012

> <i_f3d_flags>
0

> <s_epik_input>
W0NIM11bQ0gyXVNbQ0BASF0xW0NIMl1bQ0gyXVtDQEhdKFtDSDJdMSlbTkhdQyg9TylbTkhdYzJbY0hdW2NIXVtjSF1uW2NIXTI=

> <s_epik_cmdline>
J2VwaWtfcHl0aG9uJywgJy1waCcsICc3LjAnLCAnLXRuJywgJzgnLCAnLW1hJywgJzIwMCcsICctbWV0YWxfYmluZGluZycsICctaW1hZScsICc8aW5maWxlLm1hZT4nLCAnLW9tYWUnLCAnPG91dGZpbGUubWFlPic=

> <r_epik_Ionization_Penalty>
0.00485718

> <r_epik_Ionization_Penalty_Charging>
0

> <r_epik_Ionization_Penalty_Neutral>
0.00485718

> <r_epik_State_Penalty>
0.00349461

> <r_epik_Charging_Adjusted_Penalty>
0.00349461

> <i_epik_Tot_Q>
0

> <i_epik_Tot_abs_Q>
0

> <r_epik_Metal_State_Penalty>
-0

> <b_epik_Metal_Only>
0

> <s_lp_Force_Field>
OPLS_2005

> <r_lp_Energy>
20.2727

> <b_lp_Chiralities_Consistent>
1

> <s_lp_Variant>
AV-unprocessed.smi:774-3

> <Gold.Version>
5.8.1

> <Gold.Id.Protein>
6NUR|6NUR_protein|mol2

> <Gold.PLP.Fitness>
41.8780

> <Gold.PLP.PLP>
-31.1854

> <Gold.PLP.part.hbond>
-3.8279

> <Gold.PLP.part.metal>
0.0000

> <Gold.PLP.part.buried>
-2.3397

> <Gold.PLP.part.nonpolar>
-24.8052

> <Gold.PLP.part.repulsive>
0.1717

> <Gold.PLP.ligand.clash>
0.0000

> <Gold.PLP.ligand.torsion>
0.4435

> <Gold.PLP.Chemscore.Hbond>
2.8560

> <Gold.PLP.Chemscore.CHOScore>
1.0000

> <Gold.PLP.Chemscore.Metal>
0.0000

> <Gold.Chemscore.Hbonds>
donor molecule, donor type, donor heavy atom, donor atom, acceptor molecule, acceptor atom, score
      L1  H     8    30       P1  7948  0.21
      L1  H    11    31       P1  7948  1.00
      P1  H  7989  7998       L1    16  0.80
      L1  C    17    35       P1  7957  1.00

> <Gold.PLP.Chemscore.Internal.Correction>
0.0116

> <Gold.Rescore>
     Score         DG    S(hbond)    S(metal)    S(lipo)     H(rot)  DE(clash)    DE(int)     intcor
     15.95     -17.99       2.25        0.00      71.24       1.30       0.00       2.04       ----

> <Gold.Chemscore.Fitness>
15.9495

> <Gold.Chemscore.DG>
-17.9902

> <Gold.Chemscore.ZeroCoef>
-5.4800

> <Gold.Chemscore.Hbond>
2.2495

> <Gold.Chemscore.Metal>
0.0000

> <Gold.Chemscore.Lipo>
71.2431

> <Gold.Chemscore.Internal_Hbond>
0.0000

> <Gold.Chemscore.DEClash>
0.0000

> <Gold.Chemscore.DEInternal>
2.0407

> <Gold.Chemscore.Rot>
1.3041

> <Gold.Chemscore.Internal.Correction>
   9.000000E+99

> <Gold.Chemscore.Hbonds>
donor molecule, donor type, donor heavy atom, donor atom, acceptor molecule, acceptor atom, score
      L1  H     8    30       P1  7948  0.21
      L1  H    11    31       P1  7948  1.00
      P1  H  7989  7998       L1    16  0.69

> <Gold.Chemscore.Hbond.Weighted>
-7.5132

> <Gold.Chemscore.Metal.Weighted>
-0.0000

> <Gold.Chemscore.Lipo.Weighted>
-8.3354

> <Gold.Chemscore.Internal_Hbond.Weighted>
0.0000

> <Gold.Chemscore.DEClash.Weighted>
0.0000

> <Gold.Chemscore.DEInternal.Weighted>
2.0407

> <Gold.Chemscore.Rot.Weighted>
3.3384

> <Gold.Chemscore.Internal.Correction.Weighted>
   9.000000E+99

> <Gold.Protein.RotatedTorsions>
[ 6907 6896 6895 6894 ] final   41.93 input  -60.11 | X-H torsion
[ 7974 7965 7964 7962 ] final   49.87 input  175.53 | X-H torsion
[ 8008 7997 7996 7995 ] final -123.02 input   59.86 | X-H torsion
[ 10167 10162 10161 10158 ] final -155.48 input  -65.29 | X-H torsion
[ 10718 10713 10712 10709 ] final  143.37 input   66.30 | X-H torsion
[ 10763 10752 10751 10750 ] final -100.48 input  -60.55 | X-H torsion
[ 11005 11000 10999 10996 ] final  -81.67 input  -57.11 | X-H torsion

> <Gold.Protein.ActiveResidues>
 VAL166  LYS551  ARG553  GLY616  TRP617  ASP618  TYR619  PRO620  LYS621  CYS622 
 ASP623  PHE694  ASN695  SER759  ASP760  ASP761  ALA762  ILE779  LEU786  VAL792 
 PHE793  MET794  SER795  GLU796  ALA797  LYS798  CYS799  TRP800  GLU811  SER814 

> <Gold.Protein.RotatedAtoms>
  152.2015  134.8584  160.0507 H   0  0  0  0  0  0  0  0  0  0  0  0  # atno 6907 bound_to 6896
  151.9435  133.3640  159.3982 H   0  0  0  0  0  0  0  0  0  0  0  0  # atno 6908 bound_to 6896
  150.6956  134.4338  159.5305 H   0  0  0  0  0  0  0  0  0  0  0  0  # atno 6909 bound_to 6896
  146.0067  139.4498  142.9981 H   0  0  0  0  0  0  0  0  0  0  0  0  # atno 7974 bound_to 7965
  155.1737  140.0409  157.2868 H   0  0  0  0  0  0  0  0  0  0  0  0  # atno 8008 bound_to 7997
  154.6251  140.2510  155.7474 H   0  0  0  0  0  0  0  0  0  0  0  0  # atno 8009 bound_to 7997
  156.2455  140.2887  156.0577 H   0  0  0  0  0  0  0  0  0  0  0  0  # atno 8010 bound_to 7997
  139.6927  143.9393  152.2393 H   0  0  0  0  0  0  0  0  0  0  0  0  # atno 10167 bound_to 10162
  157.3697  131.0977  151.0840 H   0  0  0  0  0  0  0  0  0  0  0  0  # atno 10718 bound_to 10713
  154.7582  135.4933  153.9414 H   0  0  0  0  0  0  0  0  0  0  0  0  # atno 10763 bound_to 10752
  153.1220  135.6734  153.9327 H   0  0  0  0  0  0  0  0  0  0  0  0  # atno 10764 bound_to 10752
  153.9056  135.3105  155.3427 H   0  0  0  0  0  0  0  0  0  0  0  0  # atno 10765 bound_to 10752
  141.1666  133.7207  156.8457 H   0  0  0  0  0  0  0  0  0  0  0  0  # atno 11005 bound_to 11000
  145.7405  141.0010  143.1303 LP  0  0  0  0  0  0  0  0  0  0  0  0  # atno 17320 bound_to 7965
  144.6938  139.9093  143.7462 LP  0  0  0  0  0  0  0  0  0  0  0  0  # atno 17321 bound_to 7965
  139.9214  144.6797  150.8458 LP  0  0  0  0  0  0  0  0  0  0  0  0  # atno 17342 bound_to 10162
  140.7687  143.3372  151.2283 LP  0  0  0  0  0  0  0  0  0  0  0  0  # atno 17343 bound_to 10162
  157.1949  130.6368  149.5717 LP  0  0  0  0  0  0  0  0  0  0  0  0  # atno 17370 bound_to 10713
  155.9753  130.4710  150.6449 LP  0  0  0  0  0  0  0  0  0  0  0  0  # atno 17371 bound_to 10713
  140.1951  134.8937  157.3105 LP  0  0  0  0  0  0  0  0  0  0  0  0  # atno 17394 bound_to 11000
  140.2247  134.3980  155.7549 LP  0  0  0  0  0  0  0  0  0  0  0  0  # atno 17395 bound_to 11000

$$$$
