AV-unprocessed.smi:81|AV-procd|sdf|788|dock6
  -GOLD-   2262017163D 1   1.00000     0.00000
 Structure written by MMmdl.
 64 67  0  0  0  0  0  0  0  0  2 V2000
  148.7993  134.1746  155.3001 C   0  0  0  0  0  0  0  0  0  0  0  0
  149.0842  135.3549  156.2436 C   0  0  0  0  0  0  0  0  0  0  0  0
  150.5957  135.5917  156.3671 C   0  0  0  0  0  0  0  0  0  0  0  0
  148.4572  135.1397  157.6399 C   0  0  0  0  0  0  0  0  0  0  0  0
  148.1856  136.3815  158.3700 N   0  0  0  0  0  0  0  0  0  0  0  0
  149.2610  137.1934  158.5258 C   0  0  0  0  0  0  0  0  0  0  0  0
  150.3312  136.7746  159.2517 N   0  0  0  0  0  0  0  0  0  0  0  0
  151.3973  137.5686  159.3900 C   0  0  0  0  0  0  0  0  0  0  0  0
  151.5974  138.7909  158.8927 N   0  0  0  0  0  0  0  0  0  0  0  0
  150.5294  139.2074  158.1537 C   0  0  0  0  0  0  0  0  0  0  0  0
  149.3302  138.4781  157.9246 C   0  0  0  0  0  0  0  0  0  0  0  0
  148.4662  139.2168  157.1265 N   0  0  0  0  0  0  0  0  0  0  0  0
  149.1196  140.3224  156.8944 C   0  0  0  0  0  0  0  0  0  0  0  0
  150.3701  140.3976  157.4662 N   0  0  0  0  0  0  0  0  0  0  0  0
  151.3108  141.5012  157.3601 C   0  0  0  0  0  0  0  0  0  0  0  0
  151.6007  142.1913  158.7143 C   0  0  1  0  0  0  0  0  0  0  0  0
  150.3687  142.5999  159.2867 O   0  0  0  0  0  0  0  0  0  0  0  0
  152.3307  141.3105  159.7176 C   0  0  0  0  0  0  0  0  0  0  0  0
  152.9924  142.3318  160.6343 C   0  0  0  0  0  0  0  0  0  0  0  0
  153.3535  143.4110  159.7814 O   0  0  0  0  0  0  0  0  0  0  0  0
  152.5691  143.3874  158.5893 C   0  0  2  0  0  0  0  0  0  0  0  0
  151.9354  144.7614  158.3189 C   0  0  0  0  0  0  0  0  0  0  0  0
  147.2755  136.2795  159.5198 C   0  0  2  0  0  0  0  0  0  0  0  0
  147.8756  135.5262  160.7257 C   0  0  0  0  0  0  0  0  0  0  0  0
  146.9038  135.5361  161.9166 C   0  0  0  0  0  0  0  0  0  0  0  0
  145.5943  134.9495  161.5380 N   0  3  1  0  0  0  0  0  0  0  0  0
  144.6777  134.8260  162.6917 C   0  0  0  0  0  0  0  0  0  0  0  0
  144.9724  135.6667  160.3971 C   0  0  0  0  0  0  0  0  0  0  0  0
  145.9007  135.6687  159.1711 C   0  0  0  0  0  0  0  0  0  0  0  0
  149.2043  133.2434  155.6974 H   0  0  0  0  0  0  0  0  0  0  0  0
  149.2461  134.3399  154.3193 H   0  0  0  0  0  0  0  0  0  0  0  0
  147.7293  134.0329  155.1484 H   0  0  0  0  0  0  0  0  0  0  0  0
  148.6612  136.2542  155.7945 H   0  0  0  0  0  0  0  0  0  0  0  0
  151.0977  134.7296  156.8078 H   0  0  0  0  0  0  0  0  0  0  0  0
  150.8073  136.4577  156.9953 H   0  0  0  0  0  0  0  0  0  0  0  0
  151.0456  135.7768  155.3913 H   0  0  0  0  0  0  0  0  0  0  0  0
  147.5255  134.5832  157.5305 H   0  0  0  0  0  0  0  0  0  0  0  0
  149.1129  134.5087  158.2412 H   0  0  0  0  0  0  0  0  0  0  0  0
  152.2076  137.1663  159.9801 H   0  0  0  0  0  0  0  0  0  0  0  0
  148.7075  141.1159  156.2881 H   0  0  0  0  0  0  0  0  0  0  0  0
  152.2343  141.1122  156.9291 H   0  0  0  0  0  0  0  0  0  0  0  0
  150.9202  142.2241  156.6425 H   0  0  0  0  0  0  0  0  0  0  0  0
  150.5184  143.3851  159.7908 H   0  0  0  0  0  0  0  0  0  0  0  0
  151.6797  140.6151  160.2497 H   0  0  0  0  0  0  0  0  0  0  0  0
  153.1031  140.7278  159.2139 H   0  0  0  0  0  0  0  0  0  0  0  0
  152.2832  142.6935  161.3799 H   0  0  0  0  0  0  0  0  0  0  0  0
  153.8586  141.9273  161.1581 H   0  0  0  0  0  0  0  0  0  0  0  0
  153.2760  143.1771  157.7855 H   0  0  0  0  0  0  0  0  0  0  0  0
  151.3278  144.7415  157.4139 H   0  0  0  0  0  0  0  0  0  0  0  0
  152.7059  145.5207  158.1842 H   0  0  0  0  0  0  0  0  0  0  0  0
  151.3010  145.0832  159.1452 H   0  0  0  0  0  0  0  0  0  0  0  0
  147.1017  137.3052  159.8481 H   0  0  0  0  0  0  0  0  0  0  0  0
  148.0989  134.4913  160.4628 H   0  0  0  0  0  0  0  0  0  0  0  0
  148.8188  135.9861  161.0226 H   0  0  0  0  0  0  0  0  0  0  0  0
  147.3353  134.9676  162.7414 H   0  0  0  0  0  0  0  0  0  0  0  0
  146.7591  136.5563  162.2759 H   0  0  0  0  0  0  0  0  0  0  0  0
  144.4180  135.8066  163.0929 H   0  0  0  0  0  0  0  0  0  0  0  0
  145.1376  134.2403  163.4884 H   0  0  0  0  0  0  0  0  0  0  0  0
  143.7565  134.3213  162.3988 H   0  0  0  0  0  0  0  0  0  0  0  0
  144.0280  135.1877  160.1359 H   0  0  0  0  0  0  0  0  0  0  0  0
  144.7380  136.6907  160.6920 H   0  0  0  0  0  0  0  0  0  0  0  0
  145.4272  136.2275  158.3635 H   0  0  0  0  0  0  0  0  0  0  0  0
  146.0174  134.6452  158.8144 H   0  0  0  0  0  0  0  0  0  0  0  0
  145.7815  134.0092  161.2198 H   0  0  0  0  0  0  0  0  0  0  0  0
  1  2  1  0  0  0  0
  1 30  1  0  0  0  0
  1 31  1  0  0  0  0
  1 32  1  0  0  0  0
  2  3  1  0  0  0  0
  2  4  1  0  0  0  0
  2 33  1  0  0  0  0
  3 34  1  0  0  0  0
  3 35  1  0  0  0  0
  3 36  1  0  0  0  0
  4  5  1  0  0  0  0
  4 37  1  0  0  0  0
  4 38  1  0  0  0  0
  5  6  1  0  0  0  0
  5 23  1  0  0  0  0
  6 11  1  0  0  0  0
  6  7  2  0  0  0  0
  7  8  1  0  0  0  0
  8  9  2  0  0  0  0
  8 39  1  0  0  0  0
  9 10  1  0  0  0  0
 10 14  1  0  0  0  0
 10 11  2  0  0  0  0
 11 12  1  0  0  0  0
 12 13  2  0  0  0  0
 13 14  1  0  0  0  0
 13 40  1  0  0  0  0
 14 15  1  0  0  0  0
 15 16  1  0  0  0  0
 15 41  1  0  0  0  0
 15 42  1  0  0  0  0
 16 21  1  0  0  0  0
 16 17  1  0  0  0  0
 16 18  1  0  0  0  0
 17 43  1  0  0  0  0
 18 19  1  0  0  0  0
 18 44  1  0  0  0  0
 18 45  1  0  0  0  0
 19 20  1  0  0  0  0
 19 46  1  0  0  0  0
 19 47  1  0  0  0  0
 20 21  1  0  0  0  0
 21 22  1  0  0  0  0
 21 48  1  0  0  0  0
 22 49  1  0  0  0  0
 22 50  1  0  0  0  0
 22 51  1  0  0  0  0
 23 29  1  0  0  0  0
 23 24  1  0  0  0  0
 23 52  1  0  0  0  0
 24 25  1  0  0  0  0
 24 53  1  0  0  0  0
 24 54  1  0  0  0  0
 25 26  1  0  0  0  0
 25 55  1  0  0  0  0
 25 56  1  0  0  0  0
 26 27  1  0  0  0  0
 26 28  1  0  0  0  0
 26 64  1  0  0  0  0
 27 57  1  0  0  0  0
 27 58  1  0  0  0  0
 27 59  1  0  0  0  0
 28 29  1  0  0  0  0
 28 60  1  0  0  0  0
 28 61  1  0  0  0  0
 29 62  1  0  0  0  0
 29 63  1  0  0  0  0
M  CHG  1  26   1
M  END
> <s_m_source_file>
AV-unprocessed.smi

> <i_m_source_file_index>
81

> <i_lp_mmshare_version>
43012

> <i_f3d_flags>
0

> <s_epik_input>
W0NIMl0xW0NIMl1OKFtDSDNdKVtDSDJdW0NIMl1bQ0hdMU4oW0NIMl1bQ0hdKFtDSDNdKVtDSDNdKWMobltjSF1uMiljKGMyMyluW2NIXW4zW0NIMl1bQ0BAXTQoW09IXSlbQ0gyXVtDSDJdT1tDQEhdNFtDSDNd

> <s_epik_cmdline>
J2VwaWtfcHl0aG9uJywgJy1waCcsICc3LjAnLCAnLXRuJywgJzgnLCAnLW1hJywgJzIwMCcsICctbWV0YWxfYmluZGluZycsICctaW1hZScsICc8aW5maWxlLm1hZT4nLCAnLW9tYWUnLCAnPG91dGZpbGUubWFlPic=

> <r_lp_tautomer_probability>
1

> <r_epik_Ionization_Penalty>
0.00272708

> <r_epik_Ionization_Penalty_Charging>
0.00158983

> <r_epik_Ionization_Penalty_Neutral>
0.00113725

> <r_epik_State_Penalty>
-0

> <r_epik_Charging_Adjusted_Penalty>
0.00158983

> <i_epik_Tot_Q>
1

> <i_epik_Tot_abs_Q>
1

> <r_epik_Metal_State_Penalty>
-0

> <b_epik_Metal_Only>
0

> <s_lp_Force_Field>
OPLS_2005

> <r_lp_Energy>
45.229

> <b_lp_Chiralities_Consistent>
1

> <s_lp_Variant>
AV-unprocessed.smi:81-3

> <Gold.Version>
5.8.1

> <Gold.Id.Protein>
6NUR|6NUR_protein|mol2

> <Gold.PLP.Fitness>
45.1458

> <Gold.PLP.PLP>
-42.7311

> <Gold.PLP.part.hbond>
-2.0000

> <Gold.PLP.part.metal>
0.0000

> <Gold.PLP.part.buried>
-7.1752

> <Gold.PLP.part.nonpolar>
-33.4013

> <Gold.PLP.part.repulsive>
0.0232

> <Gold.PLP.ligand.clash>
0.0000

> <Gold.PLP.ligand.torsion>
0.6903

> <Gold.PLP.Chemscore.Hbond>
1.0000

> <Gold.PLP.Chemscore.CHOScore>
0.0000

> <Gold.PLP.Chemscore.Metal>
0.0000

> <Gold.Chemscore.Hbonds>
donor molecule, donor type, donor heavy atom, donor atom, acceptor molecule, acceptor atom, score
      P1  H  6896  6907       L1     7  1.00

> <Gold.PLP.Chemscore.Internal.Correction>
0.7954

> <Gold.Rescore>
     Score         DG    S(hbond)    S(metal)    S(lipo)     H(rot)  DE(clash)    DE(int)     intcor
     12.04     -14.52       0.92        0.00     107.30       2.58       0.05       2.44       ----

> <Gold.Chemscore.Fitness>
12.0371

> <Gold.Chemscore.DG>
-14.5193

> <Gold.Chemscore.ZeroCoef>
-5.4800

> <Gold.Chemscore.Hbond>
0.9233

> <Gold.Chemscore.Metal>
0.0000

> <Gold.Chemscore.Lipo>
107.2971

> <Gold.Chemscore.Internal_Hbond>
0.0000

> <Gold.Chemscore.DEClash>
0.0471

> <Gold.Chemscore.DEInternal>
2.4350

> <Gold.Chemscore.Rot>
2.5774

> <Gold.Chemscore.Internal.Correction>
   9.000000E+99

> <Gold.Chemscore.Hbonds>
donor molecule, donor type, donor heavy atom, donor atom, acceptor molecule, acceptor atom, score
      P1  H  6896  6907       L1     7  0.44

> <Gold.Chemscore.Hbond.Weighted>
-3.0838

> <Gold.Chemscore.Metal.Weighted>
-0.0000

> <Gold.Chemscore.Lipo.Weighted>
-12.5538

> <Gold.Chemscore.Internal_Hbond.Weighted>
0.0000

> <Gold.Chemscore.DEClash.Weighted>
0.0471

> <Gold.Chemscore.DEInternal.Weighted>
2.4350

> <Gold.Chemscore.Rot.Weighted>
6.5982

> <Gold.Chemscore.Internal.Correction.Weighted>
   9.000000E+99

> <Gold.Protein.RotatedTorsions>
[ 6907 6896 6895 6894 ] final  -38.20 input  -60.11 | X-H torsion
[ 7974 7965 7964 7962 ] final  -78.05 input  175.53 | X-H torsion
[ 8008 7997 7996 7995 ] final  141.38 input   59.86 | X-H torsion
[ 10167 10162 10161 10158 ] final -105.94 input  -65.29 | X-H torsion
[ 10718 10713 10712 10709 ] final  -30.00 input   66.30 | X-H torsion
[ 10763 10752 10751 10750 ] final   82.57 input  -60.55 | X-H torsion
[ 11005 11000 10999 10996 ] final  -81.18 input  -57.11 | X-H torsion

> <Gold.Protein.ActiveResidues>
 VAL166  LYS551  ARG553  GLY616  TRP617  ASP618  TYR619  PRO620  LYS621  CYS622 
 ASP623  PHE694  ASN695  SER759  ASP760  ASP761  ALA762  ILE779  LEU786  VAL792 
 PHE793  MET794  SER795  GLU796  ALA797  LYS798  CYS799  TRP800  GLU811  SER814 

> <Gold.Protein.RotatedAtoms>
  151.0053  134.9355  159.7976 H   0  0  0  0  0  0  0  0  0  0  0  0  # atno 6907 bound_to 6896
  152.5289  134.3099  159.9120 H   0  0  0  0  0  0  0  0  0  0  0  0  # atno 6908 bound_to 6896
  151.3105  133.4041  159.2681 H   0  0  0  0  0  0  0  0  0  0  0  0  # atno 6909 bound_to 6896
  145.5916  140.9428  143.1289 H   0  0  0  0  0  0  0  0  0  0  0  0  # atno 7974 bound_to 7965
  156.2966  140.2316  156.4555 H   0  0  0  0  0  0  0  0  0  0  0  0  # atno 8008 bound_to 7997
  154.8064  140.0445  157.1331 H   0  0  0  0  0  0  0  0  0  0  0  0  # atno 8009 bound_to 7997
  154.9474  140.3037  155.5095 H   0  0  0  0  0  0  0  0  0  0  0  0  # atno 8010 bound_to 7997
  140.1931  143.3876  152.1190 H   0  0  0  0  0  0  0  0  0  0  0  0  # atno 10167 bound_to 10162
  156.4053  130.4398  149.7292 H   0  0  0  0  0  0  0  0  0  0  0  0  # atno 10718 bound_to 10713
  153.1215  135.4723  154.9202 H   0  0  0  0  0  0  0  0  0  0  0  0  # atno 10763 bound_to 10752
  154.7579  135.3123  154.8436 H   0  0  0  0  0  0  0  0  0  0  0  0  # atno 10764 bound_to 10752
  153.9000  135.6876  153.4809 H   0  0  0  0  0  0  0  0  0  0  0  0  # atno 10765 bound_to 10752
  141.1667  133.7184  156.8383 H   0  0  0  0  0  0  0  0  0  0  0  0  # atno 11005 bound_to 11000
  144.7349  139.7616  143.7333 LP  0  0  0  0  0  0  0  0  0  0  0  0  # atno 17320 bound_to 7965
  146.1642  139.4768  142.9969 LP  0  0  0  0  0  0  0  0  0  0  0  0  # atno 17321 bound_to 7965
  139.5247  144.7087  151.5273 LP  0  0  0  0  0  0  0  0  0  0  0  0  # atno 17342 bound_to 10162
  140.6442  143.8828  150.6721 LP  0  0  0  0  0  0  0  0  0  0  0  0  # atno 17343 bound_to 10162
  156.4292  130.7807  151.2826 LP  0  0  0  0  0  0  0  0  0  0  0  0  # atno 17370 bound_to 10713
  157.7505  131.0159  150.3523 LP  0  0  0  0  0  0  0  0  0  0  0  0  # atno 17371 bound_to 10713
  140.2001  134.8903  157.3159 LP  0  0  0  0  0  0  0  0  0  0  0  0  # atno 17394 bound_to 11000
  140.2196  134.4039  155.7572 LP  0  0  0  0  0  0  0  0  0  0  0  0  # atno 17395 bound_to 11000

$$$$
