AV-unprocessed.smi:2858|AV-procd|sdf|11003|dock5
  -GOLD-   2272015463D 1   1.00000     0.00000
 Structure written by MMmdl.
 39 40  0  0  0  0  0  0  0  0  3 V2000
  149.9895  134.4424  155.3548 O   0  0  0  0  0  0  0  0  0  0  0  0
  150.1642  135.6325  155.1027 C   0  0  0  0  0  0  0  0  0  0  0  0
  148.9070  136.5442  155.1166 C   0  0  0  0  0  0  0  0  0  0  0  0
  149.1213  137.8166  154.3677 N   0  3  1  0  0  0  0  0  0  0  0  0
  147.9585  138.7386  154.4269 C   0  0  0  0  0  0  0  0  0  0  0  0
  148.3355  140.1951  154.1067 C   0  0  0  0  0  0  0  0  0  0  0  0
  147.4899  141.2044  154.9015 C   0  0  0  0  0  0  0  0  0  0  0  0
  148.3226  142.1831  155.5915 N   0  0  0  0  0  0  0  0  0  0  0  0
  149.3051  141.8844  156.4540 C   0  0  0  0  0  0  0  0  0  0  0  0
  149.6148  140.7307  156.7534 O   0  0  0  0  0  0  0  0  0  0  0  0
  149.8870  142.9973  156.9353 N   0  0  0  0  0  0  0  0  0  0  0  0
  150.9742  143.0967  157.8442 C   0  0  0  0  0  0  0  0  0  0  0  0
  151.6607  144.3319  157.8236 C   0  0  0  0  0  0  0  0  0  0  0  0
  152.7571  144.5296  158.6854 C   0  0  0  0  0  0  0  0  0  0  0  0
  153.1391  143.4858  159.5469 C   0  0  0  0  0  0  0  0  0  0  0  0
  152.4029  142.2876  159.5037 C   0  0  0  0  0  0  0  0  0  0  0  0
  151.3523  142.0957  158.6780 N   0  0  0  0  0  0  0  0  0  0  0  0
  150.3898  138.4822  154.7623 C   0  0  0  0  0  0  0  0  0  0  0  0
  151.5978  137.5977  154.3998 C   0  0  0  0  0  0  0  0  0  0  0  0
  151.3757  136.2218  154.8575 N   0  5  0  0  0  0  0  0  0  0  0  0
  148.0770  135.9869  154.6837 H   0  0  0  0  0  0  0  0  0  0  0  0
  148.6480  136.7622  156.1537 H   0  0  0  0  0  0  0  0  0  0  0  0
  147.1729  138.3873  153.7566 H   0  0  0  0  0  0  0  0  0  0  0  0
  147.5413  138.7123  155.4345 H   0  0  0  0  0  0  0  0  0  0  0  0
  149.3927  140.3469  154.3285 H   0  0  0  0  0  0  0  0  0  0  0  0
  148.2085  140.3941  153.0427 H   0  0  0  0  0  0  0  0  0  0  0  0
  146.8245  141.7441  154.2272 H   0  0  0  0  0  0  0  0  0  0  0  0
  146.8515  140.6883  155.6205 H   0  0  0  0  0  0  0  0  0  0  0  0
  148.1330  143.1568  155.4033 H   0  0  0  0  0  0  0  0  0  0  0  0
  149.5113  143.8765  156.6123 H   0  0  0  0  0  0  0  0  0  0  0  0
  151.3530  145.1243  157.1564 H   0  0  0  0  0  0  0  0  0  0  0  0
  153.2944  145.4664  158.6855 H   0  0  0  0  0  0  0  0  0  0  0  0
  153.9736  143.5999  160.2227 H   0  0  0  0  0  0  0  0  0  0  0  0
  152.6639  141.4613  160.1481 H   0  0  0  0  0  0  0  0  0  0  0  0
  150.4913  139.4432  154.2566 H   0  0  0  0  0  0  0  0  0  0  0  0
  150.3738  138.6886  155.8340 H   0  0  0  0  0  0  0  0  0  0  0  0
  151.7380  137.6269  153.3190 H   0  0  0  0  0  0  0  0  0  0  0  0
  152.5022  138.0288  154.8285 H   0  0  0  0  0  0  0  0  0  0  0  0
  149.2446  137.5608  153.3985 H   0  0  0  0  0  0  0  0  0  0  0  0
  1  2  2  0  0  0  0
  2 20  1  0  0  0  0
  2  3  1  0  0  0  0
  3  4  1  0  0  0  0
  3 21  1  0  0  0  0
  3 22  1  0  0  0  0
  4  5  1  0  0  0  0
  4 18  1  0  0  0  0
  4 39  1  0  0  0  0
  5  6  1  0  0  0  0
  5 23  1  0  0  0  0
  5 24  1  0  0  0  0
  6  7  1  0  0  0  0
  6 25  1  0  0  0  0
  6 26  1  0  0  0  0
  7  8  1  0  0  0  0
  7 27  1  0  0  0  0
  7 28  1  0  0  0  0
  8  9  1  0  0  0  0
  8 29  1  0  0  0  0
  9 10  2  0  0  0  0
  9 11  1  0  0  0  0
 11 12  1  0  0  0  0
 11 30  1  0  0  0  0
 12 17  1  0  0  0  0
 12 13  2  0  0  0  0
 13 14  1  0  0  0  0
 13 31  1  0  0  0  0
 14 15  2  0  0  0  0
 14 32  1  0  0  0  0
 15 16  1  0  0  0  0
 15 33  1  0  0  0  0
 16 17  2  0  0  0  0
 16 34  1  0  0  0  0
 18 19  1  0  0  0  0
 18 35  1  0  0  0  0
 18 36  1  0  0  0  0
 19 20  1  0  0  0  0
 19 37  1  0  0  0  0
 19 38  1  0  0  0  0
M  CHG  1   4   1
M  CHG  1  20  -1
M  END
> <s_m_source_file>
AV-unprocessed.smi

> <i_m_source_file_index>
2858

> <i_lp_mmshare_version>
43012

> <i_f3d_flags>
0

> <s_epik_input>
Tz1DMVtDSDJdTihbQ0gyXVtDSDJdW05IXTEpW0NIMl1bQ0gyXVtDSDJdW05IXUMoPU8pW05IXWMyW2NIXVtjSF1bY0hdW2NIXW4y

> <s_epik_cmdline>
J2VwaWtfcHl0aG9uJywgJy1waCcsICc3LjAnLCAnLXRuJywgJzgnLCAnLW1hJywgJzIwMCcsICctbWV0YWxfYmluZGluZycsICctaW1hZScsICc8aW5maWxlLm1hZT4nLCAnLW9tYWUnLCAnPG91dGZpbGUubWFlPic=

> <r_epik_Ionization_Penalty>
5.09835

> <r_epik_Ionization_Penalty_Charging>
5.09831

> <r_epik_Ionization_Penalty_Neutral>
4.20822e-05

> <r_epik_State_Penalty>
5.19693

> <r_epik_Charging_Adjusted_Penalty>
10.2952

> <i_epik_Tot_Q>
0

> <i_epik_Tot_abs_Q>
2

> <r_epik_Metal_State_Penalty>
1.27693

> <b_epik_Metal_Only>
1

> <s_lp_Force_Field>
OPLS_2005

> <r_lp_Energy>
14.6847

> <b_lp_Chiralities_Consistent>
1

> <s_lp_Variant>
AV-unprocessed.smi:2858-5

> <Gold.Version>
5.8.1

> <Gold.Id.Protein>
6NUR|6NUR_protein|mol2

> <Gold.PLP.Fitness>
51.2726

> <Gold.PLP.PLP>
-35.4746

> <Gold.PLP.part.hbond>
-3.8284

> <Gold.PLP.part.metal>
0.0000

> <Gold.PLP.part.buried>
-3.3764

> <Gold.PLP.part.nonpolar>
-29.6166

> <Gold.PLP.part.repulsive>
0.3892

> <Gold.PLP.ligand.clash>
0.0000

> <Gold.PLP.ligand.torsion>
0.9475

> <Gold.PLP.Chemscore.Hbond>
5.8800

> <Gold.PLP.Chemscore.CHOScore>
0.0000

> <Gold.PLP.Chemscore.Metal>
0.0000

> <Gold.Chemscore.Hbonds>
donor molecule, donor type, donor heavy atom, donor atom, acceptor molecule, acceptor atom, score
      L1  H     4    39       P1  7948  2.00
      L1  H     8    29       P1  8028  0.82
      L1  H    11    30       P1  8028  0.70
      P1  H 10752 10764       L1    20  2.00

> <Gold.PLP.Chemscore.Internal.Correction>
0.0529

> <Gold.Rescore>
     Score         DG    S(hbond)    S(metal)    S(lipo)     H(rot)  DE(clash)    DE(int)     intcor
     19.45     -21.86       3.58        0.00      82.09       2.02       0.05       2.36       ----

> <Gold.Chemscore.Fitness>
19.4531

> <Gold.Chemscore.DG>
-21.8639

> <Gold.Chemscore.ZeroCoef>
-5.4800

> <Gold.Chemscore.Hbond>
3.5790

> <Gold.Chemscore.Metal>
0.0000

> <Gold.Chemscore.Lipo>
82.0884

> <Gold.Chemscore.Internal_Hbond>
0.0000

> <Gold.Chemscore.DEClash>
0.0529

> <Gold.Chemscore.DEInternal>
2.3579

> <Gold.Chemscore.Rot>
2.0213

> <Gold.Chemscore.Internal.Correction>
   9.000000E+99

> <Gold.Chemscore.Hbonds>
donor molecule, donor type, donor heavy atom, donor atom, acceptor molecule, acceptor atom, score
      L1  H     4    39       P1  7948  0.88
      L1  H     8    29       P1  8028  0.70
      L1  H    11    30       P1  8028  0.66
      P1  H 10752 10764       L1    20  0.38

> <Gold.Chemscore.Hbond.Weighted>
-11.9540

> <Gold.Chemscore.Metal.Weighted>
-0.0000

> <Gold.Chemscore.Lipo.Weighted>
-9.6043

> <Gold.Chemscore.Internal_Hbond.Weighted>
0.0000

> <Gold.Chemscore.DEClash.Weighted>
0.0529

> <Gold.Chemscore.DEInternal.Weighted>
2.3579

> <Gold.Chemscore.Rot.Weighted>
5.1744

> <Gold.Chemscore.Internal.Correction.Weighted>
   9.000000E+99

> <Gold.Protein.RotatedTorsions>
[ 6907 6896 6895 6894 ] final  -82.57 input  -60.11 | X-H torsion
[ 7974 7965 7964 7962 ] final  -87.17 input  175.53 | X-H torsion
[ 8008 7997 7996 7995 ] final  -93.68 input   59.86 | X-H torsion
[ 10167 10162 10161 10158 ] final  141.31 input  -65.29 | X-H torsion
[ 10718 10713 10712 10709 ] final    7.87 input   66.30 | X-H torsion
[ 10763 10752 10751 10750 ] final  -43.88 input  -60.55 | X-H torsion
[ 11005 11000 10999 10996 ] final   21.77 input  -57.11 | X-H torsion

> <Gold.Protein.ActiveResidues>
 VAL166  LYS551  ARG553  GLY616  TRP617  ASP618  TYR619  PRO620  LYS621  CYS622 
 ASP623  PHE694  ASN695  SER759  ASP760  ASP761  ALA762  ILE779  LEU786  VAL792 
 PHE793  MET794  SER795  GLU796  ALA797  LYS798  CYS799  TRP800  GLU811  SER814 

> <Gold.Protein.RotatedAtoms>
  150.6896  134.3645  159.4964 H   0  0  0  0  0  0  0  0  0  0  0  0  # atno 6907 bound_to 6896
  152.1469  134.9016  160.0559 H   0  0  0  0  0  0  0  0  0  0  0  0  # atno 6908 bound_to 6896
  152.0128  133.3833  159.4263 H   0  0  0  0  0  0  0  0  0  0  0  0  # atno 6909 bound_to 6896
  145.4701  140.9560  143.1922 H   0  0  0  0  0  0  0  0  0  0  0  0  # atno 7974 bound_to 7965
  154.7388  140.0496  157.0792 H   0  0  0  0  0  0  0  0  0  0  0  0  # atno 8008 bound_to 7997
  155.0206  140.3146  155.4776 H   0  0  0  0  0  0  0  0  0  0  0  0  # atno 8009 bound_to 7997
  156.2859  140.2168  156.5324 H   0  0  0  0  0  0  0  0  0  0  0  0  # atno 8010 bound_to 7997
  139.5024  144.6179  151.6119 H   0  0  0  0  0  0  0  0  0  0  0  0  # atno 10167 bound_to 10162
  156.9432  130.5869  149.5653 H   0  0  0  0  0  0  0  0  0  0  0  0  # atno 10718 bound_to 10713
  154.0028  135.6691  153.4760 H   0  0  0  0  0  0  0  0  0  0  0  0  # atno 10763 bound_to 10752
  153.0655  135.5003  154.8185 H   0  0  0  0  0  0  0  0  0  0  0  0  # atno 10764 bound_to 10752
  154.7042  135.3084  154.9258 H   0  0  0  0  0  0  0  0  0  0  0  0  # atno 10765 bound_to 10752
  140.3880  134.1850  155.7663 H   0  0  0  0  0  0  0  0  0  0  0  0  # atno 11005 bound_to 11000
  144.7950  139.6252  143.7096 LP  0  0  0  0  0  0  0  0  0  0  0  0  # atno 17320 bound_to 7965
  146.2401  139.5985  142.9497 LP  0  0  0  0  0  0  0  0  0  0  0  0  # atno 17321 bound_to 7965
  140.5873  143.9842  150.6303 LP  0  0  0  0  0  0  0  0  0  0  0  0  # atno 17342 bound_to 10162
  140.3010  143.3260  152.0971 LP  0  0  0  0  0  0  0  0  0  0  0  0  # atno 17343 bound_to 10162
  156.0395  130.5479  150.8736 LP  0  0  0  0  0  0  0  0  0  0  0  0  # atno 17370 bound_to 10713
  157.5771  131.0946  150.9329 LP  0  0  0  0  0  0  0  0  0  0  0  0  # atno 17371 bound_to 10713
  141.1901  133.8225  157.0932 LP  0  0  0  0  0  0  0  0  0  0  0  0  # atno 17394 bound_to 11000
  140.0428  134.9845  157.0994 LP  0  0  0  0  0  0  0  0  0  0  0  0  # atno 17395 bound_to 11000

$$$$
