AV-unprocessed.smi:1214|AV-procd|sdf|5092|dock10
  -GOLD-   22720 4143D 1   1.00000     0.00000
 Structure written by MMmdl.
 33 34  0  0  0  0  0  0  0  0  1 V2000
  145.5720  135.7632  150.9475 C   0  0  0  0  0  0  0  0  0  0  0  0
  145.3872  134.2625  150.7882 C   0  0  0  0  0  0  0  0  0  0  0  0
  144.3584  133.7815  149.9505 C   0  0  0  0  0  0  0  0  0  0  0  0
  144.1867  132.3948  149.8019 C   0  0  0  0  0  0  0  0  0  0  0  0
  145.0574  131.5428  150.5012 C   0  0  0  0  0  0  0  0  0  0  0  0
  146.0429  131.9946  151.3037 N   0  0  0  0  0  0  0  0  0  0  0  0
  146.2214  133.3312  151.4642 C   0  0  0  0  0  0  0  0  0  0  0  0
  147.2517  133.8938  152.2796 N   0  0  0  0  0  0  0  0  0  0  0  0
  147.7447  133.5263  153.4817 C   0  0  0  0  0  0  0  0  0  0  0  0
  147.3123  132.5361  154.0691 O   0  0  0  0  0  0  0  0  0  0  0  0
  148.7322  134.2897  153.9772 N   0  0  0  0  0  0  0  0  0  0  0  0
  149.4150  134.0712  155.2472 C   0  0  2  0  0  0  0  0  0  0  0  0
  150.7133  134.8960  155.3538 C   0  0  0  0  0  0  0  0  0  0  0  0
  151.5569  134.3400  156.5079 C   0  0  0  0  0  0  0  0  0  0  0  0
  151.1655  132.5523  156.6121 S   0  0  0  0  0  0  0  0  0  0  0  0
  152.2729  131.7694  156.0431 O   0  0  0  0  0  0  0  0  0  0  0  0
  150.6419  132.2576  157.9545 O   0  0  0  0  0  0  0  0  0  0  0  0
  149.7804  132.5903  155.4141 C   0  0  0  0  0  0  0  0  0  0  0  0
  144.8385  136.3186  150.3623 H   0  0  0  0  0  0  0  0  0  0  0  0
  146.5649  136.0643  150.6122 H   0  0  0  0  0  0  0  0  0  0  0  0
  145.4555  136.0530  151.9922 H   0  0  0  0  0  0  0  0  0  0  0  0
  143.7071  134.4647  149.4256 H   0  0  0  0  0  0  0  0  0  0  0  0
  143.4092  131.9954  149.1677 H   0  0  0  0  0  0  0  0  0  0  0  0
  144.9624  130.4706  150.4144 H   0  0  0  0  0  0  0  0  0  0  0  0
  147.7101  134.6950  151.8713 H   0  0  0  0  0  0  0  0  0  0  0  0
  149.0252  135.0874  153.4307 H   0  0  0  0  0  0  0  0  0  0  0  0
  148.7575  134.3502  156.0729 H   0  0  0  0  0  0  0  0  0  0  0  0
  151.2797  134.7922  154.4270 H   0  0  0  0  0  0  0  0  0  0  0  0
  150.5109  135.9595  155.4840 H   0  0  0  0  0  0  0  0  0  0  0  0
  152.6270  134.4844  156.3602 H   0  0  0  0  0  0  0  0  0  0  0  0
  151.2697  134.8012  157.4529 H   0  0  0  0  0  0  0  0  0  0  0  0
  148.9510  131.9837  155.7779 H   0  0  0  0  0  0  0  0  0  0  0  0
  150.1410  132.1632  154.4775 H   0  0  0  0  0  0  0  0  0  0  0  0
  1  2  1  0  0  0  0
  1 19  1  0  0  0  0
  1 20  1  0  0  0  0
  1 21  1  0  0  0  0
  2  7  1  0  0  0  0
  2  3  2  0  0  0  0
  3  4  1  0  0  0  0
  3 22  1  0  0  0  0
  4  5  2  0  0  0  0
  4 23  1  0  0  0  0
  5  6  1  0  0  0  0
  5 24  1  0  0  0  0
  6  7  2  0  0  0  0
  7  8  1  0  0  0  0
  8  9  1  0  0  0  0
  8 25  1  0  0  0  0
  9 10  2  0  0  0  0
  9 11  1  0  0  0  0
 11 12  1  0  0  0  0
 11 26  1  0  0  0  0
 12 18  1  0  0  0  0
 12 13  1  0  0  0  0
 12 27  1  0  0  0  0
 13 14  1  0  0  0  0
 13 28  1  0  0  0  0
 13 29  1  0  0  0  0
 14 15  1  0  0  0  0
 14 30  1  0  0  0  0
 14 31  1  0  0  0  0
 15 16  2  0  0  0  0
 15 17  2  0  0  0  0
 15 18  1  0  0  0  0
 18 32  1  0  0  0  0
 18 33  1  0  0  0  0
M  END
> <s_m_source_file>
AV-unprocessed.smi

> <i_m_source_file_index>
1214

> <i_lp_mmshare_version>
43012

> <i_f3d_flags>
0

> <s_epik_input>
W0NIM11jMVtjSF1bY0hdW2NIXW5jMVtOSF1DKD1PKVtOSF1bQ0BASF0oW0NIMl0yKVtDSDJdW0NIMl1TMig9Tyk9Tw==

> <s_epik_cmdline>
J2VwaWtfcHl0aG9uJywgJy1waCcsICc3LjAnLCAnLXRuJywgJzgnLCAnLW1hJywgJzIwMCcsICctbWV0YWxfYmluZGluZycsICctaW1hZScsICc8aW5maWxlLm1hZT4nLCAnLW9tYWUnLCAnPG91dGZpbGUubWFlPic=

> <r_lp_tautomer_probability>
1

> <r_epik_Ionization_Penalty>
4.18367e-05

> <r_epik_Ionization_Penalty_Charging>
0

> <r_epik_Ionization_Penalty_Neutral>
4.18367e-05

> <r_epik_State_Penalty>
-0

> <r_epik_Charging_Adjusted_Penalty>
0

> <i_epik_Tot_Q>
0

> <i_epik_Tot_abs_Q>
0

> <r_epik_Metal_State_Penalty>
-0

> <b_epik_Metal_Only>
0

> <s_lp_Force_Field>
OPLS_2005

> <r_lp_Energy>
8.88601

> <b_lp_Chiralities_Consistent>
1

> <s_lp_Variant>
AV-unprocessed.smi:1214-1

> <Gold.Version>
5.8.1

> <Gold.Id.Protein>
6NUR|6NUR_protein|mol2

> <Gold.PLP.Fitness>
38.4860

> <Gold.PLP.PLP>
-30.4421

> <Gold.PLP.part.hbond>
-3.0000

> <Gold.PLP.part.metal>
0.0000

> <Gold.PLP.part.buried>
-2.1464

> <Gold.PLP.part.nonpolar>
-23.7507

> <Gold.PLP.part.repulsive>
0.1941

> <Gold.PLP.ligand.clash>
0.0000

> <Gold.PLP.ligand.torsion>
0.4782

> <Gold.PLP.Chemscore.Hbond>
3.0000

> <Gold.PLP.Chemscore.CHOScore>
0.0000

> <Gold.PLP.Chemscore.Metal>
0.0000

> <Gold.Chemscore.Hbonds>
donor molecule, donor type, donor heavy atom, donor atom, acceptor molecule, acceptor atom, score
      L1  H     8    25       P1  7948  1.00
      L1  H    11    26       P1  7948  1.00
      P1  H  6896  6908       L1    17  1.00

> <Gold.PLP.Chemscore.Internal.Correction>
0.0003

> <Gold.Rescore>
     Score         DG    S(hbond)    S(metal)    S(lipo)     H(rot)  DE(clash)    DE(int)     intcor
     16.15     -18.58       2.55        0.00      61.14       1.00       0.32       2.11       ----

> <Gold.Chemscore.Fitness>
16.1509

> <Gold.Chemscore.DG>
-18.5752

> <Gold.Chemscore.ZeroCoef>
-5.4800

> <Gold.Chemscore.Hbond>
2.5453

> <Gold.Chemscore.Metal>
0.0000

> <Gold.Chemscore.Lipo>
61.1440

> <Gold.Chemscore.Internal_Hbond>
0.0000

> <Gold.Chemscore.DEClash>
0.3189

> <Gold.Chemscore.DEInternal>
2.1054

> <Gold.Chemscore.Rot>
1.0000

> <Gold.Chemscore.Internal.Correction>
   9.000000E+99

> <Gold.Chemscore.Hbonds>
donor molecule, donor type, donor heavy atom, donor atom, acceptor molecule, acceptor atom, score
      L1  H     8    25       P1  7948  0.44
      L1  H    11    26       P1  7948  0.34
      P1  H  6896  6908       L1    17  0.88

> <Gold.Chemscore.Hbond.Weighted>
-8.5013

> <Gold.Chemscore.Metal.Weighted>
-0.0000

> <Gold.Chemscore.Lipo.Weighted>
-7.1538

> <Gold.Chemscore.Internal_Hbond.Weighted>
0.0000

> <Gold.Chemscore.DEClash.Weighted>
0.3189

> <Gold.Chemscore.DEInternal.Weighted>
2.1054

> <Gold.Chemscore.Rot.Weighted>
2.5600

> <Gold.Chemscore.Internal.Correction.Weighted>
   9.000000E+99

> <Gold.Protein.RotatedTorsions>
[ 6907 6896 6895 6894 ] final   86.84 input  -60.11 | X-H torsion
[ 7974 7965 7964 7962 ] final    9.84 input  175.53 | X-H torsion
[ 8008 7997 7996 7995 ] final -103.71 input   59.86 | X-H torsion
[ 10167 10162 10161 10158 ] final -163.85 input  -65.29 | X-H torsion
[ 10718 10713 10712 10709 ] final  -96.32 input   66.30 | X-H torsion
[ 10763 10752 10751 10750 ] final  -12.44 input  -60.55 | X-H torsion
[ 11005 11000 10999 10996 ] final   41.62 input  -57.11 | X-H torsion

> <Gold.Protein.ActiveResidues>
 VAL166  LYS551  ARG553  GLY616  TRP617  ASP618  TYR619  PRO620  LYS621  CYS622 
 ASP623  PHE694  ASN695  SER759  ASP760  ASP761  ALA762  ILE779  LEU786  VAL792 
 PHE793  MET794  SER795  GLU796  ALA797  LYS798  CYS799  TRP800  GLU811  SER814 

> <Gold.Protein.RotatedAtoms>
  152.5401  134.2369  159.8846 H   0  0  0  0  0  0  0  0  0  0  0  0  # atno 6907 bound_to 6896
  151.2338  133.4429  159.2612 H   0  0  0  0  0  0  0  0  0  0  0  0  # atno 6908 bound_to 6896
  151.0691  134.9800  159.8355 H   0  0  0  0  0  0  0  0  0  0  0  0  # atno 6909 bound_to 6896
  146.2397  139.9724  142.8445 H   0  0  0  0  0  0  0  0  0  0  0  0  # atno 7974 bound_to 7965
  154.8748  140.0421  157.1746 H   0  0  0  0  0  0  0  0  0  0  0  0  # atno 8008 bound_to 7997
  154.8701  140.2957  155.5466 H   0  0  0  0  0  0  0  0  0  0  0  0  # atno 8009 bound_to 7997
  156.2999  140.2430  156.3688 H   0  0  0  0  0  0  0  0  0  0  0  0  # atno 8010 bound_to 7997
  139.6292  144.0473  152.2001 H   0  0  0  0  0  0  0  0  0  0  0  0  # atno 10167 bound_to 10162
  156.0060  130.5146  150.6208 H   0  0  0  0  0  0  0  0  0  0  0  0  # atno 10718 bound_to 10713
  153.4985  135.7017  153.5845 H   0  0  0  0  0  0  0  0  0  0  0  0  # atno 10763 bound_to 10752
  153.3986  135.3877  155.1972 H   0  0  0  0  0  0  0  0  0  0  0  0  # atno 10764 bound_to 10752
  154.8712  135.3876  154.4453 H   0  0  0  0  0  0  0  0  0  0  0  0  # atno 10765 bound_to 10752
  140.1817  134.4095  155.8196 H   0  0  0  0  0  0  0  0  0  0  0  0  # atno 11005 bound_to 11000
  145.1669  140.9701  143.4344 LP  0  0  0  0  0  0  0  0  0  0  0  0  # atno 17320 bound_to 7965
  145.0064  139.3550  143.6141 LP  0  0  0  0  0  0  0  0  0  0  0  0  # atno 17321 bound_to 7965
  140.0134  144.6207  150.7628 LP  0  0  0  0  0  0  0  0  0  0  0  0  # atno 17342 bound_to 10162
  140.7429  143.2838  151.3521 LP  0  0  0  0  0  0  0  0  0  0  0  0  # atno 17343 bound_to 10162
  157.4023  131.0812  151.1297 LP  0  0  0  0  0  0  0  0  0  0  0  0  # atno 17370 bound_to 10713
  157.1954  130.6371  149.5719 LP  0  0  0  0  0  0  0  0  0  0  0  0  # atno 17371 bound_to 10713
  141.2223  133.7004  156.7942 LP  0  0  0  0  0  0  0  0  0  0  0  0  # atno 17394 bound_to 11000
  140.2259  134.8722  157.3426 LP  0  0  0  0  0  0  0  0  0  0  0  0  # atno 17395 bound_to 11000

$$$$
