AV-unprocessed.smi:213|AV-procd|sdf|1636|dock7
  -GOLD-   2262019593D 1   1.00000     0.00000
 Structure written by MMmdl.
 59 62  0  0  0  0  0  0  0  0  2 V2000
  152.9178  140.0151  159.3523 C   0  0  0  0  0  0  0  0  0  0  0  0
  151.6763  140.4507  158.5513 C   0  0  1  0  0  0  0  0  0  0  0  0
  151.7943  141.9029  158.0309 C   0  0  0  0  0  0  0  0  0  0  0  0
  151.6772  142.9121  159.1133 N   0  3  0  0  0  0  0  0  0  0  0  0
  152.9166  143.0252  159.9186 C   0  0  0  0  0  0  0  0  0  0  0  0
  152.7301  144.0433  161.0561 C   0  0  0  0  0  0  0  0  0  0  0  0
  152.3527  145.3018  160.5125 O   0  0  0  0  0  0  0  0  0  0  0  0
  151.1181  145.2290  159.8103 C   0  0  0  0  0  0  0  0  0  0  0  0
  151.2489  144.2494  158.6317 C   0  0  0  0  0  0  0  0  0  0  0  0
  151.3993  139.5088  157.4583 N   0  0  0  0  0  0  0  0  0  0  0  0
  151.2216  140.0022  156.0942 C   0  0  0  0  0  0  0  0  0  0  0  0
  150.8806  138.2792  157.7363 C   0  0  0  0  0  0  0  0  0  0  0  0
  150.5972  137.9488  159.0258 N   0  0  0  0  0  0  0  0  0  0  0  0
  150.0786  136.7548  159.3266 C   0  0  0  0  0  0  0  0  0  0  0  0
  149.7712  135.7494  158.5070 N   0  0  0  0  0  0  0  0  0  0  0  0
  150.0589  136.0645  157.2125 C   0  0  0  0  0  0  0  0  0  0  0  0
  150.6084  137.2922  156.7420 C   0  0  0  0  0  0  0  0  0  0  0  0
  150.7697  137.2307  155.3615 N   0  0  0  0  0  0  0  0  0  0  0  0
  150.3336  136.0446  155.0362 C   0  0  0  0  0  0  0  0  0  0  0  0
  149.8878  135.2781  156.0879 N   0  0  0  0  0  0  0  0  0  0  0  0
  149.3564  133.9282  156.0200 C   0  0  0  0  0  0  0  0  0  0  0  0
  150.4596  132.8676  155.8340 C   0  0  1  0  0  0  0  0  0  0  0  0
  151.2839  132.8453  156.9844 O   0  0  0  0  0  0  0  0  0  0  0  0
  149.8789  131.4590  155.6094 C   0  0  2  0  0  0  0  0  0  0  0  0
  150.8871  130.4286  155.1042 C   0  0  0  0  0  0  0  0  0  0  0  0
  149.9846  129.3647  154.5143 C   0  0  0  0  0  0  0  0  0  0  0  0
  148.7705  130.1617  154.0314 C   0  0  0  0  0  0  0  0  0  0  0  0
  148.9167  131.4755  154.5637 O   0  0  0  0  0  0  0  0  0  0  0  0
  153.0560  140.6388  160.2355 H   0  0  0  0  0  0  0  0  0  0  0  0
  153.8315  140.0796  158.7609 H   0  0  0  0  0  0  0  0  0  0  0  0
  152.8169  138.9855  159.6972 H   0  0  0  0  0  0  0  0  0  0  0  0
  150.8450  140.3896  159.2526 H   0  0  0  0  0  0  0  0  0  0  0  0
  152.7582  142.0196  157.5342 H   0  0  0  0  0  0  0  0  0  0  0  0
  151.0389  142.1095  157.2714 H   0  0  0  0  0  0  0  0  0  0  0  0
  153.1770  142.0528  160.3383 H   0  0  0  0  0  0  0  0  0  0  0  0
  153.7442  143.3301  159.2759 H   0  0  0  0  0  0  0  0  0  0  0  0
  151.9780  143.6996  161.7684 H   0  0  0  0  0  0  0  0  0  0  0  0
  153.6615  144.1631  161.6099 H   0  0  0  0  0  0  0  0  0  0  0  0
  150.3183  144.9215  160.4862 H   0  0  0  0  0  0  0  0  0  0  0  0
  150.8610  146.2234  159.4449 H   0  0  0  0  0  0  0  0  0  0  0  0
  151.9756  144.6300  157.9120 H   0  0  0  0  0  0  0  0  0  0  0  0
  150.2932  144.1841  158.1128 H   0  0  0  0  0  0  0  0  0  0  0  0
  150.3088  139.6098  155.6440 H   0  0  0  0  0  0  0  0  0  0  0  0
  152.0680  139.7052  155.4748 H   0  0  0  0  0  0  0  0  0  0  0  0
  151.1538  141.0890  156.0637 H   0  0  0  0  0  0  0  0  0  0  0  0
  149.8821  136.5794  160.3740 H   0  0  0  0  0  0  0  0  0  0  0  0
  150.3243  135.6947  154.0141 H   0  0  0  0  0  0  0  0  0  0  0  0
  148.7853  133.7319  156.9285 H   0  0  0  0  0  0  0  0  0  0  0  0
  148.6476  133.8859  155.1923 H   0  0  0  0  0  0  0  0  0  0  0  0
  151.0826  133.1408  154.9811 H   0  0  0  0  0  0  0  0  0  0  0  0
  150.9094  133.4215  157.6327 H   0  0  0  0  0  0  0  0  0  0  0  0
  149.3990  131.0916  156.5186 H   0  0  0  0  0  0  0  0  0  0  0  0
  151.5142  130.8603  154.3229 H   0  0  0  0  0  0  0  0  0  0  0  0
  151.5368  130.0448  155.8912 H   0  0  0  0  0  0  0  0  0  0  0  0
  150.4665  128.8005  153.7153 H   0  0  0  0  0  0  0  0  0  0  0  0
  149.6824  128.6606  155.2906 H   0  0  0  0  0  0  0  0  0  0  0  0
  148.7309  130.2161  152.9433 H   0  0  0  0  0  0  0  0  0  0  0  0
  147.8411  129.7117  154.3823 H   0  0  0  0  0  0  0  0  0  0  0  0
  150.9607  142.5785  159.7423 H   0  0  0  0  0  0  0  0  0  0  0  0
  1  2  1  0  0  0  0
  1 29  1  0  0  0  0
  1 30  1  0  0  0  0
  1 31  1  0  0  0  0
  2  3  1  0  0  0  0
  2 10  1  0  0  0  0
  2 32  1  0  0  0  0
  3  4  1  0  0  0  0
  3 33  1  0  0  0  0
  3 34  1  0  0  0  0
  4  9  1  0  0  0  0
  4  5  1  0  0  0  0
  4 59  1  0  0  0  0
  5  6  1  0  0  0  0
  5 35  1  0  0  0  0
  5 36  1  0  0  0  0
  6  7  1  0  0  0  0
  6 37  1  0  0  0  0
  6 38  1  0  0  0  0
  7  8  1  0  0  0  0
  8  9  1  0  0  0  0
  8 39  1  0  0  0  0
  8 40  1  0  0  0  0
  9 41  1  0  0  0  0
  9 42  1  0  0  0  0
 10 11  1  0  0  0  0
 10 12  1  0  0  0  0
 11 43  1  0  0  0  0
 11 44  1  0  0  0  0
 11 45  1  0  0  0  0
 12 17  1  0  0  0  0
 12 13  2  0  0  0  0
 13 14  1  0  0  0  0
 14 15  2  0  0  0  0
 14 46  1  0  0  0  0
 15 16  1  0  0  0  0
 16 20  1  0  0  0  0
 16 17  2  0  0  0  0
 17 18  1  0  0  0  0
 18 19  2  0  0  0  0
 19 20  1  0  0  0  0
 19 47  1  0  0  0  0
 20 21  1  0  0  0  0
 21 22  1  0  0  0  0
 21 48  1  0  0  0  0
 21 49  1  0  0  0  0
 22 23  1  0  0  0  0
 22 24  1  0  0  0  0
 22 50  1  0  0  0  0
 23 51  1  0  0  0  0
 24 28  1  0  0  0  0
 24 25  1  0  0  0  0
 24 52  1  0  0  0  0
 25 26  1  0  0  0  0
 25 53  1  0  0  0  0
 25 54  1  0  0  0  0
 26 27  1  0  0  0  0
 26 55  1  0  0  0  0
 26 56  1  0  0  0  0
 27 28  1  0  0  0  0
 27 57  1  0  0  0  0
 27 58  1  0  0  0  0
M  CHG  1   4   1
M  END
> <s_m_source_file>
AV-unprocessed.smi

> <i_m_source_file_index>
213

> <i_lp_mmshare_version>
43012

> <i_f3d_flags>
0

> <s_epik_input>
W0NIMl0xW0NIMl1PW0NIMl1bQ0gyXU4xW0NIMl1bQ0BASF0oW0NIM10pTihbQ0gzXSljKG5bY0hdbjIpYyhjMjMpbltjSF1uM1tDSDJdW0NASF0oW09IXSlbQ0BASF00W0NIMl1bQ0gyXVtDSDJdTzQ=

> <s_epik_cmdline>
J2VwaWtfcHl0aG9uJywgJy1waCcsICc3LjAnLCAnLXRuJywgJzgnLCAnLW1hJywgJzIwMCcsICctbWV0YWxfYmluZGluZycsICctaW1hZScsICc8aW5maWxlLm1hZT4nLCAnLW9tYWUnLCAnPG91dGZpbGUubWFlPic=

> <r_lp_tautomer_probability>
1

> <r_epik_Ionization_Penalty>
0.399679

> <r_epik_Ionization_Penalty_Charging>
0.399433

> <r_epik_Ionization_Penalty_Neutral>
0.000246213

> <r_epik_State_Penalty>
0.286032

> <r_epik_Charging_Adjusted_Penalty>
0.685465

> <i_epik_Tot_Q>
1

> <i_epik_Tot_abs_Q>
1

> <r_epik_Metal_State_Penalty>
0.286072

> <b_epik_Metal_Only>
0

> <s_lp_Force_Field>
OPLS_2005

> <r_lp_Energy>
43.5533

> <b_lp_Chiralities_Consistent>
1

> <s_lp_Variant>
AV-unprocessed.smi:213-4

> <Gold.Version>
5.8.1

> <Gold.Id.Protein>
6NUR|6NUR_protein|mol2

> <Gold.PLP.Fitness>
48.8716

> <Gold.PLP.PLP>
-44.7459

> <Gold.PLP.part.hbond>
-2.0000

> <Gold.PLP.part.metal>
0.0000

> <Gold.PLP.part.buried>
-6.1929

> <Gold.PLP.part.nonpolar>
-36.2694

> <Gold.PLP.part.repulsive>
0.3677

> <Gold.PLP.ligand.clash>
0.0000

> <Gold.PLP.ligand.torsion>
0.9933

> <Gold.PLP.Chemscore.Hbond>
0.8000

> <Gold.PLP.Chemscore.CHOScore>
0.9918

> <Gold.PLP.Chemscore.Metal>
0.0000

> <Gold.Chemscore.Hbonds>
donor molecule, donor type, donor heavy atom, donor atom, acceptor molecule, acceptor atom, score
      P1  H  6896  6909       L1    15  0.74
      L1  C    19    47       P1  7948  0.39
      L1  C    19    47       P1  7949  0.12

> <Gold.PLP.Chemscore.Internal.Correction>
0.7370

> <Gold.Rescore>
     Score         DG    S(hbond)    S(metal)    S(lipo)     H(rot)  DE(clash)    DE(int)     intcor
      8.44     -11.72       0.44        0.00     102.72       2.83       0.03       3.26       ----

> <Gold.Chemscore.Fitness>
8.4370

> <Gold.Chemscore.DG>
-11.7216

> <Gold.Chemscore.ZeroCoef>
-5.4800

> <Gold.Chemscore.Hbond>
0.4359

> <Gold.Chemscore.Metal>
0.0000

> <Gold.Chemscore.Lipo>
102.7229

> <Gold.Chemscore.Internal_Hbond>
0.0000

> <Gold.Chemscore.DEClash>
0.0289

> <Gold.Chemscore.DEInternal>
3.2557

> <Gold.Chemscore.Rot>
2.8254

> <Gold.Chemscore.Internal.Correction>
   9.000000E+99

> <Gold.Chemscore.Hbonds>
donor molecule, donor type, donor heavy atom, donor atom, acceptor molecule, acceptor atom, score
      P1  H  6896  6909       L1    15  0.17

> <Gold.Chemscore.Hbond.Weighted>
-1.4560

> <Gold.Chemscore.Metal.Weighted>
-0.0000

> <Gold.Chemscore.Lipo.Weighted>
-12.0186

> <Gold.Chemscore.Internal_Hbond.Weighted>
0.0000

> <Gold.Chemscore.DEClash.Weighted>
0.0289

> <Gold.Chemscore.DEInternal.Weighted>
3.2557

> <Gold.Chemscore.Rot.Weighted>
7.2330

> <Gold.Chemscore.Internal.Correction.Weighted>
   9.000000E+99

> <Gold.Protein.RotatedTorsions>
[ 6907 6896 6895 6894 ] final   31.31 input  -60.11 | X-H torsion
[ 7974 7965 7964 7962 ] final -105.24 input  175.53 | X-H torsion
[ 8008 7997 7996 7995 ] final  -78.70 input   59.86 | X-H torsion
[ 10167 10162 10161 10158 ] final   -8.29 input  -65.29 | X-H torsion
[ 10718 10713 10712 10709 ] final   -7.56 input   66.30 | X-H torsion
[ 10763 10752 10751 10750 ] final  119.55 input  -60.55 | X-H torsion
[ 11005 11000 10999 10996 ] final  -12.27 input  -57.11 | X-H torsion

> <Gold.Protein.ActiveResidues>
 VAL166  LYS551  ARG553  GLY616  TRP617  ASP618  TYR619  PRO620  LYS621  CYS622 
 ASP623  PHE694  ASN695  SER759  ASP760  ASP761  ALA762  ILE779  LEU786  VAL792 
 PHE793  MET794  SER795  GLU796  ALA797  LYS798  CYS799  TRP800  GLU811  SER814 

> <Gold.Protein.RotatedAtoms>
  152.0585  134.9609  160.0574 H   0  0  0  0  0  0  0  0  0  0  0  0  # atno 6907 bound_to 6896
  152.0982  133.4231  159.4583 H   0  0  0  0  0  0  0  0  0  0  0  0  # atno 6908 bound_to 6896
  150.6838  134.2711  159.4632 H   0  0  0  0  0  0  0  0  0  0  0  0  # atno 6909 bound_to 6896
  145.2330  140.9177  143.3194 H   0  0  0  0  0  0  0  0  0  0  0  0  # atno 7974 bound_to 7965
  154.5714  140.0690  156.8970 H   0  0  0  0  0  0  0  0  0  0  0  0  # atno 8008 bound_to 7997
  155.2627  140.3359  155.4253 H   0  0  0  0  0  0  0  0  0  0  0  0  # atno 8009 bound_to 7997
  156.2121  140.1763  156.7656 H   0  0  0  0  0  0  0  0  0  0  0  0  # atno 8010 bound_to 7997
  140.7055  143.5985  150.8822 H   0  0  0  0  0  0  0  0  0  0  0  0  # atno 10167 bound_to 10162
  156.7155  130.5135  149.5881 H   0  0  0  0  0  0  0  0  0  0  0  0  # atno 10718 bound_to 10713
  153.5847  135.3477  155.2888 H   0  0  0  0  0  0  0  0  0  0  0  0  # atno 10763 bound_to 10752
  154.8662  135.4190  154.2581 H   0  0  0  0  0  0  0  0  0  0  0  0  # atno 10764 bound_to 10752
  153.3375  135.7048  153.6965 H   0  0  0  0  0  0  0  0  0  0  0  0  # atno 10765 bound_to 10752
  140.7640  133.8492  155.9149 H   0  0  0  0  0  0  0  0  0  0  0  0  # atno 11005 bound_to 11000
  144.9659  139.3930  143.6333 LP  0  0  0  0  0  0  0  0  0  0  0  0  # atno 17320 bound_to 7965
  146.3348  139.8734  142.8836 LP  0  0  0  0  0  0  0  0  0  0  0  0  # atno 17321 bound_to 7965
  139.9710  143.6057  152.2973 LP  0  0  0  0  0  0  0  0  0  0  0  0  # atno 17342 bound_to 10162
  139.6644  144.7662  151.1902 LP  0  0  0  0  0  0  0  0  0  0  0  0  # atno 17343 bound_to 10162
  156.1631  130.6387  151.0744 LP  0  0  0  0  0  0  0  0  0  0  0  0  # atno 17370 bound_to 10713
  157.6919  131.0807  150.7082 LP  0  0  0  0  0  0  0  0  0  0  0  0  # atno 17371 bound_to 10713
  140.9637  134.1623  157.4634 LP  0  0  0  0  0  0  0  0  0  0  0  0  # atno 17394 bound_to 11000
  139.8766  134.9954  156.5740 LP  0  0  0  0  0  0  0  0  0  0  0  0  # atno 17395 bound_to 11000

$$$$
