AV-unprocessed.smi:2076|AV-procd|sdf|8459|dock9
  -GOLD-   2272011153D 1   1.00000     0.00000
 Structure written by MMmdl.
 45 46  0  0  0  0  0  0  0  0  2 V2000
  153.8498  141.5891  161.1514 C   0  0  0  0  0  0  0  0  0  0  0  0
  152.9230  142.5316  160.4422 C   0  0  0  0  0  0  0  0  0  0  0  0
  152.2938  143.7008  160.9540 C   0  0  0  0  0  0  0  0  0  0  0  0
  151.5700  144.1834  159.9004 C   0  0  0  0  0  0  0  0  0  0  0  0
  150.7001  145.3935  159.8040 C   0  0  0  0  0  0  0  0  0  0  0  0
  151.7801  143.3200  158.8398 N   0  0  0  0  0  0  0  0  0  0  0  0
  151.2587  143.3888  157.4829 C   0  0  0  0  0  0  0  0  0  0  0  0
  150.8253  142.0061  156.9933 C   0  0  0  0  0  0  0  0  0  0  0  0
  151.2558  140.9915  157.5404 O   0  0  0  0  0  0  0  0  0  0  0  0
  149.9614  141.9833  155.9687 N   0  0  0  0  0  0  0  0  0  0  0  0
  149.3572  140.7780  155.4175 C   0  0  0  0  0  0  0  0  0  0  0  0
  148.3315  141.1042  154.3001 C   0  0  2  0  0  0  0  0  0  0  0  0
  147.2457  142.0705  154.8303 C   0  0  0  0  0  0  0  0  0  0  0  0
  147.6907  139.8882  153.6993 N   0  3  0  0  0  0  0  0  0  0  0  0
  147.1099  138.9810  154.7265 C   0  0  0  0  0  0  0  0  0  0  0  0
  146.5528  137.7008  154.0837 C   0  0  0  0  0  0  0  0  0  0  0  0
  145.5693  138.0459  153.1198 O   0  0  0  0  0  0  0  0  0  0  0  0
  146.1206  138.8288  152.0716 C   0  0  0  0  0  0  0  0  0  0  0  0
  146.6788  140.1465  152.6372 C   0  0  0  0  0  0  0  0  0  0  0  0
  152.6118  142.3089  159.1758 N   0  0  0  0  0  0  0  0  0  0  0  0
  153.9461  141.8507  162.2054 H   0  0  0  0  0  0  0  0  0  0  0  0
  154.8469  141.6148  160.7110 H   0  0  0  0  0  0  0  0  0  0  0  0
  153.4859  140.5628  161.0970 H   0  0  0  0  0  0  0  0  0  0  0  0
  152.3659  144.1238  161.9450 H   0  0  0  0  0  0  0  0  0  0  0  0
  150.6762  145.9319  160.7514 H   0  0  0  0  0  0  0  0  0  0  0  0
  149.6764  145.1181  159.5500 H   0  0  0  0  0  0  0  0  0  0  0  0
  151.0685  146.0776  159.0394 H   0  0  0  0  0  0  0  0  0  0  0  0
  150.4117  144.0761  157.4524 H   0  0  0  0  0  0  0  0  0  0  0  0
  152.0244  143.8004  156.8246 H   0  0  0  0  0  0  0  0  0  0  0  0
  149.6645  142.8676  155.5810 H   0  0  0  0  0  0  0  0  0  0  0  0
  150.1748  140.1665  155.0341 H   0  0  0  0  0  0  0  0  0  0  0  0
  148.8722  140.2168  156.2183 H   0  0  0  0  0  0  0  0  0  0  0  0
  148.8821  141.6124  153.5064 H   0  0  0  0  0  0  0  0  0  0  0  0
  147.6753  142.9893  155.2301 H   0  0  0  0  0  0  0  0  0  0  0  0
  146.6658  141.6073  155.6289 H   0  0  0  0  0  0  0  0  0  0  0  0
  146.5480  142.3842  154.0561 H   0  0  0  0  0  0  0  0  0  0  0  0
  147.8535  138.6974  155.4686 H   0  0  0  0  0  0  0  0  0  0  0  0
  146.3126  139.4998  155.2613 H   0  0  0  0  0  0  0  0  0  0  0  0
  147.3495  137.1152  153.6216 H   0  0  0  0  0  0  0  0  0  0  0  0
  146.0935  137.0688  154.8442 H   0  0  0  0  0  0  0  0  0  0  0  0
  146.8997  138.2672  151.5535 H   0  0  0  0  0  0  0  0  0  0  0  0
  145.3399  139.0367  151.3398 H   0  0  0  0  0  0  0  0  0  0  0  0
  145.8679  140.7550  153.0412 H   0  0  0  0  0  0  0  0  0  0  0  0
  147.1185  140.6948  151.8045 H   0  0  0  0  0  0  0  0  0  0  0  0
  148.4350  139.3777  153.2454 H   0  0  0  0  0  0  0  0  0  0  0  0
  1  2  1  0  0  0  0
  1 21  1  0  0  0  0
  1 22  1  0  0  0  0
  1 23  1  0  0  0  0
  2 20  2  0  0  0  0
  2  3  1  0  0  0  0
  3  4  2  0  0  0  0
  3 24  1  0  0  0  0
  4  5  1  0  0  0  0
  4  6  1  0  0  0  0
  5 25  1  0  0  0  0
  5 26  1  0  0  0  0
  5 27  1  0  0  0  0
  6  7  1  0  0  0  0
  6 20  1  0  0  0  0
  7  8  1  0  0  0  0
  7 28  1  0  0  0  0
  7 29  1  0  0  0  0
  8  9  2  0  0  0  0
  8 10  1  0  0  0  0
 10 11  1  0  0  0  0
 10 30  1  0  0  0  0
 11 12  1  0  0  0  0
 11 31  1  0  0  0  0
 11 32  1  0  0  0  0
 12 13  1  0  0  0  0
 12 14  1  0  0  0  0
 12 33  1  0  0  0  0
 13 34  1  0  0  0  0
 13 35  1  0  0  0  0
 13 36  1  0  0  0  0
 14 19  1  0  0  0  0
 14 15  1  0  0  0  0
 14 45  1  0  0  0  0
 15 16  1  0  0  0  0
 15 37  1  0  0  0  0
 15 38  1  0  0  0  0
 16 17  1  0  0  0  0
 16 39  1  0  0  0  0
 16 40  1  0  0  0  0
 17 18  1  0  0  0  0
 18 19  1  0  0  0  0
 18 41  1  0  0  0  0
 18 42  1  0  0  0  0
 19 43  1  0  0  0  0
 19 44  1  0  0  0  0
M  CHG  1  14   1
M  END
> <s_m_source_file>
AV-unprocessed.smi

> <i_m_source_file_index>
2076

> <i_lp_mmshare_version>
43012

> <i_f3d_flags>
0

> <s_epik_input>
W0NIM11jMVtjSF1jKFtDSDNdKW4objEpW0NIMl1DKD1PKVtOSF1bQ0gyXVtDQEhdKFtDSDNdKU4yW0NIMl1bQ0gyXU9bQ0gyXVtDSDJdMg==

> <s_epik_cmdline>
J2VwaWtfcHl0aG9uJywgJy1waCcsICc3LjAnLCAnLXRuJywgJzgnLCAnLW1hJywgJzIwMCcsICctbWV0YWxfYmluZGluZycsICctaW1hZScsICc8aW5maWxlLm1hZT4nLCAnLW9tYWUnLCAnPG91dGZpbGUubWFlPic=

> <r_lp_tautomer_probability>
1

> <r_epik_Ionization_Penalty>
0.748594

> <r_epik_Ionization_Penalty_Charging>
0.748396

> <r_epik_Ionization_Penalty_Neutral>
0.000197403

> <r_epik_State_Penalty>
0.775162

> <r_epik_Charging_Adjusted_Penalty>
1.52356

> <i_epik_Tot_Q>
1

> <i_epik_Tot_abs_Q>
1

> <r_epik_Metal_State_Penalty>
0.77529

> <b_epik_Metal_Only>
0

> <s_lp_Force_Field>
OPLS_2005

> <r_lp_Energy>
18.1598

> <b_lp_Chiralities_Consistent>
1

> <s_lp_Variant>
AV-unprocessed.smi:2076-3

> <Gold.Version>
5.8.1

> <Gold.Id.Protein>
6NUR|6NUR_protein|mol2

> <Gold.PLP.Fitness>
47.0250

> <Gold.PLP.PLP>
-43.5462

> <Gold.PLP.part.hbond>
-2.0000

> <Gold.PLP.part.metal>
0.0000

> <Gold.PLP.part.buried>
-1.2546

> <Gold.PLP.part.nonpolar>
-41.7115

> <Gold.PLP.part.repulsive>
0.4928

> <Gold.PLP.ligand.clash>
0.0092

> <Gold.PLP.ligand.torsion>
0.5947

> <Gold.PLP.Chemscore.Hbond>
1.5440

> <Gold.PLP.Chemscore.CHOScore>
0.0000

> <Gold.PLP.Chemscore.Metal>
0.0000

> <Gold.Chemscore.Hbonds>
donor molecule, donor type, donor heavy atom, donor atom, acceptor molecule, acceptor atom, score
      L1  H    10    30       P1  8028  1.00

> <Gold.PLP.Chemscore.Internal.Correction>
0.0454

> <Gold.Rescore>
     Score         DG    S(hbond)    S(metal)    S(lipo)     H(rot)  DE(clash)    DE(int)     intcor
     16.33     -20.67       1.96        0.00     112.63       1.78       1.81       2.53       ----

> <Gold.Chemscore.Fitness>
16.3307

> <Gold.Chemscore.DG>
-20.6687

> <Gold.Chemscore.ZeroCoef>
-5.4800

> <Gold.Chemscore.Hbond>
1.9633

> <Gold.Chemscore.Metal>
0.0000

> <Gold.Chemscore.Lipo>
112.6288

> <Gold.Chemscore.Internal_Hbond>
0.0000

> <Gold.Chemscore.DEClash>
1.8096

> <Gold.Chemscore.DEInternal>
2.5284

> <Gold.Chemscore.Rot>
1.7760

> <Gold.Chemscore.Internal.Correction>
   9.000000E+99

> <Gold.Chemscore.Hbonds>
donor molecule, donor type, donor heavy atom, donor atom, acceptor molecule, acceptor atom, score
      L1  H    10    30       P1  8028  0.93
      L1  H    14    45       P1  7957  0.01

> <Gold.Chemscore.Hbond.Weighted>
-6.5576

> <Gold.Chemscore.Metal.Weighted>
-0.0000

> <Gold.Chemscore.Lipo.Weighted>
-13.1776

> <Gold.Chemscore.Internal_Hbond.Weighted>
0.0000

> <Gold.Chemscore.DEClash.Weighted>
1.8096

> <Gold.Chemscore.DEInternal.Weighted>
2.5284

> <Gold.Chemscore.Rot.Weighted>
4.5464

> <Gold.Chemscore.Internal.Correction.Weighted>
   9.000000E+99

> <Gold.Protein.RotatedTorsions>
[ 6907 6896 6895 6894 ] final  116.55 input  -60.11 | X-H torsion
[ 7974 7965 7964 7962 ] final -144.06 input  175.53 | X-H torsion
[ 8008 7997 7996 7995 ] final   65.81 input   59.86 | X-H torsion
[ 10167 10162 10161 10158 ] final  170.37 input  -65.29 | X-H torsion
[ 10718 10713 10712 10709 ] final    9.00 input   66.30 | X-H torsion
[ 10763 10752 10751 10750 ] final  -54.11 input  -60.55 | X-H torsion
[ 11005 11000 10999 10996 ] final  -34.21 input  -57.11 | X-H torsion

> <Gold.Protein.ActiveResidues>
 VAL166  LYS551  ARG553  GLY616  TRP617  ASP618  TYR619  PRO620  LYS621  CYS622 
 ASP623  PHE694  ASN695  SER759  ASP760  ASP761  ALA762  ILE779  LEU786  VAL792 
 PHE793  MET794  SER795  GLU796  ALA797  LYS798  CYS799  TRP800  GLU811  SER814 

> <Gold.Protein.RotatedAtoms>
  152.4670  133.7945  159.6919 H   0  0  0  0  0  0  0  0  0  0  0  0  # atno 6907 bound_to 6896
  150.8640  133.7592  159.2989 H   0  0  0  0  0  0  0  0  0  0  0  0  # atno 6908 bound_to 6896
  151.5148  135.1069  159.9915 H   0  0  0  0  0  0  0  0  0  0  0  0  # atno 6909 bound_to 6896
  144.8324  140.5757  143.5506 H   0  0  0  0  0  0  0  0  0  0  0  0  # atno 7974 bound_to 7965
  155.6675  140.3497  155.4806 H   0  0  0  0  0  0  0  0  0  0  0  0  # atno 8008 bound_to 7997
  155.9716  140.1157  157.0830 H   0  0  0  0  0  0  0  0  0  0  0  0  # atno 8009 bound_to 7997
  154.4168  140.1156  156.5300 H   0  0  0  0  0  0  0  0  0  0  0  0  # atno 8010 bound_to 7997
  139.5017  144.3603  151.9831 H   0  0  0  0  0  0  0  0  0  0  0  0  # atno 10167 bound_to 10162
  156.9598  130.5929  149.5661 H   0  0  0  0  0  0  0  0  0  0  0  0  # atno 10718 bound_to 10713
  154.1695  135.6461  153.5006 H   0  0  0  0  0  0  0  0  0  0  0  0  # atno 10763 bound_to 10752
  153.0088  135.5380  154.6627 H   0  0  0  0  0  0  0  0  0  0  0  0  # atno 10764 bound_to 10752
  154.5962  135.2939  155.0555 H   0  0  0  0  0  0  0  0  0  0  0  0  # atno 10765 bound_to 10752
  140.9698  133.7116  156.1504 H   0  0  0  0  0  0  0  0  0  0  0  0  # atno 11005 bound_to 11000
  145.4866  139.1491  143.3732 LP  0  0  0  0  0  0  0  0  0  0  0  0  # atno 17320 bound_to 7965
  146.2626  140.5004  142.8847 LP  0  0  0  0  0  0  0  0  0  0  0  0  # atno 17321 bound_to 7965
  140.3040  144.3614  150.6052 LP  0  0  0  0  0  0  0  0  0  0  0  0  # atno 17342 bound_to 10162
  140.5851  143.2170  151.7356 LP  0  0  0  0  0  0  0  0  0  0  0  0  # atno 17343 bound_to 10162
  156.0327  130.5417  150.8575 LP  0  0  0  0  0  0  0  0  0  0  0  0  # atno 17370 bound_to 10713
  157.5665  131.0946  150.9482 LP  0  0  0  0  0  0  0  0  0  0  0  0  # atno 17371 bound_to 10713
  140.7346  134.4217  157.5562 LP  0  0  0  0  0  0  0  0  0  0  0  0  # atno 17394 bound_to 11000
  139.8908  134.8796  156.2352 LP  0  0  0  0  0  0  0  0  0  0  0  0  # atno 17395 bound_to 11000

$$$$
