AV-unprocessed.smi:1867|AV-procd|sdf|7576|dock5
  -GOLD-   22720 9283D 1   1.00000     0.00000
 Structure written by MMmdl.
 52 55  0  0  0  0  0  0  0  0  4 V2000
  151.0061  136.6231  158.4812 O   0  0  0  0  0  0  0  0  0  0  0  0
  150.4298  136.8618  157.4215 C   0  0  0  0  0  0  0  0  0  0  0  0
  150.3670  138.1435  156.9828 N   0  0  0  0  0  0  0  0  0  0  0  0
  150.7949  139.3352  157.6263 C   0  0  0  0  0  0  0  0  0  0  0  0
  150.2488  140.5567  157.1812 C   0  0  0  0  0  0  0  0  0  0  0  0
  150.6235  141.7616  157.8097 C   0  0  0  0  0  0  0  0  0  0  0  0
  151.5386  141.7336  158.8882 C   0  0  0  0  0  0  0  0  0  0  0  0
  151.9512  142.8953  159.5675 N   0  0  0  0  0  0  0  0  0  0  0  0
  151.2543  144.1610  159.4037 C   0  0  0  0  0  0  0  0  0  0  0  0
  151.9058  145.0937  160.4236 C   0  0  0  0  0  0  0  0  0  0  0  0
  152.2838  144.1498  161.5653 C   0  0  0  0  0  0  0  0  0  0  0  0
  152.6051  142.8233  160.8665 C   0  0  0  0  0  0  0  0  0  0  0  0
  152.0225  140.5358  159.2951 N   0  3  0  0  0  0  0  0  0  0  0  0
  151.6912  139.3592  158.7206 C   0  0  0  0  0  0  0  0  0  0  0  0
  149.8799  135.8584  156.6719 N   0  5  0  0  0  0  0  0  0  0  0  0
  149.2255  135.9371  155.3581 C   0  0  2  0  0  0  0  0  0  0  0  0
  147.9748  136.8361  155.3953 C   0  0  0  0  0  0  0  0  0  0  0  0
  146.9604  136.1707  154.4451 C   0  0  0  0  0  0  0  0  0  0  0  0
  147.6297  134.9567  153.9386 N   0  3  2  0  0  0  0  0  0  0  0  0
  146.7671  133.8234  153.5384 C   0  0  0  0  0  0  0  0  0  0  0  0
  147.6427  132.7053  152.9367 C   0  0  0  0  0  0  0  0  0  0  0  0
  148.7914  132.3024  153.8845 C   0  0  0  0  0  0  0  0  0  0  0  0
  149.6025  133.5342  154.3334 C   0  0  0  0  0  0  0  0  0  0  0  0
  148.6442  134.5823  154.9370 C   0  0  1  0  0  0  0  0  0  0  0  0
  149.9945  138.2637  156.0524 H   0  0  0  0  0  0  0  0  0  0  0  0
  149.5466  140.5737  156.3604 H   0  0  0  0  0  0  0  0  0  0  0  0
  150.1973  142.6907  157.4617 H   0  0  0  0  0  0  0  0  0  0  0  0
  151.3490  144.5456  158.3877 H   0  0  0  0  0  0  0  0  0  0  0  0
  150.1951  144.0260  159.6267 H   0  0  0  0  0  0  0  0  0  0  0  0
  152.8076  145.5363  159.9979 H   0  0  0  0  0  0  0  0  0  0  0  0
  151.2479  145.9040  160.7391 H   0  0  0  0  0  0  0  0  0  0  0  0
  153.1125  144.5218  162.1682 H   0  0  0  0  0  0  0  0  0  0  0  0
  151.4249  144.0169  162.2245 H   0  0  0  0  0  0  0  0  0  0  0  0
  152.2564  141.9767  161.4588 H   0  0  0  0  0  0  0  0  0  0  0  0
  153.6796  142.7168  160.7145 H   0  0  0  0  0  0  0  0  0  0  0  0
  152.1446  138.4882  159.1698 H   0  0  0  0  0  0  0  0  0  0  0  0
  149.8936  136.2907  154.5706 H   0  0  0  0  0  0  0  0  0  0  0  0
  147.5486  136.8855  156.3989 H   0  0  0  0  0  0  0  0  0  0  0  0
  148.2113  137.8567  155.0925 H   0  0  0  0  0  0  0  0  0  0  0  0
  146.0523  135.9065  154.9901 H   0  0  0  0  0  0  0  0  0  0  0  0
  146.6781  136.8219  153.6169 H   0  0  0  0  0  0  0  0  0  0  0  0
  146.2146  133.4542  154.4041 H   0  0  0  0  0  0  0  0  0  0  0  0
  146.0336  134.1623  152.8062 H   0  0  0  0  0  0  0  0  0  0  0  0
  147.0288  131.8351  152.7026 H   0  0  0  0  0  0  0  0  0  0  0  0
  148.0636  133.0479  151.9907 H   0  0  0  0  0  0  0  0  0  0  0  0
  148.3785  131.8019  154.7612 H   0  0  0  0  0  0  0  0  0  0  0  0
  149.4456  131.5799  153.3958 H   0  0  0  0  0  0  0  0  0  0  0  0
  150.3560  133.2308  155.0626 H   0  0  0  0  0  0  0  0  0  0  0  0
  150.1416  133.9431  153.4765 H   0  0  0  0  0  0  0  0  0  0  0  0
  148.1274  134.1395  155.7923 H   0  0  0  0  0  0  0  0  0  0  0  0
  148.1461  135.2442  153.1198 H   0  0  0  0  0  0  0  0  0  0  0  0
  152.6720  140.5181  160.0812 H   0  0  0  0  0  0  0  0  0  0  0  0
  1  2  2  0  0  0  0
  2  3  1  0  0  0  0
  2 15  1  0  0  0  0
  3  4  1  0  0  0  0
  3 25  1  0  0  0  0
  4 14  1  0  0  0  0
  4  5  2  0  0  0  0
  5  6  1  0  0  0  0
  5 26  1  0  0  0  0
  6  7  2  0  0  0  0
  6 27  1  0  0  0  0
  7  8  1  0  0  0  0
  7 13  1  0  0  0  0
  8 12  1  0  0  0  0
  8  9  1  0  0  0  0
  9 10  1  0  0  0  0
  9 28  1  0  0  0  0
  9 29  1  0  0  0  0
 10 11  1  0  0  0  0
 10 30  1  0  0  0  0
 10 31  1  0  0  0  0
 11 12  1  0  0  0  0
 11 32  1  0  0  0  0
 11 33  1  0  0  0  0
 12 34  1  0  0  0  0
 12 35  1  0  0  0  0
 13 14  2  0  0  0  0
 13 52  1  0  0  0  0
 14 36  1  0  0  0  0
 15 16  1  0  0  0  0
 16 24  1  0  0  0  0
 16 17  1  0  0  0  0
 16 37  1  0  0  0  0
 17 18  1  0  0  0  0
 17 38  1  0  0  0  0
 17 39  1  0  0  0  0
 18 19  1  0  0  0  0
 18 40  1  0  0  0  0
 18 41  1  0  0  0  0
 19 24  1  0  0  0  0
 19 20  1  0  0  0  0
 19 51  1  0  0  0  0
 20 21  1  0  0  0  0
 20 42  1  0  0  0  0
 20 43  1  0  0  0  0
 21 22  1  0  0  0  0
 21 44  1  0  0  0  0
 21 45  1  0  0  0  0
 22 23  1  0  0  0  0
 22 46  1  0  0  0  0
 22 47  1  0  0  0  0
 23 24  1  0  0  0  0
 23 48  1  0  0  0  0
 23 49  1  0  0  0  0
 24 50  1  0  0  0  0
M  CHG  1  13   1
M  CHG  1  15  -1
M  CHG  1  19   1
M  END
> <s_m_source_file>
AV-unprocessed.smi

> <i_m_source_file_index>
1867

> <i_lp_mmshare_version>
43012

> <i_f3d_flags>
0

> <s_epik_input>
W0NIMl0xW0NIMl1bQ0gyXVtDSDJdW0NASF0oTjEyKVtDQEBIXShbQ0gyXVtDSDJdMilbTkhdQyg9TylbTkhdYzNbY0hdW2NIXWMobltjSF0zKU40W0NIMl1bQ0gyXVtDSDJdW0NIMl00

> <s_epik_cmdline>
J2VwaWtfcHl0aG9uJywgJy1waCcsICc3LjAnLCAnLXRuJywgJzgnLCAnLW1hJywgJzIwMCcsICctbWV0YWxfYmluZGluZycsICctaW1hZScsICc8aW5maWxlLm1hZT4nLCAnLW9tYWUnLCAnPG91dGZpbGUubWFlPic=

> <r_lp_tautomer_probability>
0.999994

> <r_epik_Ionization_Penalty>
8.56137

> <r_epik_Ionization_Penalty_Charging>
8.56136

> <r_epik_Ionization_Penalty_Neutral>
3.91889e-06

> <r_epik_State_Penalty>
8.16255

> <r_epik_Charging_Adjusted_Penalty>
16.7239

> <i_epik_Tot_Q>
1

> <i_epik_Tot_abs_Q>
3

> <r_epik_Metal_State_Penalty>
4.14279

> <b_epik_Metal_Only>
1

> <s_lp_Force_Field>
OPLS_2005

> <r_lp_Energy>
66.0689

> <b_lp_Chiralities_Consistent>
1

> <s_lp_Variant>
AV-unprocessed.smi:1867-17

> <Gold.Version>
5.8.1

> <Gold.Id.Protein>
6NUR|6NUR_protein|mol2

> <Gold.PLP.Fitness>
49.8530

> <Gold.PLP.PLP>
-41.6067

> <Gold.PLP.part.hbond>
-2.0000

> <Gold.PLP.part.metal>
0.0000

> <Gold.PLP.part.buried>
-5.8548

> <Gold.PLP.part.nonpolar>
-34.3411

> <Gold.PLP.part.repulsive>
0.1527

> <Gold.PLP.ligand.clash>
0.0000

> <Gold.PLP.ligand.torsion>
0.1902

> <Gold.PLP.Chemscore.Hbond>
2.8000

> <Gold.PLP.Chemscore.CHOScore>
0.0000

> <Gold.PLP.Chemscore.Metal>
0.0000

> <Gold.Chemscore.Hbonds>
donor molecule, donor type, donor heavy atom, donor atom, acceptor molecule, acceptor atom, score
      L1  H    19    51       P1  7948  2.00
      P1  H  6896  6908       L1     1  0.78

> <Gold.PLP.Chemscore.Internal.Correction>
0.2268

> <Gold.Rescore>
     Score         DG    S(hbond)    S(metal)    S(lipo)     H(rot)  DE(clash)    DE(int)     intcor
     18.95     -20.54       1.92        0.00      95.69       1.00       0.04       1.55       ----

> <Gold.Chemscore.Fitness>
18.9542

> <Gold.Chemscore.DG>
-20.5357

> <Gold.Chemscore.ZeroCoef>
-5.4800

> <Gold.Chemscore.Hbond>
1.9220

> <Gold.Chemscore.Metal>
0.0000

> <Gold.Chemscore.Lipo>
95.6934

> <Gold.Chemscore.Internal_Hbond>
0.0000

> <Gold.Chemscore.DEClash>
0.0357

> <Gold.Chemscore.DEInternal>
1.5458

> <Gold.Chemscore.Rot>
1.0000

> <Gold.Chemscore.Internal.Correction>
   9.000000E+99

> <Gold.Chemscore.Hbonds>
donor molecule, donor type, donor heavy atom, donor atom, acceptor molecule, acceptor atom, score
      L1  H    19    51       P1  7948  0.99
      P1  H  6896  6908       L1     1  0.73

> <Gold.Chemscore.Hbond.Weighted>
-6.4196

> <Gold.Chemscore.Metal.Weighted>
-0.0000

> <Gold.Chemscore.Lipo.Weighted>
-11.1961

> <Gold.Chemscore.Internal_Hbond.Weighted>
0.0000

> <Gold.Chemscore.DEClash.Weighted>
0.0357

> <Gold.Chemscore.DEInternal.Weighted>
1.5458

> <Gold.Chemscore.Rot.Weighted>
2.5600

> <Gold.Chemscore.Internal.Correction.Weighted>
   9.000000E+99

> <Gold.Protein.RotatedTorsions>
[ 6907 6896 6895 6894 ] final -145.36 input  -60.11 | X-H torsion
[ 7974 7965 7964 7962 ] final -107.22 input  175.53 | X-H torsion
[ 8008 7997 7996 7995 ] final  -70.17 input   59.86 | X-H torsion
[ 10167 10162 10161 10158 ] final  -58.62 input  -65.29 | X-H torsion
[ 10718 10713 10712 10709 ] final   69.67 input   66.30 | X-H torsion
[ 10763 10752 10751 10750 ] final  -29.49 input  -60.55 | X-H torsion
[ 11005 11000 10999 10996 ] final  -19.22 input  -57.11 | X-H torsion

> <Gold.Protein.ActiveResidues>
 VAL166  LYS551  ARG553  GLY616  TRP617  ASP618  TYR619  PRO620  LYS621  CYS622 
 ASP623  PHE694  ASN695  SER759  ASP760  ASP761  ALA762  ILE779  LEU786  VAL792 
 PHE793  MET794  SER795  GLU796  ALA797  LYS798  CYS799  TRP800  GLU811  SER814 

> <Gold.Protein.RotatedAtoms>
  151.1267  133.5065  159.2600 H   0  0  0  0  0  0  0  0  0  0  0  0  # atno 6907 bound_to 6896
  151.1802  135.0357  159.8799 H   0  0  0  0  0  0  0  0  0  0  0  0  # atno 6908 bound_to 6896
  152.5458  134.1120  159.8416 H   0  0  0  0  0  0  0  0  0  0  0  0  # atno 6909 bound_to 6896
  145.2081  140.9085  143.3330 H   0  0  0  0  0  0  0  0  0  0  0  0  # atno 7974 bound_to 7965
  154.4992  140.0839  156.7761 H   0  0  0  0  0  0  0  0  0  0  0  0  # atno 8008 bound_to 7997
  155.4044  140.3438  155.4241 H   0  0  0  0  0  0  0  0  0  0  0  0  # atno 8009 bound_to 7997
  156.1434  140.1536  156.8873 H   0  0  0  0  0  0  0  0  0  0  0  0  # atno 8010 bound_to 7997
  140.6186  143.2411  151.5536 H   0  0  0  0  0  0  0  0  0  0  0  0  # atno 10167 bound_to 10162
  157.6358  130.9437  150.0545 H   0  0  0  0  0  0  0  0  0  0  0  0  # atno 10718 bound_to 10713
  153.7655  135.6916  153.4917 H   0  0  0  0  0  0  0  0  0  0  0  0  # atno 10763 bound_to 10752
  153.1909  135.4471  155.0147 H   0  0  0  0  0  0  0  0  0  0  0  0  # atno 10764 bound_to 10752
  154.8137  135.3389  154.7168 H   0  0  0  0  0  0  0  0  0  0  0  0  # atno 10765 bound_to 10752
  140.8345  133.7972  155.9794 H   0  0  0  0  0  0  0  0  0  0  0  0  # atno 11005 bound_to 11000
  144.9882  139.3715  143.6228 LP  0  0  0  0  0  0  0  0  0  0  0  0  # atno 17320 bound_to 7965
  146.3403  139.9053  142.8788 LP  0  0  0  0  0  0  0  0  0  0  0  0  # atno 17321 bound_to 7965
  139.5419  144.2624  152.1368 LP  0  0  0  0  0  0  0  0  0  0  0  0  # atno 17342 bound_to 10162
  140.1839  144.4818  150.6514 LP  0  0  0  0  0  0  0  0  0  0  0  0  # atno 17343 bound_to 10162
  156.1596  130.3643  149.9318 LP  0  0  0  0  0  0  0  0  0  0  0  0  # atno 17370 bound_to 10713
  156.7319  130.9046  151.3626 LP  0  0  0  0  0  0  0  0  0  0  0  0  # atno 17371 bound_to 10713
  140.8962  134.2435  157.5067 LP  0  0  0  0  0  0  0  0  0  0  0  0  # atno 17394 bound_to 11000
  139.8704  134.9685  156.4633 LP  0  0  0  0  0  0  0  0  0  0  0  0  # atno 17395 bound_to 11000

$$$$
