AV-unprocessed.smi:1184|AV-procd|sdf|4969|dock6
  -GOLD-   22720 3563D 1   1.00000     0.00000
 Structure written by MMmdl.
 43 44  0  0  0  0  0  0  0  0  2 V2000
  145.3019  136.3128  151.2085 C   0  0  0  0  0  0  0  0  0  0  0  0
  145.5982  136.9321  152.5820 C   0  0  0  0  0  0  0  0  0  0  0  0
  146.7069  137.9133  152.5241 N   0  3  1  0  0  0  0  0  0  0  0  0
  146.5669  138.9450  151.4687 C   0  0  0  0  0  0  0  0  0  0  0  0
  147.0028  140.2817  152.0885 C   0  0  0  0  0  0  0  0  0  0  0  0
  147.7226  139.8905  153.3780 C   0  0  1  0  0  0  0  0  0  0  0  0
  147.7613  140.9953  154.4548 C   0  0  0  0  0  0  0  0  0  0  0  0
  148.4552  140.5432  155.6546 N   0  0  0  0  0  0  0  0  0  0  0  0
  149.7482  140.1898  155.7146 C   0  0  0  0  0  0  0  0  0  0  0  0
  150.5480  140.3752  154.7980 O   0  0  0  0  0  0  0  0  0  0  0  0
  150.1850  139.4534  156.9803 C   0  0  0  0  0  0  0  0  0  0  0  0
  150.6340  138.0639  156.5989 C   0  0  0  0  0  0  0  0  0  0  0  0
  150.1579  136.8189  157.1031 C   0  0  0  0  0  0  0  0  0  0  0  0
  149.0834  136.5731  158.1229 C   0  0  0  0  0  0  0  0  0  0  0  0
  150.8102  135.7929  156.5829 N   0  0  0  0  0  0  0  0  0  0  0  0
  151.7421  136.3413  155.6965 O   0  0  0  0  0  0  0  0  0  0  0  0
  151.6171  137.6926  155.7233 C   0  0  0  0  0  0  0  0  0  0  0  0
  152.5469  138.4691  154.8540 C   0  0  0  0  0  0  0  0  0  0  0  0
  146.9817  138.6184  153.7910 C   0  0  0  0  0  0  0  0  0  0  0  0
  144.4429  135.6439  151.2648 H   0  0  0  0  0  0  0  0  0  0  0  0
  146.1451  135.7294  150.8375 H   0  0  0  0  0  0  0  0  0  0  0  0
  145.0749  137.0816  150.4691 H   0  0  0  0  0  0  0  0  0  0  0  0
  144.7019  137.4413  152.9383 H   0  0  0  0  0  0  0  0  0  0  0  0
  145.8278  136.1519  153.3091 H   0  0  0  0  0  0  0  0  0  0  0  0
  147.2044  138.6743  150.6264 H   0  0  0  0  0  0  0  0  0  0  0  0
  145.5424  139.0136  151.0993 H   0  0  0  0  0  0  0  0  0  0  0  0
  147.6333  140.8683  151.4196 H   0  0  0  0  0  0  0  0  0  0  0  0
  146.1193  140.8791  152.3184 H   0  0  0  0  0  0  0  0  0  0  0  0
  148.7456  139.6124  153.1181 H   0  0  0  0  0  0  0  0  0  0  0  0
  148.2340  141.8975  154.0636 H   0  0  0  0  0  0  0  0  0  0  0  0
  146.7476  141.2737  154.7443 H   0  0  0  0  0  0  0  0  0  0  0  0
  147.8847  140.3703  156.4698 H   0  0  0  0  0  0  0  0  0  0  0  0
  150.9858  140.0115  157.4670 H   0  0  0  0  0  0  0  0  0  0  0  0
  149.3536  139.4317  157.6856 H   0  0  0  0  0  0  0  0  0  0  0  0
  149.4724  136.6988  159.1335 H   0  0  0  0  0  0  0  0  0  0  0  0
  148.6767  135.5643  158.0446 H   0  0  0  0  0  0  0  0  0  0  0  0
  148.2560  137.2717  157.9973 H   0  0  0  0  0  0  0  0  0  0  0  0
  152.0038  139.2221  154.2825 H   0  0  0  0  0  0  0  0  0  0  0  0
  153.0621  137.8176  154.1476 H   0  0  0  0  0  0  0  0  0  0  0  0
  153.2996  138.9786  155.4559 H   0  0  0  0  0  0  0  0  0  0  0  0
  146.0437  138.8743  154.2870 H   0  0  0  0  0  0  0  0  0  0  0  0
  147.5665  137.9981  154.4702 H   0  0  0  0  0  0  0  0  0  0  0  0
  147.5477  137.4013  152.2974 H   0  0  0  0  0  0  0  0  0  0  0  0
  1  2  1  0  0  0  0
  1 20  1  0  0  0  0
  1 21  1  0  0  0  0
  1 22  1  0  0  0  0
  2  3  1  0  0  0  0
  2 23  1  0  0  0  0
  2 24  1  0  0  0  0
  3 19  1  0  0  0  0
  3  4  1  0  0  0  0
  3 43  1  0  0  0  0
  4  5  1  0  0  0  0
  4 25  1  0  0  0  0
  4 26  1  0  0  0  0
  5  6  1  0  0  0  0
  5 27  1  0  0  0  0
  5 28  1  0  0  0  0
  6  7  1  0  0  0  0
  6 19  1  0  0  0  0
  6 29  1  0  0  0  0
  7  8  1  0  0  0  0
  7 30  1  0  0  0  0
  7 31  1  0  0  0  0
  8  9  1  0  0  0  0
  8 32  1  0  0  0  0
  9 10  2  0  0  0  0
  9 11  1  0  0  0  0
 11 12  1  0  0  0  0
 11 33  1  0  0  0  0
 11 34  1  0  0  0  0
 12 17  2  0  0  0  0
 12 13  1  0  0  0  0
 13 14  1  0  0  0  0
 13 15  2  0  0  0  0
 14 35  1  0  0  0  0
 14 36  1  0  0  0  0
 14 37  1  0  0  0  0
 15 16  1  0  0  0  0
 16 17  1  0  0  0  0
 17 18  1  0  0  0  0
 18 38  1  0  0  0  0
 18 39  1  0  0  0  0
 18 40  1  0  0  0  0
 19 41  1  0  0  0  0
 19 42  1  0  0  0  0
M  CHG  1   3   1
M  END
> <s_m_source_file>
AV-unprocessed.smi

> <i_m_source_file_index>
1184

> <i_lp_mmshare_version>
43012

> <i_f3d_flags>
0

> <s_epik_input>
W0NIM11bQ0gyXU4xW0NIMl1bQ0gyXVtDQEhdKFtDSDJdMSlbQ0gyXVtOSF1DKD1PKVtDSDJdYzJjKFtDSDNdKW5vYzJbQ0gzXQ==

> <s_epik_cmdline>
J2VwaWtfcHl0aG9uJywgJy1waCcsICc3LjAnLCAnLXRuJywgJzgnLCAnLW1hJywgJzIwMCcsICctbWV0YWxfYmluZGluZycsICctaW1hZScsICc8aW5maWxlLm1hZT4nLCAnLW9tYWUnLCAnPG91dGZpbGUubWFlPic=

> <r_epik_Ionization_Penalty>
0.000590726

> <r_epik_Ionization_Penalty_Charging>
0.000590692

> <r_epik_Ionization_Penalty_Neutral>
3.44741e-08

> <r_epik_State_Penalty>
0.000371644

> <r_epik_Charging_Adjusted_Penalty>
0.000962336

> <i_epik_Tot_Q>
1

> <i_epik_Tot_abs_Q>
1

> <r_epik_Metal_State_Penalty>
-0

> <b_epik_Metal_Only>
0

> <s_lp_Force_Field>
OPLS_2005

> <r_lp_Energy>
20.0287

> <b_lp_Chiralities_Consistent>
1

> <s_lp_Variant>
AV-unprocessed.smi:1184-1

> <Gold.Version>
5.8.1

> <Gold.Id.Protein>
6NUR|6NUR_protein|mol2

> <Gold.PLP.Fitness>
37.6951

> <Gold.PLP.PLP>
-25.7741

> <Gold.PLP.part.hbond>
-2.9083

> <Gold.PLP.part.metal>
0.0000

> <Gold.PLP.part.buried>
0.7436

> <Gold.PLP.part.nonpolar>
-24.2508

> <Gold.PLP.part.repulsive>
0.2016

> <Gold.PLP.ligand.clash>
0.0000

> <Gold.PLP.ligand.torsion>
0.0508

> <Gold.PLP.Chemscore.Hbond>
4.0000

> <Gold.PLP.Chemscore.CHOScore>
0.0000

> <Gold.PLP.Chemscore.Metal>
0.0000

> <Gold.Chemscore.Hbonds>
donor molecule, donor type, donor heavy atom, donor atom, acceptor molecule, acceptor atom, score
      L1  H     3    43       P1  7948  2.00
      P1  H  7989  7998       L1    10  1.00
      P1  H 10752 10764       L1    16  1.00

> <Gold.PLP.Chemscore.Internal.Correction>
0.0227

> <Gold.Rescore>
     Score         DG    S(hbond)    S(metal)    S(lipo)     H(rot)  DE(clash)    DE(int)     intcor
     17.86     -19.16       2.93        0.00      69.62       1.67       0.21       1.09       ----

> <Gold.Chemscore.Fitness>
17.8557

> <Gold.Chemscore.DG>
-19.1557

> <Gold.Chemscore.ZeroCoef>
-5.4800

> <Gold.Chemscore.Hbond>
2.9344

> <Gold.Chemscore.Metal>
0.0000

> <Gold.Chemscore.Lipo>
69.6231

> <Gold.Chemscore.Internal_Hbond>
0.0000

> <Gold.Chemscore.DEClash>
0.2102

> <Gold.Chemscore.DEInternal>
1.0897

> <Gold.Chemscore.Rot>
1.6684

> <Gold.Chemscore.Internal.Correction>
   9.000000E+99

> <Gold.Chemscore.Hbonds>
donor molecule, donor type, donor heavy atom, donor atom, acceptor molecule, acceptor atom, score
      L1  H     3    43       P1  7948  1.00
      P1  H  7989  7998       L1    10  0.98
      P1  H 10752 10764       L1    16  0.98

> <Gold.Chemscore.Hbond.Weighted>
-9.8010

> <Gold.Chemscore.Metal.Weighted>
-0.0000

> <Gold.Chemscore.Lipo.Weighted>
-8.1459

> <Gold.Chemscore.Internal_Hbond.Weighted>
0.0000

> <Gold.Chemscore.DEClash.Weighted>
0.2102

> <Gold.Chemscore.DEInternal.Weighted>
1.0897

> <Gold.Chemscore.Rot.Weighted>
4.2712

> <Gold.Chemscore.Internal.Correction.Weighted>
   9.000000E+99

> <Gold.Protein.RotatedTorsions>
[ 6907 6896 6895 6894 ] final  169.97 input  -60.11 | X-H torsion
[ 7974 7965 7964 7962 ] final -134.35 input  175.53 | X-H torsion
[ 8008 7997 7996 7995 ] final   23.11 input   59.86 | X-H torsion
[ 10167 10162 10161 10158 ] final   16.14 input  -65.29 | X-H torsion
[ 10718 10713 10712 10709 ] final  -74.92 input   66.30 | X-H torsion
[ 10763 10752 10751 10750 ] final  -28.66 input  -60.55 | X-H torsion
[ 11005 11000 10999 10996 ] final  -27.63 input  -57.11 | X-H torsion

> <Gold.Protein.ActiveResidues>
 VAL166  LYS551  ARG553  GLY616  TRP617  ASP618  TYR619  PRO620  LYS621  CYS622 
 ASP623  PHE694  ASN695  SER759  ASP760  ASP761  ALA762  ILE779  LEU786  VAL792 
 PHE793  MET794  SER795  GLU796  ALA797  LYS798  CYS799  TRP800  GLU811  SER814 

> <Gold.Protein.RotatedAtoms>
  151.8235  133.3398  159.3591 H   0  0  0  0  0  0  0  0  0  0  0  0  # atno 6907 bound_to 6896
  150.7287  134.5551  159.5823 H   0  0  0  0  0  0  0  0  0  0  0  0  # atno 6908 bound_to 6896
  152.2989  134.7636  160.0413 H   0  0  0  0  0  0  0  0  0  0  0  0  # atno 6909 bound_to 6896
  144.9111  140.6896  143.5024 H   0  0  0  0  0  0  0  0  0  0  0  0  # atno 7974 bound_to 7965
  154.9760  140.3096  155.4967 H   0  0  0  0  0  0  0  0  0  0  0  0  # atno 8008 bound_to 7997
  156.2959  140.2275  156.4795 H   0  0  0  0  0  0  0  0  0  0  0  0  # atno 8009 bound_to 7997
  154.7833  140.0444  157.1132 H   0  0  0  0  0  0  0  0  0  0  0  0  # atno 8010 bound_to 7997
  140.5818  143.8966  150.6796 H   0  0  0  0  0  0  0  0  0  0  0  0  # atno 10167 bound_to 10162
  156.0225  130.4428  150.2965 H   0  0  0  0  0  0  0  0  0  0  0  0  # atno 10718 bound_to 10713
  153.7519  135.6925  153.4944 H   0  0  0  0  0  0  0  0  0  0  0  0  # atno 10763 bound_to 10752
  153.1997  135.4441  155.0250 H   0  0  0  0  0  0  0  0  0  0  0  0  # atno 10764 bound_to 10752
  154.8184  135.3410  154.7039 H   0  0  0  0  0  0  0  0  0  0  0  0  # atno 10765 bound_to 10752
  140.9137  133.7444  156.0705 H   0  0  0  0  0  0  0  0  0  0  0  0  # atno 11005 bound_to 11000
  145.3453  139.1721  143.4464 LP  0  0  0  0  0  0  0  0  0  0  0  0  # atno 17320 bound_to 7965
  146.3159  140.3499  142.8655 LP  0  0  0  0  0  0  0  0  0  0  0  0  # atno 17321 bound_to 7965
  140.2467  143.3623  152.1441 LP  0  0  0  0  0  0  0  0  0  0  0  0  # atno 17342 bound_to 10162
  139.5174  144.6991  151.5544 LP  0  0  0  0  0  0  0  0  0  0  0  0  # atno 17343 bound_to 10162
  157.1068  131.0210  151.3064 LP  0  0  0  0  0  0  0  0  0  0  0  0  # atno 17370 bound_to 10713
  157.4736  130.7723  149.7347 LP  0  0  0  0  0  0  0  0  0  0  0  0  # atno 17371 bound_to 10713
  140.8078  134.3435  157.5421 LP  0  0  0  0  0  0  0  0  0  0  0  0  # atno 17394 bound_to 11000
  139.8762  134.9236  156.3328 LP  0  0  0  0  0  0  0  0  0  0  0  0  # atno 17395 bound_to 11000

$$$$
