AV-unprocessed.smi:160|AV-procd|sdf|1360|dock9
  -GOLD-   2262019 73D 1   1.00000     0.00000
 Structure written by MMmdl.
 28 29  0  0  0  0  0  0  0  0  2 V2000
  151.8141  137.3523  155.1475 N   0  5  0  0  0  0  0  0  0  0  0  0
  152.1010  138.4057  155.9426 C   0  0  0  0  0  0  0  0  0  0  0  0
  152.9983  138.4596  156.7831 O   0  0  0  0  0  0  0  0  0  0  0  0
  151.2058  139.6054  155.7421 C   0  0  0  0  0  0  0  0  0  0  0  0
  151.2665  140.6704  156.5986 N   0  0  0  0  0  0  0  0  0  0  0  0
  150.3389  141.4403  156.0465 C   0  0  0  0  0  0  0  0  0  0  0  0
  149.7573  140.9105  154.9668 N   0  0  0  0  0  0  0  0  0  0  0  0
  148.6801  141.4731  154.0880 C   0  0  1  0  0  0  0  0  0  0  0  0
  148.3990  140.5442  153.0830 O   0  0  0  0  0  0  0  0  0  0  0  0
  147.1760  139.8747  153.3733 C   0  0  2  0  0  0  0  0  0  0  0  0
  146.5830  139.2893  152.0823 C   0  0  0  0  0  0  0  0  0  0  0  0
  147.5098  138.4164  151.4729 O   0  0  0  0  0  0  0  0  0  0  0  0
  146.3444  141.0129  153.9678 C   0  0  1  0  0  0  0  0  0  0  0  0
  145.2107  140.5554  154.6815 O   0  0  0  0  0  0  0  0  0  0  0  0
  147.3553  141.7609  154.8355 C   0  0  1  0  0  0  0  0  0  0  0  0
  147.3384  141.3321  156.1890 O   0  0  0  0  0  0  0  0  0  0  0  0
  150.3216  139.6973  154.7438 N   0  0  0  0  0  0  0  0  0  0  0  0
  149.1285  142.3648  153.6487 H   0  0  0  0  0  0  0  0  0  0  0  0
  147.3369  139.0986  154.1243 H   0  0  0  0  0  0  0  0  0  0  0  0
  146.0113  141.6734  153.1657 H   0  0  0  0  0  0  0  0  0  0  0  0
  147.1613  142.8336  154.8194 H   0  0  0  0  0  0  0  0  0  0  0  0
  150.8411  137.2179  154.8471 H   0  0  0  0  0  0  0  0  0  0  0  0
  150.0749  142.4106  156.4404 H   0  0  0  0  0  0  0  0  0  0  0  0
  145.6895  138.7076  152.3103 H   0  0  0  0  0  0  0  0  0  0  0  0
  146.2886  140.0763  151.3875 H   0  0  0  0  0  0  0  0  0  0  0  0
  147.6743  137.6944  152.0594 H   0  0  0  0  0  0  0  0  0  0  0  0
  144.4562  140.6168  154.1163 H   0  0  0  0  0  0  0  0  0  0  0  0
  146.8390  140.5324  156.2478 H   0  0  0  0  0  0  0  0  0  0  0  0
  1  2  1  0  0  0  0
  1 22  1  0  0  0  0
  2  3  2  0  0  0  0
  2  4  1  0  0  0  0
  4 17  2  0  0  0  0
  4  5  1  0  0  0  0
  5  6  2  0  0  0  0
  6  7  1  0  0  0  0
  6 23  1  0  0  0  0
  7  8  1  0  0  0  0
  7 17  1  0  0  0  0
  8 18  1  0  0  0  0
  8 15  1  0  0  0  0
  8  9  1  0  0  0  0
  9 10  1  0  0  0  0
 10 19  1  0  0  0  0
 10 11  1  0  0  0  0
 10 13  1  0  0  0  0
 11 12  1  0  0  0  0
 11 24  1  0  0  0  0
 11 25  1  0  0  0  0
 12 26  1  0  0  0  0
 13 20  1  0  0  0  0
 13 14  1  0  0  0  0
 13 15  1  0  0  0  0
 14 27  1  0  0  0  0
 15 21  1  0  0  0  0
 15 16  1  0  0  0  0
 16 28  1  0  0  0  0
M  CHG  1   1  -1
M  END
> <s_m_source_file>
AV-unprocessed.smi

> <i_m_source_file_index>
160

> <i_lp_mmshare_version>
43012

> <i_f3d_flags>
0

> <s_epik_input>
W05IMl1DKD1PKWMxbltjSF1uKG4xKVtDQEBIXTJPW0NASF0oW0NIMl1bT0hdKVtDQEBIXShbT0hdKVtDQEhdMltPSF0=

> <s_epik_cmdline>
J2VwaWtfcHl0aG9uJywgJy1waCcsICc3LjAnLCAnLXRuJywgJzgnLCAnLW1hJywgJzIwMCcsICctbWV0YWxfYmluZGluZycsICctaW1hZScsICc8aW5maWxlLm1hZT4nLCAnLW9tYWUnLCAnPG91dGZpbGUubWFlPic=

> <r_lp_tautomer_probability>
1

> <r_epik_Ionization_Penalty>
6.6993

> <r_epik_Ionization_Penalty_Charging>
6.6993

> <r_epik_Ionization_Penalty_Neutral>
6.01698e-06

> <r_epik_State_Penalty>
6.69929

> <r_epik_Charging_Adjusted_Penalty>
13.3986

> <i_epik_Tot_Q>
-1

> <i_epik_Tot_abs_Q>
1

> <r_epik_Metal_State_Penalty>
2.62798

> <b_epik_Metal_Only>
1

> <s_epik_Chemistry_Notes>
This compound contains an acetal/aminal-like group ( X-CH(R)-Y where X, Y are N, S, or O) that may be acid/base labile, releasing an aldehyde.

> <s_lp_Force_Field>
OPLS_2005

> <r_lp_Energy>
50.1609

> <b_lp_Chiralities_Consistent>
1

> <s_lp_Variant>
AV-unprocessed.smi:160-18

> <Gold.Version>
5.8.1

> <Gold.Id.Protein>
6NUR|6NUR_protein|mol2

> <Gold.PLP.Fitness>
43.3214

> <Gold.PLP.PLP>
-26.3155

> <Gold.PLP.part.hbond>
-7.0000

> <Gold.PLP.part.metal>
0.0000

> <Gold.PLP.part.buried>
-0.8769

> <Gold.PLP.part.nonpolar>
-23.8069

> <Gold.PLP.part.repulsive>
5.2392

> <Gold.PLP.ligand.clash>
0.0000

> <Gold.PLP.ligand.torsion>
0.0626

> <Gold.PLP.Chemscore.Hbond>
5.1522

> <Gold.PLP.Chemscore.CHOScore>
0.5530

> <Gold.PLP.Chemscore.Metal>
0.0000

> <Gold.Chemscore.Hbonds>
donor molecule, donor type, donor heavy atom, donor atom, acceptor molecule, acceptor atom, score
      L1  H    12    26       P1  7948  0.54
      L1  H    14    27       P1 10175  1.00
      P1  H  7954  7966       L1    12  1.00
      P1  H  7989  7998       L1    17  0.05
      P1  H  7997  8008       L1     3  0.75
      P1  H 10752 10763       L1     1  1.27
      L1  C     6    23       P1  8028  0.55

> <Gold.PLP.Chemscore.Internal.Correction>
0.0155

> <Gold.Rescore>
     Score         DG    S(hbond)    S(metal)    S(lipo)     H(rot)  DE(clash)    DE(int)     intcor
      9.07     -11.61       3.98        0.00      27.31       4.04       2.33       0.21       ----

> <Gold.Chemscore.Fitness>
9.0733

> <Gold.Chemscore.DG>
-11.6127

> <Gold.Chemscore.ZeroCoef>
-5.4800

> <Gold.Chemscore.Hbond>
3.9761

> <Gold.Chemscore.Metal>
0.0000

> <Gold.Chemscore.Lipo>
27.3143

> <Gold.Chemscore.Internal_Hbond>
0.0000

> <Gold.Chemscore.DEClash>
2.3263

> <Gold.Chemscore.DEInternal>
0.2131

> <Gold.Chemscore.Rot>
4.0403

> <Gold.Chemscore.Internal.Correction>
   9.000000E+99

> <Gold.Chemscore.Hbonds>
donor molecule, donor type, donor heavy atom, donor atom, acceptor molecule, acceptor atom, score
      L1  H    12    26       P1  7948  0.54
      L1  H    14    27       P1 10175  0.96
      P1  H  7954  7966       L1    12  0.49
      P1  H  7997  8008       L1     3  0.62
      P1  H 10752 10763       L1     1  0.37

> <Gold.Chemscore.Hbond.Weighted>
-13.2800

> <Gold.Chemscore.Metal.Weighted>
-0.0000

> <Gold.Chemscore.Lipo.Weighted>
-3.1958

> <Gold.Chemscore.Internal_Hbond.Weighted>
0.0000

> <Gold.Chemscore.DEClash.Weighted>
2.3263

> <Gold.Chemscore.DEInternal.Weighted>
0.2131

> <Gold.Chemscore.Rot.Weighted>
10.3431

> <Gold.Chemscore.Internal.Correction.Weighted>
   9.000000E+99

> <Gold.Protein.RotatedTorsions>
[ 6907 6896 6895 6894 ] final    1.90 input  -60.11 | X-H torsion
[ 7974 7965 7964 7962 ] final  159.43 input  175.53 | X-H torsion
[ 8008 7997 7996 7995 ] final  -51.01 input   59.86 | X-H torsion
[ 10167 10162 10161 10158 ] final  176.85 input  -65.29 | X-H torsion
[ 10718 10713 10712 10709 ] final -122.35 input   66.30 | X-H torsion
[ 10763 10752 10751 10750 ] final   52.33 input  -60.55 | X-H torsion
[ 11005 11000 10999 10996 ] final  164.96 input  -57.11 | X-H torsion

> <Gold.Protein.ActiveResidues>
 VAL166  LYS551  ARG553  GLY616  TRP617  ASP618  TYR619  PRO620  LYS621  CYS622 
 ASP623  PHE694  ASN695  SER759  ASP760  ASP761  ALA762  ILE779  LEU786  VAL792 
 PHE793  MET794  SER795  GLU796  ALA797  LYS798  CYS799  TRP800  GLU811  SER814 

> <Gold.Protein.RotatedAtoms>
  151.6002  135.1048  160.0058 H   0  0  0  0  0  0  0  0  0  0  0  0  # atno 6907 bound_to 6896
  152.4262  133.7194  159.6535 H   0  0  0  0  0  0  0  0  0  0  0  0  # atno 6908 bound_to 6896
  150.8151  133.8280  159.3186 H   0  0  0  0  0  0  0  0  0  0  0  0  # atno 6909 bound_to 6896
  144.7791  139.7616  143.6267 H   0  0  0  0  0  0  0  0  0  0  0  0  # atno 7974 bound_to 7965
  154.4074  140.1258  156.4760 H   0  0  0  0  0  0  0  0  0  0  0  0  # atno 8008 bound_to 7997
  155.7132  140.3493  155.4963 H   0  0  0  0  0  0  0  0  0  0  0  0  # atno 8009 bound_to 7997
  155.9281  140.1064  157.1144 H   0  0  0  0  0  0  0  0  0  0  0  0  # atno 8010 bound_to 7997
  139.5230  144.2867  152.0499 H   0  0  0  0  0  0  0  0  0  0  0  0  # atno 10167 bound_to 10162
  156.1411  130.6466  150.9772 H   0  0  0  0  0  0  0  0  0  0  0  0  # atno 10718 bound_to 10713
  152.9788  135.5816  154.4561 H   0  0  0  0  0  0  0  0  0  0  0  0  # atno 10763 bound_to 10752
  154.4143  135.2770  155.2018 H   0  0  0  0  0  0  0  0  0  0  0  0  # atno 10764 bound_to 10752
  154.3795  135.6150  153.5837 H   0  0  0  0  0  0  0  0  0  0  0  0  # atno 10765 bound_to 10752
  140.2512  134.7975  157.3504 H   0  0  0  0  0  0  0  0  0  0  0  0  # atno 11005 bound_to 11000
  146.1988  139.5271  142.9757 LP  0  0  0  0  0  0  0  0  0  0  0  0  # atno 17320 bound_to 7965
  145.6101  141.0341  143.1971 LP  0  0  0  0  0  0  0  0  0  0  0  0  # atno 17321 bound_to 7965
  140.2320  144.4358  150.6296 LP  0  0  0  0  0  0  0  0  0  0  0  0  # atno 17342 bound_to 10162
  140.6349  143.2193  151.6417 LP  0  0  0  0  0  0  0  0  0  0  0  0  # atno 17343 bound_to 10162
  157.6576  131.0886  150.7911 LP  0  0  0  0  0  0  0  0  0  0  0  0  # atno 17370 bound_to 10713
  156.7986  130.4913  149.5373 LP  0  0  0  0  0  0  0  0  0  0  0  0  # atno 17371 bound_to 10713
  140.1556  134.4794  155.7930 LP  0  0  0  0  0  0  0  0  0  0  0  0  # atno 17394 bound_to 11000
  141.2201  133.6880  156.7455 LP  0  0  0  0  0  0  0  0  0  0  0  0  # atno 17395 bound_to 11000

$$$$
