AV-unprocessed.smi:3160|AV-procd|sdf|12051|dock7
  -GOLD-   2272017483D 1   1.00000     0.00000
 Structure written by MMmdl.
 40 41  0  0  0  0  0  0  0  0  2 V2000
  153.3355  143.1932  163.4321 C   0  0  0  0  0  0  0  0  0  0  0  0
  153.1221  142.8913  161.9768 C   0  0  0  0  0  0  0  0  0  0  0  0
  153.6132  141.7818  161.2324 C   0  0  0  0  0  0  0  0  0  0  0  0
  153.2424  141.8100  159.9628 N   0  0  0  0  0  0  0  0  0  0  0  0
  152.5046  142.9350  159.8486 N   0  0  0  0  0  0  0  0  0  0  0  0
  151.9177  143.2876  158.5621 C   0  0  2  0  0  0  0  0  0  0  0  0
  151.4125  144.7414  158.6038 C   0  0  0  0  0  0  0  0  0  0  0  0
  150.8219  142.2770  158.1320 C   0  0  2  0  0  0  0  0  0  0  0  0
  151.2582  140.8078  158.2797 C   0  0  0  0  0  0  0  0  0  0  0  0
  150.4261  142.5156  156.7249 N   0  3  0  0  0  0  0  0  0  0  0  0
  149.6403  141.4333  156.0933 C   0  0  0  0  0  0  0  0  0  0  0  0
  150.5104  140.3815  155.4001 C   0  0  0  0  0  0  0  0  0  0  0  0
  149.5753  139.7089  154.3882 C   0  0  0  0  0  0  0  0  0  0  0  0
  148.4409  140.7106  154.1167 C   0  0  0  0  0  0  0  0  0  0  0  0
  148.7528  141.9507  154.9616 C   0  0  0  0  0  0  0  0  0  0  0  0
  152.4148  143.6055  161.0522 C   0  0  0  0  0  0  0  0  0  0  0  0
  154.2025  142.6664  163.8316 H   0  0  0  0  0  0  0  0  0  0  0  0
  152.4752  142.8996  164.0336 H   0  0  0  0  0  0  0  0  0  0  0  0
  153.5008  144.2571  163.6031 H   0  0  0  0  0  0  0  0  0  0  0  0
  154.2248  140.9608  161.5764 H   0  0  0  0  0  0  0  0  0  0  0  0
  152.7177  143.2448  157.8199 H   0  0  0  0  0  0  0  0  0  0  0  0
  151.0854  145.0807  157.6211 H   0  0  0  0  0  0  0  0  0  0  0  0
  152.2020  145.4194  158.9304 H   0  0  0  0  0  0  0  0  0  0  0  0
  150.5738  144.8544  159.2911 H   0  0  0  0  0  0  0  0  0  0  0  0
  149.9551  142.4162  158.7799 H   0  0  0  0  0  0  0  0  0  0  0  0
  151.4582  140.5454  159.3187 H   0  0  0  0  0  0  0  0  0  0  0  0
  152.1618  140.6029  157.7047 H   0  0  0  0  0  0  0  0  0  0  0  0
  150.4792  140.1315  157.9260 H   0  0  0  0  0  0  0  0  0  0  0  0
  149.8783  143.3639  156.7000 H   0  0  0  0  0  0  0  0  0  0  0  0
  149.0070  140.9509  156.8398 H   0  0  0  0  0  0  0  0  0  0  0  0
  151.3304  140.8669  154.8683 H   0  0  0  0  0  0  0  0  0  0  0  0
  150.9482  139.6673  156.0980 H   0  0  0  0  0  0  0  0  0  0  0  0
  150.1074  139.4385  153.4752 H   0  0  0  0  0  0  0  0  0  0  0  0
  149.1629  138.7908  154.8080 H   0  0  0  0  0  0  0  0  0  0  0  0
  148.3598  140.9604  153.0583 H   0  0  0  0  0  0  0  0  0  0  0  0
  147.4873  140.2781  154.4227 H   0  0  0  0  0  0  0  0  0  0  0  0
  147.8518  142.4445  155.3272 H   0  0  0  0  0  0  0  0  0  0  0  0
  149.3024  142.6714  154.3539 H   0  0  0  0  0  0  0  0  0  0  0  0
  151.8595  144.5265  161.1516 H   0  0  0  0  0  0  0  0  0  0  0  0
  151.2606  142.6605  156.1749 H   0  0  0  0  0  0  0  0  0  0  0  0
  1  2  1  0  0  0  0
  1 17  1  0  0  0  0
  1 18  1  0  0  0  0
  1 19  1  0  0  0  0
  2 16  2  0  0  0  0
  2  3  1  0  0  0  0
  3  4  2  0  0  0  0
  3 20  1  0  0  0  0
  4  5  1  0  0  0  0
  5  6  1  0  0  0  0
  5 16  1  0  0  0  0
  6  7  1  0  0  0  0
  6  8  1  0  0  0  0
  6 21  1  0  0  0  0
  7 22  1  0  0  0  0
  7 23  1  0  0  0  0
  7 24  1  0  0  0  0
  8  9  1  0  0  0  0
  8 10  1  0  0  0  0
  8 25  1  0  0  0  0
  9 26  1  0  0  0  0
  9 27  1  0  0  0  0
  9 28  1  0  0  0  0
 10 11  1  0  0  0  0
 10 29  1  0  0  0  0
 10 40  1  0  0  0  0
 11 15  1  0  0  0  0
 11 12  1  0  0  0  0
 11 30  1  0  0  0  0
 12 13  1  0  0  0  0
 12 31  1  0  0  0  0
 12 32  1  0  0  0  0
 13 14  1  0  0  0  0
 13 33  1  0  0  0  0
 13 34  1  0  0  0  0
 14 15  1  0  0  0  0
 14 35  1  0  0  0  0
 14 36  1  0  0  0  0
 15 37  1  0  0  0  0
 15 38  1  0  0  0  0
 16 39  1  0  0  0  0
M  CHG  1  10   1
M  END
> <s_m_source_file>
AV-unprocessed.smi

> <i_m_source_file_index>
3160

> <i_lp_mmshare_version>
43012

> <i_f3d_flags>
0

> <s_epik_input>
W0NIM11jMVtjSF1ubihbY0hdMSlbQ0BIXShbQ0gzXSlbQ0BIXShbQ0gzXSlbTkhdW0NIXTJbQ0gyXVtDSDJdW0NIMl1bQ0gyXTI=

> <s_epik_cmdline>
J2VwaWtfcHl0aG9uJywgJy1waCcsICc3LjAnLCAnLXRuJywgJzgnLCAnLW1hJywgJzIwMCcsICctbWV0YWxfYmluZGluZycsICctaW1hZScsICc8aW5maWxlLm1hZT4nLCAnLW9tYWUnLCAnPG91dGZpbGUubWFlPic=

> <r_lp_tautomer_probability>
1

> <r_epik_Ionization_Penalty>
0.00117636

> <r_epik_Ionization_Penalty_Charging>
0.00115264

> <r_epik_Ionization_Penalty_Neutral>
2.37123e-05

> <r_epik_State_Penalty>
-0

> <r_epik_Charging_Adjusted_Penalty>
0.00115264

> <i_epik_Tot_Q>
1

> <i_epik_Tot_abs_Q>
1

> <r_epik_Metal_State_Penalty>
-0

> <b_epik_Metal_Only>
0

> <s_lp_Force_Field>
OPLS_2005

> <r_lp_Energy>
32.1139

> <b_lp_Chiralities_Consistent>
1

> <s_lp_Variant>
AV-unprocessed.smi:3160-1

> <Gold.Version>
5.8.1

> <Gold.Id.Protein>
6NUR|6NUR_protein|mol2

> <Gold.PLP.Fitness>
48.5500

> <Gold.PLP.PLP>
-43.9959

> <Gold.PLP.part.hbond>
-1.0000

> <Gold.PLP.part.metal>
0.0000

> <Gold.PLP.part.buried>
-2.0865

> <Gold.PLP.part.nonpolar>
-39.0815

> <Gold.PLP.part.repulsive>
0.0553

> <Gold.PLP.ligand.clash>
0.0000

> <Gold.PLP.ligand.torsion>
0.7660

> <Gold.PLP.Chemscore.Hbond>
2.0000

> <Gold.PLP.Chemscore.CHOScore>
0.0000

> <Gold.PLP.Chemscore.Metal>
0.0000

> <Gold.Chemscore.Hbonds>
donor molecule, donor type, donor heavy atom, donor atom, acceptor molecule, acceptor atom, score
      L1  H    10    29       P1  8028  2.00

> <Gold.PLP.Chemscore.Internal.Correction>
0.0861

> <Gold.Rescore>
     Score         DG    S(hbond)    S(metal)    S(lipo)     H(rot)  DE(clash)    DE(int)     intcor
     15.77     -18.95       0.98        0.00     117.06       1.37       0.24       2.95       ----

> <Gold.Chemscore.Fitness>
15.7694

> <Gold.Chemscore.DG>
-18.9538

> <Gold.Chemscore.ZeroCoef>
-5.4800

> <Gold.Chemscore.Hbond>
0.9842

> <Gold.Chemscore.Metal>
0.0000

> <Gold.Chemscore.Lipo>
117.0605

> <Gold.Chemscore.Internal_Hbond>
0.0000

> <Gold.Chemscore.DEClash>
0.2384

> <Gold.Chemscore.DEInternal>
2.9460

> <Gold.Chemscore.Rot>
1.3709

> <Gold.Chemscore.Internal.Correction>
   9.000000E+99

> <Gold.Chemscore.Hbonds>
donor molecule, donor type, donor heavy atom, donor atom, acceptor molecule, acceptor atom, score
      L1  H    10    29       P1  8028  0.93

> <Gold.Chemscore.Hbond.Weighted>
-3.2872

> <Gold.Chemscore.Metal.Weighted>
-0.0000

> <Gold.Chemscore.Lipo.Weighted>
-13.6961

> <Gold.Chemscore.Internal_Hbond.Weighted>
0.0000

> <Gold.Chemscore.DEClash.Weighted>
0.2384

> <Gold.Chemscore.DEInternal.Weighted>
2.9460

> <Gold.Chemscore.Rot.Weighted>
3.5095

> <Gold.Chemscore.Internal.Correction.Weighted>
   9.000000E+99

> <Gold.Protein.RotatedTorsions>
[ 6907 6896 6895 6894 ] final -156.93 input  -60.11 | X-H torsion
[ 7974 7965 7964 7962 ] final   23.96 input  175.53 | X-H torsion
[ 8008 7997 7996 7995 ] final  176.68 input   59.86 | X-H torsion
[ 10167 10162 10161 10158 ] final   67.54 input  -65.29 | X-H torsion
[ 10718 10713 10712 10709 ] final -158.41 input   66.30 | X-H torsion
[ 10763 10752 10751 10750 ] final  -21.27 input  -60.55 | X-H torsion
[ 11005 11000 10999 10996 ] final   81.40 input  -57.11 | X-H torsion

> <Gold.Protein.ActiveResidues>
 VAL166  LYS551  ARG553  GLY616  TRP617  ASP618  TYR619  PRO620  LYS621  CYS622 
 ASP623  PHE694  ASN695  SER759  ASP760  ASP761  ALA762  ILE779  LEU786  VAL792 
 PHE793  MET794  SER795  GLU796  ALA797  LYS798  CYS799  TRP800  GLU811  SER814 

> <Gold.Protein.RotatedAtoms>
  151.2951  133.4147  159.2635 H   0  0  0  0  0  0  0  0  0  0  0  0  # atno 6907 bound_to 6896
  151.0243  134.9493  159.8087 H   0  0  0  0  0  0  0  0  0  0  0  0  # atno 6908 bound_to 6896
  152.5331  134.2914  159.9097 H   0  0  0  0  0  0  0  0  0  0  0  0  # atno 6909 bound_to 6896
  146.1960  139.7671  142.8797 H   0  0  0  0  0  0  0  0  0  0  0  0  # atno 7974 bound_to 7965
  156.0739  140.1377  156.9796 H   0  0  0  0  0  0  0  0  0  0  0  0  # atno 8008 bound_to 7997
  154.4546  140.0966  156.6772 H   0  0  0  0  0  0  0  0  0  0  0  0  # atno 8009 bound_to 7997
  155.5185  140.3455  155.4404 H   0  0  0  0  0  0  0  0  0  0  0  0  # atno 8010 bound_to 7997
  140.0884  144.5009  150.7115 H   0  0  0  0  0  0  0  0  0  0  0  0  # atno 10167 bound_to 10162
  156.5538  130.8617  151.2788 H   0  0  0  0  0  0  0  0  0  0  0  0  # atno 10718 bound_to 10713
  153.6335  135.6988  153.5267 H   0  0  0  0  0  0  0  0  0  0  0  0  # atno 10763 bound_to 10752
  153.2840  135.4177  155.1105 H   0  0  0  0  0  0  0  0  0  0  0  0  # atno 10764 bound_to 10752
  154.8516  135.3609  154.5878 H   0  0  0  0  0  0  0  0  0  0  0  0  # atno 10765 bound_to 10752
  139.9099  134.7994  156.2036 H   0  0  0  0  0  0  0  0  0  0  0  0  # atno 11005 bound_to 11000
  145.3642  141.0331  143.3267 LP  0  0  0  0  0  0  0  0  0  0  0  0  # atno 17320 bound_to 7965
  144.8581  139.5218  143.6825 LP  0  0  0  0  0  0  0  0  0  0  0  0  # atno 17321 bound_to 7965
  140.7041  143.2455  151.4778 LP  0  0  0  0  0  0  0  0  0  0  0  0  # atno 17342 bound_to 10162
  139.5739  144.1865  152.1875 LP  0  0  0  0  0  0  0  0  0  0  0  0  # atno 17343 bound_to 10162
  157.7382  130.9810  150.2240 LP  0  0  0  0  0  0  0  0  0  0  0  0  # atno 17370 bound_to 10713
  156.2861  130.3739  149.7887 LP  0  0  0  0  0  0  0  0  0  0  0  0  # atno 17371 bound_to 10713
  141.0509  133.6889  156.1770 LP  0  0  0  0  0  0  0  0  0  0  0  0  # atno 17394 bound_to 11000
  140.6811  134.4766  157.5589 LP  0  0  0  0  0  0  0  0  0  0  0  0  # atno 17395 bound_to 11000

$$$$
