AV-unprocessed.smi:295|AV-procd|sdf|2254|dock2
  -GOLD-   2262022143D 1   1.00000     0.00000
 Structure written by MMmdl.
 35 36  0  0  0  0  0  0  0  0  1 V2000
  151.3942  140.4377  158.3251 C   0  0  0  0  0  0  0  0  0  0  0  0
  151.9025  141.8904  158.2724 C   0  0  2  0  0  0  0  0  0  0  0  0
  152.5680  142.2841  159.6063 C   0  0  0  0  0  0  0  0  0  0  0  0
  153.0975  143.7259  159.5758 C   0  0  0  0  0  0  0  0  0  0  0  0
  151.9798  144.7171  159.2231 C   0  0  0  0  0  0  0  0  0  0  0  0
  151.3146  144.3457  157.8899 C   0  0  0  0  0  0  0  0  0  0  0  0
  150.7849  142.8978  157.9049 C   0  0  1  0  0  0  0  0  0  0  0  0
  150.2244  142.5652  156.5992 N   0  0  0  0  0  0  0  0  0  0  0  0
  148.9817  142.1153  156.3666 C   0  0  0  0  0  0  0  0  0  0  0  0
  148.1201  142.0093  157.2384 O   0  0  0  0  0  0  0  0  0  0  0  0
  148.6703  141.7071  154.9257 C   0  0  0  0  0  0  0  0  0  0  0  0
  149.2593  140.4161  154.6151 N   0  0  0  0  0  0  0  0  0  0  0  0
  148.6857  139.2664  154.2443 C   0  0  0  0  0  0  0  0  0  0  0  0
  149.5417  138.2657  154.0778 N   0  0  0  0  0  0  0  0  0  0  0  0
  150.6978  138.9227  154.3843 C   0  0  0  0  0  0  0  0  0  0  0  0
  151.9834  138.2460  154.3679 C   0  0  0  0  0  0  0  0  0  0  0  0
  153.0078  137.7077  154.3550 N   0  0  0  0  0  0  0  0  0  0  0  0
  150.5961  140.2093  154.7101 N   0  0  0  0  0  0  0  0  0  0  0  0
  150.5947  140.3253  159.0580 H   0  0  0  0  0  0  0  0  0  0  0  0
  152.1961  139.7525  158.6007 H   0  0  0  0  0  0  0  0  0  0  0  0
  151.0087  140.1078  157.3599 H   0  0  0  0  0  0  0  0  0  0  0  0
  152.6690  141.9380  157.4969 H   0  0  0  0  0  0  0  0  0  0  0  0
  151.8502  142.1784  160.4209 H   0  0  0  0  0  0  0  0  0  0  0  0
  153.3886  141.6013  159.8295 H   0  0  0  0  0  0  0  0  0  0  0  0
  153.5314  143.9833  160.5424 H   0  0  0  0  0  0  0  0  0  0  0  0
  153.9026  143.8051  158.8440 H   0  0  0  0  0  0  0  0  0  0  0  0
  151.2311  144.7236  160.0163 H   0  0  0  0  0  0  0  0  0  0  0  0
  152.3830  145.7287  159.1689 H   0  0  0  0  0  0  0  0  0  0  0  0
  150.5002  145.0411  157.6827 H   0  0  0  0  0  0  0  0  0  0  0  0
  152.0368  144.4671  157.0812 H   0  0  0  0  0  0  0  0  0  0  0  0
  150.0035  142.8239  158.6641 H   0  0  0  0  0  0  0  0  0  0  0  0
  150.8537  142.6246  155.8115 H   0  0  0  0  0  0  0  0  0  0  0  0
  147.5916  141.6459  154.7756 H   0  0  0  0  0  0  0  0  0  0  0  0
  149.0525  142.4599  154.2346 H   0  0  0  0  0  0  0  0  0  0  0  0
  147.6201  139.1573  154.1047 H   0  0  0  0  0  0  0  0  0  0  0  0
  1  2  1  0  0  0  0
  1 19  1  0  0  0  0
  1 20  1  0  0  0  0
  1 21  1  0  0  0  0
  2  7  1  0  0  0  0
  2  3  1  0  0  0  0
  2 22  1  0  0  0  0
  3  4  1  0  0  0  0
  3 23  1  0  0  0  0
  3 24  1  0  0  0  0
  4  5  1  0  0  0  0
  4 25  1  0  0  0  0
  4 26  1  0  0  0  0
  5  6  1  0  0  0  0
  5 27  1  0  0  0  0
  5 28  1  0  0  0  0
  6  7  1  0  0  0  0
  6 29  1  0  0  0  0
  6 30  1  0  0  0  0
  7  8  1  0  0  0  0
  7 31  1  0  0  0  0
  8  9  1  0  0  0  0
  8 32  1  0  0  0  0
  9 10  2  0  0  0  0
  9 11  1  0  0  0  0
 11 12  1  0  0  0  0
 11 33  1  0  0  0  0
 11 34  1  0  0  0  0
 12 18  1  0  0  0  0
 12 13  1  0  0  0  0
 13 14  2  0  0  0  0
 13 35  1  0  0  0  0
 14 15  1  0  0  0  0
 15 16  1  0  0  0  0
 15 18  2  0  0  0  0
 16 17  3  0  0  0  0
M  END
> <s_m_source_file>
AV-unprocessed.smi

> <i_m_source_file_index>
295

> <i_lp_mmshare_version>
43012

> <i_f3d_flags>
0

> <s_epik_input>
W0NIM11bQ0BASF0xW0NIMl1bQ0gyXVtDSDJdW0NIMl1bQ0BIXTFbTkhdQyg9TylbQ0gyXW4yW2NIXW5jKG4yKUMjTg==

> <s_epik_cmdline>
J2VwaWtfcHl0aG9uJywgJy1waCcsICc3LjAnLCAnLXRuJywgJzgnLCAnLW1hJywgJzIwMCcsICctbWV0YWxfYmluZGluZycsICctaW1hZScsICc8aW5maWxlLm1hZT4nLCAnLW9tYWUnLCAnPG91dGZpbGUubWFlPic=

> <r_lp_tautomer_probability>
1

> <r_epik_Ionization_Penalty>
5.31112e-08

> <r_epik_Ionization_Penalty_Charging>
0

> <r_epik_Ionization_Penalty_Neutral>
5.31112e-08

> <r_epik_State_Penalty>
-0

> <r_epik_Charging_Adjusted_Penalty>
0

> <i_epik_Tot_Q>
0

> <i_epik_Tot_abs_Q>
0

> <r_epik_Metal_State_Penalty>
-0

> <b_epik_Metal_Only>
0

> <s_lp_Force_Field>
OPLS_2005

> <r_lp_Energy>
13.1712

> <b_lp_Chiralities_Consistent>
1

> <s_lp_Variant>
AV-unprocessed.smi:295-1

> <Gold.Version>
5.8.1

> <Gold.Id.Protein>
6NUR|6NUR_protein|mol2

> <Gold.PLP.Fitness>
40.6776

> <Gold.PLP.PLP>
-37.1816

> <Gold.PLP.part.hbond>
-3.0000

> <Gold.PLP.part.metal>
0.0000

> <Gold.PLP.part.buried>
-2.6979

> <Gold.PLP.part.nonpolar>
-32.7709

> <Gold.PLP.part.repulsive>
1.1425

> <Gold.PLP.ligand.clash>
0.0000

> <Gold.PLP.ligand.torsion>
0.2599

> <Gold.PLP.Chemscore.Hbond>
1.3360

> <Gold.PLP.Chemscore.CHOScore>
0.0000

> <Gold.PLP.Chemscore.Metal>
0.0000

> <Gold.Chemscore.Hbonds>
donor molecule, donor type, donor heavy atom, donor atom, acceptor molecule, acceptor atom, score
      P1  H  7989  7998       L1    18  0.95
      P1  H 10752 10764       L1    17  0.34

> <Gold.PLP.Chemscore.Internal.Correction>
0.0078

> <Gold.Rescore>
     Score         DG    S(hbond)    S(metal)    S(lipo)     H(rot)  DE(clash)    DE(int)     intcor
     13.53     -15.53       1.67        0.00      80.68       1.95       1.68       0.32       ----

> <Gold.Chemscore.Fitness>
13.5273

> <Gold.Chemscore.DG>
-15.5284

> <Gold.Chemscore.ZeroCoef>
-5.4800

> <Gold.Chemscore.Hbond>
1.6750

> <Gold.Chemscore.Metal>
0.0000

> <Gold.Chemscore.Lipo>
80.6769

> <Gold.Chemscore.Internal_Hbond>
0.0000

> <Gold.Chemscore.DEClash>
1.6817

> <Gold.Chemscore.DEInternal>
0.3194

> <Gold.Chemscore.Rot>
1.9474

> <Gold.Chemscore.Internal.Correction>
   9.000000E+99

> <Gold.Chemscore.Hbonds>
donor molecule, donor type, donor heavy atom, donor atom, acceptor molecule, acceptor atom, score
      P1  H  7989  7998       L1    18  0.21
      P1  H 10752 10764       L1    17  0.31

> <Gold.Chemscore.Hbond.Weighted>
-5.5945

> <Gold.Chemscore.Metal.Weighted>
-0.0000

> <Gold.Chemscore.Lipo.Weighted>
-9.4392

> <Gold.Chemscore.Internal_Hbond.Weighted>
0.0000

> <Gold.Chemscore.DEClash.Weighted>
1.6817

> <Gold.Chemscore.DEInternal.Weighted>
0.3194

> <Gold.Chemscore.Rot.Weighted>
4.9852

> <Gold.Chemscore.Internal.Correction.Weighted>
   9.000000E+99

> <Gold.Protein.RotatedTorsions>
[ 6907 6896 6895 6894 ] final   57.79 input  -60.11 | X-H torsion
[ 7974 7965 7964 7962 ] final   28.90 input  175.53 | X-H torsion
[ 8008 7997 7996 7995 ] final  111.29 input   59.86 | X-H torsion
[ 10167 10162 10161 10158 ] final   25.82 input  -65.29 | X-H torsion
[ 10718 10713 10712 10709 ] final    8.11 input   66.30 | X-H torsion
[ 10763 10752 10751 10750 ] final  -86.54 input  -60.55 | X-H torsion
[ 11005 11000 10999 10996 ] final   54.33 input  -57.11 | X-H torsion

> <Gold.Protein.ActiveResidues>
 VAL166  LYS551  ARG553  GLY616  TRP617  ASP618  TYR619  PRO620  LYS621  CYS622 
 ASP623  PHE694  ASN695  SER759  ASP760  ASP761  ALA762  ILE779  LEU786  VAL792 
 PHE793  MET794  SER795  GLU796  ALA797  LYS798  CYS799  TRP800  GLU811  SER814 

> <Gold.Protein.RotatedAtoms>
  152.3764  134.6657  160.0158 H   0  0  0  0  0  0  0  0  0  0  0  0  # atno 6907 bound_to 6896
  151.6934  133.3305  159.3256 H   0  0  0  0  0  0  0  0  0  0  0  0  # atno 6908 bound_to 6896
  150.7713  134.6614  159.6386 H   0  0  0  0  0  0  0  0  0  0  0  0  # atno 6909 bound_to 6896
  146.1702  139.6993  142.8973 H   0  0  0  0  0  0  0  0  0  0  0  0  # atno 7974 bound_to 7965
  156.2114  140.3022  155.9740 H   0  0  0  0  0  0  0  0  0  0  0  0  # atno 8008 bound_to 7997
  155.2715  140.0434  157.3024 H   0  0  0  0  0  0  0  0  0  0  0  0  # atno 8009 bound_to 7997
  154.5705  140.2346  155.8208 H   0  0  0  0  0  0  0  0  0  0  0  0  # atno 8010 bound_to 7997
  140.5075  144.0215  150.6358 H   0  0  0  0  0  0  0  0  0  0  0  0  # atno 10167 bound_to 10162
  156.9468  130.5882  149.5655 H   0  0  0  0  0  0  0  0  0  0  0  0  # atno 10718 bound_to 10713
  154.6236  135.5445  153.7602 H   0  0  0  0  0  0  0  0  0  0  0  0  # atno 10763 bound_to 10752
  153.0250  135.6419  154.1404 H   0  0  0  0  0  0  0  0  0  0  0  0  # atno 10764 bound_to 10752
  154.1337  135.2912  155.3158 H   0  0  0  0  0  0  0  0  0  0  0  0  # atno 10765 bound_to 10752
  140.0695  134.5490  155.9062 H   0  0  0  0  0  0  0  0  0  0  0  0  # atno 11005 bound_to 11000
  145.4360  141.0419  143.2884 LP  0  0  0  0  0  0  0  0  0  0  0  0  # atno 17320 bound_to 7965
  144.8152  139.5890  143.7012 LP  0  0  0  0  0  0  0  0  0  0  0  0  # atno 17321 bound_to 7965
  140.3528  143.2953  152.0468 LP  0  0  0  0  0  0  0  0  0  0  0  0  # atno 17342 bound_to 10162
  139.4887  144.6361  151.6973 LP  0  0  0  0  0  0  0  0  0  0  0  0  # atno 17343 bound_to 10162
  156.0380  130.5466  150.8702 LP  0  0  0  0  0  0  0  0  0  0  0  0  # atno 17370 bound_to 10713
  157.5749  131.0946  150.9362 LP  0  0  0  0  0  0  0  0  0  0  0  0  # atno 17371 bound_to 10713
  141.2006  133.6613  156.5906 LP  0  0  0  0  0  0  0  0  0  0  0  0  # atno 17394 bound_to 11000
  140.3649  134.7656  157.4559 LP  0  0  0  0  0  0  0  0  0  0  0  0  # atno 17395 bound_to 11000

$$$$
