AV-unprocessed.smi:2514|AV-procd|sdf|9896|dock9
  -GOLD-   2272013533D 1   1.00000     0.00000
 Structure written by MMmdl.
 24 25  0  0  0  0  0  0  0  0  1 V2000
  149.2448  142.2675  154.4357 C   0  0  0  0  0  0  0  0  0  0  0  0
  149.7499  140.9306  154.9927 C   0  0  1  0  0  0  0  0  0  0  0  0
  150.4507  140.2300  153.9848 O   0  0  0  0  0  0  0  0  0  0  0  0
  150.6950  141.1052  156.1484 C   0  0  0  0  0  0  0  0  0  0  0  0
  151.0744  142.2601  156.7719 C   0  0  0  0  0  0  0  0  0  0  0  0
  151.9498  141.8276  157.7454 N   0  0  0  0  0  0  0  0  0  0  0  0
  152.6577  142.6345  158.6973 C   0  0  0  0  0  0  0  0  0  0  0  0
  152.3683  142.5658  160.2006 C   0  0  0  0  0  0  0  0  0  0  0  0
  152.6367  143.9935  160.2338 N   0  0  0  0  0  0  0  0  0  0  0  0
  152.3489  144.1272  158.8156 C   0  0  0  0  0  0  0  0  0  0  0  0
  152.1044  140.4826  157.7152 N   0  0  0  0  0  0  0  0  0  0  0  0
  151.3527  140.0345  156.7596 N   0  0  0  0  0  0  0  0  0  0  0  0
  148.7066  142.8295  155.1996 H   0  0  0  0  0  0  0  0  0  0  0  0
  148.5639  142.1121  153.5988 H   0  0  0  0  0  0  0  0  0  0  0  0
  150.0687  142.8893  154.0835 H   0  0  0  0  0  0  0  0  0  0  0  0
  148.8968  140.3219  155.2943 H   0  0  0  0  0  0  0  0  0  0  0  0
  150.0198  140.3852  153.1583 H   0  0  0  0  0  0  0  0  0  0  0  0
  150.8129  143.2966  156.6167 H   0  0  0  0  0  0  0  0  0  0  0  0
  153.7200  142.4710  158.5022 H   0  0  0  0  0  0  0  0  0  0  0  0
  151.3324  142.3434  160.4610 H   0  0  0  0  0  0  0  0  0  0  0  0
  153.0809  141.9669  160.7682 H   0  0  0  0  0  0  0  0  0  0  0  0
  151.9756  144.4960  160.8093 H   0  0  0  0  0  0  0  0  0  0  0  0
  153.0450  144.7728  158.2795 H   0  0  0  0  0  0  0  0  0  0  0  0
  151.3057  144.3882  158.6307 H   0  0  0  0  0  0  0  0  0  0  0  0
  1  2  1  0  0  0  0
  1 13  1  0  0  0  0
  1 14  1  0  0  0  0
  1 15  1  0  0  0  0
  2  3  1  0  0  0  0
  2  4  1  0  0  0  0
  2 16  1  0  0  0  0
  3 17  1  0  0  0  0
  4 12  1  0  0  0  0
  4  5  2  0  0  0  0
  5  6  1  0  0  0  0
  5 18  1  0  0  0  0
  6  7  1  0  0  0  0
  6 11  1  0  0  0  0
  7 10  1  0  0  0  0
  7  8  1  0  0  0  0
  7 19  1  0  0  0  0
  8  9  1  0  0  0  0
  8 20  1  0  0  0  0
  8 21  1  0  0  0  0
  9 10  1  0  0  0  0
  9 22  1  0  0  0  0
 10 23  1  0  0  0  0
 10 24  1  0  0  0  0
 11 12  2  0  0  0  0
M  END
> <s_m_source_file>
AV-unprocessed.smi

> <i_m_source_file_index>
2514

> <i_lp_mmshare_version>
43012

> <i_f3d_flags>
0

> <s_epik_input>
W0NIM11bQ0BIXShbT0hdKWMxW2NIXW4obm4xKVtDSF0yW0NIMl1bTkhdW0NIMl0y

> <s_epik_cmdline>
J2VwaWtfcHl0aG9uJywgJy1waCcsICc3LjAnLCAnLXRuJywgJzgnLCAnLW1hJywgJzIwMCcsICctbWV0YWxfYmluZGluZycsICctaW1hZScsICc8aW5maWxlLm1hZT4nLCAnLW9tYWUnLCAnPG91dGZpbGUubWFlPic=

> <r_lp_tautomer_probability>
1

> <r_epik_Ionization_Penalty>
0.704859

> <r_epik_Ionization_Penalty_Charging>
0

> <r_epik_Ionization_Penalty_Neutral>
0.704859

> <r_epik_State_Penalty>
0.727806

> <r_epik_Charging_Adjusted_Penalty>
0.727806

> <i_epik_Tot_Q>
0

> <i_epik_Tot_abs_Q>
0

> <r_epik_Metal_State_Penalty>
0.727738

> <b_epik_Metal_Only>
0

> <s_lp_Force_Field>
OPLS_2005

> <r_lp_Energy>
11.7069

> <b_lp_Chiralities_Consistent>
1

> <s_lp_Variant>
AV-unprocessed.smi:2514-4

> <Gold.Version>
5.8.1

> <Gold.Id.Protein>
6NUR|6NUR_protein|mol2

> <Gold.PLP.Fitness>
35.3127

> <Gold.PLP.PLP>
-24.4550

> <Gold.PLP.part.hbond>
-2.9663

> <Gold.PLP.part.metal>
0.0000

> <Gold.PLP.part.buried>
-1.9135

> <Gold.PLP.part.nonpolar>
-18.1164

> <Gold.PLP.part.repulsive>
0.0000

> <Gold.PLP.ligand.clash>
0.0000

> <Gold.PLP.ligand.torsion>
0.1446

> <Gold.PLP.Chemscore.Hbond>
2.6498

> <Gold.PLP.Chemscore.CHOScore>
0.9972

> <Gold.PLP.Chemscore.Metal>
0.0000

> <Gold.Chemscore.Hbonds>
donor molecule, donor type, donor heavy atom, donor atom, acceptor molecule, acceptor atom, score
      L1  H     3    17       P1  7957  0.93
      P1  H  7989  7998       L1     3  0.32
      L1  C     5    18       P1  8028  0.90

> <Gold.PLP.Chemscore.Internal.Correction>
0.2060

> <Gold.Rescore>
     Score         DG    S(hbond)    S(metal)    S(lipo)     H(rot)  DE(clash)    DE(int)     intcor
     13.73     -14.55       1.95        0.00      60.94       1.78       0.70       0.11       ----

> <Gold.Chemscore.Fitness>
13.7291

> <Gold.Chemscore.DG>
-14.5451

> <Gold.Chemscore.ZeroCoef>
-5.4800

> <Gold.Chemscore.Hbond>
1.9456

> <Gold.Chemscore.Metal>
0.0000

> <Gold.Chemscore.Lipo>
60.9361

> <Gold.Chemscore.Internal_Hbond>
0.0000

> <Gold.Chemscore.DEClash>
0.7047

> <Gold.Chemscore.DEInternal>
0.1113

> <Gold.Chemscore.Rot>
1.7823

> <Gold.Chemscore.Internal.Correction>
   9.000000E+99

> <Gold.Chemscore.Hbonds>
donor molecule, donor type, donor heavy atom, donor atom, acceptor molecule, acceptor atom, score
      L1  H     3    17       P1  7957  0.87
      P1  H  7989  7998       L1     3  0.01

> <Gold.Chemscore.Hbond.Weighted>
-6.4983

> <Gold.Chemscore.Metal.Weighted>
-0.0000

> <Gold.Chemscore.Lipo.Weighted>
-7.1295

> <Gold.Chemscore.Internal_Hbond.Weighted>
0.0000

> <Gold.Chemscore.DEClash.Weighted>
0.7047

> <Gold.Chemscore.DEInternal.Weighted>
0.1113

> <Gold.Chemscore.Rot.Weighted>
4.5627

> <Gold.Chemscore.Internal.Correction.Weighted>
   9.000000E+99

> <Gold.Protein.RotatedTorsions>
[ 6907 6896 6895 6894 ] final -177.66 input  -60.11 | X-H torsion
[ 7974 7965 7964 7962 ] final -151.46 input  175.53 | X-H torsion
[ 8008 7997 7996 7995 ] final  177.14 input   59.86 | X-H torsion
[ 10167 10162 10161 10158 ] final  146.37 input  -65.29 | X-H torsion
[ 10718 10713 10712 10709 ] final   87.68 input   66.30 | X-H torsion
[ 10763 10752 10751 10750 ] final  138.55 input  -60.55 | X-H torsion
[ 11005 11000 10999 10996 ] final -173.28 input  -57.11 | X-H torsion

> <Gold.Protein.ActiveResidues>
 VAL166  LYS551  ARG553  GLY616  TRP617  ASP618  TYR619  PRO620  LYS621  CYS622 
 ASP623  PHE694  ASN695  SER759  ASP760  ASP761  ALA762  ILE779  LEU786  VAL792 
 PHE793  MET794  SER795  GLU796  ALA797  LYS798  CYS799  TRP800  GLU811  SER814 

> <Gold.Protein.RotatedAtoms>
  151.6246  133.3336  159.3095 H   0  0  0  0  0  0  0  0  0  0  0  0  # atno 6907 bound_to 6896
  150.8088  134.7234  159.6680 H   0  0  0  0  0  0  0  0  0  0  0  0  # atno 6908 bound_to 6896
  152.4184  134.6004  160.0050 H   0  0  0  0  0  0  0  0  0  0  0  0  # atno 6909 bound_to 6896
  144.7848  140.4794  143.5813 H   0  0  0  0  0  0  0  0  0  0  0  0  # atno 7974 bound_to 7965
  156.0689  140.1366  156.9852 H   0  0  0  0  0  0  0  0  0  0  0  0  # atno 8008 bound_to 7997
  154.4521  140.0976  156.6701 H   0  0  0  0  0  0  0  0  0  0  0  0  # atno 8009 bound_to 7997
  155.5259  140.3457  155.4418 H   0  0  0  0  0  0  0  0  0  0  0  0  # atno 8010 bound_to 7997
  139.4908  144.5834  151.6826 H   0  0  0  0  0  0  0  0  0  0  0  0  # atno 10167 bound_to 10162
  157.6942  131.0265  150.3160 H   0  0  0  0  0  0  0  0  0  0  0  0  # atno 10718 bound_to 10713
  153.8914  135.3032  155.3447 H   0  0  0  0  0  0  0  0  0  0  0  0  # atno 10763 bound_to 10752
  154.7714  135.4884  153.9660 H   0  0  0  0  0  0  0  0  0  0  0  0  # atno 10764 bound_to 10752
  153.1295  135.6800  153.9300 H   0  0  0  0  0  0  0  0  0  0  0  0  # atno 10765 bound_to 10752
  140.4875  134.6016  157.4942 H   0  0  0  0  0  0  0  0  0  0  0  0  # atno 11005 bound_to 11000
  145.5950  139.1499  143.3161 LP  0  0  0  0  0  0  0  0  0  0  0  0  # atno 17320 bound_to 7965
  146.2075  140.6074  142.9074 LP  0  0  0  0  0  0  0  0  0  0  0  0  # atno 17321 bound_to 7965
  140.5445  144.0525  150.6101 LP  0  0  0  0  0  0  0  0  0  0  0  0  # atno 17342 bound_to 10162
  140.3559  143.2936  152.0437 LP  0  0  0  0  0  0  0  0  0  0  0  0  # atno 17343 bound_to 10162
  156.3654  130.3854  149.7218 LP  0  0  0  0  0  0  0  0  0  0  0  0  # atno 17370 bound_to 10713
  156.4650  130.7970  151.2989 LP  0  0  0  0  0  0  0  0  0  0  0  0  # atno 17371 bound_to 10713
  139.9789  134.7170  155.9897 LP  0  0  0  0  0  0  0  0  0  0  0  0  # atno 17394 bound_to 11000
  141.1500  133.6550  156.3985 LP  0  0  0  0  0  0  0  0  0  0  0  0  # atno 17395 bound_to 11000

$$$$
