AV-unprocessed.smi:3228|AV-procd|sdf|12320|dock7
  -GOLD-   2272018173D 1   1.00000     0.00000
 Structure written by MMmdl.
 31 32  0  0  0  0  0  0  0  0  1 V2000
  151.2430  141.1120  157.6632 O   0  0  0  0  0  0  0  0  0  0  0  0
  150.6825  142.0829  157.1537 C   0  0  0  0  0  0  0  0  0  0  0  0
  150.0633  142.0382  155.9654 N   0  0  0  0  0  0  0  0  0  0  0  0
  149.9680  140.8556  155.1160 C   0  0  0  0  0  0  0  0  0  0  0  0
  148.5181  140.5837  154.6615 C   0  0  1  0  0  0  0  0  0  0  0  0
  148.0085  141.4916  153.5340 C   0  0  0  0  0  0  0  0  0  0  0  0
  146.8601  140.7215  152.8640 C   0  0  0  0  0  0  0  0  0  0  0  0
  146.8973  139.2939  153.4325 C   0  0  0  0  0  0  0  0  0  0  0  0
  148.2431  139.1609  154.1525 C   0  0  1  0  0  0  0  0  0  0  0  0
  149.2240  138.7426  153.2213 O   0  0  0  0  0  0  0  0  0  0  0  0
  150.6033  143.3096  157.6989 N   0  0  0  0  0  0  0  0  0  0  0  0
  151.1377  143.7560  158.9362 C   0  0  0  0  0  0  0  0  0  0  0  0
  151.2210  143.0021  160.0390 N   0  0  0  0  0  0  0  0  0  0  0  0
  151.7913  143.6976  161.1081 C   0  0  0  0  0  0  0  0  0  0  0  0
  152.1399  144.9889  160.7991 C   0  0  0  0  0  0  0  0  0  0  0  0
  151.7629  145.3855  159.1437 S   0  0  0  0  0  0  0  0  0  0  0  0
  149.6281  142.8816  155.6212 H   0  0  0  0  0  0  0  0  0  0  0  0
  150.6144  141.0180  154.2533 H   0  0  0  0  0  0  0  0  0  0  0  0
  150.3682  139.9873  155.6419 H   0  0  0  0  0  0  0  0  0  0  0  0
  147.8612  140.7369  155.5199 H   0  0  0  0  0  0  0  0  0  0  0  0
  147.6898  142.4663  153.9051 H   0  0  0  0  0  0  0  0  0  0  0  0
  148.8023  141.6632  152.8058 H   0  0  0  0  0  0  0  0  0  0  0  0
  145.8969  141.1896  153.0690 H   0  0  0  0  0  0  0  0  0  0  0  0
  146.9937  140.7126  151.7817 H   0  0  0  0  0  0  0  0  0  0  0  0
  146.0924  139.1823  154.1604 H   0  0  0  0  0  0  0  0  0  0  0  0
  146.7446  138.5314  152.6675 H   0  0  0  0  0  0  0  0  0  0  0  0
  148.1988  138.4370  154.9669 H   0  0  0  0  0  0  0  0  0  0  0  0
  149.0092  137.8690  152.9320 H   0  0  0  0  0  0  0  0  0  0  0  0
  150.1038  144.0063  157.1663 H   0  0  0  0  0  0  0  0  0  0  0  0
  151.9120  143.1952  162.0566 H   0  0  0  0  0  0  0  0  0  0  0  0
  152.5936  145.7275  161.4431 H   0  0  0  0  0  0  0  0  0  0  0  0
  1  2  2  0  0  0  0
  2  3  1  0  0  0  0
  2 11  1  0  0  0  0
  3  4  1  0  0  0  0
  3 17  1  0  0  0  0
  4  5  1  0  0  0  0
  4 18  1  0  0  0  0
  4 19  1  0  0  0  0
  5  9  1  0  0  0  0
  5  6  1  0  0  0  0
  5 20  1  0  0  0  0
  6  7  1  0  0  0  0
  6 21  1  0  0  0  0
  6 22  1  0  0  0  0
  7  8  1  0  0  0  0
  7 23  1  0  0  0  0
  7 24  1  0  0  0  0
  8  9  1  0  0  0  0
  8 25  1  0  0  0  0
  8 26  1  0  0  0  0
  9 10  1  0  0  0  0
  9 27  1  0  0  0  0
 10 28  1  0  0  0  0
 11 12  1  0  0  0  0
 11 29  1  0  0  0  0
 12 16  1  0  0  0  0
 12 13  2  0  0  0  0
 13 14  1  0  0  0  0
 14 15  2  0  0  0  0
 14 30  1  0  0  0  0
 15 16  1  0  0  0  0
 15 31  1  0  0  0  0
M  END
> <s_m_source_file>
AV-unprocessed.smi

> <i_m_source_file_index>
3228

> <i_lp_mmshare_version>
43012

> <i_f3d_flags>
0

> <s_epik_input>
czFbY0hdW2NIXW5jMVtOSF1DKD1PKVtOSF1bQ0gyXVtDQEBIXTJbQ0gyXVtDSDJdW0NIMl1bQ0BIXTJbT0hd

> <s_epik_cmdline>
J2VwaWtfcHl0aG9uJywgJy1waCcsICc3LjAnLCAnLXRuJywgJzgnLCAnLW1hJywgJzIwMCcsICctbWV0YWxfYmluZGluZycsICctaW1hZScsICc8aW5maWxlLm1hZT4nLCAnLW9tYWUnLCAnPG91dGZpbGUubWFlPic=

> <r_lp_tautomer_probability>
0.999

> <r_epik_Ionization_Penalty>
0.000399498

> <r_epik_Ionization_Penalty_Charging>
0

> <r_epik_Ionization_Penalty_Neutral>
0.000399498

> <r_epik_State_Penalty>
0.000177984

> <r_epik_Charging_Adjusted_Penalty>
0.000177984

> <i_epik_Tot_Q>
0

> <i_epik_Tot_abs_Q>
0

> <r_epik_Metal_State_Penalty>
0.0060793

> <b_epik_Metal_Only>
0

> <s_lp_Force_Field>
OPLS_2005

> <r_lp_Energy>
23.3764

> <b_lp_Chiralities_Consistent>
1

> <s_lp_Variant>
AV-unprocessed.smi:3228-2

> <Gold.Version>
5.8.1

> <Gold.Id.Protein>
6NUR|6NUR_protein|mol2

> <Gold.PLP.Fitness>
41.3967

> <Gold.PLP.PLP>
-33.2774

> <Gold.PLP.part.hbond>
-4.3044

> <Gold.PLP.part.metal>
0.0000

> <Gold.PLP.part.buried>
-2.5617

> <Gold.PLP.part.nonpolar>
-25.7189

> <Gold.PLP.part.repulsive>
0.1724

> <Gold.PLP.ligand.clash>
0.0000

> <Gold.PLP.ligand.torsion>
0.4413

> <Gold.PLP.Chemscore.Hbond>
3.0000

> <Gold.PLP.Chemscore.CHOScore>
0.0000

> <Gold.PLP.Chemscore.Metal>
0.0000

> <Gold.Chemscore.Hbonds>
donor molecule, donor type, donor heavy atom, donor atom, acceptor molecule, acceptor atom, score
      L1  H     3    17       P1  8028  1.00
      L1  H    10    28       P1  7948  1.00
      L1  H    11    29       P1  8028  0.98

> <Gold.PLP.Chemscore.Internal.Correction>
0.0018

> <Gold.Rescore>
     Score         DG    S(hbond)    S(metal)    S(lipo)     H(rot)  DE(clash)    DE(int)     intcor
     17.70     -18.91       2.78        0.00      76.53       1.88       0.13       1.07       ----

> <Gold.Chemscore.Fitness>
17.7035

> <Gold.Chemscore.DG>
-18.9091

> <Gold.Chemscore.ZeroCoef>
-5.4800

> <Gold.Chemscore.Hbond>
2.7798

> <Gold.Chemscore.Metal>
0.0000

> <Gold.Chemscore.Lipo>
76.5274

> <Gold.Chemscore.Internal_Hbond>
0.0000

> <Gold.Chemscore.DEClash>
0.1326

> <Gold.Chemscore.DEInternal>
1.0729

> <Gold.Chemscore.Rot>
1.8786

> <Gold.Chemscore.Internal.Correction>
   9.000000E+99

> <Gold.Chemscore.Hbonds>
donor molecule, donor type, donor heavy atom, donor atom, acceptor molecule, acceptor atom, score
      L1  H     3    17       P1  8028  0.97
      L1  H    10    28       P1  7948  0.99
      L1  H    11    29       P1  8028  0.80

> <Gold.Chemscore.Hbond.Weighted>
-9.2845

> <Gold.Chemscore.Metal.Weighted>
-0.0000

> <Gold.Chemscore.Lipo.Weighted>
-8.9537

> <Gold.Chemscore.Internal_Hbond.Weighted>
0.0000

> <Gold.Chemscore.DEClash.Weighted>
0.1326

> <Gold.Chemscore.DEInternal.Weighted>
1.0729

> <Gold.Chemscore.Rot.Weighted>
4.8091

> <Gold.Chemscore.Internal.Correction.Weighted>
   9.000000E+99

> <Gold.Protein.RotatedTorsions>
[ 6907 6896 6895 6894 ] final  -58.00 input  -60.11 | X-H torsion
[ 7974 7965 7964 7962 ] final   56.31 input  175.53 | X-H torsion
[ 8008 7997 7996 7995 ] final -164.75 input   59.86 | X-H torsion
[ 10167 10162 10161 10158 ] final   88.05 input  -65.29 | X-H torsion
[ 10718 10713 10712 10709 ] final  159.32 input   66.30 | X-H torsion
[ 10763 10752 10751 10750 ] final  146.87 input  -60.55 | X-H torsion
[ 11005 11000 10999 10996 ] final  119.93 input  -57.11 | X-H torsion

> <Gold.Protein.ActiveResidues>
 VAL166  LYS551  ARG553  GLY616  TRP617  ASP618  TYR619  PRO620  LYS621  CYS622 
 ASP623  PHE694  ASN695  SER759  ASP760  ASP761  ALA762  ILE779  LEU786  VAL792 
 PHE793  MET794  SER795  GLU796  ALA797  LYS798  CYS799  TRP800  GLU811  SER814 

> <Gold.Protein.RotatedAtoms>
  150.8041  134.7154  159.6627 H   0  0  0  0  0  0  0  0  0  0  0  0  # atno 6907 bound_to 6896
  152.4159  134.6038  160.0017 H   0  0  0  0  0  0  0  0  0  0  0  0  # atno 6908 bound_to 6896
  151.6267  133.3298  159.3136 H   0  0  0  0  0  0  0  0  0  0  0  0  # atno 6909 bound_to 6896
  145.9411  139.3890  143.0363 H   0  0  0  0  0  0  0  0  0  0  0  0  # atno 7974 bound_to 7965
  155.8400  140.0947  157.1740 H   0  0  0  0  0  0  0  0  0  0  0  0  # atno 8008 bound_to 7997
  154.3981  140.1403  156.3779 H   0  0  0  0  0  0  0  0  0  0  0  0  # atno 8009 bound_to 7997
  155.8074  140.3451  155.5440 H   0  0  0  0  0  0  0  0  0  0  0  0  # atno 8010 bound_to 7997
  139.8712  144.6492  150.8948 H   0  0  0  0  0  0  0  0  0  0  0  0  # atno 10167 bound_to 10162
  157.1659  131.0598  151.2208 H   0  0  0  0  0  0  0  0  0  0  0  0  # atno 10718 bound_to 10713
  154.0290  135.2899  155.3371 H   0  0  0  0  0  0  0  0  0  0  0  0  # atno 10763 bound_to 10752
  154.7000  135.5192  153.8516 H   0  0  0  0  0  0  0  0  0  0  0  0  # atno 10764 bound_to 10752
  153.0648  135.6627  154.0504 H   0  0  0  0  0  0  0  0  0  0  0  0  # atno 10765 bound_to 10752
  139.9165  134.9631  156.7730 H   0  0  0  0  0  0  0  0  0  0  0  0  # atno 11005 bound_to 11000
  145.8298  140.9637  143.0855 LP  0  0  0  0  0  0  0  0  0  0  0  0  # atno 17320 bound_to 7965
  144.6779  140.0147  143.7484 LP  0  0  0  0  0  0  0  0  0  0  0  0  # atno 17321 bound_to 7965
  140.7760  143.3662  151.1734 LP  0  0  0  0  0  0  0  0  0  0  0  0  # atno 17342 bound_to 10162
  139.7282  143.9114  152.3010 LP  0  0  0  0  0  0  0  0  0  0  0  0  # atno 17343 bound_to 10162
  157.4089  130.7374  149.6824 LP  0  0  0  0  0  0  0  0  0  0  0  0  # atno 17370 bound_to 10713
  155.9746  130.4100  150.3910 LP  0  0  0  0  0  0  0  0  0  0  0  0  # atno 17371 bound_to 10713
  140.6605  133.9649  155.7802 LP  0  0  0  0  0  0  0  0  0  0  0  0  # atno 17394 bound_to 11000
  141.0646  134.0295  157.3611 LP  0  0  0  0  0  0  0  0  0  0  0  0  # atno 17395 bound_to 11000

$$$$
