AV-unprocessed.smi:2928|AV-procd|sdf|11233|dock6
  -GOLD-   2272016123D 1   1.00000     0.00000
 Structure written by MMmdl.
 55 58  0  0  0  0  0  0  0  0  2 V2000
  146.1414  131.8524  148.9763 C   0  0  0  0  0  0  0  0  0  0  0  0
  146.2854  132.8744  150.0405 N   0  3  2  0  0  0  0  0  0  0  0  0
  146.4111  132.3301  151.4146 C   0  0  2  0  0  0  0  0  0  0  0  0
  145.0751  131.7130  151.9011 C   0  0  0  0  0  0  0  0  0  0  0  0
  143.8610  132.6500  151.7534 C   0  0  0  0  0  0  0  0  0  0  0  0
  143.8717  133.4230  150.4209 C   0  0  0  0  0  0  0  0  0  0  0  0
  145.2689  133.9541  150.0108 C   0  0  1  0  0  0  0  0  0  0  0  0
  145.7812  135.1463  150.8517 C   0  0  0  0  0  0  0  0  0  0  0  0
  146.2273  134.7740  152.2894 C   0  0  2  0  0  0  0  0  0  0  0  0
  147.0791  135.8232  152.8453 N   0  0  0  0  0  0  0  0  0  0  0  0
  146.7887  137.1324  152.8552 C   0  0  0  0  0  0  0  0  0  0  0  0
  145.7680  137.6054  152.3559 O   0  0  0  0  0  0  0  0  0  0  0  0
  147.7589  137.8390  153.4586 N   0  0  0  0  0  0  0  0  0  0  0  0
  147.8360  139.2467  153.6608 C   0  0  0  0  0  0  0  0  0  0  0  0
  146.7840  140.1159  153.2795 C   0  0  0  0  0  0  0  0  0  0  0  0
  146.8843  141.4882  153.5659 C   0  0  0  0  0  0  0  0  0  0  0  0
  148.0286  141.9444  154.2405 C   0  0  0  0  0  0  0  0  0  0  0  0
  149.0319  141.1296  154.6228 N   0  0  0  0  0  0  0  0  0  0  0  0
  148.9559  139.8056  154.3410 C   0  0  0  0  0  0  0  0  0  0  0  0
  150.0427  139.0003  154.7510 N   0  0  0  0  0  0  0  0  0  0  0  0
  150.7335  138.2219  153.7267 C   0  0  0  0  0  0  0  0  0  0  0  0
  152.2151  138.2022  154.1203 C   0  0  0  0  0  0  0  0  0  0  0  0
  152.2025  138.5506  155.6058 C   0  0  0  0  0  0  0  0  0  0  0  0
  151.0226  139.5128  155.7025 C   0  0  0  0  0  0  0  0  0  0  0  0
  146.9913  133.4287  152.3353 C   0  0  0  0  0  0  0  0  0  0  0  0
  145.2188  131.2810  149.0715 H   0  0  0  0  0  0  0  0  0  0  0  0
  146.9764  131.1518  149.0080 H   0  0  0  0  0  0  0  0  0  0  0  0
  146.1456  132.3245  147.9934 H   0  0  0  0  0  0  0  0  0  0  0  0
  147.1488  131.5266  151.3886 H   0  0  0  0  0  0  0  0  0  0  0  0
  144.8795  130.8047  151.3307 H   0  0  0  0  0  0  0  0  0  0  0  0
  145.1668  131.3881  152.9380 H   0  0  0  0  0  0  0  0  0  0  0  0
  142.9420  132.0678  151.8280 H   0  0  0  0  0  0  0  0  0  0  0  0
  143.8110  133.3405  152.5910 H   0  0  0  0  0  0  0  0  0  0  0  0
  143.5036  132.7614  149.6364 H   0  0  0  0  0  0  0  0  0  0  0  0
  143.1553  134.2441  150.4651 H   0  0  0  0  0  0  0  0  0  0  0  0
  145.1912  134.3114  148.9828 H   0  0  0  0  0  0  0  0  0  0  0  0
  146.6344  135.5769  150.3244 H   0  0  0  0  0  0  0  0  0  0  0  0
  145.0271  135.9338  150.8830 H   0  0  0  0  0  0  0  0  0  0  0  0
  145.3543  134.6998  152.9333 H   0  0  0  0  0  0  0  0  0  0  0  0
  147.9440  135.5285  153.2745 H   0  0  0  0  0  0  0  0  0  0  0  0
  148.5803  137.3217  153.7358 H   0  0  0  0  0  0  0  0  0  0  0  0
  145.8911  139.7526  152.7945 H   0  0  0  0  0  0  0  0  0  0  0  0
  146.0964  142.1721  153.2871 H   0  0  0  0  0  0  0  0  0  0  0  0
  148.1395  142.9904  154.4855 H   0  0  0  0  0  0  0  0  0  0  0  0
  150.3362  137.2068  153.7257 H   0  0  0  0  0  0  0  0  0  0  0  0
  150.5927  138.6411  152.7291 H   0  0  0  0  0  0  0  0  0  0  0  0
  152.6966  137.2467  153.9116 H   0  0  0  0  0  0  0  0  0  0  0  0
  152.7510  138.9760  153.5690 H   0  0  0  0  0  0  0  0  0  0  0  0
  152.0053  137.6557  156.1975 H   0  0  0  0  0  0  0  0  0  0  0  0
  153.1389  138.9888  155.9518 H   0  0  0  0  0  0  0  0  0  0  0  0
  151.3493  140.5146  155.4211 H   0  0  0  0  0  0  0  0  0  0  0  0
  150.6139  139.5552  156.7123 H   0  0  0  0  0  0  0  0  0  0  0  0
  147.0518  133.0680  153.3628 H   0  0  0  0  0  0  0  0  0  0  0  0
  148.0224  133.6036  152.0228 H   0  0  0  0  0  0  0  0  0  0  0  0
  147.1678  133.3247  149.8430 H   0  0  0  0  0  0  0  0  0  0  0  0
  1  2  1  0  0  0  0
  1 26  1  0  0  0  0
  1 27  1  0  0  0  0
  1 28  1  0  0  0  0
  2  7  1  0  0  0  0
  2  3  1  0  0  0  0
  2 55  1  0  0  0  0
  3 25  1  0  0  0  0
  3  4  1  0  0  0  0
  3 29  1  0  0  0  0
  4  5  1  0  0  0  0
  4 30  1  0  0  0  0
  4 31  1  0  0  0  0
  5  6  1  0  0  0  0
  5 32  1  0  0  0  0
  5 33  1  0  0  0  0
  6  7  1  0  0  0  0
  6 34  1  0  0  0  0
  6 35  1  0  0  0  0
  7  8  1  0  0  0  0
  7 36  1  0  0  0  0
  8  9  1  0  0  0  0
  8 37  1  0  0  0  0
  8 38  1  0  0  0  0
  9 10  1  0  0  0  0
  9 25  1  0  0  0  0
  9 39  1  0  0  0  0
 10 11  1  0  0  0  0
 10 40  1  0  0  0  0
 11 12  2  0  0  0  0
 11 13  1  0  0  0  0
 13 14  1  0  0  0  0
 13 41  1  0  0  0  0
 14 19  1  0  0  0  0
 14 15  2  0  0  0  0
 15 16  1  0  0  0  0
 15 42  1  0  0  0  0
 16 17  2  0  0  0  0
 16 43  1  0  0  0  0
 17 18  1  0  0  0  0
 17 44  1  0  0  0  0
 18 19  2  0  0  0  0
 19 20  1  0  0  0  0
 20 24  1  0  0  0  0
 20 21  1  0  0  0  0
 21 22  1  0  0  0  0
 21 45  1  0  0  0  0
 21 46  1  0  0  0  0
 22 23  1  0  0  0  0
 22 47  1  0  0  0  0
 22 48  1  0  0  0  0
 23 24  1  0  0  0  0
 23 49  1  0  0  0  0
 23 50  1  0  0  0  0
 24 51  1  0  0  0  0
 24 52  1  0  0  0  0
 25 53  1  0  0  0  0
 25 54  1  0  0  0  0
M  CHG  1   2   1
M  END
> <s_m_source_file>
AV-unprocessed.smi

> <i_m_source_file_index>
2928

> <i_lp_mmshare_version>
43012

> <i_f3d_flags>
0

> <s_epik_input>
W0NIMl0xW0NIMl1bQ0gyXVtDQEhdKE4oW0NIM10pW0NIXTEyKVtDSDJdW0NASF0oW0NIMl0yKVtOSF1DKD1PKVtOSF1jM1tjSF1bY0hdW2NIXW5jM040W0NIMl1bQ0gyXVtDSDJdW0NIMl00

> <s_epik_cmdline>
J2VwaWtfcHl0aG9uJywgJy1waCcsICc3LjAnLCAnLXRuJywgJzgnLCAnLW1hJywgJzIwMCcsICctbWV0YWxfYmluZGluZycsICctaW1hZScsICc8aW5maWxlLm1hZT4nLCAnLW9tYWUnLCAnPG91dGZpbGUubWFlPic=

> <r_lp_tautomer_probability>
1

> <r_epik_Ionization_Penalty>
0.07954

> <r_epik_Ionization_Penalty_Charging>
0.00089841

> <r_epik_Ionization_Penalty_Neutral>
0.0786416

> <r_epik_State_Penalty>
0.0689917

> <r_epik_Charging_Adjusted_Penalty>
0.0698901

> <i_epik_Tot_Q>
1

> <i_epik_Tot_abs_Q>
1

> <r_epik_Metal_State_Penalty>
0.0608947

> <b_epik_Metal_Only>
0

> <s_lp_Force_Field>
OPLS_2005

> <r_lp_Energy>
63.7088

> <b_lp_Chiralities_Consistent>
1

> <s_lp_Variant>
AV-unprocessed.smi:2928-3

> <Gold.Version>
5.8.1

> <Gold.Id.Protein>
6NUR|6NUR_protein|mol2

> <Gold.PLP.Fitness>
39.1702

> <Gold.PLP.PLP>
-36.3645

> <Gold.PLP.part.hbond>
-1.5208

> <Gold.PLP.part.metal>
0.0000

> <Gold.PLP.part.buried>
5.8284

> <Gold.PLP.part.nonpolar>
-39.5526

> <Gold.PLP.part.repulsive>
0.6733

> <Gold.PLP.ligand.clash>
0.0000

> <Gold.PLP.ligand.torsion>
0.2472

> <Gold.PLP.Chemscore.Hbond>
0.0000

> <Gold.PLP.Chemscore.CHOScore>
1.0000

> <Gold.PLP.Chemscore.Metal>
0.0000

> <Gold.Chemscore.Hbonds>
donor molecule, donor type, donor heavy atom, donor atom, acceptor molecule, acceptor atom, score
      L1  C    17    44       P1  8028  1.00

> <Gold.PLP.Chemscore.Internal.Correction>
0.3000

> <Gold.Rescore>
     Score         DG    S(hbond)    S(metal)    S(lipo)     H(rot)  DE(clash)    DE(int)     intcor
     11.03     -17.26       0.03        0.00     125.70       1.18       3.20       3.02       ----

> <Gold.Chemscore.Fitness>
11.0347

> <Gold.Chemscore.DG>
-17.2591

> <Gold.Chemscore.ZeroCoef>
-5.4800

> <Gold.Chemscore.Hbond>
0.0262

> <Gold.Chemscore.Metal>
0.0000

> <Gold.Chemscore.Lipo>
125.6964

> <Gold.Chemscore.Internal_Hbond>
0.0000

> <Gold.Chemscore.DEClash>
3.2014

> <Gold.Chemscore.DEInternal>
3.0230

> <Gold.Chemscore.Rot>
1.1776

> <Gold.Chemscore.Internal.Correction>
   9.000000E+99

> <Gold.Chemscore.Hbonds>
donor molecule, donor type, donor heavy atom, donor atom, acceptor molecule, acceptor atom, score
      L1  H    10    40       P1  7948  0.01
      L1  H    13    41       P1  7948  0.03

> <Gold.Chemscore.Hbond.Weighted>
-0.0874

> <Gold.Chemscore.Metal.Weighted>
-0.0000

> <Gold.Chemscore.Lipo.Weighted>
-14.7065

> <Gold.Chemscore.Internal_Hbond.Weighted>
0.0000

> <Gold.Chemscore.DEClash.Weighted>
3.2014

> <Gold.Chemscore.DEInternal.Weighted>
3.0230

> <Gold.Chemscore.Rot.Weighted>
3.0147

> <Gold.Chemscore.Internal.Correction.Weighted>
   9.000000E+99

> <Gold.Protein.RotatedTorsions>
[ 6907 6896 6895 6894 ] final  -83.04 input  -60.11 | X-H torsion
[ 7974 7965 7964 7962 ] final  -48.25 input  175.53 | X-H torsion
[ 8008 7997 7996 7995 ] final -143.22 input   59.86 | X-H torsion
[ 10167 10162 10161 10158 ] final -170.05 input  -65.29 | X-H torsion
[ 10718 10713 10712 10709 ] final -144.57 input   66.30 | X-H torsion
[ 10763 10752 10751 10750 ] final -132.36 input  -60.55 | X-H torsion
[ 11005 11000 10999 10996 ] final   35.57 input  -57.11 | X-H torsion

> <Gold.Protein.ActiveResidues>
 VAL166  LYS551  ARG553  GLY616  TRP617  ASP618  TYR619  PRO620  LYS621  CYS622 
 ASP623  PHE694  ASN695  SER759  ASP760  ASP761  ALA762  ILE779  LEU786  VAL792 
 PHE793  MET794  SER795  GLU796  ALA797  LYS798  CYS799  TRP800  GLU811  SER814 

> <Gold.Protein.RotatedAtoms>
  150.6890  134.3572  159.4934 H   0  0  0  0  0  0  0  0  0  0  0  0  # atno 6907 bound_to 6896
  152.1406  134.9063  160.0563 H   0  0  0  0  0  0  0  0  0  0  0  0  # atno 6908 bound_to 6896
  152.0198  133.3859  159.4290 H   0  0  0  0  0  0  0  0  0  0  0  0  # atno 6909 bound_to 6896
  145.9531  140.7553  142.9495 H   0  0  0  0  0  0  0  0  0  0  0  0  # atno 7974 bound_to 7965
  155.5070  140.0580  157.2930 H   0  0  0  0  0  0  0  0  0  0  0  0  # atno 8008 bound_to 7997
  154.4566  140.1976  156.0312 H   0  0  0  0  0  0  0  0  0  0  0  0  # atno 8009 bound_to 7997
  156.0810  140.3247  155.7698 H   0  0  0  0  0  0  0  0  0  0  0  0  # atno 8010 bound_to 7997
  139.5885  144.1265  152.1605 H   0  0  0  0  0  0  0  0  0  0  0  0  # atno 10167 bound_to 10162
  156.3717  130.7791  151.1973 H   0  0  0  0  0  0  0  0  0  0  0  0  # atno 10718 bound_to 10713
  154.8743  135.3800  154.4398 H   0  0  0  0  0  0  0  0  0  0  0  0  # atno 10763 bound_to 10752
  153.5084  135.7030  153.5799 H   0  0  0  0  0  0  0  0  0  0  0  0  # atno 10764 bound_to 10752
  153.4100  135.3927  155.2010 H   0  0  0  0  0  0  0  0  0  0  0  0  # atno 10765 bound_to 10752
  140.2414  134.3411  155.7924 H   0  0  0  0  0  0  0  0  0  0  0  0  # atno 11005 bound_to 11000
  144.6799  140.2467  143.7337 LP  0  0  0  0  0  0  0  0  0  0  0  0  # atno 17320 bound_to 7965
  145.8144  139.2017  143.1974 LP  0  0  0  0  0  0  0  0  0  0  0  0  # atno 17321 bound_to 7965
  140.0834  144.5681  150.7106 LP  0  0  0  0  0  0  0  0  0  0  0  0  # atno 17342 bound_to 10162
  140.7153  143.2539  151.4455 LP  0  0  0  0  0  0  0  0  0  0  0  0  # atno 17343 bound_to 10162
  157.7484  131.0370  150.4436 LP  0  0  0  0  0  0  0  0  0  0  0  0  # atno 17370 bound_to 10713
  156.4664  130.4043  149.6544 LP  0  0  0  0  0  0  0  0  0  0  0  0  # atno 17371 bound_to 10713
  141.2210  133.7301  156.8891 LP  0  0  0  0  0  0  0  0  0  0  0  0  # atno 17394 bound_to 11000
  140.1650  134.9139  157.2762 LP  0  0  0  0  0  0  0  0  0  0  0  0  # atno 17395 bound_to 11000

$$$$
