AV-unprocessed.smi:437|AV-procd|sdf|2561|dock6
  -GOLD-   2262022533D 1   1.00000     0.00000
 Structure written by MMmdl.
 48 49  0  0  0  0  0  0  0  0  1 V2000
  149.4427  142.2919  155.0320 C   0  0  0  0  0  0  0  0  0  0  0  0
  150.3964  141.3063  155.6520 C   0  0  0  0  0  0  0  0  0  0  0  0
  150.5975  140.2059  155.0045 N   0  0  0  0  0  0  0  0  0  0  0  0
  151.4495  139.2318  155.4880 N   0  0  0  0  0  0  0  0  0  0  0  0
  151.5460  138.0414  154.6297 C   0  0  0  0  0  0  0  0  0  0  0  0
  151.0138  136.7658  155.3018 C   0  0  0  0  0  0  0  0  0  0  0  0
  151.3744  136.4698  156.4440 O   0  0  0  0  0  0  0  0  0  0  0  0
  150.1495  136.0485  154.5555 N   0  0  0  0  0  0  0  0  0  0  0  0
  149.5354  134.8974  154.8899 C   0  0  0  0  0  0  0  0  0  0  0  0
  149.8513  134.1578  155.8245 O   0  0  0  0  0  0  0  0  0  0  0  0
  148.5112  134.6437  154.0624 N   0  0  0  0  0  0  0  0  0  0  0  0
  147.5976  133.5044  154.1599 C   0  0  2  0  0  0  0  0  0  0  0  0
  147.6865  132.6236  152.8952 C   0  0  0  0  0  0  0  0  0  0  0  0
  147.0904  133.3198  151.6597 C   0  0  0  0  0  0  0  0  0  0  0  0
  145.6456  133.7722  151.9191 C   0  0  0  0  0  0  0  0  0  0  0  0
  145.5544  134.6686  153.1644 C   0  0  0  0  0  0  0  0  0  0  0  0
  146.1428  133.9737  154.4099 C   0  0  2  0  0  0  0  0  0  0  0  0
  146.0067  134.8531  155.6648 C   0  0  0  0  0  0  0  0  0  0  0  0
  152.1546  139.3248  156.6523 C   0  0  0  0  0  0  0  0  0  0  0  0
  152.9097  138.4327  157.0422 O   0  0  0  0  0  0  0  0  0  0  0  0
  151.9221  140.5740  157.3805 C   0  0  0  0  0  0  0  0  0  0  0  0
  152.6353  140.7091  158.6094 C   0  0  0  0  0  0  0  0  0  0  0  0
  153.2046  140.8363  159.6093 N   0  0  0  0  0  0  0  0  0  0  0  0
  151.0847  141.5360  156.9181 C   0  0  0  0  0  0  0  0  0  0  0  0
  150.8090  142.8507  157.6349 C   0  0  0  0  0  0  0  0  0  0  0  0
  149.9529  143.2250  154.7923 H   0  0  0  0  0  0  0  0  0  0  0  0
  148.6228  142.5194  155.7135 H   0  0  0  0  0  0  0  0  0  0  0  0
  149.0050  141.9092  154.1086 H   0  0  0  0  0  0  0  0  0  0  0  0
  150.9836  138.1970  153.7072 H   0  0  0  0  0  0  0  0  0  0  0  0
  152.5805  137.8854  154.3176 H   0  0  0  0  0  0  0  0  0  0  0  0
  149.9377  136.4188  153.6409 H   0  0  0  0  0  0  0  0  0  0  0  0
  148.3443  135.2874  153.3030 H   0  0  0  0  0  0  0  0  0  0  0  0
  147.8974  132.8964  155.0157 H   0  0  0  0  0  0  0  0  0  0  0  0
  148.7213  132.3395  152.7003 H   0  0  0  0  0  0  0  0  0  0  0  0
  147.1476  131.6918  153.0716 H   0  0  0  0  0  0  0  0  0  0  0  0
  147.7017  134.1816  151.3897 H   0  0  0  0  0  0  0  0  0  0  0  0
  147.1185  132.6437  150.8046 H   0  0  0  0  0  0  0  0  0  0  0  0
  145.2614  134.3055  151.0492 H   0  0  0  0  0  0  0  0  0  0  0  0
  145.0074  132.8974  152.0517 H   0  0  0  0  0  0  0  0  0  0  0  0
  146.0796  135.6060  152.9772 H   0  0  0  0  0  0  0  0  0  0  0  0
  144.5119  134.9330  153.3444 H   0  0  0  0  0  0  0  0  0  0  0  0
  145.5464  133.0781  154.5906 H   0  0  0  0  0  0  0  0  0  0  0  0
  146.5249  135.8054  155.5496 H   0  0  0  0  0  0  0  0  0  0  0  0
  146.4192  134.3523  156.5410 H   0  0  0  0  0  0  0  0  0  0  0  0
  144.9597  135.0729  155.8748 H   0  0  0  0  0  0  0  0  0  0  0  0
  151.3988  142.9567  158.5449 H   0  0  0  0  0  0  0  0  0  0  0  0
  149.7570  142.9191  157.9144 H   0  0  0  0  0  0  0  0  0  0  0  0
  151.0492  143.6969  156.9902 H   0  0  0  0  0  0  0  0  0  0  0  0
  1  2  1  0  0  0  0
  1 26  1  0  0  0  0
  1 27  1  0  0  0  0
  1 28  1  0  0  0  0
  2 24  1  0  0  0  0
  2  3  2  0  0  0  0
  3  4  1  0  0  0  0
  4  5  1  0  0  0  0
  4 19  1  0  0  0  0
  5  6  1  0  0  0  0
  5 29  1  0  0  0  0
  5 30  1  0  0  0  0
  6  7  2  0  0  0  0
  6  8  1  0  0  0  0
  8  9  1  0  0  0  0
  8 31  1  0  0  0  0
  9 10  2  0  0  0  0
  9 11  1  0  0  0  0
 11 12  1  0  0  0  0
 11 32  1  0  0  0  0
 12 17  1  0  0  0  0
 12 13  1  0  0  0  0
 12 33  1  0  0  0  0
 13 14  1  0  0  0  0
 13 34  1  0  0  0  0
 13 35  1  0  0  0  0
 14 15  1  0  0  0  0
 14 36  1  0  0  0  0
 14 37  1  0  0  0  0
 15 16  1  0  0  0  0
 15 38  1  0  0  0  0
 15 39  1  0  0  0  0
 16 17  1  0  0  0  0
 16 40  1  0  0  0  0
 16 41  1  0  0  0  0
 17 18  1  0  0  0  0
 17 42  1  0  0  0  0
 18 43  1  0  0  0  0
 18 44  1  0  0  0  0
 18 45  1  0  0  0  0
 19 20  2  0  0  0  0
 19 21  1  0  0  0  0
 21 22  1  0  0  0  0
 21 24  2  0  0  0  0
 22 23  3  0  0  0  0
 24 25  1  0  0  0  0
 25 46  1  0  0  0  0
 25 47  1  0  0  0  0
 25 48  1  0  0  0  0
M  END
> <s_m_source_file>
AV-unprocessed.smi

> <i_m_source_file_index>
437

> <i_lp_mmshare_version>
43012

> <i_f3d_flags>
0

> <s_epik_input>
TiNDYyhjMVtDSDNdKWMoPU8pbihuYzFbQ0gzXSlbQ0gyXUMoPU8pW05IXUMoPU8pW05IXVtDQEBIXTJbQ0gyXVtDSDJdW0NIMl1bQ0gyXVtDQEhdMltDSDNd

> <s_epik_cmdline>
J2VwaWtfcHl0aG9uJywgJy1waCcsICc3LjAnLCAnLXRuJywgJzgnLCAnLW1hJywgJzIwMCcsICctbWV0YWxfYmluZGluZycsICctaW1hZScsICc8aW5maWxlLm1hZT4nLCAnLW9tYWUnLCAnPG91dGZpbGUubWFlPic=

> <r_lp_tautomer_probability>
1

> <r_epik_Ionization_Penalty>
3.27035e-05

> <r_epik_Ionization_Penalty_Charging>
1.6965e-11

> <r_epik_Ionization_Penalty_Neutral>
3.27035e-05

> <r_epik_State_Penalty>
-0

> <r_epik_Charging_Adjusted_Penalty>
1.6965e-11

> <i_epik_Tot_Q>
0

> <i_epik_Tot_abs_Q>
0

> <r_epik_Metal_State_Penalty>
-0

> <b_epik_Metal_Only>
0

> <s_lp_Force_Field>
OPLS_2005

> <r_lp_Energy>
26.4777

> <b_lp_Chiralities_Consistent>
1

> <s_lp_Variant>
AV-unprocessed.smi:437-3

> <Gold.Version>
5.8.1

> <Gold.Id.Protein>
6NUR|6NUR_protein|mol2

> <Gold.PLP.Fitness>
44.0661

> <Gold.PLP.PLP>
-35.4325

> <Gold.PLP.part.hbond>
-3.8260

> <Gold.PLP.part.metal>
0.0000

> <Gold.PLP.part.buried>
-1.4032

> <Gold.PLP.part.nonpolar>
-30.9000

> <Gold.PLP.part.repulsive>
0.1496

> <Gold.PLP.ligand.clash>
0.0000

> <Gold.PLP.ligand.torsion>
0.1907

> <Gold.PLP.Chemscore.Hbond>
2.9934

> <Gold.PLP.Chemscore.CHOScore>
0.0000

> <Gold.PLP.Chemscore.Metal>
0.0000

> <Gold.Chemscore.Hbonds>
donor molecule, donor type, donor heavy atom, donor atom, acceptor molecule, acceptor atom, score
      L1  H     8    31       P1  7948  0.89
      L1  H    11    32       P1  7948  0.98
      P1  H  7989  7998       L1     3  1.00
      P1  H  7997  8009       L1    20  0.10

> <Gold.PLP.Chemscore.Internal.Correction>
0.0348

> <Gold.Rescore>
     Score         DG    S(hbond)    S(metal)    S(lipo)     H(rot)  DE(clash)    DE(int)     intcor
     12.87     -16.12       2.03        0.00      67.19       1.57       1.39       1.86       ----

> <Gold.Chemscore.Fitness>
12.8721

> <Gold.Chemscore.DG>
-16.1213

> <Gold.Chemscore.ZeroCoef>
-5.4800

> <Gold.Chemscore.Hbond>
2.0324

> <Gold.Chemscore.Metal>
0.0000

> <Gold.Chemscore.Lipo>
67.1878

> <Gold.Chemscore.Internal_Hbond>
0.0000

> <Gold.Chemscore.DEClash>
1.3913

> <Gold.Chemscore.DEInternal>
1.8579

> <Gold.Chemscore.Rot>
1.5656

> <Gold.Chemscore.Internal.Correction>
   9.000000E+99

> <Gold.Chemscore.Hbonds>
donor molecule, donor type, donor heavy atom, donor atom, acceptor molecule, acceptor atom, score
      L1  H     8    31       P1  7948  0.16
      L1  H    11    32       P1  7948  0.91
      P1  H  7989  7998       L1     3  0.08

> <Gold.Chemscore.Hbond.Weighted>
-6.7882

> <Gold.Chemscore.Metal.Weighted>
-0.0000

> <Gold.Chemscore.Lipo.Weighted>
-7.8610

> <Gold.Chemscore.Internal_Hbond.Weighted>
0.0000

> <Gold.Chemscore.DEClash.Weighted>
1.3913

> <Gold.Chemscore.DEInternal.Weighted>
1.8579

> <Gold.Chemscore.Rot.Weighted>
4.0079

> <Gold.Chemscore.Internal.Correction.Weighted>
   9.000000E+99

> <Gold.Protein.RotatedTorsions>
[ 6907 6896 6895 6894 ] final  -53.46 input  -60.11 | X-H torsion
[ 7974 7965 7964 7962 ] final -103.62 input  175.53 | X-H torsion
[ 8008 7997 7996 7995 ] final  154.64 input   59.86 | X-H torsion
[ 10167 10162 10161 10158 ] final  -86.25 input  -65.29 | X-H torsion
[ 10718 10713 10712 10709 ] final -153.66 input   66.30 | X-H torsion
[ 10763 10752 10751 10750 ] final  165.65 input  -60.55 | X-H torsion
[ 11005 11000 10999 10996 ] final -174.25 input  -57.11 | X-H torsion

> <Gold.Protein.ActiveResidues>
 VAL166  LYS551  ARG553  GLY616  TRP617  ASP618  TYR619  PRO620  LYS621  CYS622 
 ASP623  PHE694  ASN695  SER759  ASP760  ASP761  ALA762  ILE779  LEU786  VAL792 
 PHE793  MET794  SER795  GLU796  ALA797  LYS798  CYS799  TRP800  GLU811  SER814 

> <Gold.Protein.RotatedAtoms>
  150.8424  134.7721  159.6943 H   0  0  0  0  0  0  0  0  0  0  0  0  # atno 6907 bound_to 6896
  152.4509  134.5393  159.9844 H   0  0  0  0  0  0  0  0  0  0  0  0  # atno 6908 bound_to 6896
  151.5530  133.3377  159.2992 H   0  0  0  0  0  0  0  0  0  0  0  0  # atno 6909 bound_to 6896
  145.2535  140.9246  143.3081 H   0  0  0  0  0  0  0  0  0  0  0  0  # atno 7974 bound_to 7965
  156.2520  140.1961  156.6678 H   0  0  0  0  0  0  0  0  0  0  0  0  # atno 8008 bound_to 7997
  154.6416  140.0583  156.9877 H   0  0  0  0  0  0  0  0  0  0  0  0  # atno 8009 bound_to 7997
  155.1554  140.3255  155.4425 H   0  0  0  0  0  0  0  0  0  0  0  0  # atno 8010 bound_to 7997
  140.3959  143.2684  151.9204 H   0  0  0  0  0  0  0  0  0  0  0  0  # atno 10167 bound_to 10162
  156.4888  130.8337  151.2561 H   0  0  0  0  0  0  0  0  0  0  0  0  # atno 10718 bound_to 10713
  154.3271  135.2755  155.2490 H   0  0  0  0  0  0  0  0  0  0  0  0  # atno 10763 bound_to 10752
  154.4818  135.5856  153.6398 H   0  0  0  0  0  0  0  0  0  0  0  0  # atno 10764 bound_to 10752
  152.9870  135.6113  154.3461 H   0  0  0  0  0  0  0  0  0  0  0  0  # atno 10765 bound_to 10752
  140.4766  134.6115  157.4903 H   0  0  0  0  0  0  0  0  0  0  0  0  # atno 11005 bound_to 11000
  144.9481  139.4113  143.6416 LP  0  0  0  0  0  0  0  0  0  0  0  0  # atno 17320 bound_to 7965
  146.3296  139.8475  142.8879 LP  0  0  0  0  0  0  0  0  0  0  0  0  # atno 17321 bound_to 7965
  139.4786  144.5681  151.8132 LP  0  0  0  0  0  0  0  0  0  0  0  0  # atno 17342 bound_to 10162
  140.4790  144.1476  150.5929 LP  0  0  0  0  0  0  0  0  0  0  0  0  # atno 17343 bound_to 10162
  157.7476  131.0020  150.2986 LP  0  0  0  0  0  0  0  0  0  0  0  0  # atno 17370 bound_to 10713
  156.3448  130.3821  149.7379 LP  0  0  0  0  0  0  0  0  0  0  0  0  # atno 17371 bound_to 10713
  139.9852  134.7073  155.9786 LP  0  0  0  0  0  0  0  0  0  0  0  0  # atno 17394 bound_to 11000
  141.1551  133.6543  156.4137 LP  0  0  0  0  0  0  0  0  0  0  0  0  # atno 17395 bound_to 11000

$$$$
