AV-unprocessed.smi:599|AV-procd|sdf|3029|dock2
  -GOLD-   2262023543D 1   1.00000     0.00000
 Structure written by MMmdl.
 36 37  0  0  0  0  0  0  0  0  1 V2000
  150.4566  139.6227  154.2361 N   0  0  0  0  0  0  0  0  0  0  0  0
  149.8204  140.3964  154.8154 C   0  0  0  0  0  0  0  0  0  0  0  0
  149.0088  141.3839  155.5535 C   0  0  0  0  0  0  0  0  0  0  0  0
  149.8408  142.3944  156.2065 N   0  0  0  0  0  0  0  0  0  0  0  0
  150.8731  142.1519  157.0296 C   0  0  0  0  0  0  0  0  0  0  0  0
  151.2494  141.0167  157.3223 O   0  0  0  0  0  0  0  0  0  0  0  0
  151.5953  143.3852  157.5889 C   0  0  0  0  0  0  0  0  0  0  0  0
  152.0345  143.2119  158.9836 N   0  0  0  0  0  0  0  0  0  0  0  0
  152.8645  142.1087  159.2645 C   0  0  0  0  0  0  0  0  0  0  0  0
  153.3414  141.8453  160.4964 C   0  0  0  0  0  0  0  0  0  0  0  0
  154.1830  140.6115  160.7827 C   0  0  0  0  0  0  0  0  0  0  0  0
  155.3434  140.6603  160.1284 F   0  0  0  0  0  0  0  0  0  0  0  0
  154.4413  140.4948  162.0859 F   0  0  0  0  0  0  0  0  0  0  0  0
  153.5312  139.5181  160.3896 F   0  0  0  0  0  0  0  0  0  0  0  0
  152.9315  142.7488  161.5536 C   0  0  0  0  0  0  0  0  0  0  0  0
  152.1267  143.8001  161.3046 C   0  0  0  0  0  0  0  0  0  0  0  0
  151.6286  144.0819  159.9565 C   0  0  0  0  0  0  0  0  0  0  0  0
  150.8926  145.0394  159.7161 O   0  0  0  0  0  0  0  0  0  0  0  0
  148.0269  142.0717  154.5956 C   0  0  0  0  0  0  0  0  0  0  0  0
  146.8628  141.0920  154.4545 C   0  0  0  0  0  0  0  0  0  0  0  0
  146.7497  140.4027  155.8170 C   0  0  0  0  0  0  0  0  0  0  0  0
  148.0672  140.6832  156.5557 C   0  0  0  0  0  0  0  0  0  0  0  0
  149.6081  143.3587  156.0179 H   0  0  0  0  0  0  0  0  0  0  0  0
  152.4467  143.6015  156.9424 H   0  0  0  0  0  0  0  0  0  0  0  0
  150.9464  144.2595  157.5070 H   0  0  0  0  0  0  0  0  0  0  0  0
  153.0799  141.4805  158.4123 H   0  0  0  0  0  0  0  0  0  0  0  0
  153.2782  142.5822  162.5629 H   0  0  0  0  0  0  0  0  0  0  0  0
  151.8425  144.4530  162.1169 H   0  0  0  0  0  0  0  0  0  0  0  0
  147.6563  143.0001  155.0340 H   0  0  0  0  0  0  0  0  0  0  0  0
  148.4786  142.3222  153.6350 H   0  0  0  0  0  0  0  0  0  0  0  0
  145.9368  141.5848  154.1569 H   0  0  0  0  0  0  0  0  0  0  0  0
  147.1015  140.3512  153.6901 H   0  0  0  0  0  0  0  0  0  0  0  0
  145.9090  140.8039  156.3844 H   0  0  0  0  0  0  0  0  0  0  0  0
  146.5794  139.3324  155.6957 H   0  0  0  0  0  0  0  0  0  0  0  0
  148.5079  139.7719  156.9621 H   0  0  0  0  0  0  0  0  0  0  0  0
  147.8576  141.3376  157.4037 H   0  0  0  0  0  0  0  0  0  0  0  0
  1  2  3  0  0  0  0
  2  3  1  0  0  0  0
  3 22  1  0  0  0  0
  3  4  1  0  0  0  0
  3 19  1  0  0  0  0
  4  5  1  0  0  0  0
  4 23  1  0  0  0  0
  5  6  2  0  0  0  0
  5  7  1  0  0  0  0
  7  8  1  0  0  0  0
  7 24  1  0  0  0  0
  7 25  1  0  0  0  0
  8 17  1  0  0  0  0
  8  9  1  0  0  0  0
  9 10  2  0  0  0  0
  9 26  1  0  0  0  0
 10 11  1  0  0  0  0
 10 15  1  0  0  0  0
 11 12  1  0  0  0  0
 11 13  1  0  0  0  0
 11 14  1  0  0  0  0
 15 16  2  0  0  0  0
 15 27  1  0  0  0  0
 16 17  1  0  0  0  0
 16 28  1  0  0  0  0
 17 18  2  0  0  0  0
 19 20  1  0  0  0  0
 19 29  1  0  0  0  0
 19 30  1  0  0  0  0
 20 21  1  0  0  0  0
 20 31  1  0  0  0  0
 20 32  1  0  0  0  0
 21 22  1  0  0  0  0
 21 33  1  0  0  0  0
 21 34  1  0  0  0  0
 22 35  1  0  0  0  0
 22 36  1  0  0  0  0
M  END
> <s_m_source_file>
AV-unprocessed.smi

> <i_m_source_file_index>
599

> <i_lp_mmshare_version>
43012

> <i_f3d_flags>
0

> <s_epik_input>
W0NIMl0xW0NIMl1bQ0gyXVtDSDJdQzEoQyNOKVtOSF1DKD1PKVtDSDJdbjJbY0hdYyhDKEYpKEYpRilbY0hdW2NIXWMyPU8=

> <s_epik_cmdline>
J2VwaWtfcHl0aG9uJywgJy1waCcsICc3LjAnLCAnLXRuJywgJzgnLCAnLW1hJywgJzIwMCcsICctbWV0YWxfYmluZGluZycsICctaW1hZScsICc8aW5maWxlLm1hZT4nLCAnLW9tYWUnLCAnPG91dGZpbGUubWFlPic=

> <r_lp_tautomer_probability>
1

> <r_epik_Ionization_Penalty>
4.74739e-07

> <r_epik_Ionization_Penalty_Charging>
1.48482e-08

> <r_epik_Ionization_Penalty_Neutral>
4.59891e-07

> <r_epik_State_Penalty>
-0

> <r_epik_Charging_Adjusted_Penalty>
1.48482e-08

> <i_epik_Tot_Q>
0

> <i_epik_Tot_abs_Q>
0

> <r_epik_Metal_State_Penalty>
-0

> <b_epik_Metal_Only>
0

> <s_lp_Force_Field>
OPLS_2005

> <r_lp_Energy>
29.4695

> <b_lp_Chiralities_Consistent>
1

> <s_lp_Variant>
AV-unprocessed.smi:599-1

> <Gold.Version>
5.8.1

> <Gold.Id.Protein>
6NUR|6NUR_protein|mol2

> <Gold.PLP.Fitness>
53.4574

> <Gold.PLP.PLP>
-48.3546

> <Gold.PLP.part.hbond>
-2.0000

> <Gold.PLP.part.metal>
0.0000

> <Gold.PLP.part.buried>
-4.6128

> <Gold.PLP.part.nonpolar>
-42.9391

> <Gold.PLP.part.repulsive>
0.4220

> <Gold.PLP.ligand.clash>
0.0000

> <Gold.PLP.ligand.torsion>
0.4837

> <Gold.PLP.Chemscore.Hbond>
2.0000

> <Gold.PLP.Chemscore.CHOScore>
0.0000

> <Gold.PLP.Chemscore.Metal>
0.0000

> <Gold.Chemscore.Hbonds>
donor molecule, donor type, donor heavy atom, donor atom, acceptor molecule, acceptor atom, score
      L1  H     4    23       P1  8028  1.00
      P1  H  7989  7998       L1     1  0.80

> <Gold.PLP.Chemscore.Internal.Correction>
0.0703

> <Gold.Rescore>
     Score         DG    S(hbond)    S(metal)    S(lipo)     H(rot)  DE(clash)    DE(int)     intcor
     11.94     -15.35       0.99        0.00      92.44       1.66       0.17       3.25       ----

> <Gold.Chemscore.Fitness>
11.9371

> <Gold.Chemscore.DG>
-15.3512

> <Gold.Chemscore.ZeroCoef>
-5.4800

> <Gold.Chemscore.Hbond>
0.9894

> <Gold.Chemscore.Metal>
0.0000

> <Gold.Chemscore.Lipo>
92.4434

> <Gold.Chemscore.Internal_Hbond>
0.0000

> <Gold.Chemscore.DEClash>
0.1662

> <Gold.Chemscore.DEInternal>
3.2480

> <Gold.Chemscore.Rot>
1.6599

> <Gold.Chemscore.Internal.Correction>
   9.000000E+99

> <Gold.Chemscore.Hbonds>
donor molecule, donor type, donor heavy atom, donor atom, acceptor molecule, acceptor atom, score
      L1  H     4    23       P1  8028  0.98
      P1  H  7989  7998       L1     1  0.12

> <Gold.Chemscore.Hbond.Weighted>
-3.3046

> <Gold.Chemscore.Metal.Weighted>
-0.0000

> <Gold.Chemscore.Lipo.Weighted>
-10.8159

> <Gold.Chemscore.Internal_Hbond.Weighted>
0.0000

> <Gold.Chemscore.DEClash.Weighted>
0.1662

> <Gold.Chemscore.DEInternal.Weighted>
3.2480

> <Gold.Chemscore.Rot.Weighted>
4.2492

> <Gold.Chemscore.Internal.Correction.Weighted>
   9.000000E+99

> <Gold.Protein.RotatedTorsions>
[ 6907 6896 6895 6894 ] final  132.37 input  -60.11 | X-H torsion
[ 7974 7965 7964 7962 ] final  -43.63 input  175.53 | X-H torsion
[ 8008 7997 7996 7995 ] final  -76.38 input   59.86 | X-H torsion
[ 10167 10162 10161 10158 ] final  -89.56 input  -65.29 | X-H torsion
[ 10718 10713 10712 10709 ] final  -14.08 input   66.30 | X-H torsion
[ 10763 10752 10751 10750 ] final  -90.52 input  -60.55 | X-H torsion
[ 11005 11000 10999 10996 ] final   34.91 input  -57.11 | X-H torsion

> <Gold.Protein.ActiveResidues>
 VAL166  LYS551  ARG553  GLY616  TRP617  ASP618  TYR619  PRO620  LYS621  CYS622 
 ASP623  PHE694  ASN695  SER759  ASP760  ASP761  ALA762  ILE779  LEU786  VAL792 
 PHE793  MET794  SER795  GLU796  ALA797  LYS798  CYS799  TRP800  GLU811  SER814 

> <Gold.Protein.RotatedAtoms>
  152.3331  133.5980  159.5822 H   0  0  0  0  0  0  0  0  0  0  0  0  # atno 6907 bound_to 6896
  150.7434  133.9838  159.3594 H   0  0  0  0  0  0  0  0  0  0  0  0  # atno 6908 bound_to 6896
  151.7711  135.0787  160.0411 H   0  0  0  0  0  0  0  0  0  0  0  0  # atno 6909 bound_to 6896
  146.0000  140.7085  142.9275 H   0  0  0  0  0  0  0  0  0  0  0  0  # atno 7974 bound_to 7965
  154.5500  140.0728  156.8652 H   0  0  0  0  0  0  0  0  0  0  0  0  # atno 8008 bound_to 7997
  155.3012  140.3384  155.4229 H   0  0  0  0  0  0  0  0  0  0  0  0  # atno 8009 bound_to 7997
  156.1952  140.1701  156.7997 H   0  0  0  0  0  0  0  0  0  0  0  0  # atno 8010 bound_to 7997
  140.3636  143.2829  151.9585 H   0  0  0  0  0  0  0  0  0  0  0  0  # atno 10167 bound_to 10162
  156.6211  130.4875  149.6164 H   0  0  0  0  0  0  0  0  0  0  0  0  # atno 10718 bound_to 10713
  154.6666  135.5301  153.8085 H   0  0  0  0  0  0  0  0  0  0  0  0  # atno 10763 bound_to 10752
  153.0475  135.6519  154.0790 H   0  0  0  0  0  0  0  0  0  0  0  0  # atno 10764 bound_to 10752
  154.0693  135.2955  155.3291 H   0  0  0  0  0  0  0  0  0  0  0  0  # atno 10765 bound_to 10752
  140.2480  134.3336  155.7900 H   0  0  0  0  0  0  0  0  0  0  0  0  # atno 11005 bound_to 11000
  144.6916  140.3217  143.7231 LP  0  0  0  0  0  0  0  0  0  0  0  0  # atno 17320 bound_to 7965
  145.7502  139.1791  143.2326 LP  0  0  0  0  0  0  0  0  0  0  0  0  # atno 17321 bound_to 7965
  139.4811  144.5971  151.7671 LP  0  0  0  0  0  0  0  0  0  0  0  0  # atno 17342 bound_to 10162
  140.5103  144.1035  150.5993 LP  0  0  0  0  0  0  0  0  0  0  0  0  # atno 17343 bound_to 10162
  156.2311  130.6795  151.1464 LP  0  0  0  0  0  0  0  0  0  0  0  0  # atno 17370 bound_to 10713
  157.7227  131.0671  150.6066 LP  0  0  0  0  0  0  0  0  0  0  0  0  # atno 17371 bound_to 10713
  141.2204  133.7337  156.8992 LP  0  0  0  0  0  0  0  0  0  0  0  0  # atno 17394 bound_to 11000
  140.1586  134.9181  157.2685 LP  0  0  0  0  0  0  0  0  0  0  0  0  # atno 17395 bound_to 11000

$$$$
