AV-unprocessed.smi:2895|AV-procd|sdf|11128|dock4
  -GOLD-   2272016 03D 1   1.00000     0.00000
 Structure written by MMmdl.
 53 56  0  0  0  0  0  0  0  0  2 V2000
  149.0286  141.7347  153.7964 O   0  0  0  0  0  0  0  0  0  0  0  0
  148.7789  140.8993  154.6662 C   0  0  0  0  0  0  0  0  0  0  0  0
  149.4592  140.8522  155.8244 N   0  0  0  0  0  0  0  0  0  0  0  0
  150.5543  141.7412  156.1959 C   0  0  0  0  0  0  0  0  0  0  0  0
  151.3099  141.2290  157.4334 C   0  0  0  0  0  0  0  0  0  0  0  0
  151.7907  142.3617  158.3194 C   0  0  0  0  0  0  0  0  0  0  0  0
  152.3542  142.0952  159.5843 C   0  0  0  0  0  0  0  0  0  0  0  0
  152.7879  143.1826  160.3689 C   0  0  0  0  0  0  0  0  0  0  0  0
  152.6912  144.4696  159.9709 N   0  0  0  0  0  0  0  0  0  0  0  0
  152.1505  144.7165  158.7584 C   0  0  0  0  0  0  0  0  0  0  0  0
  151.6875  143.7027  157.8960 C   0  0  0  0  0  0  0  0  0  0  0  0
  147.7833  139.9834  154.5512 N   0  0  0  0  0  0  0  0  0  0  0  0
  147.6015  138.7838  155.3845 C   0  0  0  0  0  0  0  0  0  0  0  0
  147.8720  137.5234  154.5352 C   0  0  0  0  0  0  0  0  0  0  0  0
  147.0351  137.4813  153.3009 N   0  3  0  0  0  0  0  0  0  0  0  0
  145.6341  137.0232  153.5484 C   0  0  2  0  0  0  0  0  0  0  0  0
  145.5296  135.5801  154.1012 C   0  0  0  0  0  0  0  0  0  0  0  0
  144.4869  134.9224  153.1774 C   0  0  2  0  0  0  0  0  0  0  0  0
  145.1482  134.6176  151.8226 C   0  0  0  0  0  0  0  0  0  0  0  0
  145.3235  136.0202  151.2141 C   0  0  0  0  0  0  0  0  0  0  0  0
  144.7240  136.9454  152.2956 C   0  0  1  0  0  0  0  0  0  0  0  0
  143.5760  136.0912  152.8228 C   0  0  0  0  0  0  0  0  0  0  0  0
  147.1421  138.7537  152.5308 C   0  0  0  0  0  0  0  0  0  0  0  0
  146.8576  139.9846  153.4128 C   0  0  0  0  0  0  0  0  0  0  0  0
  149.1915  140.1541  156.5028 H   0  0  0  0  0  0  0  0  0  0  0  0
  151.2361  141.8647  155.3525 H   0  0  0  0  0  0  0  0  0  0  0  0
  150.1329  142.7256  156.4011 H   0  0  0  0  0  0  0  0  0  0  0  0
  150.6680  140.5659  158.0152 H   0  0  0  0  0  0  0  0  0  0  0  0
  152.1737  140.6344  157.1330 H   0  0  0  0  0  0  0  0  0  0  0  0
  152.4545  141.0824  159.9464 H   0  0  0  0  0  0  0  0  0  0  0  0
  153.2246  143.0135  161.3421 H   0  0  0  0  0  0  0  0  0  0  0  0
  152.0848  145.7539  158.4656 H   0  0  0  0  0  0  0  0  0  0  0  0
  151.2638  143.9530  156.9342 H   0  0  0  0  0  0  0  0  0  0  0  0
  148.2368  138.7575  156.2693 H   0  0  0  0  0  0  0  0  0  0  0  0
  146.5809  138.7734  155.7683 H   0  0  0  0  0  0  0  0  0  0  0  0
  148.9190  137.5212  154.2291 H   0  0  0  0  0  0  0  0  0  0  0  0
  147.7397  136.6272  155.1404 H   0  0  0  0  0  0  0  0  0  0  0  0
  145.1661  137.7045  154.2602 H   0  0  0  0  0  0  0  0  0  0  0  0
  146.4733  135.0338  154.0734 H   0  0  0  0  0  0  0  0  0  0  0  0
  145.1850  135.5936  155.1360 H   0  0  0  0  0  0  0  0  0  0  0  0
  143.9854  134.0620  153.6218 H   0  0  0  0  0  0  0  0  0  0  0  0
  146.0949  134.0868  151.9294 H   0  0  0  0  0  0  0  0  0  0  0  0
  144.4926  134.0082  151.1989 H   0  0  0  0  0  0  0  0  0  0  0  0
  146.3652  136.2475  150.9878 H   0  0  0  0  0  0  0  0  0  0  0  0
  144.7604  136.1017  150.2835 H   0  0  0  0  0  0  0  0  0  0  0  0
  144.4061  137.9173  151.9170 H   0  0  0  0  0  0  0  0  0  0  0  0
  142.8332  135.8458  152.0614 H   0  0  0  0  0  0  0  0  0  0  0  0
  143.0708  136.5254  153.6876 H   0  0  0  0  0  0  0  0  0  0  0  0
  148.1598  138.8245  152.1446 H   0  0  0  0  0  0  0  0  0  0  0  0
  146.5020  138.7528  151.6502 H   0  0  0  0  0  0  0  0  0  0  0  0
  145.8317  139.9629  153.7824 H   0  0  0  0  0  0  0  0  0  0  0  0
  146.9294  140.8906  152.8096 H   0  0  0  0  0  0  0  0  0  0  0  0
  147.4375  136.7673  152.7103 H   0  0  0  0  0  0  0  0  0  0  0  0
  1  2  2  0  0  0  0
  2  3  1  0  0  0  0
  2 12  1  0  0  0  0
  3  4  1  0  0  0  0
  3 25  1  0  0  0  0
  4  5  1  0  0  0  0
  4 26  1  0  0  0  0
  4 27  1  0  0  0  0
  5  6  1  0  0  0  0
  5 28  1  0  0  0  0
  5 29  1  0  0  0  0
  6 11  1  0  0  0  0
  6  7  2  0  0  0  0
  7  8  1  0  0  0  0
  7 30  1  0  0  0  0
  8  9  2  0  0  0  0
  8 31  1  0  0  0  0
  9 10  1  0  0  0  0
 10 11  2  0  0  0  0
 10 32  1  0  0  0  0
 11 33  1  0  0  0  0
 12 24  1  0  0  0  0
 12 13  1  0  0  0  0
 13 14  1  0  0  0  0
 13 34  1  0  0  0  0
 13 35  1  0  0  0  0
 14 15  1  0  0  0  0
 14 36  1  0  0  0  0
 14 37  1  0  0  0  0
 15 16  1  0  0  0  0
 15 23  1  0  0  0  0
 15 53  1  0  0  0  0
 16 21  1  0  0  0  0
 16 17  1  0  0  0  0
 16 38  1  0  0  0  0
 17 18  1  0  0  0  0
 17 39  1  0  0  0  0
 17 40  1  0  0  0  0
 18 22  1  0  0  0  0
 18 19  1  0  0  0  0
 18 41  1  0  0  0  0
 19 20  1  0  0  0  0
 19 42  1  0  0  0  0
 19 43  1  0  0  0  0
 20 21  1  0  0  0  0
 20 44  1  0  0  0  0
 20 45  1  0  0  0  0
 21 22  1  0  0  0  0
 21 46  1  0  0  0  0
 22 47  1  0  0  0  0
 22 48  1  0  0  0  0
 23 24  1  0  0  0  0
 23 49  1  0  0  0  0
 23 50  1  0  0  0  0
 24 51  1  0  0  0  0
 24 52  1  0  0  0  0
M  CHG  1  15   1
M  END
> <s_m_source_file>
AV-unprocessed.smi

> <i_m_source_file_index>
2895

> <i_lp_mmshare_version>
43012

> <i_f3d_flags>
0

> <s_epik_input>
W0NIMl0xW0NIMl1bQ0BASF0oW0NIMl0yKVtDQEBIXShbQ0gyXVtDQEhdMTIpTihbQ0gyXVtDSDJdMylbQ0gyXVtDSDJdTjNDKD1PKVtOSF1bQ0gyXVtDSDJdYzRbY0hdW2NIXW5bY0hdW2NIXTQ=

> <s_epik_cmdline>
J2VwaWtfcHl0aG9uJywgJy1waCcsICc3LjAnLCAnLXRuJywgJzgnLCAnLW1hJywgJzIwMCcsICctbWV0YWxfYmluZGluZycsICctaW1hZScsICc8aW5maWxlLm1hZT4nLCAnLW9tYWUnLCAnPG91dGZpbGUubWFlPic=

> <r_epik_Ionization_Penalty>
0.0566172

> <r_epik_Ionization_Penalty_Charging>
0.00262064

> <r_epik_Ionization_Penalty_Neutral>
0.0539965

> <r_epik_State_Penalty>
0.0463959

> <r_epik_Charging_Adjusted_Penalty>
0.0490165

> <i_epik_Tot_Q>
1

> <i_epik_Tot_abs_Q>
1

> <r_epik_Metal_State_Penalty>
0.0424856

> <b_epik_Metal_Only>
0

> <s_lp_Force_Field>
OPLS_2005

> <r_lp_Energy>
99.7754

> <b_lp_Chiralities_Consistent>
1

> <s_lp_Variant>
AV-unprocessed.smi:2895-1

> <Gold.Version>
5.8.1

> <Gold.Id.Protein>
6NUR|6NUR_protein|mol2

> <Gold.PLP.Fitness>
46.9444

> <Gold.PLP.PLP>
-40.5115

> <Gold.PLP.part.hbond>
-2.4279

> <Gold.PLP.part.metal>
0.0000

> <Gold.PLP.part.buried>
-2.1566

> <Gold.PLP.part.nonpolar>
-37.0303

> <Gold.PLP.part.repulsive>
0.3436

> <Gold.PLP.ligand.clash>
0.0000

> <Gold.PLP.ligand.torsion>
0.4813

> <Gold.PLP.Chemscore.Hbond>
2.4320

> <Gold.PLP.Chemscore.CHOScore>
0.0000

> <Gold.PLP.Chemscore.Metal>
0.0000

> <Gold.Chemscore.Hbonds>
donor molecule, donor type, donor heavy atom, donor atom, acceptor molecule, acceptor atom, score
      L1  H    15    53       P1  7948  1.79
      P1  H  8011  8017       L1     1  0.61

> <Gold.PLP.Chemscore.Internal.Correction>
0.0994

> <Gold.Rescore>
     Score         DG    S(hbond)    S(metal)    S(lipo)     H(rot)  DE(clash)    DE(int)     intcor
     19.43     -20.28       1.44        0.00     115.37       1.37       0.38       0.47       ----

> <Gold.Chemscore.Fitness>
19.4271

> <Gold.Chemscore.DG>
-20.2786

> <Gold.Chemscore.ZeroCoef>
-5.4800

> <Gold.Chemscore.Hbond>
1.4417

> <Gold.Chemscore.Metal>
0.0000

> <Gold.Chemscore.Lipo>
115.3728

> <Gold.Chemscore.Internal_Hbond>
0.0000

> <Gold.Chemscore.DEClash>
0.3822

> <Gold.Chemscore.DEInternal>
0.4692

> <Gold.Chemscore.Rot>
1.3731

> <Gold.Chemscore.Internal.Correction>
   9.000000E+99

> <Gold.Chemscore.Hbonds>
donor molecule, donor type, donor heavy atom, donor atom, acceptor molecule, acceptor atom, score
      L1  H    15    53       P1  7948  0.88
      P1  H  8011  8017       L1     1  0.62

> <Gold.Chemscore.Hbond.Weighted>
-4.8151

> <Gold.Chemscore.Metal.Weighted>
-0.0000

> <Gold.Chemscore.Lipo.Weighted>
-13.4986

> <Gold.Chemscore.Internal_Hbond.Weighted>
0.0000

> <Gold.Chemscore.DEClash.Weighted>
0.3822

> <Gold.Chemscore.DEInternal.Weighted>
0.4692

> <Gold.Chemscore.Rot.Weighted>
3.5152

> <Gold.Chemscore.Internal.Correction.Weighted>
   9.000000E+99

> <Gold.Protein.RotatedTorsions>
[ 6907 6896 6895 6894 ] final  122.54 input  -60.11 | X-H torsion
[ 7974 7965 7964 7962 ] final   57.18 input  175.53 | X-H torsion
[ 8008 7997 7996 7995 ] final  -47.76 input   59.86 | X-H torsion
[ 10167 10162 10161 10158 ] final   -5.81 input  -65.29 | X-H torsion
[ 10718 10713 10712 10709 ] final -174.69 input   66.30 | X-H torsion
[ 10763 10752 10751 10750 ] final  155.61 input  -60.55 | X-H torsion
[ 11005 11000 10999 10996 ] final  121.71 input  -57.11 | X-H torsion

> <Gold.Protein.ActiveResidues>
 VAL166  LYS551  ARG553  GLY616  TRP617  ASP618  TYR619  PRO620  LYS621  CYS622 
 ASP623  PHE694  ASN695  SER759  ASP760  ASP761  ALA762  ILE779  LEU786  VAL792 
 PHE793  MET794  SER795  GLU796  ALA797  LYS798  CYS799  TRP800  GLU811  SER814 

> <Gold.Protein.RotatedAtoms>
  152.4235  133.7155  159.6503 H   0  0  0  0  0  0  0  0  0  0  0  0  # atno 6907 bound_to 6896
  150.8111  133.8410  159.3188 H   0  0  0  0  0  0  0  0  0  0  0  0  # atno 6908 bound_to 6896
  151.6120  135.1041  160.0135 H   0  0  0  0  0  0  0  0  0  0  0  0  # atno 6909 bound_to 6896
  145.9318  139.3814  143.0416 H   0  0  0  0  0  0  0  0  0  0  0  0  # atno 7974 bound_to 7965
  154.4020  140.1338  156.4228 H   0  0  0  0  0  0  0  0  0  0  0  0  # atno 8008 bound_to 7997
  155.7626  140.3486  155.5185 H   0  0  0  0  0  0  0  0  0  0  0  0  # atno 8009 bound_to 7997
  155.8844  140.0993  157.1453 H   0  0  0  0  0  0  0  0  0  0  0  0  # atno 8010 bound_to 7997
  140.6976  143.6266  150.8562 H   0  0  0  0  0  0  0  0  0  0  0  0  # atno 10167 bound_to 10162
  156.7887  130.9510  151.3120 H   0  0  0  0  0  0  0  0  0  0  0  0  # atno 10718 bound_to 10713
  154.1711  135.2804  155.3080 H   0  0  0  0  0  0  0  0  0  0  0  0  # atno 10763 bound_to 10752
  154.6074  135.5510  153.7441 H   0  0  0  0  0  0  0  0  0  0  0  0  # atno 10764 bound_to 10752
  153.0164  135.6407  154.1851 H   0  0  0  0  0  0  0  0  0  0  0  0  # atno 10765 bound_to 10752
  139.9237  134.9639  156.7999 H   0  0  0  0  0  0  0  0  0  0  0  0  # atno 11005 bound_to 11000
  145.8416  140.9578  143.0796 LP  0  0  0  0  0  0  0  0  0  0  0  0  # atno 17320 bound_to 7965
  144.6766  140.0291  143.7483 LP  0  0  0  0  0  0  0  0  0  0  0  0  # atno 17321 bound_to 7965
  139.9985  143.5770  152.2884 LP  0  0  0  0  0  0  0  0  0  0  0  0  # atno 17342 bound_to 10162
  139.6451  144.7657  151.2261 LP  0  0  0  0  0  0  0  0  0  0  0  0  # atno 17343 bound_to 10162
  157.6611  130.8967  149.9832 LP  0  0  0  0  0  0  0  0  0  0  0  0  # atno 17370 bound_to 10713
  156.1172  130.3647  149.9948 LP  0  0  0  0  0  0  0  0  0  0  0  0  # atno 17371 bound_to 10713
  140.6398  133.9829  155.7702 LP  0  0  0  0  0  0  0  0  0  0  0  0  # atno 17394 bound_to 11000
  141.0779  134.0107  157.3431 LP  0  0  0  0  0  0  0  0  0  0  0  0  # atno 17395 bound_to 11000

$$$$
