AV-unprocessed.smi:101|AV-procd|sdf|941|dock2
  -GOLD-   2262017463D 1   1.00000     0.00000
 Structure written by MMmdl.
 43 45  0  0  0  0  0  0  0  0  2 V2000
  149.0560  136.0926  160.1454 C   0  0  0  0  0  0  0  0  0  0  0  0
  149.5018  135.6492  158.7628 C   0  0  0  0  0  0  0  0  0  0  0  0
  150.3068  136.4084  157.9865 C   0  0  0  0  0  0  0  0  0  0  0  0
  150.7094  135.9991  156.7264 N   0  0  0  0  0  0  0  0  0  0  0  0
  151.6149  136.8574  155.8621 C   0  0  2  0  0  0  0  0  0  0  0  0
  151.9896  138.0052  156.5702 O   0  0  0  0  0  0  0  0  0  0  0  0
  151.3586  139.1518  156.0112 C   0  0  1  0  0  0  0  0  0  0  0  0
  152.1849  140.3982  156.3509 C   0  0  0  0  0  0  0  0  0  0  0  0
  151.9867  140.7481  157.7108 O   0  0  0  0  0  0  0  0  0  0  0  0
  152.9501  140.5023  158.6187 C   0  0  0  0  0  0  0  0  0  0  0  0
  153.8122  139.6321  158.4800 O   0  0  0  0  0  0  0  0  0  0  0  0
  152.8639  141.3933  159.8116 C   0  0  0  0  0  0  0  0  0  0  0  0
  153.7813  141.2200  160.8741 C   0  0  0  0  0  0  0  0  0  0  0  0
  153.7239  142.0463  162.0133 C   0  0  0  0  0  0  0  0  0  0  0  0
  152.7480  143.0559  162.1040 C   0  0  0  0  0  0  0  0  0  0  0  0
  151.8306  143.2393  161.0532 C   0  0  0  0  0  0  0  0  0  0  0  0
  151.8866  142.4144  159.9127 C   0  0  0  0  0  0  0  0  0  0  0  0
  151.3040  138.8055  154.5241 C   0  0  2  0  0  0  0  0  0  0  0  0
  150.3867  139.5992  153.7935 O   0  0  0  0  0  0  0  0  0  0  0  0
  150.9411  137.3238  154.5478 C   0  0  2  0  0  0  0  0  0  0  0  0
  149.5359  137.1190  154.5244 O   0  0  0  0  0  0  0  0  0  0  0  0
  150.2633  134.7510  156.2192 C   0  0  0  0  0  0  0  0  0  0  0  0
  150.6222  134.4286  155.0863 O   0  0  0  0  0  0  0  0  0  0  0  0
  149.4550  133.9764  156.9966 N   0  5  0  0  0  0  0  0  0  0  0  0
  149.0486  134.3534  158.2429 C   0  0  0  0  0  0  0  0  0  0  0  0
  148.3194  133.6437  158.9349 O   0  0  0  0  0  0  0  0  0  0  0  0
  149.4628  137.0720  160.3988 H   0  0  0  0  0  0  0  0  0  0  0  0
  149.3931  135.3810  160.9000 H   0  0  0  0  0  0  0  0  0  0  0  0
  147.9684  136.1557  160.1927 H   0  0  0  0  0  0  0  0  0  0  0  0
  150.6372  137.3608  158.3710 H   0  0  0  0  0  0  0  0  0  0  0  0
  152.5170  136.2649  155.7006 H   0  0  0  0  0  0  0  0  0  0  0  0
  150.3512  139.2335  156.4234 H   0  0  0  0  0  0  0  0  0  0  0  0
  153.2438  140.1939  156.1877 H   0  0  0  0  0  0  0  0  0  0  0  0
  151.9069  141.2275  155.6987 H   0  0  0  0  0  0  0  0  0  0  0  0
  154.5389  140.4510  160.8277 H   0  0  0  0  0  0  0  0  0  0  0  0
  154.4301  141.9047  162.8183 H   0  0  0  0  0  0  0  0  0  0  0  0
  152.7039  143.6891  162.9778 H   0  0  0  0  0  0  0  0  0  0  0  0
  151.0821  144.0150  161.1208 H   0  0  0  0  0  0  0  0  0  0  0  0
  151.1687  142.5835  159.1234 H   0  0  0  0  0  0  0  0  0  0  0  0
  152.2971  138.9215  154.0873 H   0  0  0  0  0  0  0  0  0  0  0  0
  150.2131  139.1712  152.9693 H   0  0  0  0  0  0  0  0  0  0  0  0
  151.3802  136.7902  153.7042 H   0  0  0  0  0  0  0  0  0  0  0  0
  149.2598  137.0671  153.6215 H   0  0  0  0  0  0  0  0  0  0  0  0
  1  2  1  0  0  0  0
  1 27  1  0  0  0  0
  1 28  1  0  0  0  0
  1 29  1  0  0  0  0
  2 25  1  0  0  0  0
  2  3  2  0  0  0  0
  3  4  1  0  0  0  0
  3 30  1  0  0  0  0
  4  5  1  0  0  0  0
  4 22  1  0  0  0  0
  5 20  1  0  0  0  0
  5  6  1  0  0  0  0
  5 31  1  0  0  0  0
  6  7  1  0  0  0  0
  7  8  1  0  0  0  0
  7 18  1  0  0  0  0
  7 32  1  0  0  0  0
  8  9  1  0  0  0  0
  8 33  1  0  0  0  0
  8 34  1  0  0  0  0
  9 10  1  0  0  0  0
 10 11  2  0  0  0  0
 10 12  1  0  0  0  0
 12 17  1  0  0  0  0
 12 13  2  0  0  0  0
 13 14  1  0  0  0  0
 13 35  1  0  0  0  0
 14 15  2  0  0  0  0
 14 36  1  0  0  0  0
 15 16  1  0  0  0  0
 15 37  1  0  0  0  0
 16 17  2  0  0  0  0
 16 38  1  0  0  0  0
 17 39  1  0  0  0  0
 18 19  1  0  0  0  0
 18 20  1  0  0  0  0
 18 40  1  0  0  0  0
 19 41  1  0  0  0  0
 20 21  1  0  0  0  0
 20 42  1  0  0  0  0
 21 43  1  0  0  0  0
 22 23  2  0  0  0  0
 22 24  1  0  0  0  0
 24 25  1  0  0  0  0
 25 26  2  0  0  0  0
M  CHG  1  24  -1
M  END
> <s_m_source_file>
AV-unprocessed.smi

> <i_m_source_file_index>
101

> <i_lp_mmshare_version>
43012

> <i_f3d_flags>
0

> <s_epik_input>
Tz1jMVtuSF1jKD1PKW4oW2NIXWMxW0NIM10pW0NAQEhdMk9bQ0BIXShbQ0BASF0oW09IXSlbQ0BIXTJbT0hdKVtDSDJdT0MoPU8pYzNbY0hdW2NIXVtjSF1bY0hdW2NIXTM=

> <s_epik_cmdline>
J2VwaWtfcHl0aG9uJywgJy1waCcsICc3LjAnLCAnLXRuJywgJzgnLCAnLW1hJywgJzIwMCcsICctbWV0YWxfYmluZGluZycsICctaW1hZScsICc8aW5maWxlLm1hZT4nLCAnLW9tYWUnLCAnPG91dGZpbGUubWFlPic=

> <r_lp_tautomer_probability>
0.999537

> <r_epik_Ionization_Penalty>
3.21006

> <r_epik_Ionization_Penalty_Charging>
5.75142e-08

> <r_epik_Ionization_Penalty_Neutral>
3.21006

> <r_epik_State_Penalty>
3.20925

> <r_epik_Charging_Adjusted_Penalty>
3.20925

> <i_epik_Tot_Q>
-1

> <i_epik_Tot_abs_Q>
1

> <r_epik_Metal_State_Penalty>
0.119957

> <b_epik_Metal_Only>
1

> <s_epik_Chemistry_Notes>
This compound has an ester and may undergo hydrolysis at high or low pH. This compound contains an acetal/aminal-like group ( X-CH(R)-Y where X, Y are N, S, or O) that may be acid/base labile, releasing an aldehyde.

> <s_lp_Force_Field>
OPLS_2005

> <r_lp_Energy>
50.083

> <b_lp_Chiralities_Consistent>
1

> <s_lp_Variant>
AV-unprocessed.smi:101-29

> <Gold.Version>
5.8.1

> <Gold.Id.Protein>
6NUR|6NUR_protein|mol2

> <Gold.PLP.Fitness>
50.5197

> <Gold.PLP.PLP>
-41.7889

> <Gold.PLP.part.hbond>
-4.0000

> <Gold.PLP.part.metal>
0.0000

> <Gold.PLP.part.buried>
-3.0829

> <Gold.PLP.part.nonpolar>
-32.7624

> <Gold.PLP.part.repulsive>
0.0934

> <Gold.PLP.ligand.clash>
0.0000

> <Gold.PLP.ligand.torsion>
0.7673

> <Gold.PLP.Chemscore.Hbond>
3.3559

> <Gold.PLP.Chemscore.CHOScore>
0.0000

> <Gold.PLP.Chemscore.Metal>
0.0000

> <Gold.Chemscore.Hbonds>
donor molecule, donor type, donor heavy atom, donor atom, acceptor molecule, acceptor atom, score
      L1  H    19    41       P1  7957  0.51
      L1  H    21    43       P1  7948  1.00
      P1  H  7989  7998       L1    19  0.64
      P1  H  7997  8009       L1    11  1.00

> <Gold.PLP.Chemscore.Internal.Correction>
0.1977

> <Gold.Rescore>
     Score         DG    S(hbond)    S(metal)    S(lipo)     H(rot)  DE(clash)    DE(int)     intcor
     12.75     -15.89       2.09        0.00     100.86       3.27       0.13       3.00       ----

> <Gold.Chemscore.Fitness>
12.7509

> <Gold.Chemscore.DG>
-15.8855

> <Gold.Chemscore.ZeroCoef>
-5.4800

> <Gold.Chemscore.Hbond>
2.0854

> <Gold.Chemscore.Metal>
0.0000

> <Gold.Chemscore.Lipo>
100.8564

> <Gold.Chemscore.Internal_Hbond>
0.0000

> <Gold.Chemscore.DEClash>
0.1345

> <Gold.Chemscore.DEInternal>
3.0001

> <Gold.Chemscore.Rot>
3.2656

> <Gold.Chemscore.Internal.Correction>
   9.000000E+99

> <Gold.Chemscore.Hbonds>
donor molecule, donor type, donor heavy atom, donor atom, acceptor molecule, acceptor atom, score
      L1  H    19    41       P1  7957  0.41
      L1  H    21    43       P1  7948  0.96
      P1  H  7989  7998       L1    19  0.03
      P1  H  7997  8009       L1    11  0.82

> <Gold.Chemscore.Hbond.Weighted>
-6.9652

> <Gold.Chemscore.Metal.Weighted>
-0.0000

> <Gold.Chemscore.Lipo.Weighted>
-11.8002

> <Gold.Chemscore.Internal_Hbond.Weighted>
0.0000

> <Gold.Chemscore.DEClash.Weighted>
0.1345

> <Gold.Chemscore.DEInternal.Weighted>
3.0001

> <Gold.Chemscore.Rot.Weighted>
8.3598

> <Gold.Chemscore.Internal.Correction.Weighted>
   9.000000E+99

> <Gold.Protein.RotatedTorsions>
[ 6907 6896 6895 6894 ] final -137.46 input  -60.11 | X-H torsion
[ 7974 7965 7964 7962 ] final  169.82 input  175.53 | X-H torsion
[ 8008 7997 7996 7995 ] final  131.70 input   59.86 | X-H torsion
[ 10167 10162 10161 10158 ] final -179.71 input  -65.29 | X-H torsion
[ 10718 10713 10712 10709 ] final   86.62 input   66.30 | X-H torsion
[ 10763 10752 10751 10750 ] final   74.31 input  -60.55 | X-H torsion
[ 11005 11000 10999 10996 ] final   38.95 input  -57.11 | X-H torsion

> <Gold.Protein.ActiveResidues>
 VAL166  LYS551  ARG553  GLY616  TRP617  ASP618  TYR619  PRO620  LYS621  CYS622 
 ASP623  PHE694  ASN695  SER759  ASP760  ASP761  ALA762  ILE779  LEU786  VAL792 
 PHE793  MET794  SER795  GLU796  ALA797  LYS798  CYS799  TRP800  GLU811  SER814 

> <Gold.Protein.RotatedAtoms>
  151.0228  133.5861  159.2669 H   0  0  0  0  0  0  0  0  0  0  0  0  # atno 6907 bound_to 6896
  151.2972  135.0757  159.9235 H   0  0  0  0  0  0  0  0  0  0  0  0  # atno 6908 bound_to 6896
  152.5327  133.9916  159.7907 H   0  0  0  0  0  0  0  0  0  0  0  0  # atno 6909 bound_to 6896
  144.7343  139.9111  143.6415 H   0  0  0  0  0  0  0  0  0  0  0  0  # atno 7974 bound_to 7965
  156.2973  140.2565  156.2968 H   0  0  0  0  0  0  0  0  0  0  0  0  # atno 8008 bound_to 7997
  154.9456  140.0395  157.2137 H   0  0  0  0  0  0  0  0  0  0  0  0  # atno 8009 bound_to 7997
  154.8085  140.2840  155.5874 H   0  0  0  0  0  0  0  0  0  0  0  0  # atno 8010 bound_to 7997
  139.5374  144.2459  152.0823 H   0  0  0  0  0  0  0  0  0  0  0  0  # atno 10167 bound_to 10162
  157.6931  131.0223  150.3000 H   0  0  0  0  0  0  0  0  0  0  0  0  # atno 10718 bound_to 10713
  153.0579  135.5030  154.8024 H   0  0  0  0  0  0  0  0  0  0  0  0  # atno 10763 bound_to 10752
  154.6836  135.2972  154.9581 H   0  0  0  0  0  0  0  0  0  0  0  0  # atno 10764 bound_to 10752
  154.0359  135.6723  153.4838 H   0  0  0  0  0  0  0  0  0  0  0  0  # atno 10765 bound_to 10752
  140.2076  134.3794  155.8065 H   0  0  0  0  0  0  0  0  0  0  0  0  # atno 11005 bound_to 11000
  146.1000  139.3995  143.0353 LP  0  0  0  0  0  0  0  0  0  0  0  0  # atno 17320 bound_to 7965
  145.7592  140.9942  143.1209 LP  0  0  0  0  0  0  0  0  0  0  0  0  # atno 17321 bound_to 7965
  140.1932  144.4731  150.6468 LP  0  0  0  0  0  0  0  0  0  0  0  0  # atno 17342 bound_to 10162
  140.6587  143.2245  151.5907 LP  0  0  0  0  0  0  0  0  0  0  0  0  # atno 17343 bound_to 10162
  156.3518  130.3832  149.7323 LP  0  0  0  0  0  0  0  0  0  0  0  0  # atno 17370 bound_to 10713
  156.4798  130.8036  151.3050 LP  0  0  0  0  0  0  0  0  0  0  0  0  # atno 17371 bound_to 10713
  141.2227  133.7126  156.8363 LP  0  0  0  0  0  0  0  0  0  0  0  0  # atno 17394 bound_to 11000
  140.1986  134.8914  157.3143 LP  0  0  0  0  0  0  0  0  0  0  0  0  # atno 17395 bound_to 11000

$$$$
