AV-unprocessed.smi:976|AV-procd|sdf|4302|dock4
  -GOLD-   22720 2203D 1   1.00000     0.00000
 Structure written by MMmdl.
 41 42  0  0  0  0  0  0  0  0  1 V2000
  152.2810  137.0986  159.5834 C   0  0  0  0  0  0  0  0  0  0  0  0
  153.6293  137.8284  159.6745 C   0  0  2  0  0  0  0  0  0  0  0  0
  154.3258  137.3047  160.8028 O   0  0  0  0  0  0  0  0  0  0  0  0
  153.5719  137.2259  162.0087 C   0  0  0  0  0  0  0  0  0  0  0  0
  154.4662  136.6901  163.1332 C   0  0  0  0  0  0  0  0  0  0  0  0
  155.5205  137.4925  163.2748 F   0  0  0  0  0  0  0  0  0  0  0  0
  153.7938  136.6608  164.2835 F   0  0  0  0  0  0  0  0  0  0  0  0
  154.8980  135.4651  162.8348 F   0  0  0  0  0  0  0  0  0  0  0  0
  153.4358  139.3465  159.8216 C   0  0  0  0  0  0  0  0  0  0  0  0
  153.9073  139.9324  160.7961 O   0  0  0  0  0  0  0  0  0  0  0  0
  152.7373  139.9428  158.8387 N   0  0  0  0  0  0  0  0  0  0  0  0
  152.3981  141.3194  158.7064 C   0  0  0  0  0  0  0  0  0  0  0  0
  152.8274  142.2974  159.6361 C   0  0  0  0  0  0  0  0  0  0  0  0
  152.4973  143.6465  159.4154 C   0  0  0  0  0  0  0  0  0  0  0  0
  151.7579  143.9731  158.2653 C   0  0  0  0  0  0  0  0  0  0  0  0
  151.3545  143.0561  157.3628 N   0  0  0  0  0  0  0  0  0  0  0  0
  151.6651  141.7527  157.5685 C   0  0  0  0  0  0  0  0  0  0  0  0
  151.2091  140.8193  156.6161 N   0  0  0  0  0  0  0  0  0  0  0  0
  150.1751  141.3458  155.7328 C   0  0  0  0  0  0  0  0  0  0  0  0
  149.5533  140.2027  154.9132 C   0  0  0  0  0  0  0  0  0  0  0  0
  150.5760  139.5092  154.2035 O   0  0  0  0  0  0  0  0  0  0  0  0
  151.5433  138.9353  155.0785 C   0  0  0  0  0  0  0  0  0  0  0  0
  152.2194  140.0464  155.9001 C   0  0  0  0  0  0  0  0  0  0  0  0
  151.6891  137.4627  158.7430 H   0  0  0  0  0  0  0  0  0  0  0  0
  151.6910  137.2293  160.4915 H   0  0  0  0  0  0  0  0  0  0  0  0
  152.4307  136.0282  159.4411 H   0  0  0  0  0  0  0  0  0  0  0  0
  154.1962  137.6120  158.7666 H   0  0  0  0  0  0  0  0  0  0  0  0
  153.1948  138.2138  162.2768 H   0  0  0  0  0  0  0  0  0  0  0  0
  152.7092  136.5694  161.8892 H   0  0  0  0  0  0  0  0  0  0  0  0
  152.3243  139.3281  158.1522 H   0  0  0  0  0  0  0  0  0  0  0  0
  153.4193  142.0394  160.5007 H   0  0  0  0  0  0  0  0  0  0  0  0
  152.8119  144.4134  160.1075 H   0  0  0  0  0  0  0  0  0  0  0  0
  151.4882  144.9986  158.0608 H   0  0  0  0  0  0  0  0  0  0  0  0
  149.3993  141.8591  156.3009 H   0  0  0  0  0  0  0  0  0  0  0  0
  150.6202  142.0844  155.0649 H   0  0  0  0  0  0  0  0  0  0  0  0
  149.0116  139.5113  155.5608 H   0  0  0  0  0  0  0  0  0  0  0  0
  148.8331  140.6015  154.1990 H   0  0  0  0  0  0  0  0  0  0  0  0
  151.0688  138.2014  155.7320 H   0  0  0  0  0  0  0  0  0  0  0  0
  152.2858  138.4012  154.4856 H   0  0  0  0  0  0  0  0  0  0  0  0
  152.7835  140.7026  155.2357 H   0  0  0  0  0  0  0  0  0  0  0  0
  152.9263  139.6116  156.6078 H   0  0  0  0  0  0  0  0  0  0  0  0
  1  2  1  0  0  0  0
  1 24  1  0  0  0  0
  1 25  1  0  0  0  0
  1 26  1  0  0  0  0
  2  3  1  0  0  0  0
  2  9  1  0  0  0  0
  2 27  1  0  0  0  0
  3  4  1  0  0  0  0
  4  5  1  0  0  0  0
  4 28  1  0  0  0  0
  4 29  1  0  0  0  0
  5  6  1  0  0  0  0
  5  7  1  0  0  0  0
  5  8  1  0  0  0  0
  9 10  2  0  0  0  0
  9 11  1  0  0  0  0
 11 12  1  0  0  0  0
 11 30  1  0  0  0  0
 12 17  1  0  0  0  0
 12 13  2  0  0  0  0
 13 14  1  0  0  0  0
 13 31  1  0  0  0  0
 14 15  2  0  0  0  0
 14 32  1  0  0  0  0
 15 16  1  0  0  0  0
 15 33  1  0  0  0  0
 16 17  2  0  0  0  0
 17 18  1  0  0  0  0
 18 23  1  0  0  0  0
 18 19  1  0  0  0  0
 19 20  1  0  0  0  0
 19 34  1  0  0  0  0
 19 35  1  0  0  0  0
 20 21  1  0  0  0  0
 20 36  1  0  0  0  0
 20 37  1  0  0  0  0
 21 22  1  0  0  0  0
 22 23  1  0  0  0  0
 22 38  1  0  0  0  0
 22 39  1  0  0  0  0
 23 40  1  0  0  0  0
 23 41  1  0  0  0  0
M  END
> <s_m_source_file>
AV-unprocessed.smi

> <i_m_source_file_index>
976

> <i_lp_mmshare_version>
43012

> <i_f3d_flags>
0

> <s_epik_input>
RkMoRikoRilbQ0gyXU9bQ0BASF0oW0NIM10pQyg9TylbTkhdYzFbY0hdW2NIXVtjSF1uYzFOMltDSDJdW0NIMl1PW0NIMl1bQ0gyXTI=

> <s_epik_cmdline>
J2VwaWtfcHl0aG9uJywgJy1waCcsICc3LjAnLCAnLXRuJywgJzgnLCAnLW1hJywgJzIwMCcsICctbWV0YWxfYmluZGluZycsICctaW1hZScsICc8aW5maWxlLm1hZT4nLCAnLW9tYWUnLCAnPG91dGZpbGUubWFlPic=

> <r_lp_tautomer_probability>
1

> <r_epik_Ionization_Penalty>
0.000443367

> <r_epik_Ionization_Penalty_Charging>
0

> <r_epik_Ionization_Penalty_Neutral>
0.000443367

> <r_epik_State_Penalty>
0.00027288

> <r_epik_Charging_Adjusted_Penalty>
0.00027288

> <i_epik_Tot_Q>
0

> <i_epik_Tot_abs_Q>
0

> <r_epik_Metal_State_Penalty>
-0

> <b_epik_Metal_Only>
0

> <s_lp_Force_Field>
OPLS_2005

> <r_lp_Energy>
26.1193

> <b_lp_Chiralities_Consistent>
1

> <s_lp_Variant>
AV-unprocessed.smi:976-1

> <Gold.Version>
5.8.1

> <Gold.Id.Protein>
6NUR|6NUR_protein|mol2

> <Gold.PLP.Fitness>
44.7383

> <Gold.PLP.PLP>
-42.4868

> <Gold.PLP.part.hbond>
-1.0000

> <Gold.PLP.part.metal>
0.0000

> <Gold.PLP.part.buried>
-3.0379

> <Gold.PLP.part.nonpolar>
-38.9903

> <Gold.PLP.part.repulsive>
0.3912

> <Gold.PLP.ligand.clash>
0.4744

> <Gold.PLP.ligand.torsion>
0.2998

> <Gold.PLP.Chemscore.Hbond>
1.0000

> <Gold.PLP.Chemscore.CHOScore>
0.0000

> <Gold.PLP.Chemscore.Metal>
0.0000

> <Gold.Chemscore.Hbonds>
donor molecule, donor type, donor heavy atom, donor atom, acceptor molecule, acceptor atom, score
      P1  H  7989  7998       L1    21  0.95

> <Gold.PLP.Chemscore.Internal.Correction>
0.3256

> <Gold.Rescore>
     Score         DG    S(hbond)    S(metal)    S(lipo)     H(rot)  DE(clash)    DE(int)     intcor
      8.51     -12.79       0.29        0.00      96.78       1.95       0.35       3.93       ----

> <Gold.Chemscore.Fitness>
8.5082

> <Gold.Chemscore.DG>
-12.7907

> <Gold.Chemscore.ZeroCoef>
-5.4800

> <Gold.Chemscore.Hbond>
0.2924

> <Gold.Chemscore.Metal>
0.0000

> <Gold.Chemscore.Lipo>
96.7832

> <Gold.Chemscore.Internal_Hbond>
0.0000

> <Gold.Chemscore.DEClash>
0.3477

> <Gold.Chemscore.DEInternal>
3.9348

> <Gold.Chemscore.Rot>
1.9491

> <Gold.Chemscore.Internal.Correction>
   9.000000E+99

> <Gold.Chemscore.Hbonds>
donor molecule, donor type, donor heavy atom, donor atom, acceptor molecule, acceptor atom, score
      P1  H  7989  7998       L1    21  0.10

> <Gold.Chemscore.Hbond.Weighted>
-0.9767

> <Gold.Chemscore.Metal.Weighted>
-0.0000

> <Gold.Chemscore.Lipo.Weighted>
-11.3236

> <Gold.Chemscore.Internal_Hbond.Weighted>
0.0000

> <Gold.Chemscore.DEClash.Weighted>
0.3477

> <Gold.Chemscore.DEInternal.Weighted>
3.9348

> <Gold.Chemscore.Rot.Weighted>
4.9897

> <Gold.Chemscore.Internal.Correction.Weighted>
   9.000000E+99

> <Gold.Protein.RotatedTorsions>
[ 6907 6896 6895 6894 ] final  -20.27 input  -60.11 | X-H torsion
[ 7974 7965 7964 7962 ] final   85.71 input  175.53 | X-H torsion
[ 8008 7997 7996 7995 ] final  176.08 input   59.86 | X-H torsion
[ 10167 10162 10161 10158 ] final -149.32 input  -65.29 | X-H torsion
[ 10718 10713 10712 10709 ] final -105.88 input   66.30 | X-H torsion
[ 10763 10752 10751 10750 ] final  108.86 input  -60.55 | X-H torsion
[ 11005 11000 10999 10996 ] final -120.29 input  -57.11 | X-H torsion

> <Gold.Protein.ActiveResidues>
 VAL166  LYS551  ARG553  GLY616  TRP617  ASP618  TYR619  PRO620  LYS621  CYS622 
 ASP623  PHE694  ASN695  SER759  ASP760  ASP761  ALA762  ILE779  LEU786  VAL792 
 PHE793  MET794  SER795  GLU796  ALA797  LYS798  CYS799  TRP800  GLU811  SER814 

> <Gold.Protein.RotatedAtoms>
  151.2507  135.0621  159.9060 H   0  0  0  0  0  0  0  0  0  0  0  0  # atno 6907 bound_to 6896
  152.5380  134.0335  159.8045 H   0  0  0  0  0  0  0  0  0  0  0  0  # atno 6908 bound_to 6896
  151.0543  133.5548  159.2671 H   0  0  0  0  0  0  0  0  0  0  0  0  # atno 6909 bound_to 6896
  145.5818  139.2326  143.2348 H   0  0  0  0  0  0  0  0  0  0  0  0  # atno 7974 bound_to 7965
  156.0802  140.1392  156.9721 H   0  0  0  0  0  0  0  0  0  0  0  0  # atno 8008 bound_to 7997
  154.4581  140.0953  156.6864 H   0  0  0  0  0  0  0  0  0  0  0  0  # atno 8009 bound_to 7997
  155.5087  140.3453  155.4386 H   0  0  0  0  0  0  0  0  0  0  0  0  # atno 8010 bound_to 7997
  139.7452  143.8601  152.2573 H   0  0  0  0  0  0  0  0  0  0  0  0  # atno 10167 bound_to 10162
  156.0365  130.5585  150.7601 H   0  0  0  0  0  0  0  0  0  0  0  0  # atno 10718 bound_to 10713
  153.4266  135.3798  155.2145 H   0  0  0  0  0  0  0  0  0  0  0  0  # atno 10763 bound_to 10752
  154.8748  135.3830  154.4318 H   0  0  0  0  0  0  0  0  0  0  0  0  # atno 10764 bound_to 10752
  153.4845  135.7088  153.5982 H   0  0  0  0  0  0  0  0  0  0  0  0  # atno 10765 bound_to 10752
  141.0154  134.0202  157.3356 H   0  0  0  0  0  0  0  0  0  0  0  0  # atno 11005 bound_to 11000
  146.1710  140.6645  142.9233 LP  0  0  0  0  0  0  0  0  0  0  0  0  # atno 17320 bound_to 7965
  144.7390  140.4890  143.6883 LP  0  0  0  0  0  0  0  0  0  0  0  0  # atno 17321 bound_to 7965
  139.8563  144.7139  150.9153 LP  0  0  0  0  0  0  0  0  0  0  0  0  # atno 17342 bound_to 10162
  140.7791  143.3856  151.1400 LP  0  0  0  0  0  0  0  0  0  0  0  0  # atno 17343 bound_to 10162
  157.5123  131.0926  151.0183 LP  0  0  0  0  0  0  0  0  0  0  0  0  # atno 17370 bound_to 10713
  157.0535  130.5797  149.5374 LP  0  0  0  0  0  0  0  0  0  0  0  0  # atno 17371 bound_to 10713
  139.9114  135.0190  156.7707 LP  0  0  0  0  0  0  0  0  0  0  0  0  # atno 17394 bound_to 11000
  140.6663  133.9600  155.7832 LP  0  0  0  0  0  0  0  0  0  0  0  0  # atno 17395 bound_to 11000

$$$$
