AV-unprocessed.smi:1088|AV-procd|sdf|4732|dock9
  -GOLD-   22720 3263D 1   1.00000     0.00000
 Structure written by MMmdl.
 47 48  0  0  0  0  0  0  0  0  1 V2000
  157.2191  140.4506  159.4010 C   0  0  0  0  0  0  0  0  0  0  0  0
  155.8553  140.1483  159.1680 O   0  0  0  0  0  0  0  0  0  0  0  0
  154.9793  140.9599  159.9339 C   0  0  0  0  0  0  0  0  0  0  0  0
  153.5904  140.3076  160.0138 C   0  0  0  0  0  0  0  0  0  0  0  0
  152.7287  140.4042  158.8282 N   0  0  0  0  0  0  0  0  0  0  0  0
  152.2509  141.7684  158.6787 C   0  0  0  0  0  0  0  0  0  0  0  0
  151.0850  141.7199  157.6988 C   0  0  0  0  0  0  0  0  0  0  0  0
  150.5423  140.2986  157.8611 C   0  0  0  0  0  0  0  0  0  0  0  0
  151.4972  139.6108  158.8588 C   0  0  1  0  0  0  0  0  0  0  0  0
  151.6491  138.1035  158.5486 C   0  0  0  0  0  0  0  0  0  0  0  0
  150.3592  137.4199  158.5747 N   0  0  0  0  0  0  0  0  0  0  0  0
  150.1549  136.1159  158.3350 C   0  0  0  0  0  0  0  0  0  0  0  0
  151.0570  135.3290  158.0449 O   0  0  0  0  0  0  0  0  0  0  0  0
  148.6969  135.6429  158.4147 C   0  0  0  0  0  0  0  0  0  0  0  0
  148.3253  135.1310  159.7400 N   0  0  0  0  0  0  0  0  0  0  0  0
  147.8385  133.8428  159.8660 C   0  0  0  0  0  0  0  0  0  0  0  0
  147.4828  133.2932  161.0476 C   0  0  0  0  0  0  0  0  0  0  0  0
  147.5936  134.0488  162.2895 C   0  0  0  0  0  0  0  0  0  0  0  0
  147.2937  133.5796  163.3878 O   0  0  0  0  0  0  0  0  0  0  0  0
  148.0841  135.3673  162.1306 N   0  0  0  0  0  0  0  0  0  0  0  0
  148.2457  136.2011  163.3034 C   0  0  0  0  0  0  0  0  0  0  0  0
  148.4668  135.9316  160.8936 C   0  0  0  0  0  0  0  0  0  0  0  0
  148.9134  137.0786  160.8122 O   0  0  0  0  0  0  0  0  0  0  0  0
  157.8468  139.8085  158.7832 H   0  0  0  0  0  0  0  0  0  0  0  0
  157.4867  140.2793  160.4445 H   0  0  0  0  0  0  0  0  0  0  0  0
  157.4435  141.4873  159.1466 H   0  0  0  0  0  0  0  0  0  0  0  0
  155.3781  141.1468  160.9295 H   0  0  0  0  0  0  0  0  0  0  0  0
  154.8863  141.9396  159.4629 H   0  0  0  0  0  0  0  0  0  0  0  0
  153.6987  139.2651  160.3163 H   0  0  0  0  0  0  0  0  0  0  0  0
  153.0719  140.7975  160.8393 H   0  0  0  0  0  0  0  0  0  0  0  0
  151.8903  142.1454  159.6374 H   0  0  0  0  0  0  0  0  0  0  0  0
  153.0443  142.4357  158.3404 H   0  0  0  0  0  0  0  0  0  0  0  0
  150.3370  142.4831  157.9152 H   0  0  0  0  0  0  0  0  0  0  0  0
  151.4399  141.8730  156.6788 H   0  0  0  0  0  0  0  0  0  0  0  0
  149.5154  140.2929  158.2284 H   0  0  0  0  0  0  0  0  0  0  0  0
  150.5477  139.7989  156.8914 H   0  0  0  0  0  0  0  0  0  0  0  0
  151.0537  139.7130  159.8510 H   0  0  0  0  0  0  0  0  0  0  0  0
  152.1584  137.9657  157.5934 H   0  0  0  0  0  0  0  0  0  0  0  0
  152.2614  137.5992  159.2880 H   0  0  0  0  0  0  0  0  0  0  0  0
  149.5542  137.9867  158.7982 H   0  0  0  0  0  0  0  0  0  0  0  0
  148.0285  136.4577  158.1299 H   0  0  0  0  0  0  0  0  0  0  0  0
  148.5516  134.8666  157.6622 H   0  0  0  0  0  0  0  0  0  0  0  0
  147.7417  133.2396  158.9751 H   0  0  0  0  0  0  0  0  0  0  0  0
  147.1137  132.2785  161.0750 H   0  0  0  0  0  0  0  0  0  0  0  0
  147.8161  137.1800  163.0829 H   0  0  0  0  0  0  0  0  0  0  0  0
  149.3170  136.2695  163.4988 H   0  0  0  0  0  0  0  0  0  0  0  0
  147.7225  135.7771  164.1600 H   0  0  0  0  0  0  0  0  0  0  0  0
  1  2  1  0  0  0  0
  1 24  1  0  0  0  0
  1 25  1  0  0  0  0
  1 26  1  0  0  0  0
  2  3  1  0  0  0  0
  3  4  1  0  0  0  0
  3 27  1  0  0  0  0
  3 28  1  0  0  0  0
  4  5  1  0  0  0  0
  4 29  1  0  0  0  0
  4 30  1  0  0  0  0
  5  9  1  0  0  0  0
  5  6  1  0  0  0  0
  6  7  1  0  0  0  0
  6 31  1  0  0  0  0
  6 32  1  0  0  0  0
  7  8  1  0  0  0  0
  7 33  1  0  0  0  0
  7 34  1  0  0  0  0
  8  9  1  0  0  0  0
  8 35  1  0  0  0  0
  8 36  1  0  0  0  0
  9 10  1  0  0  0  0
  9 37  1  0  0  0  0
 10 11  1  0  0  0  0
 10 38  1  0  0  0  0
 10 39  1  0  0  0  0
 11 12  1  0  0  0  0
 11 40  1  0  0  0  0
 12 13  2  0  0  0  0
 12 14  1  0  0  0  0
 14 15  1  0  0  0  0
 14 41  1  0  0  0  0
 14 42  1  0  0  0  0
 15 22  1  0  0  0  0
 15 16  1  0  0  0  0
 16 17  2  0  0  0  0
 16 43  1  0  0  0  0
 17 18  1  0  0  0  0
 17 44  1  0  0  0  0
 18 19  2  0  0  0  0
 18 20  1  0  0  0  0
 20 21  1  0  0  0  0
 20 22  1  0  0  0  0
 21 45  1  0  0  0  0
 21 46  1  0  0  0  0
 21 47  1  0  0  0  0
 22 23  2  0  0  0  0
M  END
> <s_m_source_file>
AV-unprocessed.smi

> <i_m_source_file_index>
1088

> <i_lp_mmshare_version>
43012

> <i_f3d_flags>
0

> <s_epik_input>
W0NIM11PW0NIMl1bQ0gyXU4xW0NIMl1bQ0gyXVtDSDJdW0NASF0xW0NIMl1bTkhdQyg9TylbQ0gyXW4yW2NIXVtjSF1jKD1PKW4oW0NIM10pYzI9Tw==

> <s_epik_cmdline>
J2VwaWtfcHl0aG9uJywgJy1waCcsICc3LjAnLCAnLXRuJywgJzgnLCAnLW1hJywgJzIwMCcsICctbWV0YWxfYmluZGluZycsICctaW1hZScsICc8aW5maWxlLm1hZT4nLCAnLW9tYWUnLCAnPG91dGZpbGUubWFlPic=

> <r_lp_tautomer_probability>
1

> <r_epik_Ionization_Penalty>
2.28131

> <r_epik_Ionization_Penalty_Charging>
1.22971e-08

> <r_epik_Ionization_Penalty_Neutral>
2.28131

> <r_epik_State_Penalty>
2.43063

> <r_epik_Charging_Adjusted_Penalty>
2.43063

> <i_epik_Tot_Q>
0

> <i_epik_Tot_abs_Q>
0

> <r_epik_Metal_State_Penalty>
2.43056

> <b_epik_Metal_Only>
0

> <s_lp_Force_Field>
OPLS_2005

> <r_lp_Energy>
52.4092

> <b_lp_Chiralities_Consistent>
1

> <s_lp_Variant>
AV-unprocessed.smi:1088-5

> <Gold.Version>
5.8.1

> <Gold.Id.Protein>
6NUR|6NUR_protein|mol2

> <Gold.PLP.Fitness>
43.9081

> <Gold.PLP.PLP>
-36.9231

> <Gold.PLP.part.hbond>
-4.7295

> <Gold.PLP.part.metal>
0.0000

> <Gold.PLP.part.buried>
-4.6381

> <Gold.PLP.part.nonpolar>
-29.0717

> <Gold.PLP.part.repulsive>
0.1603

> <Gold.PLP.ligand.clash>
0.0000

> <Gold.PLP.ligand.torsion>
0.5816

> <Gold.PLP.Chemscore.Hbond>
2.6992

> <Gold.PLP.Chemscore.CHOScore>
0.0000

> <Gold.PLP.Chemscore.Metal>
0.0000

> <Gold.Chemscore.Hbonds>
donor molecule, donor type, donor heavy atom, donor atom, acceptor molecule, acceptor atom, score
      P1  H  6896  6908       L1    13  0.03
      P1  H  6931  6943       L1    23  0.82
      P1  H  7997  8010       L1     2  0.83

> <Gold.PLP.Chemscore.Internal.Correction>
0.0506

> <Gold.Rescore>
     Score         DG    S(hbond)    S(metal)    S(lipo)     H(rot)  DE(clash)    DE(int)     intcor
     16.26     -16.91       2.88        0.00      69.89       2.49       0.08       0.57       ----

> <Gold.Chemscore.Fitness>
16.2575

> <Gold.Chemscore.DG>
-16.9060

> <Gold.Chemscore.ZeroCoef>
-5.4800

> <Gold.Chemscore.Hbond>
2.8842

> <Gold.Chemscore.Metal>
0.0000

> <Gold.Chemscore.Lipo>
69.8863

> <Gold.Chemscore.Internal_Hbond>
0.0000

> <Gold.Chemscore.DEClash>
0.0811

> <Gold.Chemscore.DEInternal>
0.5674

> <Gold.Chemscore.Rot>
2.4938

> <Gold.Chemscore.Internal.Correction>
   9.000000E+99

> <Gold.Chemscore.Hbonds>
donor molecule, donor type, donor heavy atom, donor atom, acceptor molecule, acceptor atom, score
      P1  H  6931  6943       L1    23  0.80
      P1  H  7997  8010       L1     2  0.61

> <Gold.Chemscore.Hbond.Weighted>
-9.6334

> <Gold.Chemscore.Metal.Weighted>
-0.0000

> <Gold.Chemscore.Lipo.Weighted>
-8.1767

> <Gold.Chemscore.Internal_Hbond.Weighted>
0.0000

> <Gold.Chemscore.DEClash.Weighted>
0.0811

> <Gold.Chemscore.DEInternal.Weighted>
0.5674

> <Gold.Chemscore.Rot.Weighted>
6.3841

> <Gold.Chemscore.Internal.Correction.Weighted>
   9.000000E+99

> <Gold.Protein.RotatedTorsions>
[ 6907 6896 6895 6894 ] final -163.43 input  -60.11 | X-H torsion
[ 7974 7965 7964 7962 ] final  -97.72 input  175.53 | X-H torsion
[ 8008 7997 7996 7995 ] final   -8.14 input   59.86 | X-H torsion
[ 10167 10162 10161 10158 ] final  177.94 input  -65.29 | X-H torsion
[ 10718 10713 10712 10709 ] final  -28.00 input   66.30 | X-H torsion
[ 10763 10752 10751 10750 ] final   38.95 input  -60.55 | X-H torsion
[ 11005 11000 10999 10996 ] final -113.32 input  -57.11 | X-H torsion

> <Gold.Protein.ActiveResidues>
 VAL166  LYS551  ARG553  GLY616  TRP617  ASP618  TYR619  PRO620  LYS621  CYS622 
 ASP623  PHE694  ASN695  SER759  ASP760  ASP761  ALA762  ILE779  LEU786  VAL792 
 PHE793  MET794  SER795  GLU796  ALA797  LYS798  CYS799  TRP800  GLU811  SER814 

> <Gold.Protein.RotatedAtoms>
  151.3960  133.3773  159.2726 H   0  0  0  0  0  0  0  0  0  0  0  0  # atno 6907 bound_to 6896
  150.9469  134.8874  159.7658 H   0  0  0  0  0  0  0  0  0  0  0  0  # atno 6908 bound_to 6896
  152.5095  134.3913  159.9437 H   0  0  0  0  0  0  0  0  0  0  0  0  # atno 6909 bound_to 6896
  145.3300  140.9439  143.2667 H   0  0  0  0  0  0  0  0  0  0  0  0  # atno 7974 bound_to 7965
  154.5770  140.2389  155.8109 H   0  0  0  0  0  0  0  0  0  0  0  0  # atno 8008 bound_to 7997
  156.2150  140.3015  155.9776 H   0  0  0  0  0  0  0  0  0  0  0  0  # atno 8009 bound_to 7997
  155.2610  140.0414  157.2988 H   0  0  0  0  0  0  0  0  0  0  0  0  # atno 8010 bound_to 7997
  139.5273  144.2739  152.0605 H   0  0  0  0  0  0  0  0  0  0  0  0  # atno 10167 bound_to 10162
  156.4309  130.4445  149.7118 H   0  0  0  0  0  0  0  0  0  0  0  0  # atno 10718 bound_to 10713
  152.9983  135.6235  154.2387 H   0  0  0  0  0  0  0  0  0  0  0  0  # atno 10763 bound_to 10752
  154.2127  135.2799  155.2954 H   0  0  0  0  0  0  0  0  0  0  0  0  # atno 10764 bound_to 10752
  154.5593  135.5710  153.7051 H   0  0  0  0  0  0  0  0  0  0  0  0  # atno 10765 bound_to 10752
  141.0621  133.9518  157.2646 H   0  0  0  0  0  0  0  0  0  0  0  0  # atno 11005 bound_to 11000
  144.8872  139.4824  143.6695 LP  0  0  0  0  0  0  0  0  0  0  0  0  # atno 17320 bound_to 7965
  146.3049  139.7548  142.9063 LP  0  0  0  0  0  0  0  0  0  0  0  0  # atno 17321 bound_to 7965
  140.2197  144.4479  150.6347 LP  0  0  0  0  0  0  0  0  0  0  0  0  # atno 17342 bound_to 10162
  140.6426  143.2207  151.6256 LP  0  0  0  0  0  0  0  0  0  0  0  0  # atno 17343 bound_to 10162
  156.4021  130.7680  151.2688 LP  0  0  0  0  0  0  0  0  0  0  0  0  # atno 17370 bound_to 10713
  157.7508  131.0237  150.3844 LP  0  0  0  0  0  0  0  0  0  0  0  0  # atno 17371 bound_to 10713
  139.9443  135.0186  156.8803 LP  0  0  0  0  0  0  0  0  0  0  0  0  # atno 17394 bound_to 11000
  140.5847  134.0319  155.7477 LP  0  0  0  0  0  0  0  0  0  0  0  0  # atno 17395 bound_to 11000

$$$$
