AV-unprocessed.smi:1090|AV-procd|sdf|4735|dock3
  -GOLD-   22720 3273D 1   1.00000     0.00000
 Structure written by MMmdl.
 38 40  0  0  0  0  0  0  0  0  1 V2000
  152.1833  139.6076  158.3723 O   0  0  0  0  0  0  0  0  0  0  0  0
  152.2478  140.7947  158.0530 C   0  0  0  0  0  0  0  0  0  0  0  0
  153.2020  141.7381  158.7894 C   0  0  0  0  0  0  0  0  0  0  0  0
  152.4932  142.6685  159.8003 C   0  0  0  0  0  0  0  0  0  0  0  0
  152.8779  144.1324  159.6277 C   0  0  0  0  0  0  0  0  0  0  0  0
  151.8528  145.2344  159.7605 C   0  0  0  0  0  0  0  0  0  0  0  0
  152.4587  144.9260  158.4111 C   0  0  0  0  0  0  0  0  0  0  0  0
  152.7729  142.2096  161.2210 C   0  0  0  0  0  0  0  0  0  0  0  0
  153.1856  143.1914  162.2909 C   0  0  0  0  0  0  0  0  0  0  0  0
  154.1769  142.1716  161.7752 C   0  0  0  0  0  0  0  0  0  0  0  0
  151.5071  141.3376  157.0751 N   0  0  0  0  0  0  0  0  0  0  0  0
  150.5662  140.6051  156.2367 C   0  0  0  0  0  0  0  0  0  0  0  0
  149.6797  141.5588  155.4199 C   0  0  0  0  0  0  0  0  0  0  0  0
  148.7075  140.8293  154.5555 C   0  0  0  0  0  0  0  0  0  0  0  0
  148.8207  139.5342  154.2473 N   0  0  0  0  0  0  0  0  0  0  0  0
  147.8027  139.0975  153.3957 C   0  0  0  0  0  0  0  0  0  0  0  0
  146.9178  140.0865  153.0484 C   0  0  0  0  0  0  0  0  0  0  0  0
  147.3342  141.6118  153.7801 S   0  0  0  0  0  0  0  0  0  0  0  0
  153.9553  141.1387  159.3030 H   0  0  0  0  0  0  0  0  0  0  0  0
  153.7437  142.3325  158.0524 H   0  0  0  0  0  0  0  0  0  0  0  0
  151.4165  142.5879  159.6383 H   0  0  0  0  0  0  0  0  0  0  0  0
  153.8635  144.3670  160.0259 H   0  0  0  0  0  0  0  0  0  0  0  0
  150.8137  144.9513  159.9156 H   0  0  0  0  0  0  0  0  0  0  0  0
  152.1649  146.1519  160.2554 H   0  0  0  0  0  0  0  0  0  0  0  0
  153.1769  145.6349  158.0046 H   0  0  0  0  0  0  0  0  0  0  0  0
  151.8236  144.4337  157.6771 H   0  0  0  0  0  0  0  0  0  0  0  0
  152.1155  141.4075  161.5522 H   0  0  0  0  0  0  0  0  0  0  0  0
  153.3349  144.2287  161.9974 H   0  0  0  0  0  0  0  0  0  0  0  0
  152.7841  143.0426  163.2911 H   0  0  0  0  0  0  0  0  0  0  0  0
  154.4345  141.3426  162.4310 H   0  0  0  0  0  0  0  0  0  0  0  0
  154.9854  142.5370  161.1454 H   0  0  0  0  0  0  0  0  0  0  0  0
  151.6176  142.3233  156.8856 H   0  0  0  0  0  0  0  0  0  0  0  0
  151.1044  139.9225  155.5769 H   0  0  0  0  0  0  0  0  0  0  0  0
  149.9456  139.9857  156.8849 H   0  0  0  0  0  0  0  0  0  0  0  0
  149.1282  142.2242  156.0854 H   0  0  0  0  0  0  0  0  0  0  0  0
  150.2934  142.1961  154.7821 H   0  0  0  0  0  0  0  0  0  0  0  0
  147.7854  138.0636  153.0835 H   0  0  0  0  0  0  0  0  0  0  0  0
  146.0521  140.0118  152.4068 H   0  0  0  0  0  0  0  0  0  0  0  0
  1  2  2  0  0  0  0
  2  3  1  0  0  0  0
  2 11  1  0  0  0  0
  3  4  1  0  0  0  0
  3 19  1  0  0  0  0
  3 20  1  0  0  0  0
  4  5  1  0  0  0  0
  4  8  1  0  0  0  0
  4 21  1  0  0  0  0
  5  7  1  0  0  0  0
  5  6  1  0  0  0  0
  5 22  1  0  0  0  0
  6  7  1  0  0  0  0
  6 23  1  0  0  0  0
  6 24  1  0  0  0  0
  7 25  1  0  0  0  0
  7 26  1  0  0  0  0
  8 10  1  0  0  0  0
  8  9  1  0  0  0  0
  8 27  1  0  0  0  0
  9 10  1  0  0  0  0
  9 28  1  0  0  0  0
  9 29  1  0  0  0  0
 10 30  1  0  0  0  0
 10 31  1  0  0  0  0
 11 12  1  0  0  0  0
 11 32  1  0  0  0  0
 12 13  1  0  0  0  0
 12 33  1  0  0  0  0
 12 34  1  0  0  0  0
 13 14  1  0  0  0  0
 13 35  1  0  0  0  0
 13 36  1  0  0  0  0
 14 18  1  0  0  0  0
 14 15  2  0  0  0  0
 15 16  1  0  0  0  0
 16 17  2  0  0  0  0
 16 37  1  0  0  0  0
 17 18  1  0  0  0  0
 17 38  1  0  0  0  0
M  END
> <s_m_source_file>
AV-unprocessed.smi

> <i_m_source_file_index>
1090

> <i_lp_mmshare_version>
43012

> <i_f3d_flags>
0

> <s_epik_input>
W0NIMl0xW0NIMl1bQ0hdMVtDSF0oW0NIXTJbQ0gyXVtDSDJdMilbQ0gyXUMoPU8pW05IXVtDSDJdW0NIMl1jM25bY0hdW2NIXXMz

> <s_epik_cmdline>
J2VwaWtfcHl0aG9uJywgJy1waCcsICc3LjAnLCAnLXRuJywgJzgnLCAnLW1hJywgJzIwMCcsICctbWV0YWxfYmluZGluZycsICctaW1hZScsICc8aW5maWxlLm1hZT4nLCAnLW9tYWUnLCAnPG91dGZpbGUubWFlPic=

> <r_lp_tautomer_probability>
1

> <r_epik_Ionization_Penalty>
0.000189819

> <r_epik_Ionization_Penalty_Charging>
0

> <r_epik_Ionization_Penalty_Neutral>
0.000189819

> <r_epik_State_Penalty>
-0

> <r_epik_Charging_Adjusted_Penalty>
0

> <i_epik_Tot_Q>
0

> <i_epik_Tot_abs_Q>
0

> <r_epik_Metal_State_Penalty>
-0

> <b_epik_Metal_Only>
0

> <s_lp_Force_Field>
OPLS_2005

> <r_lp_Energy>
14.2357

> <b_lp_Chiralities_Consistent>
1

> <s_lp_Variant>
AV-unprocessed.smi:1090-1

> <Gold.Version>
5.8.1

> <Gold.Id.Protein>
6NUR|6NUR_protein|mol2

> <Gold.PLP.Fitness>
48.0370

> <Gold.PLP.PLP>
-44.6129

> <Gold.PLP.part.hbond>
0.0000

> <Gold.PLP.part.metal>
0.0000

> <Gold.PLP.part.buried>
-3.5767

> <Gold.PLP.part.nonpolar>
-40.7240

> <Gold.PLP.part.repulsive>
0.2215

> <Gold.PLP.ligand.clash>
0.0000

> <Gold.PLP.ligand.torsion>
2.4238

> <Gold.PLP.Chemscore.Hbond>
0.0000

> <Gold.PLP.Chemscore.CHOScore>
2.0000

> <Gold.PLP.Chemscore.Metal>
0.0000

> <Gold.Chemscore.Hbonds>
donor molecule, donor type, donor heavy atom, donor atom, acceptor molecule, acceptor atom, score
      L1  C    16    37       P1  7948  1.00
      L1  C    17    38       P1 10175  1.00

> <Gold.PLP.Chemscore.Internal.Correction>
2.2718

> <Gold.Rescore>
     Score         DG    S(hbond)    S(metal)    S(lipo)     H(rot)  DE(clash)    DE(int)     intcor
     14.71     -17.00       0.00        0.00     135.65       1.70       0.19       2.10       ----

> <Gold.Chemscore.Fitness>
14.7126

> <Gold.Chemscore.DG>
-17.0038

> <Gold.Chemscore.ZeroCoef>
-5.4800

> <Gold.Chemscore.Hbond>
0.0000

> <Gold.Chemscore.Metal>
0.0000

> <Gold.Chemscore.Lipo>
135.6507

> <Gold.Chemscore.Internal_Hbond>
0.0000

> <Gold.Chemscore.DEClash>
0.1906

> <Gold.Chemscore.DEInternal>
2.1005

> <Gold.Chemscore.Rot>
1.6982

> <Gold.Chemscore.Internal.Correction>
   9.000000E+99

> <Gold.Chemscore.Hbond.Weighted>
-0.0000

> <Gold.Chemscore.Metal.Weighted>
-0.0000

> <Gold.Chemscore.Lipo.Weighted>
-15.8711

> <Gold.Chemscore.Internal_Hbond.Weighted>
0.0000

> <Gold.Chemscore.DEClash.Weighted>
0.1906

> <Gold.Chemscore.DEInternal.Weighted>
2.1005

> <Gold.Chemscore.Rot.Weighted>
4.3474

> <Gold.Chemscore.Internal.Correction.Weighted>
   9.000000E+99

> <Gold.Protein.RotatedTorsions>
[ 6907 6896 6895 6894 ] final -142.83 input  -60.11 | X-H torsion
[ 7974 7965 7964 7962 ] final   36.78 input  175.53 | X-H torsion
[ 8008 7997 7996 7995 ] final   62.06 input   59.86 | X-H torsion
[ 10167 10162 10161 10158 ] final -101.57 input  -65.29 | X-H torsion
[ 10718 10713 10712 10709 ] final  -44.51 input   66.30 | X-H torsion
[ 10763 10752 10751 10750 ] final  -46.39 input  -60.55 | X-H torsion
[ 11005 11000 10999 10996 ] final   77.98 input  -57.11 | X-H torsion

> <Gold.Protein.ActiveResidues>
 VAL166  LYS551  ARG553  GLY616  TRP617  ASP618  TYR619  PRO620  LYS621  CYS622 
 ASP623  PHE694  ASN695  SER759  ASP760  ASP761  ALA762  ILE779  LEU786  VAL792 
 PHE793  MET794  SER795  GLU796  ALA797  LYS798  CYS799  TRP800  GLU811  SER814 

> <Gold.Protein.RotatedAtoms>
  151.0923  133.5306  159.2614 H   0  0  0  0  0  0  0  0  0  0  0  0  # atno 6907 bound_to 6896
  151.2168  135.0502  159.8943 H   0  0  0  0  0  0  0  0  0  0  0  0  # atno 6908 bound_to 6896
  152.5435  134.0731  159.8256 H   0  0  0  0  0  0  0  0  0  0  0  0  # atno 6909 bound_to 6896
  146.1186  139.5975  142.9305 H   0  0  0  0  0  0  0  0  0  0  0  0  # atno 7974 bound_to 7965
  155.6084  140.3494  155.4615 H   0  0  0  0  0  0  0  0  0  0  0  0  # atno 8008 bound_to 7997
  156.0174  140.1246  157.0417 H   0  0  0  0  0  0  0  0  0  0  0  0  # atno 8009 bound_to 7997
  154.4302  140.1069  156.5901 H   0  0  0  0  0  0  0  0  0  0  0  0  # atno 8010 bound_to 7997
  140.2399  143.3546  152.0811 H   0  0  0  0  0  0  0  0  0  0  0  0  # atno 10167 bound_to 10162
  156.2378  130.4177  149.8797 H   0  0  0  0  0  0  0  0  0  0  0  0  # atno 10718 bound_to 10713
  154.0442  135.6640  153.4793 H   0  0  0  0  0  0  0  0  0  0  0  0  # atno 10763 bound_to 10752
  153.0489  135.5097  154.7813 H   0  0  0  0  0  0  0  0  0  0  0  0  # atno 10764 bound_to 10752
  154.6798  135.3043  154.9594 H   0  0  0  0  0  0  0  0  0  0  0  0  # atno 10765 bound_to 10752
  139.9232  134.7726  156.1591 H   0  0  0  0  0  0  0  0  0  0  0  0  # atno 11005 bound_to 11000
  145.5514  141.0413  143.2276 LP  0  0  0  0  0  0  0  0  0  0  0  0  # atno 17320 bound_to 7965
  144.7576  139.7036  143.7247 LP  0  0  0  0  0  0  0  0  0  0  0  0  # atno 17321 bound_to 7965
  139.5081  144.6844  151.5926 LP  0  0  0  0  0  0  0  0  0  0  0  0  # atno 17342 bound_to 10162
  140.6122  143.9415  150.6461 LP  0  0  0  0  0  0  0  0  0  0  0  0  # atno 17343 bound_to 10162
  156.6389  130.8696  151.3510 LP  0  0  0  0  0  0  0  0  0  0  0  0  # atno 17370 bound_to 10713
  157.7162  130.9500  150.1264 LP  0  0  0  0  0  0  0  0  0  0  0  0  # atno 17371 bound_to 10713
  141.0769  133.6771  156.2255 LP  0  0  0  0  0  0  0  0  0  0  0  0  # atno 17394 bound_to 11000
  140.6413  134.5162  157.5570 LP  0  0  0  0  0  0  0  0  0  0  0  0  # atno 17395 bound_to 11000

$$$$
