AV-unprocessed.smi:154|AV-procd|sdf|1266|dock9
  -GOLD-   2262018523D 1   1.00000     0.00000
 Structure written by MMmdl.
 53 57  0  0  0  0  0  0  0  0  1 V2000
  150.5748  138.3249  153.5009 O   0  0  0  0  0  0  0  0  0  0  0  0
  150.1196  138.2958  154.8431 C   0  0  0  0  0  0  0  0  0  0  0  0
  150.6970  137.0213  155.5080 C   0  0  0  0  0  0  0  0  0  0  0  0
  150.0911  136.7009  156.7919 N   0  0  0  0  0  0  0  0  0  0  0  0
  150.6403  136.9031  158.0348 C   0  0  0  0  0  0  0  0  0  0  0  0
  149.8957  136.5234  159.0350 N   0  0  0  0  0  0  0  0  0  0  0  0
  148.7357  136.0236  158.4492 C   0  0  0  0  0  0  0  0  0  0  0  0
  147.5216  135.4407  158.9363 C   0  0  0  0  0  0  0  0  0  0  0  0
  147.1881  135.2365  160.2459 N   0  0  0  0  0  0  0  0  0  0  0  0
  147.2269  136.3578  161.1895 C   0  0  2  0  0  0  0  0  0  0  0  0
  147.7602  135.8722  162.5573 C   0  0  0  0  0  0  0  0  0  0  0  0
  147.0776  134.6023  163.1028 C   0  0  0  0  0  0  0  0  0  0  0  0
  146.7474  133.5769  162.0010 C   0  0  0  0  0  0  0  0  0  0  0  0
  146.2559  134.1939  160.6710 C   0  0  1  0  0  0  0  0  0  0  0  0
  144.8097  134.7545  160.6886 C   0  0  0  0  0  0  0  0  0  0  0  0
  144.6502  136.1042  161.4256 C   0  0  0  0  0  0  0  0  0  0  0  0
  143.5495  136.7033  160.9705 F   0  0  0  0  0  0  0  0  0  0  0  0
  144.4545  135.9026  162.7248 F   0  0  0  0  0  0  0  0  0  0  0  0
  145.8470  137.0568  161.2072 C   0  0  0  0  0  0  0  0  0  0  0  0
  146.6060  135.0753  157.9992 N   0  0  0  0  0  0  0  0  0  0  0  0
  146.8425  135.2450  156.6969 C   0  0  0  0  0  0  0  0  0  0  0  0
  147.9202  135.7601  156.1085 N   0  0  0  0  0  0  0  0  0  0  0  0
  148.8492  136.1384  157.0307 C   0  0  0  0  0  0  0  0  0  0  0  0
  150.6368  139.5597  155.5596 C   0  0  0  0  0  0  0  0  0  0  0  0
  149.9597  140.8403  155.0396 C   0  0  0  0  0  0  0  0  0  0  0  0
  148.5467  140.7244  155.1546 O   0  0  0  0  0  0  0  0  0  0  0  0
  148.0165  139.6702  154.3604 C   0  0  0  0  0  0  0  0  0  0  0  0
  148.5750  138.3166  154.8341 C   0  0  0  0  0  0  0  0  0  0  0  0
  150.0896  137.6834  153.0051 H   0  0  0  0  0  0  0  0  0  0  0  0
  150.5771  136.1603  154.8489 H   0  0  0  0  0  0  0  0  0  0  0  0
  151.7709  137.1352  155.6612 H   0  0  0  0  0  0  0  0  0  0  0  0
  151.6193  137.3368  158.1772 H   0  0  0  0  0  0  0  0  0  0  0  0
  147.9386  137.1155  160.8640 H   0  0  0  0  0  0  0  0  0  0  0  0
  148.8215  135.6514  162.4359 H   0  0  0  0  0  0  0  0  0  0  0  0
  147.7077  136.6737  163.2946 H   0  0  0  0  0  0  0  0  0  0  0  0
  147.7305  134.1356  163.8409 H   0  0  0  0  0  0  0  0  0  0  0  0
  146.1877  134.8553  163.6689 H   0  0  0  0  0  0  0  0  0  0  0  0
  147.6576  133.0149  161.7874 H   0  0  0  0  0  0  0  0  0  0  0  0
  146.0289  132.8451  162.3715 H   0  0  0  0  0  0  0  0  0  0  0  0
  146.2859  133.3675  159.9643 H   0  0  0  0  0  0  0  0  0  0  0  0
  144.4999  134.9111  159.6560 H   0  0  0  0  0  0  0  0  0  0  0  0
  144.1150  134.0159  161.0895 H   0  0  0  0  0  0  0  0  0  0  0  0
  145.8314  137.8636  161.9407 H   0  0  0  0  0  0  0  0  0  0  0  0
  145.7190  137.5398  160.2371 H   0  0  0  0  0  0  0  0  0  0  0  0
  146.0551  134.9219  156.0323 H   0  0  0  0  0  0  0  0  0  0  0  0
  150.4354  139.4761  156.6284 H   0  0  0  0  0  0  0  0  0  0  0  0
  151.7199  139.6421  155.4598 H   0  0  0  0  0  0  0  0  0  0  0  0
  150.2887  141.6983  155.6259 H   0  0  0  0  0  0  0  0  0  0  0  0
  150.2381  141.0418  154.0040 H   0  0  0  0  0  0  0  0  0  0  0  0
  146.9303  139.6760  154.4516 H   0  0  0  0  0  0  0  0  0  0  0  0
  148.2447  139.8424  153.3075 H   0  0  0  0  0  0  0  0  0  0  0  0
  148.1775  137.5183  154.2061 H   0  0  0  0  0  0  0  0  0  0  0  0
  148.2078  138.1249  155.8430 H   0  0  0  0  0  0  0  0  0  0  0  0
  1  2  1  0  0  0  0
  1 29  1  0  0  0  0
  2 28  1  0  0  0  0
  2  3  1  0  0  0  0
  2 24  1  0  0  0  0
  3  4  1  0  0  0  0
  3 30  1  0  0  0  0
  3 31  1  0  0  0  0
  4 23  1  0  0  0  0
  4  5  1  0  0  0  0
  5  6  2  0  0  0  0
  5 32  1  0  0  0  0
  6  7  1  0  0  0  0
  7 23  2  0  0  0  0
  7  8  1  0  0  0  0
  8  9  1  0  0  0  0
  8 20  2  0  0  0  0
  9 14  1  0  0  0  0
  9 10  1  0  0  0  0
 10 19  1  0  0  0  0
 10 11  1  0  0  0  0
 10 33  1  0  0  0  0
 11 12  1  0  0  0  0
 11 34  1  0  0  0  0
 11 35  1  0  0  0  0
 12 13  1  0  0  0  0
 12 36  1  0  0  0  0
 12 37  1  0  0  0  0
 13 14  1  0  0  0  0
 13 38  1  0  0  0  0
 13 39  1  0  0  0  0
 14 15  1  0  0  0  0
 14 40  1  0  0  0  0
 15 16  1  0  0  0  0
 15 41  1  0  0  0  0
 15 42  1  0  0  0  0
 16 17  1  0  0  0  0
 16 18  1  0  0  0  0
 16 19  1  0  0  0  0
 19 43  1  0  0  0  0
 19 44  1  0  0  0  0
 20 21  1  0  0  0  0
 21 22  2  0  0  0  0
 21 45  1  0  0  0  0
 22 23  1  0  0  0  0
 24 25  1  0  0  0  0
 24 46  1  0  0  0  0
 24 47  1  0  0  0  0
 25 26  1  0  0  0  0
 25 48  1  0  0  0  0
 25 49  1  0  0  0  0
 26 27  1  0  0  0  0
 27 28  1  0  0  0  0
 27 50  1  0  0  0  0
 27 51  1  0  0  0  0
 28 52  1  0  0  0  0
 28 53  1  0  0  0  0
M  END
> <s_m_source_file>
AV-unprocessed.smi

> <i_m_source_file_index>
154

> <i_lp_mmshare_version>
43012

> <i_f3d_flags>
0

> <s_epik_input>
W0NIMl0xW0NIMl1PW0NIMl1bQ0gyXUMxKFtPSF0pW0NIMl1uKFtjSF1uMiljKGMyMyluW2NIXW5jM04oW0NAQEhdNDUpW0NIXShbQ0gyXVtDSDJdW0NIMl00KVtDSDJdQyhGKShGKVtDSDJdNQ==

> <s_epik_cmdline>
J2VwaWtfcHl0aG9uJywgJy1waCcsICc3LjAnLCAnLXRuJywgJzgnLCAnLW1hJywgJzIwMCcsICctbWV0YWxfYmluZGluZycsICctaW1hZScsICc8aW5maWxlLm1hZT4nLCAnLW9tYWUnLCAnPG91dGZpbGUubWFlPic=

> <r_lp_tautomer_probability>
1

> <r_epik_Ionization_Penalty>
0.00333769

> <r_epik_Ionization_Penalty_Charging>
0

> <r_epik_Ionization_Penalty_Neutral>
0.00333769

> <r_epik_State_Penalty>
0.0022021

> <r_epik_Charging_Adjusted_Penalty>
0.0022021

> <i_epik_Tot_Q>
0

> <i_epik_Tot_abs_Q>
0

> <r_epik_Metal_State_Penalty>
-0

> <b_epik_Metal_Only>
0

> <s_lp_Force_Field>
OPLS_2005

> <r_lp_Energy>
50.9218

> <b_lp_Chiralities_Consistent>
1

> <s_lp_Variant>
AV-unprocessed.smi:154-1

> <Gold.Version>
5.8.1

> <Gold.Id.Protein>
6NUR|6NUR_protein|mol2

> <Gold.PLP.Fitness>
37.9532

> <Gold.PLP.PLP>
-33.9601

> <Gold.PLP.part.hbond>
-3.8115

> <Gold.PLP.part.metal>
0.0000

> <Gold.PLP.part.buried>
-3.0231

> <Gold.PLP.part.nonpolar>
-29.0451

> <Gold.PLP.part.repulsive>
0.1174

> <Gold.PLP.ligand.clash>
0.0000

> <Gold.PLP.ligand.torsion>
0.9846

> <Gold.PLP.Chemscore.Hbond>
1.9263

> <Gold.PLP.Chemscore.CHOScore>
0.0000

> <Gold.PLP.Chemscore.Metal>
0.0000

> <Gold.Chemscore.Hbonds>
donor molecule, donor type, donor heavy atom, donor atom, acceptor molecule, acceptor atom, score
      L1  H     1    29       P1  7948  0.70
      P1  H  6896  6908       L1     6  1.00

> <Gold.PLP.Chemscore.Internal.Correction>
0.1835

> <Gold.Rescore>
     Score         DG    S(hbond)    S(metal)    S(lipo)     H(rot)  DE(clash)    DE(int)     intcor
     13.06     -14.20       0.96        0.00      86.24       1.78       0.13       1.01       ----

> <Gold.Chemscore.Fitness>
13.0566

> <Gold.Chemscore.DG>
-14.1990

> <Gold.Chemscore.ZeroCoef>
-5.4800

> <Gold.Chemscore.Hbond>
0.9574

> <Gold.Chemscore.Metal>
0.0000

> <Gold.Chemscore.Lipo>
86.2380

> <Gold.Chemscore.Internal_Hbond>
0.0000

> <Gold.Chemscore.DEClash>
0.1327

> <Gold.Chemscore.DEInternal>
1.0097

> <Gold.Chemscore.Rot>
1.7845

> <Gold.Chemscore.Internal.Correction>
   9.000000E+99

> <Gold.Chemscore.Hbonds>
donor molecule, donor type, donor heavy atom, donor atom, acceptor molecule, acceptor atom, score
      L1  H     1    29       P1  7948  0.14
      P1  H  6896  6908       L1     6  0.15

> <Gold.Chemscore.Hbond.Weighted>
-3.1976

> <Gold.Chemscore.Metal.Weighted>
-0.0000

> <Gold.Chemscore.Lipo.Weighted>
-10.0898

> <Gold.Chemscore.Internal_Hbond.Weighted>
0.0000

> <Gold.Chemscore.DEClash.Weighted>
0.1327

> <Gold.Chemscore.DEInternal.Weighted>
1.0097

> <Gold.Chemscore.Rot.Weighted>
4.5684

> <Gold.Chemscore.Internal.Correction.Weighted>
   9.000000E+99

> <Gold.Protein.RotatedTorsions>
[ 6907 6896 6895 6894 ] final -172.31 input  -60.11 | X-H torsion
[ 7974 7965 7964 7962 ] final -114.79 input  175.53 | X-H torsion
[ 8008 7997 7996 7995 ] final  -54.24 input   59.86 | X-H torsion
[ 10167 10162 10161 10158 ] final  169.31 input  -65.29 | X-H torsion
[ 10718 10713 10712 10709 ] final -172.87 input   66.30 | X-H torsion
[ 10763 10752 10751 10750 ] final -123.41 input  -60.55 | X-H torsion
[ 11005 11000 10999 10996 ] final -157.62 input  -57.11 | X-H torsion

> <Gold.Protein.ActiveResidues>
 VAL166  LYS551  ARG553  GLY616  TRP617  ASP618  TYR619  PRO620  LYS621  CYS622 
 ASP623  PHE694  ASN695  SER759  ASP760  ASP761  ALA762  ILE779  LEU786  VAL792 
 PHE793  MET794  SER795  GLU796  ALA797  LYS798  CYS799  TRP800  GLU811  SER814 

> <Gold.Protein.RotatedAtoms>
  151.5379  133.3437  159.2929 H   0  0  0  0  0  0  0  0  0  0  0  0  # atno 6907 bound_to 6896
  150.8553  134.7893  159.7052 H   0  0  0  0  0  0  0  0  0  0  0  0  # atno 6908 bound_to 6896
  152.4588  134.5239  159.9842 H   0  0  0  0  0  0  0  0  0  0  0  0  # atno 6909 bound_to 6896
  145.1160  140.8641  143.3841 H   0  0  0  0  0  0  0  0  0  0  0  0  # atno 7974 bound_to 7965
  154.4156  140.1181  156.5283 H   0  0  0  0  0  0  0  0  0  0  0  0  # atno 8008 bound_to 7997
  155.6632  140.3496  155.4771 H   0  0  0  0  0  0  0  0  0  0  0  0  # atno 8009 bound_to 7997
  155.9696  140.1139  157.0814 H   0  0  0  0  0  0  0  0  0  0  0  0  # atno 8010 bound_to 7997
  139.4989  144.3720  151.9715 H   0  0  0  0  0  0  0  0  0  0  0  0  # atno 10167 bound_to 10162
  156.7619  130.9416  151.3118 H   0  0  0  0  0  0  0  0  0  0  0  0  # atno 10718 bound_to 10713
  154.8707  135.4099  154.2939 H   0  0  0  0  0  0  0  0  0  0  0  0  # atno 10763 bound_to 10752
  153.3810  135.7011  153.6571 H   0  0  0  0  0  0  0  0  0  0  0  0  # atno 10764 bound_to 10752
  153.5393  135.3651  155.2683 H   0  0  0  0  0  0  0  0  0  0  0  0  # atno 10765 bound_to 10752
  140.6626  134.4333  157.5234 H   0  0  0  0  0  0  0  0  0  0  0  0  # atno 11005 bound_to 11000
  145.0793  139.2972  143.5792 LP  0  0  0  0  0  0  0  0  0  0  0  0  # atno 17320 bound_to 7965
  146.3524  140.0294  142.8652 LP  0  0  0  0  0  0  0  0  0  0  0  0  # atno 17321 bound_to 7965
  140.3156  144.3488  150.6022 LP  0  0  0  0  0  0  0  0  0  0  0  0  # atno 17342 bound_to 10162
  140.5764  143.2176  151.7508 LP  0  0  0  0  0  0  0  0  0  0  0  0  # atno 17343 bound_to 10162
  157.6731  130.9069  150.0085 LP  0  0  0  0  0  0  0  0  0  0  0  0  # atno 17370 bound_to 10713
  156.1333  130.3643  149.9696 LP  0  0  0  0  0  0  0  0  0  0  0  0  # atno 17371 bound_to 10713
  139.9008  134.8561  156.1905 LP  0  0  0  0  0  0  0  0  0  0  0  0  # atno 17394 bound_to 11000
  141.0454  133.6916  156.1673 LP  0  0  0  0  0  0  0  0  0  0  0  0  # atno 17395 bound_to 11000

$$$$
