AV-unprocessed.smi:1443|AV-procd|sdf|5878|dock3
  -GOLD-   22720 5553D 1   1.00000     0.00000
 Structure written by MMmdl.
 27 28  0  0  0  0  0  0  0  0  1 V2000
  151.2455  141.9790  157.7875 C   0  0  0  0  0  0  0  0  0  0  0  0
  150.6921  141.8099  156.0700 S   0  0  0  0  0  0  0  0  0  0  0  0
  151.1983  140.2038  155.5445 C   0  0  0  0  0  0  0  0  0  0  0  0
  152.5031  139.8773  155.5244 N   0  0  0  0  0  0  0  0  0  0  0  0
  152.6512  138.2816  154.9890 S   0  0  0  0  0  0  0  0  0  0  0  0
  150.9257  138.1440  154.8262 C   0  0  0  0  0  0  0  0  0  0  0  0
  150.2987  136.9419  154.3872 N   0  0  0  0  0  0  0  0  0  0  0  0
  150.4064  135.6686  154.8229 C   0  0  0  0  0  0  0  0  0  0  0  0
  151.1494  135.3815  155.7599 O   0  0  0  0  0  0  0  0  0  0  0  0
  149.6627  134.7569  154.1771 N   0  0  0  0  0  0  0  0  0  0  0  0
  149.5976  133.3637  154.4828 C   0  0  1  0  0  0  0  0  0  0  0  0
  148.3436  132.8665  155.1691 C   0  0  0  0  0  0  0  0  0  0  0  0
  148.6062  132.4913  153.7349 C   0  0  1  0  0  0  0  0  0  0  0  0
  147.7354  133.0359  152.6202 C   0  0  0  0  0  0  0  0  0  0  0  0
  150.3032  139.2741  155.1636 N   0  0  0  0  0  0  0  0  0  0  0  0
  151.0105  142.9753  158.1614 H   0  0  0  0  0  0  0  0  0  0  0  0
  152.3223  141.8260  157.8618 H   0  0  0  0  0  0  0  0  0  0  0  0
  150.7419  141.2471  158.4181 H   0  0  0  0  0  0  0  0  0  0  0  0
  149.6888  137.0585  153.5910 H   0  0  0  0  0  0  0  0  0  0  0  0
  149.0839  135.0812  153.4154 H   0  0  0  0  0  0  0  0  0  0  0  0
  150.5247  132.8803  154.7872 H   0  0  0  0  0  0  0  0  0  0  0  0
  148.4586  132.0879  155.9206 H   0  0  0  0  0  0  0  0  0  0  0  0
  147.5537  133.5886  155.3675 H   0  0  0  0  0  0  0  0  0  0  0  0
  148.9280  131.4659  153.5632 H   0  0  0  0  0  0  0  0  0  0  0  0
  147.3834  134.0403  152.8524 H   0  0  0  0  0  0  0  0  0  0  0  0
  146.8678  132.3919  152.4762 H   0  0  0  0  0  0  0  0  0  0  0  0
  148.3000  133.0727  151.6887 H   0  0  0  0  0  0  0  0  0  0  0  0
  1  2  1  0  0  0  0
  1 16  1  0  0  0  0
  1 17  1  0  0  0  0
  1 18  1  0  0  0  0
  2  3  1  0  0  0  0
  3 15  1  0  0  0  0
  3  4  2  0  0  0  0
  4  5  1  0  0  0  0
  5  6  1  0  0  0  0
  6  7  1  0  0  0  0
  6 15  2  0  0  0  0
  7  8  1  0  0  0  0
  7 19  1  0  0  0  0
  8  9  2  0  0  0  0
  8 10  1  0  0  0  0
 10 11  1  0  0  0  0
 10 20  1  0  0  0  0
 11 13  1  0  0  0  0
 11 12  1  0  0  0  0
 11 21  1  0  0  0  0
 12 13  1  0  0  0  0
 12 22  1  0  0  0  0
 12 23  1  0  0  0  0
 13 14  1  0  0  0  0
 13 24  1  0  0  0  0
 14 25  1  0  0  0  0
 14 26  1  0  0  0  0
 14 27  1  0  0  0  0
M  END
> <s_m_source_file>
AV-unprocessed.smi

> <i_m_source_file_index>
1443

> <i_lp_mmshare_version>
43012

> <i_f3d_flags>
0

> <s_epik_input>
W0NIM11TYzFuc2MobjEpW05IXUMoPU8pW05IXVtDQEBIXTJbQ0gyXVtDQEhdMltDSDNd

> <s_epik_cmdline>
J2VwaWtfcHl0aG9uJywgJy1waCcsICc3LjAnLCAnLXRuJywgJzgnLCAnLW1hJywgJzIwMCcsICctbWV0YWxfYmluZGluZycsICctaW1hZScsICc8aW5maWxlLm1hZT4nLCAnLW9tYWUnLCAnPG91dGZpbGUubWFlPic=

> <r_lp_tautomer_probability>
1

> <r_epik_Ionization_Penalty>
2.74658e-05

> <r_epik_Ionization_Penalty_Charging>
0

> <r_epik_Ionization_Penalty_Neutral>
2.74658e-05

> <r_epik_State_Penalty>
-0

> <r_epik_Charging_Adjusted_Penalty>
0

> <i_epik_Tot_Q>
0

> <i_epik_Tot_abs_Q>
0

> <r_epik_Metal_State_Penalty>
-0

> <b_epik_Metal_Only>
0

> <s_lp_Force_Field>
OPLS_2005

> <r_lp_Energy>
21.211

> <b_lp_Chiralities_Consistent>
1

> <s_lp_Variant>
AV-unprocessed.smi:1443-2

> <Gold.Version>
5.8.1

> <Gold.Id.Protein>
6NUR|6NUR_protein|mol2

> <Gold.PLP.Fitness>
39.9058

> <Gold.PLP.PLP>
-29.8990

> <Gold.PLP.part.hbond>
-5.8868

> <Gold.PLP.part.metal>
0.0000

> <Gold.PLP.part.buried>
-0.8285

> <Gold.PLP.part.nonpolar>
-23.8272

> <Gold.PLP.part.repulsive>
0.2280

> <Gold.PLP.ligand.clash>
0.0000

> <Gold.PLP.ligand.torsion>
0.5798

> <Gold.PLP.Chemscore.Hbond>
3.7090

> <Gold.PLP.Chemscore.CHOScore>
0.0000

> <Gold.PLP.Chemscore.Metal>
0.0000

> <Gold.Chemscore.Hbonds>
donor molecule, donor type, donor heavy atom, donor atom, acceptor molecule, acceptor atom, score
      L1  H     7    19       P1  7948  0.91
      L1  H    10    20       P1  7948  0.91
      P1  H  7997  8009       L1     4  0.99
      P1  H 10752 10764       L1     9  0.86

> <Gold.PLP.Chemscore.Internal.Correction>
0.0396

> <Gold.Rescore>
     Score         DG    S(hbond)    S(metal)    S(lipo)     H(rot)  DE(clash)    DE(int)     intcor
     15.19     -15.93       2.60        0.00      43.01       1.27       0.13       0.62       ----

> <Gold.Chemscore.Fitness>
15.1897

> <Gold.Chemscore.DG>
-15.9326

> <Gold.Chemscore.ZeroCoef>
-5.4800

> <Gold.Chemscore.Hbond>
2.5963

> <Gold.Chemscore.Metal>
0.0000

> <Gold.Chemscore.Lipo>
43.0080

> <Gold.Chemscore.Internal_Hbond>
0.0000

> <Gold.Chemscore.DEClash>
0.1277

> <Gold.Chemscore.DEInternal>
0.6152

> <Gold.Chemscore.Rot>
1.2699

> <Gold.Chemscore.Internal.Correction>
   9.000000E+99

> <Gold.Chemscore.Hbonds>
donor molecule, donor type, donor heavy atom, donor atom, acceptor molecule, acceptor atom, score
      L1  H     7    19       P1  7948  0.59
      L1  H    10    20       P1  7948  0.23
      P1  H  7997  8009       L1     4  0.23
      P1  H 10752 10764       L1     9  0.45

> <Gold.Chemscore.Hbond.Weighted>
-8.6716

> <Gold.Chemscore.Metal.Weighted>
-0.0000

> <Gold.Chemscore.Lipo.Weighted>
-5.0319

> <Gold.Chemscore.Internal_Hbond.Weighted>
0.0000

> <Gold.Chemscore.DEClash.Weighted>
0.1277

> <Gold.Chemscore.DEInternal.Weighted>
0.6152

> <Gold.Chemscore.Rot.Weighted>
3.2509

> <Gold.Chemscore.Internal.Correction.Weighted>
   9.000000E+99

> <Gold.Protein.RotatedTorsions>
[ 6907 6896 6895 6894 ] final  115.05 input  -60.11 | X-H torsion
[ 7974 7965 7964 7962 ] final  -33.80 input  175.53 | X-H torsion
[ 8008 7997 7996 7995 ] final -165.62 input   59.86 | X-H torsion
[ 10167 10162 10161 10158 ] final -144.11 input  -65.29 | X-H torsion
[ 10718 10713 10712 10709 ] final -116.76 input   66.30 | X-H torsion
[ 10763 10752 10751 10750 ] final  -33.92 input  -60.55 | X-H torsion
[ 11005 11000 10999 10996 ] final -137.81 input  -57.11 | X-H torsion

> <Gold.Protein.ActiveResidues>
 VAL166  LYS551  ARG553  GLY616  TRP617  ASP618  TYR619  PRO620  LYS621  CYS622 
 ASP623  PHE694  ASN695  SER759  ASP760  ASP761  ALA762  ILE779  LEU786  VAL792 
 PHE793  MET794  SER795  GLU796  ALA797  LYS798  CYS799  TRP800  GLU811  SER814 

> <Gold.Protein.RotatedAtoms>
  152.4765  133.8151  159.7023 H   0  0  0  0  0  0  0  0  0  0  0  0  # atno 6907 bound_to 6896
  150.8786  133.7395  159.2945 H   0  0  0  0  0  0  0  0  0  0  0  0  # atno 6908 bound_to 6896
  151.4906  135.1061  159.9854 H   0  0  0  0  0  0  0  0  0  0  0  0  # atno 6909 bound_to 6896
  146.0881  140.5961  142.8877 H   0  0  0  0  0  0  0  0  0  0  0  0  # atno 7974 bound_to 7965
  155.8524  140.0965  157.1666 H   0  0  0  0  0  0  0  0  0  0  0  0  # atno 8008 bound_to 7997
  154.3986  140.1380  156.3922 H   0  0  0  0  0  0  0  0  0  0  0  0  # atno 8009 bound_to 7997
  155.7947  140.3454  155.5371 H   0  0  0  0  0  0  0  0  0  0  0  0  # atno 8010 bound_to 7997
  139.7930  143.7940  152.2651 H   0  0  0  0  0  0  0  0  0  0  0  0  # atno 10167 bound_to 10162
  156.0986  130.6153  150.9077 H   0  0  0  0  0  0  0  0  0  0  0  0  # atno 10718 bound_to 10713
  153.8381  135.6860  153.4806 H   0  0  0  0  0  0  0  0  0  0  0  0  # atno 10763 bound_to 10752
  153.1470  135.4634  154.9579 H   0  0  0  0  0  0  0  0  0  0  0  0  # atno 10764 bound_to 10752
  154.7857  135.3284  154.7838 H   0  0  0  0  0  0  0  0  0  0  0  0  # atno 10765 bound_to 10752
  140.8676  134.2091  157.4670 H   0  0  0  0  0  0  0  0  0  0  0  0  # atno 11005 bound_to 11000
  144.7340  140.4756  143.6917 LP  0  0  0  0  0  0  0  0  0  0  0  0  # atno 17320 bound_to 7965
  145.6091  139.1511  143.3086 LP  0  0  0  0  0  0  0  0  0  0  0  0  # atno 17321 bound_to 7965
  139.8037  144.7364  150.9790 LP  0  0  0  0  0  0  0  0  0  0  0  0  # atno 17342 bound_to 10162
  140.7820  143.4320  151.0681 LP  0  0  0  0  0  0  0  0  0  0  0  0  # atno 17343 bound_to 10162
  157.6152  131.0934  150.8724 LP  0  0  0  0  0  0  0  0  0  0  0  0  # atno 17370 bound_to 10713
  156.8856  130.5195  149.5288 LP  0  0  0  0  0  0  0  0  0  0  0  0  # atno 17371 bound_to 10713
  139.8710  134.9759  156.4901 LP  0  0  0  0  0  0  0  0  0  0  0  0  # atno 17394 bound_to 11000
  140.8611  133.8059  155.9266 LP  0  0  0  0  0  0  0  0  0  0  0  0  # atno 17395 bound_to 11000

$$$$
