AV-unprocessed.smi:1868|AV-procd|sdf|7585|dock3
  -GOLD-   22720 9293D 1   1.00000     0.00000
 Structure written by MMmdl.
 47 49  0  0  0  0  0  0  0  0  2 V2000
  152.4812  138.4541  157.1572 C   0  0  0  0  0  0  0  0  0  0  0  0
  152.5793  139.6501  158.0502 C   0  0  0  0  0  0  0  0  0  0  0  0
  153.1528  139.5949  159.2519 N   0  0  0  0  0  0  0  0  0  0  0  0
  153.0301  140.8938  159.7066 C   0  0  0  0  0  0  0  0  0  0  0  0
  153.4419  141.4844  160.9226 C   0  0  0  0  0  0  0  0  0  0  0  0
  153.2026  142.8523  161.1686 C   0  0  0  0  0  0  0  0  0  0  0  0
  152.5504  143.6479  160.2044 C   0  0  0  0  0  0  0  0  0  0  0  0
  152.1316  143.0794  158.9862 C   0  0  0  0  0  0  0  0  0  0  0  0
  152.3715  141.7131  158.7460 C   0  0  0  0  0  0  0  0  0  0  0  0
  152.0899  140.8600  157.6830 N   0  0  0  0  0  0  0  0  0  0  0  0
  151.4105  141.2123  156.4434 C   0  0  0  0  0  0  0  0  0  0  0  0
  149.9166  141.5270  156.6559 C   0  0  1  0  0  0  0  0  0  0  0  0
  149.7766  142.8562  157.1199 O   0  0  0  0  0  0  0  0  0  0  0  0
  149.1098  141.3759  155.3513 C   0  0  0  0  0  0  0  0  0  0  0  0
  147.8662  142.1886  155.3543 N   0  3  2  0  0  0  0  0  0  0  0  0
  146.9687  141.8899  156.5019 C   0  0  0  0  0  0  0  0  0  0  0  0
  145.7697  142.8524  156.5326 C   0  0  0  0  0  0  0  0  0  0  0  0
  144.9830  142.8090  155.2119 C   0  0  1  0  0  0  0  0  0  0  0  0
  143.8038  143.7920  155.2204 C   0  0  0  0  0  0  0  0  0  0  0  0
  145.9429  143.0816  154.0419 C   0  0  0  0  0  0  0  0  0  0  0  0
  147.1384  142.1144  154.0615 C   0  0  0  0  0  0  0  0  0  0  0  0
  152.8929  137.5735  157.6514 H   0  0  0  0  0  0  0  0  0  0  0  0
  153.0423  138.6232  156.2380 H   0  0  0  0  0  0  0  0  0  0  0  0
  151.4408  138.2500  156.9052 H   0  0  0  0  0  0  0  0  0  0  0  0
  153.9424  140.8837  161.6677 H   0  0  0  0  0  0  0  0  0  0  0  0
  153.5209  143.2931  162.1021 H   0  0  0  0  0  0  0  0  0  0  0  0
  152.3710  144.6948  160.4012 H   0  0  0  0  0  0  0  0  0  0  0  0
  151.6304  143.6868  158.2474 H   0  0  0  0  0  0  0  0  0  0  0  0
  151.9197  142.0687  155.9991 H   0  0  0  0  0  0  0  0  0  0  0  0
  151.5278  140.3931  155.7338 H   0  0  0  0  0  0  0  0  0  0  0  0
  149.5269  140.8599  157.4234 H   0  0  0  0  0  0  0  0  0  0  0  0
  149.3346  143.3622  156.4541 H   0  0  0  0  0  0  0  0  0  0  0  0
  149.7469  141.6761  154.5178 H   0  0  0  0  0  0  0  0  0  0  0  0
  148.8549  140.3297  155.1751 H   0  0  0  0  0  0  0  0  0  0  0  0
  146.6187  140.8585  156.4335 H   0  0  0  0  0  0  0  0  0  0  0  0
  147.5110  141.9749  157.4427 H   0  0  0  0  0  0  0  0  0  0  0  0
  145.1151  142.5954  157.3661 H   0  0  0  0  0  0  0  0  0  0  0  0
  146.1235  143.8674  156.7203 H   0  0  0  0  0  0  0  0  0  0  0  0
  144.5759  141.8039  155.0910 H   0  0  0  0  0  0  0  0  0  0  0  0
  144.1442  144.8202  155.3467 H   0  0  0  0  0  0  0  0  0  0  0  0
  143.1119  143.5683  156.0330 H   0  0  0  0  0  0  0  0  0  0  0  0
  143.2425  143.7395  154.2871 H   0  0  0  0  0  0  0  0  0  0  0  0
  145.4123  142.9886  153.0936 H   0  0  0  0  0  0  0  0  0  0  0  0
  146.3060  144.1093  154.0924 H   0  0  0  0  0  0  0  0  0  0  0  0
  147.8134  142.3679  153.2430 H   0  0  0  0  0  0  0  0  0  0  0  0
  146.8006  141.0911  153.8897 H   0  0  0  0  0  0  0  0  0  0  0  0
  148.1632  143.1495  155.4522 H   0  0  0  0  0  0  0  0  0  0  0  0
  1  2  1  0  0  0  0
  1 22  1  0  0  0  0
  1 23  1  0  0  0  0
  1 24  1  0  0  0  0
  2 10  1  0  0  0  0
  2  3  2  0  0  0  0
  3  4  1  0  0  0  0
  4  9  2  0  0  0  0
  4  5  1  0  0  0  0
  5  6  2  0  0  0  0
  5 25  1  0  0  0  0
  6  7  1  0  0  0  0
  6 26  1  0  0  0  0
  7  8  2  0  0  0  0
  7 27  1  0  0  0  0
  8  9  1  0  0  0  0
  8 28  1  0  0  0  0
  9 10  1  0  0  0  0
 10 11  1  0  0  0  0
 11 12  1  0  0  0  0
 11 29  1  0  0  0  0
 11 30  1  0  0  0  0
 12 13  1  0  0  0  0
 12 14  1  0  0  0  0
 12 31  1  0  0  0  0
 13 32  1  0  0  0  0
 14 15  1  0  0  0  0
 14 33  1  0  0  0  0
 14 34  1  0  0  0  0
 15 21  1  0  0  0  0
 15 16  1  0  0  0  0
 15 47  1  0  0  0  0
 16 17  1  0  0  0  0
 16 35  1  0  0  0  0
 16 36  1  0  0  0  0
 17 18  1  0  0  0  0
 17 37  1  0  0  0  0
 17 38  1  0  0  0  0
 18 19  1  0  0  0  0
 18 20  1  0  0  0  0
 18 39  1  0  0  0  0
 19 40  1  0  0  0  0
 19 41  1  0  0  0  0
 19 42  1  0  0  0  0
 20 21  1  0  0  0  0
 20 43  1  0  0  0  0
 20 44  1  0  0  0  0
 21 45  1  0  0  0  0
 21 46  1  0  0  0  0
M  CHG  1  15   1
M  END
> <s_m_source_file>
AV-unprocessed.smi

> <i_m_source_file_index>
1868

> <i_lp_mmshare_version>
43012

> <i_f3d_flags>
0

> <s_epik_input>
W2NIXTFbY0hdW2NIXVtjSF1jKGMxMiluKGMobjIpW0NIM10pW0NIMl1bQ0BIXShbT0hdKVtDSDJdTjNbQ0gyXVtDSDJdW0NIXShbQ0gzXSlbQ0gyXVtDSDJdMw==

> <s_epik_cmdline>
J2VwaWtfcHl0aG9uJywgJy1waCcsICc3LjAnLCAnLXRuJywgJzgnLCAnLW1hJywgJzIwMCcsICctbWV0YWxfYmluZGluZycsICctaW1hZScsICc8aW5maWxlLm1hZT4nLCAnLW9tYWUnLCAnPG91dGZpbGUubWFlPic=

> <r_epik_Ionization_Penalty>
0.101157

> <r_epik_Ionization_Penalty_Charging>
0.00181365

> <r_epik_Ionization_Penalty_Neutral>
0.0993436

> <r_epik_State_Penalty>
0.0871902

> <r_epik_Charging_Adjusted_Penalty>
0.0890039

> <i_epik_Tot_Q>
1

> <i_epik_Tot_abs_Q>
1

> <r_epik_Metal_State_Penalty>
9.24346e-05

> <b_epik_Metal_Only>
0

> <s_lp_Force_Field>
OPLS_2005

> <r_lp_Energy>
21.7142

> <b_lp_Chiralities_Consistent>
1

> <s_lp_Variant>
AV-unprocessed.smi:1868-2

> <Gold.Version>
5.8.1

> <Gold.Id.Protein>
6NUR|6NUR_protein|mol2

> <Gold.PLP.Fitness>
52.5715

> <Gold.PLP.PLP>
-44.6640

> <Gold.PLP.part.hbond>
-1.8303

> <Gold.PLP.part.metal>
0.0000

> <Gold.PLP.part.buried>
-7.4371

> <Gold.PLP.part.nonpolar>
-35.2309

> <Gold.PLP.part.repulsive>
0.1092

> <Gold.PLP.ligand.clash>
0.0000

> <Gold.PLP.ligand.torsion>
0.5711

> <Gold.PLP.Chemscore.Hbond>
3.0000

> <Gold.PLP.Chemscore.CHOScore>
0.0000

> <Gold.PLP.Chemscore.Metal>
0.0000

> <Gold.Chemscore.Hbonds>
donor molecule, donor type, donor heavy atom, donor atom, acceptor molecule, acceptor atom, score
      L1  H    13    32       P1  8028  1.00
      L1  H    15    47       P1  8028  2.00

> <Gold.PLP.Chemscore.Internal.Correction>
0.0496

> <Gold.Rescore>
     Score         DG    S(hbond)    S(metal)    S(lipo)     H(rot)  DE(clash)    DE(int)     intcor
     20.07     -20.79       1.94        0.00     117.44       1.92       0.02       0.70       ----

> <Gold.Chemscore.Fitness>
20.0737

> <Gold.Chemscore.DG>
-20.7938

> <Gold.Chemscore.ZeroCoef>
-5.4800

> <Gold.Chemscore.Hbond>
1.9425

> <Gold.Chemscore.Metal>
0.0000

> <Gold.Chemscore.Lipo>
117.4415

> <Gold.Chemscore.Internal_Hbond>
0.0000

> <Gold.Chemscore.DEClash>
0.0201

> <Gold.Chemscore.DEInternal>
0.7000

> <Gold.Chemscore.Rot>
1.9198

> <Gold.Chemscore.Internal.Correction>
   9.000000E+99

> <Gold.Chemscore.Hbonds>
donor molecule, donor type, donor heavy atom, donor atom, acceptor molecule, acceptor atom, score
      L1  H    13    32       P1  8028  0.98
      L1  H    15    47       P1  8028  0.91

> <Gold.Chemscore.Hbond.Weighted>
-6.4879

> <Gold.Chemscore.Metal.Weighted>
-0.0000

> <Gold.Chemscore.Lipo.Weighted>
-13.7407

> <Gold.Chemscore.Internal_Hbond.Weighted>
0.0000

> <Gold.Chemscore.DEClash.Weighted>
0.0201

> <Gold.Chemscore.DEInternal.Weighted>
0.7000

> <Gold.Chemscore.Rot.Weighted>
4.9147

> <Gold.Chemscore.Internal.Correction.Weighted>
   9.000000E+99

> <Gold.Protein.RotatedTorsions>
[ 6907 6896 6895 6894 ] final  -99.64 input  -60.11 | X-H torsion
[ 7974 7965 7964 7962 ] final -108.50 input  175.53 | X-H torsion
[ 8008 7997 7996 7995 ] final  -55.99 input   59.86 | X-H torsion
[ 10167 10162 10161 10158 ] final    5.93 input  -65.29 | X-H torsion
[ 10718 10713 10712 10709 ] final -116.11 input   66.30 | X-H torsion
[ 10763 10752 10751 10750 ] final  143.43 input  -60.55 | X-H torsion
[ 11005 11000 10999 10996 ] final  151.07 input  -57.11 | X-H torsion

> <Gold.Protein.ActiveResidues>
 VAL166  LYS551  ARG553  GLY616  TRP617  ASP618  TYR619  PRO620  LYS621  CYS622 
 ASP623  PHE694  ASN695  SER759  ASP760  ASP761  ALA762  ILE779  LEU786  VAL792 
 PHE793  MET794  SER795  GLU796  ALA797  LYS798  CYS799  TRP800  GLU811  SER814 

> <Gold.Protein.RotatedAtoms>
  150.7087  134.1009  159.3965 H   0  0  0  0  0  0  0  0  0  0  0  0  # atno 6907 bound_to 6896
  151.8996  135.0381  160.0514 H   0  0  0  0  0  0  0  0  0  0  0  0  # atno 6908 bound_to 6896
  152.2425  133.5112  159.5315 H   0  0  0  0  0  0  0  0  0  0  0  0  # atno 6909 bound_to 6896
  145.1921  140.9019  143.3419 H   0  0  0  0  0  0  0  0  0  0  0  0  # atno 7974 bound_to 7965
  154.4214  140.1140  156.5565 H   0  0  0  0  0  0  0  0  0  0  0  0  # atno 8008 bound_to 7997
  155.6356  140.3496  155.4678 H   0  0  0  0  0  0  0  0  0  0  0  0  # atno 8009 bound_to 7997
  155.9913  140.1180  157.0625 H   0  0  0  0  0  0  0  0  0  0  0  0  # atno 8010 bound_to 7997
  140.6456  143.7671  150.7493 H   0  0  0  0  0  0  0  0  0  0  0  0  # atno 10167 bound_to 10162
  156.0941  130.6117  150.8993 H   0  0  0  0  0  0  0  0  0  0  0  0  # atno 10718 bound_to 10713
  153.9722  135.2949  155.3426 H   0  0  0  0  0  0  0  0  0  0  0  0  # atno 10763 bound_to 10752
  154.7316  135.5065  153.8976 H   0  0  0  0  0  0  0  0  0  0  0  0  # atno 10764 bound_to 10752
  153.0895  135.6703  153.9995 H   0  0  0  0  0  0  0  0  0  0  0  0  # atno 10765 bound_to 10752
  140.1187  134.8878  157.2041 H   0  0  0  0  0  0  0  0  0  0  0  0  # atno 11005 bound_to 11000
  145.0031  139.3579  143.6157 LP  0  0  0  0  0  0  0  0  0  0  0  0  # atno 17320 bound_to 7965
  146.3434  139.9263  142.8760 LP  0  0  0  0  0  0  0  0  0  0  0  0  # atno 17321 bound_to 7965
  140.1311  143.4525  152.2253 LP  0  0  0  0  0  0  0  0  0  0  0  0  # atno 17342 bound_to 10162
  139.5666  144.7439  151.4005 LP  0  0  0  0  0  0  0  0  0  0  0  0  # atno 17343 bound_to 10162
  157.6098  131.0937  150.8815 LP  0  0  0  0  0  0  0  0  0  0  0  0  # atno 17370 bound_to 10713
  156.8957  130.5228  149.5284 LP  0  0  0  0  0  0  0  0  0  0  0  0  # atno 17371 bound_to 10713
  140.2994  134.3149  155.7294 LP  0  0  0  0  0  0  0  0  0  0  0  0  # atno 17394 bound_to 11000
  141.2147  133.7583  156.9619 LP  0  0  0  0  0  0  0  0  0  0  0  0  # atno 17395 bound_to 11000

$$$$
