AV-unprocessed.smi:2802|AV-procd|sdf|10805|dock7
  -GOLD-   2272015243D 1   1.00000     0.00000
 Structure written by MMmdl.
 47 48  0  0  0  0  0  0  0  0  1 V2000
  146.4032  142.8901  153.8445 C   0  0  0  0  0  0  0  0  0  0  0  0
  146.8704  141.6176  154.5664 C   0  0  2  0  0  0  0  0  0  0  0  0
  145.9852  141.3170  155.7879 C   0  0  0  0  0  0  0  0  0  0  0  0
  146.3909  140.0290  156.5389 C   0  0  0  0  0  0  0  0  0  0  0  0
  145.6355  139.9934  157.8847 C   0  0  0  0  0  0  0  0  0  0  0  0
  145.9553  138.7708  155.7549 C   0  0  0  0  0  0  0  0  0  0  0  0
  147.9165  140.0336  156.8435 C   0  0  0  0  0  0  0  0  0  0  0  0
  148.8969  140.4693  155.7076 C   0  0  2  0  0  0  0  0  0  0  0  0
  149.1715  139.3275  154.6849 C   0  0  0  0  0  0  0  0  0  0  0  0
  150.2468  139.6328  153.8171 O   0  0  0  0  0  0  0  0  0  0  0  0
  150.1635  140.8864  156.3336 N   0  0  0  0  0  0  0  0  0  0  0  0
  150.3484  141.7043  157.3855 C   0  0  0  0  0  0  0  0  0  0  0  0
  149.4282  142.2368  158.0076 O   0  0  0  0  0  0  0  0  0  0  0  0
  151.8075  141.9453  157.7894 C   0  0  0  0  0  0  0  0  0  0  0  0
  151.9134  142.8218  159.0264 C   0  0  0  0  0  0  0  0  0  0  0  0
  151.5182  144.1751  158.9908 C   0  0  0  0  0  0  0  0  0  0  0  0
  151.6458  144.9501  160.1595 C   0  0  0  0  0  0  0  0  0  0  0  0
  152.1648  144.3370  161.3174 C   0  0  0  0  0  0  0  0  0  0  0  0
  152.5440  143.0417  161.3643 N   0  0  0  0  0  0  0  0  0  0  0  0
  152.4186  142.3056  160.2391 C   0  0  0  0  0  0  0  0  0  0  0  0
  148.3420  141.7334  155.0012 C   0  0  0  0  0  0  0  0  0  0  0  0
  146.4649  143.7630  154.4950 H   0  0  0  0  0  0  0  0  0  0  0  0
  145.3691  142.7952  153.5119 H   0  0  0  0  0  0  0  0  0  0  0  0
  147.0139  143.0878  152.9630 H   0  0  0  0  0  0  0  0  0  0  0  0
  146.7779  140.8028  153.8500 H   0  0  0  0  0  0  0  0  0  0  0  0
  146.0420  142.1663  156.4706 H   0  0  0  0  0  0  0  0  0  0  0  0
  144.9402  141.2513  155.4811 H   0  0  0  0  0  0  0  0  0  0  0  0
  145.8886  139.1012  158.4588 H   0  0  0  0  0  0  0  0  0  0  0  0
  144.5548  139.9932  157.7370 H   0  0  0  0  0  0  0  0  0  0  0  0
  145.8750  140.8578  158.5052 H   0  0  0  0  0  0  0  0  0  0  0  0
  146.3196  137.8606  156.2323 H   0  0  0  0  0  0  0  0  0  0  0  0
  146.2996  138.7622  154.7252 H   0  0  0  0  0  0  0  0  0  0  0  0
  144.8683  138.6968  155.7086 H   0  0  0  0  0  0  0  0  0  0  0  0
  148.0679  140.7261  157.6739 H   0  0  0  0  0  0  0  0  0  0  0  0
  148.2054  139.0588  157.2383 H   0  0  0  0  0  0  0  0  0  0  0  0
  149.3938  138.3887  155.1918 H   0  0  0  0  0  0  0  0  0  0  0  0
  148.3104  139.1340  154.0530 H   0  0  0  0  0  0  0  0  0  0  0  0
  149.9723  139.4639  152.9288 H   0  0  0  0  0  0  0  0  0  0  0  0
  150.9971  140.5021  155.9133 H   0  0  0  0  0  0  0  0  0  0  0  0
  152.2887  140.9839  157.9725 H   0  0  0  0  0  0  0  0  0  0  0  0
  152.3472  142.4196  156.9684 H   0  0  0  0  0  0  0  0  0  0  0  0
  151.1285  144.6140  158.0840 H   0  0  0  0  0  0  0  0  0  0  0  0
  151.3548  145.9899  160.1676 H   0  0  0  0  0  0  0  0  0  0  0  0
  152.2783  144.9028  162.2303 H   0  0  0  0  0  0  0  0  0  0  0  0
  152.7354  141.2751  160.3068 H   0  0  0  0  0  0  0  0  0  0  0  0
  148.9620  141.9870  154.1404 H   0  0  0  0  0  0  0  0  0  0  0  0
  148.4233  142.5859  155.6784 H   0  0  0  0  0  0  0  0  0  0  0  0
  1  2  1  0  0  0  0
  1 22  1  0  0  0  0
  1 23  1  0  0  0  0
  1 24  1  0  0  0  0
  2 21  1  0  0  0  0
  2  3  1  0  0  0  0
  2 25  1  0  0  0  0
  3  4  1  0  0  0  0
  3 26  1  0  0  0  0
  3 27  1  0  0  0  0
  4  5  1  0  0  0  0
  4  6  1  0  0  0  0
  4  7  1  0  0  0  0
  5 28  1  0  0  0  0
  5 29  1  0  0  0  0
  5 30  1  0  0  0  0
  6 31  1  0  0  0  0
  6 32  1  0  0  0  0
  6 33  1  0  0  0  0
  7  8  1  0  0  0  0
  7 34  1  0  0  0  0
  7 35  1  0  0  0  0
  8  9  1  0  0  0  0
  8 11  1  0  0  0  0
  8 21  1  0  0  0  0
  9 10  1  0  0  0  0
  9 36  1  0  0  0  0
  9 37  1  0  0  0  0
 10 38  1  0  0  0  0
 11 12  1  0  0  0  0
 11 39  1  0  0  0  0
 12 13  2  0  0  0  0
 12 14  1  0  0  0  0
 14 15  1  0  0  0  0
 14 40  1  0  0  0  0
 14 41  1  0  0  0  0
 15 20  1  0  0  0  0
 15 16  2  0  0  0  0
 16 17  1  0  0  0  0
 16 42  1  0  0  0  0
 17 18  2  0  0  0  0
 17 43  1  0  0  0  0
 18 19  1  0  0  0  0
 18 44  1  0  0  0  0
 19 20  2  0  0  0  0
 20 45  1  0  0  0  0
 21 46  1  0  0  0  0
 21 47  1  0  0  0  0
M  END
> <s_m_source_file>
AV-unprocessed.smi

> <i_m_source_file_index>
2802

> <i_lp_mmshare_version>
43012

> <i_f3d_flags>
0

> <s_epik_input>
W0NIM11DMShbQ0gzXSlbQ0gyXVtDQEBIXShbQ0gzXSlbQ0gyXVtDQF0oW0NIMl0xKShbQ0gyXVtPSF0pW05IXUMoPU8pW0NIMl1jMltjSF1bY0hdW2NIXW5bY0hdMg==

> <s_epik_cmdline>
J2VwaWtfcHl0aG9uJywgJy1waCcsICc3LjAnLCAnLXRuJywgJzgnLCAnLW1hJywgJzIwMCcsICctbWV0YWxfYmluZGluZycsICctaW1hZScsICc8aW5maWxlLm1hZT4nLCAnLW9tYWUnLCAnPG91dGZpbGUubWFlPic=

> <r_epik_Ionization_Penalty>
0.004793

> <r_epik_Ionization_Penalty_Charging>
0

> <r_epik_Ionization_Penalty_Neutral>
0.004793

> <r_epik_State_Penalty>
0.00347421

> <r_epik_Charging_Adjusted_Penalty>
0.00347421

> <i_epik_Tot_Q>
0

> <i_epik_Tot_abs_Q>
0

> <r_epik_Metal_State_Penalty>
-0

> <b_epik_Metal_Only>
0

> <s_lp_Force_Field>
OPLS_2005

> <r_lp_Energy>
22.6418

> <b_lp_Chiralities_Consistent>
1

> <s_lp_Variant>
AV-unprocessed.smi:2802-3

> <Gold.Version>
5.8.1

> <Gold.Id.Protein>
6NUR|6NUR_protein|mol2

> <Gold.PLP.Fitness>
41.8770

> <Gold.PLP.PLP>
-36.6279

> <Gold.PLP.part.hbond>
-2.0000

> <Gold.PLP.part.metal>
0.0000

> <Gold.PLP.part.buried>
-6.0119

> <Gold.PLP.part.nonpolar>
-28.7865

> <Gold.PLP.part.repulsive>
0.2737

> <Gold.PLP.ligand.clash>
0.0000

> <Gold.PLP.ligand.torsion>
0.2982

> <Gold.PLP.Chemscore.Hbond>
1.9440

> <Gold.PLP.Chemscore.CHOScore>
0.0000

> <Gold.PLP.Chemscore.Metal>
0.0000

> <Gold.Chemscore.Hbonds>
donor molecule, donor type, donor heavy atom, donor atom, acceptor molecule, acceptor atom, score
      L1  H    10    38       P1  7957  1.00
      P1  H  7989  7998       L1    10  0.91

> <Gold.PLP.Chemscore.Internal.Correction>
0.0135

> <Gold.Rescore>
     Score         DG    S(hbond)    S(metal)    S(lipo)     H(rot)  DE(clash)    DE(int)     intcor
     14.29     -17.02       1.56        0.00      98.02       2.00       0.42       2.31       ----

> <Gold.Chemscore.Fitness>
14.2948

> <Gold.Chemscore.DG>
-17.0201

> <Gold.Chemscore.ZeroCoef>
-5.4800

> <Gold.Chemscore.Hbond>
1.5564

> <Gold.Chemscore.Metal>
0.0000

> <Gold.Chemscore.Lipo>
98.0195

> <Gold.Chemscore.Internal_Hbond>
0.0000

> <Gold.Chemscore.DEClash>
0.4189

> <Gold.Chemscore.DEInternal>
2.3063

> <Gold.Chemscore.Rot>
2.0026

> <Gold.Chemscore.Internal.Correction>
   9.000000E+99

> <Gold.Chemscore.Hbonds>
donor molecule, donor type, donor heavy atom, donor atom, acceptor molecule, acceptor atom, score
      L1  H    10    38       P1  7957  0.95
      P1  H  7989  7998       L1    10  0.20

> <Gold.Chemscore.Hbond.Weighted>
-5.1985

> <Gold.Chemscore.Metal.Weighted>
-0.0000

> <Gold.Chemscore.Lipo.Weighted>
-11.4683

> <Gold.Chemscore.Internal_Hbond.Weighted>
0.0000

> <Gold.Chemscore.DEClash.Weighted>
0.4189

> <Gold.Chemscore.DEInternal.Weighted>
2.3063

> <Gold.Chemscore.Rot.Weighted>
5.1267

> <Gold.Chemscore.Internal.Correction.Weighted>
   9.000000E+99

> <Gold.Protein.RotatedTorsions>
[ 6907 6896 6895 6894 ] final  145.57 input  -60.11 | X-H torsion
[ 7974 7965 7964 7962 ] final  151.30 input  175.53 | X-H torsion
[ 8008 7997 7996 7995 ] final  144.03 input   59.86 | X-H torsion
[ 10167 10162 10161 10158 ] final -167.84 input  -65.29 | X-H torsion
[ 10718 10713 10712 10709 ] final  -34.57 input   66.30 | X-H torsion
[ 10763 10752 10751 10750 ] final    3.26 input  -60.55 | X-H torsion
[ 11005 11000 10999 10996 ] final   -3.47 input  -57.11 | X-H torsion

> <Gold.Protein.ActiveResidues>
 VAL166  LYS551  ARG553  GLY616  TRP617  ASP618  TYR619  PRO620  LYS621  CYS622 
 ASP623  PHE694  ASN695  SER759  ASP760  ASP761  ALA762  ILE779  LEU786  VAL792 
 PHE793  MET794  SER795  GLU796  ALA797  LYS798  CYS799  TRP800  GLU811  SER814 

> <Gold.Protein.RotatedAtoms>
  152.1791  133.4695  159.4948 H   0  0  0  0  0  0  0  0  0  0  0  0  # atno 6907 bound_to 6896
  150.6931  134.1856  159.4274 H   0  0  0  0  0  0  0  0  0  0  0  0  # atno 6908 bound_to 6896
  151.9766  135.0049  160.0606 H   0  0  0  0  0  0  0  0  0  0  0  0  # atno 6909 bound_to 6896
  144.8302  139.6520  143.6062 H   0  0  0  0  0  0  0  0  0  0  0  0  # atno 7974 bound_to 7965
  156.2917  140.2246  156.4987 H   0  0  0  0  0  0  0  0  0  0  0  0  # atno 8008 bound_to 7997
  154.7708  140.0467  157.1071 H   0  0  0  0  0  0  0  0  0  0  0  0  # atno 8009 bound_to 7997
  154.9876  140.3086  155.4923 H   0  0  0  0  0  0  0  0  0  0  0  0  # atno 8010 bound_to 7997
  139.6023  144.0984  152.1756 H   0  0  0  0  0  0  0  0  0  0  0  0  # atno 10167 bound_to 10162
  156.3490  130.4305  149.7720 H   0  0  0  0  0  0  0  0  0  0  0  0  # atno 10718 bound_to 10713
  153.2854  135.6944  153.7344 H   0  0  0  0  0  0  0  0  0  0  0  0  # atno 10763 bound_to 10752
  153.6315  135.3409  155.3044 H   0  0  0  0  0  0  0  0  0  0  0  0  # atno 10764 bound_to 10752
  154.8508  135.4410  154.1921 H   0  0  0  0  0  0  0  0  0  0  0  0  # atno 10765 bound_to 10752
  140.6697  133.9247  155.8487 H   0  0  0  0  0  0  0  0  0  0  0  0  # atno 11005 bound_to 11000
  146.2605  139.6400  142.9365 LP  0  0  0  0  0  0  0  0  0  0  0  0  # atno 17320 bound_to 7965
  145.4912  141.0438  143.2592 LP  0  0  0  0  0  0  0  0  0  0  0  0  # atno 17321 bound_to 7965
  140.0583  144.5877  150.7282 LP  0  0  0  0  0  0  0  0  0  0  0  0  # atno 17342 bound_to 10162
  140.7259  143.2636  151.4121 LP  0  0  0  0  0  0  0  0  0  0  0  0  # atno 17343 bound_to 10162
  156.4928  130.8093  151.3101 LP  0  0  0  0  0  0  0  0  0  0  0  0  # atno 17370 bound_to 10713
  157.7458  130.9970  150.2799 LP  0  0  0  0  0  0  0  0  0  0  0  0  # atno 17371 bound_to 10713
  141.0402  134.0632  157.3911 LP  0  0  0  0  0  0  0  0  0  0  0  0  # atno 17394 bound_to 11000
  139.8986  135.0155  156.7154 LP  0  0  0  0  0  0  0  0  0  0  0  0  # atno 17395 bound_to 11000

$$$$
