AV-unprocessed.smi:132|AV-procd|sdf|1163|dock5
  -GOLD-   2262018303D 1   1.00000     0.00000
 Structure written by MMmdl.
 41 44  0  0  0  0  0  0  0  0  1 V2000
  153.1231  138.4901  159.0487 O   0  0  0  0  0  0  0  0  0  0  0  0
  152.6303  139.6132  158.9315 C   0  0  0  0  0  0  0  0  0  0  0  0
  153.0705  140.7667  159.7088 C   0  0  0  0  0  0  0  0  0  0  0  0
  154.0490  140.6214  160.6183 F   0  0  0  0  0  0  0  0  0  0  0  0
  152.5110  141.9825  159.5293 C   0  0  0  0  0  0  0  0  0  0  0  0
  151.5010  142.2224  158.6142 N   0  0  0  0  0  0  0  0  0  0  0  0
  150.9297  143.6110  158.4549 C   0  0  2  0  0  0  0  0  0  0  0  0
  152.0356  144.6096  158.0873 C   0  0  0  0  0  0  0  0  0  0  0  0
  152.2488  145.3542  159.3896 C   0  0  0  0  0  0  0  0  0  0  0  0
  150.8592  145.2999  160.0114 C   0  0  0  0  0  0  0  0  0  0  0  0
  150.3772  144.0050  159.6769 O   0  0  0  0  0  0  0  0  0  0  0  0
  151.0188  141.1676  157.8083 C   0  0  0  0  0  0  0  0  0  0  0  0
  150.1497  141.3622  156.9552 O   0  0  0  0  0  0  0  0  0  0  0  0
  151.5896  139.8884  158.0098 N   0  0  0  0  0  0  0  0  0  0  0  0
  151.1036  138.7944  157.1830 C   0  0  0  0  0  0  0  0  0  0  0  0
  150.4439  137.7192  157.9963 C   0  0  0  0  0  0  0  0  0  0  0  0
  150.8197  136.4475  158.1625 N   0  0  0  0  0  0  0  0  0  0  0  0
  149.8857  135.8862  159.0019 N   0  0  0  0  0  0  0  0  0  0  0  0
  149.0115  136.8567  159.2895 C   0  0  0  0  0  0  0  0  0  0  0  0
  147.8293  136.7900  160.1480 C   0  0  0  0  0  0  0  0  0  0  0  0
  146.5980  137.3472  159.7317 C   0  0  0  0  0  0  0  0  0  0  0  0
  145.4663  137.2805  160.5677 C   0  0  0  0  0  0  0  0  0  0  0  0
  145.5545  136.6564  161.8265 C   0  0  0  0  0  0  0  0  0  0  0  0
  144.1681  136.5770  162.8504 Cl  0  0  0  0  0  0  0  0  0  0  0  0
  146.7762  136.0980  162.2482 C   0  0  0  0  0  0  0  0  0  0  0  0
  147.9082  136.1644  161.4127 C   0  0  0  0  0  0  0  0  0  0  0  0
  149.3148  138.0351  158.6805 O   0  0  0  0  0  0  0  0  0  0  0  0
  152.8771  142.8015  160.1303 H   0  0  0  0  0  0  0  0  0  0  0  0
  150.1348  143.5549  157.7106 H   0  0  0  0  0  0  0  0  0  0  0  0
  152.9320  144.1158  157.7096 H   0  0  0  0  0  0  0  0  0  0  0  0
  151.6533  145.2828  157.3191 H   0  0  0  0  0  0  0  0  0  0  0  0
  152.9650  144.8226  160.0170 H   0  0  0  0  0  0  0  0  0  0  0  0
  152.6118  146.3721  159.2460 H   0  0  0  0  0  0  0  0  0  0  0  0
  150.8714  145.4569  161.0901 H   0  0  0  0  0  0  0  0  0  0  0  0
  150.2086  146.0515  159.5616 H   0  0  0  0  0  0  0  0  0  0  0  0
  150.4114  139.1923  156.4403 H   0  0  0  0  0  0  0  0  0  0  0  0
  151.9476  138.3917  156.6206 H   0  0  0  0  0  0  0  0  0  0  0  0
  146.5073  137.8315  158.7706 H   0  0  0  0  0  0  0  0  0  0  0  0
  144.5308  137.7101  160.2410 H   0  0  0  0  0  0  0  0  0  0  0  0
  146.8479  135.6185  163.2133 H   0  0  0  0  0  0  0  0  0  0  0  0
  148.8379  135.7314  161.7521 H   0  0  0  0  0  0  0  0  0  0  0  0
  1  2  2  0  0  0  0
  2 14  1  0  0  0  0
  2  3  1  0  0  0  0
  3  4  1  0  0  0  0
  3  5  2  0  0  0  0
  5  6  1  0  0  0  0
  5 28  1  0  0  0  0
  6  7  1  0  0  0  0
  6 12  1  0  0  0  0
  7 11  1  0  0  0  0
  7  8  1  0  0  0  0
  7 29  1  0  0  0  0
  8  9  1  0  0  0  0
  8 30  1  0  0  0  0
  8 31  1  0  0  0  0
  9 10  1  0  0  0  0
  9 32  1  0  0  0  0
  9 33  1  0  0  0  0
 10 11  1  0  0  0  0
 10 34  1  0  0  0  0
 10 35  1  0  0  0  0
 12 13  2  0  0  0  0
 12 14  1  0  0  0  0
 14 15  1  0  0  0  0
 15 16  1  0  0  0  0
 15 36  1  0  0  0  0
 15 37  1  0  0  0  0
 16 27  1  0  0  0  0
 16 17  2  0  0  0  0
 17 18  1  0  0  0  0
 18 19  2  0  0  0  0
 19 20  1  0  0  0  0
 19 27  1  0  0  0  0
 20 26  1  0  0  0  0
 20 21  2  0  0  0  0
 21 22  1  0  0  0  0
 21 38  1  0  0  0  0
 22 23  2  0  0  0  0
 22 39  1  0  0  0  0
 23 24  1  0  0  0  0
 23 25  1  0  0  0  0
 25 26  2  0  0  0  0
 25 40  1  0  0  0  0
 26 41  1  0  0  0  0
M  END
> <s_m_source_file>
AV-unprocessed.smi

> <i_m_source_file_index>
132

> <i_lp_mmshare_version>
43012

> <i_f3d_flags>
0

> <s_epik_input>
TzFbQ0gyXVtDSDJdW0NIMl1bQ0BIXTFuKFtjSF1jKEYpYzI9TyljKD1PKW4yW0NIMl1jM25uYyhvMyktYzRbY0hdW2NIXWMoQ2wpW2NIXVtjSF00

> <s_epik_cmdline>
J2VwaWtfcHl0aG9uJywgJy1waCcsICc3LjAnLCAnLXRuJywgJzgnLCAnLW1hJywgJzIwMCcsICctbWV0YWxfYmluZGluZycsICctaW1hZScsICc8aW5maWxlLm1hZT4nLCAnLW9tYWUnLCAnPG91dGZpbGUubWFlPic=

> <r_lp_tautomer_probability>
1

> <r_epik_Ionization_Penalty>
2.5553e-09

> <r_epik_Ionization_Penalty_Charging>
2.54231e-09

> <r_epik_Ionization_Penalty_Neutral>
1.29923e-11

> <r_epik_State_Penalty>
-0

> <r_epik_Charging_Adjusted_Penalty>
2.54231e-09

> <i_epik_Tot_Q>
0

> <i_epik_Tot_abs_Q>
0

> <r_epik_Metal_State_Penalty>
-0

> <b_epik_Metal_Only>
0

> <s_epik_Chemistry_Notes>
This compound contains an acetal/aminal-like group ( X-CH(R)-Y where X, Y are N, S, or O) that may be acid/base labile, releasing an aldehyde.

> <s_lp_Force_Field>
OPLS_2005

> <r_lp_Energy>
32.6339

> <b_lp_Chiralities_Consistent>
1

> <s_lp_Variant>
AV-unprocessed.smi:132-1

> <Gold.Version>
5.8.1

> <Gold.Id.Protein>
6NUR|6NUR_protein|mol2

> <Gold.PLP.Fitness>
50.8372

> <Gold.PLP.PLP>
-49.3968

> <Gold.PLP.part.hbond>
-1.9410

> <Gold.PLP.part.metal>
0.0000

> <Gold.PLP.part.buried>
-7.7562

> <Gold.PLP.part.nonpolar>
-39.7638

> <Gold.PLP.part.repulsive>
0.1940

> <Gold.PLP.ligand.clash>
0.0000

> <Gold.PLP.ligand.torsion>
0.7988

> <Gold.PLP.Chemscore.Hbond>
1.0000

> <Gold.PLP.Chemscore.CHOScore>
0.0000

> <Gold.PLP.Chemscore.Metal>
0.0000

> <Gold.Chemscore.Hbonds>
donor molecule, donor type, donor heavy atom, donor atom, acceptor molecule, acceptor atom, score
      P1  H  6896  6907       L1    18  1.00

> <Gold.PLP.Chemscore.Internal.Correction>
0.0379

> <Gold.Rescore>
     Score         DG    S(hbond)    S(metal)    S(lipo)     H(rot)  DE(clash)    DE(int)     intcor
     13.64     -15.48       0.89        0.00      97.33       1.70       0.03       1.81       ----

> <Gold.Chemscore.Fitness>
13.6445

> <Gold.Chemscore.DG>
-15.4794

> <Gold.Chemscore.ZeroCoef>
-5.4800

> <Gold.Chemscore.Hbond>
0.8858

> <Gold.Chemscore.Metal>
0.0000

> <Gold.Chemscore.Lipo>
97.3303

> <Gold.Chemscore.Internal_Hbond>
0.0000

> <Gold.Chemscore.DEClash>
0.0272

> <Gold.Chemscore.DEInternal>
1.8076

> <Gold.Chemscore.Rot>
1.6980

> <Gold.Chemscore.Internal.Correction>
   9.000000E+99

> <Gold.Chemscore.Hbonds>
donor molecule, donor type, donor heavy atom, donor atom, acceptor molecule, acceptor atom, score
      P1  H  6896  6907       L1    18  0.25

> <Gold.Chemscore.Hbond.Weighted>
-2.9586

> <Gold.Chemscore.Metal.Weighted>
-0.0000

> <Gold.Chemscore.Lipo.Weighted>
-11.3876

> <Gold.Chemscore.Internal_Hbond.Weighted>
0.0000

> <Gold.Chemscore.DEClash.Weighted>
0.0272

> <Gold.Chemscore.DEInternal.Weighted>
1.8076

> <Gold.Chemscore.Rot.Weighted>
4.3469

> <Gold.Chemscore.Internal.Correction.Weighted>
   9.000000E+99

> <Gold.Protein.RotatedTorsions>
[ 6907 6896 6895 6894 ] final  -63.42 input  -60.11 | X-H torsion
[ 7974 7965 7964 7962 ] final   47.81 input  175.53 | X-H torsion
[ 8008 7997 7996 7995 ] final  177.82 input   59.86 | X-H torsion
[ 10167 10162 10161 10158 ] final -174.57 input  -65.29 | X-H torsion
[ 10718 10713 10712 10709 ] final -118.58 input   66.30 | X-H torsion
[ 10763 10752 10751 10750 ] final  -80.22 input  -60.55 | X-H torsion
[ 11005 11000 10999 10996 ] final  117.43 input  -57.11 | X-H torsion

> <Gold.Protein.ActiveResidues>
 VAL166  LYS551  ARG553  GLY616  TRP617  ASP618  TYR619  PRO620  LYS621  CYS622 
 ASP623  PHE694  ASN695  SER759  ASP760  ASP761  ALA762  ILE779  LEU786  VAL792 
 PHE793  MET794  SER795  GLU796  ALA797  LYS798  CYS799  TRP800  GLU811  SER814 

> <Gold.Protein.RotatedAtoms>
  150.7651  134.6438  159.6250 H   0  0  0  0  0  0  0  0  0  0  0  0  # atno 6907 bound_to 6896
  152.3678  134.6776  160.0195 H   0  0  0  0  0  0  0  0  0  0  0  0  # atno 6908 bound_to 6896
  151.7145  133.3277  159.3336 H   0  0  0  0  0  0  0  0  0  0  0  0  # atno 6909 bound_to 6896
  146.0263  139.4710  142.9865 H   0  0  0  0  0  0  0  0  0  0  0  0  # atno 7974 bound_to 7965
  156.0614  140.1349  156.9936 H   0  0  0  0  0  0  0  0  0  0  0  0  # atno 8008 bound_to 7997
  154.4484  140.0990  156.6594 H   0  0  0  0  0  0  0  0  0  0  0  0  # atno 8009 bound_to 7997
  155.5371  140.3460  155.4441 H   0  0  0  0  0  0  0  0  0  0  0  0  # atno 8010 bound_to 7997
  139.5627  144.1831  152.1264 H   0  0  0  0  0  0  0  0  0  0  0  0  # atno 10167 bound_to 10162
  156.1117  130.6254  150.9309 H   0  0  0  0  0  0  0  0  0  0  0  0  # atno 10718 bound_to 10713
  154.5484  135.5668  153.6900 H   0  0  0  0  0  0  0  0  0  0  0  0  # atno 10763 bound_to 10752
  152.9983  135.6245  154.2407 H   0  0  0  0  0  0  0  0  0  0  0  0  # atno 10764 bound_to 10752
  154.2341  135.2865  155.2858 H   0  0  0  0  0  0  0  0  0  0  0  0  # atno 10765 bound_to 10752
  139.9074  134.9610  156.7350 H   0  0  0  0  0  0  0  0  0  0  0  0  # atno 11005 bound_to 11000
  145.7112  141.0105  143.1452 LP  0  0  0  0  0  0  0  0  0  0  0  0  # atno 17320 bound_to 7965
  144.7011  139.8759  143.7444 LP  0  0  0  0  0  0  0  0  0  0  0  0  # atno 17321 bound_to 7965
  140.1348  144.5256  150.6780 LP  0  0  0  0  0  0  0  0  0  0  0  0  # atno 17342 bound_to 10162
  140.6908  143.2375  151.5136 LP  0  0  0  0  0  0  0  0  0  0  0  0  # atno 17343 bound_to 10162
  157.6298  131.0922  150.8463 LP  0  0  0  0  0  0  0  0  0  0  0  0  # atno 17370 bound_to 10713
  156.8573  130.5101  149.5306 LP  0  0  0  0  0  0  0  0  0  0  0  0  # atno 17371 bound_to 10713
  140.6895  133.9403  155.7958 LP  0  0  0  0  0  0  0  0  0  0  0  0  # atno 17394 bound_to 11000
  141.0452  134.0564  157.3853 LP  0  0  0  0  0  0  0  0  0  0  0  0  # atno 17395 bound_to 11000

$$$$
