AV-unprocessed.smi:735|AV-procd|sdf|3534|dock3
  -GOLD-   22720 0523D 1   1.00000     0.00000
 Structure written by MMmdl.
 16 16  0  0  0  0  0  0  0  0  3 V2000
  151.0003  140.5722  154.9904 O   0  0  0  0  0  0  0  0  0  0  0  0
  151.5870  139.4888  155.2119 C   0  0  0  0  0  0  0  0  0  0  0  0
  152.8150  139.3789  155.4317 O   0  5  0  0  0  0  0  0  0  0  0  0
  150.7121  138.2240  155.2829 C   0  0  0  0  0  0  0  0  0  0  0  0
  149.6084  138.4872  154.5784 F   0  0  0  0  0  0  0  0  0  0  0  0
  151.3403  137.2304  154.6484 F   0  0  0  0  0  0  0  0  0  0  0  0
  150.3256  137.8317  156.7167 C   0  0  0  0  0  0  0  0  0  0  0  0
  149.5287  138.6195  157.4750 C   0  0  0  0  0  0  0  0  0  0  0  0
  149.1334  138.2508  158.7617 N   0  0  0  0  0  0  0  0  0  0  0  0
  149.5081  137.0760  159.3088 C   0  0  0  0  0  0  0  0  0  0  0  0
  149.1057  136.8228  160.4423 O   0  0  0  0  0  0  0  0  0  0  0  0
  150.3067  136.2456  158.5730 N   0  5  0  0  0  0  0  0  0  0  0  0
  150.7518  136.5513  157.3150 C   0  0  0  0  0  0  0  0  0  0  0  0
  151.5007  135.7929  156.7001 O   0  0  0  0  0  0  0  0  0  0  0  0
  148.5459  138.8869  159.2806 H   0  0  0  0  0  0  0  0  0  0  0  0
  149.1348  139.5719  157.1529 H   0  0  0  0  0  0  0  0  0  0  0  0
  1  2  2  0  0  0  0
  2  3  1  0  0  0  0
  2  4  1  0  0  0  0
  4  5  1  0  0  0  0
  4  6  1  0  0  0  0
  4  7  1  0  0  0  0
  7 13  1  0  0  0  0
  7  8  2  0  0  0  0
  8  9  1  0  0  0  0
  8 16  1  0  0  0  0
  9 15  1  0  0  0  0
  9 10  1  0  0  0  0
 10 11  2  0  0  0  0
 10 12  1  0  0  0  0
 12 13  1  0  0  0  0
 13 14  2  0  0  0  0
M  CHG  1   3  -1
M  CHG  1  12  -1
M  END
> <s_m_source_file>
AV-unprocessed.smi

> <i_m_source_file_index>
735

> <i_lp_mmshare_version>
43012

> <i_f3d_flags>
0

> <s_epik_input>
Tz1DKFtPSF0pQyhGKShGKWMxW2NIXVtuSF1jKD1PKVtuSF1jMT1P

> <s_epik_cmdline>
J2VwaWtfcHl0aG9uJywgJy1waCcsICc3LjAnLCAnLXRuJywgJzgnLCAnLW1hJywgJzIwMCcsICctbWV0YWxfYmluZGluZycsICctaW1hZScsICc8aW5maWxlLm1hZT4nLCAnLW9tYWUnLCAnPG91dGZpbGUubWFlPic=

> <r_lp_tautomer_probability>
0.999514

> <r_epik_Ionization_Penalty>
1.58373

> <r_epik_Ionization_Penalty_Charging>
0.000433443

> <r_epik_Ionization_Penalty_Neutral>
1.5833

> <r_epik_State_Penalty>
2.35383

> <r_epik_Charging_Adjusted_Penalty>
2.35426

> <i_epik_Tot_Q>
-2

> <i_epik_Tot_abs_Q>
2

> <r_epik_Metal_State_Penalty>
1.75831

> <b_epik_Metal_Only>
1

> <s_lp_Force_Field>
OPLS_2005

> <r_lp_Energy>
21.8504

> <b_lp_Chiralities_Consistent>
1

> <s_lp_Variant>
AV-unprocessed.smi:735-3

> <Gold.Version>
5.8.1

> <Gold.Id.Protein>
6NUR|6NUR_protein|mol2

> <Gold.PLP.Fitness>
32.7823

> <Gold.PLP.PLP>
-16.5810

> <Gold.PLP.part.hbond>
-3.9688

> <Gold.PLP.part.metal>
0.0000

> <Gold.PLP.part.buried>
-1.0988

> <Gold.PLP.part.nonpolar>
-11.7288

> <Gold.PLP.part.repulsive>
0.2771

> <Gold.PLP.ligand.clash>
0.0000

> <Gold.PLP.ligand.torsion>
0.9817

> <Gold.PLP.Chemscore.Hbond>
6.0298

> <Gold.PLP.Chemscore.CHOScore>
0.0000

> <Gold.PLP.Chemscore.Metal>
0.0000

> <Gold.Chemscore.Hbonds>
donor molecule, donor type, donor heavy atom, donor atom, acceptor molecule, acceptor atom, score
      P1  H  6896  6909       L1    12  2.00
      P1  H  6931  6943       L1    11  0.70
      P1  H  7989  7998       L1     1  0.88
      P1  H  7997  8008       L1     3  2.00
      P1  H 10752 10764       L1    14  0.23

> <Gold.PLP.Chemscore.Internal.Correction>
0.0756

> <Gold.Rescore>
     Score         DG    S(hbond)    S(metal)    S(lipo)     H(rot)  DE(clash)    DE(int)     intcor
     11.46     -14.05       3.61        0.00       9.75       1.81       0.09       2.49       ----

> <Gold.Chemscore.Fitness>
11.4648

> <Gold.Chemscore.DG>
-14.0492

> <Gold.Chemscore.ZeroCoef>
-5.4800

> <Gold.Chemscore.Hbond>
3.6087

> <Gold.Chemscore.Metal>
0.0000

> <Gold.Chemscore.Lipo>
9.7490

> <Gold.Chemscore.Internal_Hbond>
0.0000

> <Gold.Chemscore.DEClash>
0.0898

> <Gold.Chemscore.DEInternal>
2.4945

> <Gold.Chemscore.Rot>
1.8064

> <Gold.Chemscore.Internal.Correction>
   9.000000E+99

> <Gold.Chemscore.Hbonds>
donor molecule, donor type, donor heavy atom, donor atom, acceptor molecule, acceptor atom, score
      P1  H  6896  6909       L1    12  0.58
      P1  H  6931  6943       L1    11  0.64
      P1  H  7989  7998       L1     1  0.17
      P1  H  7997  8008       L1     3  0.95
      P1  H 10752 10764       L1    14  0.23

> <Gold.Chemscore.Hbond.Weighted>
-12.0530

> <Gold.Chemscore.Metal.Weighted>
-0.0000

> <Gold.Chemscore.Lipo.Weighted>
-1.1406

> <Gold.Chemscore.Internal_Hbond.Weighted>
0.0000

> <Gold.Chemscore.DEClash.Weighted>
0.0898

> <Gold.Chemscore.DEInternal.Weighted>
2.4945

> <Gold.Chemscore.Rot.Weighted>
4.6244

> <Gold.Chemscore.Internal.Correction.Weighted>
   9.000000E+99

> <Gold.Protein.RotatedTorsions>
[ 6907 6896 6895 6894 ] final   76.81 input  -60.11 | X-H torsion
[ 7974 7965 7964 7962 ] final  -40.96 input  175.53 | X-H torsion
[ 8008 7997 7996 7995 ] final   -6.53 input   59.86 | X-H torsion
[ 10167 10162 10161 10158 ] final   -0.09 input  -65.29 | X-H torsion
[ 10718 10713 10712 10709 ] final -122.50 input   66.30 | X-H torsion
[ 10763 10752 10751 10750 ] final  -24.91 input  -60.55 | X-H torsion
[ 11005 11000 10999 10996 ] final  148.93 input  -57.11 | X-H torsion

> <Gold.Protein.ActiveResidues>
 VAL166  LYS551  ARG553  GLY616  TRP617  ASP618  TYR619  PRO620  LYS621  CYS622 
 ASP623  PHE694  ASN695  SER759  ASP760  ASP761  ALA762  ILE779  LEU786  VAL792 
 PHE793  MET794  SER795  GLU796  ALA797  LYS798  CYS799  TRP800  GLU811  SER814 

> <Gold.Protein.RotatedAtoms>
  152.5090  134.3912  159.9384 H   0  0  0  0  0  0  0  0  0  0  0  0  # atno 6907 bound_to 6896
  151.3872  133.3795  159.2724 H   0  0  0  0  0  0  0  0  0  0  0  0  # atno 6908 bound_to 6896
  150.9460  134.8885  159.7701 H   0  0  0  0  0  0  0  0  0  0  0  0  # atno 6909 bound_to 6896
  146.0256  140.6796  142.9157 H   0  0  0  0  0  0  0  0  0  0  0  0  # atno 7974 bound_to 7965
  154.5928  140.2430  155.7897 H   0  0  0  0  0  0  0  0  0  0  0  0  # atno 8008 bound_to 7997
  156.2259  140.2982  156.0020 H   0  0  0  0  0  0  0  0  0  0  0  0  # atno 8009 bound_to 7997
  155.2344  140.0405  157.2957 H   0  0  0  0  0  0  0  0  0  0  0  0  # atno 8010 bound_to 7997
  140.6752  143.6936  150.8007 H   0  0  0  0  0  0  0  0  0  0  0  0  # atno 10167 bound_to 10162
  156.1424  130.6475  150.9790 H   0  0  0  0  0  0  0  0  0  0  0  0  # atno 10718 bound_to 10713
  153.6913  135.6961  153.5089 H   0  0  0  0  0  0  0  0  0  0  0  0  # atno 10763 bound_to 10752
  153.2411  135.4305  155.0698 H   0  0  0  0  0  0  0  0  0  0  0  0  # atno 10764 bound_to 10752
  154.8372  135.3508  154.6454 H   0  0  0  0  0  0  0  0  0  0  0  0  # atno 10765 bound_to 10752
  140.1002  134.8988  157.1784 H   0  0  0  0  0  0  0  0  0  0  0  0  # atno 11005 bound_to 11000
  144.7008  140.3643  143.7158 LP  0  0  0  0  0  0  0  0  0  0  0  0  # atno 17320 bound_to 7965
  145.7124  139.1688  143.2531 LP  0  0  0  0  0  0  0  0  0  0  0  0  # atno 17321 bound_to 7965
  140.0628  143.5138  152.2619 LP  0  0  0  0  0  0  0  0  0  0  0  0  # atno 17342 bound_to 10162
  139.6040  144.7591  151.3104 LP  0  0  0  0  0  0  0  0  0  0  0  0  # atno 17343 bound_to 10162
  157.6587  131.0885  150.7888 LP  0  0  0  0  0  0  0  0  0  0  0  0  # atno 17370 bound_to 10713
  156.7963  130.4906  149.5377 LP  0  0  0  0  0  0  0  0  0  0  0  0  # atno 17371 bound_to 10713
  140.3231  134.2894  155.7242 LP  0  0  0  0  0  0  0  0  0  0  0  0  # atno 17394 bound_to 11000
  141.2103  133.7722  156.9939 LP  0  0  0  0  0  0  0  0  0  0  0  0  # atno 17395 bound_to 11000

$$$$
