AV-unprocessed.smi:609|AV-procd|sdf|3046|dock4
  -GOLD-   2262023563D 1   1.00000     0.00000
 Structure written by MMmdl.
 43 45  0  0  0  0  0  0  0  0  2 V2000
  153.1178  143.0154  161.0000 C   0  0  0  0  0  0  0  0  0  0  0  0
  152.3731  142.7300  159.7078 C   0  0  0  0  0  0  0  0  0  0  0  0
  152.6744  141.5524  158.9871 C   0  0  0  0  0  0  0  0  0  0  0  0
  152.0038  141.2488  157.7822 C   0  0  0  0  0  0  0  0  0  0  0  0
  152.1404  140.1714  156.9237 N   0  0  0  0  0  0  0  0  0  0  0  0
  151.2476  140.4631  155.9821 C   0  0  0  0  0  0  0  0  0  0  0  0
  150.5504  141.6062  156.1273 N   0  0  0  0  0  0  0  0  0  0  0  0
  149.5397  142.1322  155.2275 C   0  0  0  0  0  0  0  0  0  0  0  0
  148.1938  141.3888  155.3419 C   0  0  1  0  0  0  0  0  0  0  0  0
  147.1612  142.3488  155.2489 O   0  0  0  0  0  0  0  0  0  0  0  0
  147.9875  140.3127  154.2587 C   0  0  0  0  0  0  0  0  0  0  0  0
  146.4118  139.4312  154.4410 S   0  0  0  0  0  0  0  0  0  0  0  0
  146.4056  138.2187  153.1558 C   0  0  0  0  0  0  0  0  0  0  0  0
  145.5482  138.1689  152.1315 N   0  3  0  0  0  0  0  0  0  0  0  0
  145.8427  137.0978  151.3310 C   0  0  0  0  0  0  0  0  0  0  0  0
  146.9258  136.4728  151.8971 C   0  0  0  0  0  0  0  0  0  0  0  0
  147.2514  137.1876  153.0219 N   0  0  0  0  0  0  0  0  0  0  0  0
  148.3404  136.9107  153.9597 C   0  0  0  0  0  0  0  0  0  0  0  0
  151.0149  142.1625  157.3147 C   0  0  0  0  0  0  0  0  0  0  0  0
  150.7056  143.3374  158.0230 C   0  0  0  0  0  0  0  0  0  0  0  0
  151.3860  143.6261  159.2244 C   0  0  0  0  0  0  0  0  0  0  0  0
  151.0448  144.8966  159.9824 C   0  0  0  0  0  0  0  0  0  0  0  0
  153.8188  142.2156  161.2406 H   0  0  0  0  0  0  0  0  0  0  0  0
  152.4192  143.1073  161.8320 H   0  0  0  0  0  0  0  0  0  0  0  0
  153.6839  143.9435  160.9180 H   0  0  0  0  0  0  0  0  0  0  0  0
  153.4262  140.8696  159.3551 H   0  0  0  0  0  0  0  0  0  0  0  0
  151.0943  139.8110  155.1346 H   0  0  0  0  0  0  0  0  0  0  0  0
  149.4053  143.1925  155.4467 H   0  0  0  0  0  0  0  0  0  0  0  0
  149.9220  142.0729  154.2076 H   0  0  0  0  0  0  0  0  0  0  0  0
  148.1295  140.9219  156.3257 H   0  0  0  0  0  0  0  0  0  0  0  0
  147.5093  143.1902  155.5027 H   0  0  0  0  0  0  0  0  0  0  0  0
  148.0328  140.7587  153.2644 H   0  0  0  0  0  0  0  0  0  0  0  0
  148.7800  139.5666  154.3114 H   0  0  0  0  0  0  0  0  0  0  0  0
  145.2746  136.8663  150.4418 H   0  0  0  0  0  0  0  0  0  0  0  0
  147.4745  135.5945  151.5890 H   0  0  0  0  0  0  0  0  0  0  0  0
  148.8942  136.0320  153.6282 H   0  0  0  0  0  0  0  0  0  0  0  0
  147.9250  136.7242  154.9504 H   0  0  0  0  0  0  0  0  0  0  0  0
  149.0121  137.7688  153.9956 H   0  0  0  0  0  0  0  0  0  0  0  0
  149.9511  144.0107  157.6440 H   0  0  0  0  0  0  0  0  0  0  0  0
  150.2755  145.4731  159.4677 H   0  0  0  0  0  0  0  0  0  0  0  0
  151.9260  145.5300  160.0844 H   0  0  0  0  0  0  0  0  0  0  0  0
  150.6722  144.6578  160.9788 H   0  0  0  0  0  0  0  0  0  0  0  0
  144.7956  138.8267  151.9737 H   0  0  0  0  0  0  0  0  0  0  0  0
  1  2  1  0  0  0  0
  1 23  1  0  0  0  0
  1 24  1  0  0  0  0
  1 25  1  0  0  0  0
  2 21  1  0  0  0  0
  2  3  2  0  0  0  0
  3  4  1  0  0  0  0
  3 26  1  0  0  0  0
  4 19  2  0  0  0  0
  4  5  1  0  0  0  0
  5  6  2  0  0  0  0
  6  7  1  0  0  0  0
  6 27  1  0  0  0  0
  7  8  1  0  0  0  0
  7 19  1  0  0  0  0
  8  9  1  0  0  0  0
  8 28  1  0  0  0  0
  8 29  1  0  0  0  0
  9 10  1  0  0  0  0
  9 11  1  0  0  0  0
  9 30  1  0  0  0  0
 10 31  1  0  0  0  0
 11 12  1  0  0  0  0
 11 32  1  0  0  0  0
 11 33  1  0  0  0  0
 12 13  1  0  0  0  0
 13 17  1  0  0  0  0
 13 14  2  0  0  0  0
 14 15  1  0  0  0  0
 14 43  1  0  0  0  0
 15 16  2  0  0  0  0
 15 34  1  0  0  0  0
 16 17  1  0  0  0  0
 16 35  1  0  0  0  0
 17 18  1  0  0  0  0
 18 36  1  0  0  0  0
 18 37  1  0  0  0  0
 18 38  1  0  0  0  0
 19 20  1  0  0  0  0
 20 21  2  0  0  0  0
 20 39  1  0  0  0  0
 21 22  1  0  0  0  0
 22 40  1  0  0  0  0
 22 41  1  0  0  0  0
 22 42  1  0  0  0  0
M  CHG  1  14   1
M  END
> <s_m_source_file>
AV-unprocessed.smi

> <i_m_source_file_index>
609

> <i_lp_mmshare_version>
43012

> <i_f3d_flags>
0

> <s_epik_input>
W0NIM11jKFtjSF0xKWMoW0NIM10pW2NIXWMoYzEyKW4oW2NIXW4yKVtDSDJdW0NASF0oW09IXSlbQ0gyXVNjM25bY0hdW2NIXW4zW0NIM10=

> <s_epik_cmdline>
J2VwaWtfcHl0aG9uJywgJy1waCcsICc3LjAnLCAnLXRuJywgJzgnLCAnLW1hJywgJzIwMCcsICctbWV0YWxfYmluZGluZycsICctaW1hZScsICc8aW5maWxlLm1hZT4nLCAnLW9tYWUnLCAnPG91dGZpbGUubWFlPic=

> <r_lp_tautomer_probability>
1

> <r_epik_Ionization_Penalty>
0.215713

> <r_epik_Ionization_Penalty_Charging>
0

> <r_epik_Ionization_Penalty_Neutral>
0.215713

> <r_epik_State_Penalty>
0.19579

> <r_epik_Charging_Adjusted_Penalty>
0.19579

> <i_epik_Tot_Q>
1

> <i_epik_Tot_abs_Q>
1

> <r_epik_Metal_State_Penalty>
0.429751

> <b_epik_Metal_Only>
0

> <s_lp_Force_Field>
OPLS_2005

> <r_lp_Energy>
9.84341

> <b_lp_Chiralities_Consistent>
1

> <s_lp_Variant>
AV-unprocessed.smi:609-2

> <Gold.Version>
5.8.1

> <Gold.Id.Protein>
6NUR|6NUR_protein|mol2

> <Gold.PLP.Fitness>
47.8158

> <Gold.PLP.PLP>
-40.3147

> <Gold.PLP.part.hbond>
-2.9074

> <Gold.PLP.part.metal>
0.0000

> <Gold.PLP.part.buried>
-3.8728

> <Gold.PLP.part.nonpolar>
-33.2745

> <Gold.PLP.part.repulsive>
0.0000

> <Gold.PLP.ligand.clash>
0.0000

> <Gold.PLP.ligand.torsion>
0.7602

> <Gold.PLP.Chemscore.Hbond>
3.0000

> <Gold.PLP.Chemscore.CHOScore>
0.0000

> <Gold.PLP.Chemscore.Metal>
0.0000

> <Gold.Chemscore.Hbonds>
donor molecule, donor type, donor heavy atom, donor atom, acceptor molecule, acceptor atom, score
      L1  H    10    31       P1  8028  0.90
      L1  H    14    43       P1 10175  2.00
      P1  H  7997  8008       L1     5  0.11

> <Gold.PLP.Chemscore.Internal.Correction>
0.0215

> <Gold.Rescore>
     Score         DG    S(hbond)    S(metal)    S(lipo)     H(rot)  DE(clash)    DE(int)     intcor
     17.53     -18.29       1.95        0.00     109.00       2.52       0.02       0.75       ----

> <Gold.Chemscore.Fitness>
17.5257

> <Gold.Chemscore.DG>
-18.2950

> <Gold.Chemscore.ZeroCoef>
-5.4800

> <Gold.Chemscore.Hbond>
1.9463

> <Gold.Chemscore.Metal>
0.0000

> <Gold.Chemscore.Lipo>
109.0048

> <Gold.Chemscore.Internal_Hbond>
0.0000

> <Gold.Chemscore.DEClash>
0.0199

> <Gold.Chemscore.DEInternal>
0.7494

> <Gold.Chemscore.Rot>
2.5153

> <Gold.Chemscore.Internal.Correction>
   9.000000E+99

> <Gold.Chemscore.Hbonds>
donor molecule, donor type, donor heavy atom, donor atom, acceptor molecule, acceptor atom, score
      L1  H    10    31       P1  8028  0.17
      L1  H    14    43       P1 10175  0.91
      P1  H  7997  8008       L1     5  0.07

> <Gold.Chemscore.Hbond.Weighted>
-6.5006

> <Gold.Chemscore.Metal.Weighted>
-0.0000

> <Gold.Chemscore.Lipo.Weighted>
-12.7536

> <Gold.Chemscore.Internal_Hbond.Weighted>
0.0000

> <Gold.Chemscore.DEClash.Weighted>
0.0199

> <Gold.Chemscore.DEInternal.Weighted>
0.7494

> <Gold.Chemscore.Rot.Weighted>
6.4391

> <Gold.Chemscore.Internal.Correction.Weighted>
   9.000000E+99

> <Gold.Protein.RotatedTorsions>
[ 6907 6896 6895 6894 ] final   65.64 input  -60.11 | X-H torsion
[ 7974 7965 7964 7962 ] final  -89.48 input  175.53 | X-H torsion
[ 8008 7997 7996 7995 ] final  -27.72 input   59.86 | X-H torsion
[ 10167 10162 10161 10158 ] final  -37.19 input  -65.29 | X-H torsion
[ 10718 10713 10712 10709 ] final  -18.21 input   66.30 | X-H torsion
[ 10763 10752 10751 10750 ] final   45.74 input  -60.55 | X-H torsion
[ 11005 11000 10999 10996 ] final  -91.75 input  -57.11 | X-H torsion

> <Gold.Protein.ActiveResidues>
 VAL166  LYS551  ARG553  GLY616  TRP617  ASP618  TYR619  PRO620  LYS621  CYS622 
 ASP623  PHE694  ASN695  SER759  ASP760  ASP761  ALA762  ILE779  LEU786  VAL792 
 PHE793  MET794  SER795  GLU796  ALA797  LYS798  CYS799  TRP800  GLU811  SER814 

> <Gold.Protein.RotatedAtoms>
  152.4422  134.5567  159.9882 H   0  0  0  0  0  0  0  0  0  0  0  0  # atno 6907 bound_to 6896
  151.5661  133.3390  159.2988 H   0  0  0  0  0  0  0  0  0  0  0  0  # atno 6908 bound_to 6896
  150.8331  134.7626  159.6934 H   0  0  0  0  0  0  0  0  0  0  0  0  # atno 6909 bound_to 6896
  145.4392  140.9558  143.2085 H   0  0  0  0  0  0  0  0  0  0  0  0  # atno 7974 bound_to 7965
  154.4364  140.1865  156.0976 H   0  0  0  0  0  0  0  0  0  0  0  0  # atno 8008 bound_to 7997
  156.0317  140.3330  155.7121 H   0  0  0  0  0  0  0  0  0  0  0  0  # atno 8009 bound_to 7997
  155.5829  140.0623  157.2769 H   0  0  0  0  0  0  0  0  0  0  0  0  # atno 8010 bound_to 7997
  140.7124  143.3358  151.2466 H   0  0  0  0  0  0  0  0  0  0  0  0  # atno 10167 bound_to 10162
  156.5628  130.4730  149.6399 H   0  0  0  0  0  0  0  0  0  0  0  0  # atno 10718 bound_to 10713
  152.9820  135.6030  154.3485 H   0  0  0  0  0  0  0  0  0  0  0  0  # atno 10763 bound_to 10752
  154.3176  135.2770  155.2537 H   0  0  0  0  0  0  0  0  0  0  0  0  # atno 10764 bound_to 10752
  154.4718  135.5940  153.6383 H   0  0  0  0  0  0  0  0  0  0  0  0  # atno 10765 bound_to 10752
  141.1538  133.7776  156.9924 H   0  0  0  0  0  0  0  0  0  0  0  0  # atno 11005 bound_to 11000
  144.8132  139.5923  143.7020 LP  0  0  0  0  0  0  0  0  0  0  0  0  # atno 17320 bound_to 7965
  146.2565  139.6315  142.9391 LP  0  0  0  0  0  0  0  0  0  0  0  0  # atno 17321 bound_to 7965
  139.6853  143.9785  152.2830 LP  0  0  0  0  0  0  0  0  0  0  0  0  # atno 17342 bound_to 10162
  139.9428  144.6670  150.8249 LP  0  0  0  0  0  0  0  0  0  0  0  0  # atno 17343 bound_to 10162
  156.2784  130.7057  151.1874 LP  0  0  0  0  0  0  0  0  0  0  0  0  # atno 17370 bound_to 10713
  157.7365  131.0562  150.5411 LP  0  0  0  0  0  0  0  0  0  0  0  0  # atno 17371 bound_to 10713
  140.0994  134.9544  157.1900 LP  0  0  0  0  0  0  0  0  0  0  0  0  # atno 17394 bound_to 11000
  140.3338  134.2780  155.7223 LP  0  0  0  0  0  0  0  0  0  0  0  0  # atno 17395 bound_to 11000

$$$$
