AV-unprocessed.smi:2067|AV-procd|sdf|8424|dock9
  -GOLD-   2272011113D 1   1.00000     0.00000
 Structure written by MMmdl.
 47 48  0  0  0  0  0  0  0  0  1 V2000
  147.1333  142.2152  154.0800 C   0  0  0  0  0  0  0  0  0  0  0  0
  146.5619  140.8481  153.6730 C   0  0  1  0  0  0  0  0  0  0  0  0
  147.2271  140.3061  152.3919 C   0  0  0  0  0  0  0  0  0  0  0  0
  146.6218  138.9579  151.9700 C   0  0  0  0  0  0  0  0  0  0  0  0
  146.7047  137.9308  153.1088 C   0  0  0  0  0  0  0  0  0  0  0  0
  146.0418  138.4643  154.3897 C   0  0  0  0  0  0  0  0  0  0  0  0
  146.6417  139.8194  154.8233 C   0  0  1  0  0  0  0  0  0  0  0  0
  148.0061  139.6530  155.1937 O   0  0  0  0  0  0  0  0  0  0  0  0
  148.4196  140.4599  156.2859 C   0  0  0  0  0  0  0  0  0  0  0  0
  149.5071  141.4225  155.8016 C   0  0  0  0  0  0  0  0  0  0  0  0
  149.9214  142.3182  156.8699 N   0  0  0  0  0  0  0  0  0  0  0  0
  150.9792  142.1153  157.7494 C   0  0  0  0  0  0  0  0  0  0  0  0
  151.7422  140.9879  157.6920 C   0  0  0  0  0  0  0  0  0  0  0  0
  151.5041  139.9263  156.7650 C   0  0  0  0  0  0  0  0  0  0  0  0
  151.3215  139.0753  156.0013 N   0  0  0  0  0  0  0  0  0  0  0  0
  152.8521  140.7548  158.6137 C   0  0  0  0  0  0  0  0  0  0  0  0
  153.5574  139.7434  158.5957 O   0  0  0  0  0  0  0  0  0  0  0  0
  153.0620  141.7822  159.5563 N   0  0  0  0  0  0  0  0  0  0  0  0
  154.1439  141.5901  160.5022 C   0  0  0  0  0  0  0  0  0  0  0  0
  152.2688  142.9445  159.6561 C   0  0  0  0  0  0  0  0  0  0  0  0
  152.4719  143.7946  160.5284 O   0  0  0  0  0  0  0  0  0  0  0  0
  151.2216  143.0969  158.7143 N   0  0  0  0  0  0  0  0  0  0  0  0
  150.4671  144.3267  158.8461 C   0  0  0  0  0  0  0  0  0  0  0  0
  148.1994  142.1532  154.3011 H   0  0  0  0  0  0  0  0  0  0  0  0
  146.6314  142.6018  154.9672 H   0  0  0  0  0  0  0  0  0  0  0  0
  147.0029  142.9472  153.2825 H   0  0  0  0  0  0  0  0  0  0  0  0
  145.5052  141.0028  153.4495 H   0  0  0  0  0  0  0  0  0  0  0  0
  147.1135  141.0254  151.5800 H   0  0  0  0  0  0  0  0  0  0  0  0
  148.3001  140.1902  152.5511 H   0  0  0  0  0  0  0  0  0  0  0  0
  145.5797  139.1000  151.6806 H   0  0  0  0  0  0  0  0  0  0  0  0
  147.1385  138.5778  151.0883 H   0  0  0  0  0  0  0  0  0  0  0  0
  146.2282  136.9986  152.8041 H   0  0  0  0  0  0  0  0  0  0  0  0
  147.7499  137.6922  153.3076 H   0  0  0  0  0  0  0  0  0  0  0  0
  144.9727  138.5875  154.2128 H   0  0  0  0  0  0  0  0  0  0  0  0
  146.1298  137.7263  155.1864 H   0  0  0  0  0  0  0  0  0  0  0  0
  146.0757  140.2111  155.6706 H   0  0  0  0  0  0  0  0  0  0  0  0
  147.5647  141.0283  156.6543 H   0  0  0  0  0  0  0  0  0  0  0  0
  148.7926  139.8584  157.1153 H   0  0  0  0  0  0  0  0  0  0  0  0
  150.3713  140.8729  155.4275 H   0  0  0  0  0  0  0  0  0  0  0  0
  149.1098  142.0049  154.9704 H   0  0  0  0  0  0  0  0  0  0  0  0
  149.7482  143.2865  156.6405 H   0  0  0  0  0  0  0  0  0  0  0  0
  154.4135  142.5301  160.9825 H   0  0  0  0  0  0  0  0  0  0  0  0
  155.0161  141.2254  159.9567 H   0  0  0  0  0  0  0  0  0  0  0  0
  153.7982  140.8609  161.2362 H   0  0  0  0  0  0  0  0  0  0  0  0
  149.9727  144.3037  159.8189 H   0  0  0  0  0  0  0  0  0  0  0  0
  149.7277  144.4103  158.0536 H   0  0  0  0  0  0  0  0  0  0  0  0
  151.1712  145.1573  158.7679 H   0  0  0  0  0  0  0  0  0  0  0  0
  1  2  1  0  0  0  0
  1 24  1  0  0  0  0
  1 25  1  0  0  0  0
  1 26  1  0  0  0  0
  2  7  1  0  0  0  0
  2  3  1  0  0  0  0
  2 27  1  0  0  0  0
  3  4  1  0  0  0  0
  3 28  1  0  0  0  0
  3 29  1  0  0  0  0
  4  5  1  0  0  0  0
  4 30  1  0  0  0  0
  4 31  1  0  0  0  0
  5  6  1  0  0  0  0
  5 32  1  0  0  0  0
  5 33  1  0  0  0  0
  6  7  1  0  0  0  0
  6 34  1  0  0  0  0
  6 35  1  0  0  0  0
  7  8  1  0  0  0  0
  7 36  1  0  0  0  0
  8  9  1  0  0  0  0
  9 10  1  0  0  0  0
  9 37  1  0  0  0  0
  9 38  1  0  0  0  0
 10 11  1  0  0  0  0
 10 39  1  0  0  0  0
 10 40  1  0  0  0  0
 11 12  1  0  0  0  0
 11 41  1  0  0  0  0
 12 22  1  0  0  0  0
 12 13  2  0  0  0  0
 13 14  1  0  0  0  0
 13 16  1  0  0  0  0
 14 15  3  0  0  0  0
 16 17  2  0  0  0  0
 16 18  1  0  0  0  0
 18 19  1  0  0  0  0
 18 20  1  0  0  0  0
 19 42  1  0  0  0  0
 19 43  1  0  0  0  0
 19 44  1  0  0  0  0
 20 21  2  0  0  0  0
 20 22  1  0  0  0  0
 22 23  1  0  0  0  0
 23 45  1  0  0  0  0
 23 46  1  0  0  0  0
 23 47  1  0  0  0  0
M  END
> <s_m_source_file>
AV-unprocessed.smi

> <i_m_source_file_index>
2067

> <i_lp_mmshare_version>
43012

> <i_f3d_flags>
0

> <s_epik_input>
W0NIM11bQ0BASF0xW0NIMl1bQ0gyXVtDSDJdW0NIMl1bQ0BIXTFPW0NIMl1bQ0gyXVtOSF1jMmMoQyNOKWMoPU8pbihbQ0gzXSljKD1PKW4yW0NIM10=

> <s_epik_cmdline>
J2VwaWtfcHl0aG9uJywgJy1waCcsICc3LjAnLCAnLXRuJywgJzgnLCAnLW1hJywgJzIwMCcsICctbWV0YWxfYmluZGluZycsICctaW1hZScsICc8aW5maWxlLm1hZT4nLCAnLW9tYWUnLCAnPG91dGZpbGUubWFlPic=

> <r_epik_Ionization_Penalty>
0.00056529

> <r_epik_Ionization_Penalty_Charging>
3.94678e-10

> <r_epik_Ionization_Penalty_Neutral>
0.000565289

> <r_epik_State_Penalty>
0.000354611

> <r_epik_Charging_Adjusted_Penalty>
0.000354611

> <i_epik_Tot_Q>
0

> <i_epik_Tot_abs_Q>
0

> <r_epik_Metal_State_Penalty>
-0

> <b_epik_Metal_Only>
0

> <s_lp_Force_Field>
OPLS_2005

> <r_lp_Energy>
33.1423

> <b_lp_Chiralities_Consistent>
1

> <s_lp_Variant>
AV-unprocessed.smi:2067-2

> <Gold.Version>
5.8.1

> <Gold.Id.Protein>
6NUR|6NUR_protein|mol2

> <Gold.PLP.Fitness>
40.9081

> <Gold.PLP.PLP>
-36.9906

> <Gold.PLP.part.hbond>
-2.0000

> <Gold.PLP.part.metal>
0.0000

> <Gold.PLP.part.buried>
-1.3729

> <Gold.PLP.part.nonpolar>
-35.3323

> <Gold.PLP.part.repulsive>
0.1041

> <Gold.PLP.ligand.clash>
10.2522

> <Gold.PLP.ligand.torsion>
1.0468

> <Gold.PLP.Chemscore.Hbond>
2.0000

> <Gold.PLP.Chemscore.CHOScore>
0.0000

> <Gold.PLP.Chemscore.Metal>
0.0000

> <Gold.Chemscore.Hbonds>
donor molecule, donor type, donor heavy atom, donor atom, acceptor molecule, acceptor atom, score
      L1  H    11    41       P1  8028  1.00
      P1  H  7997  8008       L1    17  1.00

> <Gold.PLP.Chemscore.Internal.Correction>
10.2633

> <Gold.Rescore>
     Score         DG    S(hbond)    S(metal)    S(lipo)     H(rot)  DE(clash)    DE(int)     intcor
     10.22     -16.12       1.79        0.00      78.43       1.76       1.54       4.36       ----

> <Gold.Chemscore.Fitness>
10.2177

> <Gold.Chemscore.DG>
-16.1191

> <Gold.Chemscore.ZeroCoef>
-5.4800

> <Gold.Chemscore.Hbond>
1.7855

> <Gold.Chemscore.Metal>
0.0000

> <Gold.Chemscore.Lipo>
78.4340

> <Gold.Chemscore.Internal_Hbond>
0.0000

> <Gold.Chemscore.DEClash>
1.5400

> <Gold.Chemscore.DEInternal>
4.3613

> <Gold.Chemscore.Rot>
1.7583

> <Gold.Chemscore.Internal.Correction>
   9.000000E+99

> <Gold.Chemscore.Hbonds>
donor molecule, donor type, donor heavy atom, donor atom, acceptor molecule, acceptor atom, score
      L1  H    11    41       P1  8028  0.97
      P1  H  7997  8008       L1    17  0.50

> <Gold.Chemscore.Hbond.Weighted>
-5.9635

> <Gold.Chemscore.Metal.Weighted>
-0.0000

> <Gold.Chemscore.Lipo.Weighted>
-9.1768

> <Gold.Chemscore.Internal_Hbond.Weighted>
0.0000

> <Gold.Chemscore.DEClash.Weighted>
1.5400

> <Gold.Chemscore.DEInternal.Weighted>
4.3613

> <Gold.Chemscore.Rot.Weighted>
4.5012

> <Gold.Chemscore.Internal.Correction.Weighted>
   9.000000E+99

> <Gold.Protein.RotatedTorsions>
[ 6907 6896 6895 6894 ] final   66.74 input  -60.11 | X-H torsion
[ 7974 7965 7964 7962 ] final    9.27 input  175.53 | X-H torsion
[ 8008 7997 7996 7995 ] final -100.58 input   59.86 | X-H torsion
[ 10167 10162 10161 10158 ] final  160.94 input  -65.29 | X-H torsion
[ 10718 10713 10712 10709 ] final -132.25 input   66.30 | X-H torsion
[ 10763 10752 10751 10750 ] final   49.56 input  -60.55 | X-H torsion
[ 11005 11000 10999 10996 ] final   49.87 input  -57.11 | X-H torsion

> <Gold.Protein.ActiveResidues>
 VAL166  LYS551  ARG553  GLY616  TRP617  ASP618  TYR619  PRO620  LYS621  CYS622 
 ASP623  PHE694  ASN695  SER759  ASP760  ASP761  ALA762  ILE779  LEU786  VAL792 
 PHE793  MET794  SER795  GLU796  ALA797  LYS798  CYS799  TRP800  GLU811  SER814 

> <Gold.Protein.RotatedAtoms>
  152.4502  134.5409  159.9838 H   0  0  0  0  0  0  0  0  0  0  0  0  # atno 6907 bound_to 6896
  151.5483  133.3415  159.2956 H   0  0  0  0  0  0  0  0  0  0  0  0  # atno 6908 bound_to 6896
  150.8429  134.7760  159.7010 H   0  0  0  0  0  0  0  0  0  0  0  0  # atno 6909 bound_to 6896
  146.2405  139.9809  142.8436 H   0  0  0  0  0  0  0  0  0  0  0  0  # atno 7974 bound_to 7965
  154.8305  140.0440  157.1474 H   0  0  0  0  0  0  0  0  0  0  0  0  # atno 8008 bound_to 7997
  154.9157  140.3020  155.5222 H   0  0  0  0  0  0  0  0  0  0  0  0  # atno 8009 bound_to 7997
  156.2986  140.2350  156.4202 H   0  0  0  0  0  0  0  0  0  0  0  0  # atno 8010 bound_to 7997
  139.4844  144.4585  151.8737 H   0  0  0  0  0  0  0  0  0  0  0  0  # atno 10167 bound_to 10162
  156.2327  130.7047  151.0875 H   0  0  0  0  0  0  0  0  0  0  0  0  # atno 10718 bound_to 10713
  152.9786  135.5908  154.4109 H   0  0  0  0  0  0  0  0  0  0  0  0  # atno 10763 bound_to 10752
  154.3744  135.2767  155.2249 H   0  0  0  0  0  0  0  0  0  0  0  0  # atno 10764 bound_to 10752
  154.4191  135.6063  153.6053 H   0  0  0  0  0  0  0  0  0  0  0  0  # atno 10765 bound_to 10752
  140.1066  134.5011  155.8715 H   0  0  0  0  0  0  0  0  0  0  0  0  # atno 11005 bound_to 11000
  145.1593  140.9664  143.4387 LP  0  0  0  0  0  0  0  0  0  0  0  0  # atno 17320 bound_to 7965
  145.0131  139.3492  143.6110 LP  0  0  0  0  0  0  0  0  0  0  0  0  # atno 17321 bound_to 7965
  140.4045  144.2449  150.5891 LP  0  0  0  0  0  0  0  0  0  0  0  0  # atno 17342 bound_to 10162
  140.5025  143.2314  151.8657 LP  0  0  0  0  0  0  0  0  0  0  0  0  # atno 17343 bound_to 10162
  157.7140  131.0719  150.6396 LP  0  0  0  0  0  0  0  0  0  0  0  0  # atno 17370 bound_to 10713
  156.6464  130.4473  149.5734 LP  0  0  0  0  0  0  0  0  0  0  0  0  # atno 17371 bound_to 10713
  141.2119  133.6713  156.6622 LP  0  0  0  0  0  0  0  0  0  0  0  0  # atno 17394 bound_to 11000
  140.3148  134.8056  157.4205 LP  0  0  0  0  0  0  0  0  0  0  0  0  # atno 17395 bound_to 11000

$$$$
