AV-unprocessed.smi:2329|AV-procd|sdf|9308|dock4
  -GOLD-   2272012523D 1   1.00000     0.00000
 Structure written by MMmdl.
 45 48  0  0  0  0  0  0  0  0  1 V2000
  141.8260  135.1312  153.4862 C   0  0  0  0  0  0  0  0  0  0  0  0
  143.1505  134.8481  152.8094 C   0  0  0  0  0  0  0  0  0  0  0  0
  143.2513  133.8853  151.7860 C   0  0  0  0  0  0  0  0  0  0  0  0
  144.5111  133.6728  151.1980 C   0  0  0  0  0  0  0  0  0  0  0  0
  145.6101  134.4256  151.6544 C   0  0  0  0  0  0  0  0  0  0  0  0
  145.4230  135.3718  152.6869 C   0  0  0  0  0  0  0  0  0  0  0  0
  146.5926  136.0767  153.0739 N   0  0  0  0  0  0  0  0  0  0  0  0
  146.7383  136.9773  154.0662 C   0  0  0  0  0  0  0  0  0  0  0  0
  145.8358  137.3574  154.8099 O   0  0  0  0  0  0  0  0  0  0  0  0
  147.9931  137.4412  154.1996 N   0  0  0  0  0  0  0  0  0  0  0  0
  148.4818  138.4255  155.1787 C   0  0  2  0  0  0  0  0  0  0  0  0
  147.9424  139.8453  154.9688 C   0  0  2  0  0  0  0  0  0  0  0  0
  146.7733  140.4472  154.2750 C   0  0  0  0  0  0  0  0  0  0  0  0
  147.5194  141.6485  153.6372 C   0  0  0  0  0  0  0  0  0  0  0  0
  148.9316  141.4013  153.8543 O   0  0  0  0  0  0  0  0  0  0  0  0
  149.0307  139.9917  153.9263 C   0  0  1  0  0  0  0  0  0  0  0  0
  149.8815  139.0586  154.8206 C   0  0  0  0  0  0  0  0  0  0  0  0
  150.6873  139.7261  155.9545 C   0  0  0  0  0  0  0  0  0  0  0  0
  152.1125  139.1706  155.9271 C   0  0  0  0  0  0  0  0  0  0  0  0
  152.2979  138.6673  154.5034 C   0  0  0  0  0  0  0  0  0  0  0  0
  150.9102  138.1661  154.1158 C   0  0  0  0  0  0  0  0  0  0  0  0
  144.2041  135.5700  153.2478 N   0  0  0  0  0  0  0  0  0  0  0  0
  141.0372  134.4862  153.0979 H   0  0  0  0  0  0  0  0  0  0  0  0
  141.5308  136.1679  153.3209 H   0  0  0  0  0  0  0  0  0  0  0  0
  141.9046  134.9631  154.5607 H   0  0  0  0  0  0  0  0  0  0  0  0
  142.3889  133.3237  151.4579 H   0  0  0  0  0  0  0  0  0  0  0  0
  144.6336  132.9447  150.4098 H   0  0  0  0  0  0  0  0  0  0  0  0
  146.5851  134.2748  151.2138 H   0  0  0  0  0  0  0  0  0  0  0  0
  147.4252  135.8585  152.5470 H   0  0  0  0  0  0  0  0  0  0  0  0
  148.6872  137.0581  153.5739 H   0  0  0  0  0  0  0  0  0  0  0  0
  148.4238  138.0817  156.2127 H   0  0  0  0  0  0  0  0  0  0  0  0
  148.1550  140.4250  155.8728 H   0  0  0  0  0  0  0  0  0  0  0  0
  146.3517  139.7830  153.5195 H   0  0  0  0  0  0  0  0  0  0  0  0
  145.9848  140.7560  154.9617 H   0  0  0  0  0  0  0  0  0  0  0  0
  147.3046  141.7156  152.5699 H   0  0  0  0  0  0  0  0  0  0  0  0
  147.2387  142.5951  154.0999 H   0  0  0  0  0  0  0  0  0  0  0  0
  148.7901  139.5428  152.9571 H   0  0  0  0  0  0  0  0  0  0  0  0
  150.7248  140.8059  155.8045 H   0  0  0  0  0  0  0  0  0  0  0  0
  150.2344  139.5648  156.9333 H   0  0  0  0  0  0  0  0  0  0  0  0
  152.8597  139.9116  156.2129 H   0  0  0  0  0  0  0  0  0  0  0  0
  152.1914  138.3334  156.6217 H   0  0  0  0  0  0  0  0  0  0  0  0
  152.5849  139.4958  153.8545 H   0  0  0  0  0  0  0  0  0  0  0  0
  153.0641  137.8957  154.4230 H   0  0  0  0  0  0  0  0  0  0  0  0
  150.8000  137.1343  154.4523 H   0  0  0  0  0  0  0  0  0  0  0  0
  150.7844  138.1587  153.0328 H   0  0  0  0  0  0  0  0  0  0  0  0
  1  2  1  0  0  0  0
  1 23  1  0  0  0  0
  1 24  1  0  0  0  0
  1 25  1  0  0  0  0
  2 22  1  0  0  0  0
  2  3  2  0  0  0  0
  3  4  1  0  0  0  0
  3 26  1  0  0  0  0
  4  5  2  0  0  0  0
  4 27  1  0  0  0  0
  5  6  1  0  0  0  0
  5 28  1  0  0  0  0
  6  7  1  0  0  0  0
  6 22  2  0  0  0  0
  7  8  1  0  0  0  0
  7 29  1  0  0  0  0
  8  9  2  0  0  0  0
  8 10  1  0  0  0  0
 10 11  1  0  0  0  0
 10 30  1  0  0  0  0
 11 17  1  0  0  0  0
 11 12  1  0  0  0  0
 11 31  1  0  0  0  0
 12 16  1  0  0  0  0
 12 13  1  0  0  0  0
 12 32  1  0  0  0  0
 13 14  1  0  0  0  0
 13 33  1  0  0  0  0
 13 34  1  0  0  0  0
 14 15  1  0  0  0  0
 14 35  1  0  0  0  0
 14 36  1  0  0  0  0
 15 16  1  0  0  0  0
 16 17  1  0  0  0  0
 16 37  1  0  0  0  0
 17 21  1  0  0  0  0
 17 18  1  0  0  0  0
 18 19  1  0  0  0  0
 18 38  1  0  0  0  0
 18 39  1  0  0  0  0
 19 20  1  0  0  0  0
 19 40  1  0  0  0  0
 19 41  1  0  0  0  0
 20 21  1  0  0  0  0
 20 42  1  0  0  0  0
 20 43  1  0  0  0  0
 21 44  1  0  0  0  0
 21 45  1  0  0  0  0
M  END
> <s_m_source_file>
AV-unprocessed.smi

> <i_m_source_file_index>
2329

> <i_lp_mmshare_version>
43012

> <i_f3d_flags>
0

> <s_epik_input>
W0NIM11jMVtjSF1bY0hdW2NIXWMobjEpW05IXUMoPU8pW05IXVtDQEBIXTJbQ0BASF0oW0NIMl1bQ0gyXU8zKVtDQEhdM0MyNFtDSDJdW0NIMl1bQ0gyXVtDSDJdNA==

> <s_epik_cmdline>
J2VwaWtfcHl0aG9uJywgJy1waCcsICc3LjAnLCAnLXRuJywgJzgnLCAnLW1hJywgJzIwMCcsICctbWV0YWxfYmluZGluZycsICctaW1hZScsICc8aW5maWxlLm1hZT4nLCAnLW9tYWUnLCAnPG91dGZpbGUubWFlPic=

> <r_lp_tautomer_probability>
1

> <r_epik_Ionization_Penalty>
8.97002e-05

> <r_epik_Ionization_Penalty_Charging>
0

> <r_epik_Ionization_Penalty_Neutral>
8.97002e-05

> <r_epik_State_Penalty>
-0

> <r_epik_Charging_Adjusted_Penalty>
0

> <i_epik_Tot_Q>
0

> <i_epik_Tot_abs_Q>
0

> <r_epik_Metal_State_Penalty>
-0

> <b_epik_Metal_Only>
0

> <s_lp_Force_Field>
OPLS_2005

> <r_lp_Energy>
90.3412

> <b_lp_Chiralities_Consistent>
1

> <s_lp_Variant>
AV-unprocessed.smi:2329-7

> <Gold.Version>
5.8.1

> <Gold.Id.Protein>
6NUR|6NUR_protein|mol2

> <Gold.PLP.Fitness>
42.6539

> <Gold.PLP.PLP>
-34.6318

> <Gold.PLP.part.hbond>
-3.2456

> <Gold.PLP.part.metal>
0.0000

> <Gold.PLP.part.buried>
-3.2770

> <Gold.PLP.part.nonpolar>
-28.1988

> <Gold.PLP.part.repulsive>
0.5329

> <Gold.PLP.ligand.clash>
0.0000

> <Gold.PLP.ligand.torsion>
0.1437

> <Gold.PLP.Chemscore.Hbond>
2.6800

> <Gold.PLP.Chemscore.CHOScore>
0.0000

> <Gold.PLP.Chemscore.Metal>
0.0000

> <Gold.Chemscore.Hbonds>
donor molecule, donor type, donor heavy atom, donor atom, acceptor molecule, acceptor atom, score
      L1  H     7    29       P1  7948  1.00
      L1  H    10    30       P1  7948  0.90
      P1  H  8011  8017       L1    15  0.77

> <Gold.PLP.Chemscore.Internal.Correction>
0.2694

> <Gold.Rescore>
     Score         DG    S(hbond)    S(metal)    S(lipo)     H(rot)  DE(clash)    DE(int)     intcor
     18.34     -20.93       2.31        0.00      87.97       1.00       1.16       1.43       ----

> <Gold.Chemscore.Fitness>
18.3448

> <Gold.Chemscore.DG>
-20.9292

> <Gold.Chemscore.ZeroCoef>
-5.4800

> <Gold.Chemscore.Hbond>
2.3102

> <Gold.Chemscore.Metal>
0.0000

> <Gold.Chemscore.Lipo>
87.9743

> <Gold.Chemscore.Internal_Hbond>
0.0000

> <Gold.Chemscore.DEClash>
1.1585

> <Gold.Chemscore.DEInternal>
1.4259

> <Gold.Chemscore.Rot>
1.0000

> <Gold.Chemscore.Internal.Correction>
   9.000000E+99

> <Gold.Chemscore.Hbonds>
donor molecule, donor type, donor heavy atom, donor atom, acceptor molecule, acceptor atom, score
      L1  H     7    29       P1  7948  0.98
      L1  H    10    30       P1  7948  0.88
      P1  H  8011  8017       L1    15  0.24

> <Gold.Chemscore.Hbond.Weighted>
-7.7162

> <Gold.Chemscore.Metal.Weighted>
-0.0000

> <Gold.Chemscore.Lipo.Weighted>
-10.2930

> <Gold.Chemscore.Internal_Hbond.Weighted>
0.0000

> <Gold.Chemscore.DEClash.Weighted>
1.1585

> <Gold.Chemscore.DEInternal.Weighted>
1.4259

> <Gold.Chemscore.Rot.Weighted>
2.5600

> <Gold.Chemscore.Internal.Correction.Weighted>
   9.000000E+99

> <Gold.Protein.RotatedTorsions>
[ 6907 6896 6895 6894 ] final -171.70 input  -60.11 | X-H torsion
[ 7974 7965 7964 7962 ] final   -4.93 input  175.53 | X-H torsion
[ 8008 7997 7996 7995 ] final  131.66 input   59.86 | X-H torsion
[ 10167 10162 10161 10158 ] final  105.96 input  -65.29 | X-H torsion
[ 10718 10713 10712 10709 ] final   98.69 input   66.30 | X-H torsion
[ 10763 10752 10751 10750 ] final -155.52 input  -60.55 | X-H torsion
[ 11005 11000 10999 10996 ] final  170.18 input  -57.11 | X-H torsion

> <Gold.Protein.ActiveResidues>
 VAL166  LYS551  ARG553  GLY616  TRP617  ASP618  TYR619  PRO620  LYS621  CYS622 
 ASP623  PHE694  ASN695  SER759  ASP760  ASP761  ALA762  ILE779  LEU786  VAL792 
 PHE793  MET794  SER795  GLU796  ALA797  LYS798  CYS799  TRP800  GLU811  SER814 

> <Gold.Protein.RotatedAtoms>
  151.5281  133.3454  159.2913 H   0  0  0  0  0  0  0  0  0  0  0  0  # atno 6907 bound_to 6896
  150.8610  134.7965  159.7094 H   0  0  0  0  0  0  0  0  0  0  0  0  # atno 6908 bound_to 6896
  152.4630  134.5150  159.9817 H   0  0  0  0  0  0  0  0  0  0  0  0  # atno 6909 bound_to 6896
  146.2363  140.1945  142.8333 H   0  0  0  0  0  0  0  0  0  0  0  0  # atno 7974 bound_to 7965
  156.2973  140.2566  156.2962 H   0  0  0  0  0  0  0  0  0  0  0  0  # atno 8008 bound_to 7997
  154.9461  140.0395  157.2140 H   0  0  0  0  0  0  0  0  0  0  0  0  # atno 8009 bound_to 7997
  154.8080  140.2839  155.5878 H   0  0  0  0  0  0  0  0  0  0  0  0  # atno 8010 bound_to 7997
  139.7049  144.7088  151.1124 H   0  0  0  0  0  0  0  0  0  0  0  0  # atno 10167 bound_to 10162
  157.6891  131.0647  150.4834 H   0  0  0  0  0  0  0  0  0  0  0  0  # atno 10718 bound_to 10713
  154.7781  135.3166  154.8049 H   0  0  0  0  0  0  0  0  0  0  0  0  # atno 10763 bound_to 10752
  153.8768  135.6839  153.4774 H   0  0  0  0  0  0  0  0  0  0  0  0  # atno 10764 bound_to 10752
  153.1409  135.4739  154.9431 H   0  0  0  0  0  0  0  0  0  0  0  0  # atno 10765 bound_to 10752
  140.3056  134.7559  157.3951 H   0  0  0  0  0  0  0  0  0  0  0  0  # atno 11005 bound_to 11000
  144.9831  140.8478  143.5385 LP  0  0  0  0  0  0  0  0  0  0  0  0  # atno 17320 bound_to 7965
  145.1941  139.2286  143.5227 LP  0  0  0  0  0  0  0  0  0  0  0  0  # atno 17321 bound_to 7965
  140.7719  143.5373  150.9353 LP  0  0  0  0  0  0  0  0  0  0  0  0  # atno 17342 bound_to 10162
  139.9056  143.6783  152.3124 LP  0  0  0  0  0  0  0  0  0  0  0  0  # atno 17343 bound_to 10162
  156.5165  130.4151  149.6273 LP  0  0  0  0  0  0  0  0  0  0  0  0  # atno 17370 bound_to 10713
  156.3193  130.7272  151.2180 LP  0  0  0  0  0  0  0  0  0  0  0  0  # atno 17371 bound_to 10713
  140.1070  134.5396  155.8300 LP  0  0  0  0  0  0  0  0  0  0  0  0  # atno 17394 bound_to 11000
  141.2119  133.6712  156.6617 LP  0  0  0  0  0  0  0  0  0  0  0  0  # atno 17395 bound_to 11000

$$$$
