AV-unprocessed.smi:2119|AV-procd|sdf|8636|dock4
  -GOLD-   2272011383D 1   1.00000     0.00000
 Structure written by MMmdl.
 48 50  0  0  0  0  0  0  0  0  2 V2000
  144.8440  136.7433  153.8605 O   0  0  0  0  0  0  0  0  0  0  0  0
  145.9479  136.6525  153.3247 C   0  0  0  0  0  0  0  0  0  0  0  0
  146.9675  137.4851  153.5796 N   0  0  0  0  0  0  0  0  0  0  0  0
  146.9302  138.6157  154.5026 C   0  0  0  0  0  0  0  0  0  0  0  0
  147.1975  139.9742  153.8000 C   0  0  2  0  0  0  0  0  0  0  0  0
  148.6389  140.5228  154.0044 C   0  0  1  0  0  0  0  0  0  0  0  0
  148.9262  141.1854  155.3429 C   0  0  0  0  0  0  0  0  0  0  0  0
  150.4484  141.1175  155.4435 C   0  0  0  0  0  0  0  0  0  0  0  0
  150.8520  140.0173  154.6369 O   0  0  0  0  0  0  0  0  0  0  0  0
  149.7142  139.4310  154.0211 C   0  0  0  0  0  0  0  0  0  0  0  0
  146.2080  141.0156  154.2130 N   0  3  0  0  0  0  0  0  0  0  0  0
  145.7900  140.9256  155.6334 C   0  0  0  0  0  0  0  0  0  0  0  0
  144.6358  141.9051  155.9085 C   0  0  0  0  0  0  0  0  0  0  0  0
  145.0307  143.2260  155.5567 O   0  0  0  0  0  0  0  0  0  0  0  0
  145.3548  143.3388  154.1758 C   0  0  0  0  0  0  0  0  0  0  0  0
  146.5418  142.4173  153.8517 C   0  0  0  0  0  0  0  0  0  0  0  0
  146.2918  135.7333  152.4065 N   0  0  0  0  0  0  0  0  0  0  0  0
  145.5065  134.6672  151.8913 C   0  0  0  0  0  0  0  0  0  0  0  0
  146.1155  133.7708  150.9890 C   0  0  0  0  0  0  0  0  0  0  0  0
  145.3650  132.6945  150.4792 C   0  0  0  0  0  0  0  0  0  0  0  0
  144.0295  132.5498  150.9019 C   0  0  0  0  0  0  0  0  0  0  0  0
  143.4356  133.3883  151.7769 N   0  0  0  0  0  0  0  0  0  0  0  0
  144.1605  134.4203  152.2601 C   0  0  0  0  0  0  0  0  0  0  0  0
  147.8335  137.3339  153.0832 H   0  0  0  0  0  0  0  0  0  0  0  0
  145.9424  138.6109  154.9632 H   0  0  0  0  0  0  0  0  0  0  0  0
  147.6481  138.4723  155.3115 H   0  0  0  0  0  0  0  0  0  0  0  0
  147.0677  139.8251  152.7267 H   0  0  0  0  0  0  0  0  0  0  0  0
  148.8814  141.2369  153.2163 H   0  0  0  0  0  0  0  0  0  0  0  0
  148.5679  142.2125  155.4039 H   0  0  0  0  0  0  0  0  0  0  0  0
  148.4742  140.6156  156.1559 H   0  0  0  0  0  0  0  0  0  0  0  0
  150.9013  142.0244  155.0418 H   0  0  0  0  0  0  0  0  0  0  0  0
  150.7861  140.9983  156.4733 H   0  0  0  0  0  0  0  0  0  0  0  0
  149.3927  138.5814  154.6256 H   0  0  0  0  0  0  0  0  0  0  0  0
  149.9582  139.0627  153.0241 H   0  0  0  0  0  0  0  0  0  0  0  0
  145.4664  139.9103  155.8655 H   0  0  0  0  0  0  0  0  0  0  0  0
  146.6314  141.1528  156.2885 H   0  0  0  0  0  0  0  0  0  0  0  0
  143.7419  141.6206  155.3511 H   0  0  0  0  0  0  0  0  0  0  0  0
  144.3708  141.8857  156.9658 H   0  0  0  0  0  0  0  0  0  0  0  0
  144.4873  143.0897  153.5626 H   0  0  0  0  0  0  0  0  0  0  0  0
  145.6130  144.3751  153.9573 H   0  0  0  0  0  0  0  0  0  0  0  0
  147.4168  142.7552  154.4082 H   0  0  0  0  0  0  0  0  0  0  0  0
  146.7829  142.4937  152.7918 H   0  0  0  0  0  0  0  0  0  0  0  0
  147.2034  135.8409  151.9862 H   0  0  0  0  0  0  0  0  0  0  0  0
  147.1434  133.9064  150.6855 H   0  0  0  0  0  0  0  0  0  0  0  0
  145.8022  131.9959  149.7813 H   0  0  0  0  0  0  0  0  0  0  0  0
  143.4244  131.7353  150.5322 H   0  0  0  0  0  0  0  0  0  0  0  0
  143.6416  135.0403  152.9746 H   0  0  0  0  0  0  0  0  0  0  0  0
  145.3737  140.7948  153.6884 H   0  0  0  0  0  0  0  0  0  0  0  0
  1  2  2  0  0  0  0
  2  3  1  0  0  0  0
  2 17  1  0  0  0  0
  3  4  1  0  0  0  0
  3 24  1  0  0  0  0
  4  5  1  0  0  0  0
  4 25  1  0  0  0  0
  4 26  1  0  0  0  0
  5  6  1  0  0  0  0
  5 11  1  0  0  0  0
  5 27  1  0  0  0  0
  6 10  1  0  0  0  0
  6  7  1  0  0  0  0
  6 28  1  0  0  0  0
  7  8  1  0  0  0  0
  7 29  1  0  0  0  0
  7 30  1  0  0  0  0
  8  9  1  0  0  0  0
  8 31  1  0  0  0  0
  8 32  1  0  0  0  0
  9 10  1  0  0  0  0
 10 33  1  0  0  0  0
 10 34  1  0  0  0  0
 11 16  1  0  0  0  0
 11 12  1  0  0  0  0
 11 48  1  0  0  0  0
 12 13  1  0  0  0  0
 12 35  1  0  0  0  0
 12 36  1  0  0  0  0
 13 14  1  0  0  0  0
 13 37  1  0  0  0  0
 13 38  1  0  0  0  0
 14 15  1  0  0  0  0
 15 16  1  0  0  0  0
 15 39  1  0  0  0  0
 15 40  1  0  0  0  0
 16 41  1  0  0  0  0
 16 42  1  0  0  0  0
 17 18  1  0  0  0  0
 17 43  1  0  0  0  0
 18 23  1  0  0  0  0
 18 19  2  0  0  0  0
 19 20  1  0  0  0  0
 19 44  1  0  0  0  0
 20 21  2  0  0  0  0
 20 45  1  0  0  0  0
 21 22  1  0  0  0  0
 21 46  1  0  0  0  0
 22 23  2  0  0  0  0
 23 47  1  0  0  0  0
M  CHG  1  11   1
M  END
> <s_m_source_file>
AV-unprocessed.smi

> <i_m_source_file_index>
2119

> <i_lp_mmshare_version>
43012

> <i_f3d_flags>
0

> <s_epik_input>
W2NIXTFuW2NIXVtjSF1bY0hdYzFbTkhdQyg9TylbTkhdW0NIMl1bQ0BIXShbQ0BASF0yW0NIMl1bQ0gyXU9bQ0gyXTIpTjNbQ0gyXVtDSDJdT1tDSDJdW0NIMl0z

> <s_epik_cmdline>
J2VwaWtfcHl0aG9uJywgJy1waCcsICc3LjAnLCAnLXRuJywgJzgnLCAnLW1hJywgJzIwMCcsICctbWV0YWxfYmluZGluZycsICctaW1hZScsICc8aW5maWxlLm1hZT4nLCAnLW9tYWUnLCAnPG91dGZpbGUubWFlPic=

> <r_epik_Ionization_Penalty>
0.987463

> <r_epik_Ionization_Penalty_Charging>
0.98326

> <r_epik_Ionization_Penalty_Neutral>
0.00420251

> <r_epik_State_Penalty>
1.01721

> <r_epik_Charging_Adjusted_Penalty>
2.00047

> <i_epik_Tot_Q>
1

> <i_epik_Tot_abs_Q>
1

> <r_epik_Metal_State_Penalty>
1.01439

> <b_epik_Metal_Only>
0

> <s_lp_Force_Field>
OPLS_2005

> <r_lp_Energy>
42.3323

> <b_lp_Chiralities_Consistent>
1

> <s_lp_Variant>
AV-unprocessed.smi:2119-7

> <Gold.Version>
5.8.1

> <Gold.Id.Protein>
6NUR|6NUR_protein|mol2

> <Gold.PLP.Fitness>
49.9978

> <Gold.PLP.PLP>
-37.5543

> <Gold.PLP.part.hbond>
-3.9846

> <Gold.PLP.part.metal>
0.0000

> <Gold.PLP.part.buried>
-6.0550

> <Gold.PLP.part.nonpolar>
-28.4004

> <Gold.PLP.part.repulsive>
0.5706

> <Gold.PLP.ligand.clash>
0.0000

> <Gold.PLP.ligand.torsion>
1.4227

> <Gold.PLP.Chemscore.Hbond>
4.9760

> <Gold.PLP.Chemscore.CHOScore>
0.0000

> <Gold.PLP.Chemscore.Metal>
0.0000

> <Gold.Chemscore.Hbonds>
donor molecule, donor type, donor heavy atom, donor atom, acceptor molecule, acceptor atom, score
      L1  H     3    24       P1  7948  1.00
      L1  H    11    48       P1 10175  1.66
      L1  H    17    43       P1  7948  1.00
      P1  H  7989  7998       L1     9  0.85

> <Gold.PLP.Chemscore.Internal.Correction>
0.3608

> <Gold.Rescore>
     Score         DG    S(hbond)    S(metal)    S(lipo)     H(rot)  DE(clash)    DE(int)     intcor
     18.23     -22.05       3.35        0.00      83.24       1.70       1.47       2.35       ----

> <Gold.Chemscore.Fitness>
18.2317

> <Gold.Chemscore.DG>
-22.0548

> <Gold.Chemscore.ZeroCoef>
-5.4800

> <Gold.Chemscore.Hbond>
3.3514

> <Gold.Chemscore.Metal>
0.0000

> <Gold.Chemscore.Lipo>
83.2365

> <Gold.Chemscore.Internal_Hbond>
0.0000

> <Gold.Chemscore.DEClash>
1.4732

> <Gold.Chemscore.DEInternal>
2.3499

> <Gold.Chemscore.Rot>
1.7021

> <Gold.Chemscore.Internal.Correction>
   9.000000E+99

> <Gold.Chemscore.Hbonds>
donor molecule, donor type, donor heavy atom, donor atom, acceptor molecule, acceptor atom, score
      L1  H     3    24       P1  7948  0.93
      L1  H    11    48       P1 10175  0.75
      L1  H    17    43       P1  7948  1.00
      P1  H  7989  7998       L1     9  0.09

> <Gold.Chemscore.Hbond.Weighted>
-11.1937

> <Gold.Chemscore.Metal.Weighted>
-0.0000

> <Gold.Chemscore.Lipo.Weighted>
-9.7387

> <Gold.Chemscore.Internal_Hbond.Weighted>
0.0000

> <Gold.Chemscore.DEClash.Weighted>
1.4732

> <Gold.Chemscore.DEInternal.Weighted>
2.3499

> <Gold.Chemscore.Rot.Weighted>
4.3575

> <Gold.Chemscore.Internal.Correction.Weighted>
   9.000000E+99

> <Gold.Protein.RotatedTorsions>
[ 6907 6896 6895 6894 ] final -167.29 input  -60.11 | X-H torsion
[ 7974 7965 7964 7962 ] final   19.62 input  175.53 | X-H torsion
[ 8008 7997 7996 7995 ] final   70.52 input   59.86 | X-H torsion
[ 10167 10162 10161 10158 ] final   39.25 input  -65.29 | X-H torsion
[ 10718 10713 10712 10709 ] final   -5.29 input   66.30 | X-H torsion
[ 10763 10752 10751 10750 ] final  179.90 input  -60.55 | X-H torsion
[ 11005 11000 10999 10996 ] final  -68.76 input  -57.11 | X-H torsion

> <Gold.Protein.ActiveResidues>
 VAL166  LYS551  ARG553  GLY616  TRP617  ASP618  TYR619  PRO620  LYS621  CYS622 
 ASP623  PHE694  ASN695  SER759  ASP760  ASP761  ALA762  ILE779  LEU786  VAL792 
 PHE793  MET794  SER795  GLU796  ALA797  LYS798  CYS799  TRP800  GLU811  SER814 

> <Gold.Protein.RotatedAtoms>
  151.4572  133.3602  159.2803 H   0  0  0  0  0  0  0  0  0  0  0  0  # atno 6907 bound_to 6896
  150.9050  134.8466  159.7397 H   0  0  0  0  0  0  0  0  0  0  0  0  # atno 6908 bound_to 6896
  152.4901  134.4496  159.9622 H   0  0  0  0  0  0  0  0  0  0  0  0  # atno 6909 bound_to 6896
  146.2142  139.8287  142.8664 H   0  0  0  0  0  0  0  0  0  0  0  0  # atno 7974 bound_to 7965
  155.7400  140.3490  155.5099 H   0  0  0  0  0  0  0  0  0  0  0  0  # atno 8008 bound_to 7997
  155.9103  140.1049  157.1306 H   0  0  0  0  0  0  0  0  0  0  0  0  # atno 8009 bound_to 7997
  154.4055  140.1269  156.4535 H   0  0  0  0  0  0  0  0  0  0  0  0  # atno 8010 bound_to 7997
  140.3858  144.1919  150.6130 H   0  0  0  0  0  0  0  0  0  0  0  0  # atno 10167 bound_to 10162
  156.7487  130.5232  149.5808 H   0  0  0  0  0  0  0  0  0  0  0  0  # atno 10718 bound_to 10713
  154.5267  135.2797  155.1216 H   0  0  0  0  0  0  0  0  0  0  0  0  # atno 10763 bound_to 10752
  154.2752  135.6296  153.5329 H   0  0  0  0  0  0  0  0  0  0  0  0  # atno 10764 bound_to 10752
  152.9948  135.5638  154.5769 H   0  0  0  0  0  0  0  0  0  0  0  0  # atno 10765 bound_to 10752
  141.1539  133.6748  156.6495 H   0  0  0  0  0  0  0  0  0  0  0  0  # atno 11005 bound_to 11000
  145.3020  141.0197  143.3603 LP  0  0  0  0  0  0  0  0  0  0  0  0  # atno 17320 bound_to 7965
  144.8999  139.4663  143.6637 LP  0  0  0  0  0  0  0  0  0  0  0  0  # atno 17321 bound_to 7965
  140.4891  143.2353  151.8845 LP  0  0  0  0  0  0  0  0  0  0  0  0  # atno 17342 bound_to 10162
  139.4792  144.5186  151.8833 LP  0  0  0  0  0  0  0  0  0  0  0  0  # atno 17343 bound_to 10162
  156.1416  130.6248  151.0474 LP  0  0  0  0  0  0  0  0  0  0  0  0  # atno 17370 bound_to 10713
  157.6786  131.0844  150.7428 LP  0  0  0  0  0  0  0  0  0  0  0  0  # atno 17371 bound_to 10713
  140.3331  134.7912  157.4341 LP  0  0  0  0  0  0  0  0  0  0  0  0  # atno 17394 bound_to 11000
  140.1000  134.5486  155.8362 LP  0  0  0  0  0  0  0  0  0  0  0  0  # atno 17395 bound_to 11000

$$$$
