AV-unprocessed.smi:3091|AV-procd|sdf|11778|dock4
  -GOLD-   2272017163D 1   1.00000     0.00000
 Structure written by MMmdl.
 29 30  0  0  0  0  0  0  0  0  2 V2000
  148.4785  138.5385  152.9447 N   0  3  0  0  0  0  0  0  0  0  0  0
  148.4774  138.7857  154.3953 C   0  0  0  0  0  0  0  0  0  0  0  0
  149.8534  139.2076  154.8674 C   0  0  0  0  0  0  0  0  0  0  0  0
  150.9630  138.3546  154.7012 C   0  0  0  0  0  0  0  0  0  0  0  0
  152.2194  138.7929  155.1627 C   0  0  0  0  0  0  0  0  0  0  0  0
  152.4127  139.9883  155.7587 N   0  0  0  0  0  0  0  0  0  0  0  0
  151.3450  140.8090  155.9198 C   0  0  0  0  0  0  0  0  0  0  0  0
  151.5257  142.0370  156.5252 O   0  0  0  0  0  0  0  0  0  0  0  0
  151.0374  142.2485  157.8519 C   0  0  2  0  0  0  0  0  0  0  0  0
  151.3222  143.6704  158.3187 C   0  0  0  0  0  0  0  0  0  0  0  0
  152.7153  143.5470  158.9179 C   0  0  0  0  0  0  0  0  0  0  0  0
  152.6616  142.2995  159.5881 O   0  0  0  0  0  0  0  0  0  0  0  0
  151.8812  141.3957  158.8116 C   0  0  0  0  0  0  0  0  0  0  0  0
  150.0488  140.4576  155.4896 C   0  0  0  0  0  0  0  0  0  0  0  0
  148.7623  137.5864  152.7633 H   0  0  0  0  0  0  0  0  0  0  0  0
  149.1229  139.1746  152.4971 H   0  0  0  0  0  0  0  0  0  0  0  0
  147.7482  139.5622  154.6291 H   0  0  0  0  0  0  0  0  0  0  0  0
  148.1644  137.8803  154.9163 H   0  0  0  0  0  0  0  0  0  0  0  0
  150.8595  137.3877  154.2306 H   0  0  0  0  0  0  0  0  0  0  0  0
  153.0919  138.1663  155.0511 H   0  0  0  0  0  0  0  0  0  0  0  0
  149.9824  141.9841  157.9404 H   0  0  0  0  0  0  0  0  0  0  0  0
  151.2657  144.4176  157.5270 H   0  0  0  0  0  0  0  0  0  0  0  0
  150.6129  143.9520  159.0979 H   0  0  0  0  0  0  0  0  0  0  0  0
  153.4750  143.5113  158.1355 H   0  0  0  0  0  0  0  0  0  0  0  0
  152.9578  144.3615  159.6007 H   0  0  0  0  0  0  0  0  0  0  0  0
  151.2541  140.8014  159.4767 H   0  0  0  0  0  0  0  0  0  0  0  0
  152.5340  140.7096  158.2704 H   0  0  0  0  0  0  0  0  0  0  0  0
  149.2234  141.1394  155.6358 H   0  0  0  0  0  0  0  0  0  0  0  0
  147.5494  138.6900  152.5791 H   0  0  0  0  0  0  0  0  0  0  0  0
  1  2  1  0  0  0  0
  1 15  1  0  0  0  0
  1 16  1  0  0  0  0
  1 29  1  0  0  0  0
  2  3  1  0  0  0  0
  2 17  1  0  0  0  0
  2 18  1  0  0  0  0
  3 14  1  0  0  0  0
  3  4  2  0  0  0  0
  4  5  1  0  0  0  0
  4 19  1  0  0  0  0
  5  6  2  0  0  0  0
  5 20  1  0  0  0  0
  6  7  1  0  0  0  0
  7  8  1  0  0  0  0
  7 14  2  0  0  0  0
  8  9  1  0  0  0  0
  9 13  1  0  0  0  0
  9 10  1  0  0  0  0
  9 21  1  0  0  0  0
 10 11  1  0  0  0  0
 10 22  1  0  0  0  0
 10 23  1  0  0  0  0
 11 12  1  0  0  0  0
 11 24  1  0  0  0  0
 11 25  1  0  0  0  0
 12 13  1  0  0  0  0
 13 26  1  0  0  0  0
 13 27  1  0  0  0  0
 14 28  1  0  0  0  0
M  CHG  1   1   1
M  END
> <s_m_source_file>
AV-unprocessed.smi

> <i_m_source_file_index>
3091

> <i_lp_mmshare_version>
43012

> <i_f3d_flags>
0

> <s_epik_input>
W05IMl1bQ0gyXWMxW2NIXVtjSF1uYyhbY0hdMSlPW0NAQEhdMltDSDJdW0NIMl1PW0NIMl0y

> <s_epik_cmdline>
J2VwaWtfcHl0aG9uJywgJy1waCcsICc3LjAnLCAnLXRuJywgJzgnLCAnLW1hJywgJzIwMCcsICctbWV0YWxfYmluZGluZycsICctaW1hZScsICc8aW5maWxlLm1hZT4nLCAnLW9tYWUnLCAnPG91dGZpbGUubWFlPic=

> <r_lp_tautomer_probability>
1

> <r_epik_Ionization_Penalty>
0.0773124

> <r_epik_Ionization_Penalty_Charging>
0.0773118

> <r_epik_Ionization_Penalty_Neutral>
5.92883e-07

> <r_epik_State_Penalty>
0.0682686

> <r_epik_Charging_Adjusted_Penalty>
0.14558

> <i_epik_Tot_Q>
1

> <i_epik_Tot_abs_Q>
1

> <r_epik_Metal_State_Penalty>
0.0682821

> <b_epik_Metal_Only>
0

> <s_lp_Force_Field>
OPLS_2005

> <r_lp_Energy>
12.9222

> <b_lp_Chiralities_Consistent>
1

> <s_lp_Variant>
AV-unprocessed.smi:3091-1

> <Gold.Version>
5.8.1

> <Gold.Id.Protein>
6NUR|6NUR_protein|mol2

> <Gold.PLP.Fitness>
39.5288

> <Gold.PLP.PLP>
-27.8497

> <Gold.PLP.part.hbond>
-3.5850

> <Gold.PLP.part.metal>
0.0000

> <Gold.PLP.part.buried>
-1.0665

> <Gold.PLP.part.nonpolar>
-23.0591

> <Gold.PLP.part.repulsive>
0.1452

> <Gold.PLP.ligand.clash>
0.0000

> <Gold.PLP.ligand.torsion>
0.1574

> <Gold.PLP.Chemscore.Hbond>
3.9920

> <Gold.PLP.Chemscore.CHOScore>
0.0000

> <Gold.PLP.Chemscore.Metal>
0.0000

> <Gold.Chemscore.Hbonds>
donor molecule, donor type, donor heavy atom, donor atom, acceptor molecule, acceptor atom, score
      L1  H     1    15       P1  7948  2.00
      L1  H     1    16       P1  7957  0.99
      P1  H  7997  8010       L1     6  1.00

> <Gold.PLP.Chemscore.Internal.Correction>
0.0179

> <Gold.Rescore>
     Score         DG    S(hbond)    S(metal)    S(lipo)     H(rot)  DE(clash)    DE(int)     intcor
     17.05     -18.50       2.56        0.00      73.14       1.59       1.17       0.28       ----

> <Gold.Chemscore.Fitness>
17.0537

> <Gold.Chemscore.DG>
-18.4978

> <Gold.Chemscore.ZeroCoef>
-5.4800

> <Gold.Chemscore.Hbond>
2.5559

> <Gold.Chemscore.Metal>
0.0000

> <Gold.Chemscore.Lipo>
73.1413

> <Gold.Chemscore.Internal_Hbond>
0.0000

> <Gold.Chemscore.DEClash>
1.1656

> <Gold.Chemscore.DEInternal>
0.2784

> <Gold.Chemscore.Rot>
1.5924

> <Gold.Chemscore.Internal.Correction>
   9.000000E+99

> <Gold.Chemscore.Hbonds>
donor molecule, donor type, donor heavy atom, donor atom, acceptor molecule, acceptor atom, score
      L1  H     1    15       P1  7948  0.97
      L1  H     1    16       P1  7957  0.94
      P1  H  7997  8010       L1     6  0.64

> <Gold.Chemscore.Hbond.Weighted>
-8.5368

> <Gold.Chemscore.Metal.Weighted>
-0.0000

> <Gold.Chemscore.Lipo.Weighted>
-8.5575

> <Gold.Chemscore.Internal_Hbond.Weighted>
0.0000

> <Gold.Chemscore.DEClash.Weighted>
1.1656

> <Gold.Chemscore.DEInternal.Weighted>
0.2784

> <Gold.Chemscore.Rot.Weighted>
4.0765

> <Gold.Chemscore.Internal.Correction.Weighted>
   9.000000E+99

> <Gold.Protein.RotatedTorsions>
[ 6907 6896 6895 6894 ] final   85.91 input  -60.11 | X-H torsion
[ 7974 7965 7964 7962 ] final -134.59 input  175.53 | X-H torsion
[ 8008 7997 7996 7995 ] final   89.00 input   59.86 | X-H torsion
[ 10167 10162 10161 10158 ] final  -16.59 input  -65.29 | X-H torsion
[ 10718 10713 10712 10709 ] final  174.91 input   66.30 | X-H torsion
[ 10763 10752 10751 10750 ] final   34.06 input  -60.55 | X-H torsion
[ 11005 11000 10999 10996 ] final  138.00 input  -57.11 | X-H torsion

> <Gold.Protein.ActiveResidues>
 VAL166  LYS551  ARG553  GLY616  TRP617  ASP618  TYR619  PRO620  LYS621  CYS622 
 ASP623  PHE694  ASN695  SER759  ASP760  ASP761  ALA762  ILE779  LEU786  VAL792 
 PHE793  MET794  SER795  GLU796  ALA797  LYS798  CYS799  TRP800  GLU811  SER814 

> <Gold.Protein.RotatedAtoms>
  152.5384  134.2513  159.8899 H   0  0  0  0  0  0  0  0  0  0  0  0  # atno 6907 bound_to 6896
  151.2476  133.4360  159.2617 H   0  0  0  0  0  0  0  0  0  0  0  0  # atno 6908 bound_to 6896
  151.0569  134.9724  159.8296 H   0  0  0  0  0  0  0  0  0  0  0  0  # atno 6909 bound_to 6896
  144.9089  140.6869  143.5037 H   0  0  0  0  0  0  0  0  0  0  0  0  # atno 7974 bound_to 7965
  155.9947  140.3365  155.6787 H   0  0  0  0  0  0  0  0  0  0  0  0  # atno 8008 bound_to 7997
  155.6373  140.0691  157.2648 H   0  0  0  0  0  0  0  0  0  0  0  0  # atno 8009 bound_to 7997
  154.4230  140.1749  156.1523 H   0  0  0  0  0  0  0  0  0  0  0  0  # atno 8010 bound_to 7997
  140.7236  143.5101  150.9761 H   0  0  0  0  0  0  0  0  0  0  0  0  # atno 10167 bound_to 10162
  156.9426  131.0006  151.2965 H   0  0  0  0  0  0  0  0  0  0  0  0  # atno 10718 bound_to 10713
  153.0182  135.6370  154.1609 H   0  0  0  0  0  0  0  0  0  0  0  0  # atno 10763 bound_to 10752
  154.1346  135.2838  155.3178 H   0  0  0  0  0  0  0  0  0  0  0  0  # atno 10764 bound_to 10752
  154.6169  135.5538  153.7595 H   0  0  0  0  0  0  0  0  0  0  0  0  # atno 10765 bound_to 10752
  140.0153  134.9421  157.0363 H   0  0  0  0  0  0  0  0  0  0  0  0  # atno 11005 bound_to 11000
  145.3488  139.1712  143.4446 LP  0  0  0  0  0  0  0  0  0  0  0  0  # atno 17320 bound_to 7965
  146.3148  140.3538  142.8658 LP  0  0  0  0  0  0  0  0  0  0  0  0  # atno 17321 bound_to 7965
  139.8814  143.7067  152.3156 LP  0  0  0  0  0  0  0  0  0  0  0  0  # atno 17342 bound_to 10162
  139.7351  144.7573  151.0741 LP  0  0  0  0  0  0  0  0  0  0  0  0  # atno 17343 bound_to 10162
  157.5774  130.8353  149.8475 LP  0  0  0  0  0  0  0  0  0  0  0  0  # atno 17370 bound_to 10713
  156.0397  130.3742  150.1466 LP  0  0  0  0  0  0  0  0  0  0  0  0  # atno 17371 bound_to 10713
  140.4482  134.1610  155.7179 LP  0  0  0  0  0  0  0  0  0  0  0  0  # atno 17394 bound_to 11000
  141.1738  133.8554  157.1485 LP  0  0  0  0  0  0  0  0  0  0  0  0  # atno 17395 bound_to 11000

$$$$
