AV-unprocessed.smi:2706|AV-procd|sdf|10445|dock5
  -GOLD-   2272014483D 1   1.00000     0.00000
 Structure written by MMmdl.
 43 46  0  0  0  0  0  0  0  0  1 V2000
  150.7740  141.8899  156.5367 C   0  0  0  0  0  0  0  0  0  0  0  0
  150.5447  140.7169  155.6987 N   0  0  0  0  0  0  0  0  0  0  0  0
  151.5217  139.6356  155.6789 C   0  0  0  0  0  0  0  0  0  0  0  0
  149.3353  140.5964  154.9772 C   0  0  0  0  0  0  0  0  0  0  0  0
  148.4396  141.6842  154.8423 C   0  0  0  0  0  0  0  0  0  0  0  0
  147.2540  141.5021  154.1082 C   0  0  0  0  0  0  0  0  0  0  0  0
  146.9937  140.2458  153.5321 C   0  0  0  0  0  0  0  0  0  0  0  0
  147.9263  139.2020  153.7077 C   0  0  0  0  0  0  0  0  0  0  0  0
  147.5814  137.9699  153.0910 N   0  0  0  0  0  0  0  0  0  0  0  0
  146.3673  137.3976  153.0033 C   0  0  0  0  0  0  0  0  0  0  0  0
  145.3208  137.8783  153.4402 O   0  0  0  0  0  0  0  0  0  0  0  0
  146.4328  136.2191  152.3686 N   0  0  0  0  0  0  0  0  0  0  0  0
  145.3248  135.3610  152.0994 C   0  0  2  0  0  0  0  0  0  0  0  0
  145.6307  133.8975  151.8220 C   0  0  1  0  0  0  0  0  0  0  0  0
  144.6078  132.7661  151.7776 C   0  0  2  0  0  0  0  0  0  0  0  0
  144.9156  131.8988  150.5396 C   0  0  0  0  0  0  0  0  0  0  0  0
  144.4912  132.8221  149.3710 C   0  0  0  0  0  0  0  0  0  0  0  0
  143.9977  134.0857  150.1061 C   0  0  1  0  0  0  0  0  0  0  0  0
  143.3162  133.4418  151.3143 C   0  0  0  0  0  0  0  0  0  0  0  0
  145.2169  134.7917  150.6926 C   0  0  1  0  0  0  0  0  0  0  0  0
  149.0650  139.3927  154.4167 N   0  0  0  0  0  0  0  0  0  0  0  0
  150.7366  142.8017  155.9398 H   0  0  0  0  0  0  0  0  0  0  0  0
  151.7497  141.8497  157.0209 H   0  0  0  0  0  0  0  0  0  0  0  0
  150.0154  141.9560  157.3171 H   0  0  0  0  0  0  0  0  0  0  0  0
  151.9027  139.4837  154.6686 H   0  0  0  0  0  0  0  0  0  0  0  0
  151.0732  138.7051  156.0285 H   0  0  0  0  0  0  0  0  0  0  0  0
  152.3709  139.8570  156.3252 H   0  0  0  0  0  0  0  0  0  0  0  0
  148.6372  142.6491  155.2841 H   0  0  0  0  0  0  0  0  0  0  0  0
  146.5534  142.3154  153.9882 H   0  0  0  0  0  0  0  0  0  0  0  0
  146.0874  140.0901  152.9651 H   0  0  0  0  0  0  0  0  0  0  0  0
  148.3480  137.4640  152.6731 H   0  0  0  0  0  0  0  0  0  0  0  0
  147.3360  135.9043  152.0459 H   0  0  0  0  0  0  0  0  0  0  0  0
  144.3967  135.5933  152.6171 H   0  0  0  0  0  0  0  0  0  0  0  0
  146.6739  133.5889  151.8672 H   0  0  0  0  0  0  0  0  0  0  0  0
  144.5408  132.2185  152.7178 H   0  0  0  0  0  0  0  0  0  0  0  0
  145.9672  131.6141  150.4849 H   0  0  0  0  0  0  0  0  0  0  0  0
  144.3203  130.9848  150.5444 H   0  0  0  0  0  0  0  0  0  0  0  0
  145.3155  133.0357  148.6892 H   0  0  0  0  0  0  0  0  0  0  0  0
  143.6869  132.3665  148.7918 H   0  0  0  0  0  0  0  0  0  0  0  0
  143.3706  134.7487  149.5100 H   0  0  0  0  0  0  0  0  0  0  0  0
  142.5282  132.7358  151.0444 H   0  0  0  0  0  0  0  0  0  0  0  0
  142.8999  134.1528  152.0271 H   0  0  0  0  0  0  0  0  0  0  0  0
  145.9805  135.0875  149.9752 H   0  0  0  0  0  0  0  0  0  0  0  0
  1  2  1  0  0  0  0
  1 22  1  0  0  0  0
  1 23  1  0  0  0  0
  1 24  1  0  0  0  0
  2  3  1  0  0  0  0
  2  4  1  0  0  0  0
  3 25  1  0  0  0  0
  3 26  1  0  0  0  0
  3 27  1  0  0  0  0
  4 21  1  0  0  0  0
  4  5  2  0  0  0  0
  5  6  1  0  0  0  0
  5 28  1  0  0  0  0
  6  7  2  0  0  0  0
  6 29  1  0  0  0  0
  7  8  1  0  0  0  0
  7 30  1  0  0  0  0
  8  9  1  0  0  0  0
  8 21  2  0  0  0  0
  9 10  1  0  0  0  0
  9 31  1  0  0  0  0
 10 11  2  0  0  0  0
 10 12  1  0  0  0  0
 12 13  1  0  0  0  0
 12 32  1  0  0  0  0
 13 20  1  0  0  0  0
 13 14  1  0  0  0  0
 13 33  1  0  0  0  0
 14 20  1  0  0  0  0
 14 15  1  0  0  0  0
 14 34  1  0  0  0  0
 15 19  1  0  0  0  0
 15 16  1  0  0  0  0
 15 35  1  0  0  0  0
 16 17  1  0  0  0  0
 16 36  1  0  0  0  0
 16 37  1  0  0  0  0
 17 18  1  0  0  0  0
 17 38  1  0  0  0  0
 17 39  1  0  0  0  0
 18 19  1  0  0  0  0
 18 20  1  0  0  0  0
 18 40  1  0  0  0  0
 19 41  1  0  0  0  0
 19 42  1  0  0  0  0
 20 43  1  0  0  0  0
M  END
> <s_m_source_file>
AV-unprocessed.smi

> <i_m_source_file_index>
2706

> <i_lp_mmshare_version>
43012

> <i_f3d_flags>
0

> <s_epik_input>
W0NIM11OKFtDSDNdKWMxW2NIXVtjSF1bY0hdYyhuMSlbTkhdQyg9TylbTkhdW0NASF0yW0NAQEhdM1tDQEBIXShbQ0gyXTQpW0NIMl1bQ0gyXVtDQEBIXTRbQ0BIXTIz

> <s_epik_cmdline>
J2VwaWtfcHl0aG9uJywgJy1waCcsICc3LjAnLCAnLXRuJywgJzgnLCAnLW1hJywgJzIwMCcsICctbWV0YWxfYmluZGluZycsICctaW1hZScsICc8aW5maWxlLm1hZT4nLCAnLW9tYWUnLCAnPG91dGZpbGUubWFlPic=

> <r_lp_tautomer_probability>
1

> <r_epik_Ionization_Penalty>
0.0296788

> <r_epik_Ionization_Penalty_Charging>
0

> <r_epik_Ionization_Penalty_Neutral>
0.0296788

> <r_epik_State_Penalty>
0.0248512

> <r_epik_Charging_Adjusted_Penalty>
0.0248512

> <i_epik_Tot_Q>
0

> <i_epik_Tot_abs_Q>
0

> <r_epik_Metal_State_Penalty>
0.0237882

> <b_epik_Metal_Only>
0

> <s_lp_Force_Field>
OPLS_2005

> <r_lp_Energy>
77.4142

> <b_lp_Chiralities_Consistent>
1

> <s_lp_Variant>
AV-unprocessed.smi:2706-2

> <Gold.Version>
5.8.1

> <Gold.Id.Protein>
6NUR|6NUR_protein|mol2

> <Gold.PLP.Fitness>
44.8471

> <Gold.PLP.PLP>
-40.0191

> <Gold.PLP.part.hbond>
-1.5994

> <Gold.PLP.part.metal>
0.0000

> <Gold.PLP.part.buried>
-2.1698

> <Gold.PLP.part.nonpolar>
-36.6561

> <Gold.PLP.part.repulsive>
0.3887

> <Gold.PLP.ligand.clash>
0.0000

> <Gold.PLP.ligand.torsion>
0.5655

> <Gold.PLP.Chemscore.Hbond>
1.9760

> <Gold.PLP.Chemscore.CHOScore>
0.0000

> <Gold.PLP.Chemscore.Metal>
0.0000

> <Gold.Chemscore.Hbonds>
donor molecule, donor type, donor heavy atom, donor atom, acceptor molecule, acceptor atom, score
      L1  H     9    31       P1  7948  1.00
      L1  H    12    32       P1  7948  0.98

> <Gold.PLP.Chemscore.Internal.Correction>
0.0309

> <Gold.Rescore>
     Score         DG    S(hbond)    S(metal)    S(lipo)     H(rot)  DE(clash)    DE(int)     intcor
     17.81     -19.54       1.93        0.00      86.88       1.00       0.04       1.69       ----

> <Gold.Chemscore.Fitness>
17.8089

> <Gold.Chemscore.DG>
-19.5396

> <Gold.Chemscore.ZeroCoef>
-5.4800

> <Gold.Chemscore.Hbond>
1.9325

> <Gold.Chemscore.Metal>
0.0000

> <Gold.Chemscore.Lipo>
86.8821

> <Gold.Chemscore.Internal_Hbond>
0.0000

> <Gold.Chemscore.DEClash>
0.0389

> <Gold.Chemscore.DEInternal>
1.6918

> <Gold.Chemscore.Rot>
1.0000

> <Gold.Chemscore.Internal.Correction>
   9.000000E+99

> <Gold.Chemscore.Hbonds>
donor molecule, donor type, donor heavy atom, donor atom, acceptor molecule, acceptor atom, score
      L1  H     9    31       P1  7948  0.95
      L1  H    12    32       P1  7948  0.93

> <Gold.Chemscore.Hbond.Weighted>
-6.4544

> <Gold.Chemscore.Metal.Weighted>
-0.0000

> <Gold.Chemscore.Lipo.Weighted>
-10.1652

> <Gold.Chemscore.Internal_Hbond.Weighted>
0.0000

> <Gold.Chemscore.DEClash.Weighted>
0.0389

> <Gold.Chemscore.DEInternal.Weighted>
1.6918

> <Gold.Chemscore.Rot.Weighted>
2.5600

> <Gold.Chemscore.Internal.Correction.Weighted>
   9.000000E+99

> <Gold.Protein.RotatedTorsions>
[ 6907 6896 6895 6894 ] final   89.62 input  -60.11 | X-H torsion
[ 7974 7965 7964 7962 ] final  -52.78 input  175.53 | X-H torsion
[ 8008 7997 7996 7995 ] final -148.12 input   59.86 | X-H torsion
[ 10167 10162 10161 10158 ] final  -44.14 input  -65.29 | X-H torsion
[ 10718 10713 10712 10709 ] final -176.16 input   66.30 | X-H torsion
[ 10763 10752 10751 10750 ] final   87.36 input  -60.55 | X-H torsion
[ 11005 11000 10999 10996 ] final  101.56 input  -57.11 | X-H torsion

> <Gold.Protein.ActiveResidues>
 VAL166  LYS551  ARG553  GLY616  TRP617  ASP618  TYR619  PRO620  LYS621  CYS622 
 ASP623  PHE694  ASN695  SER759  ASP760  ASP761  ALA762  ILE779  LEU786  VAL792 
 PHE793  MET794  SER795  GLU796  ALA797  LYS798  CYS799  TRP800  GLU811  SER814 

> <Gold.Protein.RotatedAtoms>
  152.5438  134.1938  159.8684 H   0  0  0  0  0  0  0  0  0  0  0  0  # atno 6907 bound_to 6896
  151.1932  133.4648  159.2602 H   0  0  0  0  0  0  0  0  0  0  0  0  # atno 6908 bound_to 6896
  151.1063  135.0013  159.8528 H   0  0  0  0  0  0  0  0  0  0  0  0  # atno 6909 bound_to 6896
  145.9042  140.7969  142.9728 H   0  0  0  0  0  0  0  0  0  0  0  0  # atno 7974 bound_to 7965
  155.5866  140.0648  157.2769 H   0  0  0  0  0  0  0  0  0  0  0  0  # atno 8008 bound_to 7997
  154.4317  140.1842  156.1078 H   0  0  0  0  0  0  0  0  0  0  0  0  # atno 8009 bound_to 7997
  156.0265  140.3311  155.7097 H   0  0  0  0  0  0  0  0  0  0  0  0  # atno 8010 bound_to 7997
  140.6908  143.2945  151.3453 H   0  0  0  0  0  0  0  0  0  0  0  0  # atno 10167 bound_to 10162
  156.8105  130.9584  151.3116 H   0  0  0  0  0  0  0  0  0  0  0  0  # atno 10718 bound_to 10713
  153.1660  135.4546  154.9838 H   0  0  0  0  0  0  0  0  0  0  0  0  # atno 10763 bound_to 10752
  154.7932  135.3228  154.7730 H   0  0  0  0  0  0  0  0  0  0  0  0  # atno 10764 bound_to 10752
  153.8213  135.6946  153.4881 H   0  0  0  0  0  0  0  0  0  0  0  0  # atno 10765 bound_to 10752
  139.8774  134.9188  156.4925 H   0  0  0  0  0  0  0  0  0  0  0  0  # atno 11005 bound_to 11000
  144.6738  140.1724  143.7413 LP  0  0  0  0  0  0  0  0  0  0  0  0  # atno 17320 bound_to 7965
  145.8753  139.2294  143.1637 LP  0  0  0  0  0  0  0  0  0  0  0  0  # atno 17321 bound_to 7965
  139.6309  144.0723  152.2475 LP  0  0  0  0  0  0  0  0  0  0  0  0  # atno 17342 bound_to 10162
  140.0198  144.6162  150.7576 LP  0  0  0  0  0  0  0  0  0  0  0  0  # atno 17343 bound_to 10162
  157.6508  130.8883  149.9630 LP  0  0  0  0  0  0  0  0  0  0  0  0  # atno 17370 bound_to 10713
  156.1047  130.3653  150.0154 LP  0  0  0  0  0  0  0  0  0  0  0  0  # atno 17371 bound_to 10713
  140.8648  133.8033  155.9302 LP  0  0  0  0  0  0  0  0  0  0  0  0  # atno 17394 bound_to 11000
  140.9013  134.2375  157.5040 LP  0  0  0  0  0  0  0  0  0  0  0  0  # atno 17395 bound_to 11000

$$$$
