AV-unprocessed.smi:109|AV-procd|sdf|1050|dock7
  -GOLD-   2262018103D 1   1.00000     0.00000
 Structure written by MMmdl.
 58 61  0  0  0  0  0  0  0  0  1 V2000
  145.2366  140.7406  154.9810 O   0  0  0  0  0  0  0  0  0  0  0  0
  144.5917  140.5046  156.2138 C   0  0  0  0  0  0  0  0  0  0  0  0
  144.2594  139.0088  156.3533 C   0  0  0  0  0  0  0  0  0  0  0  0
  143.3924  138.4404  155.2025 C   0  0  1  0  0  0  0  0  0  0  0  0
  143.2371  136.9938  155.3754 N   0  0  0  0  0  0  0  0  0  0  0  0
  143.0885  136.1528  154.3270 C   0  0  0  0  0  0  0  0  0  0  0  0
  142.0503  135.2811  154.2588 N   0  0  0  0  0  0  0  0  0  0  0  0
  141.9281  134.4692  153.2067 C   0  0  0  0  0  0  0  0  0  0  0  0
  142.7172  134.3711  152.1362 N   0  0  0  0  0  0  0  0  0  0  0  0
  143.7679  135.2411  152.1922 C   0  0  0  0  0  0  0  0  0  0  0  0
  144.0174  136.1572  153.2542 C   0  0  0  0  0  0  0  0  0  0  0  0
  145.1693  136.8828  152.9913 N   0  0  0  0  0  0  0  0  0  0  0  0
  145.5778  136.4167  151.8432 C   0  0  0  0  0  0  0  0  0  0  0  0
  144.7901  135.4379  151.2763 N   0  0  0  0  0  0  0  0  0  0  0  0
  145.0670  134.7351  149.9731 C   0  0  1  0  0  0  0  0  0  0  0  0
  145.8799  133.6350  150.2276 O   0  0  0  0  0  0  0  0  0  0  0  0
  145.0800  132.4741  150.3980 C   0  0  2  0  0  0  0  0  0  0  0  0
  145.9136  131.2198  150.0947 C   0  0  0  0  0  0  0  0  0  0  0  0
  146.7056  131.4271  148.9447 O   0  0  0  0  0  0  0  0  0  0  0  0
  143.9275  132.6920  149.4033 C   0  0  1  0  0  0  0  0  0  0  0  0
  142.7337  132.1351  149.9152 O   0  0  0  0  0  0  0  0  0  0  0  0
  143.8038  134.2139  149.2677 C   0  0  2  0  0  0  0  0  0  0  0  0
  143.7955  134.5835  147.9033 O   0  0  0  0  0  0  0  0  0  0  0  0
  141.9883  139.1025  155.0951 C   0  0  0  0  0  0  0  0  0  0  0  0
  141.1025  138.7361  156.3144 C   0  0  0  0  0  0  0  0  0  0  0  0
  139.7034  139.3667  156.2389 C   0  0  0  0  0  0  0  0  0  0  0  0
  138.9858  138.9660  154.9449 C   0  0  0  0  0  0  0  0  0  0  0  0
  139.8307  139.3439  153.7226 C   0  0  0  0  0  0  0  0  0  0  0  0
  141.2362  138.7241  153.7940 C   0  0  0  0  0  0  0  0  0  0  0  0
  145.6108  135.4792  149.3893 H   0  0  0  0  0  0  0  0  0  0  0  0
  144.7059  132.4427  151.4216 H   0  0  0  0  0  0  0  0  0  0  0  0
  144.1651  132.2331  148.4420 H   0  0  0  0  0  0  0  0  0  0  0  0
  142.9059  134.6231  149.7301 H   0  0  0  0  0  0  0  0  0  0  0  0
  144.5777  140.8951  154.3214 H   0  0  0  0  0  0  0  0  0  0  0  0
  145.2465  140.8299  157.0227 H   0  0  0  0  0  0  0  0  0  0  0  0
  143.6904  141.1163  156.2546 H   0  0  0  0  0  0  0  0  0  0  0  0
  145.1820  138.4328  156.4376 H   0  0  0  0  0  0  0  0  0  0  0  0
  143.7379  138.8931  157.3018 H   0  0  0  0  0  0  0  0  0  0  0  0
  143.9049  138.6601  154.2661 H   0  0  0  0  0  0  0  0  0  0  0  0
  143.2015  136.6748  156.3328 H   0  0  0  0  0  0  0  0  0  0  0  0
  141.0764  133.8054  153.2243 H   0  0  0  0  0  0  0  0  0  0  0  0
  146.4781  136.7816  151.3704 H   0  0  0  0  0  0  0  0  0  0  0  0
  146.5913  131.0129  150.9238 H   0  0  0  0  0  0  0  0  0  0  0  0
  145.2799  130.3417  149.9673 H   0  0  0  0  0  0  0  0  0  0  0  0
  147.6136  131.3112  149.1800 H   0  0  0  0  0  0  0  0  0  0  0  0
  142.0614  132.7999  149.8911 H   0  0  0  0  0  0  0  0  0  0  0  0
  144.6313  134.9703  147.6923 H   0  0  0  0  0  0  0  0  0  0  0  0
  142.1253  140.1852  155.0946 H   0  0  0  0  0  0  0  0  0  0  0  0
  141.0068  137.6516  156.3834 H   0  0  0  0  0  0  0  0  0  0  0  0
  141.5705  139.0589  157.2446 H   0  0  0  0  0  0  0  0  0  0  0  0
  139.1110  139.0604  157.1015 H   0  0  0  0  0  0  0  0  0  0  0  0
  139.7876  140.4529  156.2911 H   0  0  0  0  0  0  0  0  0  0  0  0
  138.7972  137.8917  154.9455 H   0  0  0  0  0  0  0  0  0  0  0  0
  138.0119  139.4534  154.8912 H   0  0  0  0  0  0  0  0  0  0  0  0
  139.3288  139.0196  152.8106 H   0  0  0  0  0  0  0  0  0  0  0  0
  139.9147  140.4294  153.6586 H   0  0  0  0  0  0  0  0  0  0  0  0
  141.7843  139.0620  152.9161 H   0  0  0  0  0  0  0  0  0  0  0  0
  141.1610  137.6387  153.7152 H   0  0  0  0  0  0  0  0  0  0  0  0
  1  2  1  0  0  0  0
  1 34  1  0  0  0  0
  2  3  1  0  0  0  0
  2 35  1  0  0  0  0
  2 36  1  0  0  0  0
  3  4  1  0  0  0  0
  3 37  1  0  0  0  0
  3 38  1  0  0  0  0
  4  5  1  0  0  0  0
  4 24  1  0  0  0  0
  4 39  1  0  0  0  0
  5  6  1  0  0  0  0
  5 40  1  0  0  0  0
  6 11  1  0  0  0  0
  6  7  2  0  0  0  0
  7  8  1  0  0  0  0
  8  9  2  0  0  0  0
  8 41  1  0  0  0  0
  9 10  1  0  0  0  0
 10 14  1  0  0  0  0
 10 11  2  0  0  0  0
 11 12  1  0  0  0  0
 12 13  2  0  0  0  0
 13 14  1  0  0  0  0
 13 42  1  0  0  0  0
 14 15  1  0  0  0  0
 15 30  1  0  0  0  0
 15 22  1  0  0  0  0
 15 16  1  0  0  0  0
 16 17  1  0  0  0  0
 17 31  1  0  0  0  0
 17 18  1  0  0  0  0
 17 20  1  0  0  0  0
 18 19  1  0  0  0  0
 18 43  1  0  0  0  0
 18 44  1  0  0  0  0
 19 45  1  0  0  0  0
 20 32  1  0  0  0  0
 20 21  1  0  0  0  0
 20 22  1  0  0  0  0
 21 46  1  0  0  0  0
 22 33  1  0  0  0  0
 22 23  1  0  0  0  0
 23 47  1  0  0  0  0
 24 29  1  0  0  0  0
 24 25  1  0  0  0  0
 24 48  1  0  0  0  0
 25 26  1  0  0  0  0
 25 49  1  0  0  0  0
 25 50  1  0  0  0  0
 26 27  1  0  0  0  0
 26 51  1  0  0  0  0
 26 52  1  0  0  0  0
 27 28  1  0  0  0  0
 27 53  1  0  0  0  0
 27 54  1  0  0  0  0
 28 29  1  0  0  0  0
 28 55  1  0  0  0  0
 28 56  1  0  0  0  0
 29 57  1  0  0  0  0
 29 58  1  0  0  0  0
M  END
> <s_m_source_file>
AV-unprocessed.smi

> <i_m_source_file_index>
109

> <i_lp_mmshare_version>
43012

> <i_f3d_flags>
0

> <s_epik_input>
W0NIMl0xW0NIMl1bQ0gyXVtDSDJdW0NIMl1bQ0hdMVtDQEhdKFtDSDJdW0NIMl1bT0hdKVtOSF1jKG5bY0hdbjIpYyhjMjMpbltjSF1uM1tDQEBIXTRPW0NASF0oW0NIMl1bT0hdKVtDQEBIXShbT0hdKVtDQEhdNFtPSF0=

> <s_epik_cmdline>
J2VwaWtfcHl0aG9uJywgJy1waCcsICc3LjAnLCAnLXRuJywgJzgnLCAnLW1hJywgJzIwMCcsICctbWV0YWxfYmluZGluZycsICctaW1hZScsICc8aW5maWxlLm1hZT4nLCAnLW9tYWUnLCAnPG91dGZpbGUubWFlPic=

> <r_lp_tautomer_probability>
1

> <r_epik_Ionization_Penalty>
0.000793976

> <r_epik_Ionization_Penalty_Charging>
0

> <r_epik_Ionization_Penalty_Neutral>
0.000793976

> <r_epik_State_Penalty>
-0

> <r_epik_Charging_Adjusted_Penalty>
0

> <i_epik_Tot_Q>
0

> <i_epik_Tot_abs_Q>
0

> <r_epik_Metal_State_Penalty>
-0

> <b_epik_Metal_Only>
0

> <s_epik_Chemistry_Notes>
This compound contains an acetal/aminal-like group ( X-CH(R)-Y where X, Y are N, S, or O) that may be acid/base labile, releasing an aldehyde.

> <s_lp_Force_Field>
OPLS_2005

> <r_lp_Energy>
47.2869

> <b_lp_Chiralities_Consistent>
1

> <s_lp_Variant>
AV-unprocessed.smi:109-20

> <Gold.Version>
5.8.1

> <Gold.Id.Protein>
6NUR|6NUR_protein|mol2

> <Gold.PLP.Fitness>
45.7948

> <Gold.PLP.PLP>
-31.3635

> <Gold.PLP.part.hbond>
-6.5518

> <Gold.PLP.part.metal>
0.0000

> <Gold.PLP.part.buried>
2.5624

> <Gold.PLP.part.nonpolar>
-28.6915

> <Gold.PLP.part.repulsive>
2.5823

> <Gold.PLP.ligand.clash>
0.0000

> <Gold.PLP.ligand.torsion>
1.7767

> <Gold.PLP.Chemscore.Hbond>
5.0499

> <Gold.PLP.Chemscore.CHOScore>
0.8754

> <Gold.PLP.Chemscore.Metal>
0.0000

> <Gold.Chemscore.Hbonds>
donor molecule, donor type, donor heavy atom, donor atom, acceptor molecule, acceptor atom, score
      L1  H     1    34       P1 10175  0.89
      L1  H    19    45       P1 10747  1.00
      L1  H    21    46       P1 10186  1.00
      L1  H    23    47       P1  7921  0.86
      P1  H 10192 10197       L1    23  1.00
      P1  H 10785 10796       L1    21  0.09
      L1  C    13    42       P1  7948  0.96

> <Gold.PLP.Chemscore.Internal.Correction>
0.2088

> <Gold.Rescore>
     Score         DG    S(hbond)    S(metal)    S(lipo)     H(rot)  DE(clash)    DE(int)     intcor
      8.26     -14.52       4.53        0.00      67.40       5.47       4.48       1.77       ----

> <Gold.Chemscore.Fitness>
8.2577

> <Gold.Chemscore.DG>
-14.5159

> <Gold.Chemscore.ZeroCoef>
-5.4800

> <Gold.Chemscore.Hbond>
4.5339

> <Gold.Chemscore.Metal>
0.0000

> <Gold.Chemscore.Lipo>
67.4036

> <Gold.Chemscore.Internal_Hbond>
0.0000

> <Gold.Chemscore.DEClash>
4.4845

> <Gold.Chemscore.DEInternal>
1.7737

> <Gold.Chemscore.Rot>
5.4662

> <Gold.Chemscore.Internal.Correction>
   9.000000E+99

> <Gold.Chemscore.Hbonds>
donor molecule, donor type, donor heavy atom, donor atom, acceptor molecule, acceptor atom, score
      L1  H     1    34       P1 10175  0.79
      L1  H    19    45       P1 10747  0.99
      L1  H    21    46       P1 10186  0.99
      L1  H    23    47       P1  7921  0.80
      P1  H 10192 10197       L1    23  0.89

> <Gold.Chemscore.Hbond.Weighted>
-15.1432

> <Gold.Chemscore.Metal.Weighted>
-0.0000

> <Gold.Chemscore.Lipo.Weighted>
-7.8862

> <Gold.Chemscore.Internal_Hbond.Weighted>
0.0000

> <Gold.Chemscore.DEClash.Weighted>
4.4845

> <Gold.Chemscore.DEInternal.Weighted>
1.7737

> <Gold.Chemscore.Rot.Weighted>
13.9935

> <Gold.Chemscore.Internal.Correction.Weighted>
   9.000000E+99

> <Gold.Protein.RotatedTorsions>
[ 6907 6896 6895 6894 ] final   87.24 input  -60.11 | X-H torsion
[ 7974 7965 7964 7962 ] final -147.45 input  175.53 | X-H torsion
[ 8008 7997 7996 7995 ] final   88.80 input   59.86 | X-H torsion
[ 10167 10162 10161 10158 ] final    1.31 input  -65.29 | X-H torsion
[ 10718 10713 10712 10709 ] final  127.98 input   66.30 | X-H torsion
[ 10763 10752 10751 10750 ] final -106.42 input  -60.55 | X-H torsion
[ 11005 11000 10999 10996 ] final   39.30 input  -57.11 | X-H torsion

> <Gold.Protein.ActiveResidues>
 VAL166  LYS551  ARG553  GLY616  TRP617  ASP618  TYR619  PRO620  LYS621  CYS622 
 ASP623  PHE694  ASN695  SER759  ASP760  ASP761  ALA762  ILE779  LEU786  VAL792 
 PHE793  MET794  SER795  GLU796  ALA797  LYS798  CYS799  TRP800  GLU811  SER814 

> <Gold.Protein.RotatedAtoms>
  152.5408  134.2307  159.8823 H   0  0  0  0  0  0  0  0  0  0  0  0  # atno 6907 bound_to 6896
  151.2279  133.4459  159.2610 H   0  0  0  0  0  0  0  0  0  0  0  0  # atno 6908 bound_to 6896
  151.0743  134.9831  159.8380 H   0  0  0  0  0  0  0  0  0  0  0  0  # atno 6909 bound_to 6896
  144.8093  140.5325  143.5653 H   0  0  0  0  0  0  0  0  0  0  0  0  # atno 7974 bound_to 7965
  155.9922  140.3367  155.6764 H   0  0  0  0  0  0  0  0  0  0  0  0  # atno 8008 bound_to 7997
  155.6405  140.0694  157.2638 H   0  0  0  0  0  0  0  0  0  0  0  0  # atno 8009 bound_to 7997
  154.4223  140.1743  156.1555 H   0  0  0  0  0  0  0  0  0  0  0  0  # atno 8010 bound_to 7997
  140.6688  143.7105  150.7881 H   0  0  0  0  0  0  0  0  0  0  0  0  # atno 10167 bound_to 10162
  157.5285  131.1098  150.9046 H   0  0  0  0  0  0  0  0  0  0  0  0  # atno 10718 bound_to 10713
  154.8011  135.4712  154.0278 H   0  0  0  0  0  0  0  0  0  0  0  0  # atno 10763 bound_to 10752
  153.1783  135.6836  153.8520 H   0  0  0  0  0  0  0  0  0  0  0  0  # atno 10764 bound_to 10752
  153.8079  135.3221  155.3375 H   0  0  0  0  0  0  0  0  0  0  0  0  # atno 10765 bound_to 10752
  140.2041  134.3834  155.8081 H   0  0  0  0  0  0  0  0  0  0  0  0  # atno 11005 bound_to 11000
  145.5363  139.1475  143.3472 LP  0  0  0  0  0  0  0  0  0  0  0  0  # atno 17320 bound_to 7965
  146.2389  140.5503  142.8943 LP  0  0  0  0  0  0  0  0  0  0  0  0  # atno 17321 bound_to 7965
  140.0787  143.4990  152.2542 LP  0  0  0  0  0  0  0  0  0  0  0  0  # atno 17342 bound_to 10162
  139.5948  144.7563  151.3312 LP  0  0  0  0  0  0  0  0  0  0  0  0  # atno 17343 bound_to 10162
  156.9635  130.5464  149.5287 LP  0  0  0  0  0  0  0  0  0  0  0  0  # atno 17370 bound_to 10713
  156.0405  130.5488  150.8758 LP  0  0  0  0  0  0  0  0  0  0  0  0  # atno 17371 bound_to 10713
  141.2227  133.7109  156.8307 LP  0  0  0  0  0  0  0  0  0  0  0  0  # atno 17394 bound_to 11000
  140.2022  134.8889  157.3181 LP  0  0  0  0  0  0  0  0  0  0  0  0  # atno 17395 bound_to 11000

$$$$
