AV-unprocessed.smi:1330|AV-procd|sdf|5485|dock4
  -GOLD-   22720 5 63D 1   1.00000     0.00000
 Structure written by MMmdl.
 42 43  0  0  0  0  0  0  0  0  1 V2000
  145.2464  145.0286  152.1845 C   0  0  0  0  0  0  0  0  0  0  0  0
  145.3795  144.1415  153.3930 C   0  0  0  0  0  0  0  0  0  0  0  0
  146.1722  143.1262  153.2836 N   0  0  0  0  0  0  0  0  0  0  0  0
  146.3664  142.2504  154.3327 N   0  0  0  0  0  0  0  0  0  0  0  0
  147.3009  141.1598  154.0328 C   0  0  0  0  0  0  0  0  0  0  0  0
  148.7514  141.5184  154.4264 C   0  0  2  0  0  0  0  0  0  0  0  0
  149.6229  141.0639  153.4107 O   0  0  0  0  0  0  0  0  0  0  0  0
  149.1816  140.8410  155.7357 C   0  0  0  0  0  0  0  0  0  0  0  0
  150.5957  140.7407  155.7485 O   0  0  0  0  0  0  0  0  0  0  0  0
  151.1222  140.4443  157.0313 C   0  0  0  0  0  0  0  0  0  0  0  0
  151.1161  141.6559  157.9451 C   0  0  0  0  0  0  0  0  0  0  0  0
  151.6202  141.5657  159.2610 C   0  0  0  0  0  0  0  0  0  0  0  0
  151.5939  142.6903  160.1086 C   0  0  0  0  0  0  0  0  0  0  0  0
  151.0580  143.9084  159.6476 C   0  0  0  0  0  0  0  0  0  0  0  0
  151.0245  145.2852  160.6868 Cl  0  0  0  0  0  0  0  0  0  0  0  0
  150.5462  144.0005  158.3386 C   0  0  0  0  0  0  0  0  0  0  0  0
  150.5726  142.8759  157.4907 C   0  0  0  0  0  0  0  0  0  0  0  0
  145.7735  142.3581  155.5564 C   0  0  0  0  0  0  0  0  0  0  0  0
  145.9884  141.5597  156.4699 O   0  0  0  0  0  0  0  0  0  0  0  0
  144.8739  143.5080  155.6722 C   0  0  0  0  0  0  0  0  0  0  0  0
  144.2287  143.6566  156.9368 C   0  0  0  0  0  0  0  0  0  0  0  0
  143.7210  143.7876  157.9688 N   0  0  0  0  0  0  0  0  0  0  0  0
  144.6704  144.3734  154.6474 C   0  0  0  0  0  0  0  0  0  0  0  0
  143.7498  145.5841  154.7175 C   0  0  0  0  0  0  0  0  0  0  0  0
  145.5093  146.0581  152.4284 H   0  0  0  0  0  0  0  0  0  0  0  0
  144.2225  145.0202  151.8106 H   0  0  0  0  0  0  0  0  0  0  0  0
  145.8977  144.7076  151.3700 H   0  0  0  0  0  0  0  0  0  0  0  0
  146.9752  140.2700  154.5749 H   0  0  0  0  0  0  0  0  0  0  0  0
  147.2468  140.8728  152.9807 H   0  0  0  0  0  0  0  0  0  0  0  0
  148.8776  142.5966  154.5326 H   0  0  0  0  0  0  0  0  0  0  0  0
  149.1204  140.5582  152.7902 H   0  0  0  0  0  0  0  0  0  0  0  0
  148.8272  141.4086  156.5980 H   0  0  0  0  0  0  0  0  0  0  0  0
  148.7512  139.8400  155.7999 H   0  0  0  0  0  0  0  0  0  0  0  0
  150.5374  139.6449  157.4893 H   0  0  0  0  0  0  0  0  0  0  0  0
  152.1492  140.0878  156.9402 H   0  0  0  0  0  0  0  0  0  0  0  0
  152.0291  140.6353  159.6275 H   0  0  0  0  0  0  0  0  0  0  0  0
  151.9836  142.6157  161.1131 H   0  0  0  0  0  0  0  0  0  0  0  0
  150.1314  144.9325  157.9839 H   0  0  0  0  0  0  0  0  0  0  0  0
  150.1742  142.9535  156.4896 H   0  0  0  0  0  0  0  0  0  0  0  0
  143.2139  145.6405  155.6644 H   0  0  0  0  0  0  0  0  0  0  0  0
  143.0031  145.5469  153.9239 H   0  0  0  0  0  0  0  0  0  0  0  0
  144.3228  146.5051  154.6079 H   0  0  0  0  0  0  0  0  0  0  0  0
  1  2  1  0  0  0  0
  1 25  1  0  0  0  0
  1 26  1  0  0  0  0
  1 27  1  0  0  0  0
  2 23  1  0  0  0  0
  2  3  2  0  0  0  0
  3  4  1  0  0  0  0
  4  5  1  0  0  0  0
  4 18  1  0  0  0  0
  5  6  1  0  0  0  0
  5 28  1  0  0  0  0
  5 29  1  0  0  0  0
  6  7  1  0  0  0  0
  6  8  1  0  0  0  0
  6 30  1  0  0  0  0
  7 31  1  0  0  0  0
  8  9  1  0  0  0  0
  8 32  1  0  0  0  0
  8 33  1  0  0  0  0
  9 10  1  0  0  0  0
 10 11  1  0  0  0  0
 10 34  1  0  0  0  0
 10 35  1  0  0  0  0
 11 17  1  0  0  0  0
 11 12  2  0  0  0  0
 12 13  1  0  0  0  0
 12 36  1  0  0  0  0
 13 14  2  0  0  0  0
 13 37  1  0  0  0  0
 14 15  1  0  0  0  0
 14 16  1  0  0  0  0
 16 17  2  0  0  0  0
 16 38  1  0  0  0  0
 17 39  1  0  0  0  0
 18 19  2  0  0  0  0
 18 20  1  0  0  0  0
 20 21  1  0  0  0  0
 20 23  2  0  0  0  0
 21 22  3  0  0  0  0
 23 24  1  0  0  0  0
 24 40  1  0  0  0  0
 24 41  1  0  0  0  0
 24 42  1  0  0  0  0
M  END
> <s_m_source_file>
AV-unprocessed.smi

> <i_m_source_file_index>
1330

> <i_lp_mmshare_version>
43012

> <i_f3d_flags>
0

> <s_epik_input>
TiNDYyhjMVtDSDNdKWMoPU8pbihuYzFbQ0gzXSlbQ0gyXVtDQEhdKFtPSF0pW0NIMl1PW0NIMl1jMltjSF1bY0hdYyhDbClbY0hdW2NIXTI=

> <s_epik_cmdline>
J2VwaWtfcHl0aG9uJywgJy1waCcsICc3LjAnLCAnLXRuJywgJzgnLCAnLW1hJywgJzIwMCcsICctbWV0YWxfYmluZGluZycsICctaW1hZScsICc8aW5maWxlLm1hZT4nLCAnLW9tYWUnLCAnPG91dGZpbGUubWFlPic=

> <r_lp_tautomer_probability>
1

> <r_epik_Ionization_Penalty>
6.27695e-08

> <r_epik_Ionization_Penalty_Charging>
2.19172e-10

> <r_epik_Ionization_Penalty_Neutral>
6.25504e-08

> <r_epik_State_Penalty>
-0

> <r_epik_Charging_Adjusted_Penalty>
2.19172e-10

> <i_epik_Tot_Q>
0

> <i_epik_Tot_abs_Q>
0

> <r_epik_Metal_State_Penalty>
-0

> <b_epik_Metal_Only>
0

> <s_lp_Force_Field>
OPLS_2005

> <r_lp_Energy>
28.5495

> <b_lp_Chiralities_Consistent>
1

> <s_lp_Variant>
AV-unprocessed.smi:1330-1

> <Gold.Version>
5.8.1

> <Gold.Id.Protein>
6NUR|6NUR_protein|mol2

> <Gold.PLP.Fitness>
54.6018

> <Gold.PLP.PLP>
-50.7168

> <Gold.PLP.part.hbond>
-3.0267

> <Gold.PLP.part.metal>
0.0000

> <Gold.PLP.part.buried>
-6.0027

> <Gold.PLP.part.nonpolar>
-41.5556

> <Gold.PLP.part.repulsive>
0.3383

> <Gold.PLP.ligand.clash>
0.0000

> <Gold.PLP.ligand.torsion>
1.3427

> <Gold.PLP.Chemscore.Hbond>
2.1616

> <Gold.PLP.Chemscore.CHOScore>
0.0000

> <Gold.PLP.Chemscore.Metal>
0.0000

> <Gold.Chemscore.Hbonds>
donor molecule, donor type, donor heavy atom, donor atom, acceptor molecule, acceptor atom, score
      L1  H     7    31       P1  7957  0.54
      P1  H  7989  7998       L1     7  0.21
      P1  H  8011  8017       L1     7  0.70

> <Gold.PLP.Chemscore.Internal.Correction>
0.0856

> <Gold.Rescore>
     Score         DG    S(hbond)    S(metal)    S(lipo)     H(rot)  DE(clash)    DE(int)     intcor
     16.32     -17.74       1.19        0.00     125.19       2.48       0.24       1.18       ----

> <Gold.Chemscore.Fitness>
16.3184

> <Gold.Chemscore.DG>
-17.7444

> <Gold.Chemscore.ZeroCoef>
-5.4800

> <Gold.Chemscore.Hbond>
1.1855

> <Gold.Chemscore.Metal>
0.0000

> <Gold.Chemscore.Lipo>
125.1933

> <Gold.Chemscore.Internal_Hbond>
0.0000

> <Gold.Chemscore.DEClash>
0.2420

> <Gold.Chemscore.DEInternal>
1.1841

> <Gold.Chemscore.Rot>
2.4777

> <Gold.Chemscore.Internal.Correction>
   9.000000E+99

> <Gold.Chemscore.Hbonds>
donor molecule, donor type, donor heavy atom, donor atom, acceptor molecule, acceptor atom, score
      L1  H     7    31       P1  7957  0.56
      P1  H  7989  7998       L1     7  0.20
      P1  H  8011  8017       L1     7  0.04

> <Gold.Chemscore.Hbond.Weighted>
-3.9597

> <Gold.Chemscore.Metal.Weighted>
-0.0000

> <Gold.Chemscore.Lipo.Weighted>
-14.6476

> <Gold.Chemscore.Internal_Hbond.Weighted>
0.0000

> <Gold.Chemscore.DEClash.Weighted>
0.2420

> <Gold.Chemscore.DEInternal.Weighted>
1.1841

> <Gold.Chemscore.Rot.Weighted>
6.3428

> <Gold.Chemscore.Internal.Correction.Weighted>
   9.000000E+99

> <Gold.Protein.RotatedTorsions>
[ 6907 6896 6895 6894 ] final  -28.52 input  -60.11 | X-H torsion
[ 7974 7965 7964 7962 ] final -106.36 input  175.53 | X-H torsion
[ 8008 7997 7996 7995 ] final -135.75 input   59.86 | X-H torsion
[ 10167 10162 10161 10158 ] final    4.69 input  -65.29 | X-H torsion
[ 10718 10713 10712 10709 ] final   20.54 input   66.30 | X-H torsion
[ 10763 10752 10751 10750 ] final   88.14 input  -60.55 | X-H torsion
[ 11005 11000 10999 10996 ] final   15.77 input  -57.11 | X-H torsion

> <Gold.Protein.ActiveResidues>
 VAL166  LYS551  ARG553  GLY616  TRP617  ASP618  TYR619  PRO620  LYS621  CYS622 
 ASP623  PHE694  ASN695  SER759  ASP760  ASP761  ALA762  ILE779  LEU786  VAL792 
 PHE793  MET794  SER795  GLU796  ALA797  LYS798  CYS799  TRP800  GLU811  SER814 

> <Gold.Protein.RotatedAtoms>
  151.1318  135.0134  159.8585 H   0  0  0  0  0  0  0  0  0  0  0  0  # atno 6907 bound_to 6896
  152.5451  134.1601  159.8564 H   0  0  0  0  0  0  0  0  0  0  0  0  # atno 6908 bound_to 6896
  151.1668  133.4764  159.2627 H   0  0  0  0  0  0  0  0  0  0  0  0  # atno 6909 bound_to 6896
  145.2188  140.9126  143.3271 H   0  0  0  0  0  0  0  0  0  0  0  0  # atno 7974 bound_to 7965
  155.3838  140.0495  157.3043 H   0  0  0  0  0  0  0  0  0  0  0  0  # atno 8008 bound_to 7997
  154.5070  140.2177  155.9194 H   0  0  0  0  0  0  0  0  0  0  0  0  # atno 8009 bound_to 7997
  156.1537  140.3131  155.8695 H   0  0  0  0  0  0  0  0  0  0  0  0  # atno 8010 bound_to 7997
  140.6521  143.7518  150.7593 H   0  0  0  0  0  0  0  0  0  0  0  0  # atno 10167 bound_to 10162
  157.1259  130.6570  149.5937 H   0  0  0  0  0  0  0  0  0  0  0  0  # atno 10718 bound_to 10713
  153.1738  135.4518  154.9938 H   0  0  0  0  0  0  0  0  0  0  0  0  # atno 10763 bound_to 10752
  154.7984  135.3246  154.7613 H   0  0  0  0  0  0  0  0  0  0  0  0  # atno 10764 bound_to 10752
  153.8086  135.6956  153.4899 H   0  0  0  0  0  0  0  0  0  0  0  0  # atno 10765 bound_to 10752
  140.4546  134.1189  155.7707 H   0  0  0  0  0  0  0  0  0  0  0  0  # atno 11005 bound_to 11000
  144.9785  139.3807  143.6274 LP  0  0  0  0  0  0  0  0  0  0  0  0  # atno 17320 bound_to 7965
  146.3381  139.8915  142.8808 LP  0  0  0  0  0  0  0  0  0  0  0  0  # atno 17321 bound_to 7965
  140.1171  143.4646  152.2336 LP  0  0  0  0  0  0  0  0  0  0  0  0  # atno 17342 bound_to 10162
  139.5738  144.7477  151.3819 LP  0  0  0  0  0  0  0  0  0  0  0  0  # atno 17343 bound_to 10162
  155.9818  130.4828  150.6848 LP  0  0  0  0  0  0  0  0  0  0  0  0  # atno 17370 bound_to 10713
  157.4435  131.0864  151.0919 LP  0  0  0  0  0  0  0  0  0  0  0  0  # atno 17371 bound_to 10713
  141.1649  133.8722  157.1744 LP  0  0  0  0  0  0  0  0  0  0  0  0  # atno 17394 bound_to 11000
  139.9985  135.0037  157.0136 LP  0  0  0  0  0  0  0  0  0  0  0  0  # atno 17395 bound_to 11000

$$$$
