AV-unprocessed.smi:2336|AV-procd|sdf|9327|dock7
  -GOLD-   2272012543D 1   1.00000     0.00000
 Structure written by MMmdl.
 50 51  0  0  0  0  0  0  0  0  2 V2000
  153.0346  138.7301  154.7368 C   0  0  0  0  0  0  0  0  0  0  0  0
  152.0336  138.8316  155.9018 C   0  0  0  0  0  0  0  0  0  0  0  0
  152.1401  137.6079  156.8295 C   0  0  0  0  0  0  0  0  0  0  0  0
  150.5643  139.1476  155.4524 C   0  0  2  0  0  0  0  0  0  0  0  0
  149.9907  138.1063  154.4377 C   0  0  0  0  0  0  0  0  0  0  0  0
  149.4511  136.9119  155.0764 N   0  0  0  0  0  0  0  0  0  0  0  0
  150.1501  135.7921  155.3128 C   0  0  0  0  0  0  0  0  0  0  0  0
  151.3373  135.6629  155.0126 O   0  0  0  0  0  0  0  0  0  0  0  0
  149.3798  134.8526  155.8874 N   0  0  0  0  0  0  0  0  0  0  0  0
  149.7152  133.5226  156.2635 C   0  0  0  0  0  0  0  0  0  0  0  0
  150.6167  132.6921  155.5538 C   0  0  0  0  0  0  0  0  0  0  0  0
  150.8674  131.3947  156.0438 C   0  0  0  0  0  0  0  0  0  0  0  0
  150.2997  130.8986  157.1633 N   0  0  0  0  0  0  0  0  0  0  0  0
  149.4516  131.6972  157.8447 C   0  0  0  0  0  0  0  0  0  0  0  0
  149.1308  133.0087  157.4408 C   0  0  0  0  0  0  0  0  0  0  0  0
  148.2732  133.7589  158.1743 F   0  0  0  0  0  0  0  0  0  0  0  0
  150.4909  140.5432  154.9546 N   0  0  0  0  0  0  0  0  0  0  0  0
  149.2145  140.9970  154.3819 C   0  0  0  0  0  0  0  0  0  0  0  0
  148.1155  141.1230  155.4585 C   0  0  0  0  0  0  0  0  0  0  0  0
  148.5191  142.1146  156.4798 N   0  3  0  0  0  0  0  0  0  0  0  0
  147.4819  142.3288  157.5113 C   0  0  0  0  0  0  0  0  0  0  0  0
  149.8354  141.7589  157.0564 C   0  0  0  0  0  0  0  0  0  0  0  0
  150.8868  141.5671  155.9394 C   0  0  0  0  0  0  0  0  0  0  0  0
  152.8574  137.8474  154.1223 H   0  0  0  0  0  0  0  0  0  0  0  0
  154.0573  138.6635  155.1091 H   0  0  0  0  0  0  0  0  0  0  0  0
  152.9788  139.6072  154.0917 H   0  0  0  0  0  0  0  0  0  0  0  0
  152.4030  139.6487  156.5153 H   0  0  0  0  0  0  0  0  0  0  0  0
  151.9930  136.6684  156.3000 H   0  0  0  0  0  0  0  0  0  0  0  0
  151.4097  137.6583  157.6374 H   0  0  0  0  0  0  0  0  0  0  0  0
  153.1280  137.5589  157.2884 H   0  0  0  0  0  0  0  0  0  0  0  0
  149.9276  139.0934  156.3335 H   0  0  0  0  0  0  0  0  0  0  0  0
  149.1750  138.5187  153.8455 H   0  0  0  0  0  0  0  0  0  0  0  0
  150.7513  137.8033  153.7182 H   0  0  0  0  0  0  0  0  0  0  0  0
  148.4790  136.9384  155.3487 H   0  0  0  0  0  0  0  0  0  0  0  0
  148.4087  135.0975  156.0158 H   0  0  0  0  0  0  0  0  0  0  0  0
  151.1257  133.0180  154.6607 H   0  0  0  0  0  0  0  0  0  0  0  0
  151.5499  130.7389  155.5236 H   0  0  0  0  0  0  0  0  0  0  0  0
  149.0159  131.2794  158.7403 H   0  0  0  0  0  0  0  0  0  0  0  0
  149.3720  141.9713  153.9170 H   0  0  0  0  0  0  0  0  0  0  0  0
  148.8957  140.3517  153.5645 H   0  0  0  0  0  0  0  0  0  0  0  0
  147.1856  141.4483  154.9910 H   0  0  0  0  0  0  0  0  0  0  0  0
  147.9107  140.1632  155.9345 H   0  0  0  0  0  0  0  0  0  0  0  0
  147.2959  141.4139  158.0755 H   0  0  0  0  0  0  0  0  0  0  0  0
  146.5441  142.6455  157.0535 H   0  0  0  0  0  0  0  0  0  0  0  0
  147.7906  143.1061  158.2109 H   0  0  0  0  0  0  0  0  0  0  0  0
  150.1595  142.5619  157.7192 H   0  0  0  0  0  0  0  0  0  0  0  0
  149.7456  140.8673  157.6775 H   0  0  0  0  0  0  0  0  0  0  0  0
  151.8525  141.3545  156.3912 H   0  0  0  0  0  0  0  0  0  0  0  0
  151.0223  142.5129  155.4127 H   0  0  0  0  0  0  0  0  0  0  0  0
  148.6410  142.9935  155.9971 H   0  0  0  0  0  0  0  0  0  0  0  0
  1  2  1  0  0  0  0
  1 24  1  0  0  0  0
  1 25  1  0  0  0  0
  1 26  1  0  0  0  0
  2  3  1  0  0  0  0
  2  4  1  0  0  0  0
  2 27  1  0  0  0  0
  3 28  1  0  0  0  0
  3 29  1  0  0  0  0
  3 30  1  0  0  0  0
  4  5  1  0  0  0  0
  4 17  1  0  0  0  0
  4 31  1  0  0  0  0
  5  6  1  0  0  0  0
  5 32  1  0  0  0  0
  5 33  1  0  0  0  0
  6  7  1  0  0  0  0
  6 34  1  0  0  0  0
  7  8  2  0  0  0  0
  7  9  1  0  0  0  0
  9 10  1  0  0  0  0
  9 35  1  0  0  0  0
 10 15  1  0  0  0  0
 10 11  2  0  0  0  0
 11 12  1  0  0  0  0
 11 36  1  0  0  0  0
 12 13  2  0  0  0  0
 12 37  1  0  0  0  0
 13 14  1  0  0  0  0
 14 15  2  0  0  0  0
 14 38  1  0  0  0  0
 15 16  1  0  0  0  0
 17 23  1  0  0  0  0
 17 18  1  0  0  0  0
 18 19  1  0  0  0  0
 18 39  1  0  0  0  0
 18 40  1  0  0  0  0
 19 20  1  0  0  0  0
 19 41  1  0  0  0  0
 19 42  1  0  0  0  0
 20 21  1  0  0  0  0
 20 22  1  0  0  0  0
 20 50  1  0  0  0  0
 21 43  1  0  0  0  0
 21 44  1  0  0  0  0
 21 45  1  0  0  0  0
 22 23  1  0  0  0  0
 22 46  1  0  0  0  0
 22 47  1  0  0  0  0
 23 48  1  0  0  0  0
 23 49  1  0  0  0  0
M  CHG  1  20   1
M  END
> <s_m_source_file>
AV-unprocessed.smi

> <i_m_source_file_index>
2336

> <i_lp_mmshare_version>
43012

> <i_f3d_flags>
0

> <s_epik_input>
W0NIMl0xW0NIMl1OKFtDSDNdKVtDSDJdW0NIMl1OMVtDQEhdKFtDSF0oW0NIM10pW0NIM10pW0NIMl1bTkhdQyg9TylbTkhdYzJbY0hdW2NIXW5bY0hdYzJG

> <s_epik_cmdline>
J2VwaWtfcHl0aG9uJywgJy1waCcsICc3LjAnLCAnLXRuJywgJzgnLCAnLW1hJywgJzIwMCcsICctbWV0YWxfYmluZGluZycsICctaW1hZScsICc8aW5maWxlLm1hZT4nLCAnLW9tYWUnLCAnPG91dGZpbGUubWFlPic=

> <r_epik_Ionization_Penalty>
0.0313013

> <r_epik_Ionization_Penalty_Charging>
0.0272987

> <r_epik_Ionization_Penalty_Neutral>
0.00400259

> <r_epik_State_Penalty>
0.0776825

> <r_epik_Charging_Adjusted_Penalty>
0.104981

> <i_epik_Tot_Q>
1

> <i_epik_Tot_abs_Q>
1

> <r_epik_Metal_State_Penalty>
0.0776139

> <b_epik_Metal_Only>
0

> <s_lp_Force_Field>
OPLS_2005

> <r_lp_Energy>
31.6665

> <b_lp_Chiralities_Consistent>
1

> <s_lp_Variant>
AV-unprocessed.smi:2336-1

> <Gold.Version>
5.8.1

> <Gold.Id.Protein>
6NUR|6NUR_protein|mol2

> <Gold.PLP.Fitness>
41.4160

> <Gold.PLP.PLP>
-31.1235

> <Gold.PLP.part.hbond>
-3.0173

> <Gold.PLP.part.metal>
0.0000

> <Gold.PLP.part.buried>
-3.7838

> <Gold.PLP.part.nonpolar>
-24.6416

> <Gold.PLP.part.repulsive>
0.2599

> <Gold.PLP.ligand.clash>
0.0000

> <Gold.PLP.ligand.torsion>
0.9199

> <Gold.PLP.Chemscore.Hbond>
3.9920

> <Gold.PLP.Chemscore.CHOScore>
0.0000

> <Gold.PLP.Chemscore.Metal>
0.0000

> <Gold.Chemscore.Hbonds>
donor molecule, donor type, donor heavy atom, donor atom, acceptor molecule, acceptor atom, score
      L1  H    20    50       P1  8028  2.00
      P1  H  7989  7998       L1    17  0.93
      P1  H 10752 10764       L1     8  1.00

> <Gold.PLP.Chemscore.Internal.Correction>
0.1562

> <Gold.Rescore>
     Score         DG    S(hbond)    S(metal)    S(lipo)     H(rot)  DE(clash)    DE(int)     intcor
     16.69     -17.60       2.06        0.00      81.47       1.67       0.05       0.86       ----

> <Gold.Chemscore.Fitness>
16.6884

> <Gold.Chemscore.DG>
-17.6013

> <Gold.Chemscore.ZeroCoef>
-5.4800

> <Gold.Chemscore.Hbond>
2.0581

> <Gold.Chemscore.Metal>
0.0000

> <Gold.Chemscore.Lipo>
81.4740

> <Gold.Chemscore.Internal_Hbond>
0.0000

> <Gold.Chemscore.DEClash>
0.0504

> <Gold.Chemscore.DEInternal>
0.8625

> <Gold.Chemscore.Rot>
1.6739

> <Gold.Chemscore.Internal.Correction>
   9.000000E+99

> <Gold.Chemscore.Hbonds>
donor molecule, donor type, donor heavy atom, donor atom, acceptor molecule, acceptor atom, score
      L1  H    20    50       P1  8028  0.99
      P1  H  7989  7998       L1    17  0.07
      P1  H 10752 10764       L1     8  0.99

> <Gold.Chemscore.Hbond.Weighted>
-6.8740

> <Gold.Chemscore.Metal.Weighted>
-0.0000

> <Gold.Chemscore.Lipo.Weighted>
-9.5325

> <Gold.Chemscore.Internal_Hbond.Weighted>
0.0000

> <Gold.Chemscore.DEClash.Weighted>
0.0504

> <Gold.Chemscore.DEInternal.Weighted>
0.8625

> <Gold.Chemscore.Rot.Weighted>
4.2851

> <Gold.Chemscore.Internal.Correction.Weighted>
   9.000000E+99

> <Gold.Protein.RotatedTorsions>
[ 6907 6896 6895 6894 ] final -175.17 input  -60.11 | X-H torsion
[ 7974 7965 7964 7962 ] final   71.39 input  175.53 | X-H torsion
[ 8008 7997 7996 7995 ] final  166.98 input   59.86 | X-H torsion
[ 10167 10162 10161 10158 ] final   10.79 input  -65.29 | X-H torsion
[ 10718 10713 10712 10709 ] final -104.53 input   66.30 | X-H torsion
[ 10763 10752 10751 10750 ] final  -64.87 input  -60.55 | X-H torsion
[ 11005 11000 10999 10996 ] final  -45.02 input  -57.11 | X-H torsion

> <Gold.Protein.ActiveResidues>
 VAL166  LYS551  ARG553  GLY616  TRP617  ASP618  TYR619  PRO620  LYS621  CYS622 
 ASP623  PHE694  ASN695  SER759  ASP760  ASP761  ALA762  ILE779  LEU786  VAL792 
 PHE793  MET794  SER795  GLU796  ALA797  LYS798  CYS799  TRP800  GLU811  SER814 

> <Gold.Protein.RotatedAtoms>
  151.5842  133.3374  159.3014 H   0  0  0  0  0  0  0  0  0  0  0  0  # atno 6907 bound_to 6896
  150.8296  134.7547  159.6854 H   0  0  0  0  0  0  0  0  0  0  0  0  # atno 6908 bound_to 6896
  152.4382  134.5651  159.9957 H   0  0  0  0  0  0  0  0  0  0  0  0  # atno 6909 bound_to 6896
  145.7664  139.2823  143.1346 H   0  0  0  0  0  0  0  0  0  0  0  0  # atno 7974 bound_to 7965
  156.1672  140.1629  156.8510 H   0  0  0  0  0  0  0  0  0  0  0  0  # atno 8008 bound_to 7997
  154.5220  140.0776  156.8224 H   0  0  0  0  0  0  0  0  0  0  0  0  # atno 8009 bound_to 7997
  155.3586  140.3394  155.4242 H   0  0  0  0  0  0  0  0  0  0  0  0  # atno 8010 bound_to 7997
  140.6172  143.8282  150.7133 H   0  0  0  0  0  0  0  0  0  0  0  0  # atno 10167 bound_to 10162
  156.0308  130.5519  150.7409 H   0  0  0  0  0  0  0  0  0  0  0  0  # atno 10718 bound_to 10713
  154.3365  135.6165  153.5576 H   0  0  0  0  0  0  0  0  0  0  0  0  # atno 10763 bound_to 10752
  152.9807  135.5759  154.4901 H   0  0  0  0  0  0  0  0  0  0  0  0  # atno 10764 bound_to 10752
  154.4597  135.2855  155.1698 H   0  0  0  0  0  0  0  0  0  0  0  0  # atno 10765 bound_to 10752
  141.0488  133.6751  156.2954 H   0  0  0  0  0  0  0  0  0  0  0  0  # atno 11005 bound_to 11000
  146.0214  140.8345  142.9921 LP  0  0  0  0  0  0  0  0  0  0  0  0  # atno 17320 bound_to 7965
  144.6821  140.2634  143.7316 LP  0  0  0  0  0  0  0  0  0  0  0  0  # atno 17321 bound_to 7965
  140.1864  143.4073  152.1896 LP  0  0  0  0  0  0  0  0  0  0  0  0  # atno 17342 bound_to 10162
  139.5409  144.7255  151.4739 LP  0  0  0  0  0  0  0  0  0  0  0  0  # atno 17343 bound_to 10162
  157.4978  131.0916  151.0350 LP  0  0  0  0  0  0  0  0  0  0  0  0  # atno 17370 bound_to 10713
  157.0740  130.5875  149.5407 LP  0  0  0  0  0  0  0  0  0  0  0  0  # atno 17371 bound_to 10713
  140.6095  134.5473  157.5531 LP  0  0  0  0  0  0  0  0  0  0  0  0  # atno 17394 bound_to 11000
  139.9333  134.7922  156.0870 LP  0  0  0  0  0  0  0  0  0  0  0  0  # atno 17395 bound_to 11000

$$$$
