AV-unprocessed.smi:467|AV-procd|sdf|2649|dock1
  -GOLD-   2262023 63D 1   1.00000     0.00000
 Structure written by MMmdl.
 46 48  0  0  0  0  0  0  0  0  3 V2000
  151.8647  144.7522  160.3809 C   0  0  0  0  0  0  0  0  0  0  0  0
  151.7759  143.6276  159.3631 C   0  0  0  0  0  0  0  0  0  0  0  0
  150.9286  143.7958  158.2449 C   0  0  0  0  0  0  0  0  0  0  0  0
  150.8692  142.7506  157.3310 C   0  0  0  0  0  0  0  0  0  0  0  0
  150.1406  142.6136  156.1479 N   0  3  0  0  0  0  0  0  0  0  0  0
  150.4089  141.4029  155.5864 C   0  0  0  0  0  0  0  0  0  0  0  0
  151.3035  140.7655  156.3902 N   0  0  0  0  0  0  0  0  0  0  0  0
  151.9109  139.4355  156.2386 C   0  0  0  0  0  0  0  0  0  0  0  0
  150.8685  138.3157  156.0463 C   0  0  2  0  0  0  0  0  0  0  0  0
  151.1977  137.2794  156.9491 O   0  0  0  0  0  0  0  0  0  0  0  0
  150.8330  137.7452  154.6104 C   0  0  0  0  0  0  0  0  0  0  0  0
  149.8609  136.6339  154.4464 N   0  3  0  0  0  0  0  0  0  0  0  0
  150.4066  135.3041  154.8182 C   0  0  0  0  0  0  0  0  0  0  0  0
  149.3517  134.2062  154.5956 C   0  0  0  0  0  0  0  0  0  0  0  0
  148.1775  134.5121  155.3371 O   0  0  0  0  0  0  0  0  0  0  0  0
  147.5938  135.7413  154.9250 C   0  0  0  0  0  0  0  0  0  0  0  0
  148.5896  136.8885  155.1657 C   0  0  0  0  0  0  0  0  0  0  0  0
  151.6149  141.5667  157.4969 C   0  0  0  0  0  0  0  0  0  0  0  0
  152.4546  141.3855  158.5945 C   0  0  0  0  0  0  0  0  0  0  0  0
  152.5285  142.4374  159.5358 C   0  0  0  0  0  0  0  0  0  0  0  0
  153.4337  142.2665  160.7440 C   0  0  0  0  0  0  0  0  0  0  0  0
  151.2204  145.5885  160.1081 H   0  0  0  0  0  0  0  0  0  0  0  0
  152.8861  145.1278  160.4484 H   0  0  0  0  0  0  0  0  0  0  0  0
  151.5569  144.4029  161.3667 H   0  0  0  0  0  0  0  0  0  0  0  0
  150.3512  144.6987  158.1082 H   0  0  0  0  0  0  0  0  0  0  0  0
  149.9869  141.0179  154.6690 H   0  0  0  0  0  0  0  0  0  0  0  0
  152.6294  139.4533  155.4192 H   0  0  0  0  0  0  0  0  0  0  0  0
  152.4910  139.2492  157.1438 H   0  0  0  0  0  0  0  0  0  0  0  0
  149.8923  138.7098  156.3271 H   0  0  0  0  0  0  0  0  0  0  0  0
  151.4318  136.5063  156.4593 H   0  0  0  0  0  0  0  0  0  0  0  0
  150.5901  138.5241  153.8869 H   0  0  0  0  0  0  0  0  0  0  0  0
  151.8346  137.3952  154.3550 H   0  0  0  0  0  0  0  0  0  0  0  0
  151.2921  135.0730  154.2276 H   0  0  0  0  0  0  0  0  0  0  0  0
  150.7145  135.3137  155.8651 H   0  0  0  0  0  0  0  0  0  0  0  0
  149.1119  134.1046  153.5360 H   0  0  0  0  0  0  0  0  0  0  0  0
  149.7377  133.2425  154.9287 H   0  0  0  0  0  0  0  0  0  0  0  0
  147.3053  135.6885  153.8739 H   0  0  0  0  0  0  0  0  0  0  0  0
  146.6813  135.9087  155.4978 H   0  0  0  0  0  0  0  0  0  0  0  0
  148.7875  136.9933  156.2337 H   0  0  0  0  0  0  0  0  0  0  0  0
  148.1522  137.8283  154.8260 H   0  0  0  0  0  0  0  0  0  0  0  0
  153.0303  140.4823  158.7310 H   0  0  0  0  0  0  0  0  0  0  0  0
  153.9574  141.3104  160.7200 H   0  0  0  0  0  0  0  0  0  0  0  0
  152.8520  142.3042  161.6655 H   0  0  0  0  0  0  0  0  0  0  0  0
  154.1851  143.0557  160.7763 H   0  0  0  0  0  0  0  0  0  0  0  0
  149.6248  136.5976  153.4649 H   0  0  0  0  0  0  0  0  0  0  0  0
  149.5028  143.2932  155.7529 H   0  0  0  0  0  0  0  0  0  0  0  0
  1  2  1  0  0  0  0
  1 22  1  0  0  0  0
  1 23  1  0  0  0  0
  1 24  1  0  0  0  0
  2 20  1  0  0  0  0
  2  3  2  0  0  0  0
  3  4  1  0  0  0  0
  3 25  1  0  0  0  0
  4 18  2  0  0  0  0
  4  5  1  0  0  0  0
  5  6  2  0  0  0  0
  5 46  1  0  0  0  0
  6  7  1  0  0  0  0
  6 26  1  0  0  0  0
  7  8  1  0  0  0  0
  7 18  1  0  0  0  0
  8  9  1  0  0  0  0
  8 27  1  0  0  0  0
  8 28  1  0  0  0  0
  9 10  1  0  0  0  0
  9 11  1  0  0  0  0
  9 29  1  0  0  0  0
 10 30  1  0  0  0  0
 11 12  1  0  0  0  0
 11 31  1  0  0  0  0
 11 32  1  0  0  0  0
 12 17  1  0  0  0  0
 12 13  1  0  0  0  0
 12 45  1  0  0  0  0
 13 14  1  0  0  0  0
 13 33  1  0  0  0  0
 13 34  1  0  0  0  0
 14 15  1  0  0  0  0
 14 35  1  0  0  0  0
 14 36  1  0  0  0  0
 15 16  1  0  0  0  0
 16 17  1  0  0  0  0
 16 37  1  0  0  0  0
 16 38  1  0  0  0  0
 17 39  1  0  0  0  0
 17 40  1  0  0  0  0
 18 19  1  0  0  0  0
 19 20  2  0  0  0  0
 19 41  1  0  0  0  0
 20 21  1  0  0  0  0
 21 42  1  0  0  0  0
 21 43  1  0  0  0  0
 21 44  1  0  0  0  0
M  CHG  1   5   1
M  CHG  1  12   1
M  END
> <s_m_source_file>
AV-unprocessed.smi

> <i_m_source_file_index>
467

> <i_lp_mmshare_version>
43012

> <i_f3d_flags>
0

> <s_epik_input>
W0NIM11jKFtjSF0xKWMoW0NIM10pW2NIXWMoYzEyKW4oW2NIXW4yKVtDSDJdW0NASF0oW09IXSlbQ0gyXU4zW0NIMl1bQ0gyXU9bQ0gyXVtDSDJdMw==

> <s_epik_cmdline>
J2VwaWtfcHl0aG9uJywgJy1waCcsICc3LjAnLCAnLXRuJywgJzgnLCAnLW1hJywgJzIwMCcsICctbWV0YWxfYmluZGluZycsICctaW1hZScsICc8aW5maWxlLm1hZT4nLCAnLW9tYWUnLCAnPG91dGZpbGUubWFlPic=

> <r_epik_Ionization_Penalty>
1.88533

> <r_epik_Ionization_Penalty_Charging>
1.88531

> <r_epik_Ionization_Penalty_Neutral>
1.42224e-05

> <r_epik_State_Penalty>
1.94609

> <r_epik_Charging_Adjusted_Penalty>
3.8314

> <i_epik_Tot_Q>
2

> <i_epik_Tot_abs_Q>
2

> <r_epik_Metal_State_Penalty>
5.95915

> <b_epik_Metal_Only>
0

> <s_lp_Force_Field>
OPLS_2005

> <r_lp_Energy>
33.5699

> <b_lp_Chiralities_Consistent>
1

> <s_lp_Variant>
AV-unprocessed.smi:467-7

> <Gold.Version>
5.8.1

> <Gold.Id.Protein>
6NUR|6NUR_protein|mol2

> <Gold.PLP.Fitness>
52.1015

> <Gold.PLP.PLP>
-41.9724

> <Gold.PLP.part.hbond>
-2.0484

> <Gold.PLP.part.metal>
0.0000

> <Gold.PLP.part.buried>
-5.4457

> <Gold.PLP.part.nonpolar>
-35.0367

> <Gold.PLP.part.repulsive>
0.2003

> <Gold.PLP.ligand.clash>
0.0000

> <Gold.PLP.ligand.torsion>
0.9573

> <Gold.PLP.Chemscore.Hbond>
4.0000

> <Gold.PLP.Chemscore.CHOScore>
0.0000

> <Gold.PLP.Chemscore.Metal>
0.0000

> <Gold.Chemscore.Hbonds>
donor molecule, donor type, donor heavy atom, donor atom, acceptor molecule, acceptor atom, score
      L1  H     5    46       P1  8028  2.00
      L1  H    12    45       P1  7948  2.00

> <Gold.PLP.Chemscore.Internal.Correction>
0.0437

> <Gold.Rescore>
     Score         DG    S(hbond)    S(metal)    S(lipo)     H(rot)  DE(clash)    DE(int)     intcor
     18.52     -19.55       1.94        0.00     112.12       2.16       0.04       0.98       ----

> <Gold.Chemscore.Fitness>
18.5178

> <Gold.Chemscore.DG>
-19.5472

> <Gold.Chemscore.ZeroCoef>
-5.4800

> <Gold.Chemscore.Hbond>
1.9392

> <Gold.Chemscore.Metal>
0.0000

> <Gold.Chemscore.Lipo>
112.1186

> <Gold.Chemscore.Internal_Hbond>
0.0000

> <Gold.Chemscore.DEClash>
0.0444

> <Gold.Chemscore.DEInternal>
0.9849

> <Gold.Chemscore.Rot>
2.1592

> <Gold.Chemscore.Internal.Correction>
   9.000000E+99

> <Gold.Chemscore.Hbonds>
donor molecule, donor type, donor heavy atom, donor atom, acceptor molecule, acceptor atom, score
      L1  H     5    46       P1  8028  0.93
      L1  H    12    45       P1  7948  0.55

> <Gold.Chemscore.Hbond.Weighted>
-6.4768

> <Gold.Chemscore.Metal.Weighted>
-0.0000

> <Gold.Chemscore.Lipo.Weighted>
-13.1179

> <Gold.Chemscore.Internal_Hbond.Weighted>
0.0000

> <Gold.Chemscore.DEClash.Weighted>
0.0444

> <Gold.Chemscore.DEInternal.Weighted>
0.9849

> <Gold.Chemscore.Rot.Weighted>
5.5275

> <Gold.Chemscore.Internal.Correction.Weighted>
   9.000000E+99

> <Gold.Protein.RotatedTorsions>
[ 6907 6896 6895 6894 ] final  -43.41 input  -60.11 | X-H torsion
[ 7974 7965 7964 7962 ] final    5.32 input  175.53 | X-H torsion
[ 8008 7997 7996 7995 ] final   -0.91 input   59.86 | X-H torsion
[ 10167 10162 10161 10158 ] final  -39.05 input  -65.29 | X-H torsion
[ 10718 10713 10712 10709 ] final  135.16 input   66.30 | X-H torsion
[ 10763 10752 10751 10750 ] final  -24.42 input  -60.55 | X-H torsion
[ 11005 11000 10999 10996 ] final  -12.65 input  -57.11 | X-H torsion

> <Gold.Protein.ActiveResidues>
 VAL166  LYS551  ARG553  GLY616  TRP617  ASP618  TYR619  PRO620  LYS621  CYS622 
 ASP623  PHE694  ASN695  SER759  ASP760  ASP761  ALA762  ILE779  LEU786  VAL792 
 PHE793  MET794  SER795  GLU796  ALA797  LYS798  CYS799  TRP800  GLU811  SER814 

> <Gold.Protein.RotatedAtoms>
  150.9443  134.8849  159.7631 H   0  0  0  0  0  0  0  0  0  0  0  0  # atno 6907 bound_to 6896
  152.5093  134.3898  159.9390 H   0  0  0  0  0  0  0  0  0  0  0  0  # atno 6908 bound_to 6896
  151.3917  133.3746  159.2756 H   0  0  0  0  0  0  0  0  0  0  0  0  # atno 6909 bound_to 6896
  146.2441  140.0402  142.8383 H   0  0  0  0  0  0  0  0  0  0  0  0  # atno 7974 bound_to 7965
  154.6527  140.2572  155.7195 H   0  0  0  0  0  0  0  0  0  0  0  0  # atno 8008 bound_to 7997
  156.2583  140.2864  156.0889 H   0  0  0  0  0  0  0  0  0  0  0  0  # atno 8009 bound_to 7997
  155.1426  140.0380  157.2792 H   0  0  0  0  0  0  0  0  0  0  0  0  # atno 8010 bound_to 7997
  140.7075  143.3239  151.2727 H   0  0  0  0  0  0  0  0  0  0  0  0  # atno 10167 bound_to 10162
  157.4599  131.1072  150.9932 H   0  0  0  0  0  0  0  0  0  0  0  0  # atno 10718 bound_to 10713
  153.6835  135.6965  153.5111 H   0  0  0  0  0  0  0  0  0  0  0  0  # atno 10763 bound_to 10752
  153.2467  135.4288  155.0754 H   0  0  0  0  0  0  0  0  0  0  0  0  # atno 10764 bound_to 10752
  154.8393  135.3521  154.6378 H   0  0  0  0  0  0  0  0  0  0  0  0  # atno 10765 bound_to 10752
  140.7679  133.8462  155.9181 H   0  0  0  0  0  0  0  0  0  0  0  0  # atno 11005 bound_to 11000
  145.1076  140.9385  143.4675 LP  0  0  0  0  0  0  0  0  0  0  0  0  # atno 17320 bound_to 7965
  145.0609  139.3106  143.5881 LP  0  0  0  0  0  0  0  0  0  0  0  0  # atno 17321 bound_to 7965
  139.6701  144.0035  152.2747 LP  0  0  0  0  0  0  0  0  0  0  0  0  # atno 17342 bound_to 10162
  139.9631  144.6544  150.8060 LP  0  0  0  0  0  0  0  0  0  0  0  0  # atno 17343 bound_to 10162
  157.0733  130.5873  149.5406 LP  0  0  0  0  0  0  0  0  0  0  0  0  # atno 17370 bound_to 10713
  156.0024  130.5105  150.7711 LP  0  0  0  0  0  0  0  0  0  0  0  0  # atno 17371 bound_to 10713
  140.9601  134.1666  157.4660 LP  0  0  0  0  0  0  0  0  0  0  0  0  # atno 17394 bound_to 11000
  139.8760  134.9942  156.5680 LP  0  0  0  0  0  0  0  0  0  0  0  0  # atno 17395 bound_to 11000

$$$$
