AV-unprocessed.smi:1350|AV-procd|sdf|5521|dock4
  -GOLD-   22720 5113D 1   1.00000     0.00000
 Structure written by MMmdl.
 43 45  0  0  0  0  0  0  0  0  1 V2000
  144.7417  142.2005  158.0552 C   0  0  0  0  0  0  0  0  0  0  0  0
  145.4474  142.0308  156.8351 O   0  0  0  0  0  0  0  0  0  0  0  0
  145.2902  142.9836  155.8489 C   0  0  0  0  0  0  0  0  0  0  0  0
  144.4198  144.0976  155.9660 C   0  0  0  0  0  0  0  0  0  0  0  0
  144.3120  145.0353  154.9214 C   0  0  0  0  0  0  0  0  0  0  0  0
  145.0701  144.8748  153.7481 C   0  0  0  0  0  0  0  0  0  0  0  0
  145.9359  143.7739  153.6198 C   0  0  0  0  0  0  0  0  0  0  0  0
  146.0459  142.8289  154.6617 C   0  0  0  0  0  0  0  0  0  0  0  0
  146.9891  141.6493  154.5059 C   0  0  0  0  0  0  0  0  0  0  0  0
  148.3352  142.0763  154.3788 O   0  0  0  0  0  0  0  0  0  0  0  0
  149.2624  141.0046  154.4204 C   0  0  0  0  0  0  0  0  0  0  0  0
  150.2882  141.2809  155.5306 C   0  0  1  0  0  0  0  0  0  0  0  0
  150.5117  142.6757  155.5970 O   0  0  0  0  0  0  0  0  0  0  0  0
  149.7982  140.7841  156.9043 C   0  0  0  0  0  0  0  0  0  0  0  0
  150.8538  140.7768  157.9018 N   0  0  0  0  0  0  0  0  0  0  0  0
  151.4895  139.6975  158.3968 C   0  0  0  0  0  0  0  0  0  0  0  0
  152.4308  139.9100  159.3120 N   0  0  0  0  0  0  0  0  0  0  0  0
  152.4044  141.2896  159.4235 C   0  0  0  0  0  0  0  0  0  0  0  0
  153.1683  142.1579  160.2358 C   0  0  0  0  0  0  0  0  0  0  0  0
  152.9654  143.5526  160.1789 C   0  0  0  0  0  0  0  0  0  0  0  0
  151.9981  144.0996  159.3107 C   0  0  0  0  0  0  0  0  0  0  0  0
  151.2245  143.2544  158.4920 C   0  0  0  0  0  0  0  0  0  0  0  0
  151.4288  141.8631  158.5530 C   0  0  0  0  0  0  0  0  0  0  0  0
  144.9641  141.3638  158.7174 H   0  0  0  0  0  0  0  0  0  0  0  0
  143.6629  142.2146  157.8935 H   0  0  0  0  0  0  0  0  0  0  0  0
  145.0438  143.1151  158.5671 H   0  0  0  0  0  0  0  0  0  0  0  0
  143.8226  144.2580  156.8505 H   0  0  0  0  0  0  0  0  0  0  0  0
  143.6466  145.8802  155.0217 H   0  0  0  0  0  0  0  0  0  0  0  0
  144.9880  145.5952  152.9475 H   0  0  0  0  0  0  0  0  0  0  0  0
  146.5150  143.6576  152.7154 H   0  0  0  0  0  0  0  0  0  0  0  0
  146.8965  140.9796  155.3625 H   0  0  0  0  0  0  0  0  0  0  0  0
  146.6884  141.0828  153.6230 H   0  0  0  0  0  0  0  0  0  0  0  0
  148.7612  140.0465  154.5698 H   0  0  0  0  0  0  0  0  0  0  0  0
  149.7715  140.9562  153.4563 H   0  0  0  0  0  0  0  0  0  0  0  0
  151.2286  140.7831  155.2894 H   0  0  0  0  0  0  0  0  0  0  0  0
  149.6784  143.1050  155.7183 H   0  0  0  0  0  0  0  0  0  0  0  0
  148.9754  141.4023  157.2658 H   0  0  0  0  0  0  0  0  0  0  0  0
  149.4089  139.7686  156.8197 H   0  0  0  0  0  0  0  0  0  0  0  0
  151.2468  138.6985  158.0655 H   0  0  0  0  0  0  0  0  0  0  0  0
  153.9126  141.7500  160.9035 H   0  0  0  0  0  0  0  0  0  0  0  0
  153.5560  144.2063  160.8039 H   0  0  0  0  0  0  0  0  0  0  0  0
  151.8507  145.1690  159.2730 H   0  0  0  0  0  0  0  0  0  0  0  0
  150.4850  143.6692  157.8233 H   0  0  0  0  0  0  0  0  0  0  0  0
  1  2  1  0  0  0  0
  1 24  1  0  0  0  0
  1 25  1  0  0  0  0
  1 26  1  0  0  0  0
  2  3  1  0  0  0  0
  3  8  1  0  0  0  0
  3  4  2  0  0  0  0
  4  5  1  0  0  0  0
  4 27  1  0  0  0  0
  5  6  2  0  0  0  0
  5 28  1  0  0  0  0
  6  7  1  0  0  0  0
  6 29  1  0  0  0  0
  7  8  2  0  0  0  0
  7 30  1  0  0  0  0
  8  9  1  0  0  0  0
  9 10  1  0  0  0  0
  9 31  1  0  0  0  0
  9 32  1  0  0  0  0
 10 11  1  0  0  0  0
 11 12  1  0  0  0  0
 11 33  1  0  0  0  0
 11 34  1  0  0  0  0
 12 13  1  0  0  0  0
 12 14  1  0  0  0  0
 12 35  1  0  0  0  0
 13 36  1  0  0  0  0
 14 15  1  0  0  0  0
 14 37  1  0  0  0  0
 14 38  1  0  0  0  0
 15 23  1  0  0  0  0
 15 16  1  0  0  0  0
 16 17  2  0  0  0  0
 16 39  1  0  0  0  0
 17 18  1  0  0  0  0
 18 23  2  0  0  0  0
 18 19  1  0  0  0  0
 19 20  2  0  0  0  0
 19 40  1  0  0  0  0
 20 21  1  0  0  0  0
 20 41  1  0  0  0  0
 21 22  2  0  0  0  0
 21 42  1  0  0  0  0
 22 23  1  0  0  0  0
 22 43  1  0  0  0  0
M  END
> <s_m_source_file>
AV-unprocessed.smi

> <i_m_source_file_index>
1350

> <i_lp_mmshare_version>
43012

> <i_f3d_flags>
0

> <s_epik_input>
W0NIM11PYzFbY0hdW2NIXVtjSF1bY0hdYzFbQ0gyXU9bQ0gyXVtDQEhdKFtPSF0pW0NIMl1uKFtjSF1uMiljKGMyMylbY0hdW2NIXVtjSF1bY0hdMw==

> <s_epik_cmdline>
J2VwaWtfcHl0aG9uJywgJy1waCcsICc3LjAnLCAnLXRuJywgJzgnLCAnLW1hJywgJzIwMCcsICctbWV0YWxfYmluZGluZycsICctaW1hZScsICc8aW5maWxlLm1hZT4nLCAnLW9tYWUnLCAnPG91dGZpbGUubWFlPic=

> <r_lp_tautomer_probability>
1

> <r_epik_Ionization_Penalty>
0.0713119

> <r_epik_Ionization_Penalty_Charging>
0

> <r_epik_Ionization_Penalty_Neutral>
0.0713119

> <r_epik_State_Penalty>
0.06259

> <r_epik_Charging_Adjusted_Penalty>
0.06259

> <i_epik_Tot_Q>
0

> <i_epik_Tot_abs_Q>
0

> <r_epik_Metal_State_Penalty>
6.60119e-05

> <b_epik_Metal_Only>
0

> <s_lp_Force_Field>
OPLS_2005

> <r_lp_Energy>
19.121

> <b_lp_Chiralities_Consistent>
1

> <s_lp_Variant>
AV-unprocessed.smi:1350-2

> <Gold.Version>
5.8.1

> <Gold.Id.Protein>
6NUR|6NUR_protein|mol2

> <Gold.PLP.Fitness>
46.3037

> <Gold.PLP.PLP>
-45.6310

> <Gold.PLP.part.hbond>
-1.8957

> <Gold.PLP.part.metal>
0.0000

> <Gold.PLP.part.buried>
-4.4469

> <Gold.PLP.part.nonpolar>
-38.5548

> <Gold.PLP.part.repulsive>
0.2016

> <Gold.PLP.ligand.clash>
0.0000

> <Gold.PLP.ligand.torsion>
0.9341

> <Gold.PLP.Chemscore.Hbond>
0.7840

> <Gold.PLP.Chemscore.CHOScore>
0.0000

> <Gold.PLP.Chemscore.Metal>
0.0000

> <Gold.Chemscore.Hbonds>
donor molecule, donor type, donor heavy atom, donor atom, acceptor molecule, acceptor atom, score
      L1  H    13    36       P1  8028  0.83

> <Gold.PLP.Chemscore.Internal.Correction>
0.1888

> <Gold.Rescore>
     Score         DG    S(hbond)    S(metal)    S(lipo)     H(rot)  DE(clash)    DE(int)     intcor
     14.12     -16.58       0.97        0.00     124.74       2.63       1.63       0.82       ----

> <Gold.Chemscore.Fitness>
14.1217

> <Gold.Chemscore.DG>
-16.5764

> <Gold.Chemscore.ZeroCoef>
-5.4800

> <Gold.Chemscore.Hbond>
0.9692

> <Gold.Chemscore.Metal>
0.0000

> <Gold.Chemscore.Lipo>
124.7351

> <Gold.Chemscore.Internal_Hbond>
0.0000

> <Gold.Chemscore.DEClash>
1.6335

> <Gold.Chemscore.DEInternal>
0.8212

> <Gold.Chemscore.Rot>
2.6308

> <Gold.Chemscore.Internal.Correction>
   9.000000E+99

> <Gold.Chemscore.Hbonds>
donor molecule, donor type, donor heavy atom, donor atom, acceptor molecule, acceptor atom, score
      L1  H    13    36       P1  8028  0.83

> <Gold.Chemscore.Hbond.Weighted>
-3.2371

> <Gold.Chemscore.Metal.Weighted>
-0.0000

> <Gold.Chemscore.Lipo.Weighted>
-14.5940

> <Gold.Chemscore.Internal_Hbond.Weighted>
0.0000

> <Gold.Chemscore.DEClash.Weighted>
1.6335

> <Gold.Chemscore.DEInternal.Weighted>
0.8212

> <Gold.Chemscore.Rot.Weighted>
6.7347

> <Gold.Chemscore.Internal.Correction.Weighted>
   9.000000E+99

> <Gold.Protein.RotatedTorsions>
[ 6907 6896 6895 6894 ] final  121.53 input  -60.11 | X-H torsion
[ 7974 7965 7964 7962 ] final  -28.00 input  175.53 | X-H torsion
[ 8008 7997 7996 7995 ] final  131.46 input   59.86 | X-H torsion
[ 10167 10162 10161 10158 ] final  117.46 input  -65.29 | X-H torsion
[ 10718 10713 10712 10709 ] final  -67.34 input   66.30 | X-H torsion
[ 10763 10752 10751 10750 ] final  -81.79 input  -60.55 | X-H torsion
[ 11005 11000 10999 10996 ] final -167.70 input  -57.11 | X-H torsion

> <Gold.Protein.ActiveResidues>
 VAL166  LYS551  ARG553  GLY616  TRP617  ASP618  TYR619  PRO620  LYS621  CYS622 
 ASP623  PHE694  ASN695  SER759  ASP760  ASP761  ALA762  ILE779  LEU786  VAL792 
 PHE793  MET794  SER795  GLU796  ALA797  LYS798  CYS799  TRP800  GLU811  SER814 

> <Gold.Protein.RotatedAtoms>
  152.4315  133.7285  159.6573 H   0  0  0  0  0  0  0  0  0  0  0  0  # atno 6907 bound_to 6896
  150.8194  133.8268  159.3151 H   0  0  0  0  0  0  0  0  0  0  0  0  # atno 6908 bound_to 6896
  151.5955  135.1053  160.0100 H   0  0  0  0  0  0  0  0  0  0  0  0  # atno 6909 bound_to 6896
  146.1319  140.5226  142.8690 H   0  0  0  0  0  0  0  0  0  0  0  0  # atno 7974 bound_to 7965
  156.2970  140.2571  156.2929 H   0  0  0  0  0  0  0  0  0  0  0  0  # atno 8008 bound_to 7997
  154.9492  140.0394  157.2154 H   0  0  0  0  0  0  0  0  0  0  0  0  # atno 8009 bound_to 7997
  154.8052  140.2835  155.5897 H   0  0  0  0  0  0  0  0  0  0  0  0  # atno 8010 bound_to 7997
  139.6177  144.7095  151.2702 H   0  0  0  0  0  0  0  0  0  0  0  0  # atno 10167 bound_to 10162
  156.0563  130.4276  150.1841 H   0  0  0  0  0  0  0  0  0  0  0  0  # atno 10718 bound_to 10713
  154.5678  135.5614  153.7067 H   0  0  0  0  0  0  0  0  0  0  0  0  # atno 10763 bound_to 10752
  153.0039  135.6289  154.2155 H   0  0  0  0  0  0  0  0  0  0  0  0  # atno 10764 bound_to 10752
  154.2095  135.2874  155.2943 H   0  0  0  0  0  0  0  0  0  0  0  0  # atno 10765 bound_to 10752
  140.5503  134.5435  157.5121 H   0  0  0  0  0  0  0  0  0  0  0  0  # atno 11005 bound_to 11000
  144.7699  140.5614  143.6677 LP  0  0  0  0  0  0  0  0  0  0  0  0  # atno 17320 bound_to 7965
  145.5242  139.1476  143.3535 LP  0  0  0  0  0  0  0  0  0  0  0  0  # atno 17321 bound_to 7965
  140.7362  143.6715  150.8078 LP  0  0  0  0  0  0  0  0  0  0  0  0  # atno 17342 bound_to 10162
  140.0320  143.5433  152.2756 LP  0  0  0  0  0  0  0  0  0  0  0  0  # atno 17343 bound_to 10162
  156.9916  130.9895  151.3413 LP  0  0  0  0  0  0  0  0  0  0  0  0  # atno 17370 bound_to 10713
  157.5535  130.8198  149.8174 LP  0  0  0  0  0  0  0  0  0  0  0  0  # atno 17371 bound_to 10713
  139.9459  134.7703  156.0564 LP  0  0  0  0  0  0  0  0  0  0  0  0  # atno 17394 bound_to 11000
  141.1176  133.6623  156.3132 LP  0  0  0  0  0  0  0  0  0  0  0  0  # atno 17395 bound_to 11000

$$$$
