AV-unprocessed.smi:1239|AV-procd|sdf|5188|dock10
  -GOLD-   22720 4273D 1   1.00000     0.00000
 Structure written by MMmdl.
 47 48  0  0  0  0  0  0  0  0  1 V2000
  152.9191  135.9132  163.4747 C   0  0  0  0  0  0  0  0  0  0  0  0
  154.1298  135.7719  162.5171 C   0  0  1  0  0  0  0  0  0  0  0  0
  155.2375  136.7754  162.9538 C   0  0  0  0  0  0  0  0  0  0  0  0
  154.7880  138.1649  162.9833 N   0  0  0  0  0  0  0  0  0  0  0  0
  154.3617  138.8596  161.9191 C   0  0  0  0  0  0  0  0  0  0  0  0
  154.3194  138.3963  160.7796 O   0  0  0  0  0  0  0  0  0  0  0  0
  154.0100  140.1092  162.2663 N   0  0  0  0  0  0  0  0  0  0  0  0
  153.4914  141.1469  161.4454 C   0  0  0  0  0  0  0  0  0  0  0  0
  153.8555  141.3585  160.0958 C   0  0  0  0  0  0  0  0  0  0  0  0
  153.2544  142.4137  159.3828 C   0  0  0  0  0  0  0  0  0  0  0  0
  152.2965  143.2335  160.0294 C   0  0  0  0  0  0  0  0  0  0  0  0
  151.6677  144.3059  159.3562 N   0  0  0  0  0  0  0  0  0  0  0  0
  152.0672  144.6403  157.9931 C   0  0  0  0  0  0  0  0  0  0  0  0
  150.5552  145.0118  159.9796 C   0  0  0  0  0  0  0  0  0  0  0  0
  151.9426  143.0156  161.3198 N   0  0  0  0  0  0  0  0  0  0  0  0
  152.5203  142.0035  161.9989 C   0  0  0  0  0  0  0  0  0  0  0  0
  154.6130  134.3753  162.4094 N   0  0  0  0  0  0  0  0  0  0  0  0
  155.3020  134.1082  161.1412 C   0  0  0  0  0  0  0  0  0  0  0  0
  155.7738  132.6492  161.0123 C   0  0  0  0  0  0  0  0  0  0  0  0
  154.6672  131.7707  161.1618 O   0  0  0  0  0  0  0  0  0  0  0  0
  154.0167  131.9419  162.4131 C   0  0  0  0  0  0  0  0  0  0  0  0
  153.5298  133.3948  162.5488 C   0  0  0  0  0  0  0  0  0  0  0  0
  152.5956  136.9472  163.5877 H   0  0  0  0  0  0  0  0  0  0  0  0
  153.1570  135.5338  164.4689 H   0  0  0  0  0  0  0  0  0  0  0  0
  152.0404  135.3819  163.1123 H   0  0  0  0  0  0  0  0  0  0  0  0
  153.7887  136.0815  161.5280 H   0  0  0  0  0  0  0  0  0  0  0  0
  155.6013  136.5164  163.9485 H   0  0  0  0  0  0  0  0  0  0  0  0
  156.1018  136.7431  162.2920 H   0  0  0  0  0  0  0  0  0  0  0  0
  154.7960  138.6260  163.8813 H   0  0  0  0  0  0  0  0  0  0  0  0
  154.1769  140.3645  163.2286 H   0  0  0  0  0  0  0  0  0  0  0  0
  154.5691  140.7293  159.5874 H   0  0  0  0  0  0  0  0  0  0  0  0
  153.5381  142.5686  158.3528 H   0  0  0  0  0  0  0  0  0  0  0  0
  151.8930  143.7953  157.3262 H   0  0  0  0  0  0  0  0  0  0  0  0
  153.1258  144.8999  157.9559 H   0  0  0  0  0  0  0  0  0  0  0  0
  151.5028  145.4905  157.6098 H   0  0  0  0  0  0  0  0  0  0  0  0
  150.8777  145.4956  160.9019 H   0  0  0  0  0  0  0  0  0  0  0  0
  149.7437  144.3212  160.2112 H   0  0  0  0  0  0  0  0  0  0  0  0
  150.1560  145.7840  159.3220 H   0  0  0  0  0  0  0  0  0  0  0  0
  152.1969  141.8774  163.0220 H   0  0  0  0  0  0  0  0  0  0  0  0
  154.6456  134.3522  160.3045 H   0  0  0  0  0  0  0  0  0  0  0  0
  156.1872  134.7329  161.0437 H   0  0  0  0  0  0  0  0  0  0  0  0
  156.2286  132.4842  160.0355 H   0  0  0  0  0  0  0  0  0  0  0  0
  156.5340  132.4212  161.7613 H   0  0  0  0  0  0  0  0  0  0  0  0
  153.1737  131.2535  162.4718 H   0  0  0  0  0  0  0  0  0  0  0  0
  154.6975  131.6848  163.2261 H   0  0  0  0  0  0  0  0  0  0  0  0
  153.0551  133.4810  163.5246 H   0  0  0  0  0  0  0  0  0  0  0  0
  152.7581  133.5881  161.8020 H   0  0  0  0  0  0  0  0  0  0  0  0
  1  2  1  0  0  0  0
  1 23  1  0  0  0  0
  1 24  1  0  0  0  0
  1 25  1  0  0  0  0
  2  3  1  0  0  0  0
  2 17  1  0  0  0  0
  2 26  1  0  0  0  0
  3  4  1  0  0  0  0
  3 27  1  0  0  0  0
  3 28  1  0  0  0  0
  4  5  1  0  0  0  0
  4 29  1  0  0  0  0
  5  6  2  0  0  0  0
  5  7  1  0  0  0  0
  7  8  1  0  0  0  0
  7 30  1  0  0  0  0
  8 16  1  0  0  0  0
  8  9  2  0  0  0  0
  9 10  1  0  0  0  0
  9 31  1  0  0  0  0
 10 11  2  0  0  0  0
 10 32  1  0  0  0  0
 11 12  1  0  0  0  0
 11 15  1  0  0  0  0
 12 13  1  0  0  0  0
 12 14  1  0  0  0  0
 13 33  1  0  0  0  0
 13 34  1  0  0  0  0
 13 35  1  0  0  0  0
 14 36  1  0  0  0  0
 14 37  1  0  0  0  0
 14 38  1  0  0  0  0
 15 16  2  0  0  0  0
 16 39  1  0  0  0  0
 17 22  1  0  0  0  0
 17 18  1  0  0  0  0
 18 19  1  0  0  0  0
 18 40  1  0  0  0  0
 18 41  1  0  0  0  0
 19 20  1  0  0  0  0
 19 42  1  0  0  0  0
 19 43  1  0  0  0  0
 20 21  1  0  0  0  0
 21 22  1  0  0  0  0
 21 44  1  0  0  0  0
 21 45  1  0  0  0  0
 22 46  1  0  0  0  0
 22 47  1  0  0  0  0
M  END
> <s_m_source_file>
AV-unprocessed.smi

> <i_m_source_file_index>
1239

> <i_lp_mmshare_version>
43012

> <i_f3d_flags>
0

> <s_epik_input>
W0NIMl0xW0NIMl1PW0NIMl1bQ0gyXU4xW0NASF0oW0NIM10pW0NIMl1bTkhdQyg9TylbTkhdYzJbY0hdW2NIXWMoTihbQ0gzXSlbQ0gzXSluW2NIXTI=

> <s_epik_cmdline>
J2VwaWtfcHl0aG9uJywgJy1waCcsICc3LjAnLCAnLXRuJywgJzgnLCAnLW1hJywgJzIwMCcsICctbWV0YWxfYmluZGluZycsICctaW1hZScsICc8aW5maWxlLm1hZT4nLCAnLW9tYWUnLCAnPG91dGZpbGUubWFlPic=

> <r_lp_tautomer_probability>
1

> <r_epik_Ionization_Penalty>
0.87526

> <r_epik_Ionization_Penalty_Charging>
0

> <r_epik_Ionization_Penalty_Neutral>
0.87526

> <r_epik_State_Penalty>
0.859346

> <r_epik_Charging_Adjusted_Penalty>
0.859346

> <i_epik_Tot_Q>
0

> <i_epik_Tot_abs_Q>
0

> <r_epik_Metal_State_Penalty>
0.538105

> <b_epik_Metal_Only>
0

> <s_lp_Force_Field>
OPLS_2005

> <r_lp_Energy>
32.4423

> <b_lp_Chiralities_Consistent>
1

> <s_lp_Variant>
AV-unprocessed.smi:1239-4

> <Gold.Version>
5.8.1

> <Gold.Id.Protein>
6NUR|6NUR_protein|mol2

> <Gold.PLP.Fitness>
46.5407

> <Gold.PLP.PLP>
-48.1356

> <Gold.PLP.part.hbond>
-0.5714

> <Gold.PLP.part.metal>
0.0000

> <Gold.PLP.part.buried>
-6.1655

> <Gold.PLP.part.nonpolar>
-41.6689

> <Gold.PLP.part.repulsive>
0.1430

> <Gold.PLP.ligand.clash>
0.0000

> <Gold.PLP.ligand.torsion>
0.8271

> <Gold.PLP.Chemscore.Hbond>
0.0000

> <Gold.PLP.Chemscore.CHOScore>
0.0000

> <Gold.PLP.Chemscore.Metal>
0.0000

> <Gold.PLP.Chemscore.Internal.Correction>
0.0594

> <Gold.Rescore>
     Score         DG    S(hbond)    S(metal)    S(lipo)     H(rot)  DE(clash)    DE(int)     intcor
     12.96     -14.57       0.00        0.00     109.17       1.44       0.07       1.55       ----

> <Gold.Chemscore.Fitness>
12.9570

> <Gold.Chemscore.DG>
-14.5747

> <Gold.Chemscore.ZeroCoef>
-5.4800

> <Gold.Chemscore.Hbond>
0.0000

> <Gold.Chemscore.Metal>
0.0000

> <Gold.Chemscore.Lipo>
109.1735

> <Gold.Chemscore.Internal_Hbond>
0.0000

> <Gold.Chemscore.DEClash>
0.0676

> <Gold.Chemscore.DEInternal>
1.5501

> <Gold.Chemscore.Rot>
1.4370

> <Gold.Chemscore.Internal.Correction>
   9.000000E+99

> <Gold.Chemscore.Hbond.Weighted>
-0.0000

> <Gold.Chemscore.Metal.Weighted>
-0.0000

> <Gold.Chemscore.Lipo.Weighted>
-12.7733

> <Gold.Chemscore.Internal_Hbond.Weighted>
0.0000

> <Gold.Chemscore.DEClash.Weighted>
0.0676

> <Gold.Chemscore.DEInternal.Weighted>
1.5501

> <Gold.Chemscore.Rot.Weighted>
3.6786

> <Gold.Chemscore.Internal.Correction.Weighted>
   9.000000E+99

> <Gold.Protein.RotatedTorsions>
[ 6907 6896 6895 6894 ] final   65.96 input  -60.11 | X-H torsion
[ 7974 7965 7964 7962 ] final -108.82 input  175.53 | X-H torsion
[ 8008 7997 7996 7995 ] final -106.98 input   59.86 | X-H torsion
[ 10167 10162 10161 10158 ] final   -3.88 input  -65.29 | X-H torsion
[ 10718 10713 10712 10709 ] final   94.62 input   66.30 | X-H torsion
[ 10763 10752 10751 10750 ] final -110.15 input  -60.55 | X-H torsion
[ 11005 11000 10999 10996 ] final -160.48 input  -57.11 | X-H torsion

> <Gold.Protein.ActiveResidues>
 VAL166  LYS551  ARG553  GLY616  TRP617  ASP618  TYR619  PRO620  LYS621  CYS622 
 ASP623  PHE694  ASN695  SER759  ASP760  ASP761  ALA762  ILE779  LEU786  VAL792 
 PHE793  MET794  SER795  GLU796  ALA797  LYS798  CYS799  TRP800  GLU811  SER814 

> <Gold.Protein.RotatedAtoms>
  152.4446  134.5521  159.9869 H   0  0  0  0  0  0  0  0  0  0  0  0  # atno 6907 bound_to 6896
  151.5609  133.3397  159.2979 H   0  0  0  0  0  0  0  0  0  0  0  0  # atno 6908 bound_to 6896
  150.8359  134.7665  159.6956 H   0  0  0  0  0  0  0  0  0  0  0  0  # atno 6909 bound_to 6896
  145.1882  140.9002  143.3440 H   0  0  0  0  0  0  0  0  0  0  0  0  # atno 7974 bound_to 7965
  154.9225  140.0407  157.2005 H   0  0  0  0  0  0  0  0  0  0  0  0  # atno 8008 bound_to 7997
  154.8240  140.2888  155.5746 H   0  0  0  0  0  0  0  0  0  0  0  0  # atno 8009 bound_to 7997
  156.2982  140.2513  156.3152 H   0  0  0  0  0  0  0  0  0  0  0  0  # atno 8010 bound_to 7997
  140.6907  143.6488  150.8369 H   0  0  0  0  0  0  0  0  0  0  0  0  # atno 10167 bound_to 10162
  157.6946  131.0518  150.4214 H   0  0  0  0  0  0  0  0  0  0  0  0  # atno 10718 bound_to 10713
  154.8232  135.4575  154.0841 H   0  0  0  0  0  0  0  0  0  0  0  0  # atno 10763 bound_to 10752
  153.2177  135.6890  153.8044 H   0  0  0  0  0  0  0  0  0  0  0  0  # atno 10764 bound_to 10752
  153.7473  135.3303  155.3291 H   0  0  0  0  0  0  0  0  0  0  0  0  # atno 10765 bound_to 10752
  140.6310  134.4651  157.5229 H   0  0  0  0  0  0  0  0  0  0  0  0  # atno 11005 bound_to 11000
  145.0068  139.3547  143.6140 LP  0  0  0  0  0  0  0  0  0  0  0  0  # atno 17320 bound_to 7965
  146.3441  139.9313  142.8753 LP  0  0  0  0  0  0  0  0  0  0  0  0  # atno 17321 bound_to 7965
  140.0200  143.5552  152.2804 LP  0  0  0  0  0  0  0  0  0  0  0  0  # atno 17342 bound_to 10162
  139.6307  144.7644  151.2542 LP  0  0  0  0  0  0  0  0  0  0  0  0  # atno 17343 bound_to 10162
  156.4589  130.4027  149.6589 LP  0  0  0  0  0  0  0  0  0  0  0  0  # atno 17370 bound_to 10713
  156.3711  130.7531  151.2514 LP  0  0  0  0  0  0  0  0  0  0  0  0  # atno 17371 bound_to 10713
  139.9116  134.8333  156.1509 LP  0  0  0  0  0  0  0  0  0  0  0  0  # atno 17394 bound_to 11000
  141.0675  133.6812  156.2074 LP  0  0  0  0  0  0  0  0  0  0  0  0  # atno 17395 bound_to 11000

$$$$
