AV-unprocessed.smi:2510|AV-procd|sdf|9874|dock5
  -GOLD-   2272013503D 1   1.00000     0.00000
 Structure written by MMmdl.
 48 49  0  0  0  0  0  0  0  0  1 V2000
  152.2632  140.6358  159.2548 C   0  0  0  0  0  0  0  0  0  0  0  0
  152.4959  141.9946  158.5737 C   0  0  0  0  0  0  0  0  0  0  0  0
  151.3990  142.4863  157.5861 C   0  0  0  0  0  0  0  0  0  0  0  0
  151.6809  143.9878  157.3329 C   0  0  0  0  0  0  0  0  0  0  0  0
  152.0051  144.8085  158.5939 C   0  0  0  0  0  0  0  0  0  0  0  0
  151.1527  141.6741  156.2782 C   0  0  1  0  0  0  0  0  0  0  0  0
  151.5046  140.2565  156.3745 N   0  0  0  0  0  0  0  0  0  0  0  0
  152.3669  139.6285  155.5603 C   0  0  0  0  0  0  0  0  0  0  0  0
  152.9645  140.1911  154.6430 O   0  0  0  0  0  0  0  0  0  0  0  0
  152.5931  138.1386  155.8197 C   0  0  0  0  0  0  0  0  0  0  0  0
  151.6752  137.3140  154.9570 C   0  0  0  0  0  0  0  0  0  0  0  0
  151.3162  135.9421  155.1146 C   0  0  0  0  0  0  0  0  0  0  0  0
  150.4558  135.6961  154.0821 C   0  0  0  0  0  0  0  0  0  0  0  0
  149.7146  134.4642  153.6880 C   0  0  0  0  0  0  0  0  0  0  0  0
  150.3493  136.8754  153.3819 N   0  0  0  0  0  0  0  0  0  0  0  0
  151.0908  137.8698  153.9044 N   0  0  0  0  0  0  0  0  0  0  0  0
  149.6383  141.9067  156.4296 C   0  0  1  0  0  0  0  0  0  0  0  0
  148.6428  140.8306  156.0020 C   0  0  0  0  0  0  0  0  0  0  0  0
  149.9173  142.1486  157.9201 C   0  0  2  0  0  0  0  0  0  0  0  0
  149.2236  143.2452  158.4977 O   0  0  0  0  0  0  0  0  0  0  0  0
  147.8212  143.0525  158.5591 C   0  0  0  0  0  0  0  0  0  0  0  0
  149.7833  137.0138  152.5566 H   0  0  0  0  0  0  0  0  0  0  0  0
  153.1204  140.3670  159.8723 H   0  0  0  0  0  0  0  0  0  0  0  0
  152.1190  139.8330  158.5342 H   0  0  0  0  0  0  0  0  0  0  0  0
  151.3916  140.6646  159.9090 H   0  0  0  0  0  0  0  0  0  0  0  0
  152.6366  142.7154  159.3798 H   0  0  0  0  0  0  0  0  0  0  0  0
  153.4577  141.9603  158.0615 H   0  0  0  0  0  0  0  0  0  0  0  0
  152.5160  144.1044  156.6423 H   0  0  0  0  0  0  0  0  0  0  0  0
  150.8340  144.4483  156.8228 H   0  0  0  0  0  0  0  0  0  0  0  0
  152.2240  145.8430  158.3286 H   0  0  0  0  0  0  0  0  0  0  0  0
  152.8750  144.4176  159.1207 H   0  0  0  0  0  0  0  0  0  0  0  0
  151.1708  144.8253  159.2947 H   0  0  0  0  0  0  0  0  0  0  0  0
  151.5370  142.1534  155.3770 H   0  0  0  0  0  0  0  0  0  0  0  0
  151.0619  139.7201  157.1067 H   0  0  0  0  0  0  0  0  0  0  0  0
  153.6397  137.8962  155.6290 H   0  0  0  0  0  0  0  0  0  0  0  0
  152.4120  137.9232  156.8733 H   0  0  0  0  0  0  0  0  0  0  0  0
  151.6365  135.2484  155.8780 H   0  0  0  0  0  0  0  0  0  0  0  0
  150.1089  133.5901  154.2069 H   0  0  0  0  0  0  0  0  0  0  0  0
  149.7972  134.2849  152.6157 H   0  0  0  0  0  0  0  0  0  0  0  0
  148.6571  134.5544  153.9368 H   0  0  0  0  0  0  0  0  0  0  0  0
  149.3882  142.8547  155.9506 H   0  0  0  0  0  0  0  0  0  0  0  0
  148.7473  139.9229  156.5970 H   0  0  0  0  0  0  0  0  0  0  0  0
  148.7852  140.5583  154.9560 H   0  0  0  0  0  0  0  0  0  0  0  0
  147.6150  141.1750  156.1121 H   0  0  0  0  0  0  0  0  0  0  0  0
  149.7889  141.2294  158.4924 H   0  0  0  0  0  0  0  0  0  0  0  0
  147.3586  143.9030  159.0596 H   0  0  0  0  0  0  0  0  0  0  0  0
  147.5689  142.1530  159.1224 H   0  0  0  0  0  0  0  0  0  0  0  0
  147.3864  142.9772  157.5626 H   0  0  0  0  0  0  0  0  0  0  0  0
  1  2  1  0  0  0  0
  1 23  1  0  0  0  0
  1 24  1  0  0  0  0
  1 25  1  0  0  0  0
  2  3  1  0  0  0  0
  2 26  1  0  0  0  0
  2 27  1  0  0  0  0
  3 19  1  0  0  0  0
  3  4  1  0  0  0  0
  3  6  1  0  0  0  0
  4  5  1  0  0  0  0
  4 28  1  0  0  0  0
  4 29  1  0  0  0  0
  5 30  1  0  0  0  0
  5 31  1  0  0  0  0
  5 32  1  0  0  0  0
  6  7  1  0  0  0  0
  6 17  1  0  0  0  0
  6 33  1  0  0  0  0
  7  8  1  0  0  0  0
  7 34  1  0  0  0  0
  8  9  2  0  0  0  0
  8 10  1  0  0  0  0
 10 11  1  0  0  0  0
 10 35  1  0  0  0  0
 10 36  1  0  0  0  0
 11 16  2  0  0  0  0
 11 12  1  0  0  0  0
 12 13  2  0  0  0  0
 12 37  1  0  0  0  0
 13 14  1  0  0  0  0
 13 15  1  0  0  0  0
 14 38  1  0  0  0  0
 14 39  1  0  0  0  0
 14 40  1  0  0  0  0
 15 22  1  0  0  0  0
 15 16  1  0  0  0  0
 17 18  1  0  0  0  0
 17 19  1  0  0  0  0
 17 41  1  0  0  0  0
 18 42  1  0  0  0  0
 18 43  1  0  0  0  0
 18 44  1  0  0  0  0
 19 20  1  0  0  0  0
 19 45  1  0  0  0  0
 20 21  1  0  0  0  0
 21 46  1  0  0  0  0
 21 47  1  0  0  0  0
 21 48  1  0  0  0  0
M  END
> <s_m_source_file>
AV-unprocessed.smi

> <i_m_source_file_index>
2510

> <i_lp_mmshare_version>
43012

> <i_f3d_flags>
0

> <s_epik_input>
W0NIM11PW0NAQEhdMVtDQEhdKFtDSDNdKVtDQEBIXShDMShbQ0gyXVtDSDNdKVtDSDJdW0NIM10pW05IXUMoPU8pW0NIMl1jMltjSF1jKFtDSDNdKVtuSF1uMg==

> <s_epik_cmdline>
J2VwaWtfcHl0aG9uJywgJy1waCcsICc3LjAnLCAnLXRuJywgJzgnLCAnLW1hJywgJzIwMCcsICctbWV0YWxfYmluZGluZycsICctaW1hZScsICc8aW5maWxlLm1hZT4nLCAnLW9tYWUnLCAnPG91dGZpbGUubWFlPic=

> <r_lp_tautomer_probability>
0.5

> <r_epik_Ionization_Penalty>
9.73156e-05

> <r_epik_Ionization_Penalty_Charging>
0

> <r_epik_Ionization_Penalty_Neutral>
9.73156e-05

> <r_epik_State_Penalty>
0.41068

> <r_epik_Charging_Adjusted_Penalty>
0.41068

> <i_epik_Tot_Q>
0

> <i_epik_Tot_abs_Q>
0

> <r_epik_Metal_State_Penalty>
0.410699

> <b_epik_Metal_Only>
0

> <s_lp_Force_Field>
OPLS_2005

> <r_lp_Energy>
25.9502

> <b_lp_Chiralities_Consistent>
1

> <s_lp_Variant>
AV-unprocessed.smi:2510-5

> <Gold.Version>
5.8.1

> <Gold.Id.Protein>
6NUR|6NUR_protein|mol2

> <Gold.PLP.Fitness>
41.3399

> <Gold.PLP.PLP>
-35.5847

> <Gold.PLP.part.hbond>
-3.8967

> <Gold.PLP.part.metal>
0.0000

> <Gold.PLP.part.buried>
-2.1546

> <Gold.PLP.part.nonpolar>
-29.6545

> <Gold.PLP.part.repulsive>
0.5331

> <Gold.PLP.ligand.clash>
0.0000

> <Gold.PLP.ligand.torsion>
1.1627

> <Gold.PLP.Chemscore.Hbond>
2.4909

> <Gold.PLP.Chemscore.CHOScore>
0.0000

> <Gold.PLP.Chemscore.Metal>
0.0000

> <Gold.Chemscore.Hbonds>
donor molecule, donor type, donor heavy atom, donor atom, acceptor molecule, acceptor atom, score
      L1  H    15    22       P1  7948  0.17
      P1  H  7989  7998       L1     9  0.22
      P1  H  7997  8008       L1     9  0.45

> <Gold.PLP.Chemscore.Internal.Correction>
0.6079

> <Gold.Rescore>
     Score         DG    S(hbond)    S(metal)    S(lipo)     H(rot)  DE(clash)    DE(int)     intcor
     15.49     -16.77       1.29        0.00      99.33       1.81       0.00       1.28       ----

> <Gold.Chemscore.Fitness>
15.4923

> <Gold.Chemscore.DG>
-16.7722

> <Gold.Chemscore.ZeroCoef>
-5.4800

> <Gold.Chemscore.Hbond>
1.2888

> <Gold.Chemscore.Metal>
0.0000

> <Gold.Chemscore.Lipo>
99.3298

> <Gold.Chemscore.Internal_Hbond>
0.0000

> <Gold.Chemscore.DEClash>
0.0021

> <Gold.Chemscore.DEInternal>
1.2777

> <Gold.Chemscore.Rot>
1.8102

> <Gold.Chemscore.Internal.Correction>
   9.000000E+99

> <Gold.Chemscore.Hbonds>
donor molecule, donor type, donor heavy atom, donor atom, acceptor molecule, acceptor atom, score
      L1  H    15    22       P1  7948  0.01
      P1  H  7989  7998       L1     9  0.15
      P1  H  7997  8008       L1     9  0.02

> <Gold.Chemscore.Hbond.Weighted>
-4.3047

> <Gold.Chemscore.Metal.Weighted>
-0.0000

> <Gold.Chemscore.Lipo.Weighted>
-11.6216

> <Gold.Chemscore.Internal_Hbond.Weighted>
0.0000

> <Gold.Chemscore.DEClash.Weighted>
0.0021

> <Gold.Chemscore.DEInternal.Weighted>
1.2777

> <Gold.Chemscore.Rot.Weighted>
4.6341

> <Gold.Chemscore.Internal.Correction.Weighted>
   9.000000E+99

> <Gold.Protein.RotatedTorsions>
[ 6907 6896 6895 6894 ] final -138.35 input  -60.11 | X-H torsion
[ 7974 7965 7964 7962 ] final    6.75 input  175.53 | X-H torsion
[ 8008 7997 7996 7995 ] final   -5.38 input   59.86 | X-H torsion
[ 10167 10162 10161 10158 ] final  -57.18 input  -65.29 | X-H torsion
[ 10718 10713 10712 10709 ] final  -48.40 input   66.30 | X-H torsion
[ 10763 10752 10751 10750 ] final  -37.02 input  -60.55 | X-H torsion
[ 11005 11000 10999 10996 ] final  -78.02 input  -57.11 | X-H torsion

> <Gold.Protein.ActiveResidues>
 VAL166  LYS551  ARG553  GLY616  TRP617  ASP618  TYR619  PRO620  LYS621  CYS622 
 ASP623  PHE694  ASN695  SER759  ASP760  ASP761  ALA762  ILE779  LEU786  VAL792 
 PHE793  MET794  SER795  GLU796  ALA797  LYS798  CYS799  TRP800  GLU811  SER814 

> <Gold.Protein.RotatedAtoms>
  151.0339  133.5766  159.2657 H   0  0  0  0  0  0  0  0  0  0  0  0  # atno 6907 bound_to 6896
  151.2837  135.0720  159.9188 H   0  0  0  0  0  0  0  0  0  0  0  0  # atno 6908 bound_to 6896
  152.5350  134.0049  159.7966 H   0  0  0  0  0  0  0  0  0  0  0  0  # atno 6909 bound_to 6896
  146.2432  140.0186  142.8400 H   0  0  0  0  0  0  0  0  0  0  0  0  # atno 7974 bound_to 7965
  154.6045  140.2460  155.7749 H   0  0  0  0  0  0  0  0  0  0  0  0  # atno 8008 bound_to 7997
  156.2332  140.2959  156.0195 H   0  0  0  0  0  0  0  0  0  0  0  0  # atno 8009 bound_to 7997
  155.2155  140.0398  157.2930 H   0  0  0  0  0  0  0  0  0  0  0  0  # atno 8010 bound_to 7997
  140.6273  143.2444  151.5330 H   0  0  0  0  0  0  0  0  0  0  0  0  # atno 10167 bound_to 10162
  156.1992  130.4155  149.9265 H   0  0  0  0  0  0  0  0  0  0  0  0  # atno 10718 bound_to 10713
  153.8894  135.6813  153.4761 H   0  0  0  0  0  0  0  0  0  0  0  0  # atno 10763 bound_to 10752
  153.1189  135.4748  154.9161 H   0  0  0  0  0  0  0  0  0  0  0  0  # atno 10764 bound_to 10752
  154.7630  135.3216  154.8294 H   0  0  0  0  0  0  0  0  0  0  0  0  # atno 10765 bound_to 10752
  141.1663  133.7046  156.7908 H   0  0  0  0  0  0  0  0  0  0  0  0  # atno 11005 bound_to 11000
  145.1261  140.9491  143.4571 LP  0  0  0  0  0  0  0  0  0  0  0  0  # atno 17320 bound_to 7965
  145.0433  139.3242  143.5965 LP  0  0  0  0  0  0  0  0  0  0  0  0  # atno 17321 bound_to 7965
  139.5492  144.2440  152.1499 LP  0  0  0  0  0  0  0  0  0  0  0  0  # atno 17342 bound_to 10162
  140.1675  144.4967  150.6598 LP  0  0  0  0  0  0  0  0  0  0  0  0  # atno 17343 bound_to 10162
  156.6980  130.8922  151.3596 LP  0  0  0  0  0  0  0  0  0  0  0  0  # atno 17370 bound_to 10713
  157.6975  130.9298  150.0688 LP  0  0  0  0  0  0  0  0  0  0  0  0  # atno 17371 bound_to 10713
  140.2326  134.8674  157.3492 LP  0  0  0  0  0  0  0  0  0  0  0  0  # atno 17394 bound_to 11000
  140.1875  134.4413  155.7735 LP  0  0  0  0  0  0  0  0  0  0  0  0  # atno 17395 bound_to 11000

$$$$
