AV-unprocessed.smi:2310|AV-procd|sdf|9255|dock2
  -GOLD-   2272012473D 1   1.00000     0.00000
 Structure written by MMmdl.
 45 46  0  0  0  0  0  0  0  0  1 V2000
  143.2996  135.9667  152.8361 C   0  0  0  0  0  0  0  0  0  0  0  0
  144.7083  136.4793  153.1695 C   0  0  0  0  0  0  0  0  0  0  0  0
  145.4747  137.0198  151.9484 C   0  0  2  0  0  0  0  0  0  0  0  0
  145.5996  135.9531  150.8492 C   0  0  0  0  0  0  0  0  0  0  0  0
  146.0586  134.6478  151.3511 C   0  0  0  0  0  0  0  0  0  0  0  0
  146.4199  133.6221  151.7456 N   0  0  0  0  0  0  0  0  0  0  0  0
  146.8057  137.4717  152.3542 N   0  0  0  0  0  0  0  0  0  0  0  0
  147.0706  138.4055  153.2794 C   0  0  0  0  0  0  0  0  0  0  0  0
  146.2021  139.0151  153.9027 O   0  0  0  0  0  0  0  0  0  0  0  0
  148.3956  138.5604  153.4403 N   0  0  0  0  0  0  0  0  0  0  0  0
  149.0827  139.4162  154.3458 C   0  0  0  0  0  0  0  0  0  0  0  0
  148.5127  140.5909  154.8902 C   0  0  0  0  0  0  0  0  0  0  0  0
  149.2791  141.3852  155.7637 C   0  0  0  0  0  0  0  0  0  0  0  0
  150.6052  140.9964  156.0641 C   0  0  0  0  0  0  0  0  0  0  0  0
  151.4072  141.7585  156.9369 N   0  0  0  0  0  0  0  0  0  0  0  0
  152.3193  141.1343  157.8854 C   0  0  0  0  0  0  0  0  0  0  0  0
  152.4720  142.1377  159.0347 C   0  0  0  0  0  0  0  0  0  0  0  0
  152.0577  143.4756  158.4222 C   0  0  0  0  0  0  0  0  0  0  0  0
  150.9953  143.0746  157.4005 C   0  0  0  0  0  0  0  0  0  0  0  0
  151.1532  139.8770  155.5362 N   0  0  0  0  0  0  0  0  0  0  0  0
  150.4187  139.1136  154.6988 C   0  0  0  0  0  0  0  0  0  0  0  0
  151.1227  137.8824  154.1564 C   0  0  0  0  0  0  0  0  0  0  0  0
  142.8227  135.5435  153.7202 H   0  0  0  0  0  0  0  0  0  0  0  0
  143.3359  135.1881  152.0737 H   0  0  0  0  0  0  0  0  0  0  0  0
  142.6575  136.7672  152.4677 H   0  0  0  0  0  0  0  0  0  0  0  0
  144.6394  137.2534  153.9350 H   0  0  0  0  0  0  0  0  0  0  0  0
  145.2786  135.6635  153.6153 H   0  0  0  0  0  0  0  0  0  0  0  0
  144.8979  137.8514  151.5395 H   0  0  0  0  0  0  0  0  0  0  0  0
  144.6446  135.8053  150.3441 H   0  0  0  0  0  0  0  0  0  0  0  0
  146.3153  136.2743  150.0921 H   0  0  0  0  0  0  0  0  0  0  0  0
  147.5893  137.0258  151.9002 H   0  0  0  0  0  0  0  0  0  0  0  0
  148.9820  137.9302  152.9134 H   0  0  0  0  0  0  0  0  0  0  0  0
  147.5095  140.9050  154.6468 H   0  0  0  0  0  0  0  0  0  0  0  0
  148.8395  142.2749  156.1890 H   0  0  0  0  0  0  0  0  0  0  0  0
  151.9448  140.1779  158.2521 H   0  0  0  0  0  0  0  0  0  0  0  0
  153.2761  140.9623  157.3914 H   0  0  0  0  0  0  0  0  0  0  0  0
  151.7825  141.8786  159.8393 H   0  0  0  0  0  0  0  0  0  0  0  0
  153.4796  142.1543  159.4508 H   0  0  0  0  0  0  0  0  0  0  0  0
  151.6886  144.1887  159.1601 H   0  0  0  0  0  0  0  0  0  0  0  0
  152.9100  143.9271  157.9127 H   0  0  0  0  0  0  0  0  0  0  0  0
  150.9345  143.7911  156.5805 H   0  0  0  0  0  0  0  0  0  0  0  0
  150.0143  143.0037  157.8725 H   0  0  0  0  0  0  0  0  0  0  0  0
  150.5802  136.9802  154.4402 H   0  0  0  0  0  0  0  0  0  0  0  0
  152.1396  137.7996  154.5423 H   0  0  0  0  0  0  0  0  0  0  0  0
  151.1785  137.9249  153.0684 H   0  0  0  0  0  0  0  0  0  0  0  0
  1  2  1  0  0  0  0
  1 23  1  0  0  0  0
  1 24  1  0  0  0  0
  1 25  1  0  0  0  0
  2  3  1  0  0  0  0
  2 26  1  0  0  0  0
  2 27  1  0  0  0  0
  3  4  1  0  0  0  0
  3  7  1  0  0  0  0
  3 28  1  0  0  0  0
  4  5  1  0  0  0  0
  4 29  1  0  0  0  0
  4 30  1  0  0  0  0
  5  6  3  0  0  0  0
  7  8  1  0  0  0  0
  7 31  1  0  0  0  0
  8  9  2  0  0  0  0
  8 10  1  0  0  0  0
 10 11  1  0  0  0  0
 10 32  1  0  0  0  0
 11 21  1  0  0  0  0
 11 12  2  0  0  0  0
 12 13  1  0  0  0  0
 12 33  1  0  0  0  0
 13 14  2  0  0  0  0
 13 34  1  0  0  0  0
 14 15  1  0  0  0  0
 14 20  1  0  0  0  0
 15 19  1  0  0  0  0
 15 16  1  0  0  0  0
 16 17  1  0  0  0  0
 16 35  1  0  0  0  0
 16 36  1  0  0  0  0
 17 18  1  0  0  0  0
 17 37  1  0  0  0  0
 17 38  1  0  0  0  0
 18 19  1  0  0  0  0
 18 39  1  0  0  0  0
 18 40  1  0  0  0  0
 19 41  1  0  0  0  0
 19 42  1  0  0  0  0
 20 21  2  0  0  0  0
 21 22  1  0  0  0  0
 22 43  1  0  0  0  0
 22 44  1  0  0  0  0
 22 45  1  0  0  0  0
M  END
> <s_m_source_file>
AV-unprocessed.smi

> <i_m_source_file_index>
2310

> <i_lp_mmshare_version>
43012

> <i_f3d_flags>
0

> <s_epik_input>
TiNDW0NIMl1bQ0BASF0oW0NIMl1bQ0gzXSlbTkhdQyg9TylbTkhdYzFbY0hdW2NIXWMobmMxW0NIM10pTjJbQ0gyXVtDSDJdW0NIMl1bQ0gyXTI=

> <s_epik_cmdline>
J2VwaWtfcHl0aG9uJywgJy1waCcsICc3LjAnLCAnLXRuJywgJzgnLCAnLW1hJywgJzIwMCcsICctbWV0YWxfYmluZGluZycsICctaW1hZScsICc8aW5maWxlLm1hZT4nLCAnLW9tYWUnLCAnPG91dGZpbGUubWFlPic=

> <r_lp_tautomer_probability>
1

> <r_epik_Ionization_Penalty>
0.281354

> <r_epik_Ionization_Penalty_Charging>
0

> <r_epik_Ionization_Penalty_Neutral>
0.281354

> <r_epik_State_Penalty>
0.273364

> <r_epik_Charging_Adjusted_Penalty>
0.273364

> <i_epik_Tot_Q>
0

> <i_epik_Tot_abs_Q>
0

> <r_epik_Metal_State_Penalty>
0.18752

> <b_epik_Metal_Only>
0

> <s_lp_Force_Field>
OPLS_2005

> <r_lp_Energy>
30.6963

> <b_lp_Chiralities_Consistent>
1

> <s_lp_Variant>
AV-unprocessed.smi:2310-1

> <Gold.Version>
5.8.1

> <Gold.Id.Protein>
6NUR|6NUR_protein|mol2

> <Gold.PLP.Fitness>
44.6475

> <Gold.PLP.PLP>
-39.6928

> <Gold.PLP.part.hbond>
-2.9873

> <Gold.PLP.part.metal>
0.0000

> <Gold.PLP.part.buried>
-4.5942

> <Gold.PLP.part.nonpolar>
-34.6391

> <Gold.PLP.part.repulsive>
0.4329

> <Gold.PLP.ligand.clash>
0.0000

> <Gold.PLP.ligand.torsion>
0.5070

> <Gold.PLP.Chemscore.Hbond>
1.9120

> <Gold.PLP.Chemscore.CHOScore>
0.0000

> <Gold.PLP.Chemscore.Metal>
0.0000

> <Gold.Chemscore.Hbonds>
donor molecule, donor type, donor heavy atom, donor atom, acceptor molecule, acceptor atom, score
      L1  H     7    31       P1  7948  1.00
      L1  H    10    32       P1  7948  0.88

> <Gold.PLP.Chemscore.Internal.Correction>
0.2327

> <Gold.Rescore>
     Score         DG    S(hbond)    S(metal)    S(lipo)     H(rot)  DE(clash)    DE(int)     intcor
     17.32     -18.92       1.94        0.00      91.18       1.45       0.07       1.53       ----

> <Gold.Chemscore.Fitness>
17.3242

> <Gold.Chemscore.DG>
-18.9206

> <Gold.Chemscore.ZeroCoef>
-5.4800

> <Gold.Chemscore.Hbond>
1.9409

> <Gold.Chemscore.Metal>
0.0000

> <Gold.Chemscore.Lipo>
91.1793

> <Gold.Chemscore.Internal_Hbond>
0.0000

> <Gold.Chemscore.DEClash>
0.0693

> <Gold.Chemscore.DEInternal>
1.5272

> <Gold.Chemscore.Rot>
1.4492

> <Gold.Chemscore.Internal.Correction>
   9.000000E+99

> <Gold.Chemscore.Hbonds>
donor molecule, donor type, donor heavy atom, donor atom, acceptor molecule, acceptor atom, score
      L1  H     7    31       P1  7948  0.95
      L1  H    10    32       P1  7948  0.85

> <Gold.Chemscore.Hbond.Weighted>
-6.4826

> <Gold.Chemscore.Metal.Weighted>
-0.0000

> <Gold.Chemscore.Lipo.Weighted>
-10.6680

> <Gold.Chemscore.Internal_Hbond.Weighted>
0.0000

> <Gold.Chemscore.DEClash.Weighted>
0.0693

> <Gold.Chemscore.DEInternal.Weighted>
1.5272

> <Gold.Chemscore.Rot.Weighted>
3.7100

> <Gold.Chemscore.Internal.Correction.Weighted>
   9.000000E+99

> <Gold.Protein.RotatedTorsions>
[ 6907 6896 6895 6894 ] final   44.58 input  -60.11 | X-H torsion
[ 7974 7965 7964 7962 ] final -132.31 input  175.53 | X-H torsion
[ 8008 7997 7996 7995 ] final   69.61 input   59.86 | X-H torsion
[ 10167 10162 10161 10158 ] final   96.36 input  -65.29 | X-H torsion
[ 10718 10713 10712 10709 ] final -101.44 input   66.30 | X-H torsion
[ 10763 10752 10751 10750 ] final  149.07 input  -60.55 | X-H torsion
[ 11005 11000 10999 10996 ] final -168.58 input  -57.11 | X-H torsion

> <Gold.Protein.ActiveResidues>
 VAL166  LYS551  ARG553  GLY616  TRP617  ASP618  TYR619  PRO620  LYS621  CYS622 
 ASP623  PHE694  ASN695  SER759  ASP760  ASP761  ALA762  ILE779  LEU786  VAL792 
 PHE793  MET794  SER795  GLU796  ALA797  LYS798  CYS799  TRP800  GLU811  SER814 

> <Gold.Protein.RotatedAtoms>
  152.2343  134.8292  160.0469 H   0  0  0  0  0  0  0  0  0  0  0  0  # atno 6907 bound_to 6896
  151.9029  133.3537  159.3845 H   0  0  0  0  0  0  0  0  0  0  0  0  # atno 6908 bound_to 6896
  150.7034  134.4735  159.5481 H   0  0  0  0  0  0  0  0  0  0  0  0  # atno 6909 bound_to 6896
  144.9298  140.7114  143.4913 H   0  0  0  0  0  0  0  0  0  0  0  0  # atno 7974 bound_to 7965
  155.7263  140.3492  155.5039 H   0  0  0  0  0  0  0  0  0  0  0  0  # atno 8008 bound_to 7997
  155.9223  140.1069  157.1218 H   0  0  0  0  0  0  0  0  0  0  0  0  # atno 8009 bound_to 7997
  154.4072  140.1247  156.4683 H   0  0  0  0  0  0  0  0  0  0  0  0  # atno 8010 bound_to 7997
  139.7901  144.6855  150.9904 H   0  0  0  0  0  0  0  0  0  0  0  0  # atno 10167 bound_to 10162
  156.0195  130.5373  150.6963 H   0  0  0  0  0  0  0  0  0  0  0  0  # atno 10718 bound_to 10713
  154.0652  135.2871  155.3318 H   0  0  0  0  0  0  0  0  0  0  0  0  # atno 10763 bound_to 10752
  154.6782  135.5273  153.8231 H   0  0  0  0  0  0  0  0  0  0  0  0  # atno 10764 bound_to 10752
  153.0507  135.6575  154.0837 H   0  0  0  0  0  0  0  0  0  0  0  0  # atno 10765 bound_to 10752
  140.5404  134.5528  157.5098 H   0  0  0  0  0  0  0  0  0  0  0  0  # atno 11005 bound_to 11000
  145.3161  139.1803  143.4613 LP  0  0  0  0  0  0  0  0  0  0  0  0  # atno 17320 bound_to 7965
  146.3242  140.3172  142.8631 LP  0  0  0  0  0  0  0  0  0  0  0  0  # atno 17321 bound_to 7965
  140.7820  143.4390  151.0580 LP  0  0  0  0  0  0  0  0  0  0  0  0  # atno 17342 bound_to 10162
  139.8067  143.8008  152.3168 LP  0  0  0  0  0  0  0  0  0  0  0  0  # atno 17343 bound_to 10162
  157.4633  131.0885  151.0722 LP  0  0  0  0  0  0  0  0  0  0  0  0  # atno 17370 bound_to 10713
  157.1203  130.6059  149.5503 LP  0  0  0  0  0  0  0  0  0  0  0  0  # atno 17371 bound_to 10713
  139.9507  134.7622  156.0455 LP  0  0  0  0  0  0  0  0  0  0  0  0  # atno 17394 bound_to 11000
  141.1230  133.6607  156.3264 LP  0  0  0  0  0  0  0  0  0  0  0  0  # atno 17395 bound_to 11000

$$$$
