AV-unprocessed.smi:2438|AV-procd|sdf|9600|dock9
  -GOLD-   2272013233D 1   1.00000     0.00000
 Structure written by MMmdl.
 44 45  0  0  0  0  0  0  0  0  2 V2000
  150.2096  141.6544  155.9719 C   0  0  0  0  0  0  0  0  0  0  0  0
  150.1715  140.3817  156.6790 N   0  0  0  0  0  0  0  0  0  0  0  0
  150.8500  140.3417  157.9686 C   0  0  0  0  0  0  0  0  0  0  0  0
  150.3525  139.2654  155.8379 C   0  0  0  0  0  0  0  0  0  0  0  0
  150.9537  139.4628  154.6420 N   0  0  0  0  0  0  0  0  0  0  0  0
  151.1296  138.4333  153.8082 C   0  0  0  0  0  0  0  0  0  0  0  0
  150.7367  137.1869  154.0999 N   0  3  0  0  0  0  0  0  0  0  0  0
  150.1326  136.9344  155.2854 C   0  0  0  0  0  0  0  0  0  0  0  0
  149.9060  137.9761  156.2174 C   0  0  0  0  0  0  0  0  0  0  0  0
  149.3122  137.7817  157.4988 N   0  0  0  0  0  0  0  0  0  0  0  0
  149.2997  136.6820  158.2707 C   0  0  0  0  0  0  0  0  0  0  0  0
  149.8174  135.6044  157.9804 O   0  0  0  0  0  0  0  0  0  0  0  0
  148.6330  136.9051  159.4122 N   0  0  0  0  0  0  0  0  0  0  0  0
  148.4275  135.9386  160.4882 C   0  0  1  0  0  0  0  0  0  0  0  0
  147.7217  136.6222  161.6730 C   0  0  0  0  0  0  0  0  0  0  0  0
  147.4140  135.6169  162.7925 C   0  0  0  0  0  0  0  0  0  0  0  0
  146.5900  134.4312  162.2664 C   0  0  0  0  0  0  0  0  0  0  0  0
  147.2925  133.7277  161.0858 C   0  0  1  0  0  0  0  0  0  0  0  0
  146.4803  132.5247  160.5635 C   0  0  0  0  0  0  0  0  0  0  0  0
  146.2364  131.6547  161.5440 F   0  0  0  0  0  0  0  0  0  0  0  0
  145.3192  132.9417  160.0588 F   0  0  0  0  0  0  0  0  0  0  0  0
  147.1546  131.9042  159.5954 F   0  0  0  0  0  0  0  0  0  0  0  0
  147.6005  134.7476  159.9679 C   0  0  0  0  0  0  0  0  0  0  0  0
  149.5522  141.6561  155.1024 H   0  0  0  0  0  0  0  0  0  0  0  0
  151.2233  141.8711  155.6329 H   0  0  0  0  0  0  0  0  0  0  0  0
  149.8919  142.4632  156.6305 H   0  0  0  0  0  0  0  0  0  0  0  0
  150.7140  139.3725  158.4506 H   0  0  0  0  0  0  0  0  0  0  0  0
  150.4425  141.1045  158.6325 H   0  0  0  0  0  0  0  0  0  0  0  0
  151.9189  140.5268  157.8543 H   0  0  0  0  0  0  0  0  0  0  0  0
  151.6101  138.5817  152.8523 H   0  0  0  0  0  0  0  0  0  0  0  0
  149.8737  135.8980  155.4343 H   0  0  0  0  0  0  0  0  0  0  0  0
  148.7991  138.5754  157.8552 H   0  0  0  0  0  0  0  0  0  0  0  0
  148.2390  137.8236  159.5551 H   0  0  0  0  0  0  0  0  0  0  0  0
  149.3861  135.5534  160.8408 H   0  0  0  0  0  0  0  0  0  0  0  0
  148.3423  137.4293  162.0643 H   0  0  0  0  0  0  0  0  0  0  0  0
  146.7917  137.0826  161.3358 H   0  0  0  0  0  0  0  0  0  0  0  0
  148.3473  135.2518  163.2231 H   0  0  0  0  0  0  0  0  0  0  0  0
  146.8753  136.1142  163.5997 H   0  0  0  0  0  0  0  0  0  0  0  0
  146.4194  133.7232  163.0778 H   0  0  0  0  0  0  0  0  0  0  0  0
  145.6061  134.7838  161.9545 H   0  0  0  0  0  0  0  0  0  0  0  0
  148.2453  133.3410  161.4512 H   0  0  0  0  0  0  0  0  0  0  0  0
  146.6658  135.1095  159.5368 H   0  0  0  0  0  0  0  0  0  0  0  0
  148.1422  134.2568  159.1585 H   0  0  0  0  0  0  0  0  0  0  0  0
  150.8931  136.4233  153.4413 H   0  0  0  0  0  0  0  0  0  0  0  0
  1  2  1  0  0  0  0
  1 24  1  0  0  0  0
  1 25  1  0  0  0  0
  1 26  1  0  0  0  0
  2  3  1  0  0  0  0
  2  4  1  0  0  0  0
  3 27  1  0  0  0  0
  3 28  1  0  0  0  0
  3 29  1  0  0  0  0
  4  9  1  0  0  0  0
  4  5  2  0  0  0  0
  5  6  1  0  0  0  0
  6  7  2  0  0  0  0
  6 30  1  0  0  0  0
  7  8  1  0  0  0  0
  7 44  1  0  0  0  0
  8  9  2  0  0  0  0
  8 31  1  0  0  0  0
  9 10  1  0  0  0  0
 10 11  1  0  0  0  0
 10 32  1  0  0  0  0
 11 12  2  0  0  0  0
 11 13  1  0  0  0  0
 13 14  1  0  0  0  0
 13 33  1  0  0  0  0
 14 23  1  0  0  0  0
 14 15  1  0  0  0  0
 14 34  1  0  0  0  0
 15 16  1  0  0  0  0
 15 35  1  0  0  0  0
 15 36  1  0  0  0  0
 16 17  1  0  0  0  0
 16 37  1  0  0  0  0
 16 38  1  0  0  0  0
 17 18  1  0  0  0  0
 17 39  1  0  0  0  0
 17 40  1  0  0  0  0
 18 19  1  0  0  0  0
 18 23  1  0  0  0  0
 18 41  1  0  0  0  0
 19 20  1  0  0  0  0
 19 21  1  0  0  0  0
 19 22  1  0  0  0  0
 23 42  1  0  0  0  0
 23 43  1  0  0  0  0
M  CHG  1   7   1
M  END
> <s_m_source_file>
AV-unprocessed.smi

> <i_m_source_file_index>
2438

> <i_lp_mmshare_version>
43012

> <i_f3d_flags>
0

> <s_epik_input>
W0NIM11OKFtDSDNdKWMxbltjSF1uW2NIXWMxW05IXUMoPU8pW05IXVtDQEBIXTJbQ0gyXVtDSDJdW0NIMl1bQ0BASF0oQyhGKShGKUYpW0NIMl0y

> <s_epik_cmdline>
J2VwaWtfcHl0aG9uJywgJy1waCcsICc3LjAnLCAnLXRuJywgJzgnLCAnLW1hJywgJzIwMCcsICctbWV0YWxfYmluZGluZycsICctaW1hZScsICc8aW5maWxlLm1hZT4nLCAnLW9tYWUnLCAnPG91dGZpbGUubWFlPic=

> <r_lp_tautomer_probability>
0.999336

> <r_epik_Ionization_Penalty>
2.11643

> <r_epik_Ionization_Penalty_Charging>
2.11639

> <r_epik_Ionization_Penalty_Neutral>
4.47523e-05

> <r_epik_State_Penalty>
2.25369

> <r_epik_Charging_Adjusted_Penalty>
4.37008

> <i_epik_Tot_Q>
1

> <i_epik_Tot_abs_Q>
1

> <r_epik_Metal_State_Penalty>
2.27019

> <b_epik_Metal_Only>
0

> <s_lp_Force_Field>
OPLS_2005

> <r_lp_Energy>
18.5988

> <b_lp_Chiralities_Consistent>
1

> <s_lp_Variant>
AV-unprocessed.smi:2438-6

> <Gold.Version>
5.8.1

> <Gold.Id.Protein>
6NUR|6NUR_protein|mol2

> <Gold.PLP.Fitness>
43.3321

> <Gold.PLP.PLP>
-33.2166

> <Gold.PLP.part.hbond>
-4.0000

> <Gold.PLP.part.metal>
0.0000

> <Gold.PLP.part.buried>
-5.0123

> <Gold.PLP.part.nonpolar>
-24.6181

> <Gold.PLP.part.repulsive>
0.4324

> <Gold.PLP.ligand.clash>
0.0000

> <Gold.PLP.ligand.torsion>
0.5064

> <Gold.PLP.Chemscore.Hbond>
3.5880

> <Gold.PLP.Chemscore.CHOScore>
0.0000

> <Gold.PLP.Chemscore.Metal>
0.0000

> <Gold.Chemscore.Hbonds>
donor molecule, donor type, donor heavy atom, donor atom, acceptor molecule, acceptor atom, score
      L1  H     7    44       P1  7949  1.50
      P1  H  6896  6907       L1    12  0.92
      P1  H  7989  7998       L1     5  0.90

> <Gold.PLP.Chemscore.Internal.Correction>
0.3643

> <Gold.Rescore>
     Score         DG    S(hbond)    S(metal)    S(lipo)     H(rot)  DE(clash)    DE(int)     intcor
     12.57     -15.30       1.55        0.00      68.38       1.31       0.43       2.30       ----

> <Gold.Chemscore.Fitness>
12.5706

> <Gold.Chemscore.DG>
-15.3026

> <Gold.Chemscore.ZeroCoef>
-5.4800

> <Gold.Chemscore.Hbond>
1.5479

> <Gold.Chemscore.Metal>
0.0000

> <Gold.Chemscore.Lipo>
68.3805

> <Gold.Chemscore.Internal_Hbond>
0.0000

> <Gold.Chemscore.DEClash>
0.4289

> <Gold.Chemscore.DEInternal>
2.3031

> <Gold.Chemscore.Rot>
1.3078

> <Gold.Chemscore.Internal.Correction>
   9.000000E+99

> <Gold.Chemscore.Hbonds>
donor molecule, donor type, donor heavy atom, donor atom, acceptor molecule, acceptor atom, score
      L1  H     7    44       P1  7949  0.12
      P1  H  6896  6907       L1    12  0.79
      P1  H  7989  7998       L1     5  0.18

> <Gold.Chemscore.Hbond.Weighted>
-5.1701

> <Gold.Chemscore.Metal.Weighted>
-0.0000

> <Gold.Chemscore.Lipo.Weighted>
-8.0005

> <Gold.Chemscore.Internal_Hbond.Weighted>
0.0000

> <Gold.Chemscore.DEClash.Weighted>
0.4289

> <Gold.Chemscore.DEInternal.Weighted>
2.3031

> <Gold.Chemscore.Rot.Weighted>
3.3481

> <Gold.Chemscore.Internal.Correction.Weighted>
   9.000000E+99

> <Gold.Protein.RotatedTorsions>
[ 6907 6896 6895 6894 ] final  -71.85 input  -60.11 | X-H torsion
[ 7974 7965 7964 7962 ] final  177.09 input  175.53 | X-H torsion
[ 8008 7997 7996 7995 ] final -115.73 input   59.86 | X-H torsion
[ 10167 10162 10161 10158 ] final -178.22 input  -65.29 | X-H torsion
[ 10718 10713 10712 10709 ] final  -67.84 input   66.30 | X-H torsion
[ 10763 10752 10751 10750 ] final  -29.79 input  -60.55 | X-H torsion
[ 11005 11000 10999 10996 ] final   62.59 input  -57.11 | X-H torsion

> <Gold.Protein.ActiveResidues>
 VAL166  LYS551  ARG553  GLY616  TRP617  ASP618  TYR619  PRO620  LYS621  CYS622 
 ASP623  PHE694  ASN695  SER759  ASP760  ASP761  ALA762  ILE779  LEU786  VAL792 
 PHE793  MET794  SER795  GLU796  ALA797  LYS798  CYS799  TRP800  GLU811  SER814 

> <Gold.Protein.RotatedAtoms>
  150.7195  134.5249  159.5671 H   0  0  0  0  0  0  0  0  0  0  0  0  # atno 6907 bound_to 6896
  152.2795  134.7841  160.0408 H   0  0  0  0  0  0  0  0  0  0  0  0  # atno 6908 bound_to 6896
  151.8492  133.3401  159.3704 H   0  0  0  0  0  0  0  0  0  0  0  0  # atno 6909 bound_to 6896
  144.7174  140.0195  143.6440 H   0  0  0  0  0  0  0  0  0  0  0  0  # atno 7974 bound_to 7965
  155.0567  140.0393  157.2562 H   0  0  0  0  0  0  0  0  0  0  0  0  # atno 8008 bound_to 7997
  154.7093  140.2689  155.6620 H   0  0  0  0  0  0  0  0  0  0  0  0  # atno 8009 bound_to 7997
  156.2784  140.2725  156.1729 H   0  0  0  0  0  0  0  0  0  0  0  0  # atno 8010 bound_to 7997
  139.5443  144.2279  152.0957 H   0  0  0  0  0  0  0  0  0  0  0  0  # atno 10167 bound_to 10162
  156.0536  130.4284  150.1912 H   0  0  0  0  0  0  0  0  0  0  0  0  # atno 10718 bound_to 10713
  153.7704  135.6913  153.4907 H   0  0  0  0  0  0  0  0  0  0  0  0  # atno 10763 bound_to 10752
  153.1878  135.4482  155.0109 H   0  0  0  0  0  0  0  0  0  0  0  0  # atno 10764 bound_to 10752
  154.8120  135.3381  154.7214 H   0  0  0  0  0  0  0  0  0  0  0  0  # atno 10765 bound_to 10752
  140.0082  134.6337  155.9822 H   0  0  0  0  0  0  0  0  0  0  0  0  # atno 11005 bound_to 11000
  146.0192  139.3236  143.0823 LP  0  0  0  0  0  0  0  0  0  0  0  0  # atno 17320 bound_to 7965
  145.8588  140.9487  143.0711 LP  0  0  0  0  0  0  0  0  0  0  0  0  # atno 17321 bound_to 7965
  140.1762  144.4888  150.6552 LP  0  0  0  0  0  0  0  0  0  0  0  0  # atno 17342 bound_to 10162
  140.6685  143.2277  151.5684 LP  0  0  0  0  0  0  0  0  0  0  0  0  # atno 17343 bound_to 10162
  156.9992  130.9917  151.3395 LP  0  0  0  0  0  0  0  0  0  0  0  0  # atno 17370 bound_to 10713
  157.5486  130.8167  149.8117 LP  0  0  0  0  0  0  0  0  0  0  0  0  # atno 17371 bound_to 10713
  141.1692  133.6537  156.4589 LP  0  0  0  0  0  0  0  0  0  0  0  0  # atno 17394 bound_to 11000
  140.4603  134.6847  157.5082 LP  0  0  0  0  0  0  0  0  0  0  0  0  # atno 17395 bound_to 11000

$$$$
