AV-unprocessed.smi:2684|AV-procd|sdf|10379|dock8
  -GOLD-   2272014413D 1   1.00000     0.00000
 Structure written by MMmdl.
 45 46  0  0  0  0  0  0  0  0  2 V2000
  143.8529  132.7386  148.6426 C   0  0  0  0  0  0  0  0  0  0  0  0
  144.5812  133.3010  149.8288 C   0  0  0  0  0  0  0  0  0  0  0  0
  145.7537  132.7925  150.4565 C   0  0  0  0  0  0  0  0  0  0  0  0
  146.1405  133.5221  151.4905 N   0  0  0  0  0  0  0  0  0  0  0  0
  145.2296  134.5156  151.5623 N   0  0  0  0  0  0  0  0  0  0  0  0
  145.3298  135.5137  152.6121 C   0  0  0  0  0  0  0  0  0  0  0  0
  144.5057  136.7904  152.3265 C   0  0  1  0  0  0  0  0  0  0  0  0
  143.0299  136.5675  152.6827 C   0  0  0  0  0  0  0  0  0  0  0  0
  145.0218  137.9512  153.0888 N   0  3  0  0  0  0  0  0  0  0  0  0
  146.4580  138.2443  152.8932 C   0  0  0  0  0  0  0  0  0  0  0  0
  147.2318  138.2072  154.2175 C   0  0  0  0  0  0  0  0  0  0  0  0
  146.6326  137.9346  155.2560 O   0  0  0  0  0  0  0  0  0  0  0  0
  148.5461  138.4934  154.2391 N   0  0  0  0  0  0  0  0  0  0  0  0
  149.4543  138.5138  155.3855 C   0  0  0  0  0  0  0  0  0  0  0  0
  149.7722  139.9681  155.7644 C   0  0  0  0  0  0  0  0  0  0  0  0
  150.8188  140.0215  156.8896 C   0  0  0  0  0  0  0  0  0  0  0  0
  151.9945  139.3246  156.4929 O   0  0  0  0  0  0  0  0  0  0  0  0
  151.7630  137.9423  156.2454 C   0  0  0  0  0  0  0  0  0  0  0  0
  150.7710  137.7748  155.0832 C   0  0  0  0  0  0  0  0  0  0  0  0
  144.2835  134.4128  150.5644 C   0  0  0  0  0  0  0  0  0  0  0  0
  144.5299  132.2274  147.9581 H   0  0  0  0  0  0  0  0  0  0  0  0
  143.3475  133.5174  148.0711 H   0  0  0  0  0  0  0  0  0  0  0  0
  143.0933  132.0176  148.9432 H   0  0  0  0  0  0  0  0  0  0  0  0
  146.3297  131.9170  150.1945 H   0  0  0  0  0  0  0  0  0  0  0  0
  144.9954  135.0528  153.5429 H   0  0  0  0  0  0  0  0  0  0  0  0
  146.3822  135.7643  152.7535 H   0  0  0  0  0  0  0  0  0  0  0  0
  144.5472  137.0186  151.2602 H   0  0  0  0  0  0  0  0  0  0  0  0
  142.6089  135.7393  152.1114 H   0  0  0  0  0  0  0  0  0  0  0  0
  142.4338  137.4536  152.4621 H   0  0  0  0  0  0  0  0  0  0  0  0
  142.9054  136.3372  153.7415 H   0  0  0  0  0  0  0  0  0  0  0  0
  144.5111  138.7734  152.7997 H   0  0  0  0  0  0  0  0  0  0  0  0
  146.8731  137.5417  152.1782 H   0  0  0  0  0  0  0  0  0  0  0  0
  146.5602  139.2379  152.4559 H   0  0  0  0  0  0  0  0  0  0  0  0
  148.9619  138.7478  153.3541 H   0  0  0  0  0  0  0  0  0  0  0  0
  148.9667  138.0563  156.2462 H   0  0  0  0  0  0  0  0  0  0  0  0
  150.1553  140.5045  154.8951 H   0  0  0  0  0  0  0  0  0  0  0  0
  148.8641  140.4854  156.0765 H   0  0  0  0  0  0  0  0  0  0  0  0
  151.0803  141.0569  157.1090 H   0  0  0  0  0  0  0  0  0  0  0  0
  150.4242  139.5915  157.8113 H   0  0  0  0  0  0  0  0  0  0  0  0
  152.7118  137.4651  155.9994 H   0  0  0  0  0  0  0  0  0  0  0  0
  151.3877  137.4577  157.1483 H   0  0  0  0  0  0  0  0  0  0  0  0
  150.5934  136.7141  154.9075 H   0  0  0  0  0  0  0  0  0  0  0  0
  151.2172  138.1709  154.1699 H   0  0  0  0  0  0  0  0  0  0  0  0
  143.4777  135.1253  150.4664 H   0  0  0  0  0  0  0  0  0  0  0  0
  144.8442  137.7983  154.0710 H   0  0  0  0  0  0  0  0  0  0  0  0
  1  2  1  0  0  0  0
  1 21  1  0  0  0  0
  1 22  1  0  0  0  0
  1 23  1  0  0  0  0
  2 20  2  0  0  0  0
  2  3  1  0  0  0  0
  3  4  2  0  0  0  0
  3 24  1  0  0  0  0
  4  5  1  0  0  0  0
  5  6  1  0  0  0  0
  5 20  1  0  0  0  0
  6  7  1  0  0  0  0
  6 25  1  0  0  0  0
  6 26  1  0  0  0  0
  7  8  1  0  0  0  0
  7  9  1  0  0  0  0
  7 27  1  0  0  0  0
  8 28  1  0  0  0  0
  8 29  1  0  0  0  0
  8 30  1  0  0  0  0
  9 10  1  0  0  0  0
  9 31  1  0  0  0  0
  9 45  1  0  0  0  0
 10 11  1  0  0  0  0
 10 32  1  0  0  0  0
 10 33  1  0  0  0  0
 11 12  2  0  0  0  0
 11 13  1  0  0  0  0
 13 14  1  0  0  0  0
 13 34  1  0  0  0  0
 14 19  1  0  0  0  0
 14 15  1  0  0  0  0
 14 35  1  0  0  0  0
 15 16  1  0  0  0  0
 15 36  1  0  0  0  0
 15 37  1  0  0  0  0
 16 17  1  0  0  0  0
 16 38  1  0  0  0  0
 16 39  1  0  0  0  0
 17 18  1  0  0  0  0
 18 19  1  0  0  0  0
 18 40  1  0  0  0  0
 18 41  1  0  0  0  0
 19 42  1  0  0  0  0
 19 43  1  0  0  0  0
 20 44  1  0  0  0  0
M  CHG  1   9   1
M  END
> <s_m_source_file>
AV-unprocessed.smi

> <i_m_source_file_index>
2684

> <i_lp_mmshare_version>
43012

> <i_f3d_flags>
0

> <s_epik_input>
W0NIM11jMVtjSF1ubihbY0hdMSlbQ0gyXVtDQEhdKFtDSDNdKVtOSF1bQ0gyXUMoPU8pW05IXVtDSF0yW0NIMl1bQ0gyXU9bQ0gyXVtDSDJdMg==

> <s_epik_cmdline>
J2VwaWtfcHl0aG9uJywgJy1waCcsICc3LjAnLCAnLXRuJywgJzgnLCAnLW1hJywgJzIwMCcsICctbWV0YWxfYmluZGluZycsICctaW1hZScsICc8aW5maWxlLm1hZT4nLCAnLW9tYWUnLCAnPG91dGZpbGUubWFlPic=

> <r_lp_tautomer_probability>
1

> <r_epik_Ionization_Penalty>
0.128576

> <r_epik_Ionization_Penalty_Charging>
0.128567

> <r_epik_Ionization_Penalty_Neutral>
8.60003e-06

> <r_epik_State_Penalty>
0.117991

> <r_epik_Charging_Adjusted_Penalty>
0.246558

> <i_epik_Tot_Q>
1

> <i_epik_Tot_abs_Q>
1

> <r_epik_Metal_State_Penalty>
0.118015

> <b_epik_Metal_Only>
0

> <s_lp_Force_Field>
OPLS_2005

> <r_lp_Energy>
10.4868

> <b_lp_Chiralities_Consistent>
1

> <s_lp_Variant>
AV-unprocessed.smi:2684-2

> <Gold.Version>
5.8.1

> <Gold.Id.Protein>
6NUR|6NUR_protein|mol2

> <Gold.PLP.Fitness>
52.9836

> <Gold.PLP.PLP>
-40.2955

> <Gold.PLP.part.hbond>
-4.7553

> <Gold.PLP.part.metal>
0.0000

> <Gold.PLP.part.buried>
-1.8900

> <Gold.PLP.part.nonpolar>
-33.3496

> <Gold.PLP.part.repulsive>
0.3113

> <Gold.PLP.ligand.clash>
0.0000

> <Gold.PLP.ligand.torsion>
1.0009

> <Gold.PLP.Chemscore.Hbond>
3.9302

> <Gold.PLP.Chemscore.CHOScore>
0.9422

> <Gold.PLP.Chemscore.Metal>
0.0000

> <Gold.Chemscore.Hbonds>
donor molecule, donor type, donor heavy atom, donor atom, acceptor molecule, acceptor atom, score
      L1  H     9    31       P1 10175  2.00
      L1  C     3    24       P1 10747  0.22
      L1  C    20    44       P1 10186  0.45

> <Gold.PLP.Chemscore.Internal.Correction>
0.0728

> <Gold.Rescore>
     Score         DG    S(hbond)    S(metal)    S(lipo)     H(rot)  DE(clash)    DE(int)     intcor
     19.60     -20.80       2.86        0.00      93.91       2.04       0.50       0.70       ----

> <Gold.Chemscore.Fitness>
19.5991

> <Gold.Chemscore.DG>
-20.8001

> <Gold.Chemscore.ZeroCoef>
-5.4800

> <Gold.Chemscore.Hbond>
2.8636

> <Gold.Chemscore.Metal>
0.0000

> <Gold.Chemscore.Lipo>
93.9112

> <Gold.Chemscore.Internal_Hbond>
0.0000

> <Gold.Chemscore.DEClash>
0.5023

> <Gold.Chemscore.DEInternal>
0.6987

> <Gold.Chemscore.Rot>
2.0437

> <Gold.Chemscore.Internal.Correction>
   9.000000E+99

> <Gold.Chemscore.Hbonds>
donor molecule, donor type, donor heavy atom, donor atom, acceptor molecule, acceptor atom, score
      L1  H     9    31       P1 10175  1.00

> <Gold.Chemscore.Hbond.Weighted>
-9.5643

> <Gold.Chemscore.Metal.Weighted>
-0.0000

> <Gold.Chemscore.Lipo.Weighted>
-10.9876

> <Gold.Chemscore.Internal_Hbond.Weighted>
0.0000

> <Gold.Chemscore.DEClash.Weighted>
0.5023

> <Gold.Chemscore.DEInternal.Weighted>
0.6987

> <Gold.Chemscore.Rot.Weighted>
5.2318

> <Gold.Chemscore.Internal.Correction.Weighted>
   9.000000E+99

> <Gold.Protein.RotatedTorsions>
[ 6907 6896 6895 6894 ] final -139.36 input  -60.11 | X-H torsion
[ 7974 7965 7964 7962 ] final -124.22 input  175.53 | X-H torsion
[ 8008 7997 7996 7995 ] final -148.68 input   59.86 | X-H torsion
[ 10167 10162 10161 10158 ] final   32.09 input  -65.29 | X-H torsion
[ 10718 10713 10712 10709 ] final    3.40 input   66.30 | X-H torsion
[ 10763 10752 10751 10750 ] final  131.63 input  -60.55 | X-H torsion
[ 11005 11000 10999 10996 ] final  -96.95 input  -57.11 | X-H torsion

> <Gold.Protein.ActiveResidues>
 VAL166  LYS551  ARG553  GLY616  TRP617  ASP618  TYR619  PRO620  LYS621  CYS622 
 ASP623  PHE694  ASN695  SER759  ASP760  ASP761  ALA762  ILE779  LEU786  VAL792 
 PHE793  MET794  SER795  GLU796  ALA797  LYS798  CYS799  TRP800  GLU811  SER814 

> <Gold.Protein.RotatedAtoms>
  151.0468  133.5659  159.2645 H   0  0  0  0  0  0  0  0  0  0  0  0  # atno 6907 bound_to 6896
  151.2685  135.0676  159.9135 H   0  0  0  0  0  0  0  0  0  0  0  0  # atno 6908 bound_to 6896
  152.5374  134.0202  159.8032 H   0  0  0  0  0  0  0  0  0  0  0  0  # atno 6909 bound_to 6896
  145.0104  140.7901  143.4442 H   0  0  0  0  0  0  0  0  0  0  0  0  # atno 7974 bound_to 7965
  155.5955  140.0657  157.2747 H   0  0  0  0  0  0  0  0  0  0  0  0  # atno 8008 bound_to 7997
  154.4293  140.1827  156.1166 H   0  0  0  0  0  0  0  0  0  0  0  0  # atno 8009 bound_to 7997
  156.0200  140.3318  155.7032 H   0  0  0  0  0  0  0  0  0  0  0  0  # atno 8010 bound_to 7997
  140.4530  144.1020  150.6196 H   0  0  0  0  0  0  0  0  0  0  0  0  # atno 10167 bound_to 10162
  156.8773  130.5641  149.5654 H   0  0  0  0  0  0  0  0  0  0  0  0  # atno 10718 bound_to 10713
  153.7775  135.3173  155.3361 H   0  0  0  0  0  0  0  0  0  0  0  0  # atno 10763 bound_to 10752
  154.8174  135.4627  154.0684 H   0  0  0  0  0  0  0  0  0  0  0  0  # atno 10764 bound_to 10752
  153.1962  135.6916  153.8374 H   0  0  0  0  0  0  0  0  0  0  0  0  # atno 10765 bound_to 10752
  141.1395  133.8135  157.0640 H   0  0  0  0  0  0  0  0  0  0  0  0  # atno 11005 bound_to 11000
  145.2031  139.2242  143.5182 LP  0  0  0  0  0  0  0  0  0  0  0  0  # atno 17320 bound_to 7965
  146.3469  140.1852  142.8589 LP  0  0  0  0  0  0  0  0  0  0  0  0  # atno 17321 bound_to 7965
  140.4185  143.2623  151.9745 LP  0  0  0  0  0  0  0  0  0  0  0  0  # atno 17342 bound_to 10162
  139.4798  144.5852  151.7865 LP  0  0  0  0  0  0  0  0  0  0  0  0  # atno 17343 bound_to 10162
  156.0695  130.5731  150.9355 LP  0  0  0  0  0  0  0  0  0  0  0  0  # atno 17370 bound_to 10713
  157.6161  131.0933  150.8708 LP  0  0  0  0  0  0  0  0  0  0  0  0  # atno 17371 bound_to 10713
  140.0553  134.9784  157.1210 LP  0  0  0  0  0  0  0  0  0  0  0  0  # atno 17394 bound_to 11000
  140.3928  134.2166  155.7165 LP  0  0  0  0  0  0  0  0  0  0  0  0  # atno 17395 bound_to 11000

$$$$
