AV-unprocessed.smi:701|AV-procd|sdf|3414|dock10
  -GOLD-   22720 0393D 1   1.00000     0.00000
 Structure written by MMmdl.
 48 50  0  0  0  0  0  0  0  0  2 V2000
  147.7199  132.0314  160.3738 C   0  0  0  0  0  0  0  0  0  0  0  0
  146.7213  132.1651  159.2223 C   0  0  0  0  0  0  0  0  0  0  0  0
  145.4103  132.0368  159.7444 O   0  0  0  0  0  0  0  0  0  0  0  0
  144.3970  132.0999  158.7488 C   0  0  2  0  0  0  0  0  0  0  0  0
  144.1263  133.5404  158.2973 C   0  0  0  0  0  0  0  0  0  0  0  0
  143.0168  133.6085  159.3520 C   0  0  2  0  0  0  0  0  0  0  0  0
  143.5155  134.1940  160.5960 N   0  0  0  0  0  0  0  0  0  0  0  0
  142.7410  134.6525  161.5893 C   0  0  0  0  0  0  0  0  0  0  0  0
  141.5105  134.6630  161.5361 O   0  0  0  0  0  0  0  0  0  0  0  0
  143.4724  135.1971  162.8219 C   0  0  0  0  0  0  0  0  0  0  0  0
  144.8310  135.6628  162.5035 N   0  0  0  0  0  0  0  0  0  0  0  0
  145.9054  134.8099  162.8119 C   0  0  0  0  0  0  0  0  0  0  0  0
  147.1812  135.1517  162.5495 C   0  0  0  0  0  0  0  0  0  0  0  0
  147.4356  136.4460  161.9289 C   0  0  0  0  0  0  0  0  0  0  0  0
  148.5949  136.7771  161.6878 O   0  0  0  0  0  0  0  0  0  0  0  0
  146.3591  137.2355  161.6435 N   0  5  0  0  0  0  0  0  0  0  0  0
  145.0664  136.8735  161.9133 C   0  0  0  0  0  0  0  0  0  0  0  0
  144.1090  137.6004  161.6450 O   0  0  0  0  0  0  0  0  0  0  0  0
  142.9682  132.0531  159.3527 C   0  0  0  0  0  0  0  0  0  0  0  0
  141.8895  131.4703  158.4153 C   0  0  0  0  0  0  0  0  0  0  0  0
  141.9835  129.9430  158.2499 C   0  0  0  0  0  0  0  0  0  0  0  0
  141.9081  129.2294  159.6048 C   0  0  0  0  0  0  0  0  0  0  0  0
  142.9395  129.7988  160.5856 C   0  0  0  0  0  0  0  0  0  0  0  0
  142.8061  131.3253  160.7068 C   0  0  0  0  0  0  0  0  0  0  0  0
  148.7454  132.1126  160.0132 H   0  0  0  0  0  0  0  0  0  0  0  0
  147.6153  131.0674  160.8724 H   0  0  0  0  0  0  0  0  0  0  0  0
  147.5638  132.8121  161.1189 H   0  0  0  0  0  0  0  0  0  0  0  0
  146.8478  133.1306  158.7313 H   0  0  0  0  0  0  0  0  0  0  0  0
  146.9034  131.3892  158.4773 H   0  0  0  0  0  0  0  0  0  0  0  0
  144.5536  131.3947  157.9317 H   0  0  0  0  0  0  0  0  0  0  0  0
  144.9498  134.2403  158.4441 H   0  0  0  0  0  0  0  0  0  0  0  0
  143.7407  133.5940  157.2784 H   0  0  0  0  0  0  0  0  0  0  0  0
  142.1068  134.0787  158.9754 H   0  0  0  0  0  0  0  0  0  0  0  0
  144.5167  134.2117  160.7261 H   0  0  0  0  0  0  0  0  0  0  0  0
  142.8948  136.0033  163.2788 H   0  0  0  0  0  0  0  0  0  0  0  0
  143.5053  134.4076  163.5737 H   0  0  0  0  0  0  0  0  0  0  0  0
  145.6298  133.8680  163.2628 H   0  0  0  0  0  0  0  0  0  0  0  0
  147.9950  134.4832  162.7888 H   0  0  0  0  0  0  0  0  0  0  0  0
  140.8981  131.7249  158.7927 H   0  0  0  0  0  0  0  0  0  0  0  0
  141.9493  131.9302  157.4285 H   0  0  0  0  0  0  0  0  0  0  0  0
  141.1814  129.5897  157.6012 H   0  0  0  0  0  0  0  0  0  0  0  0
  142.9173  129.6816  157.7517 H   0  0  0  0  0  0  0  0  0  0  0  0
  140.9077  129.3496  160.0224 H   0  0  0  0  0  0  0  0  0  0  0  0
  142.0634  128.1582  159.4747 H   0  0  0  0  0  0  0  0  0  0  0  0
  142.8147  129.3363  161.5651 H   0  0  0  0  0  0  0  0  0  0  0  0
  143.9459  129.5455  160.2498 H   0  0  0  0  0  0  0  0  0  0  0  0
  143.5436  131.6707  161.4312 H   0  0  0  0  0  0  0  0  0  0  0  0
  141.8368  131.5666  161.1452 H   0  0  0  0  0  0  0  0  0  0  0  0
  1  2  1  0  0  0  0
  1 25  1  0  0  0  0
  1 26  1  0  0  0  0
  1 27  1  0  0  0  0
  2  3  1  0  0  0  0
  2 28  1  0  0  0  0
  2 29  1  0  0  0  0
  3  4  1  0  0  0  0
  4 19  1  0  0  0  0
  4  5  1  0  0  0  0
  4 30  1  0  0  0  0
  5  6  1  0  0  0  0
  5 31  1  0  0  0  0
  5 32  1  0  0  0  0
  6  7  1  0  0  0  0
  6 19  1  0  0  0  0
  6 33  1  0  0  0  0
  7  8  1  0  0  0  0
  7 34  1  0  0  0  0
  8  9  2  0  0  0  0
  8 10  1  0  0  0  0
 10 11  1  0  0  0  0
 10 35  1  0  0  0  0
 10 36  1  0  0  0  0
 11 17  1  0  0  0  0
 11 12  1  0  0  0  0
 12 13  2  0  0  0  0
 12 37  1  0  0  0  0
 13 14  1  0  0  0  0
 13 38  1  0  0  0  0
 14 15  2  0  0  0  0
 14 16  1  0  0  0  0
 16 17  1  0  0  0  0
 17 18  2  0  0  0  0
 19 24  1  0  0  0  0
 19 20  1  0  0  0  0
 20 21  1  0  0  0  0
 20 39  1  0  0  0  0
 20 40  1  0  0  0  0
 21 22  1  0  0  0  0
 21 41  1  0  0  0  0
 21 42  1  0  0  0  0
 22 23  1  0  0  0  0
 22 43  1  0  0  0  0
 22 44  1  0  0  0  0
 23 24  1  0  0  0  0
 23 45  1  0  0  0  0
 23 46  1  0  0  0  0
 24 47  1  0  0  0  0
 24 48  1  0  0  0  0
M  CHG  1  16  -1
M  END
> <s_m_source_file>
AV-unprocessed.smi

> <i_m_source_file_index>
701

> <i_lp_mmshare_version>
43012

> <i_f3d_flags>
0

> <s_epik_input>
W0NIMl0xW0NIMl1bQ0gyXVtDSDJdW0NIMl1DMTJbQ0BIXShPW0NIMl1bQ0gzXSlbQ0gyXVtDQEhdMltOSF1DKD1PKVtDSDJdbjNbY0hdW2NIXWMoPU8pW25IXWMzPU8=

> <s_epik_cmdline>
J2VwaWtfcHl0aG9uJywgJy1waCcsICc3LjAnLCAnLXRuJywgJzgnLCAnLW1hJywgJzIwMCcsICctbWV0YWxfYmluZGluZycsICctaW1hZScsICc8aW5maWxlLm1hZT4nLCAnLW9tYWUnLCAnPG91dGZpbGUubWFlPic=

> <r_lp_tautomer_probability>
0.999537

> <r_epik_Ionization_Penalty>
3.12423

> <r_epik_Ionization_Penalty_Charging>
2.92877e-08

> <r_epik_Ionization_Penalty_Neutral>
3.12423

> <r_epik_State_Penalty>
3.12332

> <r_epik_Charging_Adjusted_Penalty>
3.12332

> <i_epik_Tot_Q>
-1

> <i_epik_Tot_abs_Q>
1

> <r_epik_Metal_State_Penalty>
0.463873

> <b_epik_Metal_Only>
1

> <s_lp_Force_Field>
OPLS_2005

> <r_lp_Energy>
38.2445

> <b_lp_Chiralities_Consistent>
1

> <s_lp_Variant>
AV-unprocessed.smi:701-7

> <Gold.Version>
5.8.1

> <Gold.Id.Protein>
6NUR|6NUR_protein|mol2

> <Gold.PLP.Fitness>
42.6137

> <Gold.PLP.PLP>
-35.5035

> <Gold.PLP.part.hbond>
-1.9386

> <Gold.PLP.part.metal>
0.0000

> <Gold.PLP.part.buried>
-6.6134

> <Gold.PLP.part.nonpolar>
-26.6929

> <Gold.PLP.part.repulsive>
0.0037

> <Gold.PLP.ligand.clash>
0.0000

> <Gold.PLP.ligand.torsion>
0.9591

> <Gold.PLP.Chemscore.Hbond>
2.8938

> <Gold.PLP.Chemscore.CHOScore>
0.0000

> <Gold.PLP.Chemscore.Metal>
0.0000

> <Gold.Chemscore.Hbonds>
donor molecule, donor type, donor heavy atom, donor atom, acceptor molecule, acceptor atom, score
      P1  H  6931  6943       L1    15  1.00
      P1  H  6934  6947       L1    16  1.76

> <Gold.PLP.Chemscore.Internal.Correction>
0.3472

> <Gold.Rescore>
     Score         DG    S(hbond)    S(metal)    S(lipo)     H(rot)  DE(clash)    DE(int)     intcor
     12.39     -13.44       1.64        0.00      65.91       2.04       0.13       0.92       ----

> <Gold.Chemscore.Fitness>
12.3893

> <Gold.Chemscore.DG>
-13.4381

> <Gold.Chemscore.ZeroCoef>
-5.4800

> <Gold.Chemscore.Hbond>
1.6375

> <Gold.Chemscore.Metal>
0.0000

> <Gold.Chemscore.Lipo>
65.9060

> <Gold.Chemscore.Internal_Hbond>
0.0000

> <Gold.Chemscore.DEClash>
0.1334

> <Gold.Chemscore.DEInternal>
0.9154

> <Gold.Chemscore.Rot>
2.0399

> <Gold.Chemscore.Internal.Correction>
   9.000000E+99

> <Gold.Chemscore.Hbonds>
donor molecule, donor type, donor heavy atom, donor atom, acceptor molecule, acceptor atom, score
      P1  H  6931  6943       L1    15  0.92
      P1  H  6934  6947       L1    16  0.41

> <Gold.Chemscore.Hbond.Weighted>
-5.4692

> <Gold.Chemscore.Metal.Weighted>
-0.0000

> <Gold.Chemscore.Lipo.Weighted>
-7.7110

> <Gold.Chemscore.Internal_Hbond.Weighted>
0.0000

> <Gold.Chemscore.DEClash.Weighted>
0.1334

> <Gold.Chemscore.DEInternal.Weighted>
0.9154

> <Gold.Chemscore.Rot.Weighted>
5.2222

> <Gold.Chemscore.Internal.Correction.Weighted>
   9.000000E+99

> <Gold.Protein.RotatedTorsions>
[ 6907 6896 6895 6894 ] final  -42.59 input  -60.11 | X-H torsion
[ 7974 7965 7964 7962 ] final   -7.23 input  175.53 | X-H torsion
[ 8008 7997 7996 7995 ] final  137.61 input   59.86 | X-H torsion
[ 10167 10162 10161 10158 ] final   28.54 input  -65.29 | X-H torsion
[ 10718 10713 10712 10709 ] final  -43.58 input   66.30 | X-H torsion
[ 10763 10752 10751 10750 ] final -165.88 input  -60.55 | X-H torsion
[ 11005 11000 10999 10996 ] final -105.73 input  -57.11 | X-H torsion

> <Gold.Protein.ActiveResidues>
 VAL166  LYS551  ARG553  GLY616  TRP617  ASP618  TYR619  PRO620  LYS621  CYS622 
 ASP623  PHE694  ASN695  SER759  ASP760  ASP761  ALA762  ILE779  LEU786  VAL792 
 PHE793  MET794  SER795  GLU796  ALA797  LYS798  CYS799  TRP800  GLU811  SER814 

> <Gold.Protein.RotatedAtoms>
  150.9535  134.8932  159.7686 H   0  0  0  0  0  0  0  0  0  0  0  0  # atno 6907 bound_to 6896
  152.5129  134.3773  159.9349 H   0  0  0  0  0  0  0  0  0  0  0  0  # atno 6908 bound_to 6896
  151.3788  133.3788  159.2742 H   0  0  0  0  0  0  0  0  0  0  0  0  # atno 6909 bound_to 6896
  146.2312  140.2289  142.8339 H   0  0  0  0  0  0  0  0  0  0  0  0  # atno 7974 bound_to 7965
  156.3001  140.2415  156.3938 H   0  0  0  0  0  0  0  0  0  0  0  0  # atno 8008 bound_to 7997
  154.8589  140.0421  157.1672 H   0  0  0  0  0  0  0  0  0  0  0  0  # atno 8009 bound_to 7997
  154.8917  140.2964  155.5370 H   0  0  0  0  0  0  0  0  0  0  0  0  # atno 8010 bound_to 7997
  140.4843  144.0567  150.6275 H   0  0  0  0  0  0  0  0  0  0  0  0  # atno 10167 bound_to 10162
  156.2475  130.4185  149.8688 H   0  0  0  0  0  0  0  0  0  0  0  0  # atno 10718 bound_to 10713
  154.6888  135.2967  154.9509 H   0  0  0  0  0  0  0  0  0  0  0  0  # atno 10763 bound_to 10752
  154.0479  135.6648  153.4801 H   0  0  0  0  0  0  0  0  0  0  0  0  # atno 10764 bound_to 10752
  153.0597  135.5123  154.7969 H   0  0  0  0  0  0  0  0  0  0  0  0  # atno 10765 bound_to 10752
  141.1039  133.8833  157.1770 H   0  0  0  0  0  0  0  0  0  0  0  0  # atno 11005 bound_to 11000
  144.9573  140.8240  143.5535 LP  0  0  0  0  0  0  0  0  0  0  0  0  # atno 17320 bound_to 7965
  145.2256  139.2138  143.5070 LP  0  0  0  0  0  0  0  0  0  0  0  0  # atno 17321 bound_to 7965
  140.3818  143.2799  152.0162 LP  0  0  0  0  0  0  0  0  0  0  0  0  # atno 17342 bound_to 10162
  139.4839  144.6149  151.7365 LP  0  0  0  0  0  0  0  0  0  0  0  0  # atno 17343 bound_to 10162
  156.6249  130.8641  151.3483 LP  0  0  0  0  0  0  0  0  0  0  0  0  # atno 17370 bound_to 10713
  157.7201  130.9547  150.1404 LP  0  0  0  0  0  0  0  0  0  0  0  0  # atno 17371 bound_to 10713
  139.9901  135.0067  156.9955 LP  0  0  0  0  0  0  0  0  0  0  0  0  # atno 17394 bound_to 11000
  140.4952  134.1153  155.7240 LP  0  0  0  0  0  0  0  0  0  0  0  0  # atno 17395 bound_to 11000

$$$$
