AV-unprocessed.smi:2763|AV-procd|sdf|10638|dock10
  -GOLD-   2272015 83D 1   1.00000     0.00000
 Structure written by MMmdl.
 37 38  0  0  0  0  0  0  0  0  1 V2000
  144.8944  137.8052  152.5922 O   0  0  0  0  0  0  0  0  0  0  0  0
  146.0697  137.5053  152.3796 C   0  0  0  0  0  0  0  0  0  0  0  0
  147.0973  138.3367  152.6052 N   0  0  0  0  0  0  0  0  0  0  0  0
  146.9790  139.6922  153.1291 C   0  0  0  0  0  0  0  0  0  0  0  0
  148.3532  140.3723  153.2510 C   0  0  0  0  0  0  0  0  0  0  0  0
  148.9793  140.2024  154.6443 C   0  0  2  0  0  0  0  0  0  0  0  0
  148.2976  141.0986  155.6966 C   0  0  0  0  0  0  0  0  0  0  0  0
  148.9944  140.9603  157.0551 C   0  0  0  0  0  0  0  0  0  0  0  0
  150.4970  141.2135  156.8931 C   0  0  0  0  0  0  0  0  0  0  0  0
  151.0708  140.3214  155.7809 C   0  0  0  0  0  0  0  0  0  0  0  0
  150.3620  140.5460  154.5660 O   0  0  0  0  0  0  0  0  0  0  0  0
  146.4972  136.3259  151.8951 N   0  0  0  0  0  0  0  0  0  0  0  0
  145.7256  135.1823  151.5579 C   0  0  0  0  0  0  0  0  0  0  0  0
  146.4685  134.0839  151.0682 C   0  0  0  0  0  0  0  0  0  0  0  0
  145.7981  132.8988  150.7079 C   0  0  0  0  0  0  0  0  0  0  0  0
  144.4001  132.8442  150.8483 C   0  0  0  0  0  0  0  0  0  0  0  0
  143.7123  131.7262  150.5157 F   0  0  0  0  0  0  0  0  0  0  0  0
  143.7350  133.9810  151.3437 C   0  0  0  0  0  0  0  0  0  0  0  0
  144.3766  135.1175  151.6891 N   0  0  0  0  0  0  0  0  0  0  0  0
  148.0300  138.0092  152.4009 H   0  0  0  0  0  0  0  0  0  0  0  0
  146.3131  140.2836  152.4984 H   0  0  0  0  0  0  0  0  0  0  0  0
  146.5036  139.6310  154.1083 H   0  0  0  0  0  0  0  0  0  0  0  0
  149.0309  139.9754  152.4939 H   0  0  0  0  0  0  0  0  0  0  0  0
  148.2455  141.4369  153.0383 H   0  0  0  0  0  0  0  0  0  0  0  0
  148.8855  139.1572  154.9452 H   0  0  0  0  0  0  0  0  0  0  0  0
  148.3327  142.1398  155.3730 H   0  0  0  0  0  0  0  0  0  0  0  0
  147.2435  140.8364  155.7921 H   0  0  0  0  0  0  0  0  0  0  0  0
  148.5652  141.6559  157.7765 H   0  0  0  0  0  0  0  0  0  0  0  0
  148.8313  139.9570  157.4506 H   0  0  0  0  0  0  0  0  0  0  0  0
  150.6675  142.2614  156.6430 H   0  0  0  0  0  0  0  0  0  0  0  0
  151.0161  141.0268  157.8336 H   0  0  0  0  0  0  0  0  0  0  0  0
  152.1245  140.5513  155.6216 H   0  0  0  0  0  0  0  0  0  0  0  0
  151.0142  139.2675  156.0575 H   0  0  0  0  0  0  0  0  0  0  0  0
  147.4929  136.2322  151.7599 H   0  0  0  0  0  0  0  0  0  0  0  0
  147.5427  134.1443  150.9678 H   0  0  0  0  0  0  0  0  0  0  0  0
  146.3474  132.0484  150.3315 H   0  0  0  0  0  0  0  0  0  0  0  0
  142.6620  133.9793  151.4666 H   0  0  0  0  0  0  0  0  0  0  0  0
  1  2  2  0  0  0  0
  2  3  1  0  0  0  0
  2 12  1  0  0  0  0
  3  4  1  0  0  0  0
  3 20  1  0  0  0  0
  4  5  1  0  0  0  0
  4 21  1  0  0  0  0
  4 22  1  0  0  0  0
  5  6  1  0  0  0  0
  5 23  1  0  0  0  0
  5 24  1  0  0  0  0
  6 11  1  0  0  0  0
  6  7  1  0  0  0  0
  6 25  1  0  0  0  0
  7  8  1  0  0  0  0
  7 26  1  0  0  0  0
  7 27  1  0  0  0  0
  8  9  1  0  0  0  0
  8 28  1  0  0  0  0
  8 29  1  0  0  0  0
  9 10  1  0  0  0  0
  9 30  1  0  0  0  0
  9 31  1  0  0  0  0
 10 11  1  0  0  0  0
 10 32  1  0  0  0  0
 10 33  1  0  0  0  0
 12 13  1  0  0  0  0
 12 34  1  0  0  0  0
 13 19  1  0  0  0  0
 13 14  2  0  0  0  0
 14 15  1  0  0  0  0
 14 35  1  0  0  0  0
 15 16  2  0  0  0  0
 15 36  1  0  0  0  0
 16 17  1  0  0  0  0
 16 18  1  0  0  0  0
 18 19  2  0  0  0  0
 18 37  1  0  0  0  0
M  END
> <s_m_source_file>
AV-unprocessed.smi

> <i_m_source_file_index>
2763

> <i_lp_mmshare_version>
43012

> <i_f3d_flags>
0

> <s_epik_input>
bjFbY0hdYyhGKVtjSF1bY0hdYzFbTkhdQyg9TylbTkhdW0NIMl1bQ0gyXVtDQEBIXTJbQ0gyXVtDSDJdW0NIMl1bQ0gyXU8y

> <s_epik_cmdline>
J2VwaWtfcHl0aG9uJywgJy1waCcsICc3LjAnLCAnLXRuJywgJzgnLCAnLW1hJywgJzIwMCcsICctbWV0YWxfYmluZGluZycsICctaW1hZScsICc8aW5maWxlLm1hZT4nLCAnLW9tYWUnLCAnPG91dGZpbGUubWFlPic=

> <r_lp_tautomer_probability>
1

> <r_epik_Ionization_Penalty>
3.67849e-05

> <r_epik_Ionization_Penalty_Charging>
0

> <r_epik_Ionization_Penalty_Neutral>
3.67849e-05

> <r_epik_State_Penalty>
-0

> <r_epik_Charging_Adjusted_Penalty>
0

> <i_epik_Tot_Q>
0

> <i_epik_Tot_abs_Q>
0

> <r_epik_Metal_State_Penalty>
-0

> <b_epik_Metal_Only>
0

> <s_lp_Force_Field>
OPLS_2005

> <r_lp_Energy>
12.1233

> <b_lp_Chiralities_Consistent>
1

> <s_lp_Variant>
AV-unprocessed.smi:2763-1

> <Gold.Version>
5.8.1

> <Gold.Id.Protein>
6NUR|6NUR_protein|mol2

> <Gold.PLP.Fitness>
39.2129

> <Gold.PLP.PLP>
-29.8381

> <Gold.PLP.part.hbond>
-2.6659

> <Gold.PLP.part.metal>
0.0000

> <Gold.PLP.part.buried>
-0.9518

> <Gold.PLP.part.nonpolar>
-28.7151

> <Gold.PLP.part.repulsive>
2.2406

> <Gold.PLP.ligand.clash>
0.0000

> <Gold.PLP.ligand.torsion>
0.3262

> <Gold.PLP.Chemscore.Hbond>
2.5238

> <Gold.PLP.Chemscore.CHOScore>
0.8167

> <Gold.PLP.Chemscore.Metal>
0.0000

> <Gold.Chemscore.Hbonds>
donor molecule, donor type, donor heavy atom, donor atom, acceptor molecule, acceptor atom, score
      L1  H     3    20       P1  7948  0.72
      L1  H    12    34       P1  7948  0.76
      P1  H  7989  7998       L1    11  0.94
      L1  C    18    37       P1 10186  0.79

> <Gold.PLP.Chemscore.Internal.Correction>
0.0059

> <Gold.Rescore>
     Score         DG    S(hbond)    S(metal)    S(lipo)     H(rot)  DE(clash)    DE(int)     intcor
     14.86     -18.78       2.85        0.00      65.91       1.54       2.28       1.64       ----

> <Gold.Chemscore.Fitness>
14.8554

> <Gold.Chemscore.DG>
-18.7800

> <Gold.Chemscore.ZeroCoef>
-5.4800

> <Gold.Chemscore.Hbond>
2.8523

> <Gold.Chemscore.Metal>
0.0000

> <Gold.Chemscore.Lipo>
65.9114

> <Gold.Chemscore.Internal_Hbond>
0.0000

> <Gold.Chemscore.DEClash>
2.2848

> <Gold.Chemscore.DEInternal>
1.6398

> <Gold.Chemscore.Rot>
1.5384

> <Gold.Chemscore.Internal.Correction>
   9.000000E+99

> <Gold.Chemscore.Hbonds>
donor molecule, donor type, donor heavy atom, donor atom, acceptor molecule, acceptor atom, score
      L1  H     3    20       P1  7948  0.70
      L1  H    12    34       P1  7948  0.75
      P1  H  7989  7998       L1    11  0.32

> <Gold.Chemscore.Hbond.Weighted>
-9.5266

> <Gold.Chemscore.Metal.Weighted>
-0.0000

> <Gold.Chemscore.Lipo.Weighted>
-7.7116

> <Gold.Chemscore.Internal_Hbond.Weighted>
0.0000

> <Gold.Chemscore.DEClash.Weighted>
2.2848

> <Gold.Chemscore.DEInternal.Weighted>
1.6398

> <Gold.Chemscore.Rot.Weighted>
3.9382

> <Gold.Chemscore.Internal.Correction.Weighted>
   9.000000E+99

> <Gold.Protein.RotatedTorsions>
[ 6907 6896 6895 6894 ] final   24.38 input  -60.11 | X-H torsion
[ 7974 7965 7964 7962 ] final   95.85 input  175.53 | X-H torsion
[ 8008 7997 7996 7995 ] final  127.56 input   59.86 | X-H torsion
[ 10167 10162 10161 10158 ] final -104.27 input  -65.29 | X-H torsion
[ 10718 10713 10712 10709 ] final  -58.84 input   66.30 | X-H torsion
[ 10763 10752 10751 10750 ] final -163.05 input  -60.55 | X-H torsion
[ 11005 11000 10999 10996 ] final  140.90 input  -57.11 | X-H torsion

> <Gold.Protein.ActiveResidues>
 VAL166  LYS551  ARG553  GLY616  TRP617  ASP618  TYR619  PRO620  LYS621  CYS622 
 ASP623  PHE694  ASN695  SER759  ASP760  ASP761  ALA762  ILE779  LEU786  VAL792 
 PHE793  MET794  SER795  GLU796  ALA797  LYS798  CYS799  TRP800  GLU811  SER814 

> <Gold.Protein.RotatedAtoms>
  151.9566  135.0143  160.0544 H   0  0  0  0  0  0  0  0  0  0  0  0  # atno 6907 bound_to 6896
  152.1905  133.4765  159.5014 H   0  0  0  0  0  0  0  0  0  0  0  0  # atno 6908 bound_to 6896
  150.6934  134.1635  159.4228 H   0  0  0  0  0  0  0  0  0  0  0  0  # atno 6909 bound_to 6896
  145.4467  139.2296  143.3062 H   0  0  0  0  0  0  0  0  0  0  0  0  # atno 7974 bound_to 7965
  156.2894  140.2666  156.2293 H   0  0  0  0  0  0  0  0  0  0  0  0  # atno 8008 bound_to 7997
  155.0088  140.0387  157.2409 H   0  0  0  0  0  0  0  0  0  0  0  0  # atno 8009 bound_to 7997
  154.7536  140.2747  155.6277 H   0  0  0  0  0  0  0  0  0  0  0  0  # atno 8010 bound_to 7997
  140.2110  143.3746  152.1050 H   0  0  0  0  0  0  0  0  0  0  0  0  # atno 10167 bound_to 10162
  156.1105  130.4175  150.0633 H   0  0  0  0  0  0  0  0  0  0  0  0  # atno 10718 bound_to 10713
  154.7158  135.3015  154.9125 H   0  0  0  0  0  0  0  0  0  0  0  0  # atno 10763 bound_to 10752
  154.0013  135.6706  153.4763 H   0  0  0  0  0  0  0  0  0  0  0  0  # atno 10764 bound_to 10752
  153.0792  135.5018  154.8384 H   0  0  0  0  0  0  0  0  0  0  0  0  # atno 10765 bound_to 10752
  140.0362  134.9328  157.0756 H   0  0  0  0  0  0  0  0  0  0  0  0  # atno 11005 bound_to 11000
  146.2527  140.5221  142.8886 LP  0  0  0  0  0  0  0  0  0  0  0  0  # atno 17320 bound_to 7965
  144.8087  140.6347  143.6429 LP  0  0  0  0  0  0  0  0  0  0  0  0  # atno 17321 bound_to 7965
  139.5180  144.6999  151.5523 LP  0  0  0  0  0  0  0  0  0  0  0  0  # atno 17342 bound_to 10162
  140.6323  143.9052  150.6616 LP  0  0  0  0  0  0  0  0  0  0  0  0  # atno 17343 bound_to 10162
  156.8598  130.9487  151.3619 LP  0  0  0  0  0  0  0  0  0  0  0  0  # atno 17370 bound_to 10713
  157.6286  130.8711  149.9233 LP  0  0  0  0  0  0  0  0  0  0  0  0  # atno 17371 bound_to 10713
  140.4144  134.1947  155.7163 LP  0  0  0  0  0  0  0  0  0  0  0  0  # atno 17394 bound_to 11000
  141.1858  133.8315  157.1090 LP  0  0  0  0  0  0  0  0  0  0  0  0  # atno 17395 bound_to 11000

$$$$
