AV-unprocessed.smi:2567|AV-procd|sdf|10086|dock3
  -GOLD-   2272014113D 1   1.00000     0.00000
 Structure written by MMmdl.
 32 33  0  0  0  0  0  0  0  0  2 V2000
  152.0897  143.6021  160.9108 C   0  0  0  0  0  0  0  0  0  0  0  0
  151.4271  144.1705  159.6398 C   0  0  0  0  0  0  0  0  0  0  0  0
  150.2402  145.0447  160.0921 C   0  0  0  0  0  0  0  0  0  0  0  0
  152.4402  145.0220  158.8558 C   0  0  0  0  0  0  0  0  0  0  0  0
  150.9277  143.0304  158.7579 C   0  0  0  0  0  0  0  0  0  0  0  0
  150.0275  142.0928  159.1129 N   0  5  0  0  0  0  0  0  0  0  0  0
  149.9147  141.1873  158.1633 N   0  0  0  0  0  0  0  0  0  0  0  0
  150.7872  141.5577  157.2149 C   0  0  0  0  0  0  0  0  0  0  0  0
  151.0487  140.7820  155.9392 C   0  0  2  0  0  0  0  0  0  0  0  0
  149.8038  140.7812  155.0292 C   0  0  0  0  0  0  0  0  0  0  0  0
  150.0569  140.0199  153.8058 N   0  0  0  0  0  0  0  0  0  0  0  0
  150.5157  138.6665  154.1102 C   0  0  0  0  0  0  0  0  0  0  0  0
  151.7449  138.7163  155.0333 C   0  0  0  0  0  0  0  0  0  0  0  0
  151.4183  139.4328  156.2184 O   0  0  0  0  0  0  0  0  0  0  0  0
  151.4403  142.6691  157.5834 N   0  0  0  0  0  0  0  0  0  0  0  0
  152.4337  144.3991  161.5707 H   0  0  0  0  0  0  0  0  0  0  0  0
  152.9567  142.9865  160.6685 H   0  0  0  0  0  0  0  0  0  0  0  0
  151.3939  142.9818  161.4772 H   0  0  0  0  0  0  0  0  0  0  0  0
  149.5011  144.4573  160.6382 H   0  0  0  0  0  0  0  0  0  0  0  0
  149.7328  145.5018  159.2417 H   0  0  0  0  0  0  0  0  0  0  0  0
  150.5678  145.8535  160.7459 H   0  0  0  0  0  0  0  0  0  0  0  0
  152.8137  145.8511  159.4575 H   0  0  0  0  0  0  0  0  0  0  0  0
  151.9894  145.4424  157.9561 H   0  0  0  0  0  0  0  0  0  0  0  0
  153.2988  144.4259  158.5449 H   0  0  0  0  0  0  0  0  0  0  0  0
  151.8777  141.2738  155.4264 H   0  0  0  0  0  0  0  0  0  0  0  0
  148.9586  140.3485  155.5660 H   0  0  0  0  0  0  0  0  0  0  0  0
  149.5235  141.8044  154.7782 H   0  0  0  0  0  0  0  0  0  0  0  0
  149.7170  138.1039  154.5947 H   0  0  0  0  0  0  0  0  0  0  0  0
  150.7591  138.1373  153.1889 H   0  0  0  0  0  0  0  0  0  0  0  0
  152.0496  137.7060  155.3057 H   0  0  0  0  0  0  0  0  0  0  0  0
  152.5952  139.1810  154.5316 H   0  0  0  0  0  0  0  0  0  0  0  0
  149.2060  139.9742  153.2546 H   0  0  0  0  0  0  0  0  0  0  0  0
  1  2  1  0  0  0  0
  1 16  1  0  0  0  0
  1 17  1  0  0  0  0
  1 18  1  0  0  0  0
  2  3  1  0  0  0  0
  2  4  1  0  0  0  0
  2  5  1  0  0  0  0
  3 19  1  0  0  0  0
  3 20  1  0  0  0  0
  3 21  1  0  0  0  0
  4 22  1  0  0  0  0
  4 23  1  0  0  0  0
  4 24  1  0  0  0  0
  5 15  2  0  0  0  0
  5  6  1  0  0  0  0
  6  7  1  0  0  0  0
  7  8  2  0  0  0  0
  8  9  1  0  0  0  0
  8 15  1  0  0  0  0
  9 14  1  0  0  0  0
  9 10  1  0  0  0  0
  9 25  1  0  0  0  0
 10 11  1  0  0  0  0
 10 26  1  0  0  0  0
 10 27  1  0  0  0  0
 11 12  1  0  0  0  0
 11 32  1  0  0  0  0
 12 13  1  0  0  0  0
 12 28  1  0  0  0  0
 12 29  1  0  0  0  0
 13 14  1  0  0  0  0
 13 30  1  0  0  0  0
 13 31  1  0  0  0  0
M  CHG  1   6  -1
M  END
> <s_m_source_file>
AV-unprocessed.smi

> <i_m_source_file_index>
2567

> <i_lp_mmshare_version>
43012

> <i_f3d_flags>
0

> <s_epik_input>
W0NIM11DKFtDSDNdKShbQ0gzXSljMW5bbkhdYyhuMSlbQ0BASF0yW0NIMl1bTkhdW0NIMl1bQ0gyXU8y

> <s_epik_cmdline>
J2VwaWtfcHl0aG9uJywgJy1waCcsICc3LjAnLCAnLXRuJywgJzgnLCAnLW1hJywgJzIwMCcsICctbWV0YWxfYmluZGluZycsICctaW1hZScsICc8aW5maWxlLm1hZT4nLCAnLW9tYWUnLCAnPG91dGZpbGUubWFlPic=

> <r_lp_tautomer_probability>
0.948284

> <r_epik_Ionization_Penalty>
17.5852

> <r_epik_Ionization_Penalty_Charging>
16.0119

> <r_epik_Ionization_Penalty_Neutral>
1.5733

> <r_epik_State_Penalty>
6.64574

> <r_epik_Charging_Adjusted_Penalty>
22.6576

> <i_epik_Tot_Q>
-1

> <i_epik_Tot_abs_Q>
1

> <r_epik_Metal_State_Penalty>
2.89273

> <b_epik_Metal_Only>
1

> <s_lp_Force_Field>
OPLS_2005

> <r_lp_Energy>
12.7078

> <b_lp_Chiralities_Consistent>
1

> <s_lp_Variant>
AV-unprocessed.smi:2567-11

> <Gold.Version>
5.8.1

> <Gold.Id.Protein>
6NUR|6NUR_protein|mol2

> <Gold.PLP.Fitness>
35.6041

> <Gold.PLP.PLP>
-33.4750

> <Gold.PLP.part.hbond>
-3.0000

> <Gold.PLP.part.metal>
0.0000

> <Gold.PLP.part.buried>
-4.8728

> <Gold.PLP.part.nonpolar>
-26.6857

> <Gold.PLP.part.repulsive>
0.1345

> <Gold.PLP.ligand.clash>
0.0000

> <Gold.PLP.ligand.torsion>
0.2005

> <Gold.PLP.Chemscore.Hbond>
0.7821

> <Gold.PLP.Chemscore.CHOScore>
0.0000

> <Gold.PLP.Chemscore.Metal>
0.0000

> <Gold.Chemscore.Hbonds>
donor molecule, donor type, donor heavy atom, donor atom, acceptor molecule, acceptor atom, score
      L1  H    11    32       P1  7957  0.18
      P1  H  7989  7998       L1    11  0.58

> <Gold.PLP.Chemscore.Internal.Correction>
0.1839

> <Gold.Rescore>
     Score         DG    S(hbond)    S(metal)    S(lipo)     H(rot)  DE(clash)    DE(int)     intcor
     12.30     -12.56       0.42        0.00      75.35       1.23       0.06       0.20       ----

> <Gold.Chemscore.Fitness>
12.2980

> <Gold.Chemscore.DG>
-12.5617

> <Gold.Chemscore.ZeroCoef>
-5.4800

> <Gold.Chemscore.Hbond>
0.4222

> <Gold.Chemscore.Metal>
0.0000

> <Gold.Chemscore.Lipo>
75.3493

> <Gold.Chemscore.Internal_Hbond>
0.0000

> <Gold.Chemscore.DEClash>
0.0639

> <Gold.Chemscore.DEInternal>
0.1997

> <Gold.Chemscore.Rot>
1.2283

> <Gold.Chemscore.Internal.Correction>
   9.000000E+99

> <Gold.Chemscore.Hbonds>
donor molecule, donor type, donor heavy atom, donor atom, acceptor molecule, acceptor atom, score
      L1  H    11    32       P1  7957  0.18
      P1  H  7989  7998       L1    11  0.02

> <Gold.Chemscore.Hbond.Weighted>
-1.4102

> <Gold.Chemscore.Metal.Weighted>
-0.0000

> <Gold.Chemscore.Lipo.Weighted>
-8.8159

> <Gold.Chemscore.Internal_Hbond.Weighted>
0.0000

> <Gold.Chemscore.DEClash.Weighted>
0.0639

> <Gold.Chemscore.DEInternal.Weighted>
0.1997

> <Gold.Chemscore.Rot.Weighted>
3.1444

> <Gold.Chemscore.Internal.Correction.Weighted>
   9.000000E+99

> <Gold.Protein.RotatedTorsions>
[ 6907 6896 6895 6894 ] final  -20.11 input  -60.11 | X-H torsion
[ 7974 7965 7964 7962 ] final  -22.07 input  175.53 | X-H torsion
[ 8008 7997 7996 7995 ] final   82.19 input   59.86 | X-H torsion
[ 10167 10162 10161 10158 ] final  -76.52 input  -65.29 | X-H torsion
[ 10718 10713 10712 10709 ] final  -80.88 input   66.30 | X-H torsion
[ 10763 10752 10751 10750 ] final   50.96 input  -60.55 | X-H torsion
[ 11005 11000 10999 10996 ] final   27.27 input  -57.11 | X-H torsion

> <Gold.Protein.ActiveResidues>
 VAL166  LYS551  ARG553  GLY616  TRP617  ASP618  TYR619  PRO620  LYS621  CYS622 
 ASP623  PHE694  ASN695  SER759  ASP760  ASP761  ALA762  ILE779  LEU786  VAL792 
 PHE793  MET794  SER795  GLU796  ALA797  LYS798  CYS799  TRP800  GLU811  SER814 

> <Gold.Protein.RotatedAtoms>
  151.2531  135.0629  159.9069 H   0  0  0  0  0  0  0  0  0  0  0  0  # atno 6907 bound_to 6896
  152.5377  134.0311  159.8035 H   0  0  0  0  0  0  0  0  0  0  0  0  # atno 6908 bound_to 6896
  151.0522  133.5565  159.2672 H   0  0  0  0  0  0  0  0  0  0  0  0  # atno 6909 bound_to 6896
  146.1697  140.4428  142.8537 H   0  0  0  0  0  0  0  0  0  0  0  0  # atno 7974 bound_to 7965
  155.9072  140.3429  155.6071 H   0  0  0  0  0  0  0  0  0  0  0  0  # atno 8008 bound_to 7997
  155.7430  140.0810  157.2256 H   0  0  0  0  0  0  0  0  0  0  0  0  # atno 8009 bound_to 7997
  154.4051  140.1567  156.2625 H   0  0  0  0  0  0  0  0  0  0  0  0  # atno 8010 bound_to 7997
  140.4850  143.2393  151.7998 H   0  0  0  0  0  0  0  0  0  0  0  0  # atno 10167 bound_to 10162
  156.0061  130.4587  150.3868 H   0  0  0  0  0  0  0  0  0  0  0  0  # atno 10718 bound_to 10713
  152.9785  135.5861  154.4338 H   0  0  0  0  0  0  0  0  0  0  0  0  # atno 10763 bound_to 10752
  154.3948  135.2768  155.2135 H   0  0  0  0  0  0  0  0  0  0  0  0  # atno 10764 bound_to 10752
  154.3991  135.6107  153.5941 H   0  0  0  0  0  0  0  0  0  0  0  0  # atno 10765 bound_to 10752
  140.3281  134.2469  155.7706 H   0  0  0  0  0  0  0  0  0  0  0  0  # atno 11005 bound_to 11000
  144.8144  140.6443  143.6394 LP  0  0  0  0  0  0  0  0  0  0  0  0  # atno 17320 bound_to 7965
  145.4373  139.1540  143.3989 LP  0  0  0  0  0  0  0  0  0  0  0  0  # atno 17321 bound_to 7965
  139.4840  144.4723  151.9409 LP  0  0  0  0  0  0  0  0  0  0  0  0  # atno 17342 bound_to 10162
  140.3809  144.2737  150.5909 LP  0  0  0  0  0  0  0  0  0  0  0  0  # atno 17343 bound_to 10162
  157.1944  131.0423  151.2683 LP  0  0  0  0  0  0  0  0  0  0  0  0  # atno 17370 bound_to 10713
  157.4032  130.7344  149.6782 LP  0  0  0  0  0  0  0  0  0  0  0  0  # atno 17371 bound_to 10713
  141.2070  133.7817  157.0143 LP  0  0  0  0  0  0  0  0  0  0  0  0  # atno 17394 bound_to 11000
  140.0884  134.9607  157.1737 LP  0  0  0  0  0  0  0  0  0  0  0  0  # atno 17395 bound_to 11000

$$$$
