AV-unprocessed.smi:1761|AV-procd|sdf|7097|dock5
  -GOLD-   22720 8313D 1   1.00000     0.00000
 Structure written by MMmdl.
 34 35  0  0  0  0  0  0  0  0  1 V2000
  144.9353  136.9265  152.9419 O   0  0  0  0  0  0  0  0  0  0  0  0
  146.0564  136.7459  152.4657 C   0  0  0  0  0  0  0  0  0  0  0  0
  146.4272  135.6850  151.7272 N   0  0  0  0  0  0  0  0  0  0  0  0
  145.6494  134.5541  151.3604 C   0  0  0  0  0  0  0  0  0  0  0  0
  146.3892  133.4485  150.8832 C   0  0  0  0  0  0  0  0  0  0  0  0
  145.7119  132.2753  150.4980 C   0  0  0  0  0  0  0  0  0  0  0  0
  144.3099  132.2373  150.6005 C   0  0  0  0  0  0  0  0  0  0  0  0
  143.6497  133.3815  151.0846 C   0  0  0  0  0  0  0  0  0  0  0  0
  144.2969  134.5071  151.4540 N   0  0  0  0  0  0  0  0  0  0  0  0
  147.0751  137.6028  152.6288 N   0  0  0  0  0  0  0  0  0  0  0  0
  147.0161  138.8528  153.3844 C   0  0  2  0  0  0  0  0  0  0  0  0
  146.8587  140.0520  152.4292 C   0  0  0  0  0  0  0  0  0  0  0  0
  146.7866  141.3769  153.2059 C   0  0  0  0  0  0  0  0  0  0  0  0
  148.0097  141.5589  154.1185 C   0  0  0  0  0  0  0  0  0  0  0  0
  148.1868  140.3622  155.0709 C   0  0  0  0  0  0  0  0  0  0  0  0
  148.2419  139.0195  154.3165 C   0  0  2  0  0  0  0  0  0  0  0  0
  149.4493  138.9539  153.5793 O   0  0  0  0  0  0  0  0  0  0  0  0
  147.3808  135.6807  151.3972 H   0  0  0  0  0  0  0  0  0  0  0  0
  147.4663  133.4937  150.8125 H   0  0  0  0  0  0  0  0  0  0  0  0
  146.2595  131.4196  150.1318 H   0  0  0  0  0  0  0  0  0  0  0  0
  143.7557  131.3552  150.3159 H   0  0  0  0  0  0  0  0  0  0  0  0
  142.5739  133.3940  151.1786 H   0  0  0  0  0  0  0  0  0  0  0  0
  147.9613  137.3749  152.2027 H   0  0  0  0  0  0  0  0  0  0  0  0
  146.1210  138.8225  154.0090 H   0  0  0  0  0  0  0  0  0  0  0  0
  147.6939  140.0854  151.7284 H   0  0  0  0  0  0  0  0  0  0  0  0
  145.9568  139.9341  151.8275 H   0  0  0  0  0  0  0  0  0  0  0  0
  146.7166  142.2123  152.5088 H   0  0  0  0  0  0  0  0  0  0  0  0
  145.8766  141.3988  153.8069 H   0  0  0  0  0  0  0  0  0  0  0  0
  148.9054  141.6783  153.5077 H   0  0  0  0  0  0  0  0  0  0  0  0
  147.9080  142.4784  154.6954 H   0  0  0  0  0  0  0  0  0  0  0  0
  149.0859  140.4937  155.6743 H   0  0  0  0  0  0  0  0  0  0  0  0
  147.3515  140.3411  155.7720 H   0  0  0  0  0  0  0  0  0  0  0  0
  148.2630  138.2084  155.0453 H   0  0  0  0  0  0  0  0  0  0  0  0
  149.3103  139.3724  152.7437 H   0  0  0  0  0  0  0  0  0  0  0  0
  1  2  2  0  0  0  0
  2  3  1  0  0  0  0
  2 10  1  0  0  0  0
  3  4  1  0  0  0  0
  3 18  1  0  0  0  0
  4  9  1  0  0  0  0
  4  5  2  0  0  0  0
  5  6  1  0  0  0  0
  5 19  1  0  0  0  0
  6  7  2  0  0  0  0
  6 20  1  0  0  0  0
  7  8  1  0  0  0  0
  7 21  1  0  0  0  0
  8  9  2  0  0  0  0
  8 22  1  0  0  0  0
 10 11  1  0  0  0  0
 10 23  1  0  0  0  0
 11 16  1  0  0  0  0
 11 12  1  0  0  0  0
 11 24  1  0  0  0  0
 12 13  1  0  0  0  0
 12 25  1  0  0  0  0
 12 26  1  0  0  0  0
 13 14  1  0  0  0  0
 13 27  1  0  0  0  0
 13 28  1  0  0  0  0
 14 15  1  0  0  0  0
 14 29  1  0  0  0  0
 14 30  1  0  0  0  0
 15 16  1  0  0  0  0
 15 31  1  0  0  0  0
 15 32  1  0  0  0  0
 16 17  1  0  0  0  0
 16 33  1  0  0  0  0
 17 34  1  0  0  0  0
M  END
> <s_m_source_file>
AV-unprocessed.smi

> <i_m_source_file_index>
1761

> <i_lp_mmshare_version>
43012

> <i_f3d_flags>
0

> <s_epik_input>
bjFbY0hdW2NIXVtjSF1bY0hdYzFbTkhdQyg9TylbTkhdW0NAQEhdMltDSDJdW0NIMl1bQ0gyXVtDSDJdW0NASF0yW09IXQ==

> <s_epik_cmdline>
J2VwaWtfcHl0aG9uJywgJy1waCcsICc3LjAnLCAnLXRuJywgJzgnLCAnLW1hJywgJzIwMCcsICctbWV0YWxfYmluZGluZycsICctaW1hZScsICc8aW5maWxlLm1hZT4nLCAnLW9tYWUnLCAnPG91dGZpbGUubWFlPic=

> <r_lp_tautomer_probability>
1

> <r_epik_Ionization_Penalty>
4.92589e-05

> <r_epik_Ionization_Penalty_Charging>
0

> <r_epik_Ionization_Penalty_Neutral>
4.92589e-05

> <r_epik_State_Penalty>
-0

> <r_epik_Charging_Adjusted_Penalty>
0

> <i_epik_Tot_Q>
0

> <i_epik_Tot_abs_Q>
0

> <r_epik_Metal_State_Penalty>
-0

> <b_epik_Metal_Only>
0

> <s_lp_Force_Field>
OPLS_2005

> <r_lp_Energy>
15.389

> <b_lp_Chiralities_Consistent>
1

> <s_lp_Variant>
AV-unprocessed.smi:1761-3

> <Gold.Version>
5.8.1

> <Gold.Id.Protein>
6NUR|6NUR_protein|mol2

> <Gold.PLP.Fitness>
38.2881

> <Gold.PLP.PLP>
-27.5768

> <Gold.PLP.part.hbond>
-3.0490

> <Gold.PLP.part.metal>
0.0000

> <Gold.PLP.part.buried>
-2.4059

> <Gold.PLP.part.nonpolar>
-23.1839

> <Gold.PLP.part.repulsive>
0.4533

> <Gold.PLP.ligand.clash>
0.0000

> <Gold.PLP.ligand.torsion>
0.2754

> <Gold.PLP.Chemscore.Hbond>
2.8080

> <Gold.PLP.Chemscore.CHOScore>
0.9417

> <Gold.PLP.Chemscore.Metal>
0.0000

> <Gold.Chemscore.Hbonds>
donor molecule, donor type, donor heavy atom, donor atom, acceptor molecule, acceptor atom, score
      L1  H     3    18       P1  7948  0.85
      L1  H    10    23       P1  7948  0.93
      L1  H    17    34       P1  7957  1.00
      L1  C     8    22       P1 10186  0.92

> <Gold.PLP.Chemscore.Internal.Correction>
0.0130

> <Gold.Rescore>
     Score         DG    S(hbond)    S(metal)    S(lipo)     H(rot)  DE(clash)    DE(int)     intcor
     17.49     -19.39       2.82        0.00      70.48       1.47       0.36       1.53       ----

> <Gold.Chemscore.Fitness>
17.4946

> <Gold.Chemscore.DG>
-19.3852

> <Gold.Chemscore.ZeroCoef>
-5.4800

> <Gold.Chemscore.Hbond>
2.8174

> <Gold.Chemscore.Metal>
0.0000

> <Gold.Chemscore.Lipo>
70.4803

> <Gold.Chemscore.Internal_Hbond>
0.0000

> <Gold.Chemscore.DEClash>
0.3613

> <Gold.Chemscore.DEInternal>
1.5293

> <Gold.Chemscore.Rot>
1.4653

> <Gold.Chemscore.Internal.Correction>
   9.000000E+99

> <Gold.Chemscore.Hbonds>
donor molecule, donor type, donor heavy atom, donor atom, acceptor molecule, acceptor atom, score
      L1  H     3    18       P1  7948  0.82
      L1  H    10    23       P1  7948  0.84
      L1  H    17    34       P1  7957  1.00

> <Gold.Chemscore.Hbond.Weighted>
-9.4101

> <Gold.Chemscore.Metal.Weighted>
-0.0000

> <Gold.Chemscore.Lipo.Weighted>
-8.2462

> <Gold.Chemscore.Internal_Hbond.Weighted>
0.0000

> <Gold.Chemscore.DEClash.Weighted>
0.3613

> <Gold.Chemscore.DEInternal.Weighted>
1.5293

> <Gold.Chemscore.Rot.Weighted>
3.7511

> <Gold.Chemscore.Internal.Correction.Weighted>
   9.000000E+99

> <Gold.Protein.RotatedTorsions>
[ 6907 6896 6895 6894 ] final  -25.08 input  -60.11 | X-H torsion
[ 7974 7965 7964 7962 ] final  170.93 input  175.53 | X-H torsion
[ 8008 7997 7996 7995 ] final -139.60 input   59.86 | X-H torsion
[ 10167 10162 10161 10158 ] final   56.77 input  -65.29 | X-H torsion
[ 10718 10713 10712 10709 ] final -148.01 input   66.30 | X-H torsion
[ 10763 10752 10751 10750 ] final -147.41 input  -60.55 | X-H torsion
[ 11005 11000 10999 10996 ] final   66.83 input  -57.11 | X-H torsion

> <Gold.Protein.ActiveResidues>
 VAL166  LYS551  ARG553  GLY616  TRP617  ASP618  TYR619  PRO620  LYS621  CYS622 
 ASP623  PHE694  ASN695  SER759  ASP760  ASP761  ALA762  ILE779  LEU786  VAL792 
 PHE793  MET794  SER795  GLU796  ALA797  LYS798  CYS799  TRP800  GLU811  SER814 

> <Gold.Protein.RotatedAtoms>
  151.1803  135.0358  159.8789 H   0  0  0  0  0  0  0  0  0  0  0  0  # atno 6907 bound_to 6896
  152.5445  134.1071  159.8353 H   0  0  0  0  0  0  0  0  0  0  0  0  # atno 6908 bound_to 6896
  151.1187  133.5073  159.2635 H   0  0  0  0  0  0  0  0  0  0  0  0  # atno 6909 bound_to 6896
  144.7309  139.9274  143.6423 H   0  0  0  0  0  0  0  0  0  0  0  0  # atno 7974 bound_to 7965
  155.4475  140.0536  157.3004 H   0  0  0  0  0  0  0  0  0  0  0  0  # atno 8008 bound_to 7997
  154.4791  140.2074  155.9762 H   0  0  0  0  0  0  0  0  0  0  0  0  # atno 8009 bound_to 7997
  156.1179  140.3193  155.8170 H   0  0  0  0  0  0  0  0  0  0  0  0  # atno 8010 bound_to 7997
  140.2052  144.3946  150.6512 H   0  0  0  0  0  0  0  0  0  0  0  0  # atno 10167 bound_to 10162
  156.4148  130.7999  151.2219 H   0  0  0  0  0  0  0  0  0  0  0  0  # atno 10718 bound_to 10713
  154.8287  135.3361  154.6814 H   0  0  0  0  0  0  0  0  0  0  0  0  # atno 10763 bound_to 10752
  153.7436  135.6944  153.4966 H   0  0  0  0  0  0  0  0  0  0  0  0  # atno 10764 bound_to 10752
  153.2226  135.4444  155.0457 H   0  0  0  0  0  0  0  0  0  0  0  0  # atno 10765 bound_to 10752
  139.9808  134.6748  156.0267 H   0  0  0  0  0  0  0  0  0  0  0  0  # atno 11005 bound_to 11000
  146.0883  139.3872  143.0421 LP  0  0  0  0  0  0  0  0  0  0  0  0  # atno 17320 bound_to 7965
  145.7746  140.9882  143.1131 LP  0  0  0  0  0  0  0  0  0  0  0  0  # atno 17321 bound_to 7965
  140.6362  143.2195  151.6389 LP  0  0  0  0  0  0  0  0  0  0  0  0  # atno 17342 bound_to 10162
  139.5201  144.3232  152.0892 LP  0  0  0  0  0  0  0  0  0  0  0  0  # atno 17343 bound_to 10162
  157.7507  131.0246  150.3885 LP  0  0  0  0  0  0  0  0  0  0  0  0  # atno 17370 bound_to 10713
  156.4190  130.3949  149.6838 LP  0  0  0  0  0  0  0  0  0  0  0  0  # atno 17371 bound_to 10713
  141.1480  133.6553  156.3926 LP  0  0  0  0  0  0  0  0  0  0  0  0  # atno 17394 bound_to 11000
  140.5101  134.6403  157.5281 LP  0  0  0  0  0  0  0  0  0  0  0  0  # atno 17395 bound_to 11000

$$$$
