AV-unprocessed.smi:991|AV-procd|sdf|4328|dock10
  -GOLD-   22720 2233D 1   1.00000     0.00000
 Structure written by MMmdl.
 32 33  0  0  0  0  0  0  0  0  1 V2000
  151.6943  141.3582  156.9046 O   0  0  0  0  0  0  0  0  0  0  0  0
  150.7233  142.1138  156.8726 C   0  0  0  0  0  0  0  0  0  0  0  0
  149.3670  141.5950  156.3931 C   0  0  0  0  0  0  0  0  0  0  0  0
  149.5094  140.3527  155.6554 N   0  0  0  0  0  0  0  0  0  0  0  0
  149.1130  139.1144  155.9557 C   0  0  0  0  0  0  0  0  0  0  0  0
  149.4240  138.2144  155.0331 N   0  0  0  0  0  0  0  0  0  0  0  0
  150.0525  139.0228  154.1281 C   0  0  0  0  0  0  0  0  0  0  0  0
  150.1308  140.3135  154.4527 N   0  0  0  0  0  0  0  0  0  0  0  0
  150.7754  143.4022  157.2479 N   0  0  0  0  0  0  0  0  0  0  0  0
  151.9645  144.0849  157.7536 C   0  0  0  0  0  0  0  0  0  0  0  0
  151.8401  144.5122  159.2279 C   0  0  0  0  0  0  0  0  0  0  0  0
  151.2979  145.5815  159.5139 O   0  0  0  0  0  0  0  0  0  0  0  0
  152.3489  143.6945  160.1726 N   0  0  0  0  0  0  0  0  0  0  0  0
  152.3115  143.9278  161.6160 C   0  0  0  0  0  0  0  0  0  0  0  0
  152.8053  142.6308  162.2583 C   0  0  0  0  0  0  0  0  0  0  0  0
  153.6695  141.9874  161.1827 C   0  0  0  0  0  0  0  0  0  0  0  0
  153.0255  142.4348  159.8706 C   0  0  0  0  0  0  0  0  0  0  0  0
  148.7100  141.4209  157.2465 H   0  0  0  0  0  0  0  0  0  0  0  0
  148.8844  142.3435  155.7625 H   0  0  0  0  0  0  0  0  0  0  0  0
  148.5901  138.8669  156.8681 H   0  0  0  0  0  0  0  0  0  0  0  0
  150.4648  138.6490  153.2023 H   0  0  0  0  0  0  0  0  0  0  0  0
  149.9267  143.9468  157.1906 H   0  0  0  0  0  0  0  0  0  0  0  0
  152.8367  143.4438  157.6167 H   0  0  0  0  0  0  0  0  0  0  0  0
  152.1283  144.9745  157.1449 H   0  0  0  0  0  0  0  0  0  0  0  0
  152.9824  144.7520  161.8622 H   0  0  0  0  0  0  0  0  0  0  0  0
  151.3110  144.1836  161.9680 H   0  0  0  0  0  0  0  0  0  0  0  0
  153.3451  142.7991  163.1908 H   0  0  0  0  0  0  0  0  0  0  0  0
  151.9550  141.9834  162.4767 H   0  0  0  0  0  0  0  0  0  0  0  0
  154.6844  142.3831  161.2453 H   0  0  0  0  0  0  0  0  0  0  0  0
  153.7279  140.9025  161.2772 H   0  0  0  0  0  0  0  0  0  0  0  0
  152.2850  141.7057  159.5382 H   0  0  0  0  0  0  0  0  0  0  0  0
  153.7704  142.5460  159.0807 H   0  0  0  0  0  0  0  0  0  0  0  0
  1  2  2  0  0  0  0
  2  3  1  0  0  0  0
  2  9  1  0  0  0  0
  3  4  1  0  0  0  0
  3 18  1  0  0  0  0
  3 19  1  0  0  0  0
  4  8  1  0  0  0  0
  4  5  1  0  0  0  0
  5  6  2  0  0  0  0
  5 20  1  0  0  0  0
  6  7  1  0  0  0  0
  7  8  2  0  0  0  0
  7 21  1  0  0  0  0
  9 10  1  0  0  0  0
  9 22  1  0  0  0  0
 10 11  1  0  0  0  0
 10 23  1  0  0  0  0
 10 24  1  0  0  0  0
 11 12  2  0  0  0  0
 11 13  1  0  0  0  0
 13 17  1  0  0  0  0
 13 14  1  0  0  0  0
 14 15  1  0  0  0  0
 14 25  1  0  0  0  0
 14 26  1  0  0  0  0
 15 16  1  0  0  0  0
 15 27  1  0  0  0  0
 15 28  1  0  0  0  0
 16 17  1  0  0  0  0
 16 29  1  0  0  0  0
 16 30  1  0  0  0  0
 17 31  1  0  0  0  0
 17 32  1  0  0  0  0
M  END
> <s_m_source_file>
AV-unprocessed.smi

> <i_m_source_file_index>
991

> <i_lp_mmshare_version>
43012

> <i_f3d_flags>
0

> <s_epik_input>
bjFbY0hdbltjSF1uMVtDSDJdQyg9TylbTkhdW0NIMl1DKD1PKU4yW0NIMl1bQ0gyXVtDSDJdW0NIMl0y

> <s_epik_cmdline>
J2VwaWtfcHl0aG9uJywgJy1waCcsICc3LjAnLCAnLXRuJywgJzgnLCAnLW1hJywgJzIwMCcsICctbWV0YWxfYmluZGluZycsICctaW1hZScsICc8aW5maWxlLm1hZT4nLCAnLW9tYWUnLCAnPG91dGZpbGUubWFlPic=

> <r_lp_tautomer_probability>
1

> <r_epik_Ionization_Penalty>
7.3183e-06

> <r_epik_Ionization_Penalty_Charging>
0

> <r_epik_Ionization_Penalty_Neutral>
7.3183e-06

> <r_epik_State_Penalty>
-0

> <r_epik_Charging_Adjusted_Penalty>
0

> <i_epik_Tot_Q>
0

> <i_epik_Tot_abs_Q>
0

> <r_epik_Metal_State_Penalty>
-0

> <b_epik_Metal_Only>
0

> <s_lp_Force_Field>
OPLS_2005

> <r_lp_Energy>
26.0119

> <b_lp_Chiralities_Consistent>
1

> <s_lp_Variant>
AV-unprocessed.smi:991-1

> <Gold.Version>
5.8.1

> <Gold.Id.Protein>
6NUR|6NUR_protein|mol2

> <Gold.PLP.Fitness>
46.2179

> <Gold.PLP.PLP>
-40.6839

> <Gold.PLP.part.hbond>
-2.7096

> <Gold.PLP.part.metal>
0.0000

> <Gold.PLP.part.buried>
-3.3654

> <Gold.PLP.part.nonpolar>
-34.7178

> <Gold.PLP.part.repulsive>
0.4335

> <Gold.PLP.ligand.clash>
0.0000

> <Gold.PLP.ligand.torsion>
0.6518

> <Gold.PLP.Chemscore.Hbond>
1.6160

> <Gold.PLP.Chemscore.CHOScore>
0.6613

> <Gold.PLP.Chemscore.Metal>
0.0000

> <Gold.Chemscore.Hbonds>
donor molecule, donor type, donor heavy atom, donor atom, acceptor molecule, acceptor atom, score
      L1  H     9    22       P1  8028  0.69
      P1  H  7989  7998       L1     8  0.98
      L1  C     7    21       P1  7957  0.54

> <Gold.PLP.Chemscore.Internal.Correction>
0.0057

> <Gold.Rescore>
     Score         DG    S(hbond)    S(metal)    S(lipo)     H(rot)  DE(clash)    DE(int)     intcor
     11.43     -13.17       1.92        0.00      66.36       2.54       0.24       1.49       ----

> <Gold.Chemscore.Fitness>
11.4350

> <Gold.Chemscore.DG>
-13.1698

> <Gold.Chemscore.ZeroCoef>
-5.4800

> <Gold.Chemscore.Hbond>
1.9219

> <Gold.Chemscore.Metal>
0.0000

> <Gold.Chemscore.Lipo>
66.3616

> <Gold.Chemscore.Internal_Hbond>
0.0000

> <Gold.Chemscore.DEClash>
0.2435

> <Gold.Chemscore.DEInternal>
1.4913

> <Gold.Chemscore.Rot>
2.5366

> <Gold.Chemscore.Internal.Correction>
   9.000000E+99

> <Gold.Chemscore.Hbonds>
donor molecule, donor type, donor heavy atom, donor atom, acceptor molecule, acceptor atom, score
      L1  H     9    22       P1  8028  0.56
      P1  H  7989  7998       L1     8  0.32

> <Gold.Chemscore.Hbond.Weighted>
-6.4192

> <Gold.Chemscore.Metal.Weighted>
-0.0000

> <Gold.Chemscore.Lipo.Weighted>
-7.7643

> <Gold.Chemscore.Internal_Hbond.Weighted>
0.0000

> <Gold.Chemscore.DEClash.Weighted>
0.2435

> <Gold.Chemscore.DEInternal.Weighted>
1.4913

> <Gold.Chemscore.Rot.Weighted>
6.4937

> <Gold.Chemscore.Internal.Correction.Weighted>
   9.000000E+99

> <Gold.Protein.RotatedTorsions>
[ 6907 6896 6895 6894 ] final -131.44 input  -60.11 | X-H torsion
[ 7974 7965 7964 7962 ] final  157.79 input  175.53 | X-H torsion
[ 8008 7997 7996 7995 ] final  -43.07 input   59.86 | X-H torsion
[ 10167 10162 10161 10158 ] final  -77.48 input  -65.29 | X-H torsion
[ 10718 10713 10712 10709 ] final -120.04 input   66.30 | X-H torsion
[ 10763 10752 10751 10750 ] final  -55.82 input  -60.55 | X-H torsion
[ 11005 11000 10999 10996 ] final   15.08 input  -57.11 | X-H torsion

> <Gold.Protein.ActiveResidues>
 VAL166  LYS551  ARG553  GLY616  TRP617  ASP618  TYR619  PRO620  LYS621  CYS622 
 ASP623  PHE694  ASN695  SER759  ASP760  ASP761  ALA762  ILE779  LEU786  VAL792 
 PHE793  MET794  SER795  GLU796  ALA797  LYS798  CYS799  TRP800  GLU811  SER814 

> <Gold.Protein.RotatedAtoms>
  150.9510  133.6549  159.2771 H   0  0  0  0  0  0  0  0  0  0  0  0  # atno 6907 bound_to 6896
  151.3905  135.0954  159.9534 H   0  0  0  0  0  0  0  0  0  0  0  0  # atno 6908 bound_to 6896
  152.5110  133.9025  159.7503 H   0  0  0  0  0  0  0  0  0  0  0  0  # atno 6909 bound_to 6896
  144.7883  139.7389  143.6232 H   0  0  0  0  0  0  0  0  0  0  0  0  # atno 7974 bound_to 7965
  154.3997  140.1457  156.3459 H   0  0  0  0  0  0  0  0  0  0  0  0  # atno 8008 bound_to 7997
  155.8313  140.3465  155.5553 H   0  0  0  0  0  0  0  0  0  0  0  0  # atno 8009 bound_to 7997
  155.8185  140.0894  157.1853 H   0  0  0  0  0  0  0  0  0  0  0  0  # atno 8010 bound_to 7997
  140.4766  143.2412  151.8122 H   0  0  0  0  0  0  0  0  0  0  0  0  # atno 10167 bound_to 10162
  156.1227  130.6335  150.9491 H   0  0  0  0  0  0  0  0  0  0  0  0  # atno 10718 bound_to 10713
  154.1969  135.6418  153.5076 H   0  0  0  0  0  0  0  0  0  0  0  0  # atno 10763 bound_to 10752
  153.0021  135.5442  154.6356 H   0  0  0  0  0  0  0  0  0  0  0  0  # atno 10764 bound_to 10752
  154.5759  135.2921  155.0754 H   0  0  0  0  0  0  0  0  0  0  0  0  # atno 10765 bound_to 10752
  140.4623  134.1115  155.7718 H   0  0  0  0  0  0  0  0  0  0  0  0  # atno 11005 bound_to 11000
  146.2124  139.5489  142.9672 LP  0  0  0  0  0  0  0  0  0  0  0  0  # atno 17320 bound_to 7965
  145.5863  141.0376  143.2094 LP  0  0  0  0  0  0  0  0  0  0  0  0  # atno 17321 bound_to 7965
  139.4826  144.4825  151.9289 LP  0  0  0  0  0  0  0  0  0  0  0  0  # atno 17342 bound_to 10162
  140.3910  144.2615  150.5900 LP  0  0  0  0  0  0  0  0  0  0  0  0  # atno 17343 bound_to 10162
  157.6410  131.0910  150.8251 LP  0  0  0  0  0  0  0  0  0  0  0  0  # atno 17370 bound_to 10713
  156.8346  130.5027  149.5328 LP  0  0  0  0  0  0  0  0  0  0  0  0  # atno 17371 bound_to 10713
  141.1616  133.8783  157.1833 LP  0  0  0  0  0  0  0  0  0  0  0  0  # atno 17394 bound_to 11000
  139.9938  135.0055  157.0035 LP  0  0  0  0  0  0  0  0  0  0  0  0  # atno 17395 bound_to 11000

$$$$
