AV-unprocessed.smi:2134|AV-procd|sdf|8697|dock4
  -GOLD-   2272011453D 1   1.00000     0.00000
 Structure written by MMmdl.
 35 36  0  0  0  0  0  0  0  0  3 V2000
  151.2545  144.2966  159.2059 C   0  0  0  0  0  0  0  0  0  0  0  0
  151.9286  143.3121  160.0516 N   0  0  0  0  0  0  0  0  0  0  0  0
  152.3213  142.1791  159.3707 N   0  0  0  0  0  0  0  0  0  0  0  0
  153.1316  141.3052  159.8823 C   0  0  0  0  0  0  0  0  0  0  0  0
  153.5418  140.1198  159.0725 C   0  0  0  0  0  0  0  0  0  0  0  0
  154.1299  139.2296  159.6980 O   0  0  0  0  0  0  0  0  0  0  0  0
  153.2559  140.1139  157.7365 N   0  5  0  0  0  0  0  0  0  0  0  0
  151.9281  139.9166  157.1548 C   0  0  0  0  0  0  0  0  0  0  0  0
  152.0110  140.0281  155.6166 C   0  0  0  0  0  0  0  0  0  0  0  0
  150.6636  139.9367  154.9068 C   0  0  0  0  0  0  0  0  0  0  0  0
  149.6480  140.8895  155.1522 C   0  0  0  0  0  0  0  0  0  0  0  0
  148.4103  140.7714  154.4863 C   0  0  0  0  0  0  0  0  0  0  0  0
  148.2136  139.7039  153.5866 C   0  0  0  0  0  0  0  0  0  0  0  0
  149.2072  138.8146  153.3705 N   0  3  0  0  0  0  0  0  0  0  0  0
  150.4069  138.8951  153.9851 C   0  0  0  0  0  0  0  0  0  0  0  0
  153.6943  141.5085  161.2768 C   0  0  0  0  0  0  0  0  0  0  0  0
  152.7620  142.3616  162.1586 C   0  0  0  0  0  0  0  0  0  0  0  0
  152.1190  143.5131  161.3806 C   0  0  0  0  0  0  0  0  0  0  0  0
  151.7891  144.5371  161.9788 O   0  0  0  0  0  0  0  0  0  0  0  0
  150.8907  145.1699  159.7486 H   0  0  0  0  0  0  0  0  0  0  0  0
  150.3956  143.8413  158.7112 H   0  0  0  0  0  0  0  0  0  0  0  0
  151.9365  144.6518  158.4325 H   0  0  0  0  0  0  0  0  0  0  0  0
  151.5063  138.9439  157.4118 H   0  0  0  0  0  0  0  0  0  0  0  0
  151.2191  140.6580  157.5238 H   0  0  0  0  0  0  0  0  0  0  0  0
  152.4773  140.9775  155.3518 H   0  0  0  0  0  0  0  0  0  0  0  0
  152.6712  139.2535  155.2236 H   0  0  0  0  0  0  0  0  0  0  0  0
  149.8132  141.6976  155.8500 H   0  0  0  0  0  0  0  0  0  0  0  0
  147.6220  141.4870  154.6677 H   0  0  0  0  0  0  0  0  0  0  0  0
  147.2982  139.5348  153.0389 H   0  0  0  0  0  0  0  0  0  0  0  0
  151.1173  138.1188  153.7396 H   0  0  0  0  0  0  0  0  0  0  0  0
  153.8491  140.5506  161.7742 H   0  0  0  0  0  0  0  0  0  0  0  0
  154.6746  141.9807  161.2037 H   0  0  0  0  0  0  0  0  0  0  0  0
  151.9557  141.7395  162.5486 H   0  0  0  0  0  0  0  0  0  0  0  0
  153.3057  142.7483  163.0211 H   0  0  0  0  0  0  0  0  0  0  0  0
  149.0444  138.0469  152.7189 H   0  0  0  0  0  0  0  0  0  0  0  0
  1  2  1  0  0  0  0
  1 20  1  0  0  0  0
  1 21  1  0  0  0  0
  1 22  1  0  0  0  0
  2 18  1  0  0  0  0
  2  3  1  0  0  0  0
  3  4  2  0  0  0  0
  4  5  1  0  0  0  0
  4 16  1  0  0  0  0
  5  6  2  0  0  0  0
  5  7  1  0  0  0  0
  7  8  1  0  0  0  0
  8  9  1  0  0  0  0
  8 23  1  0  0  0  0
  8 24  1  0  0  0  0
  9 10  1  0  0  0  0
  9 25  1  0  0  0  0
  9 26  1  0  0  0  0
 10 15  1  0  0  0  0
 10 11  2  0  0  0  0
 11 12  1  0  0  0  0
 11 27  1  0  0  0  0
 12 13  2  0  0  0  0
 12 28  1  0  0  0  0
 13 14  1  0  0  0  0
 13 29  1  0  0  0  0
 14 15  2  0  0  0  0
 14 35  1  0  0  0  0
 15 30  1  0  0  0  0
 16 17  1  0  0  0  0
 16 31  1  0  0  0  0
 16 32  1  0  0  0  0
 17 18  1  0  0  0  0
 17 33  1  0  0  0  0
 17 34  1  0  0  0  0
 18 19  2  0  0  0  0
M  CHG  1   7  -1
M  CHG  1  14   1
M  END
> <s_m_source_file>
AV-unprocessed.smi

> <i_m_source_file_index>
2134

> <i_lp_mmshare_version>
43012

> <i_f3d_flags>
0

> <s_epik_input>
Tz1DMVtDSDJdW0NIMl1DKD1OTjFbQ0gzXSlDKD1PKVtOSF1bQ0gyXVtDSDJdYzJbY0hdW2NIXVtjSF1uW2NIXTI=

> <s_epik_cmdline>
J2VwaWtfcHl0aG9uJywgJy1waCcsICc3LjAnLCAnLXRuJywgJzgnLCAnLW1hJywgJzIwMCcsICctbWV0YWxfYmluZGluZycsICctaW1hZScsICc8aW5maWxlLm1hZT4nLCAnLW9tYWUnLCAnPG91dGZpbGUubWFlPic=

> <r_epik_Ionization_Penalty>
7.05425

> <r_epik_Ionization_Penalty_Charging>
7.05425

> <r_epik_Ionization_Penalty_Neutral>
3.33049e-09

> <r_epik_State_Penalty>
7.67337

> <r_epik_Charging_Adjusted_Penalty>
14.7276

> <i_epik_Tot_Q>
0

> <i_epik_Tot_abs_Q>
2

> <r_epik_Metal_State_Penalty>
3.75463

> <b_epik_Metal_Only>
1

> <s_epik_Chemistry_Notes>
This compound has an imine and may undergo hydrolysis.

> <s_lp_Force_Field>
OPLS_2005

> <r_lp_Energy>
23.3893

> <b_lp_Chiralities_Consistent>
1

> <s_lp_Variant>
AV-unprocessed.smi:2134-4

> <Gold.Version>
5.8.1

> <Gold.Id.Protein>
6NUR|6NUR_protein|mol2

> <Gold.PLP.Fitness>
53.6764

> <Gold.PLP.PLP>
-43.1818

> <Gold.PLP.part.hbond>
-3.0000

> <Gold.PLP.part.metal>
0.0000

> <Gold.PLP.part.buried>
-0.1509

> <Gold.PLP.part.nonpolar>
-40.9462

> <Gold.PLP.part.repulsive>
2.1032

> <Gold.PLP.ligand.clash>
0.0000

> <Gold.PLP.ligand.torsion>
0.7702

> <Gold.PLP.Chemscore.Hbond>
4.0000

> <Gold.PLP.Chemscore.CHOScore>
0.0000

> <Gold.PLP.Chemscore.Metal>
0.0000

> <Gold.Chemscore.Hbonds>
donor molecule, donor type, donor heavy atom, donor atom, acceptor molecule, acceptor atom, score
      L1  H    14    35       P1  7948  2.00
      P1  H  7997  8010       L1     7  1.85

> <Gold.PLP.Chemscore.Internal.Correction>
0.0350

> <Gold.Rescore>
     Score         DG    S(hbond)    S(metal)    S(lipo)     H(rot)  DE(clash)    DE(int)     intcor
     16.21     -18.59       1.85        0.00      91.86       1.49       1.62       0.75       ----

> <Gold.Chemscore.Fitness>
16.2149

> <Gold.Chemscore.DG>
-18.5879

> <Gold.Chemscore.ZeroCoef>
-5.4800

> <Gold.Chemscore.Hbond>
1.8451

> <Gold.Chemscore.Metal>
0.0000

> <Gold.Chemscore.Lipo>
91.8621

> <Gold.Chemscore.Internal_Hbond>
0.0000

> <Gold.Chemscore.DEClash>
1.6199

> <Gold.Chemscore.DEInternal>
0.7531

> <Gold.Chemscore.Rot>
1.4854

> <Gold.Chemscore.Internal.Correction>
   9.000000E+99

> <Gold.Chemscore.Hbonds>
donor molecule, donor type, donor heavy atom, donor atom, acceptor molecule, acceptor atom, score
      L1  H    14    35       P1  7948  0.97
      P1  H  7997  8010       L1     7  0.54

> <Gold.Chemscore.Hbond.Weighted>
-6.1626

> <Gold.Chemscore.Metal.Weighted>
-0.0000

> <Gold.Chemscore.Lipo.Weighted>
-10.7479

> <Gold.Chemscore.Internal_Hbond.Weighted>
0.0000

> <Gold.Chemscore.DEClash.Weighted>
1.6199

> <Gold.Chemscore.DEInternal.Weighted>
0.7531

> <Gold.Chemscore.Rot.Weighted>
3.8026

> <Gold.Chemscore.Internal.Correction.Weighted>
   9.000000E+99

> <Gold.Protein.RotatedTorsions>
[ 6907 6896 6895 6894 ] final    0.88 input  -60.11 | X-H torsion
[ 7974 7965 7964 7962 ] final -153.33 input  175.53 | X-H torsion
[ 8008 7997 7996 7995 ] final   37.79 input   59.86 | X-H torsion
[ 10167 10162 10161 10158 ] final  165.28 input  -65.29 | X-H torsion
[ 10718 10713 10712 10709 ] final  134.40 input   66.30 | X-H torsion
[ 10763 10752 10751 10750 ] final  170.31 input  -60.55 | X-H torsion
[ 11005 11000 10999 10996 ] final  169.79 input  -57.11 | X-H torsion

> <Gold.Protein.ActiveResidues>
 VAL166  LYS551  ARG553  GLY616  TRP617  ASP618  TYR619  PRO620  LYS621  CYS622 
 ASP623  PHE694  ASN695  SER759  ASP760  ASP761  ALA762  ILE779  LEU786  VAL792 
 PHE793  MET794  SER795  GLU796  ALA797  LYS798  CYS799  TRP800  GLU811  SER814 

> <Gold.Protein.RotatedAtoms>
  151.5836  135.1057  160.0022 H   0  0  0  0  0  0  0  0  0  0  0  0  # atno 6907 bound_to 6896
  152.4342  133.7326  159.6607 H   0  0  0  0  0  0  0  0  0  0  0  0  # atno 6908 bound_to 6896
  150.8237  133.8138  159.3150 H   0  0  0  0  0  0  0  0  0  0  0  0  # atno 6909 bound_to 6896
  144.7746  140.4540  143.5882 H   0  0  0  0  0  0  0  0  0  0  0  0  # atno 7974 bound_to 7965
  155.2095  140.3322  155.4331 H   0  0  0  0  0  0  0  0  0  0  0  0  # atno 8008 bound_to 7997
  156.2376  140.1879  156.7126 H   0  0  0  0  0  0  0  0  0  0  0  0  # atno 8009 bound_to 7997
  154.6087  140.0612  156.9451 H   0  0  0  0  0  0  0  0  0  0  0  0  # atno 8010 bound_to 7997
  139.4903  144.4148  151.9256 H   0  0  0  0  0  0  0  0  0  0  0  0  # atno 10167 bound_to 10162
  157.4676  131.1078  150.9843 H   0  0  0  0  0  0  0  0  0  0  0  0  # atno 10718 bound_to 10713
  154.3957  135.2754  155.2127 H   0  0  0  0  0  0  0  0  0  0  0  0  # atno 10763 bound_to 10752
  154.4174  135.6008  153.5993 H   0  0  0  0  0  0  0  0  0  0  0  0  # atno 10764 bound_to 10752
  152.9831  135.5964  154.4218 H   0  0  0  0  0  0  0  0  0  0  0  0  # atno 10765 bound_to 10752
  140.3015  134.7591  157.3920 H   0  0  0  0  0  0  0  0  0  0  0  0  # atno 11005 bound_to 11000
  145.6223  139.1525  143.3016 LP  0  0  0  0  0  0  0  0  0  0  0  0  # atno 17320 bound_to 7965
  146.1917  140.6332  142.9142 LP  0  0  0  0  0  0  0  0  0  0  0  0  # atno 17321 bound_to 7965
  140.3591  144.2995  150.5936 LP  0  0  0  0  0  0  0  0  0  0  0  0  # atno 17342 bound_to 10162
  140.5419  143.2222  151.8071 LP  0  0  0  0  0  0  0  0  0  0  0  0  # atno 17343 bound_to 10162
  157.0619  130.5829  149.5387 LP  0  0  0  0  0  0  0  0  0  0  0  0  # atno 17370 bound_to 10713
  156.0058  130.5144  150.7823 LP  0  0  0  0  0  0  0  0  0  0  0  0  # atno 17371 bound_to 10713
  140.1105  134.5352  155.8270 LP  0  0  0  0  0  0  0  0  0  0  0  0  # atno 17394 bound_to 11000
  141.2127  133.6723  156.6680 LP  0  0  0  0  0  0  0  0  0  0  0  0  # atno 17395 bound_to 11000

$$$$
