AV-unprocessed.smi:2822|AV-procd|sdf|10872|dock7
  -GOLD-   2272015313D 1   1.00000     0.00000
 Structure written by MMmdl.
 40 42  0  0  0  0  0  0  0  0  2 V2000
  147.6106  133.5243  153.1021 Cl  0  0  0  0  0  0  0  0  0  0  0  0
  146.2867  134.1486  152.1808 C   0  0  0  0  0  0  0  0  0  0  0  0
  145.5062  133.2741  151.3970 C   0  0  0  0  0  0  0  0  0  0  0  0
  144.4588  133.6796  150.6489 N   0  0  0  0  0  0  0  0  0  0  0  0
  144.1508  134.9931  150.6596 C   0  0  0  0  0  0  0  0  0  0  0  0
  144.8643  135.9514  151.4066 C   0  0  0  0  0  0  0  0  0  0  0  0
  145.9633  135.5251  152.1894 C   0  0  0  0  0  0  0  0  0  0  0  0
  146.7281  136.4120  152.9631 N   0  0  0  0  0  0  0  0  0  0  0  0
  146.1551  137.6619  153.4387 C   0  0  0  0  0  0  0  0  0  0  0  0
  147.1099  138.8438  153.2196 C   0  0  2  0  0  0  0  0  0  0  0  0
  148.4564  138.6232  153.9332 C   0  0  0  0  0  0  0  0  0  0  0  0
  149.3303  139.8131  153.7815 N   0  3  2  0  0  0  0  0  0  0  0  0
  150.6745  139.6550  154.3959 C   0  0  0  0  0  0  0  0  0  0  0  0
  150.6302  139.7652  155.9320 C   0  0  0  0  0  0  0  0  0  0  0  0
  149.9565  141.0718  156.3727 C   0  0  0  0  0  0  0  0  0  0  0  0
  148.5684  141.2021  155.7292 C   0  0  0  0  0  0  0  0  0  0  0  0
  148.6524  141.0738  154.1920 C   0  0  2  0  0  0  0  0  0  0  0  0
  147.2742  141.1835  153.5100 C   0  0  0  0  0  0  0  0  0  0  0  0
  146.5049  140.0137  153.7604 O   0  0  0  0  0  0  0  0  0  0  0  0
  145.7294  132.2176  151.3691 H   0  0  0  0  0  0  0  0  0  0  0  0
  143.3076  135.2912  150.0542 H   0  0  0  0  0  0  0  0  0  0  0  0
  144.5565  136.9855  151.3677 H   0  0  0  0  0  0  0  0  0  0  0  0
  147.7340  136.3176  152.9530 H   0  0  0  0  0  0  0  0  0  0  0  0
  145.2044  137.8487  152.9374 H   0  0  0  0  0  0  0  0  0  0  0  0
  145.9465  137.5586  154.5042 H   0  0  0  0  0  0  0  0  0  0  0  0
  147.2810  138.9738  152.1490 H   0  0  0  0  0  0  0  0  0  0  0  0
  148.2844  138.4091  154.9884 H   0  0  0  0  0  0  0  0  0  0  0  0
  148.9591  137.7514  153.5124 H   0  0  0  0  0  0  0  0  0  0  0  0
  151.1137  138.7037  154.0932 H   0  0  0  0  0  0  0  0  0  0  0  0
  151.3255  140.4338  153.9972 H   0  0  0  0  0  0  0  0  0  0  0  0
  150.0958  138.9144  156.3553 H   0  0  0  0  0  0  0  0  0  0  0  0
  151.6421  139.7173  156.3350 H   0  0  0  0  0  0  0  0  0  0  0  0
  149.8723  141.1037  157.4594 H   0  0  0  0  0  0  0  0  0  0  0  0
  150.5774  141.9205  156.0829 H   0  0  0  0  0  0  0  0  0  0  0  0
  147.9017  140.4427  156.1393 H   0  0  0  0  0  0  0  0  0  0  0  0
  148.1325  142.1649  155.9982 H   0  0  0  0  0  0  0  0  0  0  0  0
  149.2645  141.9005  153.8281 H   0  0  0  0  0  0  0  0  0  0  0  0
  146.7321  142.0534  153.8819 H   0  0  0  0  0  0  0  0  0  0  0  0
  147.3877  141.3246  152.4338 H   0  0  0  0  0  0  0  0  0  0  0  0
  149.4903  139.8969  152.7876 H   0  0  0  0  0  0  0  0  0  0  0  0
  1  2  1  0  0  0  0
  2  7  1  0  0  0  0
  2  3  2  0  0  0  0
  3  4  1  0  0  0  0
  3 20  1  0  0  0  0
  4  5  2  0  0  0  0
  5  6  1  0  0  0  0
  5 21  1  0  0  0  0
  6  7  2  0  0  0  0
  6 22  1  0  0  0  0
  7  8  1  0  0  0  0
  8  9  1  0  0  0  0
  8 23  1  0  0  0  0
  9 10  1  0  0  0  0
  9 24  1  0  0  0  0
  9 25  1  0  0  0  0
 10 19  1  0  0  0  0
 10 11  1  0  0  0  0
 10 26  1  0  0  0  0
 11 12  1  0  0  0  0
 11 27  1  0  0  0  0
 11 28  1  0  0  0  0
 12 17  1  0  0  0  0
 12 13  1  0  0  0  0
 12 40  1  0  0  0  0
 13 14  1  0  0  0  0
 13 29  1  0  0  0  0
 13 30  1  0  0  0  0
 14 15  1  0  0  0  0
 14 31  1  0  0  0  0
 14 32  1  0  0  0  0
 15 16  1  0  0  0  0
 15 33  1  0  0  0  0
 15 34  1  0  0  0  0
 16 17  1  0  0  0  0
 16 35  1  0  0  0  0
 16 36  1  0  0  0  0
 17 18  1  0  0  0  0
 17 37  1  0  0  0  0
 18 19  1  0  0  0  0
 18 38  1  0  0  0  0
 18 39  1  0  0  0  0
M  CHG  1  12   1
M  END
> <s_m_source_file>
AV-unprocessed.smi

> <i_m_source_file_index>
2822

> <i_lp_mmshare_version>
43012

> <i_f3d_flags>
0

> <s_epik_input>
Q2xjMVtjSF1uW2NIXVtjSF1jMVtOSF1bQ0gyXVtDQEhdKFtDSDJdMilPW0NIMl1bQ0BASF0oTjIzKVtDSDJdW0NIMl1bQ0gyXVtDSDJdMw==

> <s_epik_cmdline>
J2VwaWtfcHl0aG9uJywgJy1waCcsICc3LjAnLCAnLXRuJywgJzgnLCAnLW1hJywgJzIwMCcsICctbWV0YWxfYmluZGluZycsICctaW1hZScsICc8aW5maWxlLm1hZT4nLCAnLW9tYWUnLCAnPG91dGZpbGUubWFlPic=

> <r_lp_tautomer_probability>
0.999999

> <r_epik_Ionization_Penalty>
0.88937

> <r_epik_Ionization_Penalty_Charging>
0.0803403

> <r_epik_Ionization_Penalty_Neutral>
0.80903

> <r_epik_State_Penalty>
0.931884

> <r_epik_Charging_Adjusted_Penalty>
1.01222

> <i_epik_Tot_Q>
1

> <i_epik_Tot_abs_Q>
1

> <r_epik_Metal_State_Penalty>
0.0782275

> <b_epik_Metal_Only>
0

> <s_lp_Force_Field>
OPLS_2005

> <r_lp_Energy>
31.6827

> <b_lp_Chiralities_Consistent>
1

> <s_lp_Variant>
AV-unprocessed.smi:2822-13

> <Gold.Version>
5.8.1

> <Gold.Id.Protein>
6NUR|6NUR_protein|mol2

> <Gold.PLP.Fitness>
37.3813

> <Gold.PLP.PLP>
-29.5738

> <Gold.PLP.part.hbond>
-1.8019

> <Gold.PLP.part.metal>
0.0000

> <Gold.PLP.part.buried>
-0.8083

> <Gold.PLP.part.nonpolar>
-27.7036

> <Gold.PLP.part.repulsive>
0.4586

> <Gold.PLP.ligand.clash>
0.0000

> <Gold.PLP.ligand.torsion>
0.2250

> <Gold.PLP.Chemscore.Hbond>
1.7520

> <Gold.PLP.Chemscore.CHOScore>
1.0000

> <Gold.PLP.Chemscore.Metal>
0.0000

> <Gold.Chemscore.Hbonds>
donor molecule, donor type, donor heavy atom, donor atom, acceptor molecule, acceptor atom, score
      L1  H     8    23       P1  7948  0.77
      L1  H    12    40       P1  7957  1.00
      L1  C     5    21       P1 10186  0.95

> <Gold.PLP.Chemscore.Internal.Correction>
0.0015

> <Gold.Rescore>
     Score         DG    S(hbond)    S(metal)    S(lipo)     H(rot)  DE(clash)    DE(int)     intcor
     17.98     -18.76       1.97        0.00      82.83       1.17       0.43       0.35       ----

> <Gold.Chemscore.Fitness>
17.9837

> <Gold.Chemscore.DG>
-18.7572

> <Gold.Chemscore.ZeroCoef>
-5.4800

> <Gold.Chemscore.Hbond>
1.9699

> <Gold.Chemscore.Metal>
0.0000

> <Gold.Chemscore.Lipo>
82.8295

> <Gold.Chemscore.Internal_Hbond>
0.0000

> <Gold.Chemscore.DEClash>
0.4276

> <Gold.Chemscore.DEInternal>
0.3459

> <Gold.Chemscore.Rot>
1.1693

> <Gold.Chemscore.Internal.Correction>
   9.000000E+99

> <Gold.Chemscore.Hbonds>
donor molecule, donor type, donor heavy atom, donor atom, acceptor molecule, acceptor atom, score
      L1  H     8    23       P1  7948  0.75
      L1  H    12    40       P1  7957  1.00

> <Gold.Chemscore.Hbond.Weighted>
-6.5795

> <Gold.Chemscore.Metal.Weighted>
-0.0000

> <Gold.Chemscore.Lipo.Weighted>
-9.6911

> <Gold.Chemscore.Internal_Hbond.Weighted>
0.0000

> <Gold.Chemscore.DEClash.Weighted>
0.4276

> <Gold.Chemscore.DEInternal.Weighted>
0.3459

> <Gold.Chemscore.Rot.Weighted>
2.9934

> <Gold.Chemscore.Internal.Correction.Weighted>
   9.000000E+99

> <Gold.Protein.RotatedTorsions>
[ 6907 6896 6895 6894 ] final  -41.02 input  -60.11 | X-H torsion
[ 7974 7965 7964 7962 ] final  -25.75 input  175.53 | X-H torsion
[ 8008 7997 7996 7995 ] final -128.22 input   59.86 | X-H torsion
[ 10167 10162 10161 10158 ] final -131.56 input  -65.29 | X-H torsion
[ 10718 10713 10712 10709 ] final  -42.45 input   66.30 | X-H torsion
[ 10763 10752 10751 10750 ] final  -74.70 input  -60.55 | X-H torsion
[ 11005 11000 10999 10996 ] final  152.58 input  -57.11 | X-H torsion

> <Gold.Protein.ActiveResidues>
 VAL166  LYS551  ARG553  GLY616  TRP617  ASP618  TYR619  PRO620  LYS621  CYS622 
 ASP623  PHE694  ASN695  SER759  ASP760  ASP761  ALA762  ILE779  LEU786  VAL792 
 PHE793  MET794  SER795  GLU796  ALA797  LYS798  CYS799  TRP800  GLU811  SER814 

> <Gold.Protein.RotatedAtoms>
  150.9716  134.9088  159.7790 H   0  0  0  0  0  0  0  0  0  0  0  0  # atno 6907 bound_to 6896
  152.5192  134.3533  159.9269 H   0  0  0  0  0  0  0  0  0  0  0  0  # atno 6908 bound_to 6896
  151.3542  133.3873  159.2718 H   0  0  0  0  0  0  0  0  0  0  0  0  # atno 6909 bound_to 6896
  146.1470  140.4928  142.8627 H   0  0  0  0  0  0  0  0  0  0  0  0  # atno 7974 bound_to 7965
  155.2591  140.0435  157.2995 H   0  0  0  0  0  0  0  0  0  0  0  0  # atno 8008 bound_to 7997
  154.5722  140.2377  155.8144 H   0  0  0  0  0  0  0  0  0  0  0  0  # atno 8009 bound_to 7997
  156.2131  140.2993  155.9785 H   0  0  0  0  0  0  0  0  0  0  0  0  # atno 8010 bound_to 7997
  139.9177  143.6419  152.2561 H   0  0  0  0  0  0  0  0  0  0  0  0  # atno 10167 bound_to 10162
  156.2595  130.4195  149.8558 H   0  0  0  0  0  0  0  0  0  0  0  0  # atno 10718 bound_to 10713
  154.4766  135.5856  153.6359 H   0  0  0  0  0  0  0  0  0  0  0  0  # atno 10763 bound_to 10752
  152.9841  135.6079  154.3299 H   0  0  0  0  0  0  0  0  0  0  0  0  # atno 10764 bound_to 10752
  154.3186  135.2844  155.2510 H   0  0  0  0  0  0  0  0  0  0  0  0  # atno 10765 bound_to 10752
  140.1321  134.8795  157.2217 H   0  0  0  0  0  0  0  0  0  0  0  0  # atno 11005 bound_to 11000
  144.7859  140.5934  143.6574 LP  0  0  0  0  0  0  0  0  0  0  0  0  # atno 17320 bound_to 7965
  145.4913  139.1488  143.3708 LP  0  0  0  0  0  0  0  0  0  0  0  0  # atno 17321 bound_to 7965
  139.6888  144.7649  151.1475 LP  0  0  0  0  0  0  0  0  0  0  0  0  # atno 17342 bound_to 10162
  140.7670  143.5618  150.9090 LP  0  0  0  0  0  0  0  0  0  0  0  0  # atno 17343 bound_to 10162
  156.6079  130.8574  151.3447 LP  0  0  0  0  0  0  0  0  0  0  0  0  # atno 17370 bound_to 10713
  157.7245  130.9603  150.1576 LP  0  0  0  0  0  0  0  0  0  0  0  0  # atno 17371 bound_to 10713
  140.2829  134.3329  155.7338 LP  0  0  0  0  0  0  0  0  0  0  0  0  # atno 17394 bound_to 11000
  141.2172  133.7489  156.9390 LP  0  0  0  0  0  0  0  0  0  0  0  0  # atno 17395 bound_to 11000

$$$$
