AV-unprocessed.smi:3156|AV-procd|sdf|12033|dock10
  -GOLD-   2272017453D 1   1.00000     0.00000
 Structure written by MMmdl.
 41 42  0  0  0  0  0  0  0  0  2 V2000
  149.9455  139.7471  154.6679 C   0  0  0  0  0  0  0  0  0  0  0  0
  149.2465  141.0995  154.4119 C   0  0  2  0  0  0  0  0  0  0  0  0
  149.7539  142.1215  155.3562 N   0  3  0  0  0  0  0  0  0  0  0  0
  149.8065  141.7055  156.7738 C   0  0  0  0  0  0  0  0  0  0  0  0
  151.0617  142.2599  157.4620 C   0  0  2  0  0  0  0  0  0  0  0  0
  151.2258  141.7032  158.8899 C   0  0  0  0  0  0  0  0  0  0  0  0
  152.4269  142.3518  159.5876 C   0  0  0  0  0  0  0  0  0  0  0  0
  152.3013  143.8771  159.5203 C   0  0  0  0  0  0  0  0  0  0  0  0
  152.0786  144.3301  158.0691 C   0  0  0  0  0  0  0  0  0  0  0  0
  150.9327  143.6791  157.5284 O   0  0  0  0  0  0  0  0  0  0  0  0
  147.7000  141.0103  154.5196 C   0  0  1  0  0  0  0  0  0  0  0  0
  147.0060  142.3416  154.1707 C   0  0  0  0  0  0  0  0  0  0  0  0
  147.1488  139.9329  153.7066 N   0  0  0  0  0  0  0  0  0  0  0  0
  147.2120  139.7787  152.3368 C   0  0  0  0  0  0  0  0  0  0  0  0
  146.5525  138.6247  152.0243 C   0  0  0  0  0  0  0  0  0  0  0  0
  146.1178  138.1312  153.2858 C   0  0  0  0  0  0  0  0  0  0  0  0
  146.4756  138.9150  154.2900 N   0  0  0  0  0  0  0  0  0  0  0  0
  149.6428  138.9903  153.9443 H   0  0  0  0  0  0  0  0  0  0  0  0
  149.7133  139.3648  155.6624 H   0  0  0  0  0  0  0  0  0  0  0  0
  151.0291  139.8290  154.5909 H   0  0  0  0  0  0  0  0  0  0  0  0
  149.4923  141.4221  153.3986 H   0  0  0  0  0  0  0  0  0  0  0  0
  150.6971  142.3525  155.0787 H   0  0  0  0  0  0  0  0  0  0  0  0
  148.9158  142.0401  157.3054 H   0  0  0  0  0  0  0  0  0  0  0  0
  149.8150  140.6156  156.8151 H   0  0  0  0  0  0  0  0  0  0  0  0
  151.9408  142.0000  156.8688 H   0  0  0  0  0  0  0  0  0  0  0  0
  150.3211  141.8981  159.4677 H   0  0  0  0  0  0  0  0  0  0  0  0
  151.3519  140.6203  158.8628 H   0  0  0  0  0  0  0  0  0  0  0  0
  152.4906  142.0200  160.6243 H   0  0  0  0  0  0  0  0  0  0  0  0
  153.3504  142.0372  159.0997 H   0  0  0  0  0  0  0  0  0  0  0  0
  151.4623  144.2040  160.1361 H   0  0  0  0  0  0  0  0  0  0  0  0
  153.1941  144.3489  159.9319 H   0  0  0  0  0  0  0  0  0  0  0  0
  151.9204  145.4082  158.0335 H   0  0  0  0  0  0  0  0  0  0  0  0
  152.9547  144.1173  157.4550 H   0  0  0  0  0  0  0  0  0  0  0  0
  147.4504  140.7730  155.5554 H   0  0  0  0  0  0  0  0  0  0  0  0
  147.3019  143.1396  154.8517 H   0  0  0  0  0  0  0  0  0  0  0  0
  145.9218  142.2461  154.2381 H   0  0  0  0  0  0  0  0  0  0  0  0
  147.2469  142.6655  153.1576 H   0  0  0  0  0  0  0  0  0  0  0  0
  147.7131  140.4963  151.7037 H   0  0  0  0  0  0  0  0  0  0  0  0
  146.4041  138.1973  151.0438 H   0  0  0  0  0  0  0  0  0  0  0  0
  145.5559  137.2337  153.4998 H   0  0  0  0  0  0  0  0  0  0  0  0
  149.1852  142.9525  155.2753 H   0  0  0  0  0  0  0  0  0  0  0  0
  1  2  1  0  0  0  0
  1 18  1  0  0  0  0
  1 19  1  0  0  0  0
  1 20  1  0  0  0  0
  2  3  1  0  0  0  0
  2 11  1  0  0  0  0
  2 21  1  0  0  0  0
  3  4  1  0  0  0  0
  3 22  1  0  0  0  0
  3 41  1  0  0  0  0
  4  5  1  0  0  0  0
  4 23  1  0  0  0  0
  4 24  1  0  0  0  0
  5 10  1  0  0  0  0
  5  6  1  0  0  0  0
  5 25  1  0  0  0  0
  6  7  1  0  0  0  0
  6 26  1  0  0  0  0
  6 27  1  0  0  0  0
  7  8  1  0  0  0  0
  7 28  1  0  0  0  0
  7 29  1  0  0  0  0
  8  9  1  0  0  0  0
  8 30  1  0  0  0  0
  8 31  1  0  0  0  0
  9 10  1  0  0  0  0
  9 32  1  0  0  0  0
  9 33  1  0  0  0  0
 11 12  1  0  0  0  0
 11 13  1  0  0  0  0
 11 34  1  0  0  0  0
 12 35  1  0  0  0  0
 12 36  1  0  0  0  0
 12 37  1  0  0  0  0
 13 17  1  0  0  0  0
 13 14  1  0  0  0  0
 14 15  2  0  0  0  0
 14 38  1  0  0  0  0
 15 16  1  0  0  0  0
 15 39  1  0  0  0  0
 16 17  2  0  0  0  0
 16 40  1  0  0  0  0
M  CHG  1   3   1
M  END
> <s_m_source_file>
AV-unprocessed.smi

> <i_m_source_file_index>
3156

> <i_lp_mmshare_version>
43012

> <i_f3d_flags>
0

> <s_epik_input>
bjFbY0hdW2NIXVtjSF1uMVtDQEBIXShbQ0gzXSlbQ0BIXShbQ0gzXSlbTkhdW0NIMl1bQ0BASF0yW0NIMl1bQ0gyXVtDSDJdW0NIMl1PMg==

> <s_epik_cmdline>
J2VwaWtfcHl0aG9uJywgJy1waCcsICc3LjAnLCAnLXRuJywgJzgnLCAnLW1hJywgJzIwMCcsICctbWV0YWxfYmluZGluZycsICctaW1hZScsICc8aW5maWxlLm1hZT4nLCAnLW9tYWUnLCAnPG91dGZpbGUubWFlPic=

> <r_lp_tautomer_probability>
1

> <r_epik_Ionization_Penalty>
0.00658015

> <r_epik_Ionization_Penalty_Charging>
0.00656881

> <r_epik_Ionization_Penalty_Neutral>
1.13431e-05

> <r_epik_State_Penalty>
0.0048654

> <r_epik_Charging_Adjusted_Penalty>
0.0114342

> <i_epik_Tot_Q>
1

> <i_epik_Tot_abs_Q>
1

> <r_epik_Metal_State_Penalty>
-0

> <b_epik_Metal_Only>
0

> <s_lp_Force_Field>
OPLS_2005

> <r_lp_Energy>
17.6132

> <b_lp_Chiralities_Consistent>
1

> <s_lp_Variant>
AV-unprocessed.smi:3156-5

> <Gold.Version>
5.8.1

> <Gold.Id.Protein>
6NUR|6NUR_protein|mol2

> <Gold.PLP.Fitness>
46.0758

> <Gold.PLP.PLP>
-38.7711

> <Gold.PLP.part.hbond>
-1.0000

> <Gold.PLP.part.metal>
0.0000

> <Gold.PLP.part.buried>
-0.6692

> <Gold.PLP.part.nonpolar>
-38.6272

> <Gold.PLP.part.repulsive>
1.1429

> <Gold.PLP.ligand.clash>
0.0000

> <Gold.PLP.ligand.torsion>
0.4481

> <Gold.PLP.Chemscore.Hbond>
2.0000

> <Gold.PLP.Chemscore.CHOScore>
0.7085

> <Gold.PLP.Chemscore.Metal>
0.0000

> <Gold.Chemscore.Hbonds>
donor molecule, donor type, donor heavy atom, donor atom, acceptor molecule, acceptor atom, score
      L1  H     3    41       P1  8028  2.00
      L1  C    14    38       P1  7957  0.66

> <Gold.PLP.Chemscore.Internal.Correction>
0.0756

> <Gold.Rescore>
     Score         DG    S(hbond)    S(metal)    S(lipo)     H(rot)  DE(clash)    DE(int)     intcor
     16.13     -17.50       0.99        0.00     109.29       1.59       0.93       0.44       ----

> <Gold.Chemscore.Fitness>
16.1347

> <Gold.Chemscore.DG>
-17.4982

> <Gold.Chemscore.ZeroCoef>
-5.4800

> <Gold.Chemscore.Hbond>
0.9914

> <Gold.Chemscore.Metal>
0.0000

> <Gold.Chemscore.Lipo>
109.2910

> <Gold.Chemscore.Internal_Hbond>
0.0000

> <Gold.Chemscore.DEClash>
0.9268

> <Gold.Chemscore.DEInternal>
0.4367

> <Gold.Chemscore.Rot>
1.5938

> <Gold.Chemscore.Internal.Correction>
   9.000000E+99

> <Gold.Chemscore.Hbonds>
donor molecule, donor type, donor heavy atom, donor atom, acceptor molecule, acceptor atom, score
      L1  H     3    41       P1  8028  0.95

> <Gold.Chemscore.Hbond.Weighted>
-3.3114

> <Gold.Chemscore.Metal.Weighted>
-0.0000

> <Gold.Chemscore.Lipo.Weighted>
-12.7870

> <Gold.Chemscore.Internal_Hbond.Weighted>
0.0000

> <Gold.Chemscore.DEClash.Weighted>
0.9268

> <Gold.Chemscore.DEInternal.Weighted>
0.4367

> <Gold.Chemscore.Rot.Weighted>
4.0802

> <Gold.Chemscore.Internal.Correction.Weighted>
   9.000000E+99

> <Gold.Protein.RotatedTorsions>
[ 6907 6896 6895 6894 ] final -155.83 input  -60.11 | X-H torsion
[ 7974 7965 7964 7962 ] final   59.55 input  175.53 | X-H torsion
[ 8008 7997 7996 7995 ] final  -28.66 input   59.86 | X-H torsion
[ 10167 10162 10161 10158 ] final  161.89 input  -65.29 | X-H torsion
[ 10718 10713 10712 10709 ] final -101.51 input   66.30 | X-H torsion
[ 10763 10752 10751 10750 ] final  -97.45 input  -60.55 | X-H torsion
[ 11005 11000 10999 10996 ] final  -87.97 input  -57.11 | X-H torsion

> <Gold.Protein.ActiveResidues>
 VAL166  LYS551  ARG553  GLY616  TRP617  ASP618  TYR619  PRO620  LYS621  CYS622 
 ASP623  PHE694  ASN695  SER759  ASP760  ASP761  ALA762  ILE779  LEU786  VAL792 
 PHE793  MET794  SER795  GLU796  ALA797  LYS798  CYS799  TRP800  GLU811  SER814 

> <Gold.Protein.RotatedAtoms>
  151.2784  133.4221  159.2625 H   0  0  0  0  0  0  0  0  0  0  0  0  # atno 6907 bound_to 6896
  151.0382  134.9589  159.8158 H   0  0  0  0  0  0  0  0  0  0  0  0  # atno 6908 bound_to 6896
  152.5360  134.2743  159.9036 H   0  0  0  0  0  0  0  0  0  0  0  0  # atno 6909 bound_to 6896
  145.9059  139.3617  143.0564 H   0  0  0  0  0  0  0  0  0  0  0  0  # atno 7974 bound_to 7965
  154.4322  140.1839  156.1125 H   0  0  0  0  0  0  0  0  0  0  0  0  # atno 8008 bound_to 7997
  156.0206  140.3341  155.7010 H   0  0  0  0  0  0  0  0  0  0  0  0  # atno 8009 bound_to 7997
  155.5981  140.0637  157.2731 H   0  0  0  0  0  0  0  0  0  0  0  0  # atno 8010 bound_to 7997
  139.4854  144.4491  151.8853 H   0  0  0  0  0  0  0  0  0  0  0  0  # atno 10167 bound_to 10162
  156.0197  130.5377  150.6974 H   0  0  0  0  0  0  0  0  0  0  0  0  # atno 10718 bound_to 10713
  154.7329  135.5046  153.8994 H   0  0  0  0  0  0  0  0  0  0  0  0  # atno 10763 bound_to 10752
  153.0967  135.6674  153.9758 H   0  0  0  0  0  0  0  0  0  0  0  0  # atno 10764 bound_to 10752
  153.9555  135.3053  155.3415 H   0  0  0  0  0  0  0  0  0  0  0  0  # atno 10765 bound_to 10752
  141.1609  133.7542  156.9384 H   0  0  0  0  0  0  0  0  0  0  0  0  # atno 11005 bound_to 11000
  145.8733  140.9407  143.0639 LP  0  0  0  0  0  0  0  0  0  0  0  0  # atno 17320 bound_to 7965
  144.6739  140.0683  143.7474 LP  0  0  0  0  0  0  0  0  0  0  0  0  # atno 17321 bound_to 7965
  140.3947  144.2570  150.5897 LP  0  0  0  0  0  0  0  0  0  0  0  0  # atno 17342 bound_to 10162
  140.5113  143.2290  151.8531 LP  0  0  0  0  0  0  0  0  0  0  0  0  # atno 17343 bound_to 10162
  157.4642  131.0886  151.0713 LP  0  0  0  0  0  0  0  0  0  0  0  0  # atno 17370 bound_to 10713
  157.1192  130.6054  149.5501 LP  0  0  0  0  0  0  0  0  0  0  0  0  # atno 17371 bound_to 10713
  140.1338  134.9338  157.2374 LP  0  0  0  0  0  0  0  0  0  0  0  0  # atno 17394 bound_to 11000
  140.2920  134.3230  155.7312 LP  0  0  0  0  0  0  0  0  0  0  0  0  # atno 17395 bound_to 11000

$$$$
