AV-unprocessed.smi:2492|AV-procd|sdf|9813|dock2
  -GOLD-   2272013443D 1   1.00000     0.00000
 Structure written by MMmdl.
 33 34  0  0  0  0  0  0  0  0  1 V2000
  152.7711  143.2362  161.9953 C   0  0  0  0  0  0  0  0  0  0  0  0
  153.3390  141.9110  160.8969 S   0  0  0  0  0  0  0  0  0  0  0  0
  153.0841  142.6984  159.2801 C   0  0  2  0  0  0  0  0  0  0  0  0
  152.5561  144.1285  159.3836 C   0  0  0  0  0  0  0  0  0  0  0  0
  151.9505  144.4028  158.0069 C   0  0  0  0  0  0  0  0  0  0  0  0
  151.4400  143.0455  157.4893 C   0  0  2  0  0  0  0  0  0  0  0  0
  149.9799  143.0143  157.4812 N   0  0  0  0  0  0  0  0  0  0  0  0
  149.2049  143.0965  158.5724 C   0  0  0  0  0  0  0  0  0  0  0  0
  149.6508  143.2072  159.7149 O   0  0  0  0  0  0  0  0  0  0  0  0
  147.9013  143.0459  158.2506 N   0  0  0  0  0  0  0  0  0  0  0  0
  146.7893  143.1006  159.1286 C   0  0  0  0  0  0  0  0  0  0  0  0
  146.7797  142.7689  160.4199 N   0  0  0  0  0  0  0  0  0  0  0  0
  145.4783  143.0123  160.7374 C   0  0  0  0  0  0  0  0  0  0  0  0
  144.9263  142.8007  162.1056 C   0  0  0  0  0  0  0  0  0  0  0  0
  144.7130  143.4625  159.7497 N   0  0  0  0  0  0  0  0  0  0  0  0
  145.5921  143.5218  158.6580 O   0  0  0  0  0  0  0  0  0  0  0  0
  152.0294  141.9785  158.4350 C   0  0  0  0  0  0  0  0  0  0  0  0
  152.8854  142.9344  163.0363 H   0  0  0  0  0  0  0  0  0  0  0  0
  151.7197  143.4606  161.8168 H   0  0  0  0  0  0  0  0  0  0  0  0
  153.3545  144.1426  161.8327 H   0  0  0  0  0  0  0  0  0  0  0  0
  154.0291  142.7016  158.7347 H   0  0  0  0  0  0  0  0  0  0  0  0
  151.7764  144.1856  160.1445 H   0  0  0  0  0  0  0  0  0  0  0  0
  153.3324  144.8479  159.6451 H   0  0  0  0  0  0  0  0  0  0  0  0
  151.1780  145.1720  158.0458 H   0  0  0  0  0  0  0  0  0  0  0  0
  152.7317  144.7693  157.3393 H   0  0  0  0  0  0  0  0  0  0  0  0
  151.8122  142.8957  156.4739 H   0  0  0  0  0  0  0  0  0  0  0  0
  149.5313  142.9276  156.5809 H   0  0  0  0  0  0  0  0  0  0  0  0
  147.6782  142.9594  157.2702 H   0  0  0  0  0  0  0  0  0  0  0  0
  143.9272  142.3667  162.0525 H   0  0  0  0  0  0  0  0  0  0  0  0
  144.8651  143.7507  162.6367 H   0  0  0  0  0  0  0  0  0  0  0  0
  145.5639  142.1254  162.6770 H   0  0  0  0  0  0  0  0  0  0  0  0
  152.4517  141.1348  157.8883 H   0  0  0  0  0  0  0  0  0  0  0  0
  151.2505  141.5788  159.0870 H   0  0  0  0  0  0  0  0  0  0  0  0
  1  2  1  0  0  0  0
  1 18  1  0  0  0  0
  1 19  1  0  0  0  0
  1 20  1  0  0  0  0
  2  3  1  0  0  0  0
  3 17  1  0  0  0  0
  3  4  1  0  0  0  0
  3 21  1  0  0  0  0
  4  5  1  0  0  0  0
  4 22  1  0  0  0  0
  4 23  1  0  0  0  0
  5  6  1  0  0  0  0
  5 24  1  0  0  0  0
  5 25  1  0  0  0  0
  6  7  1  0  0  0  0
  6 17  1  0  0  0  0
  6 26  1  0  0  0  0
  7  8  1  0  0  0  0
  7 27  1  0  0  0  0
  8  9  2  0  0  0  0
  8 10  1  0  0  0  0
 10 11  1  0  0  0  0
 10 28  1  0  0  0  0
 11 16  1  0  0  0  0
 11 12  2  0  0  0  0
 12 13  1  0  0  0  0
 13 14  1  0  0  0  0
 13 15  2  0  0  0  0
 14 29  1  0  0  0  0
 14 30  1  0  0  0  0
 14 31  1  0  0  0  0
 15 16  1  0  0  0  0
 17 32  1  0  0  0  0
 17 33  1  0  0  0  0
M  END
> <s_m_source_file>
AV-unprocessed.smi

> <i_m_source_file_index>
2492

> <i_lp_mmshare_version>
43012

> <i_f3d_flags>
0

> <s_epik_input>
W0NIM11TW0NAQEhdMVtDSDJdW0NIMl1bQ0BIXShbQ0gyXTEpW05IXUMoPU8pW05IXWMybmMoW0NIM10pbm8y

> <s_epik_cmdline>
J2VwaWtfcHl0aG9uJywgJy1waCcsICc3LjAnLCAnLXRuJywgJzgnLCAnLW1hJywgJzIwMCcsICctbWV0YWxfYmluZGluZycsICctaW1hZScsICc8aW5maWxlLm1hZT4nLCAnLW9tYWUnLCAnPG91dGZpbGUubWFlPic=

> <r_lp_tautomer_probability>
1

> <r_epik_Ionization_Penalty>
3.56659e-05

> <r_epik_Ionization_Penalty_Charging>
0

> <r_epik_Ionization_Penalty_Neutral>
3.56659e-05

> <r_epik_State_Penalty>
-0

> <r_epik_Charging_Adjusted_Penalty>
0

> <i_epik_Tot_Q>
0

> <i_epik_Tot_abs_Q>
0

> <r_epik_Metal_State_Penalty>
0.0146047

> <b_epik_Metal_Only>
0

> <s_lp_Force_Field>
OPLS_2005

> <r_lp_Energy>
15.0837

> <b_lp_Chiralities_Consistent>
1

> <s_lp_Variant>
AV-unprocessed.smi:2492-3

> <Gold.Version>
5.8.1

> <Gold.Id.Protein>
6NUR|6NUR_protein|mol2

> <Gold.PLP.Fitness>
42.0147

> <Gold.PLP.PLP>
-37.2994

> <Gold.PLP.part.hbond>
-5.5641

> <Gold.PLP.part.metal>
0.0000

> <Gold.PLP.part.buried>
-3.6824

> <Gold.PLP.part.nonpolar>
-28.9291

> <Gold.PLP.part.repulsive>
0.3812

> <Gold.PLP.ligand.clash>
0.0000

> <Gold.PLP.ligand.torsion>
0.8951

> <Gold.PLP.Chemscore.Hbond>
2.1658

> <Gold.PLP.Chemscore.CHOScore>
0.0000

> <Gold.PLP.Chemscore.Metal>
0.0000

> <Gold.Chemscore.Hbonds>
donor molecule, donor type, donor heavy atom, donor atom, acceptor molecule, acceptor atom, score
      L1  H     7    27       P1  8028  0.27
      P1  H  6933  6944       L1    12  0.84
      P1  H  6934  6946       L1    12  0.94

> <Gold.PLP.Chemscore.Internal.Correction>
0.0082

> <Gold.Rescore>
     Score         DG    S(hbond)    S(metal)    S(lipo)     H(rot)  DE(clash)    DE(int)     intcor
     16.33     -19.37       2.08        0.00      87.37       1.28       0.08       2.96       ----

> <Gold.Chemscore.Fitness>
16.3270

> <Gold.Chemscore.DG>
-19.3675

> <Gold.Chemscore.ZeroCoef>
-5.4800

> <Gold.Chemscore.Hbond>
2.0796

> <Gold.Chemscore.Metal>
0.0000

> <Gold.Chemscore.Lipo>
87.3724

> <Gold.Chemscore.Internal_Hbond>
0.0000

> <Gold.Chemscore.DEClash>
0.0807

> <Gold.Chemscore.DEInternal>
2.9598

> <Gold.Chemscore.Rot>
1.2815

> <Gold.Chemscore.Internal.Correction>
   9.000000E+99

> <Gold.Chemscore.Hbonds>
donor molecule, donor type, donor heavy atom, donor atom, acceptor molecule, acceptor atom, score
      L1  H     7    27       P1  8028  0.25
      P1  H  6933  6944       L1    12  0.78
      P1  H  6934  6946       L1    12  0.28

> <Gold.Chemscore.Hbond.Weighted>
-6.9457

> <Gold.Chemscore.Metal.Weighted>
-0.0000

> <Gold.Chemscore.Lipo.Weighted>
-10.2226

> <Gold.Chemscore.Internal_Hbond.Weighted>
0.0000

> <Gold.Chemscore.DEClash.Weighted>
0.0807

> <Gold.Chemscore.DEInternal.Weighted>
2.9598

> <Gold.Chemscore.Rot.Weighted>
3.2808

> <Gold.Chemscore.Internal.Correction.Weighted>
   9.000000E+99

> <Gold.Protein.RotatedTorsions>
[ 6907 6896 6895 6894 ] final  136.88 input  -60.11 | X-H torsion
[ 7974 7965 7964 7962 ] final   -7.17 input  175.53 | X-H torsion
[ 8008 7997 7996 7995 ] final  -40.15 input   59.86 | X-H torsion
[ 10167 10162 10161 10158 ] final -113.30 input  -65.29 | X-H torsion
[ 10718 10713 10712 10709 ] final   21.54 input   66.30 | X-H torsion
[ 10763 10752 10751 10750 ] final  -64.36 input  -60.55 | X-H torsion
[ 11005 11000 10999 10996 ] final  100.95 input  -57.11 | X-H torsion

> <Gold.Protein.ActiveResidues>
 VAL166  LYS551  ARG553  GLY616  TRP617  ASP618  TYR619  PRO620  LYS621  CYS622 
 ASP623  PHE694  ASN695  SER759  ASP760  ASP761  ALA762  ILE779  LEU786  VAL792 
 PHE793  MET794  SER795  GLU796  ALA797  LYS798  CYS799  TRP800  GLU811  SER814 

> <Gold.Protein.RotatedAtoms>
  152.2843  133.5500  159.5517 H   0  0  0  0  0  0  0  0  0  0  0  0  # atno 6907 bound_to 6896
  150.7209  134.0519  159.3810 H   0  0  0  0  0  0  0  0  0  0  0  0  # atno 6908 bound_to 6896
  151.8428  135.0584  160.0501 H   0  0  0  0  0  0  0  0  0  0  0  0  # atno 6909 bound_to 6896
  146.2313  140.2280  142.8339 H   0  0  0  0  0  0  0  0  0  0  0  0  # atno 7974 bound_to 7965
  154.4015  140.1533  156.2979 H   0  0  0  0  0  0  0  0  0  0  0  0  # atno 8008 bound_to 7997
  155.8726  140.3448  155.5810 H   0  0  0  0  0  0  0  0  0  0  0  0  # atno 8009 bound_to 7997
  155.7757  140.0836  157.2076 H   0  0  0  0  0  0  0  0  0  0  0  0  # atno 8010 bound_to 7997
  140.1133  143.4508  152.1738 H   0  0  0  0  0  0  0  0  0  0  0  0  # atno 10167 bound_to 10162
  157.1399  130.6628  149.5978 H   0  0  0  0  0  0  0  0  0  0  0  0  # atno 10718 bound_to 10713
  154.3290  135.6180  153.5542 H   0  0  0  0  0  0  0  0  0  0  0  0  # atno 10763 bound_to 10752
  152.9813  135.5742  154.4984 H   0  0  0  0  0  0  0  0  0  0  0  0  # atno 10764 bound_to 10752
  154.4666  135.2858  155.1650 H   0  0  0  0  0  0  0  0  0  0  0  0  # atno 10765 bound_to 10752
  139.8772  134.9162  156.4833 H   0  0  0  0  0  0  0  0  0  0  0  0  # atno 11005 bound_to 11000
  144.9580  140.8246  143.5531 LP  0  0  0  0  0  0  0  0  0  0  0  0  # atno 17320 bound_to 7965
  145.2247  139.2142  143.5074 LP  0  0  0  0  0  0  0  0  0  0  0  0  # atno 17321 bound_to 7965
  139.5607  144.7404  151.4162 LP  0  0  0  0  0  0  0  0  0  0  0  0  # atno 17342 bound_to 10162
  140.6913  143.7854  150.7260 LP  0  0  0  0  0  0  0  0  0  0  0  0  # atno 17343 bound_to 10162
  155.9790  130.4781  150.6693 LP  0  0  0  0  0  0  0  0  0  0  0  0  # atno 17370 bound_to 10713
  157.4316  131.0850  151.1033 LP  0  0  0  0  0  0  0  0  0  0  0  0  # atno 17371 bound_to 10713
  140.8711  133.7987  155.9365 LP  0  0  0  0  0  0  0  0  0  0  0  0  # atno 17394 bound_to 11000
  140.8951  134.2447  157.5073 LP  0  0  0  0  0  0  0  0  0  0  0  0  # atno 17395 bound_to 11000

$$$$
