AV-unprocessed.smi:3|AV-procd|sdf|31|dock2
  -GOLD-   2262015143D 1   1.00000     0.00000
 Structure written by MMmdl.
 33 35  0  0  0  0  0  0  0  0  1 V2000
  150.7849  141.7473  157.1381 C   0  0  0  0  0  0  0  0  0  0  0  0
  151.9312  141.1909  157.8421 N   0  0  0  0  0  0  0  0  0  0  0  0
  152.2819  141.7281  159.1547 C   0  0  0  0  0  0  0  0  0  0  0  0
  152.7764  143.1703  159.0691 C   0  0  1  0  0  0  0  0  0  0  0  0
  151.7939  144.2968  158.7137 C   0  0  0  0  0  0  0  0  0  0  0  0
  152.5496  145.2139  159.6802 C   0  0  1  0  0  0  0  0  0  0  0  0
  151.7813  146.1007  160.4618 O   0  0  0  0  0  0  0  0  0  0  0  0
  153.0636  143.9424  160.3641 C   0  0  0  0  0  0  0  0  0  0  0  0
  152.4532  139.9307  157.4773 C   0  0  0  0  0  0  0  0  0  0  0  0
  153.5146  139.4730  158.1887 N   0  0  0  0  0  0  0  0  0  0  0  0
  154.0315  138.2643  157.8540 C   0  0  0  0  0  0  0  0  0  0  0  0
  153.6154  137.4225  156.8775 N   0  0  0  0  0  0  0  0  0  0  0  0
  152.5412  137.8546  156.1539 C   0  0  0  0  0  0  0  0  0  0  0  0
  151.9251  137.2207  155.1616 N   0  0  0  0  0  0  0  0  0  0  0  0
  150.9146  138.0168  154.7770 C   0  0  0  0  0  0  0  0  0  0  0  0
  150.8335  139.2458  155.5361 C   0  0  0  0  0  0  0  0  0  0  0  0
  151.9402  139.1079  156.4326 C   0  0  0  0  0  0  0  0  0  0  0  0
  153.6542  143.2479  158.4241 H   0  0  0  0  0  0  0  0  0  0  0  0
  153.3537  145.7571  159.1808 H   0  0  0  0  0  0  0  0  0  0  0  0
  150.7779  141.4470  156.0901 H   0  0  0  0  0  0  0  0  0  0  0  0
  150.8213  142.8366  157.1658 H   0  0  0  0  0  0  0  0  0  0  0  0
  149.8530  141.4323  157.6073 H   0  0  0  0  0  0  0  0  0  0  0  0
  151.4420  141.6504  159.8452 H   0  0  0  0  0  0  0  0  0  0  0  0
  153.0622  141.0972  159.5812 H   0  0  0  0  0  0  0  0  0  0  0  0
  151.8268  144.6070  157.6687 H   0  0  0  0  0  0  0  0  0  0  0  0
  150.7717  144.0886  159.0353 H   0  0  0  0  0  0  0  0  0  0  0  0
  150.8963  145.7688  160.4678 H   0  0  0  0  0  0  0  0  0  0  0  0
  152.4352  143.6248  161.1982 H   0  0  0  0  0  0  0  0  0  0  0  0
  154.1164  143.9710  160.6468 H   0  0  0  0  0  0  0  0  0  0  0  0
  154.8769  137.9323  158.4384 H   0  0  0  0  0  0  0  0  0  0  0  0
  150.2446  137.7263  153.9773 H   0  0  0  0  0  0  0  0  0  0  0  0
  150.1118  140.0453  155.4369 H   0  0  0  0  0  0  0  0  0  0  0  0
  154.0947  136.5441  156.7402 H   0  0  0  0  0  0  0  0  0  0  0  0
  1  2  1  0  0  0  0
  1 20  1  0  0  0  0
  1 21  1  0  0  0  0
  1 22  1  0  0  0  0
  2  3  1  0  0  0  0
  2  9  1  0  0  0  0
  3  4  1  0  0  0  0
  3 23  1  0  0  0  0
  3 24  1  0  0  0  0
  4 18  1  0  0  0  0
  4  8  1  0  0  0  0
  4  5  1  0  0  0  0
  5  6  1  0  0  0  0
  5 25  1  0  0  0  0
  5 26  1  0  0  0  0
  6 19  1  0  0  0  0
  6  7  1  0  0  0  0
  6  8  1  0  0  0  0
  7 27  1  0  0  0  0
  8 28  1  0  0  0  0
  8 29  1  0  0  0  0
  9 17  2  0  0  0  0
  9 10  1  0  0  0  0
 10 11  2  0  0  0  0
 11 12  1  0  0  0  0
 11 30  1  0  0  0  0
 12 13  1  0  0  0  0
 12 33  1  0  0  0  0
 13 17  1  0  0  0  0
 13 14  2  0  0  0  0
 14 15  1  0  0  0  0
 15 16  2  0  0  0  0
 15 31  1  0  0  0  0
 16 17  1  0  0  0  0
 16 32  1  0  0  0  0
M  END
> <s_m_source_file>
AV-unprocessed.smi

> <i_m_source_file_index>
3

> <i_lp_mmshare_version>
43012

> <i_f3d_flags>
0

> <s_epik_input>
W25IXTFbY0hdW2NIXWMoYzEyKWMobltjSF1uMilOKFtDSDNdKVtDSDJdW0NASF0zW0NIMl1bQ0BASF0oW09IXSlbQ0gyXTM=

> <s_epik_cmdline>
J2VwaWtfcHl0aG9uJywgJy1waCcsICc3LjAnLCAnLXRuJywgJzgnLCAnLW1hJywgJzIwMCcsICctbWV0YWxfYmluZGluZycsICctaW1hZScsICc8aW5maWxlLm1hZT4nLCAnLW9tYWUnLCAnPG91dGZpbGUubWFlPic=

> <r_lp_tautomer_probability>
1.75997e-05

> <r_epik_Ionization_Penalty>
5.52529

> <r_epik_Ionization_Penalty_Charging>
0

> <r_epik_Ionization_Penalty_Neutral>
5.52529

> <r_epik_State_Penalty>
8.99615

> <r_epik_Charging_Adjusted_Penalty>
8.99615

> <i_epik_Tot_Q>
0

> <i_epik_Tot_abs_Q>
0

> <r_epik_Metal_State_Penalty>
6.01519

> <b_epik_Metal_Only>
1

> <s_lp_Force_Field>
OPLS_2005

> <r_lp_Energy>
25.1021

> <b_lp_Chiralities_Consistent>
1

> <s_lp_Variant>
AV-unprocessed.smi:3-5

> <Gold.Version>
5.8.1

> <Gold.Id.Protein>
6NUR|6NUR_protein|mol2

> <Gold.PLP.Fitness>
45.0894

> <Gold.PLP.PLP>
-38.0026

> <Gold.PLP.part.hbond>
-4.0000

> <Gold.PLP.part.metal>
0.0000

> <Gold.PLP.part.buried>
-3.8331

> <Gold.PLP.part.nonpolar>
-31.5918

> <Gold.PLP.part.repulsive>
0.3016

> <Gold.PLP.ligand.clash>
0.9650

> <Gold.PLP.ligand.torsion>
0.1802

> <Gold.PLP.Chemscore.Hbond>
1.3500

> <Gold.PLP.Chemscore.CHOScore>
1.0284

> <Gold.PLP.Chemscore.Metal>
0.0000

> <Gold.Chemscore.Hbonds>
donor molecule, donor type, donor heavy atom, donor atom, acceptor molecule, acceptor atom, score
      P1  H  7997  8009       L1    10  0.12
      P1  H 10752 10764       L1    14  0.86
      L1  C    15    31       P1  7948  0.19

> <Gold.PLP.Chemscore.Internal.Correction>
1.2771

> <Gold.Rescore>
     Score         DG    S(hbond)    S(metal)    S(lipo)     H(rot)  DE(clash)    DE(int)     intcor
     12.27     -13.62       0.86        0.00      85.34       1.84       0.03       1.32       ----

> <Gold.Chemscore.Fitness>
12.2708

> <Gold.Chemscore.DG>
-13.6201

> <Gold.Chemscore.ZeroCoef>
-5.4800

> <Gold.Chemscore.Hbond>
0.8577

> <Gold.Chemscore.Metal>
0.0000

> <Gold.Chemscore.Lipo>
85.3411

> <Gold.Chemscore.Internal_Hbond>
0.0000

> <Gold.Chemscore.DEClash>
0.0270

> <Gold.Chemscore.DEInternal>
1.3223

> <Gold.Chemscore.Rot>
1.8396

> <Gold.Chemscore.Internal.Correction>
   9.000000E+99

> <Gold.Chemscore.Hbonds>
donor molecule, donor type, donor heavy atom, donor atom, acceptor molecule, acceptor atom, score
      P1  H 10752 10764       L1    14  0.73

> <Gold.Chemscore.Hbond.Weighted>
-2.8647

> <Gold.Chemscore.Metal.Weighted>
-0.0000

> <Gold.Chemscore.Lipo.Weighted>
-9.9849

> <Gold.Chemscore.Internal_Hbond.Weighted>
0.0000

> <Gold.Chemscore.DEClash.Weighted>
0.0270

> <Gold.Chemscore.DEInternal.Weighted>
1.3223

> <Gold.Chemscore.Rot.Weighted>
4.7095

> <Gold.Chemscore.Internal.Correction.Weighted>
   9.000000E+99

> <Gold.Protein.RotatedTorsions>
[ 6907 6896 6895 6894 ] final   36.03 input  -60.11 | X-H torsion
[ 7974 7965 7964 7962 ] final  108.62 input  175.53 | X-H torsion
[ 8008 7997 7996 7995 ] final  145.96 input   59.86 | X-H torsion
[ 10167 10162 10161 10158 ] final  -71.05 input  -65.29 | X-H torsion
[ 10718 10713 10712 10709 ] final   94.66 input   66.30 | X-H torsion
[ 10763 10752 10751 10750 ] final  -71.69 input  -60.55 | X-H torsion
[ 11005 11000 10999 10996 ] final  -91.61 input  -57.11 | X-H torsion

> <Gold.Protein.ActiveResidues>
 VAL166  LYS551  ARG553  GLY616  TRP617  ASP618  TYR619  PRO620  LYS621  CYS622 
 ASP623  PHE694  ASN695  SER759  ASP760  ASP761  ALA762  ILE779  LEU786  VAL792 
 PHE793  MET794  SER795  GLU796  ALA797  LYS798  CYS799  TRP800  GLU811  SER814 

> <Gold.Protein.RotatedAtoms>
  152.1242  134.9183  160.0561 H   0  0  0  0  0  0  0  0  0  0  0  0  # atno 6907 bound_to 6896
  152.0312  133.3933  159.4306 H   0  0  0  0  0  0  0  0  0  0  0  0  # atno 6908 bound_to 6896
  150.6851  134.3440  159.4924 H   0  0  0  0  0  0  0  0  0  0  0  0  # atno 6909 bound_to 6896
  145.2784  139.2641  143.3929 H   0  0  0  0  0  0  0  0  0  0  0  0  # atno 7974 bound_to 7965
  156.2869  140.2195  156.5299 H   0  0  0  0  0  0  0  0  0  0  0  0  # atno 8008 bound_to 7997
  154.7458  140.0484  157.0872 H   0  0  0  0  0  0  0  0  0  0  0  0  # atno 8009 bound_to 7997
  155.0173  140.3120  155.4810 H   0  0  0  0  0  0  0  0  0  0  0  0  # atno 8010 bound_to 7997
  140.5304  143.2322  151.7272 H   0  0  0  0  0  0  0  0  0  0  0  0  # atno 10167 bound_to 10162
  157.6946  131.0520  150.4220 H   0  0  0  0  0  0  0  0  0  0  0  0  # atno 10718 bound_to 10713
  154.4353  135.5954  153.6095 H   0  0  0  0  0  0  0  0  0  0  0  0  # atno 10763 bound_to 10752
  152.9801  135.5985  154.3788 H   0  0  0  0  0  0  0  0  0  0  0  0  # atno 10764 bound_to 10752
  154.3632  135.2841  155.2287 H   0  0  0  0  0  0  0  0  0  0  0  0  # atno 10765 bound_to 10752
  141.1541  133.7766  156.9903 H   0  0  0  0  0  0  0  0  0  0  0  0  # atno 11005 bound_to 11000
  146.3224  140.3245  142.8635 LP  0  0  0  0  0  0  0  0  0  0  0  0  # atno 17320 bound_to 7965
  144.9274  140.7937  143.5710 LP  0  0  0  0  0  0  0  0  0  0  0  0  # atno 17321 bound_to 7965
  139.4952  144.4122  152.0068 LP  0  0  0  0  0  0  0  0  0  0  0  0  # atno 17342 bound_to 10162
  140.3224  144.3412  150.6006 LP  0  0  0  0  0  0  0  0  0  0  0  0  # atno 17343 bound_to 10162
  156.4594  130.4028  149.6585 LP  0  0  0  0  0  0  0  0  0  0  0  0  # atno 17370 bound_to 10713
  156.3706  130.7528  151.2511 LP  0  0  0  0  0  0  0  0  0  0  0  0  # atno 17371 bound_to 10713
  140.1007  134.9537  157.1919 LP  0  0  0  0  0  0  0  0  0  0  0  0  # atno 17394 bound_to 11000
  140.3322  134.2797  155.7226 LP  0  0  0  0  0  0  0  0  0  0  0  0  # atno 17395 bound_to 11000

$$$$
