AV-unprocessed.smi:1431|AV-procd|sdf|5829|dock2
  -GOLD-   22720 5483D 1   1.00000     0.00000
 Structure written by MMmdl.
 33 34  0  0  0  0  0  0  0  0  1 V2000
  144.6851  137.2308  152.3297 O   0  0  0  0  0  0  0  0  0  0  0  0
  145.8624  136.9654  152.0844 C   0  0  0  0  0  0  0  0  0  0  0  0
  146.8554  137.8611  152.1801 N   0  0  0  0  0  0  0  0  0  0  0  0
  146.6939  139.2442  152.6171 C   0  0  0  0  0  0  0  0  0  0  0  0
  147.3725  139.5048  153.9765 C   0  0  2  0  0  0  0  0  0  0  0  0
  147.5105  141.0065  154.2916 C   0  0  0  0  0  0  0  0  0  0  0  0
  148.4181  141.1664  155.5157 C   0  0  0  0  0  0  0  0  0  0  0  0
  149.6449  139.8108  155.4012 S   0  0  0  0  0  0  0  0  0  0  0  0
  150.9043  140.3323  154.8495 O   0  0  0  0  0  0  0  0  0  0  0  0
  149.6281  139.0426  156.6552 O   0  0  0  0  0  0  0  0  0  0  0  0
  148.7689  138.8709  154.0947 C   0  0  0  0  0  0  0  0  0  0  0  0
  146.3261  135.7631  151.7002 N   0  0  0  0  0  0  0  0  0  0  0  0
  145.5967  134.5571  151.5242 C   0  0  0  0  0  0  0  0  0  0  0  0
  146.3872  133.3930  151.3925 C   0  0  0  0  0  0  0  0  0  0  0  0
  145.7586  132.1450  151.2168 C   0  0  0  0  0  0  0  0  0  0  0  0
  144.3540  132.0933  151.1762 C   0  0  0  0  0  0  0  0  0  0  0  0
  143.6419  133.2990  151.3146 C   0  0  0  0  0  0  0  0  0  0  0  0
  144.2423  134.4958  151.4838 N   0  0  0  0  0  0  0  0  0  0  0  0
  147.7928  137.5610  151.9556 H   0  0  0  0  0  0  0  0  0  0  0  0
  147.1260  139.8911  151.8530 H   0  0  0  0  0  0  0  0  0  0  0  0
  145.6329  139.4943  152.6680 H   0  0  0  0  0  0  0  0  0  0  0  0
  146.7524  139.0744  154.7643 H   0  0  0  0  0  0  0  0  0  0  0  0
  147.9721  141.5113  153.4421 H   0  0  0  0  0  0  0  0  0  0  0  0
  146.5400  141.4767  154.4530 H   0  0  0  0  0  0  0  0  0  0  0  0
  148.9220  142.1323  155.5532 H   0  0  0  0  0  0  0  0  0  0  0  0
  147.8511  141.0308  156.4369 H   0  0  0  0  0  0  0  0  0  0  0  0
  148.7354  137.8124  154.3531 H   0  0  0  0  0  0  0  0  0  0  0  0
  149.3329  138.9855  153.1686 H   0  0  0  0  0  0  0  0  0  0  0  0
  147.3189  135.6975  151.5324 H   0  0  0  0  0  0  0  0  0  0  0  0
  147.4655  133.4508  151.4266 H   0  0  0  0  0  0  0  0  0  0  0  0
  146.3446  131.2434  151.1156 H   0  0  0  0  0  0  0  0  0  0  0  0
  143.8358  131.1552  151.0429 H   0  0  0  0  0  0  0  0  0  0  0  0
  142.5623  133.3033  151.2890 H   0  0  0  0  0  0  0  0  0  0  0  0
  1  2  2  0  0  0  0
  2  3  1  0  0  0  0
  2 12  1  0  0  0  0
  3  4  1  0  0  0  0
  3 19  1  0  0  0  0
  4  5  1  0  0  0  0
  4 20  1  0  0  0  0
  4 21  1  0  0  0  0
  5 11  1  0  0  0  0
  5  6  1  0  0  0  0
  5 22  1  0  0  0  0
  6  7  1  0  0  0  0
  6 23  1  0  0  0  0
  6 24  1  0  0  0  0
  7  8  1  0  0  0  0
  7 25  1  0  0  0  0
  7 26  1  0  0  0  0
  8  9  2  0  0  0  0
  8 10  2  0  0  0  0
  8 11  1  0  0  0  0
 11 27  1  0  0  0  0
 11 28  1  0  0  0  0
 12 13  1  0  0  0  0
 12 29  1  0  0  0  0
 13 18  1  0  0  0  0
 13 14  2  0  0  0  0
 14 15  1  0  0  0  0
 14 30  1  0  0  0  0
 15 16  2  0  0  0  0
 15 31  1  0  0  0  0
 16 17  1  0  0  0  0
 16 32  1  0  0  0  0
 17 18  2  0  0  0  0
 17 33  1  0  0  0  0
M  END
> <s_m_source_file>
AV-unprocessed.smi

> <i_m_source_file_index>
1431

> <i_lp_mmshare_version>
43012

> <i_f3d_flags>
0

> <s_epik_input>
bjFbY0hdW2NIXVtjSF1bY0hdYzFbTkhdQyg9TylbTkhdW0NIMl1bQ0BASF0oW0NIMl0yKVtDSDJdW0NIMl1TMig9Tyk9Tw==

> <s_epik_cmdline>
J2VwaWtfcHl0aG9uJywgJy1waCcsICc3LjAnLCAnLXRuJywgJzgnLCAnLW1hJywgJzIwMCcsICctbWV0YWxfYmluZGluZycsICctaW1hZScsICc8aW5maWxlLm1hZT4nLCAnLW9tYWUnLCAnPG91dGZpbGUubWFlPic=

> <r_lp_tautomer_probability>
1

> <r_epik_Ionization_Penalty>
4.47006e-05

> <r_epik_Ionization_Penalty_Charging>
0

> <r_epik_Ionization_Penalty_Neutral>
4.47006e-05

> <r_epik_State_Penalty>
-0

> <r_epik_Charging_Adjusted_Penalty>
0

> <i_epik_Tot_Q>
0

> <i_epik_Tot_abs_Q>
0

> <r_epik_Metal_State_Penalty>
-0

> <b_epik_Metal_Only>
0

> <s_lp_Force_Field>
OPLS_2005

> <r_lp_Energy>
3.66515

> <b_lp_Chiralities_Consistent>
1

> <s_lp_Variant>
AV-unprocessed.smi:1431-1

> <Gold.Version>
5.8.1

> <Gold.Id.Protein>
6NUR|6NUR_protein|mol2

> <Gold.PLP.Fitness>
40.0636

> <Gold.PLP.PLP>
-28.4470

> <Gold.PLP.part.hbond>
-3.0000

> <Gold.PLP.part.metal>
0.0000

> <Gold.PLP.part.buried>
-5.6674

> <Gold.PLP.part.nonpolar>
-21.9422

> <Gold.PLP.part.repulsive>
1.6077

> <Gold.PLP.ligand.clash>
0.0000

> <Gold.PLP.ligand.torsion>
0.1812

> <Gold.PLP.Chemscore.Hbond>
2.9920

> <Gold.PLP.Chemscore.CHOScore>
1.0000

> <Gold.PLP.Chemscore.Metal>
0.0000

> <Gold.Chemscore.Hbonds>
donor molecule, donor type, donor heavy atom, donor atom, acceptor molecule, acceptor atom, score
      L1  H     3    19       P1  7948  0.98
      L1  H    12    29       P1  7948  1.00
      P1  H  7989  7998       L1     9  1.00
      L1  C    17    33       P1 10186  0.87

> <Gold.PLP.Chemscore.Internal.Correction>
0.0030

> <Gold.Rescore>
     Score         DG    S(hbond)    S(metal)    S(lipo)     H(rot)  DE(clash)    DE(int)     intcor
     17.06     -18.59       2.86        0.00      59.59       1.33       0.15       1.39       ----

> <Gold.Chemscore.Fitness>
17.0595

> <Gold.Chemscore.DG>
-18.5939

> <Gold.Chemscore.ZeroCoef>
-5.4800

> <Gold.Chemscore.Hbond>
2.8569

> <Gold.Chemscore.Metal>
0.0000

> <Gold.Chemscore.Lipo>
59.5859

> <Gold.Chemscore.Internal_Hbond>
0.0000

> <Gold.Chemscore.DEClash>
0.1469

> <Gold.Chemscore.DEInternal>
1.3874

> <Gold.Chemscore.Rot>
1.3280

> <Gold.Chemscore.Internal.Correction>
   9.000000E+99

> <Gold.Chemscore.Hbonds>
donor molecule, donor type, donor heavy atom, donor atom, acceptor molecule, acceptor atom, score
      L1  H     3    19       P1  7948  0.93
      L1  H    12    29       P1  7948  0.95
      P1  H  7989  7998       L1     9  0.99

> <Gold.Chemscore.Hbond.Weighted>
-9.5419

> <Gold.Chemscore.Metal.Weighted>
-0.0000

> <Gold.Chemscore.Lipo.Weighted>
-6.9716

> <Gold.Chemscore.Internal_Hbond.Weighted>
0.0000

> <Gold.Chemscore.DEClash.Weighted>
0.1469

> <Gold.Chemscore.DEInternal.Weighted>
1.3874

> <Gold.Chemscore.Rot.Weighted>
3.3996

> <Gold.Chemscore.Internal.Correction.Weighted>
   9.000000E+99

> <Gold.Protein.RotatedTorsions>
[ 6907 6896 6895 6894 ] final  -89.43 input  -60.11 | X-H torsion
[ 7974 7965 7964 7962 ] final -176.43 input  175.53 | X-H torsion
[ 8008 7997 7996 7995 ] final  -86.06 input   59.86 | X-H torsion
[ 10167 10162 10161 10158 ] final   77.54 input  -65.29 | X-H torsion
[ 10718 10713 10712 10709 ] final   48.70 input   66.30 | X-H torsion
[ 10763 10752 10751 10750 ] final  -83.70 input  -60.55 | X-H torsion
[ 11005 11000 10999 10996 ] final -142.23 input  -57.11 | X-H torsion

> <Gold.Protein.ActiveResidues>
 VAL166  LYS551  ARG553  GLY616  TRP617  ASP618  TYR619  PRO620  LYS621  CYS622 
 ASP623  PHE694  ASN695  SER759  ASP760  ASP761  ALA762  ILE779  LEU786  VAL792 
 PHE793  MET794  SER795  GLU796  ALA797  LYS798  CYS799  TRP800  GLU811  SER814 

> <Gold.Protein.RotatedAtoms>
  150.6874  134.2587  159.4540 H   0  0  0  0  0  0  0  0  0  0  0  0  # atno 6907 bound_to 6896
  152.0519  134.9646  160.0584 H   0  0  0  0  0  0  0  0  0  0  0  0  # atno 6908 bound_to 6896
  152.1106  133.4264  159.4666 H   0  0  0  0  0  0  0  0  0  0  0  0  # atno 6909 bound_to 6896
  144.7127  140.1171  143.6407 H   0  0  0  0  0  0  0  0  0  0  0  0  # atno 7974 bound_to 7965
  154.6477  140.0583  156.9919 H   0  0  0  0  0  0  0  0  0  0  0  0  # atno 8008 bound_to 7997
  155.1420  140.3266  155.4431 H   0  0  0  0  0  0  0  0  0  0  0  0  # atno 8009 bound_to 7997
  156.2561  140.1962  156.6535 H   0  0  0  0  0  0  0  0  0  0  0  0  # atno 8010 bound_to 7997
  139.9805  144.5830  150.7905 H   0  0  0  0  0  0  0  0  0  0  0  0  # atno 10167 bound_to 10162
  157.4713  130.8257  149.7991 H   0  0  0  0  0  0  0  0  0  0  0  0  # atno 10718 bound_to 10713
  154.5908  135.5547  153.7276 H   0  0  0  0  0  0  0  0  0  0  0  0  # atno 10763 bound_to 10752
  153.0116  135.6343  154.1852 H   0  0  0  0  0  0  0  0  0  0  0  0  # atno 10764 bound_to 10752
  154.1792  135.2888  155.3037 H   0  0  0  0  0  0  0  0  0  0  0  0  # atno 10765 bound_to 10752
  140.8245  134.2591  157.4885 H   0  0  0  0  0  0  0  0  0  0  0  0  # atno 11005 bound_to 11000
  145.9403  139.2665  143.1272 LP  0  0  0  0  0  0  0  0  0  0  0  0  # atno 17320 bound_to 7965
  145.9430  140.8965  143.0298 LP  0  0  0  0  0  0  0  0  0  0  0  0  # atno 17321 bound_to 7965
  140.7491  143.2933  151.3273 LP  0  0  0  0  0  0  0  0  0  0  0  0  # atno 17342 bound_to 10162
  139.6413  144.0533  152.2557 LP  0  0  0  0  0  0  0  0  0  0  0  0  # atno 17343 bound_to 10162
  156.0075  130.3849  150.2381 LP  0  0  0  0  0  0  0  0  0  0  0  0  # atno 17370 bound_to 10713
  157.0563  131.0077  151.3237 LP  0  0  0  0  0  0  0  0  0  0  0  0  # atno 17371 bound_to 10713
  139.8707  134.9553  156.4203 LP  0  0  0  0  0  0  0  0  0  0  0  0  # atno 17394 bound_to 11000
  140.9063  133.7743  155.9739 LP  0  0  0  0  0  0  0  0  0  0  0  0  # atno 17395 bound_to 11000

$$$$
