AV-unprocessed.smi:2482|AV-procd|sdf|9781|dock3
  -GOLD-   2272013423D 1   1.00000     0.00000
 Structure written by MMmdl.
 34 35  0  0  0  0  0  0  0  0  3 V2000
  152.4891  142.0471  160.6569 C   0  0  0  0  0  0  0  0  0  0  0  0
  151.8684  141.8658  159.2843 C   0  0  0  0  0  0  0  0  0  0  0  0
  151.5049  143.0042  158.6553 N   0  0  0  0  0  0  0  0  0  0  0  0
  150.9444  142.8951  157.4346 C   0  0  0  0  0  0  0  0  0  0  0  0
  150.7252  141.6619  156.7924 C   0  0  0  0  0  0  0  0  0  0  0  0
  151.1077  140.4633  157.4347 C   0  0  0  0  0  0  0  0  0  0  0  0
  150.8998  139.2780  156.8375 N   0  5  0  0  0  0  0  0  0  0  0  0
  151.1278  139.1417  155.5084 C   0  0  0  0  0  0  0  0  0  0  0  0
  151.8069  139.8556  154.7678 O   0  0  0  0  0  0  0  0  0  0  0  0
  150.4090  137.9074  154.9430 C   0  0  2  0  0  0  0  0  0  0  0  0
  148.8707  137.9953  155.0641 C   0  0  0  0  0  0  0  0  0  0  0  0
  148.2469  136.7523  154.5575 N   0  3  2  0  0  0  0  0  0  0  0  0
  146.7700  136.7985  154.5961 C   0  0  0  0  0  0  0  0  0  0  0  0
  148.8008  135.5657  155.2483 C   0  0  0  0  0  0  0  0  0  0  0  0
  150.3343  135.5517  155.1361 C   0  0  0  0  0  0  0  0  0  0  0  0
  150.8627  136.7626  155.6612 O   0  0  0  0  0  0  0  0  0  0  0  0
  151.6909  140.5783  158.7236 C   0  0  0  0  0  0  0  0  0  0  0  0
  152.1815  139.1689  159.6066 Cl  0  0  0  0  0  0  0  0  0  0  0  0
  153.4952  141.6277  160.6766 H   0  0  0  0  0  0  0  0  0  0  0  0
  151.8886  141.5417  161.4137 H   0  0  0  0  0  0  0  0  0  0  0  0
  152.5584  143.1009  160.9304 H   0  0  0  0  0  0  0  0  0  0  0  0
  150.6599  143.8195  156.9539 H   0  0  0  0  0  0  0  0  0  0  0  0
  150.2702  141.6392  155.8128 H   0  0  0  0  0  0  0  0  0  0  0  0
  150.6740  137.8001  153.8881 H   0  0  0  0  0  0  0  0  0  0  0  0
  148.5716  138.1467  156.1032 H   0  0  0  0  0  0  0  0  0  0  0  0
  148.4984  138.8473  154.4930 H   0  0  0  0  0  0  0  0  0  0  0  0
  146.4077  136.8887  155.6210 H   0  0  0  0  0  0  0  0  0  0  0  0
  146.3460  135.8931  154.1608 H   0  0  0  0  0  0  0  0  0  0  0  0
  146.3976  137.6493  154.0247 H   0  0  0  0  0  0  0  0  0  0  0  0
  148.5041  135.5808  156.2983 H   0  0  0  0  0  0  0  0  0  0  0  0
  148.3873  134.6564  154.8104 H   0  0  0  0  0  0  0  0  0  0  0  0
  150.7447  134.7139  155.7002 H   0  0  0  0  0  0  0  0  0  0  0  0
  150.6492  135.4221  154.0995 H   0  0  0  0  0  0  0  0  0  0  0  0
  148.5114  136.6732  153.5858 H   0  0  0  0  0  0  0  0  0  0  0  0
  1  2  1  0  0  0  0
  1 19  1  0  0  0  0
  1 20  1  0  0  0  0
  1 21  1  0  0  0  0
  2 17  1  0  0  0  0
  2  3  2  0  0  0  0
  3  4  1  0  0  0  0
  4  5  2  0  0  0  0
  4 22  1  0  0  0  0
  5  6  1  0  0  0  0
  5 23  1  0  0  0  0
  6  7  1  0  0  0  0
  6 17  2  0  0  0  0
  7  8  1  0  0  0  0
  8  9  2  0  0  0  0
  8 10  1  0  0  0  0
 10 16  1  0  0  0  0
 10 11  1  0  0  0  0
 10 24  1  0  0  0  0
 11 12  1  0  0  0  0
 11 25  1  0  0  0  0
 11 26  1  0  0  0  0
 12 13  1  0  0  0  0
 12 14  1  0  0  0  0
 12 34  1  0  0  0  0
 13 27  1  0  0  0  0
 13 28  1  0  0  0  0
 13 29  1  0  0  0  0
 14 15  1  0  0  0  0
 14 30  1  0  0  0  0
 14 31  1  0  0  0  0
 15 16  1  0  0  0  0
 15 32  1  0  0  0  0
 15 33  1  0  0  0  0
 17 18  1  0  0  0  0
M  CHG  1   7  -1
M  CHG  1  12   1
M  END
> <s_m_source_file>
AV-unprocessed.smi

> <i_m_source_file_index>
2482

> <i_lp_mmshare_version>
43012

> <i_f3d_flags>
0

> <s_epik_input>
W0NIM11jMW5bY0hdW2NIXWMoYzFDbClbTkhdQyg9TylbQ0BASF0yW0NIMl1OKFtDSDNdKVtDSDJdW0NIMl1PMg==

> <s_epik_cmdline>
J2VwaWtfcHl0aG9uJywgJy1waCcsICc3LjAnLCAnLXRuJywgJzgnLCAnLW1hJywgJzIwMCcsICctbWV0YWxfYmluZGluZycsICctaW1hZScsICc8aW5maWxlLm1hZT4nLCAnLW9tYWUnLCAnPG91dGZpbGUubWFlPic=

> <r_epik_Ionization_Penalty>
6.9249

> <r_epik_Ionization_Penalty_Charging>
6.74596

> <r_epik_Ionization_Penalty_Neutral>
0.178941

> <r_epik_State_Penalty>
6.78185

> <r_epik_Charging_Adjusted_Penalty>
13.5278

> <i_epik_Tot_Q>
0

> <i_epik_Tot_abs_Q>
2

> <r_epik_Metal_State_Penalty>
2.70608

> <b_epik_Metal_Only>
1

> <s_lp_Force_Field>
OPLS_2005

> <r_lp_Energy>
14.3473

> <b_lp_Chiralities_Consistent>
1

> <s_lp_Variant>
AV-unprocessed.smi:2482-7

> <Gold.Version>
5.8.1

> <Gold.Id.Protein>
6NUR|6NUR_protein|mol2

> <Gold.PLP.Fitness>
40.2431

> <Gold.PLP.PLP>
-28.9266

> <Gold.PLP.part.hbond>
-1.9327

> <Gold.PLP.part.metal>
0.0000

> <Gold.PLP.part.buried>
-4.2732

> <Gold.PLP.part.nonpolar>
-23.0089

> <Gold.PLP.part.repulsive>
0.1681

> <Gold.PLP.ligand.clash>
0.0000

> <Gold.PLP.ligand.torsion>
0.4069

> <Gold.PLP.Chemscore.Hbond>
2.8960

> <Gold.PLP.Chemscore.CHOScore>
1.0000

> <Gold.PLP.Chemscore.Metal>
0.0000

> <Gold.Chemscore.Hbonds>
donor molecule, donor type, donor heavy atom, donor atom, acceptor molecule, acceptor atom, score
      L1  H    12    34       P1  7948  2.00
      P1  H  7989  7998       L1     9  1.00
      L1  C     4    22       P1  8028  1.00

> <Gold.PLP.Chemscore.Internal.Correction>
0.4424

> <Gold.Rescore>
     Score         DG    S(hbond)    S(metal)    S(lipo)     H(rot)  DE(clash)    DE(int)     intcor
     16.00     -17.70       1.89        0.00      72.23       1.00       0.06       1.64       ----

> <Gold.Chemscore.Fitness>
15.9990

> <Gold.Chemscore.DG>
-17.6954

> <Gold.Chemscore.ZeroCoef>
-5.4800

> <Gold.Chemscore.Hbond>
1.8936

> <Gold.Chemscore.Metal>
0.0000

> <Gold.Chemscore.Lipo>
72.2303

> <Gold.Chemscore.Internal_Hbond>
0.0000

> <Gold.Chemscore.DEClash>
0.0553

> <Gold.Chemscore.DEInternal>
1.6411

> <Gold.Chemscore.Rot>
1.0000

> <Gold.Chemscore.Internal.Correction>
   9.000000E+99

> <Gold.Chemscore.Hbonds>
donor molecule, donor type, donor heavy atom, donor atom, acceptor molecule, acceptor atom, score
      L1  H    12    34       P1  7948  1.00
      P1  H  7989  7998       L1     9  0.94

> <Gold.Chemscore.Hbond.Weighted>
-6.3245

> <Gold.Chemscore.Metal.Weighted>
-0.0000

> <Gold.Chemscore.Lipo.Weighted>
-8.4509

> <Gold.Chemscore.Internal_Hbond.Weighted>
0.0000

> <Gold.Chemscore.DEClash.Weighted>
0.0553

> <Gold.Chemscore.DEInternal.Weighted>
1.6411

> <Gold.Chemscore.Rot.Weighted>
2.5600

> <Gold.Chemscore.Internal.Correction.Weighted>
   9.000000E+99

> <Gold.Protein.RotatedTorsions>
[ 6907 6896 6895 6894 ] final  -90.87 input  -60.11 | X-H torsion
[ 7974 7965 7964 7962 ] final   62.58 input  175.53 | X-H torsion
[ 8008 7997 7996 7995 ] final  177.86 input   59.86 | X-H torsion
[ 10167 10162 10161 10158 ] final   27.37 input  -65.29 | X-H torsion
[ 10718 10713 10712 10709 ] final  -64.93 input   66.30 | X-H torsion
[ 10763 10752 10751 10750 ] final  -58.55 input  -60.55 | X-H torsion
[ 11005 11000 10999 10996 ] final -130.79 input  -57.11 | X-H torsion

> <Gold.Protein.ActiveResidues>
 VAL166  LYS551  ARG553  GLY616  TRP617  ASP618  TYR619  PRO620  LYS621  CYS622 
 ASP623  PHE694  ASN695  SER759  ASP760  ASP761  ALA762  ILE779  LEU786  VAL792 
 PHE793  MET794  SER795  GLU796  ALA797  LYS798  CYS799  TRP800  GLU811  SER814 

> <Gold.Protein.RotatedAtoms>
  150.6886  134.2366  159.4455 H   0  0  0  0  0  0  0  0  0  0  0  0  # atno 6907 bound_to 6896
  152.0313  134.9764  160.0582 H   0  0  0  0  0  0  0  0  0  0  0  0  # atno 6908 bound_to 6896
  152.1302  133.4368  159.4754 H   0  0  0  0  0  0  0  0  0  0  0  0  # atno 6909 bound_to 6896
  145.8717  139.3382  143.0759 H   0  0  0  0  0  0  0  0  0  0  0  0  # atno 7974 bound_to 7965
  156.0610  140.1348  156.9941 H   0  0  0  0  0  0  0  0  0  0  0  0  # atno 8008 bound_to 7997
  154.4482  140.0991  156.6588 H   0  0  0  0  0  0  0  0  0  0  0  0  # atno 8009 bound_to 7997
  155.5377  140.3460  155.4442 H   0  0  0  0  0  0  0  0  0  0  0  0  # atno 8010 bound_to 7997
  140.4944  144.0416  150.6309 H   0  0  0  0  0  0  0  0  0  0  0  0  # atno 10167 bound_to 10162
  156.0699  130.4240  150.1491 H   0  0  0  0  0  0  0  0  0  0  0  0  # atno 10718 bound_to 10713
  154.2399  135.6345  153.5203 H   0  0  0  0  0  0  0  0  0  0  0  0  # atno 10763 bound_to 10752
  152.9932  135.5539  154.5922 H   0  0  0  0  0  0  0  0  0  0  0  0  # atno 10764 bound_to 10752
  154.5425  135.2896  155.1057 H   0  0  0  0  0  0  0  0  0  0  0  0  # atno 10765 bound_to 10752
  140.9315  134.1313  157.4231 H   0  0  0  0  0  0  0  0  0  0  0  0  # atno 11005 bound_to 11000
  145.9129  140.9167  143.0444 LP  0  0  0  0  0  0  0  0  0  0  0  0  # atno 17320 bound_to 7965
  144.6726  140.1185  143.7451 LP  0  0  0  0  0  0  0  0  0  0  0  0  # atno 17321 bound_to 7965
  140.3694  143.2863  152.0295 LP  0  0  0  0  0  0  0  0  0  0  0  0  # atno 17342 bound_to 10162
  139.4858  144.6242  151.7197 LP  0  0  0  0  0  0  0  0  0  0  0  0  # atno 17343 bound_to 10162
  156.9544  130.9785  151.3492 LP  0  0  0  0  0  0  0  0  0  0  0  0  # atno 17370 bound_to 10713
  157.5764  130.8346  149.8462 LP  0  0  0  0  0  0  0  0  0  0  0  0  # atno 17371 bound_to 10713
  139.8797  135.0006  156.6022 LP  0  0  0  0  0  0  0  0  0  0  0  0  # atno 17394 bound_to 11000
  140.7856  133.8624  155.8604 LP  0  0  0  0  0  0  0  0  0  0  0  0  # atno 17395 bound_to 11000

$$$$
