AV-unprocessed.smi:1824|AV-procd|sdf|7403|dock3
  -GOLD-   22720 9 73D 1   1.00000     0.00000
 Structure written by MMmdl.
 45 47  0  0  0  0  0  0  0  0  2 V2000
  147.6014  132.6937  154.1566 C   0  0  0  0  0  0  0  0  0  0  0  0
  147.3419  133.4786  152.8661 C   0  0  2  0  0  0  0  0  0  0  0  0
  146.3628  134.6479  153.0830 C   0  0  0  0  0  0  0  0  0  0  0  0
  146.0790  135.3330  151.8002 N   0  3  2  0  0  0  0  0  0  0  0  0
  145.1928  136.5130  151.9686 C   0  0  0  0  0  0  0  0  0  0  0  0
  145.9804  137.8265  152.1440 C   0  0  2  0  0  0  0  0  0  0  0  0
  146.8209  138.0031  151.0193 O   0  0  0  0  0  0  0  0  0  0  0  0
  146.8372  137.8106  153.4244 C   0  0  0  0  0  0  0  0  0  0  0  0
  147.4409  139.1012  153.7065 N   0  0  0  0  0  0  0  0  0  0  0  0
  146.9653  140.3112  153.3545 C   0  0  0  0  0  0  0  0  0  0  0  0
  147.6793  141.3741  153.7129 N   0  0  0  0  0  0  0  0  0  0  0  0
  148.7406  140.7872  154.3802 C   0  0  0  0  0  0  0  0  0  0  0  0
  149.8620  141.3705  155.0122 C   0  0  0  0  0  0  0  0  0  0  0  0
  150.8323  140.5595  155.6371 C   0  0  0  0  0  0  0  0  0  0  0  0
  151.9006  141.1346  156.2382 F   0  0  0  0  0  0  0  0  0  0  0  0
  150.6962  139.1551  155.6385 C   0  0  0  0  0  0  0  0  0  0  0  0
  151.6324  138.3839  156.2399 F   0  0  0  0  0  0  0  0  0  0  0  0
  149.5876  138.5514  155.0145 C   0  0  0  0  0  0  0  0  0  0  0  0
  148.6213  139.3645  154.3939 C   0  0  0  0  0  0  0  0  0  0  0  0
  145.5892  134.3590  150.7936 C   0  0  0  0  0  0  0  0  0  0  0  0
  146.5887  133.1972  150.6373 C   0  0  2  0  0  0  0  0  0  0  0  0
  146.0835  132.1258  149.6647 C   0  0  0  0  0  0  0  0  0  0  0  0
  146.7906  132.5841  151.9058 O   0  0  0  0  0  0  0  0  0  0  0  0
  148.0297  133.3351  154.9271 H   0  0  0  0  0  0  0  0  0  0  0  0
  148.2996  131.8750  153.9804 H   0  0  0  0  0  0  0  0  0  0  0  0
  146.6795  132.2655  154.5510 H   0  0  0  0  0  0  0  0  0  0  0  0
  148.2949  133.8605  152.4958 H   0  0  0  0  0  0  0  0  0  0  0  0
  145.4288  134.2857  153.5163 H   0  0  0  0  0  0  0  0  0  0  0  0
  146.7922  135.3579  153.7914 H   0  0  0  0  0  0  0  0  0  0  0  0
  144.5189  136.5806  151.1131 H   0  0  0  0  0  0  0  0  0  0  0  0
  144.5562  136.3731  152.8441 H   0  0  0  0  0  0  0  0  0  0  0  0
  145.2990  138.6753  152.1958 H   0  0  0  0  0  0  0  0  0  0  0  0
  147.6751  137.6533  151.2244 H   0  0  0  0  0  0  0  0  0  0  0  0
  146.2247  137.5283  154.2818 H   0  0  0  0  0  0  0  0  0  0  0  0
  147.6281  137.0631  153.3490 H   0  0  0  0  0  0  0  0  0  0  0  0
  146.0435  140.4176  152.8011 H   0  0  0  0  0  0  0  0  0  0  0  0
  149.9769  142.4442  155.0169 H   0  0  0  0  0  0  0  0  0  0  0  0
  149.4829  137.4768  155.0141 H   0  0  0  0  0  0  0  0  0  0  0  0
  144.6147  133.9762  151.1019 H   0  0  0  0  0  0  0  0  0  0  0  0
  145.4490  134.8464  149.8295 H   0  0  0  0  0  0  0  0  0  0  0  0
  147.5416  133.5793  150.2668 H   0  0  0  0  0  0  0  0  0  0  0  0
  145.9243  132.5417  148.6695 H   0  0  0  0  0  0  0  0  0  0  0  0
  145.1399  131.6972  150.0036 H   0  0  0  0  0  0  0  0  0  0  0  0
  146.8039  131.3128  149.5724 H   0  0  0  0  0  0  0  0  0  0  0  0
  146.9649  135.6877  151.4680 H   0  0  0  0  0  0  0  0  0  0  0  0
  1  2  1  0  0  0  0
  1 24  1  0  0  0  0
  1 25  1  0  0  0  0
  1 26  1  0  0  0  0
  2 23  1  0  0  0  0
  2  3  1  0  0  0  0
  2 27  1  0  0  0  0
  3  4  1  0  0  0  0
  3 28  1  0  0  0  0
  3 29  1  0  0  0  0
  4  5  1  0  0  0  0
  4 20  1  0  0  0  0
  4 45  1  0  0  0  0
  5  6  1  0  0  0  0
  5 30  1  0  0  0  0
  5 31  1  0  0  0  0
  6  7  1  0  0  0  0
  6  8  1  0  0  0  0
  6 32  1  0  0  0  0
  7 33  1  0  0  0  0
  8  9  1  0  0  0  0
  8 34  1  0  0  0  0
  8 35  1  0  0  0  0
  9 19  1  0  0  0  0
  9 10  1  0  0  0  0
 10 11  2  0  0  0  0
 10 36  1  0  0  0  0
 11 12  1  0  0  0  0
 12 19  2  0  0  0  0
 12 13  1  0  0  0  0
 13 14  2  0  0  0  0
 13 37  1  0  0  0  0
 14 15  1  0  0  0  0
 14 16  1  0  0  0  0
 16 17  1  0  0  0  0
 16 18  2  0  0  0  0
 18 19  1  0  0  0  0
 18 38  1  0  0  0  0
 20 21  1  0  0  0  0
 20 39  1  0  0  0  0
 20 40  1  0  0  0  0
 21 22  1  0  0  0  0
 21 23  1  0  0  0  0
 21 41  1  0  0  0  0
 22 42  1  0  0  0  0
 22 43  1  0  0  0  0
 22 44  1  0  0  0  0
M  CHG  1   4   1
M  END
> <s_m_source_file>
AV-unprocessed.smi

> <i_m_source_file_index>
1824

> <i_lp_mmshare_version>
43012

> <i_f3d_flags>
0

> <s_epik_input>
W0NIM11bQ0BASF0xW0NIMl1OKFtDSDJdW0NASF0oTzEpW0NIM10pW0NIMl1bQ0BIXShbT0hdKVtDSDJdbihbY0hdbjIpYyhjMjMpW2NIXWMoRiljKEYpW2NIXTM=

> <s_epik_cmdline>
J2VwaWtfcHl0aG9uJywgJy1waCcsICc3LjAnLCAnLXRuJywgJzgnLCAnLW1hJywgJzIwMCcsICctbWV0YWxfYmluZGluZycsICctaW1hZScsICc8aW5maWxlLm1hZT4nLCAnLW9tYWUnLCAnPG91dGZpbGUubWFlPic=

> <r_epik_Ionization_Penalty>
0.61967

> <r_epik_Ionization_Penalty_Charging>
0.608065

> <r_epik_Ionization_Penalty_Neutral>
0.0116057

> <r_epik_State_Penalty>
0.664205

> <r_epik_Charging_Adjusted_Penalty>
1.27227

> <i_epik_Tot_Q>
1

> <i_epik_Tot_abs_Q>
1

> <r_epik_Metal_State_Penalty>
0.654947

> <b_epik_Metal_Only>
0

> <s_lp_Force_Field>
OPLS_2005

> <r_lp_Energy>
19.9364

> <b_lp_Chiralities_Consistent>
1

> <s_lp_Variant>
AV-unprocessed.smi:1824-11

> <Gold.Version>
5.8.1

> <Gold.Id.Protein>
6NUR|6NUR_protein|mol2

> <Gold.PLP.Fitness>
46.5630

> <Gold.PLP.PLP>
-36.3908

> <Gold.PLP.part.hbond>
-3.3057

> <Gold.PLP.part.metal>
0.0000

> <Gold.PLP.part.buried>
-2.4707

> <Gold.PLP.part.nonpolar>
-31.1251

> <Gold.PLP.part.repulsive>
0.3487

> <Gold.PLP.ligand.clash>
0.0000

> <Gold.PLP.ligand.torsion>
0.9043

> <Gold.PLP.Chemscore.Hbond>
2.9825

> <Gold.PLP.Chemscore.CHOScore>
1.0000

> <Gold.PLP.Chemscore.Metal>
0.0000

> <Gold.Chemscore.Hbonds>
donor molecule, donor type, donor heavy atom, donor atom, acceptor molecule, acceptor atom, score
      L1  H     4    45       P1  7948  1.89
      L1  H     7    33       P1  7948  1.00
      L1  C    10    36       P1 10175  1.00

> <Gold.PLP.Chemscore.Internal.Correction>
0.0333

> <Gold.Rescore>
     Score         DG    S(hbond)    S(metal)    S(lipo)     H(rot)  DE(clash)    DE(int)     intcor
     15.37     -16.57       1.97        0.00      89.58       2.33       0.22       0.99       ----

> <Gold.Chemscore.Fitness>
15.3718

> <Gold.Chemscore.DG>
-16.5732

> <Gold.Chemscore.ZeroCoef>
-5.4800

> <Gold.Chemscore.Hbond>
1.9653

> <Gold.Chemscore.Metal>
0.0000

> <Gold.Chemscore.Lipo>
89.5840

> <Gold.Chemscore.Internal_Hbond>
0.0000

> <Gold.Chemscore.DEClash>
0.2150

> <Gold.Chemscore.DEInternal>
0.9863

> <Gold.Chemscore.Rot>
2.3251

> <Gold.Chemscore.Internal.Correction>
   9.000000E+99

> <Gold.Chemscore.Hbonds>
donor molecule, donor type, donor heavy atom, donor atom, acceptor molecule, acceptor atom, score
      L1  H     4    45       P1  7948  0.85
      L1  H     7    33       P1  7948  0.96

> <Gold.Chemscore.Hbond.Weighted>
-6.5642

> <Gold.Chemscore.Metal.Weighted>
-0.0000

> <Gold.Chemscore.Lipo.Weighted>
-10.4813

> <Gold.Chemscore.Internal_Hbond.Weighted>
0.0000

> <Gold.Chemscore.DEClash.Weighted>
0.2150

> <Gold.Chemscore.DEInternal.Weighted>
0.9863

> <Gold.Chemscore.Rot.Weighted>
5.9523

> <Gold.Chemscore.Internal.Correction.Weighted>
   9.000000E+99

> <Gold.Protein.RotatedTorsions>
[ 6907 6896 6895 6894 ] final  142.19 input  -60.11 | X-H torsion
[ 7974 7965 7964 7962 ] final  176.95 input  175.53 | X-H torsion
[ 8008 7997 7996 7995 ] final   44.69 input   59.86 | X-H torsion
[ 10167 10162 10161 10158 ] final -147.37 input  -65.29 | X-H torsion
[ 10718 10713 10712 10709 ] final  126.20 input   66.30 | X-H torsion
[ 10763 10752 10751 10750 ] final  128.73 input  -60.55 | X-H torsion
[ 11005 11000 10999 10996 ] final -102.91 input  -57.11 | X-H torsion

> <Gold.Protein.ActiveResidues>
 VAL166  LYS551  ARG553  GLY616  TRP617  ASP618  TYR619  PRO620  LYS621  CYS622 
 ASP623  PHE694  ASN695  SER759  ASP760  ASP761  ALA762  ILE779  LEU786  VAL792 
 PHE793  MET794  SER795  GLU796  ALA797  LYS798  CYS799  TRP800  GLU811  SER814 

> <Gold.Protein.RotatedAtoms>
  152.2217  133.4989  159.5166 H   0  0  0  0  0  0  0  0  0  0  0  0  # atno 6907 bound_to 6896
  150.7014  134.1333  159.4087 H   0  0  0  0  0  0  0  0  0  0  0  0  # atno 6908 bound_to 6896
  151.9254  135.0280  160.0576 H   0  0  0  0  0  0  0  0  0  0  0  0  # atno 6909 bound_to 6896
  144.7176  140.0174  143.6440 H   0  0  0  0  0  0  0  0  0  0  0  0  # atno 7974 bound_to 7965
  155.3234  140.3398  155.4241 H   0  0  0  0  0  0  0  0  0  0  0  0  # atno 8008 bound_to 7997
  156.1897  140.1693  156.8152 H   0  0  0  0  0  0  0  0  0  0  0  0  # atno 8009 bound_to 7997
  154.5428  140.0721  156.8522 H   0  0  0  0  0  0  0  0  0  0  0  0  # atno 8010 bound_to 7997
  139.7628  143.8352  152.2610 H   0  0  0  0  0  0  0  0  0  0  0  0  # atno 10167 bound_to 10162
  157.5439  131.1096  150.8814 H   0  0  0  0  0  0  0  0  0  0  0  0  # atno 10718 bound_to 10713
  153.7302  135.3240  155.3284 H   0  0  0  0  0  0  0  0  0  0  0  0  # atno 10763 bound_to 10752
  154.8328  135.4520  154.1129 H   0  0  0  0  0  0  0  0  0  0  0  0  # atno 10764 bound_to 10752
  153.2274  135.6956  153.8010 H   0  0  0  0  0  0  0  0  0  0  0  0  # atno 10765 bound_to 10752
  141.1169  133.8597  157.1420 H   0  0  0  0  0  0  0  0  0  0  0  0  # atno 11005 bound_to 11000
  146.0209  139.3250  143.0813 LP  0  0  0  0  0  0  0  0  0  0  0  0  # atno 17320 bound_to 7965
  145.8570  140.9497  143.0720 LP  0  0  0  0  0  0  0  0  0  0  0  0  # atno 17321 bound_to 7965
  139.8363  144.7230  150.9387 LP  0  0  0  0  0  0  0  0  0  0  0  0  # atno 17342 bound_to 10162
  140.7808  143.4024  151.1128 LP  0  0  0  0  0  0  0  0  0  0  0  0  # atno 17343 bound_to 10162
  156.9358  130.5366  149.5279 LP  0  0  0  0  0  0  0  0  0  0  0  0  # atno 17370 bound_to 10713
  156.0519  130.5587  150.9008 LP  0  0  0  0  0  0  0  0  0  0  0  0  # atno 17371 bound_to 10713
  140.0097  134.9993  157.0369 LP  0  0  0  0  0  0  0  0  0  0  0  0  # atno 17394 bound_to 11000
  140.4621  134.1474  155.7192 LP  0  0  0  0  0  0  0  0  0  0  0  0  # atno 17395 bound_to 11000

$$$$
