AV-unprocessed.smi:2405|AV-procd|sdf|9513|dock3
  -GOLD-   2272013143D 1   1.00000     0.00000
 Structure written by MMmdl.
 36 37  0  0  0  0  0  0  0  0  2 V2000
  152.6707  142.6456  161.9913 C   0  0  0  0  0  0  0  0  0  0  0  0
  152.3308  143.8136  161.0596 C   0  0  0  0  0  0  0  0  0  0  0  0
  151.8560  143.3593  159.7200 C   0  0  0  0  0  0  0  0  0  0  0  0
  151.7765  142.0748  159.3634 N   0  0  0  0  0  0  0  0  0  0  0  0
  151.3262  141.9057  158.0496 C   0  0  0  0  0  0  0  0  0  0  0  0
  151.1610  140.5256  157.4840 C   0  0  0  0  0  0  0  0  0  0  0  0
  150.7673  140.6070  156.0090 C   0  0  0  0  0  0  0  0  0  0  0  0
  151.5519  140.2265  155.1396 O   0  0  0  0  0  0  0  0  0  0  0  0
  149.5502  141.1039  155.7423 N   0  0  0  0  0  0  0  0  0  0  0  0
  148.9784  141.2652  154.4087 C   0  0  1  0  0  0  0  0  0  0  0  0
  148.6368  139.9041  153.7657 C   0  0  0  0  0  0  0  0  0  0  0  0
  147.1524  139.9718  153.3866 C   0  0  0  0  0  0  0  0  0  0  0  0
  146.5318  141.0000  154.3474 C   0  0  1  0  0  0  0  0  0  0  0  0
  146.1495  140.4110  155.7228 C   0  0  0  0  0  0  0  0  0  0  0  0
  146.7492  140.8759  156.7171 O   0  0  0  0  0  0  0  0  0  0  0  0
  145.2709  139.5218  155.7755 O   0  5  0  0  0  0  0  0  0  0  0  0
  147.6519  142.0445  154.4860 C   0  0  0  0  0  0  0  0  0  0  0  0
  151.0859  143.0942  157.4050 C   0  0  0  0  0  0  0  0  0  0  0  0
  151.4084  144.4668  158.4278 S   0  0  0  0  0  0  0  0  0  0  0  0
  153.0191  143.0088  162.9582 H   0  0  0  0  0  0  0  0  0  0  0  0
  153.4564  142.0196  161.5672 H   0  0  0  0  0  0  0  0  0  0  0  0
  151.7978  142.0159  162.1661 H   0  0  0  0  0  0  0  0  0  0  0  0
  151.5615  144.4399  161.5128 H   0  0  0  0  0  0  0  0  0  0  0  0
  153.2080  144.4465  160.9222 H   0  0  0  0  0  0  0  0  0  0  0  0
  152.0895  139.9605  157.5744 H   0  0  0  0  0  0  0  0  0  0  0  0
  150.4054  139.9636  158.0356 H   0  0  0  0  0  0  0  0  0  0  0  0
  148.9697  141.3836  156.5204 H   0  0  0  0  0  0  0  0  0  0  0  0
  149.6796  141.8193  153.7819 H   0  0  0  0  0  0  0  0  0  0  0  0
  149.2627  139.6960  152.8976 H   0  0  0  0  0  0  0  0  0  0  0  0
  148.7919  139.0884  154.4735 H   0  0  0  0  0  0  0  0  0  0  0  0
  147.0584  140.3422  152.3651 H   0  0  0  0  0  0  0  0  0  0  0  0
  146.6711  138.9933  153.4072 H   0  0  0  0  0  0  0  0  0  0  0  0
  145.6340  141.4429  153.9153 H   0  0  0  0  0  0  0  0  0  0  0  0
  147.5736  142.6585  155.3850 H   0  0  0  0  0  0  0  0  0  0  0  0
  147.5925  142.7334  153.6425 H   0  0  0  0  0  0  0  0  0  0  0  0
  150.7380  143.2432  156.3934 H   0  0  0  0  0  0  0  0  0  0  0  0
  1  2  1  0  0  0  0
  1 20  1  0  0  0  0
  1 21  1  0  0  0  0
  1 22  1  0  0  0  0
  2  3  1  0  0  0  0
  2 23  1  0  0  0  0
  2 24  1  0  0  0  0
  3 19  1  0  0  0  0
  3  4  2  0  0  0  0
  4  5  1  0  0  0  0
  5  6  1  0  0  0  0
  5 18  2  0  0  0  0
  6  7  1  0  0  0  0
  6 25  1  0  0  0  0
  6 26  1  0  0  0  0
  7  8  2  0  0  0  0
  7  9  1  0  0  0  0
  9 10  1  0  0  0  0
  9 27  1  0  0  0  0
 10 17  1  0  0  0  0
 10 11  1  0  0  0  0
 10 28  1  0  0  0  0
 11 12  1  0  0  0  0
 11 29  1  0  0  0  0
 11 30  1  0  0  0  0
 12 13  1  0  0  0  0
 12 31  1  0  0  0  0
 12 32  1  0  0  0  0
 13 14  1  0  0  0  0
 13 17  1  0  0  0  0
 13 33  1  0  0  0  0
 14 15  2  0  0  0  0
 14 16  1  0  0  0  0
 17 34  1  0  0  0  0
 17 35  1  0  0  0  0
 18 19  1  0  0  0  0
 18 36  1  0  0  0  0
M  CHG  1  16  -1
M  END
> <s_m_source_file>
AV-unprocessed.smi

> <i_m_source_file_index>
2405

> <i_lp_mmshare_version>
43012

> <i_f3d_flags>
0

> <s_epik_input>
W0NIM11bQ0gyXWMxbmMoW2NIXXMxKVtDSDJdQyg9TylbTkhdW0NAQEhdMltDSDJdW0NIMl1bQ0BIXShbQ0gyXTIpQyg9TylbT0hd

> <s_epik_cmdline>
J2VwaWtfcHl0aG9uJywgJy1waCcsICc3LjAnLCAnLXRuJywgJzgnLCAnLW1hJywgJzIwMCcsICctbWV0YWxfYmluZGluZycsICctaW1hZScsICc8aW5maWxlLm1hZT4nLCAnLW9tYWUnLCAnPG91dGZpbGUubWFlPic=

> <r_epik_Ionization_Penalty>
0.000544611

> <r_epik_Ionization_Penalty_Charging>
0.000481685

> <r_epik_Ionization_Penalty_Neutral>
6.29266e-05

> <r_epik_State_Penalty>
0.00029893

> <r_epik_Charging_Adjusted_Penalty>
0.000780614

> <i_epik_Tot_Q>
-1

> <i_epik_Tot_abs_Q>
1

> <r_epik_Metal_State_Penalty>
-0

> <b_epik_Metal_Only>
0

> <s_lp_Force_Field>
OPLS_2005

> <r_lp_Energy>
7.49368

> <b_lp_Chiralities_Consistent>
1

> <s_lp_Variant>
AV-unprocessed.smi:2405-2

> <Gold.Version>
5.8.1

> <Gold.Id.Protein>
6NUR|6NUR_protein|mol2

> <Gold.PLP.Fitness>
43.3166

> <Gold.PLP.PLP>
-37.8623

> <Gold.PLP.part.hbond>
-1.0000

> <Gold.PLP.part.metal>
0.0000

> <Gold.PLP.part.buried>
-1.9059

> <Gold.PLP.part.nonpolar>
-35.4356

> <Gold.PLP.part.repulsive>
0.2233

> <Gold.PLP.ligand.clash>
0.0000

> <Gold.PLP.ligand.torsion>
0.1695

> <Gold.PLP.Chemscore.Hbond>
0.9920

> <Gold.PLP.Chemscore.CHOScore>
0.9233

> <Gold.PLP.Chemscore.Metal>
0.0000

> <Gold.Chemscore.Hbonds>
donor molecule, donor type, donor heavy atom, donor atom, acceptor molecule, acceptor atom, score
      P1  H  7989  7998       L1     8  0.98
      L1  C    18    36       P1  8028  0.93

> <Gold.PLP.Chemscore.Internal.Correction>
0.0473

> <Gold.Rescore>
     Score         DG    S(hbond)    S(metal)    S(lipo)     H(rot)  DE(clash)    DE(int)     intcor
     14.71     -15.93       0.96        0.00     106.88       2.06       0.34       0.88       ----

> <Gold.Chemscore.Fitness>
14.7072

> <Gold.Chemscore.DG>
-15.9253

> <Gold.Chemscore.ZeroCoef>
-5.4800

> <Gold.Chemscore.Hbond>
0.9648

> <Gold.Chemscore.Metal>
0.0000

> <Gold.Chemscore.Lipo>
106.8820

> <Gold.Chemscore.Internal_Hbond>
0.0000

> <Gold.Chemscore.DEClash>
0.3408

> <Gold.Chemscore.DEInternal>
0.8773

> <Gold.Chemscore.Rot>
2.0635

> <Gold.Chemscore.Internal.Correction>
   9.000000E+99

> <Gold.Chemscore.Hbonds>
donor molecule, donor type, donor heavy atom, donor atom, acceptor molecule, acceptor atom, score
      P1  H  7989  7998       L1     8  0.93

> <Gold.Chemscore.Hbond.Weighted>
-3.2225

> <Gold.Chemscore.Metal.Weighted>
-0.0000

> <Gold.Chemscore.Lipo.Weighted>
-12.5052

> <Gold.Chemscore.Internal_Hbond.Weighted>
0.0000

> <Gold.Chemscore.DEClash.Weighted>
0.3408

> <Gold.Chemscore.DEInternal.Weighted>
0.8773

> <Gold.Chemscore.Rot.Weighted>
5.2825

> <Gold.Chemscore.Internal.Correction.Weighted>
   9.000000E+99

> <Gold.Protein.RotatedTorsions>
[ 6907 6896 6895 6894 ] final   96.79 input  -60.11 | X-H torsion
[ 7974 7965 7964 7962 ] final   -3.83 input  175.53 | X-H torsion
[ 8008 7997 7996 7995 ] final   39.55 input   59.86 | X-H torsion
[ 10167 10162 10161 10158 ] final  -43.47 input  -65.29 | X-H torsion
[ 10718 10713 10712 10709 ] final  -74.46 input   66.30 | X-H torsion
[ 10763 10752 10751 10750 ] final  -37.94 input  -60.55 | X-H torsion
[ 11005 11000 10999 10996 ] final   -9.19 input  -57.11 | X-H torsion

> <Gold.Protein.ActiveResidues>
 VAL166  LYS551  ARG553  GLY616  TRP617  ASP618  TYR619  PRO620  LYS621  CYS622 
 ASP623  PHE694  ASN695  SER759  ASP760  ASP761  ALA762  ILE779  LEU786  VAL792 
 PHE793  MET794  SER795  GLU796  ALA797  LYS798  CYS799  TRP800  GLU811  SER814 

> <Gold.Protein.RotatedAtoms>
  152.5431  134.0832  159.8244 H   0  0  0  0  0  0  0  0  0  0  0  0  # atno 6907 bound_to 6896
  151.0931  133.5293  159.2621 H   0  0  0  0  0  0  0  0  0  0  0  0  # atno 6908 bound_to 6896
  151.2077  135.0477  159.8952 H   0  0  0  0  0  0  0  0  0  0  0  0  # atno 6909 bound_to 6896
  146.2383  140.1779  142.8332 H   0  0  0  0  0  0  0  0  0  0  0  0  # atno 7974 bound_to 7965
  155.2384  140.3343  155.4295 H   0  0  0  0  0  0  0  0  0  0  0  0  # atno 8008 bound_to 7997
  156.2266  140.1832  156.7393 H   0  0  0  0  0  0  0  0  0  0  0  0  # atno 8009 bound_to 7997
  154.5909  140.0638  156.9222 H   0  0  0  0  0  0  0  0  0  0  0  0  # atno 8010 bound_to 7997
  140.6932  143.2981  151.3357 H   0  0  0  0  0  0  0  0  0  0  0  0  # atno 10167 bound_to 10162
  156.0242  130.4417  150.2896 H   0  0  0  0  0  0  0  0  0  0  0  0  # atno 10718 bound_to 10713
  153.9047  135.6799  153.4753 H   0  0  0  0  0  0  0  0  0  0  0  0  # atno 10763 bound_to 10752
  153.1110  135.4783  154.9033 H   0  0  0  0  0  0  0  0  0  0  0  0  # atno 10764 bound_to 10752
  154.7557  135.3197  154.8428 H   0  0  0  0  0  0  0  0  0  0  0  0  # atno 10765 bound_to 10752
  140.7315  133.8745  155.8896 H   0  0  0  0  0  0  0  0  0  0  0  0  # atno 11005 bound_to 11000
  144.9958  140.8588  143.5312 LP  0  0  0  0  0  0  0  0  0  0  0  0  # atno 17320 bound_to 7965
  145.1792  139.2361  143.5301 LP  0  0  0  0  0  0  0  0  0  0  0  0  # atno 17321 bound_to 7965
  139.6358  144.0633  152.2514 LP  0  0  0  0  0  0  0  0  0  0  0  0  # atno 17342 bound_to 10162
  140.0122  144.6215  150.7637 LP  0  0  0  0  0  0  0  0  0  0  0  0  # atno 17343 bound_to 10162
  157.0999  131.0193  151.3089 LP  0  0  0  0  0  0  0  0  0  0  0  0  # atno 17370 bound_to 10713
  157.4788  130.7752  149.7393 LP  0  0  0  0  0  0  0  0  0  0  0  0  # atno 17371 bound_to 10713
  140.9917  134.1270  157.4402 LP  0  0  0  0  0  0  0  0  0  0  0  0  # atno 17394 bound_to 11000
  139.8825  135.0042  156.6236 LP  0  0  0  0  0  0  0  0  0  0  0  0  # atno 17395 bound_to 11000

$$$$
