AV-unprocessed.smi:1216|AV-procd|sdf|5100|dock2
  -GOLD-   22720 4153D 1   1.00000     0.00000
 Structure written by MMmdl.
 42 43  0  0  0  0  0  0  0  0  1 V2000
  147.1470  142.2996  154.4341 C   0  0  0  0  0  0  0  0  0  0  0  0
  148.3443  141.4119  154.7982 C   0  0  2  0  0  0  0  0  0  0  0  0
  148.0661  139.9296  154.4663 C   0  0  0  0  0  0  0  0  0  0  0  0
  149.2501  139.0960  154.5756 N   0  0  0  0  0  0  0  0  0  0  0  0
  150.4529  139.2537  153.8996 C   0  0  0  0  0  0  0  0  0  0  0  0
  151.2816  138.2423  154.3304 C   0  0  0  0  0  0  0  0  0  0  0  0
  150.6105  137.4487  155.2576 N   0  0  0  0  0  0  0  0  0  0  0  0
  149.4127  138.0123  155.3470 C   0  0  0  0  0  0  0  0  0  0  0  0
  148.6451  141.5789  156.2197 N   0  0  0  0  0  0  0  0  0  0  0  0
  149.8674  141.5192  156.7718 C   0  0  0  0  0  0  0  0  0  0  0  0
  150.9003  141.3652  156.1189 O   0  0  0  0  0  0  0  0  0  0  0  0
  149.9333  141.6606  158.2966 C   0  0  0  0  0  0  0  0  0  0  0  0
  151.3180  141.7865  158.7745 N   0  0  0  0  0  0  0  0  0  0  0  0
  151.8753  143.1470  158.8458 C   0  0  0  0  0  0  0  0  0  0  0  0
  152.1334  143.6434  160.2872 C   0  0  0  0  0  0  0  0  0  0  0  0
  152.4839  142.5622  161.3285 C   0  0  0  0  0  0  0  0  0  0  0  0
  153.6381  141.6195  160.9286 C   0  0  0  0  0  0  0  0  0  0  0  0
  153.5017  140.8997  159.5656 C   0  0  0  0  0  0  0  0  0  0  0  0
  152.0517  140.6921  159.0993 C   0  0  0  0  0  0  0  0  0  0  0  0
  151.6092  139.5446  159.0362 O   0  0  0  0  0  0  0  0  0  0  0  0
  146.9108  142.2228  153.3723 H   0  0  0  0  0  0  0  0  0  0  0  0
  147.3550  143.3484  154.6487 H   0  0  0  0  0  0  0  0  0  0  0  0
  146.2556  142.0148  154.9941 H   0  0  0  0  0  0  0  0  0  0  0  0
  149.1900  141.7521  154.1977 H   0  0  0  0  0  0  0  0  0  0  0  0
  147.2912  139.5293  155.1219 H   0  0  0  0  0  0  0  0  0  0  0  0
  147.6894  139.8387  153.4469 H   0  0  0  0  0  0  0  0  0  0  0  0
  150.6182  140.0558  153.1958 H   0  0  0  0  0  0  0  0  0  0  0  0
  152.3007  138.0258  154.0455 H   0  0  0  0  0  0  0  0  0  0  0  0
  148.6383  137.6330  155.9972 H   0  0  0  0  0  0  0  0  0  0  0  0
  147.8573  141.7152  156.8364 H   0  0  0  0  0  0  0  0  0  0  0  0
  149.3506  142.5348  158.5884 H   0  0  0  0  0  0  0  0  0  0  0  0
  149.4411  140.8126  158.7769 H   0  0  0  0  0  0  0  0  0  0  0  0
  152.8001  143.1853  158.2697 H   0  0  0  0  0  0  0  0  0  0  0  0
  151.2220  143.8572  158.3375 H   0  0  0  0  0  0  0  0  0  0  0  0
  152.9211  144.3973  160.2630 H   0  0  0  0  0  0  0  0  0  0  0  0
  151.2414  144.1630  160.6386 H   0  0  0  0  0  0  0  0  0  0  0  0
  152.7386  143.0514  162.2691 H   0  0  0  0  0  0  0  0  0  0  0  0
  151.5933  141.9727  161.5502 H   0  0  0  0  0  0  0  0  0  0  0  0
  154.5716  142.1833  160.9300 H   0  0  0  0  0  0  0  0  0  0  0  0
  153.7502  140.8682  161.7110 H   0  0  0  0  0  0  0  0  0  0  0  0
  154.0448  141.4470  158.7955 H   0  0  0  0  0  0  0  0  0  0  0  0
  154.0012  139.9314  159.6202 H   0  0  0  0  0  0  0  0  0  0  0  0
  1  2  1  0  0  0  0
  1 21  1  0  0  0  0
  1 22  1  0  0  0  0
  1 23  1  0  0  0  0
  2  3  1  0  0  0  0
  2  9  1  0  0  0  0
  2 24  1  0  0  0  0
  3  4  1  0  0  0  0
  3 25  1  0  0  0  0
  3 26  1  0  0  0  0
  4  8  1  0  0  0  0
  4  5  1  0  0  0  0
  5  6  2  0  0  0  0
  5 27  1  0  0  0  0
  6  7  1  0  0  0  0
  6 28  1  0  0  0  0
  7  8  2  0  0  0  0
  8 29  1  0  0  0  0
  9 10  1  0  0  0  0
  9 30  1  0  0  0  0
 10 11  2  0  0  0  0
 10 12  1  0  0  0  0
 12 13  1  0  0  0  0
 12 31  1  0  0  0  0
 12 32  1  0  0  0  0
 13 19  1  0  0  0  0
 13 14  1  0  0  0  0
 14 15  1  0  0  0  0
 14 33  1  0  0  0  0
 14 34  1  0  0  0  0
 15 16  1  0  0  0  0
 15 35  1  0  0  0  0
 15 36  1  0  0  0  0
 16 17  1  0  0  0  0
 16 37  1  0  0  0  0
 16 38  1  0  0  0  0
 17 18  1  0  0  0  0
 17 39  1  0  0  0  0
 17 40  1  0  0  0  0
 18 19  1  0  0  0  0
 18 41  1  0  0  0  0
 18 42  1  0  0  0  0
 19 20  2  0  0  0  0
M  END
> <s_m_source_file>
AV-unprocessed.smi

> <i_m_source_file_index>
1216

> <i_lp_mmshare_version>
43012

> <i_f3d_flags>
0

> <s_epik_input>
W2NIXTFuW2NIXVtjSF1uMVtDSDJdW0NAQEhdKFtDSDNdKVtOSF1DKD1PKVtDSDJdTjJbQ0gyXVtDSDJdW0NIMl1bQ0gyXVtDSDJdQzI9Tw==

> <s_epik_cmdline>
J2VwaWtfcHl0aG9uJywgJy1waCcsICc3LjAnLCAnLXRuJywgJzgnLCAnLW1hJywgJzIwMCcsICctbWV0YWxfYmluZGluZycsICctaW1hZScsICc8aW5maWxlLm1hZT4nLCAnLW9tYWUnLCAnPG91dGZpbGUubWFlPic=

> <r_lp_tautomer_probability>
1

> <r_epik_Ionization_Penalty>
0.623868

> <r_epik_Ionization_Penalty_Charging>
0.623868

> <r_epik_Ionization_Penalty_Neutral>
4.50838e-08

> <r_epik_State_Penalty>
0.640129

> <r_epik_Charging_Adjusted_Penalty>
1.264

> <i_epik_Tot_Q>
0

> <i_epik_Tot_abs_Q>
0

> <r_epik_Metal_State_Penalty>
0.307431

> <b_epik_Metal_Only>
0

> <s_lp_Force_Field>
OPLS_2005

> <r_lp_Energy>
19.0473

> <b_lp_Chiralities_Consistent>
1

> <s_lp_Variant>
AV-unprocessed.smi:1216-3

> <Gold.Version>
5.8.1

> <Gold.Id.Protein>
6NUR|6NUR_protein|mol2

> <Gold.PLP.Fitness>
43.7026

> <Gold.PLP.PLP>
-42.3777

> <Gold.PLP.part.hbond>
-1.1146

> <Gold.PLP.part.metal>
0.0000

> <Gold.PLP.part.buried>
-5.7934

> <Gold.PLP.part.nonpolar>
-35.6448

> <Gold.PLP.part.repulsive>
0.1716

> <Gold.PLP.ligand.clash>
0.0000

> <Gold.PLP.ligand.torsion>
0.8654

> <Gold.PLP.Chemscore.Hbond>
0.0000

> <Gold.PLP.Chemscore.CHOScore>
0.9932

> <Gold.PLP.Chemscore.Metal>
0.0000

> <Gold.Chemscore.Hbonds>
donor molecule, donor type, donor heavy atom, donor atom, acceptor molecule, acceptor atom, score
      L1  C     5    27       P1  7957  0.83

> <Gold.PLP.Chemscore.Internal.Correction>
0.0760

> <Gold.Rescore>
     Score         DG    S(hbond)    S(metal)    S(lipo)     H(rot)  DE(clash)    DE(int)     intcor
     10.68     -11.24       0.00        0.00      95.89       2.13       0.01       0.54       ----

> <Gold.Chemscore.Fitness>
10.6835

> <Gold.Chemscore.DG>
-11.2365

> <Gold.Chemscore.ZeroCoef>
-5.4800

> <Gold.Chemscore.Hbond>
0.0000

> <Gold.Chemscore.Metal>
0.0000

> <Gold.Chemscore.Lipo>
95.8887

> <Gold.Chemscore.Internal_Hbond>
0.0000

> <Gold.Chemscore.DEClash>
0.0126

> <Gold.Chemscore.DEInternal>
0.5404

> <Gold.Chemscore.Rot>
2.1338

> <Gold.Chemscore.Internal.Correction>
   9.000000E+99

> <Gold.Chemscore.Hbond.Weighted>
-0.0000

> <Gold.Chemscore.Metal.Weighted>
-0.0000

> <Gold.Chemscore.Lipo.Weighted>
-11.2190

> <Gold.Chemscore.Internal_Hbond.Weighted>
0.0000

> <Gold.Chemscore.DEClash.Weighted>
0.0126

> <Gold.Chemscore.DEInternal.Weighted>
0.5404

> <Gold.Chemscore.Rot.Weighted>
5.4625

> <Gold.Chemscore.Internal.Correction.Weighted>
   9.000000E+99

> <Gold.Protein.RotatedTorsions>
[ 6907 6896 6895 6894 ] final  103.93 input  -60.11 | X-H torsion
[ 7974 7965 7964 7962 ] final   -6.79 input  175.53 | X-H torsion
[ 8008 7997 7996 7995 ] final   79.91 input   59.86 | X-H torsion
[ 10167 10162 10161 10158 ] final -161.08 input  -65.29 | X-H torsion
[ 10718 10713 10712 10709 ] final  -65.71 input   66.30 | X-H torsion
[ 10763 10752 10751 10750 ] final  -31.25 input  -60.55 | X-H torsion
[ 11005 11000 10999 10996 ] final -153.50 input  -57.11 | X-H torsion

> <Gold.Protein.ActiveResidues>
 VAL166  LYS551  ARG553  GLY616  TRP617  ASP618  TYR619  PRO620  LYS621  CYS622 
 ASP623  PHE694  ASN695  SER759  ASP760  ASP761  ALA762  ILE779  LEU786  VAL792 
 PHE793  MET794  SER795  GLU796  ALA797  LYS798  CYS799  TRP800  GLU811  SER814 

> <Gold.Protein.RotatedAtoms>
  152.5280  133.9753  159.7780 H   0  0  0  0  0  0  0  0  0  0  0  0  # atno 6907 bound_to 6896
  151.0017  133.6042  159.2701 H   0  0  0  0  0  0  0  0  0  0  0  0  # atno 6908 bound_to 6896
  151.3148  135.0810  159.9338 H   0  0  0  0  0  0  0  0  0  0  0  0  # atno 6909 bound_to 6896
  146.2323  140.2223  142.8338 H   0  0  0  0  0  0  0  0  0  0  0  0  # atno 7974 bound_to 7965
  155.8762  140.3446  155.5856 H   0  0  0  0  0  0  0  0  0  0  0  0  # atno 8008 bound_to 7997
  155.7771  140.0853  157.2097 H   0  0  0  0  0  0  0  0  0  0  0  0  # atno 8009 bound_to 7997
  154.4021  140.1507  156.2996 H   0  0  0  0  0  0  0  0  0  0  0  0  # atno 8010 bound_to 7997
  139.6491  144.0116  152.2149 H   0  0  0  0  0  0  0  0  0  0  0  0  # atno 10167 bound_to 10162
  156.0654  130.4251  150.1603 H   0  0  0  0  0  0  0  0  0  0  0  0  # atno 10718 bound_to 10713
  153.7943  135.6895  153.4866 H   0  0  0  0  0  0  0  0  0  0  0  0  # atno 10763 bound_to 10752
  153.1729  135.4535  154.9925 H   0  0  0  0  0  0  0  0  0  0  0  0  # atno 10764 bound_to 10752
  154.8032  135.3346  154.7437 H   0  0  0  0  0  0  0  0  0  0  0  0  # atno 10765 bound_to 10752
  140.7075  134.3869  157.5202 H   0  0  0  0  0  0  0  0  0  0  0  0  # atno 11005 bound_to 11000
  144.9623  140.8287  143.5506 LP  0  0  0  0  0  0  0  0  0  0  0  0  # atno 17320 bound_to 7965
  145.2195  139.2166  143.5101 LP  0  0  0  0  0  0  0  0  0  0  0  0  # atno 17321 bound_to 7965
  139.9826  144.6418  150.7887 LP  0  0  0  0  0  0  0  0  0  0  0  0  # atno 17342 bound_to 10162
  140.7529  143.2999  151.3108 LP  0  0  0  0  0  0  0  0  0  0  0  0  # atno 17343 bound_to 10162
  156.9664  130.9821  151.3468 LP  0  0  0  0  0  0  0  0  0  0  0  0  # atno 17370 bound_to 10713
  157.5691  130.8298  149.8368 LP  0  0  0  0  0  0  0  0  0  0  0  0  # atno 17371 bound_to 10713
  139.8880  134.8867  156.2496 LP  0  0  0  0  0  0  0  0  0  0  0  0  # atno 17394 bound_to 11000
  141.0112  133.7094  156.1115 LP  0  0  0  0  0  0  0  0  0  0  0  0  # atno 17395 bound_to 11000

$$$$
