AV-unprocessed.smi:530|AV-procd|sdf|2842|dock5
  -GOLD-   2262023333D 1   1.00000     0.00000
 Structure written by MMmdl.
 35 37  0  0  0  0  0  0  0  0  1 V2000
  151.8323  139.2972  155.2594 C   0  0  0  0  0  0  0  0  0  0  0  0
  151.9548  140.1417  156.4878 C   0  0  0  0  0  0  0  0  0  0  0  0
  152.6696  139.7574  157.5459 N   0  0  0  0  0  0  0  0  0  0  0  0
  152.5123  140.8168  158.4188 C   0  0  0  0  0  0  0  0  0  0  0  0
  153.0234  141.0190  159.7209 C   0  0  0  0  0  0  0  0  0  0  0  0
  152.7252  142.2017  160.4291 C   0  0  0  0  0  0  0  0  0  0  0  0
  151.9141  143.1976  159.8470 C   0  0  0  0  0  0  0  0  0  0  0  0
  151.3931  143.0153  158.5517 C   0  0  0  0  0  0  0  0  0  0  0  0
  151.6925  141.8323  157.8500 C   0  0  0  0  0  0  0  0  0  0  0  0
  151.3457  141.3487  156.5930 N   0  0  0  0  0  0  0  0  0  0  0  0
  150.5019  142.0266  155.6181 C   0  0  0  0  0  0  0  0  0  0  0  0
  149.4175  141.1005  155.0324 C   0  0  2  0  0  0  0  0  0  0  0  0
  149.7371  140.7677  153.6951 O   0  0  0  0  0  0  0  0  0  0  0  0
  148.0341  141.7192  155.1575 C   0  0  0  0  0  0  0  0  0  0  0  0
  147.3232  142.0930  153.9968 C   0  0  0  0  0  0  0  0  0  0  0  0
  146.0389  142.6613  154.1023 C   0  0  0  0  0  0  0  0  0  0  0  0
  145.4569  142.8572  155.3692 C   0  0  0  0  0  0  0  0  0  0  0  0
  146.1586  142.4816  156.5305 C   0  0  0  0  0  0  0  0  0  0  0  0
  147.4428  141.9126  156.4254 C   0  0  0  0  0  0  0  0  0  0  0  0
  152.3377  138.3412  155.4000 H   0  0  0  0  0  0  0  0  0  0  0  0
  152.2871  139.8042  154.4084 H   0  0  0  0  0  0  0  0  0  0  0  0
  150.7838  139.1006  155.0358 H   0  0  0  0  0  0  0  0  0  0  0  0
  153.6464  140.2631  160.1752 H   0  0  0  0  0  0  0  0  0  0  0  0
  153.1211  142.3460  161.4236 H   0  0  0  0  0  0  0  0  0  0  0  0
  151.6916  144.1011  160.3956 H   0  0  0  0  0  0  0  0  0  0  0  0
  150.7705  143.7748  158.1026 H   0  0  0  0  0  0  0  0  0  0  0  0
  150.0330  142.8752  156.1178 H   0  0  0  0  0  0  0  0  0  0  0  0
  151.1196  142.4470  154.8244 H   0  0  0  0  0  0  0  0  0  0  0  0
  149.4185  140.1633  155.5903 H   0  0  0  0  0  0  0  0  0  0  0  0
  149.1588  140.0757  153.4128 H   0  0  0  0  0  0  0  0  0  0  0  0
  147.7598  141.9440  153.0200 H   0  0  0  0  0  0  0  0  0  0  0  0
  145.4997  142.9466  153.2110 H   0  0  0  0  0  0  0  0  0  0  0  0
  144.4721  143.2937  155.4503 H   0  0  0  0  0  0  0  0  0  0  0  0
  145.7113  142.6290  157.5024 H   0  0  0  0  0  0  0  0  0  0  0  0
  147.9718  141.6237  157.3219 H   0  0  0  0  0  0  0  0  0  0  0  0
  1  2  1  0  0  0  0
  1 20  1  0  0  0  0
  1 21  1  0  0  0  0
  1 22  1  0  0  0  0
  2 10  1  0  0  0  0
  2  3  2  0  0  0  0
  3  4  1  0  0  0  0
  4  9  2  0  0  0  0
  4  5  1  0  0  0  0
  5  6  2  0  0  0  0
  5 23  1  0  0  0  0
  6  7  1  0  0  0  0
  6 24  1  0  0  0  0
  7  8  2  0  0  0  0
  7 25  1  0  0  0  0
  8  9  1  0  0  0  0
  8 26  1  0  0  0  0
  9 10  1  0  0  0  0
 10 11  1  0  0  0  0
 11 12  1  0  0  0  0
 11 27  1  0  0  0  0
 11 28  1  0  0  0  0
 12 13  1  0  0  0  0
 12 14  1  0  0  0  0
 12 29  1  0  0  0  0
 13 30  1  0  0  0  0
 14 19  1  0  0  0  0
 14 15  2  0  0  0  0
 15 16  1  0  0  0  0
 15 31  1  0  0  0  0
 16 17  2  0  0  0  0
 16 32  1  0  0  0  0
 17 18  1  0  0  0  0
 17 33  1  0  0  0  0
 18 19  2  0  0  0  0
 18 34  1  0  0  0  0
 19 35  1  0  0  0  0
M  END
> <s_m_source_file>
AV-unprocessed.smi

> <i_m_source_file_index>
530

> <i_lp_mmshare_version>
43012

> <i_f3d_flags>
0

> <s_epik_input>
W2NIXTFbY0hdW2NIXVtjSF1jKGMxMiluKGMobjIpW0NIM10pW0NIMl1bQ0BIXShbT0hdKWMzW2NIXVtjSF1bY0hdW2NIXVtjSF0z

> <s_epik_cmdline>
J2VwaWtfcHl0aG9uJywgJy1waCcsICc3LjAnLCAnLXRuJywgJzgnLCAnLW1hJywgJzIwMCcsICctbWV0YWxfYmluZGluZycsICctaW1hZScsICc8aW5maWxlLm1hZT4nLCAnLW9tYWUnLCAnPG91dGZpbGUubWFlPic=

> <r_epik_Ionization_Penalty>
0.129663

> <r_epik_Ionization_Penalty_Charging>
0

> <r_epik_Ionization_Penalty_Neutral>
0.129663

> <r_epik_State_Penalty>
0.119073

> <r_epik_Charging_Adjusted_Penalty>
0.119073

> <i_epik_Tot_Q>
0

> <i_epik_Tot_abs_Q>
0

> <r_epik_Metal_State_Penalty>
0.000131867

> <b_epik_Metal_Only>
0

> <s_lp_Force_Field>
OPLS_2005

> <r_lp_Energy>
11.6946

> <b_lp_Chiralities_Consistent>
1

> <s_lp_Variant>
AV-unprocessed.smi:530-1

> <Gold.Version>
5.8.1

> <Gold.Id.Protein>
6NUR|6NUR_protein|mol2

> <Gold.PLP.Fitness>
47.2577

> <Gold.PLP.PLP>
-42.7250

> <Gold.PLP.part.hbond>
-3.9586

> <Gold.PLP.part.metal>
0.0000

> <Gold.PLP.part.buried>
-2.1626

> <Gold.PLP.part.nonpolar>
-34.4955

> <Gold.PLP.part.repulsive>
0.0000

> <Gold.PLP.ligand.clash>
0.0043

> <Gold.PLP.ligand.torsion>
0.9745

> <Gold.PLP.Chemscore.Hbond>
2.1529

> <Gold.PLP.Chemscore.CHOScore>
0.0000

> <Gold.PLP.Chemscore.Metal>
0.0000

> <Gold.Chemscore.Hbonds>
donor molecule, donor type, donor heavy atom, donor atom, acceptor molecule, acceptor atom, score
      L1  H    13    30       P1  7957  0.01
      P1  H  7989  7998       L1    13  0.45
      P1  H  7997  8010       L1     3  0.83
      P1  H  8011  8017       L1    13  0.75

> <Gold.PLP.Chemscore.Internal.Correction>
0.0271

> <Gold.Rescore>
     Score         DG    S(hbond)    S(metal)    S(lipo)     H(rot)  DE(clash)    DE(int)     intcor
     15.20     -17.21       0.93        0.00     110.90       1.70       0.12       1.89       ----

> <Gold.Chemscore.Fitness>
15.2040

> <Gold.Chemscore.DG>
-17.2135

> <Gold.Chemscore.ZeroCoef>
-5.4800

> <Gold.Chemscore.Hbond>
0.9321

> <Gold.Chemscore.Metal>
0.0000

> <Gold.Chemscore.Lipo>
110.9019

> <Gold.Chemscore.Internal_Hbond>
0.0000

> <Gold.Chemscore.DEClash>
0.1175

> <Gold.Chemscore.DEInternal>
1.8921

> <Gold.Chemscore.Rot>
1.7013

> <Gold.Chemscore.Internal.Correction>
   9.000000E+99

> <Gold.Chemscore.Hbonds>
donor molecule, donor type, donor heavy atom, donor atom, acceptor molecule, acceptor atom, score
      L1  H    13    30       P1  7957  0.02
      P1  H  7989  7998       L1    13  0.31
      P1  H  7997  8010       L1     3  0.10
      P1  H  8011  8017       L1    13  0.55

> <Gold.Chemscore.Hbond.Weighted>
-3.1133

> <Gold.Chemscore.Metal.Weighted>
-0.0000

> <Gold.Chemscore.Lipo.Weighted>
-12.9755

> <Gold.Chemscore.Internal_Hbond.Weighted>
0.0000

> <Gold.Chemscore.DEClash.Weighted>
0.1175

> <Gold.Chemscore.DEInternal.Weighted>
1.8921

> <Gold.Chemscore.Rot.Weighted>
4.3554

> <Gold.Chemscore.Internal.Correction.Weighted>
   9.000000E+99

> <Gold.Protein.RotatedTorsions>
[ 6907 6896 6895 6894 ] final   40.87 input  -60.11 | X-H torsion
[ 7974 7965 7964 7962 ] final -177.09 input  175.53 | X-H torsion
[ 8008 7997 7996 7995 ] final   29.71 input   59.86 | X-H torsion
[ 10167 10162 10161 10158 ] final   27.95 input  -65.29 | X-H torsion
[ 10718 10713 10712 10709 ] final -118.76 input   66.30 | X-H torsion
[ 10763 10752 10751 10750 ] final  171.24 input  -60.55 | X-H torsion
[ 11005 11000 10999 10996 ] final  143.09 input  -57.11 | X-H torsion

> <Gold.Protein.ActiveResidues>
 VAL166  LYS551  ARG553  GLY616  TRP617  ASP618  TYR619  PRO620  LYS621  CYS622 
 ASP623  PHE694  ASN695  SER759  ASP760  ASP761  ALA762  ILE779  LEU786  VAL792 
 PHE793  MET794  SER795  GLU796  ALA797  LYS798  CYS799  TRP800  GLU811  SER814 

> <Gold.Protein.RotatedAtoms>
  152.1880  134.8697  160.0520 H   0  0  0  0  0  0  0  0  0  0  0  0  # atno 6907 bound_to 6896
  151.9596  133.3686  159.4038 H   0  0  0  0  0  0  0  0  0  0  0  0  # atno 6908 bound_to 6896
  150.6930  134.4178  159.5235 H   0  0  0  0  0  0  0  0  0  0  0  0  # atno 6909 bound_to 6896
  144.7127  140.1071  143.6413 H   0  0  0  0  0  0  0  0  0  0  0  0  # atno 7974 bound_to 7965
  155.0788  140.3208  155.4608 H   0  0  0  0  0  0  0  0  0  0  0  0  # atno 8008 bound_to 7997
  156.2772  140.2098  156.5861 H   0  0  0  0  0  0  0  0  0  0  0  0  # atno 8009 bound_to 7997
  154.6995  140.0508  157.0432 H   0  0  0  0  0  0  0  0  0  0  0  0  # atno 8010 bound_to 7997
  140.4895  144.0490  150.6292 H   0  0  0  0  0  0  0  0  0  0  0  0  # atno 10167 bound_to 10162
  156.1130  130.6264  150.9332 H   0  0  0  0  0  0  0  0  0  0  0  0  # atno 10718 bound_to 10713
  154.4091  135.2756  155.2048 H   0  0  0  0  0  0  0  0  0  0  0  0  # atno 10763 bound_to 10752
  154.4041  135.6037  153.5918 H   0  0  0  0  0  0  0  0  0  0  0  0  # atno 10764 bound_to 10752
  152.9831  135.5933  154.4370 H   0  0  0  0  0  0  0  0  0  0  0  0  # atno 10765 bound_to 10752
  140.0527  134.9247  157.1046 H   0  0  0  0  0  0  0  0  0  0  0  0  # atno 11005 bound_to 11000
  145.9487  139.2718  143.1225 LP  0  0  0  0  0  0  0  0  0  0  0  0  # atno 17320 bound_to 7965
  145.9346  140.9024  143.0339 LP  0  0  0  0  0  0  0  0  0  0  0  0  # atno 17321 bound_to 7965
  140.3755  143.2831  152.0230 LP  0  0  0  0  0  0  0  0  0  0  0  0  # atno 17342 bound_to 10162
  139.4848  144.6196  151.7280 LP  0  0  0  0  0  0  0  0  0  0  0  0  # atno 17343 bound_to 10162
  157.6312  131.0921  150.8437 LP  0  0  0  0  0  0  0  0  0  0  0  0  # atno 17370 bound_to 10713
  156.8544  130.5091  149.5309 LP  0  0  0  0  0  0  0  0  0  0  0  0  # atno 17371 bound_to 10713
  140.3892  134.2203  155.7167 LP  0  0  0  0  0  0  0  0  0  0  0  0  # atno 17394 bound_to 11000
  141.1938  133.8143  157.0785 LP  0  0  0  0  0  0  0  0  0  0  0  0  # atno 17395 bound_to 11000

$$$$
