AV-unprocessed.smi:1701|AV-procd|sdf|6827|dock4
  -GOLD-   22720 8 03D 1   1.00000     0.00000
 Structure written by MMmdl.
 55 57  0  0  0  0  0  0  0  0  3 V2000
  152.4637  140.8291  158.5747 C   0  0  0  0  0  0  0  0  0  0  0  0
  151.5587  142.0659  158.4776 C   0  0  0  0  0  0  0  0  0  0  0  0
  151.2280  142.4317  157.1004 N   0  0  0  0  0  0  0  0  0  0  0  0
  151.7231  143.6972  156.5536 C   0  0  0  0  0  0  0  0  0  0  0  0
  152.2831  144.6426  157.6279 C   0  0  0  0  0  0  0  0  0  0  0  0
  150.6019  141.4929  156.2449 C   0  0  0  0  0  0  0  0  0  0  0  0
  151.1454  140.2178  155.9472 C   0  0  0  0  0  0  0  0  0  0  0  0
  150.4569  139.3427  155.0827 C   0  0  0  0  0  0  0  0  0  0  0  0
  149.2231  139.7331  154.5228 C   0  0  0  0  0  0  0  0  0  0  0  0
  148.5771  138.8214  153.6450 N   0  0  0  0  0  0  0  0  0  0  0  0
  147.2789  138.7710  153.2858 C   0  0  0  0  0  0  0  0  0  0  0  0
  146.4076  139.5313  153.7003 O   0  0  0  0  0  0  0  0  0  0  0  0
  146.9812  137.7720  152.4352 N   0  0  0  0  0  0  0  0  0  0  0  0
  145.6794  137.4361  151.8530 C   0  0  2  0  0  0  0  0  0  0  0  0
  144.5671  137.3514  152.8908 C   0  0  0  0  0  0  0  0  0  0  0  0
  143.4778  136.5540  152.1673 C   0  0  0  0  0  0  0  0  0  0  0  0
  144.1655  135.6946  151.1728 N   0  3  2  0  0  0  0  0  0  0  0  0
  143.8742  134.2440  151.3241 C   0  0  0  0  0  0  0  0  0  0  0  0
  144.8841  133.3964  150.5361 C   0  0  0  0  0  0  0  0  0  0  0  0
  146.3207  133.6038  151.0523 C   0  0  0  0  0  0  0  0  0  0  0  0
  146.4980  134.9507  151.7788 C   0  0  0  0  0  0  0  0  0  0  0  0
  145.6115  136.0593  151.1606 C   0  0  2  0  0  0  0  0  0  0  0  0
  148.7230  141.0174  154.8417 C   0  0  0  0  0  0  0  0  0  0  0  0
  149.4172  141.8234  155.6733 N   0  3  0  0  0  0  0  0  0  0  0  0
  152.6346  140.5627  159.6178 H   0  0  0  0  0  0  0  0  0  0  0  0
  153.4387  141.0101  158.1240 H   0  0  0  0  0  0  0  0  0  0  0  0
  152.0196  139.9643  158.0815 H   0  0  0  0  0  0  0  0  0  0  0  0
  150.6479  141.9192  159.0578 H   0  0  0  0  0  0  0  0  0  0  0  0
  152.0622  142.9092  158.9513 H   0  0  0  0  0  0  0  0  0  0  0  0
  152.4790  143.5037  155.7919 H   0  0  0  0  0  0  0  0  0  0  0  0
  150.9080  144.1989  156.0316 H   0  0  0  0  0  0  0  0  0  0  0  0
  152.6455  145.5649  157.1734 H   0  0  0  0  0  0  0  0  0  0  0  0
  153.1183  144.1926  158.1649 H   0  0  0  0  0  0  0  0  0  0  0  0
  151.5255  144.9171  158.3606 H   0  0  0  0  0  0  0  0  0  0  0  0
  152.0885  139.8923  156.3583 H   0  0  0  0  0  0  0  0  0  0  0  0
  150.8787  138.3744  154.8552 H   0  0  0  0  0  0  0  0  0  0  0  0
  149.1638  138.0876  153.2770 H   0  0  0  0  0  0  0  0  0  0  0  0
  147.7432  137.1569  152.1869 H   0  0  0  0  0  0  0  0  0  0  0  0
  145.3957  138.2096  151.1360 H   0  0  0  0  0  0  0  0  0  0  0  0
  144.9076  136.7981  153.7675 H   0  0  0  0  0  0  0  0  0  0  0  0
  144.2208  138.3299  153.2250 H   0  0  0  0  0  0  0  0  0  0  0  0
  142.8573  135.9925  152.8672 H   0  0  0  0  0  0  0  0  0  0  0  0
  142.8195  137.2317  151.6230 H   0  0  0  0  0  0  0  0  0  0  0  0
  143.9118  133.9600  152.3774 H   0  0  0  0  0  0  0  0  0  0  0  0
  142.8580  134.0479  150.9808 H   0  0  0  0  0  0  0  0  0  0  0  0
  144.6186  132.3399  150.5869 H   0  0  0  0  0  0  0  0  0  0  0  0
  144.8317  133.6725  149.4820 H   0  0  0  0  0  0  0  0  0  0  0  0
  146.5946  132.7969  151.7329 H   0  0  0  0  0  0  0  0  0  0  0  0
  147.0129  133.5377  150.2121 H   0  0  0  0  0  0  0  0  0  0  0  0
  146.2410  134.8293  152.8321 H   0  0  0  0  0  0  0  0  0  0  0  0
  147.5521  135.2282  151.7553 H   0  0  0  0  0  0  0  0  0  0  0  0
  145.9148  136.1751  150.1190 H   0  0  0  0  0  0  0  0  0  0  0  0
  147.8072  141.4441  154.4612 H   0  0  0  0  0  0  0  0  0  0  0  0
  143.8044  135.9661  150.2692 H   0  0  0  0  0  0  0  0  0  0  0  0
  149.0258  142.7424  155.8806 H   0  0  0  0  0  0  0  0  0  0  0  0
  1  2  1  0  0  0  0
  1 25  1  0  0  0  0
  1 26  1  0  0  0  0
  1 27  1  0  0  0  0
  2  3  1  0  0  0  0
  2 28  1  0  0  0  0
  2 29  1  0  0  0  0
  3  4  1  0  0  0  0
  3  6  1  0  0  0  0
  4  5  1  0  0  0  0
  4 30  1  0  0  0  0
  4 31  1  0  0  0  0
  5 32  1  0  0  0  0
  5 33  1  0  0  0  0
  5 34  1  0  0  0  0
  6 24  1  0  0  0  0
  6  7  2  0  0  0  0
  7  8  1  0  0  0  0
  7 35  1  0  0  0  0
  8  9  2  0  0  0  0
  8 36  1  0  0  0  0
  9 10  1  0  0  0  0
  9 23  1  0  0  0  0
 10 11  1  0  0  0  0
 10 37  1  0  0  0  0
 11 12  2  0  0  0  0
 11 13  1  0  0  0  0
 13 14  1  0  0  0  0
 13 38  1  0  0  0  0
 14 22  1  0  0  0  0
 14 15  1  0  0  0  0
 14 39  1  0  0  0  0
 15 16  1  0  0  0  0
 15 40  1  0  0  0  0
 15 41  1  0  0  0  0
 16 17  1  0  0  0  0
 16 42  1  0  0  0  0
 16 43  1  0  0  0  0
 17 22  1  0  0  0  0
 17 18  1  0  0  0  0
 17 54  1  0  0  0  0
 18 19  1  0  0  0  0
 18 44  1  0  0  0  0
 18 45  1  0  0  0  0
 19 20  1  0  0  0  0
 19 46  1  0  0  0  0
 19 47  1  0  0  0  0
 20 21  1  0  0  0  0
 20 48  1  0  0  0  0
 20 49  1  0  0  0  0
 21 22  1  0  0  0  0
 21 50  1  0  0  0  0
 21 51  1  0  0  0  0
 22 52  1  0  0  0  0
 23 24  2  0  0  0  0
 23 53  1  0  0  0  0
 24 55  1  0  0  0  0
M  CHG  1  17   1
M  CHG  1  24   1
M  END
> <s_m_source_file>
AV-unprocessed.smi

> <i_m_source_file_index>
1701

> <i_lp_mmshare_version>
43012

> <i_f3d_flags>
0

> <s_epik_input>
W0NIM11bQ0gyXU4oW0NIMl1bQ0gzXSljMVtjSF1bY0hdYyhbY0hdbjEpW05IXUMoPU8pW05IXVtDQEhdKFtDSDJdW0NIMl0yKVtDQEBIXShOMjMpW0NIMl1bQ0gyXVtDSDJdW0NIMl0z

> <s_epik_cmdline>
J2VwaWtfcHl0aG9uJywgJy1waCcsICc3LjAnLCAnLXRuJywgJzgnLCAnLW1hJywgJzIwMCcsICctbWV0YWxfYmluZGluZycsICctaW1hZScsICc8aW5maWxlLm1hZT4nLCAnLW9tYWUnLCAnPG91dGZpbGUubWFlPic=

> <r_lp_tautomer_probability>
0.999994

> <r_epik_Ionization_Penalty>
0.302862

> <r_epik_Ionization_Penalty_Charging>
0.302842

> <r_epik_Ionization_Penalty_Neutral>
1.95166e-05

> <r_epik_State_Penalty>
0.019791

> <r_epik_Charging_Adjusted_Penalty>
0.322633

> <i_epik_Tot_Q>
2

> <i_epik_Tot_abs_Q>
2

> <r_epik_Metal_State_Penalty>
0.0536763

> <b_epik_Metal_Only>
0

> <s_lp_Force_Field>
OPLS_2005

> <r_lp_Energy>
67.6643

> <b_lp_Chiralities_Consistent>
1

> <s_lp_Variant>
AV-unprocessed.smi:1701-7

> <Gold.Version>
5.8.1

> <Gold.Id.Protein>
6NUR|6NUR_protein|mol2

> <Gold.PLP.Fitness>
47.4971

> <Gold.PLP.PLP>
-40.5304

> <Gold.PLP.part.hbond>
-4.0235

> <Gold.PLP.part.metal>
0.0000

> <Gold.PLP.part.buried>
-2.1292

> <Gold.PLP.part.nonpolar>
-36.0238

> <Gold.PLP.part.repulsive>
0.4336

> <Gold.PLP.ligand.clash>
0.0000

> <Gold.PLP.ligand.torsion>
1.4756

> <Gold.PLP.Chemscore.Hbond>
3.2548

> <Gold.PLP.Chemscore.CHOScore>
0.0000

> <Gold.PLP.Chemscore.Metal>
0.0000

> <Gold.Chemscore.Hbonds>
donor molecule, donor type, donor heavy atom, donor atom, acceptor molecule, acceptor atom, score
      L1  H    10    37       P1  7948  0.23
      L1  H    13    38       P1  7948  1.00
      L1  H    24    55       P1  8028  2.00

> <Gold.PLP.Chemscore.Internal.Correction>
0.1535

> <Gold.Rescore>
     Score         DG    S(hbond)    S(metal)    S(lipo)     H(rot)  DE(clash)    DE(int)     intcor
     15.79     -23.22       2.24        0.00     116.28       1.30       3.84       3.60       ----

> <Gold.Chemscore.Fitness>
15.7869

> <Gold.Chemscore.DG>
-23.2221

> <Gold.Chemscore.ZeroCoef>
-5.4800

> <Gold.Chemscore.Hbond>
2.2365

> <Gold.Chemscore.Metal>
0.0000

> <Gold.Chemscore.Lipo>
116.2841

> <Gold.Chemscore.Internal_Hbond>
0.0000

> <Gold.Chemscore.DEClash>
3.8379

> <Gold.Chemscore.DEInternal>
3.5973

> <Gold.Chemscore.Rot>
1.3020

> <Gold.Chemscore.Internal.Correction>
   9.000000E+99

> <Gold.Chemscore.Hbonds>
donor molecule, donor type, donor heavy atom, donor atom, acceptor molecule, acceptor atom, score
      L1  H    10    37       P1  7948  0.22
      L1  H    13    38       P1  7948  0.94
      L1  H    24    55       P1  8028  0.94

> <Gold.Chemscore.Hbond.Weighted>
-7.4699

> <Gold.Chemscore.Metal.Weighted>
-0.0000

> <Gold.Chemscore.Lipo.Weighted>
-13.6052

> <Gold.Chemscore.Internal_Hbond.Weighted>
0.0000

> <Gold.Chemscore.DEClash.Weighted>
3.8379

> <Gold.Chemscore.DEInternal.Weighted>
3.5973

> <Gold.Chemscore.Rot.Weighted>
3.3330

> <Gold.Chemscore.Internal.Correction.Weighted>
   9.000000E+99

> <Gold.Protein.RotatedTorsions>
[ 6907 6896 6895 6894 ] final  -16.16 input  -60.11 | X-H torsion
[ 7974 7965 7964 7962 ] final  -93.72 input  175.53 | X-H torsion
[ 8008 7997 7996 7995 ] final   82.41 input   59.86 | X-H torsion
[ 10167 10162 10161 10158 ] final  100.54 input  -65.29 | X-H torsion
[ 10718 10713 10712 10709 ] final   -7.00 input   66.30 | X-H torsion
[ 10763 10752 10751 10750 ] final -128.55 input  -60.55 | X-H torsion
[ 11005 11000 10999 10996 ] final    0.11 input  -57.11 | X-H torsion

> <Gold.Protein.ActiveResidues>
 VAL166  LYS551  ARG553  GLY616  TRP617  ASP618  TYR619  PRO620  LYS621  CYS622 
 ASP623  PHE694  ASN695  SER759  ASP760  ASP761  ALA762  ILE779  LEU786  VAL792 
 PHE793  MET794  SER795  GLU796  ALA797  LYS798  CYS799  TRP800  GLU811  SER814 

> <Gold.Protein.RotatedAtoms>
  151.3129  135.0799  159.9278 H   0  0  0  0  0  0  0  0  0  0  0  0  # atno 6907 bound_to 6896
  152.5274  133.9717  159.7775 H   0  0  0  0  0  0  0  0  0  0  0  0  # atno 6908 bound_to 6896
  151.0024  133.5991  159.2723 H   0  0  0  0  0  0  0  0  0  0  0  0  # atno 6909 bound_to 6896
  145.3828  140.9519  143.2384 H   0  0  0  0  0  0  0  0  0  0  0  0  # atno 7974 bound_to 7965
  155.9103  140.3428  155.6093 H   0  0  0  0  0  0  0  0  0  0  0  0  # atno 8008 bound_to 7997
  155.7396  140.0806  157.2271 H   0  0  0  0  0  0  0  0  0  0  0  0  # atno 8009 bound_to 7997
  154.4055  140.1573  156.2588 H   0  0  0  0  0  0  0  0  0  0  0  0  # atno 8010 bound_to 7997
  139.7518  144.6981  151.0421 H   0  0  0  0  0  0  0  0  0  0  0  0  # atno 10167 bound_to 10162
  156.7236  130.5158  149.5862 H   0  0  0  0  0  0  0  0  0  0  0  0  # atno 10718 bound_to 10713
  154.8756  135.3924  154.3776 H   0  0  0  0  0  0  0  0  0  0  0  0  # atno 10763 bound_to 10752
  153.4527  135.7028  153.6104 H   0  0  0  0  0  0  0  0  0  0  0  0  # atno 10764 bound_to 10752
  153.4636  135.3806  155.2321 H   0  0  0  0  0  0  0  0  0  0  0  0  # atno 10765 bound_to 10752
  140.6302  133.9582  155.8270 H   0  0  0  0  0  0  0  0  0  0  0  0  # atno 11005 bound_to 11000
  144.8496  139.5343  143.6863 LP  0  0  0  0  0  0  0  0  0  0  0  0  # atno 17320 bound_to 7965
  146.2834  139.6938  142.9213 LP  0  0  0  0  0  0  0  0  0  0  0  0  # atno 17321 bound_to 7965
  140.7798  143.4800  151.0031 LP  0  0  0  0  0  0  0  0  0  0  0  0  # atno 17342 bound_to 10162
  139.8487  143.7466  152.3178 LP  0  0  0  0  0  0  0  0  0  0  0  0  # atno 17343 bound_to 10162
  156.1578  130.6353  151.0679 LP  0  0  0  0  0  0  0  0  0  0  0  0  # atno 17370 bound_to 10713
  157.6888  131.0816  150.7167 LP  0  0  0  0  0  0  0  0  0  0  0  0  # atno 17371 bound_to 10713
  141.0681  134.0247  157.3565 LP  0  0  0  0  0  0  0  0  0  0  0  0  # atno 17394 bound_to 11000
  139.9119  135.0191  156.7726 LP  0  0  0  0  0  0  0  0  0  0  0  0  # atno 17395 bound_to 11000

$$$$
