AV-unprocessed.smi:2224|AV-procd|sdf|8992|dock1
  -GOLD-   2272012203D 1   1.00000     0.00000
 Structure written by MMmdl.
 44 46  0  0  0  0  0  0  0  0  1 V2000
  151.7345  145.8080  160.4568 C   0  0  0  0  0  0  0  0  0  0  0  0
  151.8230  144.4661  159.7606 C   0  0  0  0  0  0  0  0  0  0  0  0
  152.7242  143.4798  160.2047 C   0  0  0  0  0  0  0  0  0  0  0  0
  152.7587  142.2520  159.5152 C   0  0  0  0  0  0  0  0  0  0  0  0
  153.7057  141.1483  159.9375 C   0  0  0  0  0  0  0  0  0  0  0  0
  151.9711  141.9816  158.4522 N   0  0  0  0  0  0  0  0  0  0  0  0
  151.0986  142.9237  158.0157 C   0  0  0  0  0  0  0  0  0  0  0  0
  150.2293  142.7393  156.9077 N   0  0  0  0  0  0  0  0  0  0  0  0
  150.1056  141.6561  156.1204 C   0  0  0  0  0  0  0  0  0  0  0  0
  150.7353  140.6054  156.2477 O   0  0  0  0  0  0  0  0  0  0  0  0
  149.2007  141.8589  155.1529 N   0  0  0  0  0  0  0  0  0  0  0  0
  148.8462  140.8702  154.1287 C   0  0  1  0  0  0  0  0  0  0  0  0
  148.4443  139.5184  154.7250 C   0  0  1  0  0  0  0  0  0  0  0  0
  148.6149  138.8385  156.0352 C   0  0  0  0  0  0  0  0  0  0  0  0
  147.1847  138.2403  156.1305 C   0  0  0  0  0  0  0  0  0  0  0  0
  146.4211  138.8573  155.0622 O   0  0  0  0  0  0  0  0  0  0  0  0
  147.0556  140.1058  154.8680 C   0  0  2  0  0  0  0  0  0  0  0  0
  147.3575  140.9374  153.6011 C   0  0  0  0  0  0  0  0  0  0  0  0
  146.6919  142.3172  153.5492 C   0  0  0  0  0  0  0  0  0  0  0  0
  147.0613  140.2786  152.2417 C   0  0  0  0  0  0  0  0  0  0  0  0
  151.0001  144.1816  158.6520 C   0  0  0  0  0  0  0  0  0  0  0  0
  152.4879  145.8990  161.2398 H   0  0  0  0  0  0  0  0  0  0  0  0
  150.7519  145.9326  160.9122 H   0  0  0  0  0  0  0  0  0  0  0  0
  151.8878  146.6163  159.7414 H   0  0  0  0  0  0  0  0  0  0  0  0
  153.3717  143.6592  161.0508 H   0  0  0  0  0  0  0  0  0  0  0  0
  154.1614  141.3678  160.9035 H   0  0  0  0  0  0  0  0  0  0  0  0
  154.5021  141.0333  159.2020 H   0  0  0  0  0  0  0  0  0  0  0  0
  153.1747  140.1995  160.0213 H   0  0  0  0  0  0  0  0  0  0  0  0
  149.6413  143.5279  156.6823 H   0  0  0  0  0  0  0  0  0  0  0  0
  148.7250  142.7483  155.1167 H   0  0  0  0  0  0  0  0  0  0  0  0
  149.5844  140.7764  153.3303 H   0  0  0  0  0  0  0  0  0  0  0  0
  148.5048  138.7658  153.9351 H   0  0  0  0  0  0  0  0  0  0  0  0
  149.3909  138.0727  156.0190 H   0  0  0  0  0  0  0  0  0  0  0  0
  148.8197  139.5417  156.8433 H   0  0  0  0  0  0  0  0  0  0  0  0
  147.1856  137.1579  155.9993 H   0  0  0  0  0  0  0  0  0  0  0  0
  146.7340  138.4633  157.0985 H   0  0  0  0  0  0  0  0  0  0  0  0
  146.9272  140.7383  155.7525 H   0  0  0  0  0  0  0  0  0  0  0  0
  145.6402  142.2448  153.2710 H   0  0  0  0  0  0  0  0  0  0  0  0
  147.1809  142.9680  152.8237 H   0  0  0  0  0  0  0  0  0  0  0  0
  146.7265  142.8250  154.5132 H   0  0  0  0  0  0  0  0  0  0  0  0
  145.9960  140.0781  152.1252 H   0  0  0  0  0  0  0  0  0  0  0  0
  147.5775  139.3315  152.0949 H   0  0  0  0  0  0  0  0  0  0  0  0
  147.3622  140.9237  151.4155 H   0  0  0  0  0  0  0  0  0  0  0  0
  150.3012  144.9242  158.2946 H   0  0  0  0  0  0  0  0  0  0  0  0
  1  2  1  0  0  0  0
  1 22  1  0  0  0  0
  1 23  1  0  0  0  0
  1 24  1  0  0  0  0
  2 21  1  0  0  0  0
  2  3  2  0  0  0  0
  3  4  1  0  0  0  0
  3 25  1  0  0  0  0
  4  5  1  0  0  0  0
  4  6  2  0  0  0  0
  5 26  1  0  0  0  0
  5 27  1  0  0  0  0
  5 28  1  0  0  0  0
  6  7  1  0  0  0  0
  7  8  1  0  0  0  0
  7 21  2  0  0  0  0
  8  9  1  0  0  0  0
  8 29  1  0  0  0  0
  9 10  2  0  0  0  0
  9 11  1  0  0  0  0
 11 12  1  0  0  0  0
 11 30  1  0  0  0  0
 12 18  1  0  0  0  0
 12 13  1  0  0  0  0
 12 31  1  0  0  0  0
 13 17  1  0  0  0  0
 13 14  1  0  0  0  0
 13 32  1  0  0  0  0
 14 15  1  0  0  0  0
 14 33  1  0  0  0  0
 14 34  1  0  0  0  0
 15 16  1  0  0  0  0
 15 35  1  0  0  0  0
 15 36  1  0  0  0  0
 16 17  1  0  0  0  0
 17 18  1  0  0  0  0
 17 37  1  0  0  0  0
 18 19  1  0  0  0  0
 18 20  1  0  0  0  0
 19 38  1  0  0  0  0
 19 39  1  0  0  0  0
 19 40  1  0  0  0  0
 20 41  1  0  0  0  0
 20 42  1  0  0  0  0
 20 43  1  0  0  0  0
 21 44  1  0  0  0  0
M  END
> <s_m_source_file>
AV-unprocessed.smi

> <i_m_source_file_index>
2224

> <i_lp_mmshare_version>
43012

> <i_f3d_flags>
0

> <s_epik_input>
W0NIM11jMVtjSF1jKFtDSDNdKW5jKFtjSF0xKVtOSF1DKD1PKVtOSF1bQ0BIXTJDKFtDSDNdKShbQ0gzXSlbQ0BIXShbQ0BASF0yMylPW0NIMl1bQ0gyXTM=

> <s_epik_cmdline>
J2VwaWtfcHl0aG9uJywgJy1waCcsICc3LjAnLCAnLXRuJywgJzgnLCAnLW1hJywgJzIwMCcsICctbWV0YWxfYmluZGluZycsICctaW1hZScsICc8aW5maWxlLm1hZT4nLCAnLW9tYWUnLCAnPG91dGZpbGUubWFlPic=

> <r_lp_tautomer_probability>
1

> <r_epik_Ionization_Penalty>
0.000276544

> <r_epik_Ionization_Penalty_Charging>
0

> <r_epik_Ionization_Penalty_Neutral>
0.000276544

> <r_epik_State_Penalty>
-0

> <r_epik_Charging_Adjusted_Penalty>
0

> <i_epik_Tot_Q>
0

> <i_epik_Tot_abs_Q>
0

> <r_epik_Metal_State_Penalty>
-0

> <b_epik_Metal_Only>
0

> <s_lp_Force_Field>
OPLS_2005

> <r_lp_Energy>
64.3875

> <b_lp_Chiralities_Consistent>
1

> <s_lp_Variant>
AV-unprocessed.smi:2224-2

> <Gold.Version>
5.8.1

> <Gold.Id.Protein>
6NUR|6NUR_protein|mol2

> <Gold.PLP.Fitness>
46.1996

> <Gold.PLP.PLP>
-40.6737

> <Gold.PLP.part.hbond>
-2.0000

> <Gold.PLP.part.metal>
0.0000

> <Gold.PLP.part.buried>
-3.3257

> <Gold.PLP.part.nonpolar>
-35.9141

> <Gold.PLP.part.repulsive>
0.2964

> <Gold.PLP.ligand.clash>
0.0000

> <Gold.PLP.ligand.torsion>
0.2106

> <Gold.PLP.Chemscore.Hbond>
1.8960

> <Gold.PLP.Chemscore.CHOScore>
0.0000

> <Gold.PLP.Chemscore.Metal>
0.0000

> <Gold.Chemscore.Hbonds>
donor molecule, donor type, donor heavy atom, donor atom, acceptor molecule, acceptor atom, score
      L1  H     8    29       P1  8028  1.00
      L1  H    11    30       P1  8028  0.86

> <Gold.PLP.Chemscore.Internal.Correction>
0.2590

> <Gold.Rescore>
     Score         DG    S(hbond)    S(metal)    S(lipo)     H(rot)  DE(clash)    DE(int)     intcor
     17.16     -21.99       1.94        0.00     107.45       1.00       0.50       4.33       ----

> <Gold.Chemscore.Fitness>
17.1611

> <Gold.Chemscore.DG>
-21.9850

> <Gold.Chemscore.ZeroCoef>
-5.4800

> <Gold.Chemscore.Hbond>
1.9441

> <Gold.Chemscore.Metal>
0.0000

> <Gold.Chemscore.Lipo>
107.4494

> <Gold.Chemscore.Internal_Hbond>
0.0000

> <Gold.Chemscore.DEClash>
0.4984

> <Gold.Chemscore.DEInternal>
4.3255

> <Gold.Chemscore.Rot>
1.0000

> <Gold.Chemscore.Internal.Correction>
   9.000000E+99

> <Gold.Chemscore.Hbonds>
donor molecule, donor type, donor heavy atom, donor atom, acceptor molecule, acceptor atom, score
      L1  H     8    29       P1  8028  0.99
      L1  H    11    30       P1  8028  0.80

> <Gold.Chemscore.Hbond.Weighted>
-6.4934

> <Gold.Chemscore.Metal.Weighted>
-0.0000

> <Gold.Chemscore.Lipo.Weighted>
-12.5716

> <Gold.Chemscore.Internal_Hbond.Weighted>
0.0000

> <Gold.Chemscore.DEClash.Weighted>
0.4984

> <Gold.Chemscore.DEInternal.Weighted>
4.3255

> <Gold.Chemscore.Rot.Weighted>
2.5600

> <Gold.Chemscore.Internal.Correction.Weighted>
   9.000000E+99

> <Gold.Protein.RotatedTorsions>
[ 6907 6896 6895 6894 ] final  -79.92 input  -60.11 | X-H torsion
[ 7974 7965 7964 7962 ] final   61.85 input  175.53 | X-H torsion
[ 8008 7997 7996 7995 ] final  142.41 input   59.86 | X-H torsion
[ 10167 10162 10161 10158 ] final  -75.32 input  -65.29 | X-H torsion
[ 10718 10713 10712 10709 ] final    7.65 input   66.30 | X-H torsion
[ 10763 10752 10751 10750 ] final  -27.38 input  -60.55 | X-H torsion
[ 11005 11000 10999 10996 ] final   96.55 input  -57.11 | X-H torsion

> <Gold.Protein.ActiveResidues>
 VAL166  LYS551  ARG553  GLY616  TRP617  ASP618  TYR619  PRO620  LYS621  CYS622 
 ASP623  PHE694  ASN695  SER759  ASP760  ASP761  ALA762  ILE779  LEU786  VAL792 
 PHE793  MET794  SER795  GLU796  ALA797  LYS798  CYS799  TRP800  GLU811  SER814 

> <Gold.Protein.RotatedAtoms>
  150.6940  134.4048  159.5134 H   0  0  0  0  0  0  0  0  0  0  0  0  # atno 6907 bound_to 6896
  152.1816  134.8747  160.0535 H   0  0  0  0  0  0  0  0  0  0  0  0  # atno 6908 bound_to 6896
  151.9735  133.3699  159.4117 H   0  0  0  0  0  0  0  0  0  0  0  0  # atno 6909 bound_to 6896
  145.8801  139.3437  143.0711 H   0  0  0  0  0  0  0  0  0  0  0  0  # atno 7974 bound_to 7965
  156.2950  140.2289  156.4722 H   0  0  0  0  0  0  0  0  0  0  0  0  # atno 8008 bound_to 7997
  154.7925  140.0453  157.1233 H   0  0  0  0  0  0  0  0  0  0  0  0  # atno 8009 bound_to 7997
  154.9628  140.3056  155.5026 H   0  0  0  0  0  0  0  0  0  0  0  0  # atno 8010 bound_to 7997
  140.4953  143.2372  151.7841 H   0  0  0  0  0  0  0  0  0  0  0  0  # atno 10167 bound_to 10162
  156.9400  130.5858  149.5652 H   0  0  0  0  0  0  0  0  0  0  0  0  # atno 10718 bound_to 10713
  153.7312  135.6938  153.4989 H   0  0  0  0  0  0  0  0  0  0  0  0  # atno 10763 bound_to 10752
  153.2134  135.4395  155.0405 H   0  0  0  0  0  0  0  0  0  0  0  0  # atno 10764 bound_to 10752
  154.8252  135.3442  154.6842 H   0  0  0  0  0  0  0  0  0  0  0  0  # atno 10765 bound_to 10752
  139.8781  134.8956  156.4175 H   0  0  0  0  0  0  0  0  0  0  0  0  # atno 11005 bound_to 11000
  145.9034  140.9228  143.0491 LP  0  0  0  0  0  0  0  0  0  0  0  0  # atno 17320 bound_to 7965
  144.6727  140.1063  143.7458 LP  0  0  0  0  0  0  0  0  0  0  0  0  # atno 17321 bound_to 7965
  139.4860  144.4595  151.9558 LP  0  0  0  0  0  0  0  0  0  0  0  0  # atno 17342 bound_to 10162
  140.3683  144.2887  150.5923 LP  0  0  0  0  0  0  0  0  0  0  0  0  # atno 17343 bound_to 10162
  156.0408  130.5491  150.8767 LP  0  0  0  0  0  0  0  0  0  0  0  0  # atno 17370 bound_to 10713
  157.5791  131.0946  150.9299 LP  0  0  0  0  0  0  0  0  0  0  0  0  # atno 17371 bound_to 10713
  140.9157  133.7680  155.9845 LP  0  0  0  0  0  0  0  0  0  0  0  0  # atno 17394 bound_to 11000
  140.8496  134.2969  157.5280 LP  0  0  0  0  0  0  0  0  0  0  0  0  # atno 17395 bound_to 11000

$$$$
