AV-unprocessed.smi:3308|AV-procd|sdf|12712|dock5
  -GOLD-   2272019 43D 1   1.00000     0.00000
 Structure written by MMmdl.
 40 41  0  0  0  0  0  0  0  0  1 V2000
  152.9578  138.0877  155.5399 C   0  0  0  0  0  0  0  0  0  0  0  0
  151.9630  139.2415  155.2912 C   0  0  2  0  0  0  0  0  0  0  0  0
  152.3370  140.4307  156.0522 N   0  0  0  0  0  0  0  0  0  0  0  0
  151.8686  140.4125  157.4435 C   0  0  0  0  0  0  0  0  0  0  0  0
  151.6796  141.8343  157.9824 C   0  0  0  0  0  0  0  0  0  0  0  0
  151.0300  142.6372  157.3124 O   0  0  0  0  0  0  0  0  0  0  0  0
  152.2318  142.1651  159.1691 N   0  0  0  0  0  0  0  0  0  0  0  0
  153.0275  141.2831  160.0232 C   0  0  0  0  0  0  0  0  0  0  0  0
  153.6207  142.1823  161.1081 C   0  0  0  0  0  0  0  0  0  0  0  0
  152.6502  143.3516  161.1950 C   0  0  0  0  0  0  0  0  0  0  0  0
  152.1056  143.4902  159.7734 C   0  0  0  0  0  0  0  0  0  0  0  0
  150.4865  138.8888  155.6182 C   0  0  2  0  0  0  0  0  0  0  0  0
  149.9693  137.6153  154.9154 C   0  0  0  0  0  0  0  0  0  0  0  0
  149.6023  140.0240  155.3724 N   0  0  0  0  0  0  0  0  0  0  0  0
  149.1495  140.5439  154.1739 C   0  0  0  0  0  0  0  0  0  0  0  0
  148.3765  141.6311  154.4630 C   0  0  0  0  0  0  0  0  0  0  0  0
  148.4241  141.7110  155.8819 C   0  0  0  0  0  0  0  0  0  0  0  0
  149.1631  140.7557  156.4209 N   0  0  0  0  0  0  0  0  0  0  0  0
  152.6644  137.1863  155.0029 H   0  0  0  0  0  0  0  0  0  0  0  0
  153.0287  137.8361  156.5980 H   0  0  0  0  0  0  0  0  0  0  0  0
  153.9603  138.3368  155.1937 H   0  0  0  0  0  0  0  0  0  0  0  0
  151.9994  139.4981  154.2310 H   0  0  0  0  0  0  0  0  0  0  0  0
  152.0269  141.2586  155.5637 H   0  0  0  0  0  0  0  0  0  0  0  0
  150.9140  139.8906  157.5074 H   0  0  0  0  0  0  0  0  0  0  0  0
  152.5675  139.8640  158.0759 H   0  0  0  0  0  0  0  0  0  0  0  0
  152.3729  140.5324  160.4680 H   0  0  0  0  0  0  0  0  0  0  0  0
  153.8144  140.7667  159.4719 H   0  0  0  0  0  0  0  0  0  0  0  0
  153.7502  141.6677  162.0604 H   0  0  0  0  0  0  0  0  0  0  0  0
  154.5985  142.5440  160.7880 H   0  0  0  0  0  0  0  0  0  0  0  0
  151.8357  143.0991  161.8753 H   0  0  0  0  0  0  0  0  0  0  0  0
  153.1194  144.2657  161.5600 H   0  0  0  0  0  0  0  0  0  0  0  0
  152.7054  144.1988  159.2004 H   0  0  0  0  0  0  0  0  0  0  0  0
  151.0737  143.8444  159.7775 H   0  0  0  0  0  0  0  0  0  0  0  0
  150.4319  138.6876  156.6901 H   0  0  0  0  0  0  0  0  0  0  0  0
  150.5448  136.7371  155.2080 H   0  0  0  0  0  0  0  0  0  0  0  0
  150.0205  137.6946  153.8298 H   0  0  0  0  0  0  0  0  0  0  0  0
  148.9306  137.4188  155.1829 H   0  0  0  0  0  0  0  0  0  0  0  0
  149.4113  140.1066  153.2220 H   0  0  0  0  0  0  0  0  0  0  0  0
  147.8604  142.2748  153.7663 H   0  0  0  0  0  0  0  0  0  0  0  0
  147.9508  142.4326  156.5314 H   0  0  0  0  0  0  0  0  0  0  0  0
  1  2  1  0  0  0  0
  1 19  1  0  0  0  0
  1 20  1  0  0  0  0
  1 21  1  0  0  0  0
  2  3  1  0  0  0  0
  2 12  1  0  0  0  0
  2 22  1  0  0  0  0
  3  4  1  0  0  0  0
  3 23  1  0  0  0  0
  4  5  1  0  0  0  0
  4 24  1  0  0  0  0
  4 25  1  0  0  0  0
  5  6  2  0  0  0  0
  5  7  1  0  0  0  0
  7 11  1  0  0  0  0
  7  8  1  0  0  0  0
  8  9  1  0  0  0  0
  8 26  1  0  0  0  0
  8 27  1  0  0  0  0
  9 10  1  0  0  0  0
  9 28  1  0  0  0  0
  9 29  1  0  0  0  0
 10 11  1  0  0  0  0
 10 30  1  0  0  0  0
 10 31  1  0  0  0  0
 11 32  1  0  0  0  0
 11 33  1  0  0  0  0
 12 13  1  0  0  0  0
 12 14  1  0  0  0  0
 12 34  1  0  0  0  0
 13 35  1  0  0  0  0
 13 36  1  0  0  0  0
 13 37  1  0  0  0  0
 14 18  1  0  0  0  0
 14 15  1  0  0  0  0
 15 16  2  0  0  0  0
 15 38  1  0  0  0  0
 16 17  1  0  0  0  0
 16 39  1  0  0  0  0
 17 18  2  0  0  0  0
 17 40  1  0  0  0  0
M  END
> <s_m_source_file>
AV-unprocessed.smi

> <i_m_source_file_index>
3308

> <i_lp_mmshare_version>
43012

> <i_f3d_flags>
0

> <s_epik_input>
bjFbY0hdW2NIXVtjSF1uMVtDQEBIXShbQ0gzXSlbQ0BIXShbQ0gzXSlbTkhdW0NIMl1DKD1PKU4yW0NIMl1bQ0gyXVtDSDJdW0NIMl0y

> <s_epik_cmdline>
J2VwaWtfcHl0aG9uJywgJy1waCcsICc3LjAnLCAnLXRuJywgJzgnLCAnLW1hJywgJzIwMCcsICctbWV0YWxfYmluZGluZycsICctaW1hZScsICc8aW5maWxlLm1hZT4nLCAnLW9tYWUnLCAnPG91dGZpbGUubWFlPic=

> <r_lp_tautomer_probability>
1

> <r_epik_Ionization_Penalty>
0.918676

> <r_epik_Ionization_Penalty_Charging>
0

> <r_epik_Ionization_Penalty_Neutral>
0.918676

> <r_epik_State_Penalty>
0.958258

> <r_epik_Charging_Adjusted_Penalty>
0.958258

> <i_epik_Tot_Q>
0

> <i_epik_Tot_abs_Q>
0

> <r_epik_Metal_State_Penalty>
0.956879

> <b_epik_Metal_Only>
0

> <s_lp_Force_Field>
OPLS_2005

> <r_lp_Energy>
37.0374

> <b_lp_Chiralities_Consistent>
1

> <s_lp_Variant>
AV-unprocessed.smi:3308-5

> <Gold.Version>
5.8.1

> <Gold.Id.Protein>
6NUR|6NUR_protein|mol2

> <Gold.PLP.Fitness>
40.6971

> <Gold.PLP.PLP>
-34.5494

> <Gold.PLP.part.hbond>
-1.0000

> <Gold.PLP.part.metal>
0.0000

> <Gold.PLP.part.buried>
2.3734

> <Gold.PLP.part.nonpolar>
-35.3165

> <Gold.PLP.part.repulsive>
0.1616

> <Gold.PLP.ligand.clash>
0.0000

> <Gold.PLP.ligand.torsion>
0.7309

> <Gold.PLP.Chemscore.Hbond>
0.9913

> <Gold.PLP.Chemscore.CHOScore>
1.4821

> <Gold.PLP.Chemscore.Metal>
0.0000

> <Gold.Chemscore.Hbonds>
donor molecule, donor type, donor heavy atom, donor atom, acceptor molecule, acceptor atom, score
      P1  H  7997  8010       L1     3  1.00
      L1  C    15    38       P1  7957  1.00
      L1  C    17    40       P1  8028  0.39

> <Gold.PLP.Chemscore.Internal.Correction>
0.1897

> <Gold.Rescore>
     Score         DG    S(hbond)    S(metal)    S(lipo)     H(rot)  DE(clash)    DE(int)     intcor
     11.74     -12.62       0.21        0.00      92.76       1.72       0.33       0.55       ----

> <Gold.Chemscore.Fitness>
11.7406

> <Gold.Chemscore.DG>
-12.6176

> <Gold.Chemscore.ZeroCoef>
-5.4800

> <Gold.Chemscore.Hbond>
0.2060

> <Gold.Chemscore.Metal>
0.0000

> <Gold.Chemscore.Lipo>
92.7582

> <Gold.Chemscore.Internal_Hbond>
0.0000

> <Gold.Chemscore.DEClash>
0.3276

> <Gold.Chemscore.DEInternal>
0.5494

> <Gold.Chemscore.Rot>
1.7200

> <Gold.Chemscore.Internal.Correction>
   9.000000E+99

> <Gold.Chemscore.Hbonds>
donor molecule, donor type, donor heavy atom, donor atom, acceptor molecule, acceptor atom, score
      P1  H  7997  8010       L1     3  0.10

> <Gold.Chemscore.Hbond.Weighted>
-0.6880

> <Gold.Chemscore.Metal.Weighted>
-0.0000

> <Gold.Chemscore.Lipo.Weighted>
-10.8527

> <Gold.Chemscore.Internal_Hbond.Weighted>
0.0000

> <Gold.Chemscore.DEClash.Weighted>
0.3276

> <Gold.Chemscore.DEInternal.Weighted>
0.5494

> <Gold.Chemscore.Rot.Weighted>
4.4031

> <Gold.Chemscore.Internal.Correction.Weighted>
   9.000000E+99

> <Gold.Protein.RotatedTorsions>
[ 6907 6896 6895 6894 ] final -120.68 input  -60.11 | X-H torsion
[ 7974 7965 7964 7962 ] final  -10.24 input  175.53 | X-H torsion
[ 8008 7997 7996 7995 ] final   82.82 input   59.86 | X-H torsion
[ 10167 10162 10161 10158 ] final   17.88 input  -65.29 | X-H torsion
[ 10718 10713 10712 10709 ] final  -42.18 input   66.30 | X-H torsion
[ 10763 10752 10751 10750 ] final  139.32 input  -60.55 | X-H torsion
[ 11005 11000 10999 10996 ] final  141.01 input  -57.11 | X-H torsion

> <Gold.Protein.ActiveResidues>
 VAL166  LYS551  ARG553  GLY616  TRP617  ASP618  TYR619  PRO620  LYS621  CYS622 
 ASP623  PHE694  ASN695  SER759  ASP760  ASP761  ALA762  ILE779  LEU786  VAL792 
 PHE793  MET794  SER795  GLU796  ALA797  LYS798  CYS799  TRP800  GLU811  SER814 

> <Gold.Protein.RotatedAtoms>
  150.8415  133.7929  159.3059 H   0  0  0  0  0  0  0  0  0  0  0  0  # atno 6907 bound_to 6896
  151.5629  135.1063  159.9986 H   0  0  0  0  0  0  0  0  0  0  0  0  # atno 6908 bound_to 6896
  152.4477  133.7526  159.6759 H   0  0  0  0  0  0  0  0  0  0  0  0  # atno 6909 bound_to 6896
  146.2227  140.2735  142.8358 H   0  0  0  0  0  0  0  0  0  0  0  0  # atno 7974 bound_to 7965
  155.9157  140.3424  155.6133 H   0  0  0  0  0  0  0  0  0  0  0  0  # atno 8008 bound_to 7997
  155.7334  140.0798  157.2297 H   0  0  0  0  0  0  0  0  0  0  0  0  # atno 8009 bound_to 7997
  154.4062  140.1584  156.2522 H   0  0  0  0  0  0  0  0  0  0  0  0  # atno 8010 bound_to 7997
  140.5694  143.9190  150.6701 H   0  0  0  0  0  0  0  0  0  0  0  0  # atno 10167 bound_to 10162
  156.2624  130.4198  149.8528 H   0  0  0  0  0  0  0  0  0  0  0  0  # atno 10718 bound_to 10713
  153.9042  135.3018  155.3448 H   0  0  0  0  0  0  0  0  0  0  0  0  # atno 10763 bound_to 10752
  154.7655  135.4912  153.9549 H   0  0  0  0  0  0  0  0  0  0  0  0  # atno 10764 bound_to 10752
  153.1228  135.6786  153.9408 H   0  0  0  0  0  0  0  0  0  0  0  0  # atno 10765 bound_to 10752
  140.0369  134.9324  157.0770 H   0  0  0  0  0  0  0  0  0  0  0  0  # atno 11005 bound_to 11000
  144.9250  140.7911  143.5725 LP  0  0  0  0  0  0  0  0  0  0  0  0  # atno 17320 bound_to 7965
  145.2675  139.1968  143.4859 LP  0  0  0  0  0  0  0  0  0  0  0  0  # atno 17321 bound_to 7965
  140.2661  143.3489  152.1280 LP  0  0  0  0  0  0  0  0  0  0  0  0  # atno 17342 bound_to 10162
  139.5109  144.6893  151.5804 LP  0  0  0  0  0  0  0  0  0  0  0  0  # atno 17343 bound_to 10162
  156.6038  130.8558  151.3438 LP  0  0  0  0  0  0  0  0  0  0  0  0  # atno 17370 bound_to 10713
  157.7255  130.9617  150.1617 LP  0  0  0  0  0  0  0  0  0  0  0  0  # atno 17371 bound_to 10713
  140.4132  134.1959  155.7163 LP  0  0  0  0  0  0  0  0  0  0  0  0  # atno 17394 bound_to 11000
  141.1862  133.8307  157.1076 LP  0  0  0  0  0  0  0  0  0  0  0  0  # atno 17395 bound_to 11000

$$$$
