AV-unprocessed.smi:114|AV-procd|sdf|1113|dock9
  -GOLD-   2262018233D 1   1.00000     0.00000
 Structure written by MMmdl.
 32 34  0  0  0  0  0  0  0  0  1 V2000
  154.0966  137.5244  156.6893 N   0  0  0  0  0  0  0  0  0  0  0  0
  152.9873  138.2746  156.6312 C   0  0  0  0  0  0  0  0  0  0  0  0
  152.9840  139.4700  157.2652 N   0  0  0  0  0  0  0  0  0  0  0  0
  151.8951  140.2479  157.2343 C   0  0  0  0  0  0  0  0  0  0  0  0
  151.9790  141.4253  157.8970 F   0  0  0  0  0  0  0  0  0  0  0  0
  150.7333  139.9914  156.6239 N   0  0  0  0  0  0  0  0  0  0  0  0
  150.7308  138.7872  155.9821 C   0  0  0  0  0  0  0  0  0  0  0  0
  151.8181  137.8732  155.9401 C   0  0  0  0  0  0  0  0  0  0  0  0
  151.4669  136.7509  155.2031 N   0  0  0  0  0  0  0  0  0  0  0  0
  150.2376  136.9912  154.8340 C   0  0  0  0  0  0  0  0  0  0  0  0
  149.7123  138.1906  155.2630 N   0  0  0  0  0  0  0  0  0  0  0  0
  148.3335  138.7189  154.9982 C   0  0  2  0  0  0  0  0  0  0  0  0
  147.6301  137.8116  154.2008 O   0  0  0  0  0  0  0  0  0  0  0  0
  147.2271  138.4240  152.9755 C   0  0  1  0  0  0  0  0  0  0  0  0
  145.8898  137.8267  152.5111 C   0  0  0  0  0  0  0  0  0  0  0  0
  146.0539  136.4634  152.1840 O   0  0  0  0  0  0  0  0  0  0  0  0
  147.1384  139.9059  153.3455 C   0  0  2  0  0  0  0  0  0  0  0  0
  147.1797  140.7656  152.2218 O   0  0  0  0  0  0  0  0  0  0  0  0
  148.3273  140.0821  154.2797 C   0  0  2  0  0  0  0  0  0  0  0  0
  149.5332  140.3706  153.5888 O   0  0  0  0  0  0  0  0  0  0  0  0
  147.8607  138.7591  155.9802 H   0  0  0  0  0  0  0  0  0  0  0  0
  148.0028  138.2848  152.2207 H   0  0  0  0  0  0  0  0  0  0  0  0
  146.2178  140.0916  153.9012 H   0  0  0  0  0  0  0  0  0  0  0  0
  148.1542  140.8761  155.0067 H   0  0  0  0  0  0  0  0  0  0  0  0
  154.1217  136.6276  156.2258 H   0  0  0  0  0  0  0  0  0  0  0  0
  154.9036  137.8567  157.1972 H   0  0  0  0  0  0  0  0  0  0  0  0
  149.6724  136.2905  154.2368 H   0  0  0  0  0  0  0  0  0  0  0  0
  145.1159  137.9452  153.2702 H   0  0  0  0  0  0  0  0  0  0  0  0
  145.5429  138.3375  151.6124 H   0  0  0  0  0  0  0  0  0  0  0  0
  146.9110  136.3459  151.8040 H   0  0  0  0  0  0  0  0  0  0  0  0
  148.0633  140.7813  151.8875 H   0  0  0  0  0  0  0  0  0  0  0  0
  149.3882  140.2382  152.6645 H   0  0  0  0  0  0  0  0  0  0  0  0
  1  2  1  0  0  0  0
  1 25  1  0  0  0  0
  1 26  1  0  0  0  0
  2  8  1  0  0  0  0
  2  3  2  0  0  0  0
  3  4  1  0  0  0  0
  4  5  1  0  0  0  0
  4  6  2  0  0  0  0
  6  7  1  0  0  0  0
  7 11  1  0  0  0  0
  7  8  2  0  0  0  0
  8  9  1  0  0  0  0
  9 10  2  0  0  0  0
 10 11  1  0  0  0  0
 10 27  1  0  0  0  0
 11 12  1  0  0  0  0
 12 21  1  0  0  0  0
 12 19  1  0  0  0  0
 12 13  1  0  0  0  0
 13 14  1  0  0  0  0
 14 22  1  0  0  0  0
 14 15  1  0  0  0  0
 14 17  1  0  0  0  0
 15 16  1  0  0  0  0
 15 28  1  0  0  0  0
 15 29  1  0  0  0  0
 16 30  1  0  0  0  0
 17 23  1  0  0  0  0
 17 18  1  0  0  0  0
 17 19  1  0  0  0  0
 18 31  1  0  0  0  0
 19 24  1  0  0  0  0
 19 20  1  0  0  0  0
 20 32  1  0  0  0  0
M  END
> <s_m_source_file>
AV-unprocessed.smi

> <i_m_source_file_index>
114

> <i_lp_mmshare_version>
43012

> <i_f3d_flags>
0

> <s_epik_input>
RmMobjEpbmMoW05IMl0pYyhjMTIpbltjSF1uMltDQEBIXTNPW0NASF0oW0NIMl1bT0hdKVtDQEBIXShbT0hdKVtDQEBIXTNbT0hd

> <s_epik_cmdline>
J2VwaWtfcHl0aG9uJywgJy1waCcsICc3LjAnLCAnLXRuJywgJzgnLCAnLW1hJywgJzIwMCcsICctbWV0YWxfYmluZGluZycsICctaW1hZScsICc8aW5maWxlLm1hZT4nLCAnLW9tYWUnLCAnPG91dGZpbGUubWFlPic=

> <r_lp_tautomer_probability>
1

> <r_epik_Ionization_Penalty>
1.13199e-05

> <r_epik_Ionization_Penalty_Charging>
0

> <r_epik_Ionization_Penalty_Neutral>
1.13199e-05

> <r_epik_State_Penalty>
-0

> <r_epik_Charging_Adjusted_Penalty>
0

> <i_epik_Tot_Q>
0

> <i_epik_Tot_abs_Q>
0

> <r_epik_Metal_State_Penalty>
-0

> <b_epik_Metal_Only>
0

> <s_epik_Chemistry_Notes>
This compound contains an acetal/aminal-like group ( X-CH(R)-Y where X, Y are N, S, or O) that may be acid/base labile, releasing an aldehyde.

> <s_lp_Force_Field>
OPLS_2005

> <r_lp_Energy>
45.5286

> <b_lp_Chiralities_Consistent>
1

> <s_lp_Variant>
AV-unprocessed.smi:114-7

> <Gold.Version>
5.8.1

> <Gold.Id.Protein>
6NUR|6NUR_protein|mol2

> <Gold.PLP.Fitness>
39.2415

> <Gold.PLP.PLP>
-20.3694

> <Gold.PLP.part.hbond>
-5.7306

> <Gold.PLP.part.metal>
0.0000

> <Gold.PLP.part.buried>
0.2300

> <Gold.PLP.part.nonpolar>
-16.8732

> <Gold.PLP.part.repulsive>
1.1926

> <Gold.PLP.ligand.clash>
0.0000

> <Gold.PLP.ligand.torsion>
0.0135

> <Gold.PLP.Chemscore.Hbond>
5.2970

> <Gold.PLP.Chemscore.CHOScore>
1.0000

> <Gold.PLP.Chemscore.Metal>
0.0000

> <Gold.Chemscore.Hbonds>
donor molecule, donor type, donor heavy atom, donor atom, acceptor molecule, acceptor atom, score
      L1  H    16    30       P1  7948  1.00
      L1  H    18    31       P1  7957  1.00
      L1  H    20    32       P1  7957  1.00
      P1  H  7989  7998       L1    20  0.34
      P1  H  7997  8010       L1     3  1.00
      P1  H 10752 10765       L1     9  1.00
      L1  C    10    27       P1  7948  1.00

> <Gold.PLP.Chemscore.Internal.Correction>
0.0080

> <Gold.Rescore>
     Score         DG    S(hbond)    S(metal)    S(lipo)     H(rot)  DE(clash)    DE(int)     intcor
     11.86     -12.93       4.28        0.00      29.67       4.03       1.06       0.00       ----

> <Gold.Chemscore.Fitness>
11.8636

> <Gold.Chemscore.DG>
-12.9251

> <Gold.Chemscore.ZeroCoef>
-5.4800

> <Gold.Chemscore.Hbond>
4.2767

> <Gold.Chemscore.Metal>
0.0000

> <Gold.Chemscore.Lipo>
29.6745

> <Gold.Chemscore.Internal_Hbond>
0.0000

> <Gold.Chemscore.DEClash>
1.0573

> <Gold.Chemscore.DEInternal>
0.0042

> <Gold.Chemscore.Rot>
4.0277

> <Gold.Chemscore.Internal.Correction>
   9.000000E+99

> <Gold.Chemscore.Hbonds>
donor molecule, donor type, donor heavy atom, donor atom, acceptor molecule, acceptor atom, score
      L1  H    16    30       P1  7948  0.93
      L1  H    18    31       P1  7957  0.98
      L1  H    20    32       P1  7957  0.93
      P1  H  7989  7998       L1    20  0.06
      P1  H  7997  8010       L1     3  0.25
      P1  H 10752 10765       L1     9  0.89

> <Gold.Chemscore.Hbond.Weighted>
-14.2841

> <Gold.Chemscore.Metal.Weighted>
-0.0000

> <Gold.Chemscore.Lipo.Weighted>
-3.4719

> <Gold.Chemscore.Internal_Hbond.Weighted>
0.0000

> <Gold.Chemscore.DEClash.Weighted>
1.0573

> <Gold.Chemscore.DEInternal.Weighted>
0.0042

> <Gold.Chemscore.Rot.Weighted>
10.3110

> <Gold.Chemscore.Internal.Correction.Weighted>
   9.000000E+99

> <Gold.Protein.RotatedTorsions>
[ 6907 6896 6895 6894 ] final   -9.46 input  -60.11 | X-H torsion
[ 7974 7965 7964 7962 ] final  106.91 input  175.53 | X-H torsion
[ 8008 7997 7996 7995 ] final   51.36 input   59.86 | X-H torsion
[ 10167 10162 10161 10158 ] final   11.91 input  -65.29 | X-H torsion
[ 10718 10713 10712 10709 ] final  132.94 input   66.30 | X-H torsion
[ 10763 10752 10751 10750 ] final -172.69 input  -60.55 | X-H torsion
[ 11005 11000 10999 10996 ] final   17.83 input  -57.11 | X-H torsion

> <Gold.Protein.ActiveResidues>
 VAL166  LYS551  ARG553  GLY616  TRP617  ASP618  TYR619  PRO620  LYS621  CYS622 
 ASP623  PHE694  ASN695  SER759  ASP760  ASP761  ALA762  ILE779  LEU786  VAL792 
 PHE793  MET794  SER795  GLU796  ALA797  LYS798  CYS799  TRP800  GLU811  SER814 

> <Gold.Protein.RotatedAtoms>
  151.4174  135.0993  159.9603 H   0  0  0  0  0  0  0  0  0  0  0  0  # atno 6907 bound_to 6896
  152.5000  133.8739  159.7323 H   0  0  0  0  0  0  0  0  0  0  0  0  # atno 6908 bound_to 6896
  150.9248  133.6780  159.2852 H   0  0  0  0  0  0  0  0  0  0  0  0  # atno 6909 bound_to 6896
  145.3005  139.2571  143.3816 H   0  0  0  0  0  0  0  0  0  0  0  0  # atno 7974 bound_to 7965
  155.4340  140.3452  155.4283 H   0  0  0  0  0  0  0  0  0  0  0  0  # atno 8008 bound_to 7997
  156.1319  140.1516  156.9083 H   0  0  0  0  0  0  0  0  0  0  0  0  # atno 8009 bound_to 7997
  154.4901  140.0843  156.7555 H   0  0  0  0  0  0  0  0  0  0  0  0  # atno 8010 bound_to 7997
  140.6102  143.8424  150.7057 H   0  0  0  0  0  0  0  0  0  0  0  0  # atno 10167 bound_to 10162
  157.4822  131.1086  150.9667 H   0  0  0  0  0  0  0  0  0  0  0  0  # atno 10718 bound_to 10713
  154.6164  135.2870  155.0375 H   0  0  0  0  0  0  0  0  0  0  0  0  # atno 10763 bound_to 10752
  154.1585  135.6492  153.4984 H   0  0  0  0  0  0  0  0  0  0  0  0  # atno 10764 bound_to 10752
  153.0217  135.5372  154.6938 H   0  0  0  0  0  0  0  0  0  0  0  0  # atno 10765 bound_to 10752
  140.4316  134.1414  155.7681 H   0  0  0  0  0  0  0  0  0  0  0  0  # atno 11005 bound_to 11000
  146.3153  140.3518  142.8657 LP  0  0  0  0  0  0  0  0  0  0  0  0  # atno 17320 bound_to 7965
  144.9097  140.7743  143.5815 LP  0  0  0  0  0  0  0  0  0  0  0  0  # atno 17321 bound_to 7965
  140.1991  143.3974  152.1805 LP  0  0  0  0  0  0  0  0  0  0  0  0  # atno 17342 bound_to 10162
  139.5355  144.7205  151.4908 LP  0  0  0  0  0  0  0  0  0  0  0  0  # atno 17343 bound_to 10162
  157.0397  130.5744  149.5354 LP  0  0  0  0  0  0  0  0  0  0  0  0  # atno 17370 bound_to 10713
  156.0127  130.5220  150.8040 LP  0  0  0  0  0  0  0  0  0  0  0  0  # atno 17371 bound_to 10713
  141.1743  133.8546  157.1471 LP  0  0  0  0  0  0  0  0  0  0  0  0  # atno 17394 bound_to 11000
  140.0130  134.9980  157.0435 LP  0  0  0  0  0  0  0  0  0  0  0  0  # atno 17395 bound_to 11000

$$$$
