AV-unprocessed.smi:2939|AV-procd|sdf|11261|dock2
  -GOLD-   2272016153D 1   1.00000     0.00000
 Structure written by MMmdl.
 30 31  0  0  0  0  0  0  0  0  2 V2000
  151.3042  136.0675  154.8538 O   0  0  0  0  0  0  0  0  0  0  0  0
  151.0508  137.1122  155.4923 C   0  0  0  0  0  0  0  0  0  0  0  0
  150.5748  137.1614  156.6475 O   0  5  0  0  0  0  0  0  0  0  0  0
  151.3507  138.4457  154.8013 C   0  0  0  0  0  0  0  0  0  0  0  0
  151.0299  139.5963  155.6346 N   0  0  0  0  0  0  0  0  0  0  0  0
  149.9559  140.4280  155.2247 C   0  0  0  0  0  0  0  0  0  0  0  0
  149.2188  140.1358  154.2821 O   0  0  0  0  0  0  0  0  0  0  0  0
  149.7917  141.6486  156.0053 C   0  0  0  0  0  0  0  0  0  0  0  0
  150.6288  141.9399  157.0235 C   0  0  0  0  0  0  0  0  0  0  0  0
  151.6807  141.1224  157.3876 N   0  0  0  0  0  0  0  0  0  0  0  0
  152.5703  141.4575  158.4711 C   0  0  0  0  0  0  0  0  0  0  0  0
  152.3180  142.8017  159.1438 C   0  0  0  0  0  0  0  0  0  0  0  0
  152.0553  142.8415  160.5294 C   0  0  0  0  0  0  0  0  0  0  0  0
  151.8140  144.0709  161.1731 C   0  0  0  0  0  0  0  0  0  0  0  0
  151.8284  145.2686  160.4329 C   0  0  0  0  0  0  0  0  0  0  0  0
  152.0827  145.2356  159.0486 C   0  0  0  0  0  0  0  0  0  0  0  0
  152.3245  144.0064  158.4047 C   0  0  0  0  0  0  0  0  0  0  0  0
  151.9217  139.9173  156.6877 C   0  0  0  0  0  0  0  0  0  0  0  0
  152.8663  139.1826  156.9907 O   0  0  0  0  0  0  0  0  0  0  0  0
  152.4010  138.5091  154.5121 H   0  0  0  0  0  0  0  0  0  0  0  0
  150.7989  138.5326  153.8640 H   0  0  0  0  0  0  0  0  0  0  0  0
  148.9903  142.3300  155.7610 H   0  0  0  0  0  0  0  0  0  0  0  0
  150.4693  142.8577  157.5706 H   0  0  0  0  0  0  0  0  0  0  0  0
  152.4622  140.6612  159.2085 H   0  0  0  0  0  0  0  0  0  0  0  0
  153.5856  141.3832  158.0758 H   0  0  0  0  0  0  0  0  0  0  0  0
  152.0424  141.9273  161.1047 H   0  0  0  0  0  0  0  0  0  0  0  0
  151.6174  144.0948  162.2349 H   0  0  0  0  0  0  0  0  0  0  0  0
  151.6432  146.2113  160.9262 H   0  0  0  0  0  0  0  0  0  0  0  0
  152.0919  146.1533  158.4794 H   0  0  0  0  0  0  0  0  0  0  0  0
  152.5152  143.9969  157.3418 H   0  0  0  0  0  0  0  0  0  0  0  0
  1  2  2  0  0  0  0
  2  3  1  0  0  0  0
  2  4  1  0  0  0  0
  4  5  1  0  0  0  0
  4 20  1  0  0  0  0
  4 21  1  0  0  0  0
  5 18  1  0  0  0  0
  5  6  1  0  0  0  0
  6  7  2  0  0  0  0
  6  8  1  0  0  0  0
  8  9  2  0  0  0  0
  8 22  1  0  0  0  0
  9 10  1  0  0  0  0
  9 23  1  0  0  0  0
 10 11  1  0  0  0  0
 10 18  1  0  0  0  0
 11 12  1  0  0  0  0
 11 24  1  0  0  0  0
 11 25  1  0  0  0  0
 12 17  1  0  0  0  0
 12 13  2  0  0  0  0
 13 14  1  0  0  0  0
 13 26  1  0  0  0  0
 14 15  2  0  0  0  0
 14 27  1  0  0  0  0
 15 16  1  0  0  0  0
 15 28  1  0  0  0  0
 16 17  2  0  0  0  0
 16 29  1  0  0  0  0
 17 30  1  0  0  0  0
 18 19  2  0  0  0  0
M  CHG  1   3  -1
M  END
> <s_m_source_file>
AV-unprocessed.smi

> <i_m_source_file_index>
2939

> <i_lp_mmshare_version>
43012

> <i_f3d_flags>
0

> <s_epik_input>
Tz1DKFtPSF0pW0NIMl1uMWMoPU8pW2NIXVtjSF1uKGMxPU8pW0NIMl1jMltjSF1bY0hdW2NIXVtjSF1bY0hdMg==

> <s_epik_cmdline>
J2VwaWtfcHl0aG9uJywgJy1waCcsICc3LjAnLCAnLXRuJywgJzgnLCAnLW1hJywgJzIwMCcsICctbWV0YWxfYmluZGluZycsICctaW1hZScsICc8aW5maWxlLm1hZT4nLCAnLW9tYWUnLCAnPG91dGZpbGUubWFlPic=

> <r_lp_tautomer_probability>
1

> <r_epik_Ionization_Penalty>
0.00125818

> <r_epik_Ionization_Penalty_Charging>
0.00125818

> <r_epik_Ionization_Penalty_Neutral>
0

> <r_epik_State_Penalty>
0.000832915

> <r_epik_Charging_Adjusted_Penalty>
0.00209109

> <i_epik_Tot_Q>
-1

> <i_epik_Tot_abs_Q>
1

> <r_epik_Metal_State_Penalty>
-0

> <b_epik_Metal_Only>
0

> <s_lp_Force_Field>
OPLS_2005

> <r_lp_Energy>
10.7616

> <b_lp_Chiralities_Consistent>
1

> <s_lp_Variant>
AV-unprocessed.smi:2939-1

> <Gold.Version>
5.8.1

> <Gold.Id.Protein>
6NUR|6NUR_protein|mol2

> <Gold.PLP.Fitness>
53.6285

> <Gold.PLP.PLP>
-44.8845

> <Gold.PLP.part.hbond>
-2.0000

> <Gold.PLP.part.metal>
0.0000

> <Gold.PLP.part.buried>
-5.6760

> <Gold.PLP.part.nonpolar>
-37.3636

> <Gold.PLP.part.repulsive>
0.2950

> <Gold.PLP.ligand.clash>
0.0000

> <Gold.PLP.ligand.torsion>
0.1499

> <Gold.PLP.Chemscore.Hbond>
3.0000

> <Gold.PLP.Chemscore.CHOScore>
0.0000

> <Gold.PLP.Chemscore.Metal>
0.0000

> <Gold.Chemscore.Hbonds>
donor molecule, donor type, donor heavy atom, donor atom, acceptor molecule, acceptor atom, score
      P1  H  7997  8009       L1    19  1.00
      P1  H 10752 10765       L1     1  2.00

> <Gold.PLP.Chemscore.Internal.Correction>
0.0439

> <Gold.Rescore>
     Score         DG    S(hbond)    S(metal)    S(lipo)     H(rot)  DE(clash)    DE(int)     intcor
     18.19     -18.49       1.88        0.00     104.14       2.13       0.07       0.23       ----

> <Gold.Chemscore.Fitness>
18.1940

> <Gold.Chemscore.DG>
-18.4942

> <Gold.Chemscore.ZeroCoef>
-5.4800

> <Gold.Chemscore.Hbond>
1.8795

> <Gold.Chemscore.Metal>
0.0000

> <Gold.Chemscore.Lipo>
104.1425

> <Gold.Chemscore.Internal_Hbond>
0.0000

> <Gold.Chemscore.DEClash>
0.0724

> <Gold.Chemscore.DEInternal>
0.2278

> <Gold.Chemscore.Rot>
2.1282

> <Gold.Chemscore.Internal.Correction>
   9.000000E+99

> <Gold.Chemscore.Hbonds>
donor molecule, donor type, donor heavy atom, donor atom, acceptor molecule, acceptor atom, score
      P1  H  7997  8009       L1    19  0.45
      P1  H 10752 10765       L1     1  0.99

> <Gold.Chemscore.Hbond.Weighted>
-6.2776

> <Gold.Chemscore.Metal.Weighted>
-0.0000

> <Gold.Chemscore.Lipo.Weighted>
-12.1847

> <Gold.Chemscore.Internal_Hbond.Weighted>
0.0000

> <Gold.Chemscore.DEClash.Weighted>
0.0724

> <Gold.Chemscore.DEInternal.Weighted>
0.2278

> <Gold.Chemscore.Rot.Weighted>
5.4481

> <Gold.Chemscore.Internal.Correction.Weighted>
   9.000000E+99

> <Gold.Protein.RotatedTorsions>
[ 6907 6896 6895 6894 ] final   52.69 input  -60.11 | X-H torsion
[ 7974 7965 7964 7962 ] final   20.25 input  175.53 | X-H torsion
[ 8008 7997 7996 7995 ] final -165.90 input   59.86 | X-H torsion
[ 10167 10162 10161 10158 ] final   52.89 input  -65.29 | X-H torsion
[ 10718 10713 10712 10709 ] final -143.75 input   66.30 | X-H torsion
[ 10763 10752 10751 10750 ] final  172.82 input  -60.55 | X-H torsion
[ 11005 11000 10999 10996 ] final   58.27 input  -57.11 | X-H torsion

> <Gold.Protein.ActiveResidues>
 VAL166  LYS551  ARG553  GLY616  TRP617  ASP618  TYR619  PRO620  LYS621  CYS622 
 ASP623  PHE694  ASN695  SER759  ASP760  ASP761  ALA762  ILE779  LEU786  VAL792 
 PHE793  MET794  SER795  GLU796  ALA797  LYS798  CYS799  TRP800  GLU811  SER814 

> <Gold.Protein.RotatedAtoms>
  152.3259  134.7321  160.0301 H   0  0  0  0  0  0  0  0  0  0  0  0  # atno 6907 bound_to 6896
  151.7753  133.3339  159.3464 H   0  0  0  0  0  0  0  0  0  0  0  0  # atno 6908 bound_to 6896
  150.7396  134.5912  159.6033 H   0  0  0  0  0  0  0  0  0  0  0  0  # atno 6909 bound_to 6896
  146.2118  139.8196  142.8682 H   0  0  0  0  0  0  0  0  0  0  0  0  # atno 7974 bound_to 7965
  155.8563  140.0971  157.1642 H   0  0  0  0  0  0  0  0  0  0  0  0  # atno 8008 bound_to 7997
  154.3988  140.1373  156.3968 H   0  0  0  0  0  0  0  0  0  0  0  0  # atno 8009 bound_to 7997
  155.7906  140.3456  155.5350 H   0  0  0  0  0  0  0  0  0  0  0  0  # atno 8010 bound_to 7997
  140.2466  144.3525  150.6362 H   0  0  0  0  0  0  0  0  0  0  0  0  # atno 10167 bound_to 10162
  156.3617  130.7741  151.1910 H   0  0  0  0  0  0  0  0  0  0  0  0  # atno 10718 bound_to 10713
  154.4314  135.2760  155.1910 H   0  0  0  0  0  0  0  0  0  0  0  0  # atno 10763 bound_to 10752
  154.3814  135.6087  153.5796 H   0  0  0  0  0  0  0  0  0  0  0  0  # atno 10764 bound_to 10752
  152.9836  135.5881  154.4626 H   0  0  0  0  0  0  0  0  0  0  0  0  # atno 10765 bound_to 10752
  140.0390  134.5901  155.9406 H   0  0  0  0  0  0  0  0  0  0  0  0  # atno 11005 bound_to 11000
  145.3110  141.0220  143.3554 LP  0  0  0  0  0  0  0  0  0  0  0  0  # atno 17320 bound_to 7965
  144.8936  139.4742  143.6666 LP  0  0  0  0  0  0  0  0  0  0  0  0  # atno 17321 bound_to 7965
  140.6073  143.2168  151.6956 LP  0  0  0  0  0  0  0  0  0  0  0  0  # atno 17342 bound_to 10162
  139.5060  144.3699  152.0481 LP  0  0  0  0  0  0  0  0  0  0  0  0  # atno 17343 bound_to 10162
  157.7474  131.0398  150.4568 LP  0  0  0  0  0  0  0  0  0  0  0  0  # atno 17370 bound_to 10713
  156.4780  130.4067  149.6478 LP  0  0  0  0  0  0  0  0  0  0  0  0  # atno 17371 bound_to 10713
  141.1873  133.6559  156.5275 LP  0  0  0  0  0  0  0  0  0  0  0  0  # atno 17394 bound_to 11000
  140.4100  134.7281  157.4830 LP  0  0  0  0  0  0  0  0  0  0  0  0  # atno 17395 bound_to 11000

$$$$
