AV-unprocessed.smi:2665|AV-procd|sdf|10330|dock5
  -GOLD-   2272014343D 1   1.00000     0.00000
 Structure written by MMmdl.
 29 30  0  0  0  0  0  0  0  0  2 V2000
  151.2391  145.3038  159.0707 C   0  0  0  0  0  0  0  0  0  0  0  0
  152.0467  144.0022  159.1130 C   0  0  2  0  0  0  0  0  0  0  0  0
  151.3290  142.8511  158.3817 C   0  0  0  0  0  0  0  0  0  0  0  0
  152.0898  141.6162  158.5248 N   0  0  0  0  0  0  0  0  0  0  0  0
  151.5660  140.5468  157.7846 C   0  0  0  0  0  0  0  0  0  0  0  0
  152.3079  140.0409  156.6974 C   0  0  0  0  0  0  0  0  0  0  0  0
  151.7830  138.9634  155.9476 C   0  0  0  0  0  0  0  0  0  0  0  0
  152.5379  138.3906  154.7798 C   0  0  0  0  0  0  0  0  0  0  0  0
  152.0114  137.4714  154.1135 O   0  0  0  0  0  0  0  0  0  0  0  0
  153.6700  138.8498  154.5086 O   0  5  0  0  0  0  0  0  0  0  0  0
  150.5267  138.4413  156.3295 C   0  0  0  0  0  0  0  0  0  0  0  0
  149.8624  139.0142  157.4306 C   0  0  0  0  0  0  0  0  0  0  0  0
  150.3625  140.0425  158.1469 N   0  0  0  0  0  0  0  0  0  0  0  0
  152.3562  141.2836  159.9182 C   0  0  0  0  0  0  0  0  0  0  0  0
  153.0436  142.4681  160.6178 C   0  0  0  0  0  0  0  0  0  0  0  0
  152.2409  143.6376  160.4782 O   0  0  0  0  0  0  0  0  0  0  0  0
  151.0741  145.6295  158.0433 H   0  0  0  0  0  0  0  0  0  0  0  0
  151.7628  146.1045  159.5935 H   0  0  0  0  0  0  0  0  0  0  0  0
  150.2643  145.1788  159.5429 H   0  0  0  0  0  0  0  0  0  0  0  0
  153.0189  144.1813  158.6500 H   0  0  0  0  0  0  0  0  0  0  0  0
  150.3270  142.7158  158.7917 H   0  0  0  0  0  0  0  0  0  0  0  0
  151.2159  143.0901  157.3236 H   0  0  0  0  0  0  0  0  0  0  0  0
  153.2642  140.4773  156.4468 H   0  0  0  0  0  0  0  0  0  0  0  0
  150.0742  137.6181  155.7959 H   0  0  0  0  0  0  0  0  0  0  0  0
  148.9017  138.6352  157.7458 H   0  0  0  0  0  0  0  0  0  0  0  0
  151.4210  141.0452  160.4270 H   0  0  0  0  0  0  0  0  0  0  0  0
  152.9894  140.3970  159.9720 H   0  0  0  0  0  0  0  0  0  0  0  0
  153.1771  142.2529  161.6779 H   0  0  0  0  0  0  0  0  0  0  0  0
  154.0363  142.6441  160.2004 H   0  0  0  0  0  0  0  0  0  0  0  0
  1  2  1  0  0  0  0
  1 17  1  0  0  0  0
  1 18  1  0  0  0  0
  1 19  1  0  0  0  0
  2 16  1  0  0  0  0
  2  3  1  0  0  0  0
  2 20  1  0  0  0  0
  3  4  1  0  0  0  0
  3 21  1  0  0  0  0
  3 22  1  0  0  0  0
  4  5  1  0  0  0  0
  4 14  1  0  0  0  0
  5 13  1  0  0  0  0
  5  6  2  0  0  0  0
  6  7  1  0  0  0  0
  6 23  1  0  0  0  0
  7  8  1  0  0  0  0
  7 11  2  0  0  0  0
  8  9  2  0  0  0  0
  8 10  1  0  0  0  0
 11 12  1  0  0  0  0
 11 24  1  0  0  0  0
 12 13  2  0  0  0  0
 12 25  1  0  0  0  0
 14 15  1  0  0  0  0
 14 26  1  0  0  0  0
 14 27  1  0  0  0  0
 15 16  1  0  0  0  0
 15 28  1  0  0  0  0
 15 29  1  0  0  0  0
M  CHG  1  10  -1
M  END
> <s_m_source_file>
AV-unprocessed.smi

> <i_m_source_file_index>
2665

> <i_lp_mmshare_version>
43012

> <i_f3d_flags>
0

> <s_epik_input>
W0NIM11bQ0BASF0xW0NIMl1OKFtDSDJdW0NIMl1PMSljMltjSF1jKEMoPU8pW09IXSlbY0hdW2NIXW4y

> <s_epik_cmdline>
J2VwaWtfcHl0aG9uJywgJy1waCcsICc3LjAnLCAnLXRuJywgJzgnLCAnLW1hJywgJzIwMCcsICctbWV0YWxfYmluZGluZycsICctaW1hZScsICc8aW5maWxlLm1hZT4nLCAnLW9tYWUnLCAnPG91dGZpbGUubWFlPic=

> <r_epik_Ionization_Penalty>
0.00511367

> <r_epik_Ionization_Penalty_Charging>
0.00135522

> <r_epik_Ionization_Penalty_Neutral>
0.00375844

> <r_epik_State_Penalty>
0.00357724

> <r_epik_Charging_Adjusted_Penalty>
0.00493246

> <i_epik_Tot_Q>
-1

> <i_epik_Tot_abs_Q>
1

> <r_epik_Metal_State_Penalty>
-0

> <b_epik_Metal_Only>
0

> <s_lp_Force_Field>
OPLS_2005

> <r_lp_Energy>
17.7567

> <b_lp_Chiralities_Consistent>
1

> <s_lp_Variant>
AV-unprocessed.smi:2665-1

> <Gold.Version>
5.8.1

> <Gold.Id.Protein>
6NUR|6NUR_protein|mol2

> <Gold.PLP.Fitness>
40.7828

> <Gold.PLP.PLP>
-29.3834

> <Gold.PLP.part.hbond>
-2.0000

> <Gold.PLP.part.metal>
0.0000

> <Gold.PLP.part.buried>
-3.6826

> <Gold.PLP.part.nonpolar>
-24.1652

> <Gold.PLP.part.repulsive>
0.3165

> <Gold.PLP.ligand.clash>
0.0000

> <Gold.PLP.ligand.torsion>
0.0642

> <Gold.PLP.Chemscore.Hbond>
3.8080

> <Gold.PLP.Chemscore.CHOScore>
0.0000

> <Gold.PLP.Chemscore.Metal>
0.0000

> <Gold.Chemscore.Hbonds>
donor molecule, donor type, donor heavy atom, donor atom, acceptor molecule, acceptor atom, score
      P1  H  7997  8008       L1    10  1.98
      P1  H 10752 10763       L1     9  1.79

> <Gold.PLP.Chemscore.Internal.Correction>
0.1037

> <Gold.Rescore>
     Score         DG    S(hbond)    S(metal)    S(lipo)     H(rot)  DE(clash)    DE(int)     intcor
     16.86     -17.14       1.73        0.00      72.00       1.00       0.20       0.07       ----

> <Gold.Chemscore.Fitness>
16.8609

> <Gold.Chemscore.DG>
-17.1366

> <Gold.Chemscore.ZeroCoef>
-5.4800

> <Gold.Chemscore.Hbond>
1.7342

> <Gold.Chemscore.Metal>
0.0000

> <Gold.Chemscore.Lipo>
72.0017

> <Gold.Chemscore.Internal_Hbond>
0.0000

> <Gold.Chemscore.DEClash>
0.2040

> <Gold.Chemscore.DEInternal>
0.0717

> <Gold.Chemscore.Rot>
1.0000

> <Gold.Chemscore.Internal.Correction>
   9.000000E+99

> <Gold.Chemscore.Hbonds>
donor molecule, donor type, donor heavy atom, donor atom, acceptor molecule, acceptor atom, score
      P1  H  7997  8008       L1    10  0.89
      P1  H 10752 10763       L1     9  0.76

> <Gold.Chemscore.Hbond.Weighted>
-5.7924

> <Gold.Chemscore.Metal.Weighted>
-0.0000

> <Gold.Chemscore.Lipo.Weighted>
-8.4242

> <Gold.Chemscore.Internal_Hbond.Weighted>
0.0000

> <Gold.Chemscore.DEClash.Weighted>
0.2040

> <Gold.Chemscore.DEInternal.Weighted>
0.0717

> <Gold.Chemscore.Rot.Weighted>
2.5600

> <Gold.Chemscore.Internal.Correction.Weighted>
   9.000000E+99

> <Gold.Protein.RotatedTorsions>
[ 6907 6896 6895 6894 ] final  -79.92 input  -60.11 | X-H torsion
[ 7974 7965 7964 7962 ] final  -62.44 input  175.53 | X-H torsion
[ 8008 7997 7996 7995 ] final    2.81 input   59.86 | X-H torsion
[ 10167 10162 10161 10158 ] final   30.19 input  -65.29 | X-H torsion
[ 10718 10713 10712 10709 ] final -109.26 input   66.30 | X-H torsion
[ 10763 10752 10751 10750 ] final   25.92 input  -60.55 | X-H torsion
[ 11005 11000 10999 10996 ] final   51.28 input  -57.11 | X-H torsion

> <Gold.Protein.ActiveResidues>
 VAL166  LYS551  ARG553  GLY616  TRP617  ASP618  TYR619  PRO620  LYS621  CYS622 
 ASP623  PHE694  ASN695  SER759  ASP760  ASP761  ALA762  ILE779  LEU786  VAL792 
 PHE793  MET794  SER795  GLU796  ALA797  LYS798  CYS799  TRP800  GLU811  SER814 

> <Gold.Protein.RotatedAtoms>
  150.6940  134.4049  159.5135 H   0  0  0  0  0  0  0  0  0  0  0  0  # atno 6907 bound_to 6896
  152.1816  134.8746  160.0535 H   0  0  0  0  0  0  0  0  0  0  0  0  # atno 6908 bound_to 6896
  151.9734  133.3698  159.4117 H   0  0  0  0  0  0  0  0  0  0  0  0  # atno 6909 bound_to 6896
  145.7913  140.8708  143.0279 H   0  0  0  0  0  0  0  0  0  0  0  0  # atno 7974 bound_to 7965
  154.6961  140.2663  155.6765 H   0  0  0  0  0  0  0  0  0  0  0  0  # atno 8008 bound_to 7997
  156.2749  140.2781  156.1479 H   0  0  0  0  0  0  0  0  0  0  0  0  # atno 8009 bound_to 7997
  155.0829  140.0373  157.2635 H   0  0  0  0  0  0  0  0  0  0  0  0  # atno 8010 bound_to 7997
  140.4700  144.0777  150.6234 H   0  0  0  0  0  0  0  0  0  0  0  0  # atno 10167 bound_to 10162
  156.0528  130.5755  150.8076 H   0  0  0  0  0  0  0  0  0  0  0  0  # atno 10718 bound_to 10713
  153.0658  135.6572  154.0358 H   0  0  0  0  0  0  0  0  0  0  0  0  # atno 10763 bound_to 10752
  154.0016  135.2936  155.3403 H   0  0  0  0  0  0  0  0  0  0  0  0  # atno 10764 bound_to 10752
  154.7015  135.5242  153.8602 H   0  0  0  0  0  0  0  0  0  0  0  0  # atno 10765 bound_to 10752
  140.0946  134.5163  155.8819 H   0  0  0  0  0  0  0  0  0  0  0  0  # atno 11005 bound_to 11000
  144.6781  140.0128  143.7484 LP  0  0  0  0  0  0  0  0  0  0  0  0  # atno 17320 bound_to 7965
  145.9974  139.3063  143.0948 LP  0  0  0  0  0  0  0  0  0  0  0  0  # atno 17321 bound_to 7965
  140.3989  143.2714  151.9971 LP  0  0  0  0  0  0  0  0  0  0  0  0  # atno 17342 bound_to 10162
  139.4817  144.6014  151.7598 LP  0  0  0  0  0  0  0  0  0  0  0  0  # atno 17343 bound_to 10162
  157.5470  131.0942  150.9748 LP  0  0  0  0  0  0  0  0  0  0  0  0  # atno 17370 bound_to 10713
  157.0017  130.5602  149.5312 LP  0  0  0  0  0  0  0  0  0  0  0  0  # atno 17371 bound_to 10713
  141.2088  133.6677  156.6396 LP  0  0  0  0  0  0  0  0  0  0  0  0  # atno 17394 bound_to 11000
  140.3304  134.7933  157.4322 LP  0  0  0  0  0  0  0  0  0  0  0  0  # atno 17395 bound_to 11000

$$$$
