AV-unprocessed.smi:1218|AV-procd|sdf|5107|dock7
  -GOLD-   22720 4163D 1   1.00000     0.00000
 Structure written by MMmdl.
 45 46  0  0  0  0  0  0  0  0  2 V2000
  145.5944  131.6059  150.1412 C   0  0  0  0  0  0  0  0  0  0  0  0
  145.3293  132.6649  151.2217 C   0  0  0  0  0  0  0  0  0  0  0  0
  144.4322  133.7841  150.6668 C   0  0  0  0  0  0  0  0  0  0  0  0
  146.6604  133.2152  151.7786 C   0  0  0  0  0  0  0  0  0  0  0  0
  147.2562  132.3538  152.8365 N   0  3  2  0  0  0  0  0  0  0  0  0
  146.3282  132.0677  153.9571 C   0  0  0  0  0  0  0  0  0  0  0  0
  146.2293  133.2684  154.9144 C   0  0  0  0  0  0  0  0  0  0  0  0
  147.5283  133.5969  155.3896 O   0  0  0  0  0  0  0  0  0  0  0  0
  148.4133  133.9940  154.3463 C   0  0  1  0  0  0  0  0  0  0  0  0
  149.7645  134.3939  154.9661 C   0  0  0  0  0  0  0  0  0  0  0  0
  149.6187  135.4605  155.9511 N   0  0  0  0  0  0  0  0  0  0  0  0
  150.6198  136.0043  156.6601 C   0  0  0  0  0  0  0  0  0  0  0  0
  151.7930  135.6446  156.5553 O   0  0  0  0  0  0  0  0  0  0  0  0
  150.2289  137.1182  157.6372 C   0  0  0  0  0  0  0  0  0  0  0  0
  151.3904  137.8097  158.1722 N   0  0  0  0  0  0  0  0  0  0  0  0
  151.8397  139.0826  157.8851 C   0  0  0  0  0  0  0  0  0  0  0  0
  152.9607  139.2971  158.6346 C   0  0  0  0  0  0  0  0  0  0  0  0
  153.1186  138.0839  159.3613 C   0  0  0  0  0  0  0  0  0  0  0  0
  152.1761  137.1971  159.0849 N   0  0  0  0  0  0  0  0  0  0  0  0
  148.5688  132.8156  153.3586 C   0  0  0  0  0  0  0  0  0  0  0  0
  146.1357  132.0285  149.2939 H   0  0  0  0  0  0  0  0  0  0  0  0
  144.6612  131.1869  149.7635 H   0  0  0  0  0  0  0  0  0  0  0  0
  146.1874  130.7798  150.5354 H   0  0  0  0  0  0  0  0  0  0  0  0
  144.7834  132.1636  152.0201 H   0  0  0  0  0  0  0  0  0  0  0  0
  144.9255  134.3244  149.8582 H   0  0  0  0  0  0  0  0  0  0  0  0
  144.1693  134.5070  151.4394 H   0  0  0  0  0  0  0  0  0  0  0  0
  143.4997  133.3784  150.2730 H   0  0  0  0  0  0  0  0  0  0  0  0
  147.3766  133.3630  150.9705 H   0  0  0  0  0  0  0  0  0  0  0  0
  146.4682  134.2073  152.1901 H   0  0  0  0  0  0  0  0  0  0  0  0
  145.3438  131.7842  153.5831 H   0  0  0  0  0  0  0  0  0  0  0  0
  146.7066  131.2032  154.5041 H   0  0  0  0  0  0  0  0  0  0  0  0
  145.7740  134.1317  154.4269 H   0  0  0  0  0  0  0  0  0  0  0  0
  145.5979  133.0163  155.7665 H   0  0  0  0  0  0  0  0  0  0  0  0
  147.9997  134.8617  153.8303 H   0  0  0  0  0  0  0  0  0  0  0  0
  150.2636  133.5265  155.4019 H   0  0  0  0  0  0  0  0  0  0  0  0
  150.4271  134.7679  154.1851 H   0  0  0  0  0  0  0  0  0  0  0  0
  148.6860  135.8171  156.1017 H   0  0  0  0  0  0  0  0  0  0  0  0
  149.5925  137.8532  157.1424 H   0  0  0  0  0  0  0  0  0  0  0  0
  149.6486  136.6893  158.4557 H   0  0  0  0  0  0  0  0  0  0  0  0
  151.3311  139.7207  157.1775 H   0  0  0  0  0  0  0  0  0  0  0  0
  153.5743  140.1853  158.6607 H   0  0  0  0  0  0  0  0  0  0  0  0
  153.8838  137.8238  160.0778 H   0  0  0  0  0  0  0  0  0  0  0  0
  149.0370  131.9757  153.8738 H   0  0  0  0  0  0  0  0  0  0  0  0
  149.2435  133.0813  152.5460 H   0  0  0  0  0  0  0  0  0  0  0  0
  147.4221  131.4655  152.3849 H   0  0  0  0  0  0  0  0  0  0  0  0
  1  2  1  0  0  0  0
  1 21  1  0  0  0  0
  1 22  1  0  0  0  0
  1 23  1  0  0  0  0
  2  3  1  0  0  0  0
  2  4  1  0  0  0  0
  2 24  1  0  0  0  0
  3 25  1  0  0  0  0
  3 26  1  0  0  0  0
  3 27  1  0  0  0  0
  4  5  1  0  0  0  0
  4 28  1  0  0  0  0
  4 29  1  0  0  0  0
  5 20  1  0  0  0  0
  5  6  1  0  0  0  0
  5 45  1  0  0  0  0
  6  7  1  0  0  0  0
  6 30  1  0  0  0  0
  6 31  1  0  0  0  0
  7  8  1  0  0  0  0
  7 32  1  0  0  0  0
  7 33  1  0  0  0  0
  8  9  1  0  0  0  0
  9 10  1  0  0  0  0
  9 20  1  0  0  0  0
  9 34  1  0  0  0  0
 10 11  1  0  0  0  0
 10 35  1  0  0  0  0
 10 36  1  0  0  0  0
 11 12  1  0  0  0  0
 11 37  1  0  0  0  0
 12 13  2  0  0  0  0
 12 14  1  0  0  0  0
 14 15  1  0  0  0  0
 14 38  1  0  0  0  0
 14 39  1  0  0  0  0
 15 19  1  0  0  0  0
 15 16  1  0  0  0  0
 16 17  2  0  0  0  0
 16 40  1  0  0  0  0
 17 18  1  0  0  0  0
 17 41  1  0  0  0  0
 18 19  2  0  0  0  0
 18 42  1  0  0  0  0
 20 43  1  0  0  0  0
 20 44  1  0  0  0  0
M  CHG  1   5   1
M  END
> <s_m_source_file>
AV-unprocessed.smi

> <i_m_source_file_index>
1218

> <i_lp_mmshare_version>
43012

> <i_f3d_flags>
0

> <s_epik_input>
W0NIM11bQ0hdKFtDSDNdKVtDSDJdTjFbQ0gyXVtDSDJdT1tDQEhdKFtDSDJdMSlbQ0gyXVtOSF1DKD1PKVtDSDJdbjJbY0hdW2NIXVtjSF1uMg==

> <s_epik_cmdline>
J2VwaWtfcHl0aG9uJywgJy1waCcsICc3LjAnLCAnLXRuJywgJzgnLCAnLW1hJywgJzIwMCcsICctbWV0YWxfYmluZGluZycsICctaW1hZScsICc8aW5maWxlLm1hZT4nLCAnLW9tYWUnLCAnPG91dGZpbGUubWFlPic=

> <r_lp_tautomer_probability>
1

> <r_epik_Ionization_Penalty>
0.0995066

> <r_epik_Ionization_Penalty_Charging>
0.0994921

> <r_epik_Ionization_Penalty_Neutral>
1.44634e-05

> <r_epik_State_Penalty>
0.0895432

> <r_epik_Charging_Adjusted_Penalty>
0.189035

> <i_epik_Tot_Q>
1

> <i_epik_Tot_abs_Q>
1

> <r_epik_Metal_State_Penalty>
0.0895432

> <b_epik_Metal_Only>
0

> <s_lp_Force_Field>
OPLS_2005

> <r_lp_Energy>
22.0385

> <b_lp_Chiralities_Consistent>
1

> <s_lp_Variant>
AV-unprocessed.smi:1218-2

> <Gold.Version>
5.8.1

> <Gold.Id.Protein>
6NUR|6NUR_protein|mol2

> <Gold.PLP.Fitness>
40.2289

> <Gold.PLP.PLP>
-32.1529

> <Gold.PLP.part.hbond>
-3.0000

> <Gold.PLP.part.metal>
0.0000

> <Gold.PLP.part.buried>
-5.2003

> <Gold.PLP.part.nonpolar>
-23.4437

> <Gold.PLP.part.repulsive>
0.0676

> <Gold.PLP.ligand.clash>
0.0000

> <Gold.PLP.ligand.torsion>
0.5325

> <Gold.PLP.Chemscore.Hbond>
3.0000

> <Gold.PLP.Chemscore.CHOScore>
0.0000

> <Gold.PLP.Chemscore.Metal>
0.0000

> <Gold.Chemscore.Hbonds>
donor molecule, donor type, donor heavy atom, donor atom, acceptor molecule, acceptor atom, score
      P1  H  6896  6908       L1    19  0.36
      P1  H 10752 10765       L1    13  1.00

> <Gold.PLP.Chemscore.Internal.Correction>
0.1411

> <Gold.Rescore>
     Score         DG    S(hbond)    S(metal)    S(lipo)     H(rot)  DE(clash)    DE(int)     intcor
     18.79     -19.31       2.96        0.00      76.56       1.96       0.01       0.51       ----

> <Gold.Chemscore.Fitness>
18.7928

> <Gold.Chemscore.DG>
-19.3108

> <Gold.Chemscore.ZeroCoef>
-5.4800

> <Gold.Chemscore.Hbond>
2.9632

> <Gold.Chemscore.Metal>
0.0000

> <Gold.Chemscore.Lipo>
76.5594

> <Gold.Chemscore.Internal_Hbond>
0.0000

> <Gold.Chemscore.DEClash>
0.0104

> <Gold.Chemscore.DEInternal>
0.5076

> <Gold.Chemscore.Rot>
1.9624

> <Gold.Chemscore.Internal.Correction>
   9.000000E+99

> <Gold.Chemscore.Hbonds>
donor molecule, donor type, donor heavy atom, donor atom, acceptor molecule, acceptor atom, score
      P1  H  6896  6908       L1    19  0.33
      P1  H 10752 10765       L1    13  0.93

> <Gold.Chemscore.Hbond.Weighted>
-9.8971

> <Gold.Chemscore.Metal.Weighted>
-0.0000

> <Gold.Chemscore.Lipo.Weighted>
-8.9574

> <Gold.Chemscore.Internal_Hbond.Weighted>
0.0000

> <Gold.Chemscore.DEClash.Weighted>
0.0104

> <Gold.Chemscore.DEInternal.Weighted>
0.5076

> <Gold.Chemscore.Rot.Weighted>
5.0237

> <Gold.Chemscore.Internal.Correction.Weighted>
   9.000000E+99

> <Gold.Protein.RotatedTorsions>
[ 6907 6896 6895 6894 ] final -118.64 input  -60.11 | X-H torsion
[ 7974 7965 7964 7962 ] final  -95.64 input  175.53 | X-H torsion
[ 8008 7997 7996 7995 ] final  -78.94 input   59.86 | X-H torsion
[ 10167 10162 10161 10158 ] final  -88.42 input  -65.29 | X-H torsion
[ 10718 10713 10712 10709 ] final -126.13 input   66.30 | X-H torsion
[ 10763 10752 10751 10750 ] final -140.75 input  -60.55 | X-H torsion
[ 11005 11000 10999 10996 ] final    6.36 input  -57.11 | X-H torsion

> <Gold.Protein.ActiveResidues>
 VAL166  LYS551  ARG553  GLY616  TRP617  ASP618  TYR619  PRO620  LYS621  CYS622 
 ASP623  PHE694  ASN695  SER759  ASP760  ASP761  ALA762  ILE779  LEU786  VAL792 
 PHE793  MET794  SER795  GLU796  ALA797  LYS798  CYS799  TRP800  GLU811  SER814 

> <Gold.Protein.RotatedAtoms>
  150.8237  133.8209  159.3127 H   0  0  0  0  0  0  0  0  0  0  0  0  # atno 6907 bound_to 6896
  151.5959  135.1049  160.0059 H   0  0  0  0  0  0  0  0  0  0  0  0  # atno 6908 bound_to 6896
  152.4324  133.7260  159.6617 H   0  0  0  0  0  0  0  0  0  0  0  0  # atno 6909 bound_to 6896
  145.3574  140.9486  143.2520 H   0  0  0  0  0  0  0  0  0  0  0  0  # atno 7974 bound_to 7965
  154.5737  140.0686  156.9002 H   0  0  0  0  0  0  0  0  0  0  0  0  # atno 8008 bound_to 7997
  155.2588  140.3357  155.4257 H   0  0  0  0  0  0  0  0  0  0  0  0  # atno 8009 bound_to 7997
  156.2137  140.1770  156.7622 H   0  0  0  0  0  0  0  0  0  0  0  0  # atno 8010 bound_to 7997
  140.3748  143.2777  151.9456 H   0  0  0  0  0  0  0  0  0  0  0  0  # atno 10167 bound_to 10162
  156.1737  130.6685  151.0214 H   0  0  0  0  0  0  0  0  0  0  0  0  # atno 10718 bound_to 10713
  154.8568  135.3544  154.5757 H   0  0  0  0  0  0  0  0  0  0  0  0  # atno 10763 bound_to 10752
  153.6369  135.7000  153.5260 H   0  0  0  0  0  0  0  0  0  0  0  0  # atno 10764 bound_to 10752
  153.3003  135.4208  155.1206 H   0  0  0  0  0  0  0  0  0  0  0  0  # atno 10765 bound_to 10752
  140.5603  134.0199  155.7969 H   0  0  0  0  0  0  0  0  0  0  0  0  # atno 11005 bound_to 11000
  144.8672  139.5091  143.6785 LP  0  0  0  0  0  0  0  0  0  0  0  0  # atno 17320 bound_to 7965
  146.2942  139.7228  142.9139 LP  0  0  0  0  0  0  0  0  0  0  0  0  # atno 17321 bound_to 7965
  139.4800  144.5873  151.7831 LP  0  0  0  0  0  0  0  0  0  0  0  0  # atno 17342 bound_to 10162
  140.4997  144.1188  150.5968 LP  0  0  0  0  0  0  0  0  0  0  0  0  # atno 17343 bound_to 10162
  157.6821  131.0835  150.7343 LP  0  0  0  0  0  0  0  0  0  0  0  0  # atno 17370 bound_to 10713
  156.7401  130.4736  149.5479 LP  0  0  0  0  0  0  0  0  0  0  0  0  # atno 17371 bound_to 10713
  141.1118  133.9603  157.2895 LP  0  0  0  0  0  0  0  0  0  0  0  0  # atno 17394 bound_to 11000
  139.9411  135.0191  156.8711 LP  0  0  0  0  0  0  0  0  0  0  0  0  # atno 17395 bound_to 11000

$$$$
