AV-unprocessed.smi:1841|AV-procd|sdf|7496|dock1
  -GOLD-   22720 9193D 1   1.00000     0.00000
 Structure written by MMmdl.
 40 41  0  0  0  0  0  0  0  0  1 V2000
  148.3695  127.1758  150.8990 C   0  0  0  0  0  0  0  0  0  0  0  0
  147.6985  127.7696  151.9965 O   0  0  0  0  0  0  0  0  0  0  0  0
  148.4837  128.7569  152.6441 C   0  0  0  0  0  0  0  0  0  0  0  0
  147.6537  129.4111  153.7524 C   0  0  0  0  0  0  0  0  0  0  0  0
  148.5387  129.9384  154.7360 O   0  0  0  0  0  0  0  0  0  0  0  0
  148.8948  131.2690  154.6576 C   0  0  0  0  0  0  0  0  0  0  0  0
  149.7759  131.7880  155.6262 C   0  0  0  0  0  0  0  0  0  0  0  0
  150.1503  133.1435  155.5525 C   0  0  0  0  0  0  0  0  0  0  0  0
  149.6251  133.9438  154.5086 C   0  0  0  0  0  0  0  0  0  0  0  0
  149.9215  135.3206  154.3033 N   0  0  0  0  0  0  0  0  0  0  0  0
  150.7743  136.1266  154.9635 C   0  0  0  0  0  0  0  0  0  0  0  0
  151.4621  135.7885  155.9261 O   0  0  0  0  0  0  0  0  0  0  0  0
  150.8547  137.5731  154.4481 C   0  0  2  0  0  0  0  0  0  0  0  0
  152.2585  137.8972  153.8972 C   0  0  0  0  0  0  0  0  0  0  0  0
  152.8108  138.9218  154.8739 C   0  0  0  0  0  0  0  0  0  0  0  0
  153.9608  139.3536  154.8099 O   0  0  0  0  0  0  0  0  0  0  0  0
  151.8917  139.2608  155.7817 N   0  0  0  0  0  0  0  0  0  0  0  0
  152.0827  140.2049  156.8740 C   0  0  0  0  0  0  0  0  0  0  0  0
  150.6094  138.6133  155.5640 C   0  0  0  0  0  0  0  0  0  0  0  0
  148.7504  133.3257  153.5905 C   0  0  0  0  0  0  0  0  0  0  0  0
  148.3887  132.0272  153.6546 N   0  0  0  0  0  0  0  0  0  0  0  0
  147.7241  126.4303  150.4346 H   0  0  0  0  0  0  0  0  0  0  0  0
  149.2845  126.6764  151.2197 H   0  0  0  0  0  0  0  0  0  0  0  0
  148.6227  127.9193  150.1422 H   0  0  0  0  0  0  0  0  0  0  0  0
  149.3653  128.2844  153.0802 H   0  0  0  0  0  0  0  0  0  0  0  0
  148.8315  129.5090  151.9341 H   0  0  0  0  0  0  0  0  0  0  0  0
  147.0140  130.1902  153.3339 H   0  0  0  0  0  0  0  0  0  0  0  0
  147.0104  128.6578  154.2100 H   0  0  0  0  0  0  0  0  0  0  0  0
  150.1630  131.1551  156.4113 H   0  0  0  0  0  0  0  0  0  0  0  0
  150.8328  133.5250  156.2943 H   0  0  0  0  0  0  0  0  0  0  0  0
  149.4087  135.7570  153.5508 H   0  0  0  0  0  0  0  0  0  0  0  0
  150.1132  137.7119  153.6591 H   0  0  0  0  0  0  0  0  0  0  0  0
  152.9192  137.0304  153.8409 H   0  0  0  0  0  0  0  0  0  0  0  0
  152.1987  138.3395  152.9024 H   0  0  0  0  0  0  0  0  0  0  0  0
  152.4026  141.1749  156.4918 H   0  0  0  0  0  0  0  0  0  0  0  0
  152.8431  139.8396  157.5652 H   0  0  0  0  0  0  0  0  0  0  0  0
  151.1584  140.3503  157.4335 H   0  0  0  0  0  0  0  0  0  0  0  0
  149.8794  139.3583  155.2451 H   0  0  0  0  0  0  0  0  0  0  0  0
  150.2421  138.1698  156.4914 H   0  0  0  0  0  0  0  0  0  0  0  0
  148.3250  133.8909  152.7740 H   0  0  0  0  0  0  0  0  0  0  0  0
  1  2  1  0  0  0  0
  1 22  1  0  0  0  0
  1 23  1  0  0  0  0
  1 24  1  0  0  0  0
  2  3  1  0  0  0  0
  3  4  1  0  0  0  0
  3 25  1  0  0  0  0
  3 26  1  0  0  0  0
  4  5  1  0  0  0  0
  4 27  1  0  0  0  0
  4 28  1  0  0  0  0
  5  6  1  0  0  0  0
  6 21  1  0  0  0  0
  6  7  2  0  0  0  0
  7  8  1  0  0  0  0
  7 29  1  0  0  0  0
  8  9  2  0  0  0  0
  8 30  1  0  0  0  0
  9 10  1  0  0  0  0
  9 20  1  0  0  0  0
 10 11  1  0  0  0  0
 10 31  1  0  0  0  0
 11 12  2  0  0  0  0
 11 13  1  0  0  0  0
 13 19  1  0  0  0  0
 13 14  1  0  0  0  0
 13 32  1  0  0  0  0
 14 15  1  0  0  0  0
 14 33  1  0  0  0  0
 14 34  1  0  0  0  0
 15 16  2  0  0  0  0
 15 17  1  0  0  0  0
 17 18  1  0  0  0  0
 17 19  1  0  0  0  0
 18 35  1  0  0  0  0
 18 36  1  0  0  0  0
 18 37  1  0  0  0  0
 19 38  1  0  0  0  0
 19 39  1  0  0  0  0
 20 21  2  0  0  0  0
 20 40  1  0  0  0  0
M  END
> <s_m_source_file>
AV-unprocessed.smi

> <i_m_source_file_index>
1841

> <i_lp_mmshare_version>
43012

> <i_f3d_flags>
0

> <s_epik_input>
W0NIM11PW0NIMl1bQ0gyXU9jMVtjSF1bY0hdYyhbY0hdbjEpW05IXUMoPU8pW0NAQEhdMltDSDJdQyg9TylOKFtDSDNdKVtDSDJdMg==

> <s_epik_cmdline>
J2VwaWtfcHl0aG9uJywgJy1waCcsICc3LjAnLCAnLXRuJywgJzgnLCAnLW1hJywgJzIwMCcsICctbWV0YWxfYmluZGluZycsICctaW1hZScsICc8aW5maWxlLm1hZT4nLCAnLW9tYWUnLCAnPG91dGZpbGUubWFlPic=

> <r_lp_tautomer_probability>
1

> <r_epik_Ionization_Penalty>
1.70347e-05

> <r_epik_Ionization_Penalty_Charging>
0

> <r_epik_Ionization_Penalty_Neutral>
1.70347e-05

> <r_epik_State_Penalty>
-0

> <r_epik_Charging_Adjusted_Penalty>
0

> <i_epik_Tot_Q>
0

> <i_epik_Tot_abs_Q>
0

> <r_epik_Metal_State_Penalty>
-0

> <b_epik_Metal_Only>
0

> <s_lp_Force_Field>
OPLS_2005

> <r_lp_Energy>
17.4372

> <b_lp_Chiralities_Consistent>
1

> <s_lp_Variant>
AV-unprocessed.smi:1841-1

> <Gold.Version>
5.8.1

> <Gold.Id.Protein>
6NUR|6NUR_protein|mol2

> <Gold.PLP.Fitness>
45.8048

> <Gold.PLP.PLP>
-36.2040

> <Gold.PLP.part.hbond>
-3.9642

> <Gold.PLP.part.metal>
0.0000

> <Gold.PLP.part.buried>
-2.1970

> <Gold.PLP.part.nonpolar>
-28.9755

> <Gold.PLP.part.repulsive>
0.3314

> <Gold.PLP.ligand.clash>
0.0000

> <Gold.PLP.ligand.torsion>
0.4401

> <Gold.PLP.Chemscore.Hbond>
2.8960

> <Gold.PLP.Chemscore.CHOScore>
0.5588

> <Gold.PLP.Chemscore.Metal>
0.0000

> <Gold.Chemscore.Hbonds>
donor molecule, donor type, donor heavy atom, donor atom, acceptor molecule, acceptor atom, score
      L1  H    10    31       P1  7948  1.00
      P1  H  7997  8008       L1    16  0.67
      P1  H 10752 10765       L1    12  0.80
      L1  C    20    40       P1  7948  0.68

> <Gold.PLP.Chemscore.Internal.Correction>
0.1167

> <Gold.Rescore>
     Score         DG    S(hbond)    S(metal)    S(lipo)     H(rot)  DE(clash)    DE(int)     intcor
     14.31     -17.21       2.56        0.00      69.91       1.95       1.39       1.51       ----

> <Gold.Chemscore.Fitness>
14.3086

> <Gold.Chemscore.DG>
-17.2109

> <Gold.Chemscore.ZeroCoef>
-5.4800

> <Gold.Chemscore.Hbond>
2.5556

> <Gold.Chemscore.Metal>
0.0000

> <Gold.Chemscore.Lipo>
69.9062

> <Gold.Chemscore.Internal_Hbond>
0.0000

> <Gold.Chemscore.DEClash>
1.3948

> <Gold.Chemscore.DEInternal>
1.5075

> <Gold.Chemscore.Rot>
1.9468

> <Gold.Chemscore.Internal.Correction>
   9.000000E+99

> <Gold.Chemscore.Hbonds>
donor molecule, donor type, donor heavy atom, donor atom, acceptor molecule, acceptor atom, score
      L1  H    10    31       P1  7948  0.39
      P1  H  7997  8008       L1    16  0.65
      P1  H 10752 10765       L1    12  0.12

> <Gold.Chemscore.Hbond.Weighted>
-8.5357

> <Gold.Chemscore.Metal.Weighted>
-0.0000

> <Gold.Chemscore.Lipo.Weighted>
-8.1790

> <Gold.Chemscore.Internal_Hbond.Weighted>
0.0000

> <Gold.Chemscore.DEClash.Weighted>
1.3948

> <Gold.Chemscore.DEInternal.Weighted>
1.5075

> <Gold.Chemscore.Rot.Weighted>
4.9839

> <Gold.Chemscore.Internal.Correction.Weighted>
   9.000000E+99

> <Gold.Protein.RotatedTorsions>
[ 6907 6896 6895 6894 ] final   74.99 input  -60.11 | X-H torsion
[ 7974 7965 7964 7962 ] final  147.50 input  175.53 | X-H torsion
[ 8008 7997 7996 7995 ] final    7.95 input   59.86 | X-H torsion
[ 10167 10162 10161 10158 ] final -176.44 input  -65.29 | X-H torsion
[ 10718 10713 10712 10709 ] final   -0.40 input   66.30 | X-H torsion
[ 10763 10752 10751 10750 ] final -157.65 input  -60.55 | X-H torsion
[ 11005 11000 10999 10996 ] final  162.50 input  -57.11 | X-H torsion

> <Gold.Protein.ActiveResidues>
 VAL166  LYS551  ARG553  GLY616  TRP617  ASP618  TYR619  PRO620  LYS621  CYS622 
 ASP623  PHE694  ASN695  SER759  ASP760  ASP761  ALA762  ILE779  LEU786  VAL792 
 PHE793  MET794  SER795  GLU796  ALA797  LYS798  CYS799  TRP800  GLU811  SER814 

> <Gold.Protein.RotatedAtoms>
  152.5003  134.4188  159.9473 H   0  0  0  0  0  0  0  0  0  0  0  0  # atno 6907 bound_to 6896
  151.4160  133.3706  159.2758 H   0  0  0  0  0  0  0  0  0  0  0  0  # atno 6908 bound_to 6896
  150.9257  134.8696  159.7578 H   0  0  0  0  0  0  0  0  0  0  0  0  # atno 6909 bound_to 6896
  144.8587  139.6036  143.5940 H   0  0  0  0  0  0  0  0  0  0  0  0  # atno 7974 bound_to 7965
  154.7605  140.2783  155.6218 H   0  0  0  0  0  0  0  0  0  0  0  0  # atno 8008 bound_to 7997
  156.2914  140.2661  156.2309 H   0  0  0  0  0  0  0  0  0  0  0  0  # atno 8009 bound_to 7997
  155.0024  140.0372  157.2355 H   0  0  0  0  0  0  0  0  0  0  0  0  # atno 8010 bound_to 7997
  139.5530  144.2061  152.1110 H   0  0  0  0  0  0  0  0  0  0  0  0  # atno 10167 bound_to 10162
  156.8209  130.5456  149.5697 H   0  0  0  0  0  0  0  0  0  0  0  0  # atno 10718 bound_to 10713
  154.7619  135.3120  154.8362 H   0  0  0  0  0  0  0  0  0  0  0  0  # atno 10763 bound_to 10752
  153.9120  135.6805  153.4755 H   0  0  0  0  0  0  0  0  0  0  0  0  # atno 10764 bound_to 10752
  153.1220  135.4818  154.9143 H   0  0  0  0  0  0  0  0  0  0  0  0  # atno 10765 bound_to 10752
  140.2264  134.8157  157.3273 H   0  0  0  0  0  0  0  0  0  0  0  0  # atno 11005 bound_to 11000
  146.2843  139.6962  142.9206 LP  0  0  0  0  0  0  0  0  0  0  0  0  # atno 17320 bound_to 7965
  145.4355  141.0418  143.2887 LP  0  0  0  0  0  0  0  0  0  0  0  0  # atno 17321 bound_to 7965
  140.1560  144.5070  150.6660 LP  0  0  0  0  0  0  0  0  0  0  0  0  # atno 17342 bound_to 10162
  140.6797  143.2321  151.5417 LP  0  0  0  0  0  0  0  0  0  0  0  0  # atno 17343 bound_to 10162
  156.0989  130.5954  150.9861 LP  0  0  0  0  0  0  0  0  0  0  0  0  # atno 17370 bound_to 10713
  157.6457  131.0904  150.8158 LP  0  0  0  0  0  0  0  0  0  0  0  0  # atno 17371 bound_to 10713
  140.1796  134.4506  155.7780 LP  0  0  0  0  0  0  0  0  0  0  0  0  # atno 17394 bound_to 11000
  141.2220  133.6978  156.7846 LP  0  0  0  0  0  0  0  0  0  0  0  0  # atno 17395 bound_to 11000

$$$$
