AV-unprocessed.smi:2896|AV-procd|sdf|11139|dock10
  -GOLD-   2272016 13D 1   1.00000     0.00000
 Structure written by MMmdl.
 49 50  0  0  0  0  0  0  0  0  1 V2000
  149.7279  132.2623  154.0875 C   0  0  0  0  0  0  0  0  0  0  0  0
  148.5497  133.0574  154.6849 C   0  0  1  0  0  0  0  0  0  0  0  0
  148.9260  133.8733  155.9433 C   0  0  0  0  0  0  0  0  0  0  0  0
  147.8480  133.9122  156.9254 N   0  0  0  0  0  0  0  0  0  0  0  0
  147.9681  134.3297  158.1972 C   0  0  0  0  0  0  0  0  0  0  0  0
  149.0461  134.7043  158.6621 O   0  0  0  0  0  0  0  0  0  0  0  0
  146.6966  134.3048  159.0841 C   0  0  0  0  0  0  0  0  0  0  0  0
  145.5505  135.0577  158.3577 C   0  0  0  0  0  0  0  0  0  0  0  0
  146.1884  132.8536  159.2901 C   0  0  0  0  0  0  0  0  0  0  0  0
  147.0638  134.9504  160.4362 C   0  0  0  0  0  0  0  0  0  0  0  0
  146.9904  134.2436  161.6624 C   0  0  0  0  0  0  0  0  0  0  0  0
  147.3326  134.8967  162.8617 C   0  0  0  0  0  0  0  0  0  0  0  0
  147.7358  136.2429  162.8022 C   0  0  0  0  0  0  0  0  0  0  0  0
  147.8078  136.9393  161.6504 N   0  0  0  0  0  0  0  0  0  0  0  0
  147.4783  136.3042  160.5059 C   0  0  0  0  0  0  0  0  0  0  0  0
  147.7703  133.8841  153.6323 C   0  0  0  0  0  0  0  0  0  0  0  0
  146.6313  133.2423  152.9677 N   0  0  0  0  0  0  0  0  0  0  0  0
  146.9873  131.8973  152.5255 C   0  0  0  0  0  0  0  0  0  0  0  0
  145.8145  131.1853  151.8308 C   0  0  0  0  0  0  0  0  0  0  0  0
  145.3719  131.9693  150.7288 O   0  0  0  0  0  0  0  0  0  0  0  0
  144.9647  133.2759  151.1190 C   0  0  0  0  0  0  0  0  0  0  0  0
  146.1276  133.9976  151.8232 C   0  0  0  0  0  0  0  0  0  0  0  0
  150.5743  132.8956  153.8303 H   0  0  0  0  0  0  0  0  0  0  0  0
  149.4243  131.7298  153.1860 H   0  0  0  0  0  0  0  0  0  0  0  0
  150.0918  131.5135  154.7915 H   0  0  0  0  0  0  0  0  0  0  0  0
  147.8421  132.2938  155.0110 H   0  0  0  0  0  0  0  0  0  0  0  0
  149.7963  133.4366  156.4327 H   0  0  0  0  0  0  0  0  0  0  0  0
  149.2104  134.8897  155.6657 H   0  0  0  0  0  0  0  0  0  0  0  0
  146.9371  133.6090  156.6127 H   0  0  0  0  0  0  0  0  0  0  0  0
  145.8111  136.0858  158.1033 H   0  0  0  0  0  0  0  0  0  0  0  0
  144.6488  135.0907  158.9702 H   0  0  0  0  0  0  0  0  0  0  0  0
  145.2837  134.5631  157.4227 H   0  0  0  0  0  0  0  0  0  0  0  0
  146.9167  132.1998  159.7691 H   0  0  0  0  0  0  0  0  0  0  0  0
  145.9242  132.3882  158.3393 H   0  0  0  0  0  0  0  0  0  0  0  0
  145.2945  132.8409  159.9145 H   0  0  0  0  0  0  0  0  0  0  0  0
  146.6777  133.2128  161.7129 H   0  0  0  0  0  0  0  0  0  0  0  0
  147.2848  134.3766  163.8069 H   0  0  0  0  0  0  0  0  0  0  0  0
  148.0047  136.7746  163.7029 H   0  0  0  0  0  0  0  0  0  0  0  0
  147.5412  136.9133  159.6172 H   0  0  0  0  0  0  0  0  0  0  0  0
  147.4618  134.8380  154.0627 H   0  0  0  0  0  0  0  0  0  0  0  0
  148.4950  134.1451  152.8593 H   0  0  0  0  0  0  0  0  0  0  0  0
  147.8347  131.9457  151.8397 H   0  0  0  0  0  0  0  0  0  0  0  0
  147.3118  131.3008  153.3788 H   0  0  0  0  0  0  0  0  0  0  0  0
  146.1256  130.2052  151.4693 H   0  0  0  0  0  0  0  0  0  0  0  0
  144.9909  131.0240  152.5281 H   0  0  0  0  0  0  0  0  0  0  0  0
  144.6540  133.8315  150.2342 H   0  0  0  0  0  0  0  0  0  0  0  0
  144.0969  133.2112  151.7771 H   0  0  0  0  0  0  0  0  0  0  0  0
  145.7674  134.9715  152.1449 H   0  0  0  0  0  0  0  0  0  0  0  0
  146.9336  134.1739  151.1094 H   0  0  0  0  0  0  0  0  0  0  0  0
  1  2  1  0  0  0  0
  1 23  1  0  0  0  0
  1 24  1  0  0  0  0
  1 25  1  0  0  0  0
  2  3  1  0  0  0  0
  2 16  1  0  0  0  0
  2 26  1  0  0  0  0
  3  4  1  0  0  0  0
  3 27  1  0  0  0  0
  3 28  1  0  0  0  0
  4  5  1  0  0  0  0
  4 29  1  0  0  0  0
  5  6  2  0  0  0  0
  5  7  1  0  0  0  0
  7  8  1  0  0  0  0
  7  9  1  0  0  0  0
  7 10  1  0  0  0  0
  8 30  1  0  0  0  0
  8 31  1  0  0  0  0
  8 32  1  0  0  0  0
  9 33  1  0  0  0  0
  9 34  1  0  0  0  0
  9 35  1  0  0  0  0
 10 15  1  0  0  0  0
 10 11  2  0  0  0  0
 11 12  1  0  0  0  0
 11 36  1  0  0  0  0
 12 13  2  0  0  0  0
 12 37  1  0  0  0  0
 13 14  1  0  0  0  0
 13 38  1  0  0  0  0
 14 15  2  0  0  0  0
 15 39  1  0  0  0  0
 16 17  1  0  0  0  0
 16 40  1  0  0  0  0
 16 41  1  0  0  0  0
 17 22  1  0  0  0  0
 17 18  1  0  0  0  0
 18 19  1  0  0  0  0
 18 42  1  0  0  0  0
 18 43  1  0  0  0  0
 19 20  1  0  0  0  0
 19 44  1  0  0  0  0
 19 45  1  0  0  0  0
 20 21  1  0  0  0  0
 21 22  1  0  0  0  0
 21 46  1  0  0  0  0
 21 47  1  0  0  0  0
 22 48  1  0  0  0  0
 22 49  1  0  0  0  0
M  END
> <s_m_source_file>
AV-unprocessed.smi

> <i_m_source_file_index>
2896

> <i_lp_mmshare_version>
43012

> <i_f3d_flags>
0

> <s_epik_input>
W0NIMl0xW0NIMl1PW0NIMl1bQ0gyXU4xW0NIMl1bQ0BIXShbQ0gzXSlbQ0gyXVtOSF1DKD1PKUMoW0NIM10pKFtDSDNdKWMyW2NIXVtjSF1bY0hdbltjSF0y

> <s_epik_cmdline>
J2VwaWtfcHl0aG9uJywgJy1waCcsICc3LjAnLCAnLXRuJywgJzgnLCAnLW1hJywgJzIwMCcsICctbWV0YWxfYmluZGluZycsICctaW1hZScsICc8aW5maWxlLm1hZT4nLCAnLW9tYWUnLCAnPG91dGZpbGUubWFlPic=

> <r_epik_Ionization_Penalty>
0.458454

> <r_epik_Ionization_Penalty_Charging>
0

> <r_epik_Ionization_Penalty_Neutral>
0.458454

> <r_epik_State_Penalty>
0.453234

> <r_epik_Charging_Adjusted_Penalty>
0.453234

> <i_epik_Tot_Q>
0

> <i_epik_Tot_abs_Q>
0

> <r_epik_Metal_State_Penalty>
0.448418

> <b_epik_Metal_Only>
0

> <s_lp_Force_Field>
OPLS_2005

> <r_lp_Energy>
37.0423

> <b_lp_Chiralities_Consistent>
1

> <s_lp_Variant>
AV-unprocessed.smi:2896-4

> <Gold.Version>
5.8.1

> <Gold.Id.Protein>
6NUR|6NUR_protein|mol2

> <Gold.PLP.Fitness>
39.0883

> <Gold.PLP.PLP>
-33.0558

> <Gold.PLP.part.hbond>
-3.0000

> <Gold.PLP.part.metal>
0.0000

> <Gold.PLP.part.buried>
-4.1090

> <Gold.PLP.part.nonpolar>
-25.8972

> <Gold.PLP.part.repulsive>
0.2252

> <Gold.PLP.ligand.clash>
0.0000

> <Gold.PLP.ligand.torsion>
1.1544

> <Gold.PLP.Chemscore.Hbond>
2.6733

> <Gold.PLP.Chemscore.CHOScore>
0.0000

> <Gold.PLP.Chemscore.Metal>
0.0000

> <Gold.Chemscore.Hbonds>
donor molecule, donor type, donor heavy atom, donor atom, acceptor molecule, acceptor atom, score
      P1  H  6896  6909       L1     6  1.00
      P1  H  6931  6943       L1    14  1.00
      P1  H  6934  6947       L1    14  0.22

> <Gold.PLP.Chemscore.Internal.Correction>
0.3213

> <Gold.Rescore>
     Score         DG    S(hbond)    S(metal)    S(lipo)     H(rot)  DE(clash)    DE(int)     intcor
     15.15     -17.64       1.93        0.00      85.67       1.68       0.01       2.48       ----

> <Gold.Chemscore.Fitness>
15.1509

> <Gold.Chemscore.DG>
-17.6438

> <Gold.Chemscore.ZeroCoef>
-5.4800

> <Gold.Chemscore.Hbond>
1.9311

> <Gold.Chemscore.Metal>
0.0000

> <Gold.Chemscore.Lipo>
85.6666

> <Gold.Chemscore.Internal_Hbond>
0.0000

> <Gold.Chemscore.DEClash>
0.0149

> <Gold.Chemscore.DEInternal>
2.4780

> <Gold.Chemscore.Rot>
1.6832

> <Gold.Chemscore.Internal.Correction>
   9.000000E+99

> <Gold.Chemscore.Hbonds>
donor molecule, donor type, donor heavy atom, donor atom, acceptor molecule, acceptor atom, score
      P1  H  6896  6909       L1     6  1.00
      P1  H  6931  6943       L1    14  0.55
      P1  H  6934  6947       L1    14  0.03

> <Gold.Chemscore.Hbond.Weighted>
-6.4498

> <Gold.Chemscore.Metal.Weighted>
-0.0000

> <Gold.Chemscore.Lipo.Weighted>
-10.0230

> <Gold.Chemscore.Internal_Hbond.Weighted>
0.0000

> <Gold.Chemscore.DEClash.Weighted>
0.0149

> <Gold.Chemscore.DEInternal.Weighted>
2.4780

> <Gold.Chemscore.Rot.Weighted>
4.3090

> <Gold.Chemscore.Internal.Correction.Weighted>
   9.000000E+99

> <Gold.Protein.RotatedTorsions>
[ 6907 6896 6895 6894 ] final   23.70 input  -60.11 | X-H torsion
[ 7974 7965 7964 7962 ] final  -70.18 input  175.53 | X-H torsion
[ 8008 7997 7996 7995 ] final -125.98 input   59.86 | X-H torsion
[ 10167 10162 10161 10158 ] final  -66.87 input  -65.29 | X-H torsion
[ 10718 10713 10712 10709 ] final   38.56 input   66.30 | X-H torsion
[ 10763 10752 10751 10750 ] final  143.55 input  -60.55 | X-H torsion
[ 11005 11000 10999 10996 ] final  104.23 input  -57.11 | X-H torsion

> <Gold.Protein.ActiveResidues>
 VAL166  LYS551  ARG553  GLY616  TRP617  ASP618  TYR619  PRO620  LYS621  CYS622 
 ASP623  PHE694  ASN695  SER759  ASP760  ASP761  ALA762  ILE779  LEU786  VAL792 
 PHE793  MET794  SER795  GLU796  ALA797  LYS798  CYS799  TRP800  GLU811  SER814 

> <Gold.Protein.RotatedAtoms>
  151.9463  135.0190  160.0538 H   0  0  0  0  0  0  0  0  0  0  0  0  # atno 6907 bound_to 6896
  152.1992  133.4824  159.5057 H   0  0  0  0  0  0  0  0  0  0  0  0  # atno 6908 bound_to 6896
  150.6951  134.1530  159.4190 H   0  0  0  0  0  0  0  0  0  0  0  0  # atno 6909 bound_to 6896
  145.6943  140.9141  143.0765 H   0  0  0  0  0  0  0  0  0  0  0  0  # atno 7974 bound_to 7965
  155.2222  140.0422  157.2950 H   0  0  0  0  0  0  0  0  0  0  0  0  # atno 8008 bound_to 7997
  154.5942  140.2435  155.7850 H   0  0  0  0  0  0  0  0  0  0  0  0  # atno 8009 bound_to 7997
  156.2279  140.2948  156.0123 H   0  0  0  0  0  0  0  0  0  0  0  0  # atno 8010 bound_to 7997
  140.5625  143.2313  151.6700 H   0  0  0  0  0  0  0  0  0  0  0  0  # atno 10167 bound_to 10162
  157.3603  130.7646  149.7042 H   0  0  0  0  0  0  0  0  0  0  0  0  # atno 10718 bound_to 10713
  153.9742  135.2947  155.3425 H   0  0  0  0  0  0  0  0  0  0  0  0  # atno 10763 bound_to 10752
  154.7305  135.5070  153.8959 H   0  0  0  0  0  0  0  0  0  0  0  0  # atno 10764 bound_to 10752
  153.0885  135.6700  154.0013 H   0  0  0  0  0  0  0  0  0  0  0  0  # atno 10765 bound_to 10752
  139.8790  134.9293  156.5330 H   0  0  0  0  0  0  0  0  0  0  0  0  # atno 11005 bound_to 11000
  144.6987  139.8863  143.7450 LP  0  0  0  0  0  0  0  0  0  0  0  0  # atno 17320 bound_to 7965
  146.0854  139.3843  143.0438 LP  0  0  0  0  0  0  0  0  0  0  0  0  # atno 17321 bound_to 7965
  139.5077  144.3638  152.0537 LP  0  0  0  0  0  0  0  0  0  0  0  0  # atno 17342 bound_to 10162
  140.2766  144.3906  150.6133 LP  0  0  0  0  0  0  0  0  0  0  0  0  # atno 17343 bound_to 10162
  155.9736  130.4116  150.3988 LP  0  0  0  0  0  0  0  0  0  0  0  0  # atno 17370 bound_to 10713
  157.2064  131.0450  151.2623 LP  0  0  0  0  0  0  0  0  0  0  0  0  # atno 17371 bound_to 10713
  140.8366  133.8237  155.9035 LP  0  0  0  0  0  0  0  0  0  0  0  0  # atno 17394 bound_to 11000
  140.9277  134.2061  157.4885 LP  0  0  0  0  0  0  0  0  0  0  0  0  # atno 17395 bound_to 11000

$$$$
