AV-unprocessed.smi:2754|AV-procd|sdf|10616|dock5
  -GOLD-   2272015 63D 1   1.00000     0.00000
 Structure written by MMmdl.
 28 29  0  0  0  0  0  0  0  0  2 V2000
  145.6739  136.9886  150.8023 N   0  0  0  0  0  0  0  0  0  0  0  0
  145.2996  135.7026  151.1038 C   0  0  0  0  0  0  0  0  0  0  0  0
  143.9922  135.4376  151.0720 N   0  0  0  0  0  0  0  0  0  0  0  0
  143.6206  134.1728  151.3660 C   0  0  0  0  0  0  0  0  0  0  0  0
  144.5651  133.1783  151.6933 C   0  0  0  0  0  0  0  0  0  0  0  0
  145.9192  133.5781  151.6958 C   0  0  0  0  0  0  0  0  0  0  0  0
  147.0333  132.5982  152.0357 C   0  0  1  0  0  0  0  0  0  0  0  0
  147.9090  133.0925  153.2040 C   0  0  0  0  0  0  0  0  0  0  0  0
  149.0135  132.0716  153.5178 C   0  0  0  0  0  0  0  0  0  0  0  0
  148.4174  130.6768  153.7709 C   0  0  0  0  0  0  0  0  0  0  0  0
  147.5972  130.2419  152.6193 N   0  3  0  0  0  0  0  0  0  0  0  0
  146.4943  131.1778  152.3076 C   0  0  0  0  0  0  0  0  0  0  0  0
  146.2817  134.8480  151.3990 N   0  0  0  0  0  0  0  0  0  0  0  0
  146.6495  137.2489  150.8107 H   0  0  0  0  0  0  0  0  0  0  0  0
  144.9763  137.7078  150.6785 H   0  0  0  0  0  0  0  0  0  0  0  0
  142.5634  133.9531  151.3413 H   0  0  0  0  0  0  0  0  0  0  0  0
  144.2602  132.1688  151.9271 H   0  0  0  0  0  0  0  0  0  0  0  0
  147.6771  132.5350  151.1567 H   0  0  0  0  0  0  0  0  0  0  0  0
  148.3530  134.0585  152.9613 H   0  0  0  0  0  0  0  0  0  0  0  0
  147.2966  133.2457  154.0938 H   0  0  0  0  0  0  0  0  0  0  0  0
  149.7174  132.0246  152.6857 H   0  0  0  0  0  0  0  0  0  0  0  0
  149.5850  132.3967  154.3877 H   0  0  0  0  0  0  0  0  0  0  0  0
  149.2129  129.9495  153.9358 H   0  0  0  0  0  0  0  0  0  0  0  0
  147.8001  130.6841  154.6703 H   0  0  0  0  0  0  0  0  0  0  0  0
  148.1959  130.1685  151.8090 H   0  0  0  0  0  0  0  0  0  0  0  0
  145.7922  131.1836  153.1426 H   0  0  0  0  0  0  0  0  0  0  0  0
  145.9523  130.8047  151.4380 H   0  0  0  0  0  0  0  0  0  0  0  0
  147.2073  129.3317  152.8194 H   0  0  0  0  0  0  0  0  0  0  0  0
  1  2  1  0  0  0  0
  1 14  1  0  0  0  0
  1 15  1  0  0  0  0
  2 13  1  0  0  0  0
  2  3  2  0  0  0  0
  3  4  1  0  0  0  0
  4  5  2  0  0  0  0
  4 16  1  0  0  0  0
  5  6  1  0  0  0  0
  5 17  1  0  0  0  0
  6  7  1  0  0  0  0
  6 13  2  0  0  0  0
  7 12  1  0  0  0  0
  7  8  1  0  0  0  0
  7 18  1  0  0  0  0
  8  9  1  0  0  0  0
  8 19  1  0  0  0  0
  8 20  1  0  0  0  0
  9 10  1  0  0  0  0
  9 21  1  0  0  0  0
  9 22  1  0  0  0  0
 10 11  1  0  0  0  0
 10 23  1  0  0  0  0
 10 24  1  0  0  0  0
 11 12  1  0  0  0  0
 11 25  1  0  0  0  0
 11 28  1  0  0  0  0
 12 26  1  0  0  0  0
 12 27  1  0  0  0  0
M  CHG  1  11   1
M  END
> <s_m_source_file>
AV-unprocessed.smi

> <i_m_source_file_index>
2754

> <i_lp_mmshare_version>
43012

> <i_f3d_flags>
0

> <s_epik_input>
W05IMl1jMW5bY0hdW2NIXWMobjEpW0NAQEhdMltDSDJdW0NIMl1bQ0gyXVtOSF1bQ0gyXTI=

> <s_epik_cmdline>
J2VwaWtfcHl0aG9uJywgJy1waCcsICc3LjAnLCAnLXRuJywgJzgnLCAnLW1hJywgJzIwMCcsICctbWV0YWxfYmluZGluZycsICctaW1hZScsICc8aW5maWxlLm1hZT4nLCAnLW9tYWUnLCAnPG91dGZpbGUubWFlPic=

> <r_lp_tautomer_probability>
1

> <r_epik_Ionization_Penalty>
0.000528025

> <r_epik_Ionization_Penalty_Charging>
0.000372054

> <r_epik_Ionization_Penalty_Neutral>
0.000155972

> <r_epik_State_Penalty>
-0

> <r_epik_Charging_Adjusted_Penalty>
0.000372054

> <i_epik_Tot_Q>
1

> <i_epik_Tot_abs_Q>
1

> <r_epik_Metal_State_Penalty>
-0

> <b_epik_Metal_Only>
0

> <s_lp_Force_Field>
OPLS_2005

> <r_lp_Energy>
4.9837

> <b_lp_Chiralities_Consistent>
1

> <s_lp_Variant>
AV-unprocessed.smi:2754-2

> <Gold.Version>
5.8.1

> <Gold.Id.Protein>
6NUR|6NUR_protein|mol2

> <Gold.PLP.Fitness>
31.2981

> <Gold.PLP.PLP>
-22.4197

> <Gold.PLP.part.hbond>
-2.0000

> <Gold.PLP.part.metal>
0.0000

> <Gold.PLP.part.buried>
-2.8329

> <Gold.PLP.part.nonpolar>
-18.2750

> <Gold.PLP.part.repulsive>
1.3446

> <Gold.PLP.ligand.clash>
0.0000

> <Gold.PLP.ligand.torsion>
0.0191

> <Gold.PLP.Chemscore.Hbond>
2.0000

> <Gold.PLP.Chemscore.CHOScore>
0.9605

> <Gold.PLP.Chemscore.Metal>
0.0000

> <Gold.Chemscore.Hbonds>
donor molecule, donor type, donor heavy atom, donor atom, acceptor molecule, acceptor atom, score
      L1  H     1    15       P1 10171  1.00
      L1  H    11    25       P1 10747  1.00
      L1  C     4    16       P1 10186  0.96

> <Gold.PLP.Chemscore.Internal.Correction>
0.0351

> <Gold.Rescore>
     Score         DG    S(hbond)    S(metal)    S(lipo)     H(rot)  DE(clash)    DE(int)     intcor
     14.64     -14.80       1.91        0.00      46.91       1.00       0.14       0.02       ----

> <Gold.Chemscore.Fitness>
14.6358

> <Gold.Chemscore.DG>
-14.8008

> <Gold.Chemscore.ZeroCoef>
-5.4800

> <Gold.Chemscore.Hbond>
1.9140

> <Gold.Chemscore.Metal>
0.0000

> <Gold.Chemscore.Lipo>
46.9071

> <Gold.Chemscore.Internal_Hbond>
0.0000

> <Gold.Chemscore.DEClash>
0.1429

> <Gold.Chemscore.DEInternal>
0.0220

> <Gold.Chemscore.Rot>
1.0000

> <Gold.Chemscore.Internal.Correction>
   9.000000E+99

> <Gold.Chemscore.Hbonds>
donor molecule, donor type, donor heavy atom, donor atom, acceptor molecule, acceptor atom, score
      L1  H     1    15       P1 10171  0.97
      L1  H    11    25       P1 10747  0.90

> <Gold.Chemscore.Hbond.Weighted>
-6.3927

> <Gold.Chemscore.Metal.Weighted>
-0.0000

> <Gold.Chemscore.Lipo.Weighted>
-5.4881

> <Gold.Chemscore.Internal_Hbond.Weighted>
0.0000

> <Gold.Chemscore.DEClash.Weighted>
0.1429

> <Gold.Chemscore.DEInternal.Weighted>
0.0220

> <Gold.Chemscore.Rot.Weighted>
2.5600

> <Gold.Chemscore.Internal.Correction.Weighted>
   9.000000E+99

> <Gold.Protein.RotatedTorsions>
[ 6907 6896 6895 6894 ] final -171.53 input  -60.11 | X-H torsion
[ 7974 7965 7964 7962 ] final  -98.91 input  175.53 | X-H torsion
[ 8008 7997 7996 7995 ] final  -80.85 input   59.86 | X-H torsion
[ 10167 10162 10161 10158 ] final -152.19 input  -65.29 | X-H torsion
[ 10718 10713 10712 10709 ] final   -4.98 input   66.30 | X-H torsion
[ 10763 10752 10751 10750 ] final  -42.98 input  -60.55 | X-H torsion
[ 11005 11000 10999 10996 ] final -163.69 input  -57.11 | X-H torsion

> <Gold.Protein.ActiveResidues>
 VAL166  LYS551  ARG553  GLY616  TRP617  ASP618  TYR619  PRO620  LYS621  CYS622 
 ASP623  PHE694  ASN695  SER759  ASP760  ASP761  ALA762  ILE779  LEU786  VAL792 
 PHE793  MET794  SER795  GLU796  ALA797  LYS798  CYS799  TRP800  GLU811  SER814 

> <Gold.Protein.RotatedAtoms>
  151.5253  133.3459  159.2908 H   0  0  0  0  0  0  0  0  0  0  0  0  # atno 6907 bound_to 6896
  150.8627  134.7985  159.7106 H   0  0  0  0  0  0  0  0  0  0  0  0  # atno 6908 bound_to 6896
  152.4641  134.5125  159.9810 H   0  0  0  0  0  0  0  0  0  0  0  0  # atno 6909 bound_to 6896
  145.3145  140.9408  143.2751 H   0  0  0  0  0  0  0  0  0  0  0  0  # atno 7974 bound_to 7965
  154.5924  140.0657  156.9257 H   0  0  0  0  0  0  0  0  0  0  0  0  # atno 8008 bound_to 7997
  155.2272  140.3335  155.4289 H   0  0  0  0  0  0  0  0  0  0  0  0  # atno 8009 bound_to 7997
  156.2264  140.1821  156.7335 H   0  0  0  0  0  0  0  0  0  0  0  0  # atno 8010 bound_to 7997
  139.7203  143.8968  152.2501 H   0  0  0  0  0  0  0  0  0  0  0  0  # atno 10167 bound_to 10162
  156.7532  130.5246  149.5799 H   0  0  0  0  0  0  0  0  0  0  0  0  # atno 10718 bound_to 10713
  153.9880  135.6709  153.4753 H   0  0  0  0  0  0  0  0  0  0  0  0  # atno 10763 bound_to 10752
  153.0718  135.4970  154.8317 H   0  0  0  0  0  0  0  0  0  0  0  0  # atno 10764 bound_to 10752
  154.7126  135.3100  154.9136 H   0  0  0  0  0  0  0  0  0  0  0  0  # atno 10765 bound_to 10752
  140.5952  134.5003  157.5198 H   0  0  0  0  0  0  0  0  0  0  0  0  # atno 11005 bound_to 11000
  144.8989  139.4676  143.6642 LP  0  0  0  0  0  0  0  0  0  0  0  0  # atno 17320 bound_to 7965
  146.3105  139.7731  142.9023 LP  0  0  0  0  0  0  0  0  0  0  0  0  # atno 17321 bound_to 7965
  139.8862  144.6990  150.8821 LP  0  0  0  0  0  0  0  0  0  0  0  0  # atno 17342 bound_to 10162
  140.7752  143.3622  151.1807 LP  0  0  0  0  0  0  0  0  0  0  0  0  # atno 17343 bound_to 10162
  156.1387  130.6229  151.0437 LP  0  0  0  0  0  0  0  0  0  0  0  0  # atno 17370 bound_to 10713
  157.6767  131.0848  150.7475 LP  0  0  0  0  0  0  0  0  0  0  0  0  # atno 17371 bound_to 10713
  139.9256  134.8062  156.1078 LP  0  0  0  0  0  0  0  0  0  0  0  0  # atno 17394 bound_to 11000
  141.0908  133.6715  156.2537 LP  0  0  0  0  0  0  0  0  0  0  0  0  # atno 17395 bound_to 11000

$$$$
