AV-unprocessed.smi:1616|AV-procd|sdf|6482|dock4
  -GOLD-   22720 7143D 1   1.00000     0.00000
 Structure written by MMmdl.
 38 39  0  0  0  0  0  0  0  0  1 V2000
  152.2256  144.1890  161.1902 C   0  0  0  0  0  0  0  0  0  0  0  0
  152.5136  142.9491  160.3874 C   0  0  0  0  0  0  0  0  0  0  0  0
  153.4093  142.1465  160.8604 N   0  0  0  0  0  0  0  0  0  0  0  0
  153.7547  140.9835  160.1996 N   0  0  0  0  0  0  0  0  0  0  0  0
  154.8066  140.2050  160.8702 C   0  0  0  0  0  0  0  0  0  0  0  0
  156.0850  140.0484  160.0329 C   0  0  0  0  0  0  0  0  0  0  0  0
  156.0457  139.5739  158.8964 O   0  0  0  0  0  0  0  0  0  0  0  0
  157.2183  140.4698  160.6151 N   0  0  0  0  0  0  0  0  0  0  0  0
  158.5474  140.4343  160.0130 C   0  0  2  0  0  0  0  0  0  0  0  0
  159.5701  139.9310  161.0438 C   0  0  0  0  0  0  0  0  0  0  0  0
  158.9639  141.7798  159.4497 C   0  0  0  0  0  0  0  0  0  0  0  0
  158.9830  142.0298  157.9607 C   0  0  0  0  0  0  0  0  0  0  0  0
  160.2815  141.9499  158.7320 C   0  0  0  0  0  0  0  0  0  0  0  0
  153.2048  140.5665  159.0226 C   0  0  0  0  0  0  0  0  0  0  0  0
  153.5443  139.5207  158.4669 O   0  0  0  0  0  0  0  0  0  0  0  0
  152.1877  141.4787  158.4945 C   0  0  0  0  0  0  0  0  0  0  0  0
  151.5867  141.0813  157.2623 C   0  0  0  0  0  0  0  0  0  0  0  0
  151.1187  140.7606  156.2531 N   0  0  0  0  0  0  0  0  0  0  0  0
  151.8423  142.6249  159.1329 C   0  0  0  0  0  0  0  0  0  0  0  0
  150.7956  143.6076  158.6255 C   0  0  0  0  0  0  0  0  0  0  0  0
  151.1875  144.2018  161.5230 H   0  0  0  0  0  0  0  0  0  0  0  0
  152.4020  145.0849  160.5946 H   0  0  0  0  0  0  0  0  0  0  0  0
  152.8571  144.2551  162.0778 H   0  0  0  0  0  0  0  0  0  0  0  0
  155.0781  140.6795  161.8151 H   0  0  0  0  0  0  0  0  0  0  0  0
  154.4293  139.2166  161.1393 H   0  0  0  0  0  0  0  0  0  0  0  0
  157.1557  140.8479  161.5493 H   0  0  0  0  0  0  0  0  0  0  0  0
  158.5351  139.7277  159.1808 H   0  0  0  0  0  0  0  0  0  0  0  0
  160.5668  139.8644  160.6063 H   0  0  0  0  0  0  0  0  0  0  0  0
  159.3081  138.9381  161.4108 H   0  0  0  0  0  0  0  0  0  0  0  0
  159.6286  140.5991  161.9037 H   0  0  0  0  0  0  0  0  0  0  0  0
  158.6561  142.6226  160.0663 H   0  0  0  0  0  0  0  0  0  0  0  0
  158.7374  141.1981  157.3033 H   0  0  0  0  0  0  0  0  0  0  0  0
  158.6641  143.0098  157.6119 H   0  0  0  0  0  0  0  0  0  0  0  0
  160.8270  142.8767  158.8968 H   0  0  0  0  0  0  0  0  0  0  0  0
  160.8978  141.0652  158.5851 H   0  0  0  0  0  0  0  0  0  0  0  0
  150.3183  143.2652  157.7079 H   0  0  0  0  0  0  0  0  0  0  0  0
  151.2510  144.5761  158.4169 H   0  0  0  0  0  0  0  0  0  0  0  0
  150.0094  143.7494  159.3678 H   0  0  0  0  0  0  0  0  0  0  0  0
  1  2  1  0  0  0  0
  1 21  1  0  0  0  0
  1 22  1  0  0  0  0
  1 23  1  0  0  0  0
  2 19  1  0  0  0  0
  2  3  2  0  0  0  0
  3  4  1  0  0  0  0
  4  5  1  0  0  0  0
  4 14  1  0  0  0  0
  5  6  1  0  0  0  0
  5 24  1  0  0  0  0
  5 25  1  0  0  0  0
  6  7  2  0  0  0  0
  6  8  1  0  0  0  0
  8  9  1  0  0  0  0
  8 26  1  0  0  0  0
  9 10  1  0  0  0  0
  9 11  1  0  0  0  0
  9 27  1  0  0  0  0
 10 28  1  0  0  0  0
 10 29  1  0  0  0  0
 10 30  1  0  0  0  0
 11 13  1  0  0  0  0
 11 12  1  0  0  0  0
 11 31  1  0  0  0  0
 12 13  1  0  0  0  0
 12 32  1  0  0  0  0
 12 33  1  0  0  0  0
 13 34  1  0  0  0  0
 13 35  1  0  0  0  0
 14 15  2  0  0  0  0
 14 16  1  0  0  0  0
 16 17  1  0  0  0  0
 16 19  2  0  0  0  0
 17 18  3  0  0  0  0
 19 20  1  0  0  0  0
 20 36  1  0  0  0  0
 20 37  1  0  0  0  0
 20 38  1  0  0  0  0
M  END
> <s_m_source_file>
AV-unprocessed.smi

> <i_m_source_file_index>
1616

> <i_lp_mmshare_version>
43012

> <i_f3d_flags>
0

> <s_epik_input>
TiNDYyhjMVtDSDNdKWMoPU8pbihuYzFbQ0gzXSlbQ0gyXUMoPU8pW05IXVtDQEhdKFtDSDNdKVtDSF0yW0NIMl1bQ0gyXTI=

> <s_epik_cmdline>
J2VwaWtfcHl0aG9uJywgJy1waCcsICc3LjAnLCAnLXRuJywgJzgnLCAnLW1hJywgJzIwMCcsICctbWV0YWxfYmluZGluZycsICctaW1hZScsICc8aW5maWxlLm1hZT4nLCAnLW9tYWUnLCAnPG91dGZpbGUubWFlPic=

> <r_lp_tautomer_probability>
1

> <r_epik_Ionization_Penalty>
1.93246e-08

> <r_epik_Ionization_Penalty_Charging>
2.27031e-11

> <r_epik_Ionization_Penalty_Neutral>
1.93019e-08

> <r_epik_State_Penalty>
-0

> <r_epik_Charging_Adjusted_Penalty>
2.27031e-11

> <i_epik_Tot_Q>
0

> <i_epik_Tot_abs_Q>
0

> <r_epik_Metal_State_Penalty>
-0

> <b_epik_Metal_Only>
0

> <s_lp_Force_Field>
OPLS_2005

> <r_lp_Energy>
28.018

> <b_lp_Chiralities_Consistent>
1

> <s_lp_Variant>
AV-unprocessed.smi:1616-1

> <Gold.Version>
5.8.1

> <Gold.Id.Protein>
6NUR|6NUR_protein|mol2

> <Gold.PLP.Fitness>
44.2897

> <Gold.PLP.PLP>
-41.1836

> <Gold.PLP.part.hbond>
-3.0000

> <Gold.PLP.part.metal>
0.0000

> <Gold.PLP.part.buried>
-6.7648

> <Gold.PLP.part.nonpolar>
-31.5946

> <Gold.PLP.part.repulsive>
0.0707

> <Gold.PLP.ligand.clash>
0.0000

> <Gold.PLP.ligand.torsion>
0.9467

> <Gold.PLP.Chemscore.Hbond>
1.3120

> <Gold.PLP.Chemscore.CHOScore>
0.0000

> <Gold.PLP.Chemscore.Metal>
0.0000

> <Gold.Chemscore.Hbonds>
donor molecule, donor type, donor heavy atom, donor atom, acceptor molecule, acceptor atom, score
      P1  H  7997  8008       L1     7  0.66
      P1  H  7997  8009       L1    15  0.60

> <Gold.PLP.Chemscore.Internal.Correction>
1.0635

> <Gold.Rescore>
     Score         DG    S(hbond)    S(metal)    S(lipo)     H(rot)  DE(clash)    DE(int)     intcor
     14.53     -17.20       1.26        0.00     100.94       1.68       0.19       2.49       ----

> <Gold.Chemscore.Fitness>
14.5265

> <Gold.Chemscore.DG>
-17.2037

> <Gold.Chemscore.ZeroCoef>
-5.4800

> <Gold.Chemscore.Hbond>
1.2624

> <Gold.Chemscore.Metal>
0.0000

> <Gold.Chemscore.Lipo>
100.9418

> <Gold.Chemscore.Internal_Hbond>
0.0000

> <Gold.Chemscore.DEClash>
0.1889

> <Gold.Chemscore.DEInternal>
2.4883

> <Gold.Chemscore.Rot>
1.6809

> <Gold.Chemscore.Internal.Correction>
   9.000000E+99

> <Gold.Chemscore.Hbonds>
donor molecule, donor type, donor heavy atom, donor atom, acceptor molecule, acceptor atom, score
      P1  H  7997  8008       L1     7  0.66
      P1  H  7997  8009       L1    15  0.32

> <Gold.Chemscore.Hbond.Weighted>
-4.2165

> <Gold.Chemscore.Metal.Weighted>
-0.0000

> <Gold.Chemscore.Lipo.Weighted>
-11.8102

> <Gold.Chemscore.Internal_Hbond.Weighted>
0.0000

> <Gold.Chemscore.DEClash.Weighted>
0.1889

> <Gold.Chemscore.DEInternal.Weighted>
2.4883

> <Gold.Chemscore.Rot.Weighted>
4.3030

> <Gold.Chemscore.Internal.Correction.Weighted>
   9.000000E+99

> <Gold.Protein.RotatedTorsions>
[ 6907 6896 6895 6894 ] final  -12.79 input  -60.11 | X-H torsion
[ 7974 7965 7964 7962 ] final  176.82 input  175.53 | X-H torsion
[ 8008 7997 7996 7995 ] final  179.62 input   59.86 | X-H torsion
[ 10167 10162 10161 10158 ] final  -49.37 input  -65.29 | X-H torsion
[ 10718 10713 10712 10709 ] final  -97.19 input   66.30 | X-H torsion
[ 10763 10752 10751 10750 ] final  141.90 input  -60.55 | X-H torsion
[ 11005 11000 10999 10996 ] final  -30.36 input  -57.11 | X-H torsion

> <Gold.Protein.ActiveResidues>
 VAL166  LYS551  ARG553  GLY616  TRP617  ASP618  TYR619  PRO620  LYS621  CYS622 
 ASP623  PHE694  ASN695  SER759  ASP760  ASP761  ALA762  ILE779  LEU786  VAL792 
 PHE793  MET794  SER795  GLU796  ALA797  LYS798  CYS799  TRP800  GLU811  SER814 

> <Gold.Protein.RotatedAtoms>
  151.3650  135.0911  159.9446 H   0  0  0  0  0  0  0  0  0  0  0  0  # atno 6907 bound_to 6896
  152.5151  133.9220  159.7549 H   0  0  0  0  0  0  0  0  0  0  0  0  # atno 6908 bound_to 6896
  150.9622  133.6378  159.2781 H   0  0  0  0  0  0  0  0  0  0  0  0  # atno 6909 bound_to 6896
  144.7178  140.0154  143.6440 H   0  0  0  0  0  0  0  0  0  0  0  0  # atno 7974 bound_to 7965
  156.0413  140.1304  157.0152 H   0  0  0  0  0  0  0  0  0  0  0  0  # atno 8008 bound_to 7997
  154.4392  140.1029  156.6312 H   0  0  0  0  0  0  0  0  0  0  0  0  # atno 8009 bound_to 7997
  155.5662  140.3465  155.4506 H   0  0  0  0  0  0  0  0  0  0  0  0  # atno 8010 bound_to 7997
  140.6688  143.2701  151.4205 H   0  0  0  0  0  0  0  0  0  0  0  0  # atno 10167 bound_to 10162
  156.0078  130.5183  150.6337 H   0  0  0  0  0  0  0  0  0  0  0  0  # atno 10718 bound_to 10713
  153.9468  135.2974  155.3440 H   0  0  0  0  0  0  0  0  0  0  0  0  # atno 10763 bound_to 10752
  154.7447  135.5008  153.9187 H   0  0  0  0  0  0  0  0  0  0  0  0  # atno 10764 bound_to 10752
  153.1014  135.6735  153.9774 H   0  0  0  0  0  0  0  0  0  0  0  0  # atno 10765 bound_to 10752
  140.9376  133.7299  156.1028 H   0  0  0  0  0  0  0  0  0  0  0  0  # atno 11005 bound_to 11000
  146.0224  139.3262  143.0805 LP  0  0  0  0  0  0  0  0  0  0  0  0  # atno 17320 bound_to 7965
  145.8552  140.9506  143.0728 LP  0  0  0  0  0  0  0  0  0  0  0  0  # atno 17321 bound_to 7965
  139.5948  144.1421  152.2130 LP  0  0  0  0  0  0  0  0  0  0  0  0  # atno 17342 bound_to 10162
  140.0787  144.5719  150.7138 LP  0  0  0  0  0  0  0  0  0  0  0  0  # atno 17343 bound_to 10162
  157.4130  131.0826  151.1202 LP  0  0  0  0  0  0  0  0  0  0  0  0  # atno 17370 bound_to 10713
  157.1828  130.6317  149.5677 LP  0  0  0  0  0  0  0  0  0  0  0  0  # atno 17371 bound_to 10713
  140.7778  134.3760  157.5494 LP  0  0  0  0  0  0  0  0  0  0  0  0  # atno 17394 bound_to 11000
  139.8812  134.9063  156.2918 LP  0  0  0  0  0  0  0  0  0  0  0  0  # atno 17395 bound_to 11000

$$$$
