AV-unprocessed.smi:1620|AV-procd|sdf|6492|dock5
  -GOLD-   22720 7153D 1   1.00000     0.00000
 Structure written by MMmdl.
 40 40  0  0  0  0  0  0  0  0  1 V2000
  152.3885  142.5492  162.5288 C   0  0  0  0  0  0  0  0  0  0  0  0
  152.8432  143.5075  161.4110 C   0  0  0  0  0  0  0  0  0  0  0  0
  152.1332  144.8631  161.5783 C   0  0  0  0  0  0  0  0  0  0  0  0
  152.6424  142.9115  159.9873 C   0  0  1  0  0  0  0  0  0  0  0  0
  152.9407  143.8957  158.8358 C   0  0  0  0  0  0  0  0  0  0  0  0
  153.3948  141.6437  159.7971 N   0  0  0  0  0  0  0  0  0  0  0  0
  154.5063  141.4166  160.7306 C   0  0  0  0  0  0  0  0  0  0  0  0
  153.2074  140.7519  158.7872 C   0  0  0  0  0  0  0  0  0  0  0  0
  153.7730  139.6576  158.7581 O   0  0  0  0  0  0  0  0  0  0  0  0
  152.2975  141.1289  157.8679 N   0  0  0  0  0  0  0  0  0  0  0  0
  151.8766  140.4203  156.7146 C   0  0  0  0  0  0  0  0  0  0  0  0
  150.9275  140.9005  155.7755 C   0  0  0  0  0  0  0  0  0  0  0  0
  150.7288  140.0235  154.8035 N   0  0  0  0  0  0  0  0  0  0  0  0
  151.5389  138.9767  155.1026 N   0  0  0  0  0  0  0  0  0  0  0  0
  151.5648  137.8149  154.2313 C   0  0  0  0  0  0  0  0  0  0  0  0
  151.1031  136.5565  154.9690 C   0  0  0  0  0  0  0  0  0  0  0  0
  150.0171  135.9371  154.4985 N   0  0  0  0  0  0  0  0  0  0  0  0
  151.7217  136.1461  155.9485 O   0  0  0  0  0  0  0  0  0  0  0  0
  152.2561  139.1874  156.2643 C   0  0  0  0  0  0  0  0  0  0  0  0
  151.3339  142.2919  162.4254 H   0  0  0  0  0  0  0  0  0  0  0  0
  152.5236  143.0008  163.5120 H   0  0  0  0  0  0  0  0  0  0  0  0
  152.9612  141.6218  162.5263 H   0  0  0  0  0  0  0  0  0  0  0  0
  153.9076  143.6890  161.5616 H   0  0  0  0  0  0  0  0  0  0  0  0
  151.0625  144.7766  161.3906 H   0  0  0  0  0  0  0  0  0  0  0  0
  152.5336  145.6162  160.9002 H   0  0  0  0  0  0  0  0  0  0  0  0
  152.2604  145.2505  162.5894 H   0  0  0  0  0  0  0  0  0  0  0  0
  151.5723  142.7291  159.8910 H   0  0  0  0  0  0  0  0  0  0  0  0
  152.2303  144.7219  158.8237 H   0  0  0  0  0  0  0  0  0  0  0  0
  152.8616  143.3989  157.8681 H   0  0  0  0  0  0  0  0  0  0  0  0
  153.9391  144.3267  158.9090 H   0  0  0  0  0  0  0  0  0  0  0  0
  154.5323  140.3794  161.0693 H   0  0  0  0  0  0  0  0  0  0  0  0
  154.4354  142.0315  161.6269 H   0  0  0  0  0  0  0  0  0  0  0  0
  155.4583  141.6408  160.2478 H   0  0  0  0  0  0  0  0  0  0  0  0
  151.8690  142.0323  158.0084 H   0  0  0  0  0  0  0  0  0  0  0  0
  150.3873  141.8358  155.7664 H   0  0  0  0  0  0  0  0  0  0  0  0
  150.9302  137.9928  153.3615 H   0  0  0  0  0  0  0  0  0  0  0  0
  152.5824  137.6785  153.8629 H   0  0  0  0  0  0  0  0  0  0  0  0
  149.6831  135.0968  154.9483 H   0  0  0  0  0  0  0  0  0  0  0  0
  149.5403  136.3058  153.6884 H   0  0  0  0  0  0  0  0  0  0  0  0
  152.9484  138.4537  156.6501 H   0  0  0  0  0  0  0  0  0  0  0  0
  1  2  1  0  0  0  0
  1 20  1  0  0  0  0
  1 21  1  0  0  0  0
  1 22  1  0  0  0  0
  2  3  1  0  0  0  0
  2  4  1  0  0  0  0
  2 23  1  0  0  0  0
  3 24  1  0  0  0  0
  3 25  1  0  0  0  0
  3 26  1  0  0  0  0
  4  5  1  0  0  0  0
  4  6  1  0  0  0  0
  4 27  1  0  0  0  0
  5 28  1  0  0  0  0
  5 29  1  0  0  0  0
  5 30  1  0  0  0  0
  6  7  1  0  0  0  0
  6  8  1  0  0  0  0
  7 31  1  0  0  0  0
  7 32  1  0  0  0  0
  7 33  1  0  0  0  0
  8  9  2  0  0  0  0
  8 10  1  0  0  0  0
 10 11  1  0  0  0  0
 10 34  1  0  0  0  0
 11 19  2  0  0  0  0
 11 12  1  0  0  0  0
 12 13  2  0  0  0  0
 12 35  1  0  0  0  0
 13 14  1  0  0  0  0
 14 15  1  0  0  0  0
 14 19  1  0  0  0  0
 15 16  1  0  0  0  0
 15 36  1  0  0  0  0
 15 37  1  0  0  0  0
 16 17  1  0  0  0  0
 16 18  2  0  0  0  0
 17 38  1  0  0  0  0
 17 39  1  0  0  0  0
 19 40  1  0  0  0  0
M  END
> <s_m_source_file>
AV-unprocessed.smi

> <i_m_source_file_index>
1620

> <i_lp_mmshare_version>
43012

> <i_f3d_flags>
0

> <s_epik_input>
W0NIM11bQ0hdKFtDSDNdKVtDQEhdKFtDSDNdKU4oW0NIM10pQyg9TylbTkhdYzFbY0hdbm4oW2NIXTEpW0NIMl1DKD1PKVtOSDJd

> <s_epik_cmdline>
J2VwaWtfcHl0aG9uJywgJy1waCcsICc3LjAnLCAnLXRuJywgJzgnLCAnLW1hJywgJzIwMCcsICctbWV0YWxfYmluZGluZycsICctaW1hZScsICc8aW5maWxlLm1hZT4nLCAnLW9tYWUnLCAnPG91dGZpbGUubWFlPic=

> <r_lp_tautomer_probability>
1

> <r_epik_Ionization_Penalty>
4.85642e-05

> <r_epik_Ionization_Penalty_Charging>
0

> <r_epik_Ionization_Penalty_Neutral>
4.85642e-05

> <r_epik_State_Penalty>
-0

> <r_epik_Charging_Adjusted_Penalty>
0

> <i_epik_Tot_Q>
0

> <i_epik_Tot_abs_Q>
0

> <r_epik_Metal_State_Penalty>
-0

> <b_epik_Metal_Only>
0

> <s_lp_Force_Field>
OPLS_2005

> <r_lp_Energy>
32.9866

> <b_lp_Chiralities_Consistent>
1

> <s_lp_Variant>
AV-unprocessed.smi:1620-2

> <Gold.Version>
5.8.1

> <Gold.Id.Protein>
6NUR|6NUR_protein|mol2

> <Gold.PLP.Fitness>
49.7793

> <Gold.PLP.PLP>
-39.7549

> <Gold.PLP.part.hbond>
-4.5407

> <Gold.PLP.part.metal>
0.0000

> <Gold.PLP.part.buried>
4.7930

> <Gold.PLP.part.nonpolar>
-37.7016

> <Gold.PLP.part.repulsive>
0.2577

> <Gold.PLP.ligand.clash>
0.0000

> <Gold.PLP.ligand.torsion>
0.3809

> <Gold.PLP.Chemscore.Hbond>
3.5300

> <Gold.PLP.Chemscore.CHOScore>
0.0000

> <Gold.PLP.Chemscore.Metal>
0.0000

> <Gold.Chemscore.Hbonds>
donor molecule, donor type, donor heavy atom, donor atom, acceptor molecule, acceptor atom, score
      L1  H    17    39       P1  7948  1.00
      P1  H  7989  7998       L1    13  0.90
      P1  H  7997  8010       L1     9  0.70
      P1  H 10752 10765       L1    18  1.00

> <Gold.PLP.Chemscore.Internal.Correction>
0.1961

> <Gold.Rescore>
     Score         DG    S(hbond)    S(metal)    S(lipo)     H(rot)  DE(clash)    DE(int)     intcor
     14.03     -17.34       1.58        0.00     102.21       2.10       1.55       1.76       ----

> <Gold.Chemscore.Fitness>
14.0324

> <Gold.Chemscore.DG>
-17.3410

> <Gold.Chemscore.ZeroCoef>
-5.4800

> <Gold.Chemscore.Hbond>
1.5835

> <Gold.Chemscore.Metal>
0.0000

> <Gold.Chemscore.Lipo>
102.2063

> <Gold.Chemscore.Internal_Hbond>
0.0000

> <Gold.Chemscore.DEClash>
1.5536

> <Gold.Chemscore.DEInternal>
1.7551

> <Gold.Chemscore.Rot>
2.1039

> <Gold.Chemscore.Internal.Correction>
   9.000000E+99

> <Gold.Chemscore.Hbonds>
donor molecule, donor type, donor heavy atom, donor atom, acceptor molecule, acceptor atom, score
      L1  H    17    39       P1  7948  0.58
      P1  H  7989  7998       L1    13  0.07
      P1  H  7997  8010       L1     9  0.07
      P1  H 10752 10765       L1    18  0.30

> <Gold.Chemscore.Hbond.Weighted>
-5.2889

> <Gold.Chemscore.Metal.Weighted>
-0.0000

> <Gold.Chemscore.Lipo.Weighted>
-11.9581

> <Gold.Chemscore.Internal_Hbond.Weighted>
0.0000

> <Gold.Chemscore.DEClash.Weighted>
1.5536

> <Gold.Chemscore.DEInternal.Weighted>
1.7551

> <Gold.Chemscore.Rot.Weighted>
5.3860

> <Gold.Chemscore.Internal.Correction.Weighted>
   9.000000E+99

> <Gold.Protein.RotatedTorsions>
[ 6907 6896 6895 6894 ] final  -78.15 input  -60.11 | X-H torsion
[ 7974 7965 7964 7962 ] final  -99.59 input  175.53 | X-H torsion
[ 8008 7997 7996 7995 ] final   27.34 input   59.86 | X-H torsion
[ 10167 10162 10161 10158 ] final  -14.04 input  -65.29 | X-H torsion
[ 10718 10713 10712 10709 ] final  -53.08 input   66.30 | X-H torsion
[ 10763 10752 10751 10750 ] final -141.83 input  -60.55 | X-H torsion
[ 11005 11000 10999 10996 ] final  -72.33 input  -57.11 | X-H torsion

> <Gold.Protein.ActiveResidues>
 VAL166  LYS551  ARG553  GLY616  TRP617  ASP618  TYR619  PRO620  LYS621  CYS622 
 ASP623  PHE694  ASN695  SER759  ASP760  ASP761  ALA762  ILE779  LEU786  VAL792 
 PHE793  MET794  SER795  GLU796  ALA797  LYS798  CYS799  TRP800  GLU811  SER814 

> <Gold.Protein.RotatedAtoms>
  150.6980  134.4315  159.5250 H   0  0  0  0  0  0  0  0  0  0  0  0  # atno 6907 bound_to 6896
  152.2041  134.8558  160.0514 H   0  0  0  0  0  0  0  0  0  0  0  0  # atno 6908 bound_to 6896
  151.9468  133.3619  159.4022 H   0  0  0  0  0  0  0  0  0  0  0  0  # atno 6909 bound_to 6896
  145.3056  140.9388  143.2799 H   0  0  0  0  0  0  0  0  0  0  0  0  # atno 7974 bound_to 7965
  155.0415  140.3170  155.4723 H   0  0  0  0  0  0  0  0  0  0  0  0  # atno 8008 bound_to 7997
  156.2854  140.2162  156.5482 H   0  0  0  0  0  0  0  0  0  0  0  0  # atno 8009 bound_to 7997
  154.7286  140.0483  157.0693 H   0  0  0  0  0  0  0  0  0  0  0  0  # atno 8010 bound_to 7997
  140.7194  143.5363  150.9460 H   0  0  0  0  0  0  0  0  0  0  0  0  # atno 10167 bound_to 10162
  156.1566  130.4150  149.9859 H   0  0  0  0  0  0  0  0  0  0  0  0  # atno 10718 bound_to 10713
  154.8531  135.3513  154.5931 H   0  0  0  0  0  0  0  0  0  0  0  0  # atno 10763 bound_to 10752
  153.6541  135.6993  153.5204 H   0  0  0  0  0  0  0  0  0  0  0  0  # atno 10764 bound_to 10752
  153.2870  135.4246  155.1090 H   0  0  0  0  0  0  0  0  0  0  0  0  # atno 10765 bound_to 10752
  141.1607  133.6843  156.7042 H   0  0  0  0  0  0  0  0  0  0  0  0  # atno 11005 bound_to 11000
  144.9058  139.4591  143.6611 LP  0  0  0  0  0  0  0  0  0  0  0  0  # atno 17320 bound_to 7965
  146.3136  139.7838  142.9000 LP  0  0  0  0  0  0  0  0  0  0  0  0  # atno 17321 bound_to 7965
  139.9085  143.6749  152.3119 LP  0  0  0  0  0  0  0  0  0  0  0  0  # atno 17342 bound_to 10162
  139.7124  144.7618  151.1090 LP  0  0  0  0  0  0  0  0  0  0  0  0  # atno 17343 bound_to 10162
  156.7701  130.9183  151.3644 LP  0  0  0  0  0  0  0  0  0  0  0  0  # atno 17370 bound_to 10713
  157.6700  130.9042  150.0018 LP  0  0  0  0  0  0  0  0  0  0  0  0  # atno 17371 bound_to 10713
  140.2936  134.8221  157.4038 LP  0  0  0  0  0  0  0  0  0  0  0  0  # atno 17394 bound_to 11000
  140.1325  134.5077  155.8095 LP  0  0  0  0  0  0  0  0  0  0  0  0  # atno 17395 bound_to 11000

$$$$
