AV-unprocessed.smi:3243|AV-procd|sdf|12396|dock4
  -GOLD-   2272018263D 1   1.00000     0.00000
 Structure written by MMmdl.
 37 38  0  0  0  0  0  0  0  0  1 V2000
  151.6987  144.7272  160.3455 C   0  0  0  0  0  0  0  0  0  0  0  0
  152.5055  144.1530  159.1720 C   0  0  0  0  0  0  0  0  0  0  0  0
  152.0664  144.7087  157.8095 C   0  0  0  0  0  0  0  0  0  0  0  0
  152.5338  142.6568  159.1870 C   0  0  0  0  0  0  0  0  0  0  0  0
  152.0185  141.8951  158.2172 N   0  0  0  0  0  0  0  0  0  0  0  0
  152.1672  140.5275  158.4660 C   0  0  0  0  0  0  0  0  0  0  0  0
  151.6352  139.5275  157.4850 C   0  0  0  0  0  0  0  0  0  0  0  0
  151.7726  140.0129  156.0324 C   0  0  0  0  0  0  0  0  0  0  0  0
  150.5551  140.6654  155.5650 N   0  0  0  0  0  0  0  0  0  0  0  0
  150.3506  141.1149  154.3174 C   0  0  0  0  0  0  0  0  0  0  0  0
  151.1984  141.0487  153.4275 O   0  0  0  0  0  0  0  0  0  0  0  0
  149.0258  141.7679  154.1106 C   0  0  2  0  0  0  0  0  0  0  0  0
  147.7757  140.9389  154.3252 C   0  0  0  0  0  0  0  0  0  0  0  0
  148.1690  141.3413  152.9252 C   0  0  2  0  0  0  0  0  0  0  0  0
  148.5718  140.2780  151.9184 C   0  0  0  0  0  0  0  0  0  0  0  0
  152.8117  140.2599  159.6481 C   0  0  0  0  0  0  0  0  0  0  0  0
  153.2532  141.7188  160.4916 S   0  0  0  0  0  0  0  0  0  0  0  0
  152.0901  144.3745  161.3002 H   0  0  0  0  0  0  0  0  0  0  0  0
  150.6498  144.4344  160.2866 H   0  0  0  0  0  0  0  0  0  0  0  0
  151.7392  145.8167  160.3540 H   0  0  0  0  0  0  0  0  0  0  0  0
  153.5354  144.4804  159.3193 H   0  0  0  0  0  0  0  0  0  0  0  0
  152.7151  144.3468  157.0113 H   0  0  0  0  0  0  0  0  0  0  0  0
  152.1055  145.7983  157.7985 H   0  0  0  0  0  0  0  0  0  0  0  0
  151.0450  144.4107  157.5699 H   0  0  0  0  0  0  0  0  0  0  0  0
  152.1587  138.5784  157.6079 H   0  0  0  0  0  0  0  0  0  0  0  0
  150.5863  139.3188  157.7000 H   0  0  0  0  0  0  0  0  0  0  0  0
  152.5891  140.7317  155.9583 H   0  0  0  0  0  0  0  0  0  0  0  0
  152.0293  139.1825  155.3723 H   0  0  0  0  0  0  0  0  0  0  0  0
  149.8116  140.7815  156.2383 H   0  0  0  0  0  0  0  0  0  0  0  0
  148.9865  142.8268  154.3580 H   0  0  0  0  0  0  0  0  0  0  0  0
  147.8926  139.8917  154.5998 H   0  0  0  0  0  0  0  0  0  0  0  0
  146.9229  141.4392  154.7794 H   0  0  0  0  0  0  0  0  0  0  0  0
  147.5940  142.1474  152.4732 H   0  0  0  0  0  0  0  0  0  0  0  0
  149.0436  139.4253  152.4080 H   0  0  0  0  0  0  0  0  0  0  0  0
  149.2704  140.6951  151.1929 H   0  0  0  0  0  0  0  0  0  0  0  0
  147.6916  139.9202  151.3842 H   0  0  0  0  0  0  0  0  0  0  0  0
  153.0506  139.2966  160.0739 H   0  0  0  0  0  0  0  0  0  0  0  0
  1  2  1  0  0  0  0
  1 18  1  0  0  0  0
  1 19  1  0  0  0  0
  1 20  1  0  0  0  0
  2  3  1  0  0  0  0
  2  4  1  0  0  0  0
  2 21  1  0  0  0  0
  3 22  1  0  0  0  0
  3 23  1  0  0  0  0
  3 24  1  0  0  0  0
  4 17  1  0  0  0  0
  4  5  2  0  0  0  0
  5  6  1  0  0  0  0
  6  7  1  0  0  0  0
  6 16  2  0  0  0  0
  7  8  1  0  0  0  0
  7 25  1  0  0  0  0
  7 26  1  0  0  0  0
  8  9  1  0  0  0  0
  8 27  1  0  0  0  0
  8 28  1  0  0  0  0
  9 10  1  0  0  0  0
  9 29  1  0  0  0  0
 10 11  2  0  0  0  0
 10 12  1  0  0  0  0
 12 14  1  0  0  0  0
 12 13  1  0  0  0  0
 12 30  1  0  0  0  0
 13 14  1  0  0  0  0
 13 31  1  0  0  0  0
 13 32  1  0  0  0  0
 14 15  1  0  0  0  0
 14 33  1  0  0  0  0
 15 34  1  0  0  0  0
 15 35  1  0  0  0  0
 15 36  1  0  0  0  0
 16 17  1  0  0  0  0
 16 37  1  0  0  0  0
M  END
> <s_m_source_file>
AV-unprocessed.smi

> <i_m_source_file_index>
3243

> <i_lp_mmshare_version>
43012

> <i_f3d_flags>
0

> <s_epik_input>
W0NIM11bQ0hdKFtDSDNdKWMxbmMoW2NIXXMxKVtDSDJdW0NIMl1bTkhdQyg9TylbQ0BASF0yW0NIMl1bQ0BIXTJbQ0gzXQ==

> <s_epik_cmdline>
J2VwaWtfcHl0aG9uJywgJy1waCcsICc3LjAnLCAnLXRuJywgJzgnLCAnLW1hJywgJzIwMCcsICctbWV0YWxfYmluZGluZycsICctaW1hZScsICc8aW5maWxlLm1hZT4nLCAnLW9tYWUnLCAnPG91dGZpbGUubWFlPic=

> <r_epik_Ionization_Penalty>
0.00084212

> <r_epik_Ionization_Penalty_Charging>
0

> <r_epik_Ionization_Penalty_Neutral>
0.00084212

> <r_epik_State_Penalty>
0.000542609

> <r_epik_Charging_Adjusted_Penalty>
0.000542609

> <i_epik_Tot_Q>
0

> <i_epik_Tot_abs_Q>
0

> <r_epik_Metal_State_Penalty>
-0

> <b_epik_Metal_Only>
0

> <s_lp_Force_Field>
OPLS_2005

> <r_lp_Energy>
-0.500157

> <b_lp_Chiralities_Consistent>
1

> <s_lp_Variant>
AV-unprocessed.smi:3243-3

> <Gold.Version>
5.8.1

> <Gold.Id.Protein>
6NUR|6NUR_protein|mol2

> <Gold.PLP.Fitness>
39.7725

> <Gold.PLP.PLP>
-37.5035

> <Gold.PLP.part.hbond>
-1.3915

> <Gold.PLP.part.metal>
0.0000

> <Gold.PLP.part.buried>
-1.4028

> <Gold.PLP.part.nonpolar>
-35.6786

> <Gold.PLP.part.repulsive>
1.7542

> <Gold.PLP.ligand.clash>
0.0000

> <Gold.PLP.ligand.torsion>
0.7856

> <Gold.PLP.Chemscore.Hbond>
1.2246

> <Gold.PLP.Chemscore.CHOScore>
0.0000

> <Gold.PLP.Chemscore.Metal>
0.0000

> <Gold.Chemscore.Hbonds>
donor molecule, donor type, donor heavy atom, donor atom, acceptor molecule, acceptor atom, score
      P1  H  8011  8017       L1    11  0.07

> <Gold.PLP.Chemscore.Internal.Correction>
0.1665

> <Gold.Rescore>
     Score         DG    S(hbond)    S(metal)    S(lipo)     H(rot)  DE(clash)    DE(int)     intcor
     15.73     -17.94       1.12        0.00     106.92       1.49       1.02       1.19       ----

> <Gold.Chemscore.Fitness>
15.7321

> <Gold.Chemscore.DG>
-17.9359

> <Gold.Chemscore.ZeroCoef>
-5.4800

> <Gold.Chemscore.Hbond>
1.1237

> <Gold.Chemscore.Metal>
0.0000

> <Gold.Chemscore.Lipo>
106.9172

> <Gold.Chemscore.Internal_Hbond>
0.0000

> <Gold.Chemscore.DEClash>
1.0164

> <Gold.Chemscore.DEInternal>
1.1874

> <Gold.Chemscore.Rot>
1.4870

> <Gold.Chemscore.Internal.Correction>
   9.000000E+99

> <Gold.Chemscore.Hbond.Weighted>
-3.7532

> <Gold.Chemscore.Metal.Weighted>
-0.0000

> <Gold.Chemscore.Lipo.Weighted>
-12.5093

> <Gold.Chemscore.Internal_Hbond.Weighted>
0.0000

> <Gold.Chemscore.DEClash.Weighted>
1.0164

> <Gold.Chemscore.DEInternal.Weighted>
1.1874

> <Gold.Chemscore.Rot.Weighted>
3.8067

> <Gold.Chemscore.Internal.Correction.Weighted>
   9.000000E+99

> <Gold.Protein.RotatedTorsions>
[ 6907 6896 6895 6894 ] final   42.20 input  -60.11 | X-H torsion
[ 7974 7965 7964 7962 ] final  145.83 input  175.53 | X-H torsion
[ 8008 7997 7996 7995 ] final  -54.68 input   59.86 | X-H torsion
[ 10167 10162 10161 10158 ] final -174.75 input  -65.29 | X-H torsion
[ 10718 10713 10712 10709 ] final   -4.58 input   66.30 | X-H torsion
[ 10763 10752 10751 10750 ] final  -90.44 input  -60.55 | X-H torsion
[ 11005 11000 10999 10996 ] final  -74.84 input  -57.11 | X-H torsion

> <Gold.Protein.ActiveResidues>
 VAL166  LYS551  ARG553  GLY616  TRP617  ASP618  TYR619  PRO620  LYS621  CYS622 
 ASP623  PHE694  ASN695  SER759  ASP760  ASP761  ALA762  ILE779  LEU786  VAL792 
 PHE793  MET794  SER795  GLU796  ALA797  LYS798  CYS799  TRP800  GLU811  SER814 

> <Gold.Protein.RotatedAtoms>
  152.2049  134.8555  160.0503 H   0  0  0  0  0  0  0  0  0  0  0  0  # atno 6907 bound_to 6896
  151.9394  133.3628  159.3968 H   0  0  0  0  0  0  0  0  0  0  0  0  # atno 6908 bound_to 6896
  150.6963  134.4379  159.5322 H   0  0  0  0  0  0  0  0  0  0  0  0  # atno 6909 bound_to 6896
  144.8720  139.5831  143.5882 H   0  0  0  0  0  0  0  0  0  0  0  0  # atno 7974 bound_to 7965
  154.4170  140.1170  156.5355 H   0  0  0  0  0  0  0  0  0  0  0  0  # atno 8008 bound_to 7997
  155.6562  140.3496  155.4747 H   0  0  0  0  0  0  0  0  0  0  0  0  # atno 8009 bound_to 7997
  155.9751  140.1149  157.0767 H   0  0  0  0  0  0  0  0  0  0  0  0  # atno 8010 bound_to 7997
  139.5617  144.1853  152.1249 H   0  0  0  0  0  0  0  0  0  0  0  0  # atno 10167 bound_to 10162
  156.7592  130.5264  149.5788 H   0  0  0  0  0  0  0  0  0  0  0  0  # atno 10718 bound_to 10713
  154.6658  135.5304  153.8075 H   0  0  0  0  0  0  0  0  0  0  0  0  # atno 10763 bound_to 10752
  153.0470  135.6517  154.0802 H   0  0  0  0  0  0  0  0  0  0  0  0  # atno 10764 bound_to 10752
  154.0706  135.2954  155.3288 H   0  0  0  0  0  0  0  0  0  0  0  0  # atno 10765 bound_to 10752
  141.1639  133.6925  156.7426 H   0  0  0  0  0  0  0  0  0  0  0  0  # atno 11005 bound_to 11000
  146.2937  139.7213  142.9142 LP  0  0  0  0  0  0  0  0  0  0  0  0  # atno 17320 bound_to 7965
  145.4113  141.0397  143.3016 LP  0  0  0  0  0  0  0  0  0  0  0  0  # atno 17321 bound_to 7965
  140.1368  144.5238  150.6768 LP  0  0  0  0  0  0  0  0  0  0  0  0  # atno 17342 bound_to 10162
  140.6898  143.2369  151.5163 LP  0  0  0  0  0  0  0  0  0  0  0  0  # atno 17343 bound_to 10162
  156.1350  130.6205  151.0387 LP  0  0  0  0  0  0  0  0  0  0  0  0  # atno 17370 bound_to 10713
  157.6742  131.0854  150.7536 LP  0  0  0  0  0  0  0  0  0  0  0  0  # atno 17371 bound_to 10713
  140.2663  134.8427  157.3806 LP  0  0  0  0  0  0  0  0  0  0  0  0  # atno 17394 bound_to 11000
  140.1563  134.4785  155.7925 LP  0  0  0  0  0  0  0  0  0  0  0  0  # atno 17395 bound_to 11000

$$$$
