AV-unprocessed.smi:2651|AV-procd|sdf|10293|dock7
  -GOLD-   2272014303D 1   1.00000     0.00000
 Structure written by MMmdl.
 43 44  0  0  0  0  0  0  0  0  1 V2000
  150.8453  140.8718  155.6258 C   0  0  0  0  0  0  0  0  0  0  0  0
  149.6625  140.0674  155.2078 C   0  0  0  0  0  0  0  0  0  0  0  0
  149.5082  139.0184  154.3455 C   0  0  0  0  0  0  0  0  0  0  0  0
  148.1171  138.7426  154.4229 C   0  0  0  0  0  0  0  0  0  0  0  0
  147.5387  137.7006  153.6539 N   0  0  0  0  0  0  0  0  0  0  0  0
  146.2637  137.2765  153.6736 C   0  0  0  0  0  0  0  0  0  0  0  0
  145.3853  137.7239  154.4099 O   0  0  0  0  0  0  0  0  0  0  0  0
  146.0751  136.2883  152.7820 N   0  0  0  0  0  0  0  0  0  0  0  0
  144.8422  135.5513  152.4637 C   0  0  2  0  0  0  0  0  0  0  0  0
  143.8363  136.6541  152.0583 C   0  0  0  0  0  0  0  0  0  0  0  0
  144.2860  134.8972  153.7654 C   0  0  0  0  0  0  0  0  0  0  0  0
  142.9236  134.5277  153.6944 O   0  0  0  0  0  0  0  0  0  0  0  0
  145.0574  134.5325  151.2852 C   0  0  0  0  0  0  0  0  0  0  0  0
  143.8173  133.6589  150.9611 C   0  0  0  0  0  0  0  0  0  0  0  0
  144.0522  132.7767  149.7238 C   0  0  0  0  0  0  0  0  0  0  0  0
  145.2935  131.8899  149.8979 C   0  0  0  0  0  0  0  0  0  0  0  0
  146.5320  132.7361  150.2260 C   0  0  0  0  0  0  0  0  0  0  0  0
  146.2937  133.6153  151.4642 C   0  0  0  0  0  0  0  0  0  0  0  0
  147.4802  139.5492  155.2578 N   0  0  0  0  0  0  0  0  0  0  0  0
  148.4674  140.4024  155.7650 O   0  0  0  0  0  0  0  0  0  0  0  0
  151.7577  140.4916  155.1662 H   0  0  0  0  0  0  0  0  0  0  0  0
  150.9732  140.8384  156.7079 H   0  0  0  0  0  0  0  0  0  0  0  0
  150.7268  141.9145  155.3306 H   0  0  0  0  0  0  0  0  0  0  0  0
  150.2694  138.5308  153.7549 H   0  0  0  0  0  0  0  0  0  0  0  0
  148.1609  137.2352  153.0101 H   0  0  0  0  0  0  0  0  0  0  0  0
  146.8845  136.0120  152.2465 H   0  0  0  0  0  0  0  0  0  0  0  0
  142.8519  136.2501  151.8247 H   0  0  0  0  0  0  0  0  0  0  0  0
  144.1728  137.2228  151.1918 H   0  0  0  0  0  0  0  0  0  0  0  0
  143.6940  137.3707  152.8685 H   0  0  0  0  0  0  0  0  0  0  0  0
  144.8781  134.0263  154.0505 H   0  0  0  0  0  0  0  0  0  0  0  0
  144.3632  135.5968  154.5985 H   0  0  0  0  0  0  0  0  0  0  0  0
  142.8426  133.6232  153.9548 H   0  0  0  0  0  0  0  0  0  0  0  0
  145.2464  135.1168  150.3844 H   0  0  0  0  0  0  0  0  0  0  0  0
  143.5728  133.0177  151.8077 H   0  0  0  0  0  0  0  0  0  0  0  0
  142.9397  134.2793  150.7811 H   0  0  0  0  0  0  0  0  0  0  0  0
  143.1758  132.1550  149.5392 H   0  0  0  0  0  0  0  0  0  0  0  0
  144.1737  133.4083  148.8428 H   0  0  0  0  0  0  0  0  0  0  0  0
  145.1197  131.1700  150.6986 H   0  0  0  0  0  0  0  0  0  0  0  0
  145.4676  131.3099  148.9913 H   0  0  0  0  0  0  0  0  0  0  0  0
  147.3915  132.0861  150.3916 H   0  0  0  0  0  0  0  0  0  0  0  0
  146.7820  133.3674  149.3723 H   0  0  0  0  0  0  0  0  0  0  0  0
  147.1899  134.2058  151.6517 H   0  0  0  0  0  0  0  0  0  0  0  0
  146.1648  132.9675  152.3309 H   0  0  0  0  0  0  0  0  0  0  0  0
  1  2  1  0  0  0  0
  1 21  1  0  0  0  0
  1 22  1  0  0  0  0
  1 23  1  0  0  0  0
  2 20  1  0  0  0  0
  2  3  2  0  0  0  0
  3  4  1  0  0  0  0
  3 24  1  0  0  0  0
  4  5  1  0  0  0  0
  4 19  2  0  0  0  0
  5  6  1  0  0  0  0
  5 25  1  0  0  0  0
  6  7  2  0  0  0  0
  6  8  1  0  0  0  0
  8  9  1  0  0  0  0
  8 26  1  0  0  0  0
  9 10  1  0  0  0  0
  9 11  1  0  0  0  0
  9 13  1  0  0  0  0
 10 27  1  0  0  0  0
 10 28  1  0  0  0  0
 10 29  1  0  0  0  0
 11 12  1  0  0  0  0
 11 30  1  0  0  0  0
 11 31  1  0  0  0  0
 12 32  1  0  0  0  0
 13 18  1  0  0  0  0
 13 14  1  0  0  0  0
 13 33  1  0  0  0  0
 14 15  1  0  0  0  0
 14 34  1  0  0  0  0
 14 35  1  0  0  0  0
 15 16  1  0  0  0  0
 15 36  1  0  0  0  0
 15 37  1  0  0  0  0
 16 17  1  0  0  0  0
 16 38  1  0  0  0  0
 16 39  1  0  0  0  0
 17 18  1  0  0  0  0
 17 40  1  0  0  0  0
 17 41  1  0  0  0  0
 18 42  1  0  0  0  0
 18 43  1  0  0  0  0
 19 20  1  0  0  0  0
M  END
> <s_m_source_file>
AV-unprocessed.smi

> <i_m_source_file_index>
2651

> <i_lp_mmshare_version>
43012

> <i_f3d_flags>
0

> <s_epik_input>
W0NIM11jMVtjSF1jKG5vMSlbTkhdQyg9TylbTkhdW0NAQF0oW0NIM10pKFtDSDJdW09IXSlbQ0hdMltDSDJdW0NIMl1bQ0gyXVtDSDJdW0NIMl0y

> <s_epik_cmdline>
J2VwaWtfcHl0aG9uJywgJy1waCcsICc3LjAnLCAnLXRuJywgJzgnLCAnLW1hJywgJzIwMCcsICctbWV0YWxfYmluZGluZycsICctaW1hZScsICc8aW5maWxlLm1hZT4nLCAnLW9tYWUnLCAnPG91dGZpbGUubWFlPic=

> <r_lp_tautomer_probability>
1

> <r_epik_Ionization_Penalty>
2.26451e-05

> <r_epik_Ionization_Penalty_Charging>
0

> <r_epik_Ionization_Penalty_Neutral>
2.26451e-05

> <r_epik_State_Penalty>
-0

> <r_epik_Charging_Adjusted_Penalty>
0

> <i_epik_Tot_Q>
0

> <i_epik_Tot_abs_Q>
0

> <r_epik_Metal_State_Penalty>
-0

> <b_epik_Metal_Only>
0

> <s_lp_Force_Field>
OPLS_2005

> <r_lp_Energy>
19.0521

> <b_lp_Chiralities_Consistent>
1

> <s_lp_Variant>
AV-unprocessed.smi:2651-2

> <Gold.Version>
5.8.1

> <Gold.Id.Protein>
6NUR|6NUR_protein|mol2

> <Gold.PLP.Fitness>
38.7750

> <Gold.PLP.PLP>
-30.3669

> <Gold.PLP.part.hbond>
-3.0000

> <Gold.PLP.part.metal>
0.0000

> <Gold.PLP.part.buried>
-2.4556

> <Gold.PLP.part.nonpolar>
-25.1523

> <Gold.PLP.part.repulsive>
0.1166

> <Gold.PLP.ligand.clash>
0.0000

> <Gold.PLP.ligand.torsion>
0.3456

> <Gold.PLP.Chemscore.Hbond>
2.9920

> <Gold.PLP.Chemscore.CHOScore>
0.0000

> <Gold.PLP.Chemscore.Metal>
0.0000

> <Gold.Chemscore.Hbonds>
donor molecule, donor type, donor heavy atom, donor atom, acceptor molecule, acceptor atom, score
      L1  H     5    25       P1  7948  1.00
      L1  H     8    26       P1  7948  0.82
      L1  H    12    32       P1 10957  0.98

> <Gold.PLP.Chemscore.Internal.Correction>
0.1234

> <Gold.Rescore>
     Score         DG    S(hbond)    S(metal)    S(lipo)     H(rot)  DE(clash)    DE(int)     intcor
     16.14     -18.80       2.89        0.00      77.17       2.09       0.01       2.65       ----

> <Gold.Chemscore.Fitness>
16.1383

> <Gold.Chemscore.DG>
-18.7996

> <Gold.Chemscore.ZeroCoef>
-5.4800

> <Gold.Chemscore.Hbond>
2.8893

> <Gold.Chemscore.Metal>
0.0000

> <Gold.Chemscore.Lipo>
77.1694

> <Gold.Chemscore.Internal_Hbond>
0.0000

> <Gold.Chemscore.DEClash>
0.0111

> <Gold.Chemscore.DEInternal>
2.6502

> <Gold.Chemscore.Rot>
2.0935

> <Gold.Chemscore.Internal.Correction>
   9.000000E+99

> <Gold.Chemscore.Hbonds>
donor molecule, donor type, donor heavy atom, donor atom, acceptor molecule, acceptor atom, score
      L1  H     5    25       P1  7948  1.00
      L1  H     8    26       P1  7948  0.78
      L1  H    12    32       P1 10957  0.92

> <Gold.Chemscore.Hbond.Weighted>
-9.6502

> <Gold.Chemscore.Metal.Weighted>
-0.0000

> <Gold.Chemscore.Lipo.Weighted>
-9.0288

> <Gold.Chemscore.Internal_Hbond.Weighted>
0.0000

> <Gold.Chemscore.DEClash.Weighted>
0.0111

> <Gold.Chemscore.DEInternal.Weighted>
2.6502

> <Gold.Chemscore.Rot.Weighted>
5.3594

> <Gold.Chemscore.Internal.Correction.Weighted>
   9.000000E+99

> <Gold.Protein.RotatedTorsions>
[ 6907 6896 6895 6894 ] final    1.02 input  -60.11 | X-H torsion
[ 7974 7965 7964 7962 ] final   75.49 input  175.53 | X-H torsion
[ 8008 7997 7996 7995 ] final  -73.29 input   59.86 | X-H torsion
[ 10167 10162 10161 10158 ] final -104.93 input  -65.29 | X-H torsion
[ 10718 10713 10712 10709 ] final  123.71 input   66.30 | X-H torsion
[ 10763 10752 10751 10750 ] final  -75.03 input  -60.55 | X-H torsion
[ 11005 11000 10999 10996 ] final  114.18 input  -57.11 | X-H torsion

> <Gold.Protein.ActiveResidues>
 VAL166  LYS551  ARG553  GLY616  TRP617  ASP618  TYR619  PRO620  LYS621  CYS622 
 ASP623  PHE694  ASN695  SER759  ASP760  ASP761  ALA762  ILE779  LEU786  VAL792 
 PHE793  MET794  SER795  GLU796  ALA797  LYS798  CYS799  TRP800  GLU811  SER814 

> <Gold.Protein.RotatedAtoms>
  151.5859  135.1056  160.0027 H   0  0  0  0  0  0  0  0  0  0  0  0  # atno 6907 bound_to 6896
  152.4330  133.7307  159.6596 H   0  0  0  0  0  0  0  0  0  0  0  0  # atno 6908 bound_to 6896
  150.8225  133.8158  159.3156 H   0  0  0  0  0  0  0  0  0  0  0  0  # atno 6909 bound_to 6896
  145.7149  139.2628  143.1629 H   0  0  0  0  0  0  0  0  0  0  0  0  # atno 7974 bound_to 7965
  154.5235  140.0782  156.8215 H   0  0  0  0  0  0  0  0  0  0  0  0  # atno 8008 bound_to 7997
  155.3526  140.3413  155.4221 H   0  0  0  0  0  0  0  0  0  0  0  0  # atno 8009 bound_to 7997
  156.1706  140.1618  156.8440 H   0  0  0  0  0  0  0  0  0  0  0  0  # atno 8010 bound_to 7997
  140.2040  143.3796  152.1106 H   0  0  0  0  0  0  0  0  0  0  0  0  # atno 10167 bound_to 10162
  157.5643  131.1087  150.8482 H   0  0  0  0  0  0  0  0  0  0  0  0  # atno 10718 bound_to 10713
  154.4811  135.5844  153.6390 H   0  0  0  0  0  0  0  0  0  0  0  0  # atno 10763 bound_to 10752
  152.9848  135.6090  154.3245 H   0  0  0  0  0  0  0  0  0  0  0  0  # atno 10764 bound_to 10752
  154.3136  135.2844  155.2533 H   0  0  0  0  0  0  0  0  0  0  0  0  # atno 10765 bound_to 10752
  139.8973  134.9563  156.6852 H   0  0  0  0  0  0  0  0  0  0  0  0  # atno 11005 bound_to 11000
  146.0678  140.7901  142.9703 LP  0  0  0  0  0  0  0  0  0  0  0  0  # atno 17320 bound_to 7965
  144.6932  140.3296  143.7218 LP  0  0  0  0  0  0  0  0  0  0  0  0  # atno 17321 bound_to 7965
  139.5206  144.7035  151.5425 LP  0  0  0  0  0  0  0  0  0  0  0  0  # atno 17342 bound_to 10162
  140.6370  143.8964  150.6656 LP  0  0  0  0  0  0  0  0  0  0  0  0  # atno 17343 bound_to 10162
  156.8971  130.5233  149.5284 LP  0  0  0  0  0  0  0  0  0  0  0  0  # atno 17370 bound_to 10713
  156.0693  130.5729  150.9351 LP  0  0  0  0  0  0  0  0  0  0  0  0  # atno 17371 bound_to 10713
  140.7268  133.9093  155.8184 LP  0  0  0  0  0  0  0  0  0  0  0  0  # atno 17394 bound_to 11000
  141.0185  134.0922  157.4146 LP  0  0  0  0  0  0  0  0  0  0  0  0  # atno 17395 bound_to 11000

$$$$
