AV-unprocessed.smi:2278|AV-procd|sdf|9182|dock10
  -GOLD-   2272012403D 1   1.00000     0.00000
 Structure written by MMmdl.
 46 47  0  0  0  0  0  0  0  0  2 V2000
  152.2697  140.0290  156.1867 C   0  0  0  0  0  0  0  0  0  0  0  0
  150.8553  139.9752  155.6372 C   0  0  0  0  0  0  0  0  0  0  0  0
  150.6442  140.6709  154.4430 N   0  0  0  0  0  0  0  0  0  0  0  0
  149.4706  140.6814  153.9010 C   0  0  0  0  0  0  0  0  0  0  0  0
  148.3843  140.0074  154.4825 N   0  0  0  0  0  0  0  0  0  0  0  0
  147.0965  140.1078  153.7758 C   0  0  0  0  0  0  0  0  0  0  0  0
  146.8437  138.8930  152.8541 C   0  0  1  0  0  0  0  0  0  0  0  0
  148.0712  138.5247  152.2560 O   0  0  0  0  0  0  0  0  0  0  0  0
  146.3353  137.6725  153.6483 C   0  0  0  0  0  0  0  0  0  0  0  0
  146.1281  136.4818  152.7846 N   0  3  2  0  0  0  0  0  0  0  0  0
  145.0395  136.6615  151.7875 C   0  0  0  0  0  0  0  0  0  0  0  0
  144.9624  135.4602  150.8285 C   0  0  0  0  0  0  0  0  0  0  0  0
  144.7925  134.1262  151.5782 C   0  0  2  0  0  0  0  0  0  0  0  0
  143.3746  133.9391  152.1459 C   0  0  0  0  0  0  0  0  0  0  0  0
  145.8865  134.0012  152.6543 C   0  0  0  0  0  0  0  0  0  0  0  0
  145.9468  135.2358  153.5719 C   0  0  0  0  0  0  0  0  0  0  0  0
  148.5022  139.3080  155.6483 C   0  0  0  0  0  0  0  0  0  0  0  0
  147.5370  138.7325  156.1554 O   0  0  0  0  0  0  0  0  0  0  0  0
  149.8444  139.3021  156.2515 C   0  0  0  0  0  0  0  0  0  0  0  0
  150.0136  138.5289  157.5533 C   0  0  0  0  0  0  0  0  0  0  0  0
  152.6869  139.0251  156.2693 H   0  0  0  0  0  0  0  0  0  0  0  0
  152.2783  140.4932  157.1734 H   0  0  0  0  0  0  0  0  0  0  0  0
  152.9262  140.6108  155.5382 H   0  0  0  0  0  0  0  0  0  0  0  0
  149.2535  141.2116  152.9722 H   0  0  0  0  0  0  0  0  0  0  0  0
  146.2568  140.2568  154.4584 H   0  0  0  0  0  0  0  0  0  0  0  0
  147.1146  141.0215  153.1788 H   0  0  0  0  0  0  0  0  0  0  0  0
  146.1334  139.1552  152.0711 H   0  0  0  0  0  0  0  0  0  0  0  0
  148.0885  137.5849  152.1541 H   0  0  0  0  0  0  0  0  0  0  0  0
  147.0565  137.4456  154.4354 H   0  0  0  0  0  0  0  0  0  0  0  0
  145.3987  137.9064  154.1570 H   0  0  0  0  0  0  0  0  0  0  0  0
  144.0881  136.7989  152.3032 H   0  0  0  0  0  0  0  0  0  0  0  0
  145.2055  137.5651  151.2022 H   0  0  0  0  0  0  0  0  0  0  0  0
  144.1481  135.6003  150.1169 H   0  0  0  0  0  0  0  0  0  0  0  0
  145.8778  135.4230  150.2360 H   0  0  0  0  0  0  0  0  0  0  0  0
  144.9451  133.3215  150.8577 H   0  0  0  0  0  0  0  0  0  0  0  0
  143.1212  134.7010  152.8827 H   0  0  0  0  0  0  0  0  0  0  0  0
  143.2735  132.9673  152.6298 H   0  0  0  0  0  0  0  0  0  0  0  0
  142.6279  133.9870  151.3529 H   0  0  0  0  0  0  0  0  0  0  0  0
  145.7316  133.0998  153.2483 H   0  0  0  0  0  0  0  0  0  0  0  0
  146.8541  133.8774  152.1659 H   0  0  0  0  0  0  0  0  0  0  0  0
  146.7797  135.1175  154.2664 H   0  0  0  0  0  0  0  0  0  0  0  0
  145.0422  135.3109  154.1769 H   0  0  0  0  0  0  0  0  0  0  0  0
  149.3506  138.9327  158.3190 H   0  0  0  0  0  0  0  0  0  0  0  0
  151.0281  138.5659  157.9465 H   0  0  0  0  0  0  0  0  0  0  0  0
  149.7579  137.4795  157.4033 H   0  0  0  0  0  0  0  0  0  0  0  0
  146.9873  136.3620  152.2669 H   0  0  0  0  0  0  0  0  0  0  0  0
  1  2  1  0  0  0  0
  1 21  1  0  0  0  0
  1 22  1  0  0  0  0
  1 23  1  0  0  0  0
  2 19  2  0  0  0  0
  2  3  1  0  0  0  0
  3  4  2  0  0  0  0
  4  5  1  0  0  0  0
  4 24  1  0  0  0  0
  5  6  1  0  0  0  0
  5 17  1  0  0  0  0
  6  7  1  0  0  0  0
  6 25  1  0  0  0  0
  6 26  1  0  0  0  0
  7  8  1  0  0  0  0
  7  9  1  0  0  0  0
  7 27  1  0  0  0  0
  8 28  1  0  0  0  0
  9 10  1  0  0  0  0
  9 29  1  0  0  0  0
  9 30  1  0  0  0  0
 10 16  1  0  0  0  0
 10 11  1  0  0  0  0
 10 46  1  0  0  0  0
 11 12  1  0  0  0  0
 11 31  1  0  0  0  0
 11 32  1  0  0  0  0
 12 13  1  0  0  0  0
 12 33  1  0  0  0  0
 12 34  1  0  0  0  0
 13 14  1  0  0  0  0
 13 15  1  0  0  0  0
 13 35  1  0  0  0  0
 14 36  1  0  0  0  0
 14 37  1  0  0  0  0
 14 38  1  0  0  0  0
 15 16  1  0  0  0  0
 15 39  1  0  0  0  0
 15 40  1  0  0  0  0
 16 41  1  0  0  0  0
 16 42  1  0  0  0  0
 17 18  2  0  0  0  0
 17 19  1  0  0  0  0
 19 20  1  0  0  0  0
 20 43  1  0  0  0  0
 20 44  1  0  0  0  0
 20 45  1  0  0  0  0
M  CHG  1  10   1
M  END
> <s_m_source_file>
AV-unprocessed.smi

> <i_m_source_file_index>
2278

> <i_lp_mmshare_version>
43012

> <i_f3d_flags>
0

> <s_epik_input>
W0NIM11jMW5bY0hdbihjKD1PKWMxW0NIM10pW0NIMl1bQ0BIXShbT0hdKVtDSDJdTjJbQ0gyXVtDSDJdW0NIXShbQ0gzXSlbQ0gyXVtDSDJdMg==

> <s_epik_cmdline>
J2VwaWtfcHl0aG9uJywgJy1waCcsICc3LjAnLCAnLXRuJywgJzgnLCAnLW1hJywgJzIwMCcsICctbWV0YWxfYmluZGluZycsICctaW1hZScsICc8aW5maWxlLm1hZT4nLCAnLW9tYWUnLCAnPG91dGZpbGUubWFlPic=

> <r_lp_tautomer_probability>
1

> <r_epik_Ionization_Penalty>
0.00139489

> <r_epik_Ionization_Penalty_Charging>
0.00136819

> <r_epik_Ionization_Penalty_Neutral>
2.66975e-05

> <r_epik_State_Penalty>
0.000910892

> <r_epik_Charging_Adjusted_Penalty>
0.00227908

> <i_epik_Tot_Q>
1

> <i_epik_Tot_abs_Q>
1

> <r_epik_Metal_State_Penalty>
-0

> <b_epik_Metal_Only>
0

> <s_lp_Force_Field>
OPLS_2005

> <r_lp_Energy>
31.1112

> <b_lp_Chiralities_Consistent>
1

> <s_lp_Variant>
AV-unprocessed.smi:2278-4

> <Gold.Version>
5.8.1

> <Gold.Id.Protein>
6NUR|6NUR_protein|mol2

> <Gold.PLP.Fitness>
40.4832

> <Gold.PLP.PLP>
-28.2088

> <Gold.PLP.part.hbond>
-3.5491

> <Gold.PLP.part.metal>
0.0000

> <Gold.PLP.part.buried>
-2.2952

> <Gold.PLP.part.nonpolar>
-22.0912

> <Gold.PLP.part.repulsive>
0.1209

> <Gold.PLP.ligand.clash>
0.0000

> <Gold.PLP.ligand.torsion>
0.5975

> <Gold.PLP.Chemscore.Hbond>
3.6720

> <Gold.PLP.Chemscore.CHOScore>
0.8104

> <Gold.PLP.Chemscore.Metal>
0.0000

> <Gold.Chemscore.Hbonds>
donor molecule, donor type, donor heavy atom, donor atom, acceptor molecule, acceptor atom, score
      L1  H     8    28       P1  7948  0.94
      L1  H    10    46       P1  7948  2.00
      P1  H  7989  7998       L1     3  0.57
      L1  C     4    24       P1  7957  0.71

> <Gold.PLP.Chemscore.Internal.Correction>
0.0223

> <Gold.Rescore>
     Score         DG    S(hbond)    S(metal)    S(lipo)     H(rot)  DE(clash)    DE(int)     intcor
     12.12     -14.22       2.10        0.00      62.77       2.20       0.26       1.84       ----

> <Gold.Chemscore.Fitness>
12.1160

> <Gold.Chemscore.DG>
-14.2163

> <Gold.Chemscore.ZeroCoef>
-5.4800

> <Gold.Chemscore.Hbond>
2.1019

> <Gold.Chemscore.Metal>
0.0000

> <Gold.Chemscore.Lipo>
62.7745

> <Gold.Chemscore.Internal_Hbond>
0.0000

> <Gold.Chemscore.DEClash>
0.2619

> <Gold.Chemscore.DEInternal>
1.8384

> <Gold.Chemscore.Rot>
2.1986

> <Gold.Chemscore.Internal.Correction>
   9.000000E+99

> <Gold.Chemscore.Hbonds>
donor molecule, donor type, donor heavy atom, donor atom, acceptor molecule, acceptor atom, score
      L1  H     8    28       P1  7948  0.90
      L1  H    10    46       P1  7948  0.97
      P1  H  7989  7998       L1     3  0.42

> <Gold.Chemscore.Hbond.Weighted>
-7.0202

> <Gold.Chemscore.Metal.Weighted>
-0.0000

> <Gold.Chemscore.Lipo.Weighted>
-7.3446

> <Gold.Chemscore.Internal_Hbond.Weighted>
0.0000

> <Gold.Chemscore.DEClash.Weighted>
0.2619

> <Gold.Chemscore.DEInternal.Weighted>
1.8384

> <Gold.Chemscore.Rot.Weighted>
5.6285

> <Gold.Chemscore.Internal.Correction.Weighted>
   9.000000E+99

> <Gold.Protein.RotatedTorsions>
[ 6907 6896 6895 6894 ] final   58.46 input  -60.11 | X-H torsion
[ 7974 7965 7964 7962 ] final   91.43 input  175.53 | X-H torsion
[ 8008 7997 7996 7995 ] final  164.88 input   59.86 | X-H torsion
[ 10167 10162 10161 10158 ] final -176.44 input  -65.29 | X-H torsion
[ 10718 10713 10712 10709 ] final  -33.61 input   66.30 | X-H torsion
[ 10763 10752 10751 10750 ] final  -94.39 input  -60.55 | X-H torsion
[ 11005 11000 10999 10996 ] final -153.91 input  -57.11 | X-H torsion

> <Gold.Protein.ActiveResidues>
 VAL166  LYS551  ARG553  GLY616  TRP617  ASP618  TYR619  PRO620  LYS621  CYS622 
 ASP623  PHE694  ASN695  SER759  ASP760  ASP761  ALA762  ILE779  LEU786  VAL792 
 PHE793  MET794  SER795  GLU796  ALA797  LYS798  CYS799  TRP800  GLU811  SER814 

> <Gold.Protein.RotatedAtoms>
  152.3826  134.6566  160.0136 H   0  0  0  0  0  0  0  0  0  0  0  0  # atno 6907 bound_to 6896
  151.6825  133.3306  159.3231 H   0  0  0  0  0  0  0  0  0  0  0  0  # atno 6908 bound_to 6896
  150.7760  134.6705  159.6433 H   0  0  0  0  0  0  0  0  0  0  0  0  # atno 6909 bound_to 6896
  145.5058  139.2276  143.2752 H   0  0  0  0  0  0  0  0  0  0  0  0  # atno 7974 bound_to 7965
  156.1845  140.1685  156.8211 H   0  0  0  0  0  0  0  0  0  0  0  0  # atno 8008 bound_to 7997
  154.5398  140.0739  156.8523 H   0  0  0  0  0  0  0  0  0  0  0  0  # atno 8009 bound_to 7997
  155.3237  140.3375  155.4243 H   0  0  0  0  0  0  0  0  0  0  0  0  # atno 8010 bound_to 7997
  139.5529  144.2062  152.1109 H   0  0  0  0  0  0  0  0  0  0  0  0  # atno 10167 bound_to 10162
  156.3606  130.4323  149.7627 H   0  0  0  0  0  0  0  0  0  0  0  0  # atno 10718 bound_to 10713
  154.7050  135.5159  153.8582 H   0  0  0  0  0  0  0  0  0  0  0  0  # atno 10763 bound_to 10752
  153.0734  135.6608  154.0207 H   0  0  0  0  0  0  0  0  0  0  0  0  # atno 10764 bound_to 10752
  154.0059  135.3006  155.3377 H   0  0  0  0  0  0  0  0  0  0  0  0  # atno 10765 bound_to 10752
  140.7031  134.3916  157.5207 H   0  0  0  0  0  0  0  0  0  0  0  0  # atno 11005 bound_to 11000
  146.2198  140.5861  142.9022 LP  0  0  0  0  0  0  0  0  0  0  0  0  # atno 17320 bound_to 7965
  144.7755  140.5729  143.6641 LP  0  0  0  0  0  0  0  0  0  0  0  0  # atno 17321 bound_to 7965
  140.1561  144.5069  150.6659 LP  0  0  0  0  0  0  0  0  0  0  0  0  # atno 17342 bound_to 10162
  140.6796  143.2320  151.5418 LP  0  0  0  0  0  0  0  0  0  0  0  0  # atno 17343 bound_to 10162
  156.4792  130.8033  151.3048 LP  0  0  0  0  0  0  0  0  0  0  0  0  # atno 17370 bound_to 10713
  157.7473  131.0011  150.2950 LP  0  0  0  0  0  0  0  0  0  0  0  0  # atno 17371 bound_to 10713
  139.8891  134.8838  156.2437 LP  0  0  0  0  0  0  0  0  0  0  0  0  # atno 17394 bound_to 11000
  141.0147  133.7075  156.1169 LP  0  0  0  0  0  0  0  0  0  0  0  0  # atno 17395 bound_to 11000

$$$$
