AV-unprocessed.smi:142|AV-procd|sdf|1189|dock2
  -GOLD-   2262018343D 1   1.00000     0.00000
 Structure written by MMmdl.
 52 55  0  0  0  0  0  0  0  0  1 V2000
  151.2026  139.3907  154.6810 C   0  0  0  0  0  0  0  0  0  0  0  0
  151.8698  139.1758  156.0462 C   0  0  2  0  0  0  0  0  0  0  0  0
  151.3012  137.9867  156.6782 N   0  0  0  0  0  0  0  0  0  0  0  0
  151.1387  136.7963  156.0811 C   0  0  0  0  0  0  0  0  0  0  0  0
  151.4368  136.5874  154.9041 O   0  0  0  0  0  0  0  0  0  0  0  0
  150.5453  135.6826  156.9573 C   0  0  0  0  0  0  0  0  0  0  0  0
  150.1163  134.4983  156.1820 N   0  0  0  0  0  0  0  0  0  0  0  0
  150.7886  133.2699  156.3978 C   0  0  0  0  0  0  0  0  0  0  0  0
  151.6993  133.1771  157.2227 O   0  0  0  0  0  0  0  0  0  0  0  0
  150.3351  132.1511  155.5793 C   0  0  0  0  0  0  0  0  0  0  0  0
  150.9124  130.9461  155.7215 F   0  0  0  0  0  0  0  0  0  0  0  0
  149.3440  132.3063  154.6773 C   0  0  0  0  0  0  0  0  0  0  0  0
  148.7004  133.5138  154.4726 N   0  0  0  0  0  0  0  0  0  0  0  0
  147.6031  133.6762  153.4424 C   0  0  2  0  0  0  0  0  0  0  0  0
  146.2913  133.0455  153.9439 C   0  0  0  0  0  0  0  0  0  0  0  0
  145.8712  132.1789  152.7739 C   0  0  0  0  0  0  0  0  0  0  0  0
  147.2142  131.8012  152.1673 C   0  0  0  0  0  0  0  0  0  0  0  0
  147.9554  133.0104  152.2628 O   0  0  0  0  0  0  0  0  0  0  0  0
  149.0817  134.6441  155.2276 C   0  0  0  0  0  0  0  0  0  0  0  0
  148.5264  135.7312  155.0530 O   0  0  0  0  0  0  0  0  0  0  0  0
  151.7612  140.4302  156.9093 C   0  0  0  0  0  0  0  0  0  0  0  0
  151.0156  141.5319  156.4380 C   0  0  0  0  0  0  0  0  0  0  0  0
  150.8912  142.6976  157.2182 C   0  0  0  0  0  0  0  0  0  0  0  0
  151.5103  142.7717  158.4820 C   0  0  0  0  0  0  0  0  0  0  0  0
  151.3885  143.9357  159.2693 C   0  0  0  0  0  0  0  0  0  0  0  0
  152.0108  144.0020  160.5312 C   0  0  0  0  0  0  0  0  0  0  0  0
  152.7560  142.9069  161.0093 C   0  0  0  0  0  0  0  0  0  0  0  0
  152.8793  141.7414  160.2282 C   0  0  0  0  0  0  0  0  0  0  0  0
  152.2580  141.6692  158.9643 C   0  0  0  0  0  0  0  0  0  0  0  0
  152.3771  140.5040  158.1800 C   0  0  0  0  0  0  0  0  0  0  0  0
  151.6573  140.2279  154.1505 H   0  0  0  0  0  0  0  0  0  0  0  0
  150.1385  139.6043  154.7883 H   0  0  0  0  0  0  0  0  0  0  0  0
  151.3039  138.5081  154.0486 H   0  0  0  0  0  0  0  0  0  0  0  0
  152.9293  138.9825  155.8673 H   0  0  0  0  0  0  0  0  0  0  0  0
  151.0276  138.0722  157.6463 H   0  0  0  0  0  0  0  0  0  0  0  0
  151.2780  135.3992  157.7150 H   0  0  0  0  0  0  0  0  0  0  0  0
  149.7199  136.1035  157.5331 H   0  0  0  0  0  0  0  0  0  0  0  0
  149.0592  131.4399  154.1005 H   0  0  0  0  0  0  0  0  0  0  0  0
  147.5369  134.7474  153.2426 H   0  0  0  0  0  0  0  0  0  0  0  0
  146.4819  132.4290  154.8238 H   0  0  0  0  0  0  0  0  0  0  0  0
  145.5595  133.8124  154.1987 H   0  0  0  0  0  0  0  0  0  0  0  0
  145.2786  131.3140  153.0727 H   0  0  0  0  0  0  0  0  0  0  0  0
  145.2897  132.7652  152.0612 H   0  0  0  0  0  0  0  0  0  0  0  0
  147.6966  131.0166  152.7518 H   0  0  0  0  0  0  0  0  0  0  0  0
  147.1324  131.4615  151.1347 H   0  0  0  0  0  0  0  0  0  0  0  0
  150.5351  141.4861  155.4717 H   0  0  0  0  0  0  0  0  0  0  0  0
  150.3181  143.5324  156.8419 H   0  0  0  0  0  0  0  0  0  0  0  0
  150.8187  144.7805  158.9103 H   0  0  0  0  0  0  0  0  0  0  0  0
  151.9171  144.8943  161.1325 H   0  0  0  0  0  0  0  0  0  0  0  0
  153.2336  142.9602  161.9764 H   0  0  0  0  0  0  0  0  0  0  0  0
  153.4527  140.9058  160.6027 H   0  0  0  0  0  0  0  0  0  0  0  0
  152.9431  139.6655  158.5593 H   0  0  0  0  0  0  0  0  0  0  0  0
  1  2  1  0  0  0  0
  1 31  1  0  0  0  0
  1 32  1  0  0  0  0
  1 33  1  0  0  0  0
  2  3  1  0  0  0  0
  2 21  1  0  0  0  0
  2 34  1  0  0  0  0
  3  4  1  0  0  0  0
  3 35  1  0  0  0  0
  4  5  2  0  0  0  0
  4  6  1  0  0  0  0
  6  7  1  0  0  0  0
  6 36  1  0  0  0  0
  6 37  1  0  0  0  0
  7 19  1  0  0  0  0
  7  8  1  0  0  0  0
  8  9  2  0  0  0  0
  8 10  1  0  0  0  0
 10 11  1  0  0  0  0
 10 12  2  0  0  0  0
 12 13  1  0  0  0  0
 12 38  1  0  0  0  0
 13 14  1  0  0  0  0
 13 19  1  0  0  0  0
 14 18  1  0  0  0  0
 14 15  1  0  0  0  0
 14 39  1  0  0  0  0
 15 16  1  0  0  0  0
 15 40  1  0  0  0  0
 15 41  1  0  0  0  0
 16 17  1  0  0  0  0
 16 42  1  0  0  0  0
 16 43  1  0  0  0  0
 17 18  1  0  0  0  0
 17 44  1  0  0  0  0
 17 45  1  0  0  0  0
 19 20  2  0  0  0  0
 21 30  1  0  0  0  0
 21 22  2  0  0  0  0
 22 23  1  0  0  0  0
 22 46  1  0  0  0  0
 23 24  2  0  0  0  0
 23 47  1  0  0  0  0
 24 29  1  0  0  0  0
 24 25  1  0  0  0  0
 25 26  2  0  0  0  0
 25 48  1  0  0  0  0
 26 27  1  0  0  0  0
 26 49  1  0  0  0  0
 27 28  2  0  0  0  0
 27 50  1  0  0  0  0
 28 29  1  0  0  0  0
 28 51  1  0  0  0  0
 29 30  2  0  0  0  0
 30 52  1  0  0  0  0
M  END
> <s_m_source_file>
AV-unprocessed.smi

> <i_m_source_file_index>
142

> <i_lp_mmshare_version>
43012

> <i_f3d_flags>
0

> <s_epik_input>
W2NIXTFbY0hdW2NIXVtjSF1jKGMxMilbY0hdYyhbY0hdW2NIXTIpW0NASF0oW0NIM10pW05IXUMoPU8pW0NIMl1uM2MoPU8pYyhGKVtjSF1uKGMzPU8pW0NAQEhdNFtDSDJdW0NIMl1bQ0gyXU80

> <s_epik_cmdline>
J2VwaWtfcHl0aG9uJywgJy1waCcsICc3LjAnLCAnLXRuJywgJzgnLCAnLW1hJywgJzIwMCcsICctbWV0YWxfYmluZGluZycsICctaW1hZScsICc8aW5maWxlLm1hZT4nLCAnLW9tYWUnLCAnPG91dGZpbGUubWFlPic=

> <r_lp_tautomer_probability>
1

> <r_epik_Ionization_Penalty>
3.35688e-08

> <r_epik_Ionization_Penalty_Charging>
3.59856e-09

> <r_epik_Ionization_Penalty_Neutral>
2.99702e-08

> <r_epik_State_Penalty>
-0

> <r_epik_Charging_Adjusted_Penalty>
3.59856e-09

> <i_epik_Tot_Q>
0

> <i_epik_Tot_abs_Q>
0

> <r_epik_Metal_State_Penalty>
-0

> <b_epik_Metal_Only>
0

> <s_epik_Chemistry_Notes>
This compound contains an acetal/aminal-like group ( X-CH(R)-Y where X, Y are N, S, or O) that may be acid/base labile, releasing an aldehyde.

> <s_lp_Force_Field>
OPLS_2005

> <r_lp_Energy>
31.3548

> <b_lp_Chiralities_Consistent>
1

> <s_lp_Variant>
AV-unprocessed.smi:142-1

> <Gold.Version>
5.8.1

> <Gold.Id.Protein>
6NUR|6NUR_protein|mol2

> <Gold.PLP.Fitness>
55.8510

> <Gold.PLP.PLP>
-52.1252

> <Gold.PLP.part.hbond>
-2.0000

> <Gold.PLP.part.metal>
0.0000

> <Gold.PLP.part.buried>
-2.6262

> <Gold.PLP.part.nonpolar>
-48.5068

> <Gold.PLP.part.repulsive>
0.5161

> <Gold.PLP.ligand.clash>
0.0000

> <Gold.PLP.ligand.torsion>
0.6860

> <Gold.PLP.Chemscore.Hbond>
1.6820

> <Gold.PLP.Chemscore.CHOScore>
0.0000

> <Gold.PLP.Chemscore.Metal>
0.0000

> <Gold.Chemscore.Hbonds>
donor molecule, donor type, donor heavy atom, donor atom, acceptor molecule, acceptor atom, score
      P1  H  6896  6907       L1     9  0.66
      P1  H 10752 10765       L1     5  1.00

> <Gold.PLP.Chemscore.Internal.Correction>
0.0520

> <Gold.Rescore>
     Score         DG    S(hbond)    S(metal)    S(lipo)     H(rot)  DE(clash)    DE(int)     intcor
     18.78     -21.83       1.76        0.00     133.79       2.02       0.10       2.96       ----

> <Gold.Chemscore.Fitness>
18.7768

> <Gold.Chemscore.DG>
-21.8327

> <Gold.Chemscore.ZeroCoef>
-5.4800

> <Gold.Chemscore.Hbond>
1.7557

> <Gold.Chemscore.Metal>
0.0000

> <Gold.Chemscore.Lipo>
133.7909

> <Gold.Chemscore.Internal_Hbond>
0.0000

> <Gold.Chemscore.DEClash>
0.0970

> <Gold.Chemscore.DEInternal>
2.9589

> <Gold.Chemscore.Rot>
2.0175

> <Gold.Chemscore.Internal.Correction>
   9.000000E+99

> <Gold.Chemscore.Hbonds>
donor molecule, donor type, donor heavy atom, donor atom, acceptor molecule, acceptor atom, score
      P1  H  6896  6907       L1     9  0.60
      P1  H 10752 10765       L1     5  0.93

> <Gold.Chemscore.Hbond.Weighted>
-5.8640

> <Gold.Chemscore.Metal.Weighted>
-0.0000

> <Gold.Chemscore.Lipo.Weighted>
-15.6535

> <Gold.Chemscore.Internal_Hbond.Weighted>
0.0000

> <Gold.Chemscore.DEClash.Weighted>
0.0970

> <Gold.Chemscore.DEInternal.Weighted>
2.9589

> <Gold.Chemscore.Rot.Weighted>
5.1648

> <Gold.Chemscore.Internal.Correction.Weighted>
   9.000000E+99

> <Gold.Protein.RotatedTorsions>
[ 6907 6896 6895 6894 ] final  177.49 input  -60.11 | X-H torsion
[ 7974 7965 7964 7962 ] final  159.71 input  175.53 | X-H torsion
[ 8008 7997 7996 7995 ] final   61.18 input   59.86 | X-H torsion
[ 10167 10162 10161 10158 ] final   44.84 input  -65.29 | X-H torsion
[ 10718 10713 10712 10709 ] final  -27.85 input   66.30 | X-H torsion
[ 10763 10752 10751 10750 ] final -177.77 input  -60.55 | X-H torsion
[ 11005 11000 10999 10996 ] final  -93.29 input  -57.11 | X-H torsion

> <Gold.Protein.ActiveResidues>
 VAL166  LYS551  ARG553  GLY616  TRP617  ASP618  TYR619  PRO620  LYS621  CYS622 
 ASP623  PHE694  ASN695  SER759  ASP760  ASP761  ALA762  ILE779  LEU786  VAL792 
 PHE793  MET794  SER795  GLU796  ALA797  LYS798  CYS799  TRP800  GLU811  SER814 

> <Gold.Protein.RotatedAtoms>
  151.7032  133.3311  159.3271 H   0  0  0  0  0  0  0  0  0  0  0  0  # atno 6907 bound_to 6896
  150.7726  134.6597  159.6342 H   0  0  0  0  0  0  0  0  0  0  0  0  # atno 6908 bound_to 6896
  152.3757  134.6670  160.0212 H   0  0  0  0  0  0  0  0  0  0  0  0  # atno 6909 bound_to 6896
  144.7776  139.7655  143.6272 H   0  0  0  0  0  0  0  0  0  0  0  0  # atno 7974 bound_to 7965
  155.5942  140.3493  155.4575 H   0  0  0  0  0  0  0  0  0  0  0  0  # atno 8008 bound_to 7997
  156.0278  140.1268  157.0315 H   0  0  0  0  0  0  0  0  0  0  0  0  # atno 8009 bound_to 7997
  154.4340  140.1049  156.6042 H   0  0  0  0  0  0  0  0  0  0  0  0  # atno 8010 bound_to 7997
  140.3302  144.2597  150.6169 H   0  0  0  0  0  0  0  0  0  0  0  0  # atno 10167 bound_to 10162
  156.4328  130.4448  149.7105 H   0  0  0  0  0  0  0  0  0  0  0  0  # atno 10718 bound_to 10713
  154.5560  135.2816  155.0964 H   0  0  0  0  0  0  0  0  0  0  0  0  # atno 10763 bound_to 10752
  154.2391  135.6360  153.5205 H   0  0  0  0  0  0  0  0  0  0  0  0  # atno 10764 bound_to 10752
  153.0016  135.5555  154.6140 H   0  0  0  0  0  0  0  0  0  0  0  0  # atno 10765 bound_to 10752
  141.1501  133.7878  157.0139 H   0  0  0  0  0  0  0  0  0  0  0  0  # atno 11005 bound_to 11000
  146.1965  139.5234  142.9771 LP  0  0  0  0  0  0  0  0  0  0  0  0  # atno 17320 bound_to 7965
  145.6142  141.0334  143.1950 LP  0  0  0  0  0  0  0  0  0  0  0  0  # atno 17321 bound_to 7965
  140.5404  143.2225  151.8094 LP  0  0  0  0  0  0  0  0  0  0  0  0  # atno 17342 bound_to 10162
  139.4858  144.4608  151.9543 LP  0  0  0  0  0  0  0  0  0  0  0  0  # atno 17343 bound_to 10162
  156.4001  130.7670  151.2678 LP  0  0  0  0  0  0  0  0  0  0  0  0  # atno 17370 bound_to 10713
  157.7508  131.0242  150.3867 LP  0  0  0  0  0  0  0  0  0  0  0  0  # atno 17371 bound_to 10713
  140.0859  134.9621  157.1699 LP  0  0  0  0  0  0  0  0  0  0  0  0  # atno 17394 bound_to 11000
  140.3512  134.2597  155.7198 LP  0  0  0  0  0  0  0  0  0  0  0  0  # atno 17395 bound_to 11000

$$$$
