AV-unprocessed.smi:2152|AV-procd|sdf|8764|dock5
  -GOLD-   2272011543D 1   1.00000     0.00000
 Structure written by MMmdl.
 41 42  0  0  0  0  0  0  0  0  1 V2000
  148.3298  140.3558  154.1727 C   0  0  0  0  0  0  0  0  0  0  0  0
  147.1119  141.1369  154.6955 C   0  0  2  0  0  0  0  0  0  0  0  0
  146.9015  142.4489  153.9114 C   0  0  0  0  0  0  0  0  0  0  0  0
  145.6474  143.1984  154.3896 C   0  0  0  0  0  0  0  0  0  0  0  0
  145.6995  143.4693  155.9004 C   0  0  0  0  0  0  0  0  0  0  0  0
  145.9094  142.1670  156.6929 C   0  0  0  0  0  0  0  0  0  0  0  0
  147.1584  141.3933  156.2246 C   0  0  2  0  0  0  0  0  0  0  0  0
  148.3664  142.1186  156.6235 N   0  0  0  0  0  0  0  0  0  0  0  0
  149.2986  141.6915  157.4890 C   0  0  0  0  0  0  0  0  0  0  0  0
  149.2569  140.5928  158.0445 O   0  0  0  0  0  0  0  0  0  0  0  0
  150.4683  142.6534  157.7372 C   0  0  0  0  0  0  0  0  0  0  0  0
  151.4825  142.1080  158.6485 N   0  0  0  0  0  0  0  0  0  0  0  0
  152.1515  140.9451  158.3123 C   0  0  0  0  0  0  0  0  0  0  0  0
  153.0848  140.3682  159.1005 C   0  0  0  0  0  0  0  0  0  0  0  0
  153.4501  140.9569  160.3834 C   0  0  0  0  0  0  0  0  0  0  0  0
  154.2843  140.4549  161.1373 O   0  0  0  0  0  0  0  0  0  0  0  0
  152.7588  142.1521  160.6975 N   0  0  0  0  0  0  0  0  0  0  0  0
  153.0354  142.8122  161.9565 C   0  0  0  0  0  0  0  0  0  0  0  0
  151.7750  142.7435  159.8743 C   0  0  0  0  0  0  0  0  0  0  0  0
  151.1825  143.7734  160.2064 O   0  0  0  0  0  0  0  0  0  0  0  0
  149.2491  140.9360  154.2559 H   0  0  0  0  0  0  0  0  0  0  0  0
  148.2027  140.0929  153.1224 H   0  0  0  0  0  0  0  0  0  0  0  0
  148.4688  139.4285  154.7291 H   0  0  0  0  0  0  0  0  0  0  0  0
  146.2394  140.5091  154.5076 H   0  0  0  0  0  0  0  0  0  0  0  0
  147.7756  143.0924  154.0196 H   0  0  0  0  0  0  0  0  0  0  0  0
  146.8100  142.2348  152.8460 H   0  0  0  0  0  0  0  0  0  0  0  0
  145.5471  144.1387  153.8467 H   0  0  0  0  0  0  0  0  0  0  0  0
  144.7591  142.6103  154.1553 H   0  0  0  0  0  0  0  0  0  0  0  0
  146.5059  144.1703  156.1189 H   0  0  0  0  0  0  0  0  0  0  0  0
  144.7771  143.9540  156.2217 H   0  0  0  0  0  0  0  0  0  0  0  0
  145.9787  142.3853  157.7594 H   0  0  0  0  0  0  0  0  0  0  0  0
  145.0304  141.5325  156.5720 H   0  0  0  0  0  0  0  0  0  0  0  0
  147.1410  140.4257  156.7297 H   0  0  0  0  0  0  0  0  0  0  0  0
  148.4952  143.0316  156.2123 H   0  0  0  0  0  0  0  0  0  0  0  0
  150.9224  142.8904  156.7742 H   0  0  0  0  0  0  0  0  0  0  0  0
  150.0894  143.6010  158.1248 H   0  0  0  0  0  0  0  0  0  0  0  0
  151.9131  140.4667  157.3734 H   0  0  0  0  0  0  0  0  0  0  0  0
  153.5660  139.4563  158.7786 H   0  0  0  0  0  0  0  0  0  0  0  0
  153.1714  143.8766  161.7560 H   0  0  0  0  0  0  0  0  0  0  0  0
  153.9477  142.4245  162.4093 H   0  0  0  0  0  0  0  0  0  0  0  0
  152.1749  142.6348  162.6035 H   0  0  0  0  0  0  0  0  0  0  0  0
  1  2  1  0  0  0  0
  1 21  1  0  0  0  0
  1 22  1  0  0  0  0
  1 23  1  0  0  0  0
  2  7  1  0  0  0  0
  2  3  1  0  0  0  0
  2 24  1  0  0  0  0
  3  4  1  0  0  0  0
  3 25  1  0  0  0  0
  3 26  1  0  0  0  0
  4  5  1  0  0  0  0
  4 27  1  0  0  0  0
  4 28  1  0  0  0  0
  5  6  1  0  0  0  0
  5 29  1  0  0  0  0
  5 30  1  0  0  0  0
  6  7  1  0  0  0  0
  6 31  1  0  0  0  0
  6 32  1  0  0  0  0
  7  8  1  0  0  0  0
  7 33  1  0  0  0  0
  8  9  1  0  0  0  0
  8 34  1  0  0  0  0
  9 10  2  0  0  0  0
  9 11  1  0  0  0  0
 11 12  1  0  0  0  0
 11 35  1  0  0  0  0
 11 36  1  0  0  0  0
 12 19  1  0  0  0  0
 12 13  1  0  0  0  0
 13 14  2  0  0  0  0
 13 37  1  0  0  0  0
 14 15  1  0  0  0  0
 14 38  1  0  0  0  0
 15 16  2  0  0  0  0
 15 17  1  0  0  0  0
 17 18  1  0  0  0  0
 17 19  1  0  0  0  0
 18 39  1  0  0  0  0
 18 40  1  0  0  0  0
 18 41  1  0  0  0  0
 19 20  2  0  0  0  0
M  END
> <s_m_source_file>
AV-unprocessed.smi

> <i_m_source_file_index>
2152

> <i_lp_mmshare_version>
43012

> <i_f3d_flags>
0

> <s_epik_input>
W0NIM11bQ0BASF0xW0NIMl1bQ0gyXVtDSDJdW0NIMl1bQ0BIXTFbTkhdQyg9TylbQ0gyXW4yW2NIXVtjSF1jKD1PKW4oW0NIM10pYzI9Tw==

> <s_epik_cmdline>
J2VwaWtfcHl0aG9uJywgJy1waCcsICc3LjAnLCAnLXRuJywgJzgnLCAnLW1hJywgJzIwMCcsICctbWV0YWxfYmluZGluZycsICctaW1hZScsICc8aW5maWxlLm1hZT4nLCAnLW9tYWUnLCAnPG91dGZpbGUubWFlPic=

> <r_lp_tautomer_probability>
1

> <r_epik_Ionization_Penalty>
3.20555e-08

> <r_epik_Ionization_Penalty_Charging>
1.30086e-08

> <r_epik_Ionization_Penalty_Neutral>
1.90469e-08

> <r_epik_State_Penalty>
-0

> <r_epik_Charging_Adjusted_Penalty>
1.30086e-08

> <i_epik_Tot_Q>
0

> <i_epik_Tot_abs_Q>
0

> <r_epik_Metal_State_Penalty>
-0

> <b_epik_Metal_Only>
0

> <s_lp_Force_Field>
OPLS_2005

> <r_lp_Energy>
17.3754

> <b_lp_Chiralities_Consistent>
1

> <s_lp_Variant>
AV-unprocessed.smi:2152-3

> <Gold.Version>
5.8.1

> <Gold.Id.Protein>
6NUR|6NUR_protein|mol2

> <Gold.PLP.Fitness>
40.9167

> <Gold.PLP.PLP>
-37.9372

> <Gold.PLP.part.hbond>
-1.2232

> <Gold.PLP.part.metal>
0.0000

> <Gold.PLP.part.buried>
-6.2256

> <Gold.PLP.part.nonpolar>
-30.0850

> <Gold.PLP.part.repulsive>
0.0923

> <Gold.PLP.ligand.clash>
0.0000

> <Gold.PLP.ligand.torsion>
0.0147

> <Gold.PLP.Chemscore.Hbond>
1.0000

> <Gold.PLP.Chemscore.CHOScore>
0.0000

> <Gold.PLP.Chemscore.Metal>
0.0000

> <Gold.Chemscore.Hbonds>
donor molecule, donor type, donor heavy atom, donor atom, acceptor molecule, acceptor atom, score
      L1  H     8    34       P1  8028  1.00

> <Gold.PLP.Chemscore.Internal.Correction>
0.0090

> <Gold.Rescore>
     Score         DG    S(hbond)    S(metal)    S(lipo)     H(rot)  DE(clash)    DE(int)     intcor
     11.53     -12.74       0.97        0.00      67.76       1.52       0.56       0.65       ----

> <Gold.Chemscore.Fitness>
11.5314

> <Gold.Chemscore.DG>
-12.7384

> <Gold.Chemscore.ZeroCoef>
-5.4800

> <Gold.Chemscore.Hbond>
0.9678

> <Gold.Chemscore.Metal>
0.0000

> <Gold.Chemscore.Lipo>
67.7579

> <Gold.Chemscore.Internal_Hbond>
0.0000

> <Gold.Chemscore.DEClash>
0.5557

> <Gold.Chemscore.DEInternal>
0.6512

> <Gold.Chemscore.Rot>
1.5242

> <Gold.Chemscore.Internal.Correction>
   9.000000E+99

> <Gold.Chemscore.Hbonds>
donor molecule, donor type, donor heavy atom, donor atom, acceptor molecule, acceptor atom, score
      L1  H     8    34       P1  8028  0.93

> <Gold.Chemscore.Hbond.Weighted>
-3.2326

> <Gold.Chemscore.Metal.Weighted>
-0.0000

> <Gold.Chemscore.Lipo.Weighted>
-7.9277

> <Gold.Chemscore.Internal_Hbond.Weighted>
0.0000

> <Gold.Chemscore.DEClash.Weighted>
0.5557

> <Gold.Chemscore.DEInternal.Weighted>
0.6512

> <Gold.Chemscore.Rot.Weighted>
3.9019

> <Gold.Chemscore.Internal.Correction.Weighted>
   9.000000E+99

> <Gold.Protein.RotatedTorsions>
[ 6907 6896 6895 6894 ] final -167.74 input  -60.11 | X-H torsion
[ 7974 7965 7964 7962 ] final  -15.96 input  175.53 | X-H torsion
[ 8008 7997 7996 7995 ] final  -88.52 input   59.86 | X-H torsion
[ 10167 10162 10161 10158 ] final  -41.00 input  -65.29 | X-H torsion
[ 10718 10713 10712 10709 ] final -149.38 input   66.30 | X-H torsion
[ 10763 10752 10751 10750 ] final -156.87 input  -60.55 | X-H torsion
[ 11005 11000 10999 10996 ] final   28.90 input  -57.11 | X-H torsion

> <Gold.Protein.ActiveResidues>
 VAL166  LYS551  ARG553  GLY616  TRP617  ASP618  TYR619  PRO620  LYS621  CYS622 
 ASP623  PHE694  ASN695  SER759  ASP760  ASP761  ALA762  ILE779  LEU786  VAL792 
 PHE793  MET794  SER795  GLU796  ALA797  LYS798  CYS799  TRP800  GLU811  SER814 

> <Gold.Protein.RotatedAtoms>
  151.4643  133.3585  159.2813 H   0  0  0  0  0  0  0  0  0  0  0  0  # atno 6907 bound_to 6896
  150.9004  134.8417  159.7366 H   0  0  0  0  0  0  0  0  0  0  0  0  # atno 6908 bound_to 6896
  152.4876  134.4563  159.9642 H   0  0  0  0  0  0  0  0  0  0  0  0  # atno 6909 bound_to 6896
  146.2009  140.3568  142.8424 H   0  0  0  0  0  0  0  0  0  0  0  0  # atno 7974 bound_to 7965
  154.6758  140.0552  157.0214 H   0  0  0  0  0  0  0  0  0  0  0  0  # atno 8008 bound_to 7997
  155.1023  140.3230  155.4525 H   0  0  0  0  0  0  0  0  0  0  0  0  # atno 8009 bound_to 7997
  156.2675  140.2029  156.6148 H   0  0  0  0  0  0  0  0  0  0  0  0  # atno 8010 bound_to 7997
  140.7016  143.3120  151.3005 H   0  0  0  0  0  0  0  0  0  0  0  0  # atno 10167 bound_to 10162
  156.4324  130.8082  151.2309 H   0  0  0  0  0  0  0  0  0  0  0  0  # atno 10718 bound_to 10713
  154.7679  135.3136  154.8248 H   0  0  0  0  0  0  0  0  0  0  0  0  # atno 10763 bound_to 10752
  153.8991  135.6817  153.4760 H   0  0  0  0  0  0  0  0  0  0  0  0  # atno 10764 bound_to 10752
  153.1288  135.4789  154.9249 H   0  0  0  0  0  0  0  0  0  0  0  0  # atno 10765 bound_to 10752
  140.3107  134.2653  155.7735 H   0  0  0  0  0  0  0  0  0  0  0  0  # atno 11005 bound_to 11000
  144.8681  140.7234  143.6064 LP  0  0  0  0  0  0  0  0  0  0  0  0  # atno 17320 bound_to 7965
  145.3487  139.1712  143.4446 LP  0  0  0  0  0  0  0  0  0  0  0  0  # atno 17321 bound_to 7965
  139.6546  144.0300  152.2650 LP  0  0  0  0  0  0  0  0  0  0  0  0  # atno 17342 bound_to 10162
  139.9848  144.6403  150.7868 LP  0  0  0  0  0  0  0  0  0  0  0  0  # atno 17343 bound_to 10162
  157.7508  131.0194  150.3666 LP  0  0  0  0  0  0  0  0  0  0  0  0  # atno 17370 bound_to 10713
  156.4006  130.3915  149.6962 LP  0  0  0  0  0  0  0  0  0  0  0  0  # atno 17371 bound_to 10713
  141.2109  133.7706  156.9903 LP  0  0  0  0  0  0  0  0  0  0  0  0  # atno 17394 bound_to 11000
  140.1027  134.9525  157.1948 LP  0  0  0  0  0  0  0  0  0  0  0  0  # atno 17395 bound_to 11000

$$$$
