AV-unprocessed.smi:781|AV-procd|sdf|3707|dock2
  -GOLD-   22720 1133D 1   1.00000     0.00000
 Structure written by MMmdl.
 38 40  0  0  0  0  0  0  0  0  1 V2000
  143.8688  132.5506  149.7919 C   0  0  0  0  0  0  0  0  0  0  0  0
  144.3421  133.6349  150.6981 C   0  0  0  0  0  0  0  0  0  0  0  0
  145.5237  134.3139  150.7984 C   0  0  0  0  0  0  0  0  0  0  0  0
  145.2884  135.2082  151.8763 C   0  0  0  0  0  0  0  0  0  0  0  0
  146.2947  136.1104  152.3053 N   0  0  0  0  0  0  0  0  0  0  0  0
  146.2071  137.0352  153.2763 C   0  0  0  0  0  0  0  0  0  0  0  0
  145.2094  137.2493  153.9655 O   0  0  0  0  0  0  0  0  0  0  0  0
  147.3576  137.7098  153.4086 N   0  0  0  0  0  0  0  0  0  0  0  0
  147.5990  138.7773  154.3759 C   0  0  2  0  0  0  0  0  0  0  0  0
  146.5175  139.8729  154.2510 C   0  0  1  0  0  0  0  0  0  0  0  0
  146.5575  140.7538  155.5127 C   0  0  0  0  0  0  0  0  0  0  0  0
  147.8552  141.5595  155.3146 C   0  0  0  0  0  0  0  0  0  0  0  0
  148.3978  141.0195  153.9736 C   0  0  2  0  0  0  0  0  0  0  0  0
  147.1022  140.8122  153.1995 C   0  0  0  0  0  0  0  0  0  0  0  0
  148.9067  139.5611  154.0937 C   0  0  1  0  0  0  0  0  0  0  0  0
  150.0250  139.3128  155.1248 C   0  0  0  0  0  0  0  0  0  0  0  0
  151.2068  139.9826  154.7396 O   0  0  0  0  0  0  0  0  0  0  0  0
  144.0735  135.0857  152.3888 N   0  0  0  0  0  0  0  0  0  0  0  0
  143.4609  134.0763  151.6364 O   0  0  0  0  0  0  0  0  0  0  0  0
  144.5323  132.4434  148.9337 H   0  0  0  0  0  0  0  0  0  0  0  0
  142.8679  132.7667  149.4182 H   0  0  0  0  0  0  0  0  0  0  0  0
  143.8364  131.5958  150.3165 H   0  0  0  0  0  0  0  0  0  0  0  0
  146.4114  134.1892  150.1962 H   0  0  0  0  0  0  0  0  0  0  0  0
  147.1767  136.0456  151.8192 H   0  0  0  0  0  0  0  0  0  0  0  0
  148.1263  137.4660  152.8015 H   0  0  0  0  0  0  0  0  0  0  0  0
  147.5881  138.3544  155.3826 H   0  0  0  0  0  0  0  0  0  0  0  0
  145.5206  139.4910  154.0274 H   0  0  0  0  0  0  0  0  0  0  0  0
  145.6949  141.4204  155.5494 H   0  0  0  0  0  0  0  0  0  0  0  0
  146.5650  140.1678  156.4325 H   0  0  0  0  0  0  0  0  0  0  0  0
  147.6265  142.6226  155.2292 H   0  0  0  0  0  0  0  0  0  0  0  0
  148.5536  141.4483  156.1429 H   0  0  0  0  0  0  0  0  0  0  0  0
  149.1099  141.6893  153.4907 H   0  0  0  0  0  0  0  0  0  0  0  0
  147.2475  140.3396  152.2265 H   0  0  0  0  0  0  0  0  0  0  0  0
  146.5236  141.7281  153.0665 H   0  0  0  0  0  0  0  0  0  0  0  0
  149.2948  139.2703  153.1151 H   0  0  0  0  0  0  0  0  0  0  0  0
  149.7360  139.6264  156.1270 H   0  0  0  0  0  0  0  0  0  0  0  0
  150.2431  138.2464  155.1847 H   0  0  0  0  0  0  0  0  0  0  0  0
  151.9439  139.4220  154.9281 H   0  0  0  0  0  0  0  0  0  0  0  0
  1  2  1  0  0  0  0
  1 20  1  0  0  0  0
  1 21  1  0  0  0  0
  1 22  1  0  0  0  0
  2 19  1  0  0  0  0
  2  3  2  0  0  0  0
  3  4  1  0  0  0  0
  3 23  1  0  0  0  0
  4  5  1  0  0  0  0
  4 18  2  0  0  0  0
  5  6  1  0  0  0  0
  5 24  1  0  0  0  0
  6  7  2  0  0  0  0
  6  8  1  0  0  0  0
  8  9  1  0  0  0  0
  8 25  1  0  0  0  0
  9 15  1  0  0  0  0
  9 10  1  0  0  0  0
  9 26  1  0  0  0  0
 10 14  1  0  0  0  0
 10 11  1  0  0  0  0
 10 27  1  0  0  0  0
 11 12  1  0  0  0  0
 11 28  1  0  0  0  0
 11 29  1  0  0  0  0
 12 13  1  0  0  0  0
 12 30  1  0  0  0  0
 12 31  1  0  0  0  0
 13 14  1  0  0  0  0
 13 15  1  0  0  0  0
 13 32  1  0  0  0  0
 14 33  1  0  0  0  0
 14 34  1  0  0  0  0
 15 16  1  0  0  0  0
 15 35  1  0  0  0  0
 16 17  1  0  0  0  0
 16 36  1  0  0  0  0
 16 37  1  0  0  0  0
 17 38  1  0  0  0  0
 18 19  1  0  0  0  0
M  END
> <s_m_source_file>
AV-unprocessed.smi

> <i_m_source_file_index>
781

> <i_lp_mmshare_version>
43012

> <i_f3d_flags>
0

> <s_epik_input>
W0NIM11jMVtjSF1jKG5vMSlbTkhdQyg9TylbTkhdW0NASF0oW0NAQEhdMjMpW0NASF0oW0NIMl1bT0hdKVtDQEBIXShbQ0gyXTMpW0NIMl1bQ0gyXTI=

> <s_epik_cmdline>
J2VwaWtfcHl0aG9uJywgJy1waCcsICc3LjAnLCAnLXRuJywgJzgnLCAnLW1hJywgJzIwMCcsICctbWV0YWxfYmluZGluZycsICctaW1hZScsICc8aW5maWxlLm1hZT4nLCAnLW9tYWUnLCAnPG91dGZpbGUubWFlPic=

> <r_lp_tautomer_probability>
1

> <r_epik_Ionization_Penalty>
2.32222e-05

> <r_epik_Ionization_Penalty_Charging>
0

> <r_epik_Ionization_Penalty_Neutral>
2.32222e-05

> <r_epik_State_Penalty>
-0

> <r_epik_Charging_Adjusted_Penalty>
0

> <i_epik_Tot_Q>
0

> <i_epik_Tot_abs_Q>
0

> <r_epik_Metal_State_Penalty>
-0

> <b_epik_Metal_Only>
0

> <s_lp_Force_Field>
OPLS_2005

> <r_lp_Energy>
47.0606

> <b_lp_Chiralities_Consistent>
1

> <s_lp_Variant>
AV-unprocessed.smi:781-1

> <Gold.Version>
5.8.1

> <Gold.Id.Protein>
6NUR|6NUR_protein|mol2

> <Gold.PLP.Fitness>
36.9590

> <Gold.PLP.PLP>
-28.1645

> <Gold.PLP.part.hbond>
-3.0000

> <Gold.PLP.part.metal>
0.0000

> <Gold.PLP.part.buried>
-3.6509

> <Gold.PLP.part.nonpolar>
-22.2094

> <Gold.PLP.part.repulsive>
0.4468

> <Gold.PLP.ligand.clash>
0.0000

> <Gold.PLP.ligand.torsion>
0.1002

> <Gold.PLP.Chemscore.Hbond>
2.9920

> <Gold.PLP.Chemscore.CHOScore>
0.0000

> <Gold.PLP.Chemscore.Metal>
0.0000

> <Gold.Chemscore.Hbonds>
donor molecule, donor type, donor heavy atom, donor atom, acceptor molecule, acceptor atom, score
      L1  H     5    24       P1  7948  1.00
      L1  H     8    25       P1  7948  0.98
      P1  H  7989  7998       L1    17  1.00

> <Gold.PLP.Chemscore.Internal.Correction>
0.0188

> <Gold.Rescore>
     Score         DG    S(hbond)    S(metal)    S(lipo)     H(rot)  DE(clash)    DE(int)     intcor
     16.07     -17.99       2.89        0.00      64.99       1.86       0.06       1.86       ----

> <Gold.Chemscore.Fitness>
16.0696

> <Gold.Chemscore.DG>
-17.9861

> <Gold.Chemscore.ZeroCoef>
-5.4800

> <Gold.Chemscore.Hbond>
2.8923

> <Gold.Chemscore.Metal>
0.0000

> <Gold.Chemscore.Lipo>
64.9931

> <Gold.Chemscore.Internal_Hbond>
0.0000

> <Gold.Chemscore.DEClash>
0.0580

> <Gold.Chemscore.DEInternal>
1.8585

> <Gold.Chemscore.Rot>
1.8587

> <Gold.Chemscore.Internal.Correction>
   9.000000E+99

> <Gold.Chemscore.Hbonds>
donor molecule, donor type, donor heavy atom, donor atom, acceptor molecule, acceptor atom, score
      L1  H     5    24       P1  7948  0.94
      L1  H     8    25       P1  7948  0.93
      P1  H  7989  7998       L1    17  0.54

> <Gold.Chemscore.Hbond.Weighted>
-9.6602

> <Gold.Chemscore.Metal.Weighted>
-0.0000

> <Gold.Chemscore.Lipo.Weighted>
-7.6042

> <Gold.Chemscore.Internal_Hbond.Weighted>
0.0000

> <Gold.Chemscore.DEClash.Weighted>
0.0580

> <Gold.Chemscore.DEInternal.Weighted>
1.8585

> <Gold.Chemscore.Rot.Weighted>
4.7583

> <Gold.Chemscore.Internal.Correction.Weighted>
   9.000000E+99

> <Gold.Protein.RotatedTorsions>
[ 6907 6896 6895 6894 ] final    6.69 input  -60.11 | X-H torsion
[ 7974 7965 7964 7962 ] final -103.75 input  175.53 | X-H torsion
[ 8008 7997 7996 7995 ] final -137.97 input   59.86 | X-H torsion
[ 10167 10162 10161 10158 ] final   -9.66 input  -65.29 | X-H torsion
[ 10718 10713 10712 10709 ] final -128.07 input   66.30 | X-H torsion
[ 10763 10752 10751 10750 ] final  158.55 input  -60.55 | X-H torsion
[ 11005 11000 10999 10996 ] final   21.92 input  -57.11 | X-H torsion

> <Gold.Protein.ActiveResidues>
 VAL166  LYS551  ARG553  GLY616  TRP617  ASP618  TYR619  PRO620  LYS621  CYS622 
 ASP623  PHE694  ASN695  SER759  ASP760  ASP761  ALA762  ILE779  LEU786  VAL792 
 PHE793  MET794  SER795  GLU796  ALA797  LYS798  CYS799  TRP800  GLU811  SER814 

> <Gold.Protein.RotatedAtoms>
  151.6777  135.0966  160.0209 H   0  0  0  0  0  0  0  0  0  0  0  0  # atno 6907 bound_to 6896
  152.3854  133.6599  159.6203 H   0  0  0  0  0  0  0  0  0  0  0  0  # atno 6908 bound_to 6896
  150.7781  133.8961  159.3369 H   0  0  0  0  0  0  0  0  0  0  0  0  # atno 6909 bound_to 6896
  145.2519  140.9241  143.3090 H   0  0  0  0  0  0  0  0  0  0  0  0  # atno 7974 bound_to 7965
  155.4206  140.0518  157.3026 H   0  0  0  0  0  0  0  0  0  0  0  0  # atno 8008 bound_to 7997
  154.4904  140.2118  155.9519 H   0  0  0  0  0  0  0  0  0  0  0  0  # atno 8009 bound_to 7997
  156.1334  140.3167  155.8389 H   0  0  0  0  0  0  0  0  0  0  0  0  # atno 8010 bound_to 7997
  140.7093  143.5833  150.8969 H   0  0  0  0  0  0  0  0  0  0  0  0  # atno 10167 bound_to 10162
  156.1916  130.6799  151.0431 H   0  0  0  0  0  0  0  0  0  0  0  0  # atno 10718 bound_to 10713
  154.2177  135.2783  155.2936 H   0  0  0  0  0  0  0  0  0  0  0  0  # atno 10763 bound_to 10752
  154.5727  135.5613  153.7113 H   0  0  0  0  0  0  0  0  0  0  0  0  # atno 10764 bound_to 10752
  153.0049  135.6325  154.2317 H   0  0  0  0  0  0  0  0  0  0  0  0  # atno 10765 bound_to 10752
  140.3862  134.1867  155.7663 H   0  0  0  0  0  0  0  0  0  0  0  0  # atno 11005 bound_to 11000
  144.9495  139.4098  143.6409 LP  0  0  0  0  0  0  0  0  0  0  0  0  # atno 17320 bound_to 7965
  146.3300  139.8496  142.8875 LP  0  0  0  0  0  0  0  0  0  0  0  0  # atno 17321 bound_to 7965
  139.9559  143.6219  152.3016 LP  0  0  0  0  0  0  0  0  0  0  0  0  # atno 17342 bound_to 10162
  139.6754  144.7659  151.1705 LP  0  0  0  0  0  0  0  0  0  0  0  0  # atno 17343 bound_to 10162
  157.6933  131.0803  150.7045 LP  0  0  0  0  0  0  0  0  0  0  0  0  # atno 17370 bound_to 10713
  156.7101  130.4649  149.5549 LP  0  0  0  0  0  0  0  0  0  0  0  0  # atno 17371 bound_to 10713
  141.1906  133.8212  157.0910 LP  0  0  0  0  0  0  0  0  0  0  0  0  # atno 17394 bound_to 11000
  140.0441  134.9839  157.1015 LP  0  0  0  0  0  0  0  0  0  0  0  0  # atno 17395 bound_to 11000

$$$$
