AV-unprocessed.smi:2660|AV-procd|sdf|10314|dock5
  -GOLD-   2272014333D 1   1.00000     0.00000
 Structure written by MMmdl.
 36 37  0  0  0  0  0  0  0  0  1 V2000
  143.9135  144.7110  158.4512 N   0  0  0  0  0  0  0  0  0  0  0  0
  145.0030  144.1450  158.9857 C   0  0  0  0  0  0  0  0  0  0  0  0
  145.2290  144.3134  160.1840 O   0  0  0  0  0  0  0  0  0  0  0  0
  145.8164  143.3638  158.0257 C   0  0  0  0  0  0  0  0  0  0  0  0
  145.4367  143.1584  156.7443 C   0  0  0  0  0  0  0  0  0  0  0  0
  146.2598  142.3931  155.8495 C   0  0  0  0  0  0  0  0  0  0  0  0
  147.4318  141.8848  156.2738 C   0  0  0  0  0  0  0  0  0  0  0  0
  148.3119  141.0544  155.3308 C   0  0  0  0  0  0  0  0  0  0  0  0
  147.7504  140.9327  154.1270 F   0  0  0  0  0  0  0  0  0  0  0  0
  149.5006  141.6231  155.1396 F   0  0  0  0  0  0  0  0  0  0  0  0
  148.4822  139.8186  155.8021 F   0  0  0  0  0  0  0  0  0  0  0  0
  147.8616  142.1138  157.6186 N   0  0  0  0  0  0  0  0  0  0  0  0
  149.1689  141.5916  158.0901 C   0  0  0  0  0  0  0  0  0  0  0  0
  150.2662  142.6903  158.1645 C   0  0  2  0  0  0  0  0  0  0  0  0
  150.7377  142.9698  156.8622 O   0  0  0  0  0  0  0  0  0  0  0  0
  151.4146  142.2849  159.0779 C   0  0  0  0  0  0  0  0  0  0  0  0
  152.0432  141.0323  158.9088 C   0  0  0  0  0  0  0  0  0  0  0  0
  153.1106  140.6546  159.7460 C   0  0  0  0  0  0  0  0  0  0  0  0
  153.5564  141.5270  160.7573 C   0  0  0  0  0  0  0  0  0  0  0  0
  152.9341  142.7780  160.9308 C   0  0  0  0  0  0  0  0  0  0  0  0
  151.8660  143.1561  160.0940 C   0  0  0  0  0  0  0  0  0  0  0  0
  147.0988  142.8089  158.5306 C   0  0  0  0  0  0  0  0  0  0  0  0
  147.4947  142.9463  159.6918 O   0  0  0  0  0  0  0  0  0  0  0  0
  143.2998  145.2606  159.0349 H   0  0  0  0  0  0  0  0  0  0  0  0
  143.7074  144.5861  157.4711 H   0  0  0  0  0  0  0  0  0  0  0  0
  144.5137  143.5545  156.3476 H   0  0  0  0  0  0  0  0  0  0  0  0
  145.9139  142.2299  154.8398 H   0  0  0  0  0  0  0  0  0  0  0  0
  149.0199  141.1527  159.0789 H   0  0  0  0  0  0  0  0  0  0  0  0
  149.5340  140.7330  157.5347 H   0  0  0  0  0  0  0  0  0  0  0  0
  149.8420  143.6228  158.5398 H   0  0  0  0  0  0  0  0  0  0  0  0
  150.2298  143.6838  156.5079 H   0  0  0  0  0  0  0  0  0  0  0  0
  151.7130  140.3578  158.1323 H   0  0  0  0  0  0  0  0  0  0  0  0
  153.5885  139.6955  159.6107 H   0  0  0  0  0  0  0  0  0  0  0  0
  154.3759  141.2370  161.3983 H   0  0  0  0  0  0  0  0  0  0  0  0
  153.2767  143.4486  161.7050 H   0  0  0  0  0  0  0  0  0  0  0  0
  151.3958  144.1188  160.2315 H   0  0  0  0  0  0  0  0  0  0  0  0
  1  2  1  0  0  0  0
  1 24  1  0  0  0  0
  1 25  1  0  0  0  0
  2  3  2  0  0  0  0
  2  4  1  0  0  0  0
  4 22  1  0  0  0  0
  4  5  2  0  0  0  0
  5  6  1  0  0  0  0
  5 26  1  0  0  0  0
  6  7  2  0  0  0  0
  6 27  1  0  0  0  0
  7  8  1  0  0  0  0
  7 12  1  0  0  0  0
  8  9  1  0  0  0  0
  8 10  1  0  0  0  0
  8 11  1  0  0  0  0
 12 13  1  0  0  0  0
 12 22  1  0  0  0  0
 13 14  1  0  0  0  0
 13 28  1  0  0  0  0
 13 29  1  0  0  0  0
 14 15  1  0  0  0  0
 14 16  1  0  0  0  0
 14 30  1  0  0  0  0
 15 31  1  0  0  0  0
 16 21  1  0  0  0  0
 16 17  2  0  0  0  0
 17 18  1  0  0  0  0
 17 32  1  0  0  0  0
 18 19  2  0  0  0  0
 18 33  1  0  0  0  0
 19 20  1  0  0  0  0
 19 34  1  0  0  0  0
 20 21  2  0  0  0  0
 20 35  1  0  0  0  0
 21 36  1  0  0  0  0
 22 23  2  0  0  0  0
M  END
> <s_m_source_file>
AV-unprocessed.smi

> <i_m_source_file_index>
2660

> <i_lp_mmshare_version>
43012

> <i_f3d_flags>
0

> <s_epik_input>
W05IMl1DKD1PKWMxW2NIXVtjSF1jKEMoRikoRilGKW4oYzE9TylbQ0gyXVtDQEhdKFtPSF0pYzJbY0hdW2NIXVtjSF1bY0hdW2NIXTI=

> <s_epik_cmdline>
J2VwaWtfcHl0aG9uJywgJy1waCcsICc3LjAnLCAnLXRuJywgJzgnLCAnLW1hJywgJzIwMCcsICctbWV0YWxfYmluZGluZycsICctaW1hZScsICc8aW5maWxlLm1hZT4nLCAnLW9tYWUnLCAnPG91dGZpbGUubWFlPic=

> <r_lp_tautomer_probability>
1

> <r_epik_Ionization_Penalty>
1.58596e-06

> <r_epik_Ionization_Penalty_Charging>
5.13453e-09

> <r_epik_Ionization_Penalty_Neutral>
1.58083e-06

> <r_epik_State_Penalty>
-0

> <r_epik_Charging_Adjusted_Penalty>
5.13453e-09

> <i_epik_Tot_Q>
0

> <i_epik_Tot_abs_Q>
0

> <r_epik_Metal_State_Penalty>
-0

> <b_epik_Metal_Only>
0

> <s_lp_Force_Field>
OPLS_2005

> <r_lp_Energy>
35.2508

> <b_lp_Chiralities_Consistent>
1

> <s_lp_Variant>
AV-unprocessed.smi:2660-1

> <Gold.Version>
5.8.1

> <Gold.Id.Protein>
6NUR|6NUR_protein|mol2

> <Gold.PLP.Fitness>
41.7248

> <Gold.PLP.PLP>
-37.0937

> <Gold.PLP.part.hbond>
-3.0000

> <Gold.PLP.part.metal>
0.0000

> <Gold.PLP.part.buried>
-5.2990

> <Gold.PLP.part.nonpolar>
-30.3886

> <Gold.PLP.part.repulsive>
0.1392

> <Gold.PLP.ligand.clash>
3.4498

> <Gold.PLP.ligand.torsion>
0.6156

> <Gold.PLP.Chemscore.Hbond>
1.9368

> <Gold.PLP.Chemscore.CHOScore>
0.0000

> <Gold.PLP.Chemscore.Metal>
0.0000

> <Gold.Chemscore.Hbonds>
donor molecule, donor type, donor heavy atom, donor atom, acceptor molecule, acceptor atom, score
      L1  H    15    31       P1  8028  1.00
      P1  H  6933  6944       L1    23  0.66
      P1  H  6934  6946       L1    23  0.08

> <Gold.PLP.Chemscore.Internal.Correction>
3.5016

> <Gold.Rescore>
     Score         DG    S(hbond)    S(metal)    S(lipo)     H(rot)  DE(clash)    DE(int)     intcor
     10.06     -15.71       1.92        0.00      80.88       2.21       0.00       5.65       ----

> <Gold.Chemscore.Fitness>
10.0626

> <Gold.Chemscore.DG>
-15.7098

> <Gold.Chemscore.ZeroCoef>
-5.4800

> <Gold.Chemscore.Hbond>
1.9223

> <Gold.Chemscore.Metal>
0.0000

> <Gold.Chemscore.Lipo>
80.8829

> <Gold.Chemscore.Internal_Hbond>
0.0000

> <Gold.Chemscore.DEClash>
0.0005

> <Gold.Chemscore.DEInternal>
5.6467

> <Gold.Chemscore.Rot>
2.2086

> <Gold.Chemscore.Internal.Correction>
   9.000000E+99

> <Gold.Chemscore.Hbonds>
donor molecule, donor type, donor heavy atom, donor atom, acceptor molecule, acceptor atom, score
      L1  H    15    31       P1  8028  1.00
      P1  H  6933  6944       L1    23  0.64
      P1  H  6934  6946       L1    23  0.04

> <Gold.Chemscore.Hbond.Weighted>
-6.4204

> <Gold.Chemscore.Metal.Weighted>
-0.0000

> <Gold.Chemscore.Lipo.Weighted>
-9.4633

> <Gold.Chemscore.Internal_Hbond.Weighted>
0.0000

> <Gold.Chemscore.DEClash.Weighted>
0.0005

> <Gold.Chemscore.DEInternal.Weighted>
5.6467

> <Gold.Chemscore.Rot.Weighted>
5.6540

> <Gold.Chemscore.Internal.Correction.Weighted>
   9.000000E+99

> <Gold.Protein.RotatedTorsions>
[ 6907 6896 6895 6894 ] final  -79.81 input  -60.11 | X-H torsion
[ 7974 7965 7964 7962 ] final  123.17 input  175.53 | X-H torsion
[ 8008 7997 7996 7995 ] final    6.93 input   59.86 | X-H torsion
[ 10167 10162 10161 10158 ] final  101.18 input  -65.29 | X-H torsion
[ 10718 10713 10712 10709 ] final  139.09 input   66.30 | X-H torsion
[ 10763 10752 10751 10750 ] final -145.90 input  -60.55 | X-H torsion
[ 11005 11000 10999 10996 ] final  -94.07 input  -57.11 | X-H torsion

> <Gold.Protein.ActiveResidues>
 VAL166  LYS551  ARG553  GLY616  TRP617  ASP618  TYR619  PRO620  LYS621  CYS622 
 ASP623  PHE694  ASN695  SER759  ASP760  ASP761  ALA762  ILE779  LEU786  VAL792 
 PHE793  MET794  SER795  GLU796  ALA797  LYS798  CYS799  TRP800  GLU811  SER814 

> <Gold.Protein.RotatedAtoms>
  150.6942  134.4065  159.5142 H   0  0  0  0  0  0  0  0  0  0  0  0  # atno 6907 bound_to 6896
  152.1830  134.8735  160.0534 H   0  0  0  0  0  0  0  0  0  0  0  0  # atno 6908 bound_to 6896
  151.9718  133.3693  159.4111 H   0  0  0  0  0  0  0  0  0  0  0  0  # atno 6909 bound_to 6896
  145.0991  139.3532  143.4821 H   0  0  0  0  0  0  0  0  0  0  0  0  # atno 7974 bound_to 7965
  154.7473  140.2760  155.6322 H   0  0  0  0  0  0  0  0  0  0  0  0  # atno 8008 bound_to 7997
  156.2888  140.2685  156.2144 H   0  0  0  0  0  0  0  0  0  0  0  0  # atno 8009 bound_to 7997
  155.0181  140.0371  157.2416 H   0  0  0  0  0  0  0  0  0  0  0  0  # atno 8010 bound_to 7997
  139.7460  144.6998  151.0503 H   0  0  0  0  0  0  0  0  0  0  0  0  # atno 10167 bound_to 10162
  157.4182  131.1035  151.0382 H   0  0  0  0  0  0  0  0  0  0  0  0  # atno 10718 bound_to 10713
  154.8362  135.3401  154.6576 H   0  0  0  0  0  0  0  0  0  0  0  0  # atno 10763 bound_to 10752
  153.7191  135.6959  153.5022 H   0  0  0  0  0  0  0  0  0  0  0  0  # atno 10764 bound_to 10752
  153.2395  135.4389  155.0635 H   0  0  0  0  0  0  0  0  0  0  0  0  # atno 10765 bound_to 10752
  141.1480  133.7931  157.0247 H   0  0  0  0  0  0  0  0  0  0  0  0  # atno 11005 bound_to 11000
  146.3530  140.0859  142.8615 LP  0  0  0  0  0  0  0  0  0  0  0  0  # atno 17320 bound_to 7965
  145.0977  140.9325  143.4731 LP  0  0  0  0  0  0  0  0  0  0  0  0  # atno 17321 bound_to 7965
  140.7792  143.4866  150.9948 LP  0  0  0  0  0  0  0  0  0  0  0  0  # atno 17342 bound_to 10162
  139.8554  143.7384  152.3176 LP  0  0  0  0  0  0  0  0  0  0  0  0  # atno 17343 bound_to 10162
  157.1321  130.6107  149.5532 LP  0  0  0  0  0  0  0  0  0  0  0  0  # atno 17370 bound_to 10713
  155.9872  130.4910  150.7114 LP  0  0  0  0  0  0  0  0  0  0  0  0  # atno 17371 bound_to 10713
  140.0793  134.9657  157.1597 LP  0  0  0  0  0  0  0  0  0  0  0  0  # atno 17394 bound_to 11000
  140.3600  134.2505  155.7188 LP  0  0  0  0  0  0  0  0  0  0  0  0  # atno 17395 bound_to 11000

$$$$
