AV-unprocessed.smi:221|AV-procd|sdf|1688|dock2
  -GOLD-   2262020123D 1   1.00000     0.00000
 Structure written by MMmdl.
 50 53  0  0  0  0  0  0  0  0  1 V2000
  147.3741  135.8735  158.9549 N   0  0  0  0  0  0  0  0  0  0  0  0
  148.5791  136.1251  158.4381 C   0  0  0  0  0  0  0  0  0  0  0  0
  149.5575  136.3614  159.1448 O   0  0  0  0  0  0  0  0  0  0  0  0
  148.6993  136.0884  156.9081 C   0  0  2  0  0  0  0  0  0  0  0  0
  148.3803  134.6914  156.3415 C   0  0  0  0  0  0  0  0  0  0  0  0
  149.2793  134.5896  155.1171 C   0  0  2  0  0  0  0  0  0  0  0  0
  149.5090  133.3283  154.7526 F   0  0  0  0  0  0  0  0  0  0  0  0
  150.5383  135.3061  155.5875 C   0  0  0  0  0  0  0  0  0  0  0  0
  150.0678  136.3805  156.4598 N   0  0  0  0  0  0  0  0  0  0  0  0
  150.2509  137.6599  156.0497 C   0  0  0  0  0  0  0  0  0  0  0  0
  150.0649  137.9919  154.7444 N   0  0  0  0  0  0  0  0  0  0  0  0
  150.2120  139.2592  154.3472 C   0  0  0  0  0  0  0  0  0  0  0  0
  150.5315  140.3306  155.0760 N   0  0  0  0  0  0  0  0  0  0  0  0
  150.7147  140.0022  156.3872 C   0  0  0  0  0  0  0  0  0  0  0  0
  150.5882  138.7030  156.9539 C   0  0  0  0  0  0  0  0  0  0  0  0
  150.8335  138.7552  158.3194 N   0  0  0  0  0  0  0  0  0  0  0  0
  151.0882  140.0142  158.5485 C   0  0  0  0  0  0  0  0  0  0  0  0
  151.0684  140.8310  157.4389 N   0  0  0  0  0  0  0  0  0  0  0  0
  151.3008  142.2682  157.4052 C   0  0  0  0  0  0  0  0  0  0  0  0
  151.2223  142.9591  158.7964 C   0  0  2  0  0  0  0  0  0  0  0  0
  150.3376  144.2233  158.6858 C   0  0  0  0  0  0  0  0  0  0  0  0
  148.9717  143.8767  158.5806 O   0  0  0  0  0  0  0  0  0  0  0  0
  152.6128  143.3294  159.3999 C   0  0  2  0  0  0  0  0  0  0  0  0
  153.5756  142.1785  159.6594 C   0  0  0  0  0  0  0  0  0  0  0  0
  153.0885  141.6072  160.9867 C   0  0  0  0  0  0  0  0  0  0  0  0
  152.5113  142.7087  161.6791 O   0  0  0  0  0  0  0  0  0  0  0  0
  152.5093  143.8587  160.8387 C   0  0  0  0  0  0  0  0  0  0  0  0
  148.0047  136.8099  156.4706 H   0  0  0  0  0  0  0  0  0  0  0  0
  148.8339  135.1103  154.2684 H   0  0  0  0  0  0  0  0  0  0  0  0
  147.2453  135.8953  159.9561 H   0  0  0  0  0  0  0  0  0  0  0  0
  146.5950  135.6713  158.3455 H   0  0  0  0  0  0  0  0  0  0  0  0
  148.6463  133.9072  157.0531 H   0  0  0  0  0  0  0  0  0  0  0  0
  147.3256  134.5701  156.0935 H   0  0  0  0  0  0  0  0  0  0  0  0
  151.1504  134.6365  156.1932 H   0  0  0  0  0  0  0  0  0  0  0  0
  151.1605  135.6340  154.7536 H   0  0  0  0  0  0  0  0  0  0  0  0
  150.0495  139.4411  153.2951 H   0  0  0  0  0  0  0  0  0  0  0  0
  151.3047  140.3799  159.5415 H   0  0  0  0  0  0  0  0  0  0  0  0
  152.2643  142.4722  156.9371 H   0  0  0  0  0  0  0  0  0  0  0  0
  150.5515  142.6769  156.7271 H   0  0  0  0  0  0  0  0  0  0  0  0
  150.7262  142.2885  159.4987 H   0  0  0  0  0  0  0  0  0  0  0  0
  150.4366  144.8671  159.5579 H   0  0  0  0  0  0  0  0  0  0  0  0
  150.6269  144.8226  157.8219 H   0  0  0  0  0  0  0  0  0  0  0  0
  148.4942  144.6293  158.2662 H   0  0  0  0  0  0  0  0  0  0  0  0
  153.0889  144.0655  158.7508 H   0  0  0  0  0  0  0  0  0  0  0  0
  153.6501  141.4420  158.8656 H   0  0  0  0  0  0  0  0  0  0  0  0
  154.5806  142.5809  159.7955 H   0  0  0  0  0  0  0  0  0  0  0  0
  152.3194  140.8516  160.8243 H   0  0  0  0  0  0  0  0  0  0  0  0
  153.8953  141.1529  161.5622 H   0  0  0  0  0  0  0  0  0  0  0  0
  153.3891  144.4576  161.0792 H   0  0  0  0  0  0  0  0  0  0  0  0
  151.6348  144.4771  161.0343 H   0  0  0  0  0  0  0  0  0  0  0  0
  1  2  1  0  0  0  0
  1 30  1  0  0  0  0
  1 31  1  0  0  0  0
  2  3  2  0  0  0  0
  2  4  1  0  0  0  0
  4 28  1  0  0  0  0
  4  9  1  0  0  0  0
  4  5  1  0  0  0  0
  5  6  1  0  0  0  0
  5 32  1  0  0  0  0
  5 33  1  0  0  0  0
  6 29  1  0  0  0  0
  6  7  1  0  0  0  0
  6  8  1  0  0  0  0
  8  9  1  0  0  0  0
  8 34  1  0  0  0  0
  8 35  1  0  0  0  0
  9 10  1  0  0  0  0
 10 15  1  0  0  0  0
 10 11  2  0  0  0  0
 11 12  1  0  0  0  0
 12 13  2  0  0  0  0
 12 36  1  0  0  0  0
 13 14  1  0  0  0  0
 14 18  1  0  0  0  0
 14 15  2  0  0  0  0
 15 16  1  0  0  0  0
 16 17  2  0  0  0  0
 17 18  1  0  0  0  0
 17 37  1  0  0  0  0
 18 19  1  0  0  0  0
 19 20  1  0  0  0  0
 19 38  1  0  0  0  0
 19 39  1  0  0  0  0
 20 21  1  0  0  0  0
 20 23  1  0  0  0  0
 20 40  1  0  0  0  0
 21 22  1  0  0  0  0
 21 41  1  0  0  0  0
 21 42  1  0  0  0  0
 22 43  1  0  0  0  0
 23 27  1  0  0  0  0
 23 24  1  0  0  0  0
 23 44  1  0  0  0  0
 24 25  1  0  0  0  0
 24 45  1  0  0  0  0
 24 46  1  0  0  0  0
 25 26  1  0  0  0  0
 25 47  1  0  0  0  0
 25 48  1  0  0  0  0
 26 27  1  0  0  0  0
 27 49  1  0  0  0  0
 27 50  1  0  0  0  0
M  END
> <s_m_source_file>
AV-unprocessed.smi

> <i_m_source_file_index>
221

> <i_lp_mmshare_version>
43012

> <i_f3d_flags>
0

> <s_epik_input>
W05IMl1DKD1PKVtDQEBIXTFbQ0gyXVtDQEBIXShGKVtDSDJdTjFjKG5bY0hdbjIpYyhjMjMpbltjSF1uM1tDSDJdW0NASF0oW0NIMl1bT0hdKVtDQEBIXTRbQ0gyXVtDSDJdT1tDSDJdNA==

> <s_epik_cmdline>
J2VwaWtfcHl0aG9uJywgJy1waCcsICc3LjAnLCAnLXRuJywgJzgnLCAnLW1hJywgJzIwMCcsICctbWV0YWxfYmluZGluZycsICctaW1hZScsICc8aW5maWxlLm1hZT4nLCAnLW9tYWUnLCAnPG91dGZpbGUubWFlPic=

> <r_lp_tautomer_probability>
1

> <r_epik_Ionization_Penalty>
0.000818822

> <r_epik_Ionization_Penalty_Charging>
0

> <r_epik_Ionization_Penalty_Neutral>
0.000818822

> <r_epik_State_Penalty>
0.000440551

> <r_epik_Charging_Adjusted_Penalty>
0.000440551

> <i_epik_Tot_Q>
0

> <i_epik_Tot_abs_Q>
0

> <r_epik_Metal_State_Penalty>
-0

> <b_epik_Metal_Only>
0

> <s_lp_Force_Field>
OPLS_2005

> <r_lp_Energy>
54.2939

> <b_lp_Chiralities_Consistent>
1

> <s_lp_Variant>
AV-unprocessed.smi:221-3

> <Gold.Version>
5.8.1

> <Gold.Id.Protein>
6NUR|6NUR_protein|mol2

> <Gold.PLP.Fitness>
48.6946

> <Gold.PLP.PLP>
-41.4015

> <Gold.PLP.part.hbond>
-3.9204

> <Gold.PLP.part.metal>
0.0000

> <Gold.PLP.part.buried>
-7.2001

> <Gold.PLP.part.nonpolar>
-31.1508

> <Gold.PLP.part.repulsive>
0.3844

> <Gold.PLP.ligand.clash>
0.0000

> <Gold.PLP.ligand.torsion>
1.7130

> <Gold.PLP.Chemscore.Hbond>
2.3500

> <Gold.PLP.Chemscore.CHOScore>
1.0000

> <Gold.PLP.Chemscore.Metal>
0.0000

> <Gold.Chemscore.Hbonds>
donor molecule, donor type, donor heavy atom, donor atom, acceptor molecule, acceptor atom, score
      L1  H    22    43       P1  8029  1.00
      P1  H  6896  6908       L1     3  0.94
      P1  H  7989  7998       L1    13  0.30
      L1  C    12    36       P1  7957  1.00

> <Gold.PLP.Chemscore.Internal.Correction>
0.6690

> <Gold.Rescore>
     Score         DG    S(hbond)    S(metal)    S(lipo)     H(rot)  DE(clash)    DE(int)     intcor
     11.42     -12.91       1.91        0.00      90.50       3.72       0.02       1.46       ----

> <Gold.Chemscore.Fitness>
11.4232

> <Gold.Chemscore.DG>
-12.9095

> <Gold.Chemscore.ZeroCoef>
-5.4800

> <Gold.Chemscore.Hbond>
1.9057

> <Gold.Chemscore.Metal>
0.0000

> <Gold.Chemscore.Lipo>
90.4981

> <Gold.Chemscore.Internal_Hbond>
0.0000

> <Gold.Chemscore.DEClash>
0.0228

> <Gold.Chemscore.DEInternal>
1.4635

> <Gold.Chemscore.Rot>
3.7202

> <Gold.Chemscore.Internal.Correction>
   9.000000E+99

> <Gold.Chemscore.Hbonds>
donor molecule, donor type, donor heavy atom, donor atom, acceptor molecule, acceptor atom, score
      L1  H    22    43       P1  8029  0.65
      P1  H  6896  6908       L1     3  0.86

> <Gold.Chemscore.Hbond.Weighted>
-6.3650

> <Gold.Chemscore.Metal.Weighted>
-0.0000

> <Gold.Chemscore.Lipo.Weighted>
-10.5883

> <Gold.Chemscore.Internal_Hbond.Weighted>
0.0000

> <Gold.Chemscore.DEClash.Weighted>
0.0228

> <Gold.Chemscore.DEInternal.Weighted>
1.4635

> <Gold.Chemscore.Rot.Weighted>
9.5237

> <Gold.Chemscore.Internal.Correction.Weighted>
   9.000000E+99

> <Gold.Protein.RotatedTorsions>
[ 6907 6896 6895 6894 ] final -176.96 input  -60.11 | X-H torsion
[ 7974 7965 7964 7962 ] final -133.94 input  175.53 | X-H torsion
[ 8008 7997 7996 7995 ] final -106.58 input   59.86 | X-H torsion
[ 10167 10162 10161 10158 ] final  111.57 input  -65.29 | X-H torsion
[ 10718 10713 10712 10709 ] final   88.51 input   66.30 | X-H torsion
[ 10763 10752 10751 10750 ] final  -71.15 input  -60.55 | X-H torsion
[ 11005 11000 10999 10996 ] final -131.56 input  -57.11 | X-H torsion

> <Gold.Protein.ActiveResidues>
 VAL166  LYS551  ARG553  GLY616  TRP617  ASP618  TYR619  PRO620  LYS621  CYS622 
 ASP623  PHE694  ASN695  SER759  ASP760  ASP761  ALA762  ILE779  LEU786  VAL792 
 PHE793  MET794  SER795  GLU796  ALA797  LYS798  CYS799  TRP800  GLU811  SER814 

> <Gold.Protein.RotatedAtoms>
  151.6133  133.3345  159.3071 H   0  0  0  0  0  0  0  0  0  0  0  0  # atno 6907 bound_to 6896
  150.8145  134.7322  159.6729 H   0  0  0  0  0  0  0  0  0  0  0  0  # atno 6908 bound_to 6896
  152.4241  134.5907  160.0025 H   0  0  0  0  0  0  0  0  0  0  0  0  # atno 6909 bound_to 6896
  144.9148  140.6940  143.5002 H   0  0  0  0  0  0  0  0  0  0  0  0  # atno 7974 bound_to 7965
  154.9167  140.0408  157.1976 H   0  0  0  0  0  0  0  0  0  0  0  0  # atno 8008 bound_to 7997
  154.8294  140.2896  155.5711 H   0  0  0  0  0  0  0  0  0  0  0  0  # atno 8009 bound_to 7997
  156.2986  140.2503  156.3217 H   0  0  0  0  0  0  0  0  0  0  0  0  # atno 8010 bound_to 7997
  139.6601  144.7129  151.1882 H   0  0  0  0  0  0  0  0  0  0  0  0  # atno 10167 bound_to 10162
  157.6949  131.0297  150.3286 H   0  0  0  0  0  0  0  0  0  0  0  0  # atno 10718 bound_to 10713
  154.4277  135.5971  153.6049 H   0  0  0  0  0  0  0  0  0  0  0  0  # atno 10763 bound_to 10752
  152.9797  135.5967  154.3878 H   0  0  0  0  0  0  0  0  0  0  0  0  # atno 10764 bound_to 10752
  154.3712  135.2841  155.2244 H   0  0  0  0  0  0  0  0  0  0  0  0  # atno 10765 bound_to 10752
  140.9247  134.1398  157.4285 H   0  0  0  0  0  0  0  0  0  0  0  0  # atno 11005 bound_to 11000
  145.3394  139.1736  143.4494 LP  0  0  0  0  0  0  0  0  0  0  0  0  # atno 17320 bound_to 7965
  146.3176  140.3433  142.8650 LP  0  0  0  0  0  0  0  0  0  0  0  0  # atno 17321 bound_to 7965
  140.7576  143.6008  150.8701 LP  0  0  0  0  0  0  0  0  0  0  0  0  # atno 17342 bound_to 10162
  139.9665  143.6105  152.2987 LP  0  0  0  0  0  0  0  0  0  0  0  0  # atno 17343 bound_to 10162
  156.3763  130.3872  149.7136 LP  0  0  0  0  0  0  0  0  0  0  0  0  # atno 17370 bound_to 10713
  156.4534  130.7917  151.2938 LP  0  0  0  0  0  0  0  0  0  0  0  0  # atno 17371 bound_to 10713
  139.8783  134.9984  156.5898 LP  0  0  0  0  0  0  0  0  0  0  0  0  # atno 17394 bound_to 11000
  140.7941  133.8558  155.8671 LP  0  0  0  0  0  0  0  0  0  0  0  0  # atno 17395 bound_to 11000

$$$$
