AV-unprocessed.smi:447|AV-procd|sdf|2597|dock8
  -GOLD-   2262022593D 1   1.00000     0.00000
 Structure written by MMmdl.
 45 47  0  0  0  0  0  0  0  0  1 V2000
  151.9522  138.0470  154.2184 C   0  0  0  0  0  0  0  0  0  0  0  0
  152.0877  137.7461  155.7070 C   0  0  0  0  0  0  0  0  0  0  0  0
  152.2734  136.5912  156.0878 O   0  0  0  0  0  0  0  0  0  0  0  0
  151.9938  138.7983  156.5344 N   0  0  0  0  0  0  0  0  0  0  0  0
  152.1108  138.7509  157.9924 C   0  0  2  0  0  0  0  0  0  0  0  0
  150.9954  137.8683  158.5685 C   0  0  0  0  0  0  0  0  0  0  0  0
  152.0574  140.1547  158.5475 C   0  0  0  0  0  0  0  0  0  0  0  0
  153.0043  140.6448  159.3545 N   0  0  0  0  0  0  0  0  0  0  0  0
  152.5696  141.9317  159.5970 C   0  0  0  0  0  0  0  0  0  0  0  0
  153.1313  142.9566  160.3918 C   0  0  0  0  0  0  0  0  0  0  0  0
  152.4995  144.2140  160.4855 C   0  0  0  0  0  0  0  0  0  0  0  0
  151.3013  144.4644  159.7857 C   0  0  0  0  0  0  0  0  0  0  0  0
  150.7268  143.4571  158.9868 C   0  0  0  0  0  0  0  0  0  0  0  0
  151.3601  142.2028  158.8995 C   0  0  0  0  0  0  0  0  0  0  0  0
  151.0675  141.0263  158.2175 N   0  0  0  0  0  0  0  0  0  0  0  0
  149.9261  140.8248  157.3330 C   0  0  0  0  0  0  0  0  0  0  0  0
  150.1714  141.3594  155.9082 C   0  0  2  0  0  0  0  0  0  0  0  0
  150.2554  142.7704  155.9253 O   0  0  0  0  0  0  0  0  0  0  0  0
  149.1079  140.8598  154.9431 C   0  0  0  0  0  0  0  0  0  0  0  0
  148.1954  141.7690  154.3657 C   0  0  0  0  0  0  0  0  0  0  0  0
  147.2130  141.3129  153.4649 C   0  0  0  0  0  0  0  0  0  0  0  0
  147.1390  139.9459  153.1350 C   0  0  0  0  0  0  0  0  0  0  0  0
  148.0492  139.0350  153.7045 C   0  0  0  0  0  0  0  0  0  0  0  0
  149.0319  139.4905  154.6048 C   0  0  0  0  0  0  0  0  0  0  0  0
  152.6141  138.8645  153.9305 H   0  0  0  0  0  0  0  0  0  0  0  0
  150.9264  138.3308  153.9809 H   0  0  0  0  0  0  0  0  0  0  0  0
  152.2123  137.1724  153.6211 H   0  0  0  0  0  0  0  0  0  0  0  0
  151.8499  139.7089  156.1231 H   0  0  0  0  0  0  0  0  0  0  0  0
  153.0711  138.2960  158.2366 H   0  0  0  0  0  0  0  0  0  0  0  0
  151.0730  137.7978  159.6537 H   0  0  0  0  0  0  0  0  0  0  0  0
  151.0499  136.8556  158.1681 H   0  0  0  0  0  0  0  0  0  0  0  0
  150.0090  138.2692  158.3322 H   0  0  0  0  0  0  0  0  0  0  0  0
  154.0494  142.7745  160.9304 H   0  0  0  0  0  0  0  0  0  0  0  0
  152.9372  144.9901  161.0962 H   0  0  0  0  0  0  0  0  0  0  0  0
  150.8241  145.4305  159.8620 H   0  0  0  0  0  0  0  0  0  0  0  0
  149.8095  143.6455  158.4489 H   0  0  0  0  0  0  0  0  0  0  0  0
  149.7229  139.7540  157.2907 H   0  0  0  0  0  0  0  0  0  0  0  0
  149.0352  141.2742  157.7700 H   0  0  0  0  0  0  0  0  0  0  0  0
  151.1411  140.9991  155.5619 H   0  0  0  0  0  0  0  0  0  0  0  0
  149.4038  143.1251  155.7206 H   0  0  0  0  0  0  0  0  0  0  0  0
  148.2458  142.8199  154.6106 H   0  0  0  0  0  0  0  0  0  0  0  0
  146.5165  142.0123  153.0261 H   0  0  0  0  0  0  0  0  0  0  0  0
  146.3859  139.5963  152.4441 H   0  0  0  0  0  0  0  0  0  0  0  0
  147.9948  137.9867  153.4500 H   0  0  0  0  0  0  0  0  0  0  0  0
  149.7288  138.7850  155.0335 H   0  0  0  0  0  0  0  0  0  0  0  0
  1  2  1  0  0  0  0
  1 25  1  0  0  0  0
  1 26  1  0  0  0  0
  1 27  1  0  0  0  0
  2  3  2  0  0  0  0
  2  4  1  0  0  0  0
  4  5  1  0  0  0  0
  4 28  1  0  0  0  0
  5  6  1  0  0  0  0
  5  7  1  0  0  0  0
  5 29  1  0  0  0  0
  6 30  1  0  0  0  0
  6 31  1  0  0  0  0
  6 32  1  0  0  0  0
  7 15  1  0  0  0  0
  7  8  2  0  0  0  0
  8  9  1  0  0  0  0
  9 14  2  0  0  0  0
  9 10  1  0  0  0  0
 10 11  2  0  0  0  0
 10 33  1  0  0  0  0
 11 12  1  0  0  0  0
 11 34  1  0  0  0  0
 12 13  2  0  0  0  0
 12 35  1  0  0  0  0
 13 14  1  0  0  0  0
 13 36  1  0  0  0  0
 14 15  1  0  0  0  0
 15 16  1  0  0  0  0
 16 17  1  0  0  0  0
 16 37  1  0  0  0  0
 16 38  1  0  0  0  0
 17 18  1  0  0  0  0
 17 19  1  0  0  0  0
 17 39  1  0  0  0  0
 18 40  1  0  0  0  0
 19 24  1  0  0  0  0
 19 20  2  0  0  0  0
 20 21  1  0  0  0  0
 20 41  1  0  0  0  0
 21 22  2  0  0  0  0
 21 42  1  0  0  0  0
 22 23  1  0  0  0  0
 22 43  1  0  0  0  0
 23 24  2  0  0  0  0
 23 44  1  0  0  0  0
 24 45  1  0  0  0  0
M  END
> <s_m_source_file>
AV-unprocessed.smi

> <i_m_source_file_index>
447

> <i_lp_mmshare_version>
43012

> <i_f3d_flags>
0

> <s_epik_input>
W0NIM11DKD1PKVtOSF1bQ0BIXShbQ0gzXSljKG4xKW4oYyhjMTIpW2NIXVtjSF1bY0hdW2NIXTIpW0NIMl1bQ0BIXShbT0hdKWMzW2NIXVtjSF1bY0hdW2NIXVtjSF0z

> <s_epik_cmdline>
J2VwaWtfcHl0aG9uJywgJy1waCcsICc3LjAnLCAnLXRuJywgJzgnLCAnLW1hJywgJzIwMCcsICctbWV0YWxfYmluZGluZycsICctaW1hZScsICc8aW5maWxlLm1hZT4nLCAnLW9tYWUnLCAnPG91dGZpbGUubWFlPic=

> <r_epik_Ionization_Penalty>
0.13301

> <r_epik_Ionization_Penalty_Charging>
0

> <r_epik_Ionization_Penalty_Neutral>
0.13301

> <r_epik_State_Penalty>
0.122384

> <r_epik_Charging_Adjusted_Penalty>
0.122384

> <i_epik_Tot_Q>
0

> <i_epik_Tot_abs_Q>
0

> <r_epik_Metal_State_Penalty>
0.0997374

> <b_epik_Metal_Only>
0

> <s_lp_Force_Field>
OPLS_2005

> <r_lp_Energy>
7.61604

> <b_lp_Chiralities_Consistent>
1

> <s_lp_Variant>
AV-unprocessed.smi:447-1

> <Gold.Version>
5.8.1

> <Gold.Id.Protein>
6NUR|6NUR_protein|mol2

> <Gold.PLP.Fitness>
50.7353

> <Gold.PLP.PLP>
-47.1279

> <Gold.PLP.part.hbond>
-1.7115

> <Gold.PLP.part.metal>
0.0000

> <Gold.PLP.part.buried>
-6.9034

> <Gold.PLP.part.nonpolar>
-38.8603

> <Gold.PLP.part.repulsive>
0.0965

> <Gold.PLP.ligand.clash>
0.0000

> <Gold.PLP.ligand.torsion>
0.6822

> <Gold.PLP.Chemscore.Hbond>
1.6400

> <Gold.PLP.Chemscore.CHOScore>
0.0000

> <Gold.PLP.Chemscore.Metal>
0.0000

> <Gold.Chemscore.Hbonds>
donor molecule, donor type, donor heavy atom, donor atom, acceptor molecule, acceptor atom, score
      L1  H    18    40       P1  8028  0.61
      P1  H 10752 10763       L1     3  1.00

> <Gold.PLP.Chemscore.Internal.Correction>
0.0519

> <Gold.Rescore>
     Score         DG    S(hbond)    S(metal)    S(lipo)     H(rot)  DE(clash)    DE(int)     intcor
     18.80     -19.77       1.49        0.00     131.22       2.35       0.45       0.52       ----

> <Gold.Chemscore.Fitness>
18.8015

> <Gold.Chemscore.DG>
-19.7731

> <Gold.Chemscore.ZeroCoef>
-5.4800

> <Gold.Chemscore.Hbond>
1.4861

> <Gold.Chemscore.Metal>
0.0000

> <Gold.Chemscore.Lipo>
131.2190

> <Gold.Chemscore.Internal_Hbond>
0.0000

> <Gold.Chemscore.DEClash>
0.4538

> <Gold.Chemscore.DEInternal>
0.5178

> <Gold.Chemscore.Rot>
2.3528

> <Gold.Chemscore.Internal.Correction>
   9.000000E+99

> <Gold.Chemscore.Hbonds>
donor molecule, donor type, donor heavy atom, donor atom, acceptor molecule, acceptor atom, score
      L1  H    18    40       P1  8028  0.60
      P1  H 10752 10763       L1     3  0.93

> <Gold.Chemscore.Hbond.Weighted>
-4.9636

> <Gold.Chemscore.Metal.Weighted>
-0.0000

> <Gold.Chemscore.Lipo.Weighted>
-15.3526

> <Gold.Chemscore.Internal_Hbond.Weighted>
0.0000

> <Gold.Chemscore.DEClash.Weighted>
0.4538

> <Gold.Chemscore.DEInternal.Weighted>
0.5178

> <Gold.Chemscore.Rot.Weighted>
6.0231

> <Gold.Chemscore.Internal.Correction.Weighted>
   9.000000E+99

> <Gold.Protein.RotatedTorsions>
[ 6907 6896 6895 6894 ] final  -20.47 input  -60.11 | X-H torsion
[ 7974 7965 7964 7962 ] final -135.55 input  175.53 | X-H torsion
[ 8008 7997 7996 7995 ] final   33.43 input   59.86 | X-H torsion
[ 10167 10162 10161 10158 ] final -108.33 input  -65.29 | X-H torsion
[ 10718 10713 10712 10709 ] final -113.25 input   66.30 | X-H torsion
[ 10763 10752 10751 10750 ] final   82.37 input  -60.55 | X-H torsion
[ 11005 11000 10999 10996 ] final   54.13 input  -57.11 | X-H torsion

> <Gold.Protein.ActiveResidues>
 VAL166  LYS551  ARG553  GLY616  TRP617  ASP618  TYR619  PRO620  LYS621  CYS622 
 ASP623  PHE694  ASN695  SER759  ASP760  ASP761  ALA762  ILE779  LEU786  VAL792 
 PHE793  MET794  SER795  GLU796  ALA797  LYS798  CYS799  TRP800  GLU811  SER814 

> <Gold.Protein.RotatedAtoms>
  151.2476  135.0611  159.9049 H   0  0  0  0  0  0  0  0  0  0  0  0  # atno 6907 bound_to 6896
  152.5384  134.0366  159.8059 H   0  0  0  0  0  0  0  0  0  0  0  0  # atno 6908 bound_to 6896
  151.0570  133.5527  159.2669 H   0  0  0  0  0  0  0  0  0  0  0  0  # atno 6909 bound_to 6896
  144.9004  140.6764  143.5088 H   0  0  0  0  0  0  0  0  0  0  0  0  # atno 7974 bound_to 7965
  155.1384  140.3264  155.4457 H   0  0  0  0  0  0  0  0  0  0  0  0  # atno 8008 bound_to 7997
  156.2612  140.1998  156.6450 H   0  0  0  0  0  0  0  0  0  0  0  0  # atno 8009 bound_to 7997
  154.6560  140.0553  156.9996 H   0  0  0  0  0  0  0  0  0  0  0  0  # atno 8010 bound_to 7997
  140.1673  143.4071  152.1381 H   0  0  0  0  0  0  0  0  0  0  0  0  # atno 10167 bound_to 10162
  156.0755  130.5963  150.8617 H   0  0  0  0  0  0  0  0  0  0  0  0  # atno 10718 bound_to 10713
  153.1196  135.4731  154.9174 H   0  0  0  0  0  0  0  0  0  0  0  0  # atno 10763 bound_to 10752
  154.7563  135.3119  154.8466 H   0  0  0  0  0  0  0  0  0  0  0  0  # atno 10764 bound_to 10752
  153.9034  135.6872  153.4808 H   0  0  0  0  0  0  0  0  0  0  0  0  # atno 10765 bound_to 10752
  140.0711  134.5468  155.9045 H   0  0  0  0  0  0  0  0  0  0  0  0  # atno 11005 bound_to 11000
  145.3626  139.1678  143.4375 LP  0  0  0  0  0  0  0  0  0  0  0  0  # atno 17320 bound_to 7965
  146.3105  140.3689  142.8672 LP  0  0  0  0  0  0  0  0  0  0  0  0  # atno 17321 bound_to 7965
  139.5354  144.7203  151.4913 LP  0  0  0  0  0  0  0  0  0  0  0  0  # atno 17342 bound_to 10162
  140.6604  143.8509  150.6882 LP  0  0  0  0  0  0  0  0  0  0  0  0  # atno 17343 bound_to 10162
  157.5848  131.0945  150.9213 LP  0  0  0  0  0  0  0  0  0  0  0  0  # atno 17370 bound_to 10713
  156.9402  130.5381  149.5280 LP  0  0  0  0  0  0  0  0  0  0  0  0  # atno 17371 bound_to 10713
  141.2012  133.6617  156.5938 LP  0  0  0  0  0  0  0  0  0  0  0  0  # atno 17394 bound_to 11000
  140.3625  134.7675  157.4544 LP  0  0  0  0  0  0  0  0  0  0  0  0  # atno 17395 bound_to 11000

$$$$
