AV-unprocessed.smi:2442|AV-procd|sdf|9629|dock6
  -GOLD-   2272013263D 1   1.00000     0.00000
 Structure written by MMmdl.
 47 48  0  0  0  0  0  0  0  0  2 V2000
  148.0557  140.6673  154.3829 C   0  0  0  0  0  0  0  0  0  0  0  0
  148.7678  139.4639  154.1401 O   0  0  0  0  0  0  0  0  0  0  0  0
  149.3466  138.8741  155.3016 C   0  0  2  0  0  0  0  0  0  0  0  0
  150.1121  139.9264  156.1334 C   0  0  0  0  0  0  0  0  0  0  0  0
  151.3292  140.4802  155.3740 C   0  0  0  0  0  0  0  0  0  0  0  0
  152.2680  139.3495  154.9258 C   0  0  0  0  0  0  0  0  0  0  0  0
  151.5182  138.3001  154.0905 C   0  0  0  0  0  0  0  0  0  0  0  0
  150.2992  137.7433  154.8564 C   0  0  2  0  0  0  0  0  0  0  0  0
  149.5727  136.7634  154.0529 N   0  0  0  0  0  0  0  0  0  0  0  0
  148.7321  135.8385  154.5362 C   0  0  0  0  0  0  0  0  0  0  0  0
  148.4764  135.6944  155.7319 O   0  0  0  0  0  0  0  0  0  0  0  0
  148.2015  135.0882  153.5618 N   0  0  0  0  0  0  0  0  0  0  0  0
  147.2540  134.0044  153.7850 C   0  0  0  0  0  0  0  0  0  0  0  0
  147.0217  133.2081  152.4938 C   0  0  0  0  0  0  0  0  0  0  0  0
  145.6586  133.4962  151.8828 C   0  0  0  0  0  0  0  0  0  0  0  0
  145.2720  134.8394  151.6736 C   0  0  0  0  0  0  0  0  0  0  0  0
  144.0093  135.1213  151.1158 C   0  0  0  0  0  0  0  0  0  0  0  0
  143.1810  134.1080  150.7862 N   0  3  0  0  0  0  0  0  0  0  0  0
  143.5057  132.8100  150.9682 C   0  0  0  0  0  0  0  0  0  0  0  0
  144.7559  132.4603  151.5250 C   0  0  0  0  0  0  0  0  0  0  0  0
  145.0964  130.9941  151.7246 C   0  0  0  0  0  0  0  0  0  0  0  0
  147.6193  141.0238  153.4500 H   0  0  0  0  0  0  0  0  0  0  0  0
  148.7039  141.4552  154.7647 H   0  0  0  0  0  0  0  0  0  0  0  0
  147.2417  140.5088  155.0912 H   0  0  0  0  0  0  0  0  0  0  0  0
  148.5577  138.4338  155.9144 H   0  0  0  0  0  0  0  0  0  0  0  0
  149.4563  140.7428  156.4335 H   0  0  0  0  0  0  0  0  0  0  0  0
  150.4533  139.4657  157.0614 H   0  0  0  0  0  0  0  0  0  0  0  0
  150.9932  141.0444  154.5031 H   0  0  0  0  0  0  0  0  0  0  0  0
  151.8723  141.1834  156.0060 H   0  0  0  0  0  0  0  0  0  0  0  0
  153.0976  139.7605  154.3498 H   0  0  0  0  0  0  0  0  0  0  0  0
  152.7075  138.8713  155.8022 H   0  0  0  0  0  0  0  0  0  0  0  0
  151.1950  138.7466  153.1491 H   0  0  0  0  0  0  0  0  0  0  0  0
  152.2017  137.4917  153.8284 H   0  0  0  0  0  0  0  0  0  0  0  0
  150.6613  137.2456  155.7584 H   0  0  0  0  0  0  0  0  0  0  0  0
  149.7233  136.7993  153.0553 H   0  0  0  0  0  0  0  0  0  0  0  0
  148.4736  135.2767  152.6080 H   0  0  0  0  0  0  0  0  0  0  0  0
  147.6414  133.3538  154.5701 H   0  0  0  0  0  0  0  0  0  0  0  0
  146.3046  134.4083  154.1418 H   0  0  0  0  0  0  0  0  0  0  0  0
  147.7908  133.4639  151.7633 H   0  0  0  0  0  0  0  0  0  0  0  0
  147.1364  132.1403  152.6800 H   0  0  0  0  0  0  0  0  0  0  0  0
  145.9357  135.6489  151.9417 H   0  0  0  0  0  0  0  0  0  0  0  0
  143.6398  136.1186  150.9261 H   0  0  0  0  0  0  0  0  0  0  0  0
  142.7559  132.0937  150.6646 H   0  0  0  0  0  0  0  0  0  0  0  0
  144.2359  130.3576  151.5158 H   0  0  0  0  0  0  0  0  0  0  0  0
  145.4088  130.8049  152.7517 H   0  0  0  0  0  0  0  0  0  0  0  0
  145.9037  130.6964  151.0550 H   0  0  0  0  0  0  0  0  0  0  0  0
  142.2706  134.3319  150.3834 H   0  0  0  0  0  0  0  0  0  0  0  0
  1  2  1  0  0  0  0
  1 22  1  0  0  0  0
  1 23  1  0  0  0  0
  1 24  1  0  0  0  0
  2  3  1  0  0  0  0
  3  8  1  0  0  0  0
  3  4  1  0  0  0  0
  3 25  1  0  0  0  0
  4  5  1  0  0  0  0
  4 26  1  0  0  0  0
  4 27  1  0  0  0  0
  5  6  1  0  0  0  0
  5 28  1  0  0  0  0
  5 29  1  0  0  0  0
  6  7  1  0  0  0  0
  6 30  1  0  0  0  0
  6 31  1  0  0  0  0
  7  8  1  0  0  0  0
  7 32  1  0  0  0  0
  7 33  1  0  0  0  0
  8  9  1  0  0  0  0
  8 34  1  0  0  0  0
  9 10  1  0  0  0  0
  9 35  1  0  0  0  0
 10 11  2  0  0  0  0
 10 12  1  0  0  0  0
 12 13  1  0  0  0  0
 12 36  1  0  0  0  0
 13 14  1  0  0  0  0
 13 37  1  0  0  0  0
 13 38  1  0  0  0  0
 14 15  1  0  0  0  0
 14 39  1  0  0  0  0
 14 40  1  0  0  0  0
 15 20  1  0  0  0  0
 15 16  2  0  0  0  0
 16 17  1  0  0  0  0
 16 41  1  0  0  0  0
 17 18  2  0  0  0  0
 17 42  1  0  0  0  0
 18 19  1  0  0  0  0
 18 47  1  0  0  0  0
 19 20  2  0  0  0  0
 19 43  1  0  0  0  0
 20 21  1  0  0  0  0
 21 44  1  0  0  0  0
 21 45  1  0  0  0  0
 21 46  1  0  0  0  0
M  CHG  1  18   1
M  END
> <s_m_source_file>
AV-unprocessed.smi

> <i_m_source_file_index>
2442

> <i_lp_mmshare_version>
43012

> <i_f3d_flags>
0

> <s_epik_input>
W0NIM11PW0NAQEhdMVtDSDJdW0NIMl1bQ0gyXVtDSDJdW0NASF0xW05IXUMoPU8pW05IXVtDSDJdW0NIMl1jMltjSF1bY0hdbltjSF1jMltDSDNd

> <s_epik_cmdline>
J2VwaWtfcHl0aG9uJywgJy1waCcsICc3LjAnLCAnLXRuJywgJzgnLCAnLW1hJywgJzIwMCcsICctbWV0YWxfYmluZGluZycsICctaW1hZScsICc8aW5maWxlLm1hZT4nLCAnLW9tYWUnLCAnPG91dGZpbGUubWFlPic=

> <r_epik_Ionization_Penalty>
1.07145

> <r_epik_Ionization_Penalty_Charging>
1.0714

> <r_epik_Ionization_Penalty_Neutral>
4.9109e-05

> <r_epik_State_Penalty>
1.12601

> <r_epik_Charging_Adjusted_Penalty>
2.19741

> <i_epik_Tot_Q>
1

> <i_epik_Tot_abs_Q>
1

> <r_epik_Metal_State_Penalty>
1.2173

> <b_epik_Metal_Only>
0

> <s_lp_Force_Field>
OPLS_2005

> <r_lp_Energy>
16.8817

> <b_lp_Chiralities_Consistent>
1

> <s_lp_Variant>
AV-unprocessed.smi:2442-7

> <Gold.Version>
5.8.1

> <Gold.Id.Protein>
6NUR|6NUR_protein|mol2

> <Gold.PLP.Fitness>
43.4668

> <Gold.PLP.PLP>
-34.4871

> <Gold.PLP.part.hbond>
-2.6192

> <Gold.PLP.part.metal>
0.0000

> <Gold.PLP.part.buried>
-3.9010

> <Gold.PLP.part.nonpolar>
-28.2438

> <Gold.PLP.part.repulsive>
0.4022

> <Gold.PLP.ligand.clash>
0.0000

> <Gold.PLP.ligand.torsion>
0.7538

> <Gold.PLP.Chemscore.Hbond>
3.4720

> <Gold.PLP.Chemscore.CHOScore>
0.0000

> <Gold.PLP.Chemscore.Metal>
0.0000

> <Gold.Chemscore.Hbonds>
donor molecule, donor type, donor heavy atom, donor atom, acceptor molecule, acceptor atom, score
      L1  H     9    35       P1  7948  0.63
      L1  H    12    36       P1  7948  0.29
      L1  H    18    47       P1 10186  1.89

> <Gold.PLP.Chemscore.Internal.Correction>
0.0712

> <Gold.Rescore>
     Score         DG    S(hbond)    S(metal)    S(lipo)     H(rot)  DE(clash)    DE(int)     intcor
     19.16     -19.72       2.77        0.00      80.40       1.72       0.05       0.51       ----

> <Gold.Chemscore.Fitness>
19.1646

> <Gold.Chemscore.DG>
-19.7227

> <Gold.Chemscore.ZeroCoef>
-5.4800

> <Gold.Chemscore.Hbond>
2.7697

> <Gold.Chemscore.Metal>
0.0000

> <Gold.Chemscore.Lipo>
80.3969

> <Gold.Chemscore.Internal_Hbond>
0.0000

> <Gold.Chemscore.DEClash>
0.0451

> <Gold.Chemscore.DEInternal>
0.5130

> <Gold.Chemscore.Rot>
1.7244

> <Gold.Chemscore.Internal.Correction>
   9.000000E+99

> <Gold.Chemscore.Hbonds>
donor molecule, donor type, donor heavy atom, donor atom, acceptor molecule, acceptor atom, score
      L1  H     9    35       P1  7948  0.18
      L1  H    12    36       P1  7948  0.23
      L1  H    18    47       P1 10186  0.45

> <Gold.Chemscore.Hbond.Weighted>
-9.2507

> <Gold.Chemscore.Metal.Weighted>
-0.0000

> <Gold.Chemscore.Lipo.Weighted>
-9.4064

> <Gold.Chemscore.Internal_Hbond.Weighted>
0.0000

> <Gold.Chemscore.DEClash.Weighted>
0.0451

> <Gold.Chemscore.DEInternal.Weighted>
0.5130

> <Gold.Chemscore.Rot.Weighted>
4.4145

> <Gold.Chemscore.Internal.Correction.Weighted>
   9.000000E+99

> <Gold.Protein.RotatedTorsions>
[ 6907 6896 6895 6894 ] final -132.54 input  -60.11 | X-H torsion
[ 7974 7965 7964 7962 ] final -165.58 input  175.53 | X-H torsion
[ 8008 7997 7996 7995 ] final -140.59 input   59.86 | X-H torsion
[ 10167 10162 10161 10158 ] final -162.59 input  -65.29 | X-H torsion
[ 10718 10713 10712 10709 ] final -102.84 input   66.30 | X-H torsion
[ 10763 10752 10751 10750 ] final   39.73 input  -60.55 | X-H torsion
[ 11005 11000 10999 10996 ] final -141.21 input  -57.11 | X-H torsion

> <Gold.Protein.ActiveResidues>
 VAL166  LYS551  ARG553  GLY616  TRP617  ASP618  TYR619  PRO620  LYS621  CYS622 
 ASP623  PHE694  ASN695  SER759  ASP760  ASP761  ALA762  ILE779  LEU786  VAL792 
 PHE793  MET794  SER795  GLU796  ALA797  LYS798  CYS799  TRP800  GLU811  SER814 

> <Gold.Protein.RotatedAtoms>
  150.9636  133.6419  159.2749 H   0  0  0  0  0  0  0  0  0  0  0  0  # atno 6907 bound_to 6896
  151.3732  135.0925  159.9482 H   0  0  0  0  0  0  0  0  0  0  0  0  # atno 6908 bound_to 6896
  152.5157  133.9186  159.7578 H   0  0  0  0  0  0  0  0  0  0  0  0  # atno 6909 bound_to 6896
  144.7266  140.2793  143.6238 H   0  0  0  0  0  0  0  0  0  0  0  0  # atno 7974 bound_to 7965
  155.4639  140.0548  157.2987 H   0  0  0  0  0  0  0  0  0  0  0  0  # atno 8008 bound_to 7997
  154.4726  140.2047  155.9912 H   0  0  0  0  0  0  0  0  0  0  0  0  # atno 8009 bound_to 7997
  156.1080  140.3208  155.8038 H   0  0  0  0  0  0  0  0  0  0  0  0  # atno 8010 bound_to 7997
  139.6381  144.0311  152.2071 H   0  0  0  0  0  0  0  0  0  0  0  0  # atno 10167 bound_to 10162
  156.0243  130.5439  150.7167 H   0  0  0  0  0  0  0  0  0  0  0  0  # atno 10718 bound_to 10713
  152.9958  135.6212  154.2512 H   0  0  0  0  0  0  0  0  0  0  0  0  # atno 10763 bound_to 10752
  154.2250  135.2794  155.2912 H   0  0  0  0  0  0  0  0  0  0  0  0  # atno 10764 bound_to 10752
  154.5497  135.5737  153.6969 H   0  0  0  0  0  0  0  0  0  0  0  0  # atno 10765 bound_to 10752
  140.8347  134.2475  157.4840 H   0  0  0  0  0  0  0  0  0  0  0  0  # atno 11005 bound_to 11000
  145.7966  139.1947  143.2072 LP  0  0  0  0  0  0  0  0  0  0  0  0  # atno 17320 bound_to 7965
  146.0712  140.7867  142.9687 LP  0  0  0  0  0  0  0  0  0  0  0  0  # atno 17321 bound_to 7965
  139.9993  144.6305  150.7744 LP  0  0  0  0  0  0  0  0  0  0  0  0  # atno 17342 bound_to 10162
  140.7476  143.2909  151.3332 LP  0  0  0  0  0  0  0  0  0  0  0  0  # atno 17343 bound_to 10162
  157.4792  131.0901  151.0555 LP  0  0  0  0  0  0  0  0  0  0  0  0  # atno 17370 bound_to 10713
  157.0993  130.5975  149.5457 LP  0  0  0  0  0  0  0  0  0  0  0  0  # atno 17371 bound_to 10713
  139.8704  134.9604  156.4363 LP  0  0  0  0  0  0  0  0  0  0  0  0  # atno 17394 bound_to 11000
  140.8961  133.7813  155.9626 LP  0  0  0  0  0  0  0  0  0  0  0  0  # atno 17395 bound_to 11000

$$$$
