AV-unprocessed.smi:1833|AV-procd|sdf|7465|dock1
  -GOLD-   22720 9153D 1   1.00000     0.00000
 Structure written by MMmdl.
 42 43  0  0  0  0  0  0  0  0  2 V2000
  145.9098  134.4321  152.6143 C   0  0  0  0  0  0  0  0  0  0  0  0
  146.1487  135.5089  153.6827 C   0  0  0  0  0  0  0  0  0  0  0  0
  146.7300  136.7535  153.1192 N   0  3  1  0  0  0  0  0  0  0  0  0
  145.8388  137.3798  152.1077 C   0  0  0  0  0  0  0  0  0  0  0  0
  146.5174  138.5858  151.4368 C   0  0  0  0  0  0  0  0  0  0  0  0
  146.9675  139.6168  152.4798 C   0  0  0  0  0  0  0  0  0  0  0  0
  147.8622  138.9414  153.5310 C   0  0  1  0  0  0  0  0  0  0  0  0
  148.2290  139.8985  154.5715 N   0  0  0  0  0  0  0  0  0  0  0  0
  149.4806  140.2252  154.9242 C   0  0  0  0  0  0  0  0  0  0  0  0
  150.4920  139.7508  154.4075 O   0  0  0  0  0  0  0  0  0  0  0  0
  149.4974  141.1311  155.9117 N   0  0  0  0  0  0  0  0  0  0  0  0
  150.7037  141.6730  156.5264 C   0  0  0  0  0  0  0  0  0  0  0  0
  150.7570  141.3780  158.0340 C   0  0  0  0  0  0  0  0  0  0  0  0
  151.3807  142.4902  158.8081 C   0  0  0  0  0  0  0  0  0  0  0  0
  151.4361  142.5186  160.1426 N   0  0  0  0  0  0  0  0  0  0  0  0
  152.0385  143.6819  160.6278 C   0  0  0  0  0  0  0  0  0  0  0  0
  152.4296  144.5491  159.6393 C   0  0  0  0  0  0  0  0  0  0  0  0
  152.0533  143.9321  158.0539 S   0  0  0  0  0  0  0  0  0  0  0  0
  147.1444  137.7326  154.1598 C   0  0  0  0  0  0  0  0  0  0  0  0
  145.3938  133.5741  153.0456 H   0  0  0  0  0  0  0  0  0  0  0  0
  146.8413  134.0634  152.1859 H   0  0  0  0  0  0  0  0  0  0  0  0
  145.2913  134.8132  151.8011 H   0  0  0  0  0  0  0  0  0  0  0  0
  145.1854  135.7391  154.1398 H   0  0  0  0  0  0  0  0  0  0  0  0
  146.7853  135.1254  154.4814 H   0  0  0  0  0  0  0  0  0  0  0  0
  145.5764  136.6482  151.3425 H   0  0  0  0  0  0  0  0  0  0  0  0
  144.9068  137.6887  152.5837 H   0  0  0  0  0  0  0  0  0  0  0  0
  147.3801  138.2470  150.8613 H   0  0  0  0  0  0  0  0  0  0  0  0
  145.8347  139.0503  150.7248 H   0  0  0  0  0  0  0  0  0  0  0  0
  147.5028  140.4326  151.9921 H   0  0  0  0  0  0  0  0  0  0  0  0
  146.0924  140.0582  152.9592 H   0  0  0  0  0  0  0  0  0  0  0  0
  148.7588  138.5710  153.0299 H   0  0  0  0  0  0  0  0  0  0  0  0
  147.4698  140.3507  155.0602 H   0  0  0  0  0  0  0  0  0  0  0  0
  148.6149  141.4648  156.2711 H   0  0  0  0  0  0  0  0  0  0  0  0
  151.5644  141.2236  156.0304 H   0  0  0  0  0  0  0  0  0  0  0  0
  150.7660  142.7475  156.3439 H   0  0  0  0  0  0  0  0  0  0  0  0
  149.7533  141.2034  158.4243 H   0  0  0  0  0  0  0  0  0  0  0  0
  151.3261  140.4663  158.2185 H   0  0  0  0  0  0  0  0  0  0  0  0
  152.1459  143.8126  161.6945 H   0  0  0  0  0  0  0  0  0  0  0  0
  152.9112  145.5095  159.7473 H   0  0  0  0  0  0  0  0  0  0  0  0
  146.2669  138.0592  154.7206 H   0  0  0  0  0  0  0  0  0  0  0  0
  147.8166  137.2580  154.8741 H   0  0  0  0  0  0  0  0  0  0  0  0
  147.5668  136.4790  152.6244 H   0  0  0  0  0  0  0  0  0  0  0  0
  1  2  1  0  0  0  0
  1 20  1  0  0  0  0
  1 21  1  0  0  0  0
  1 22  1  0  0  0  0
  2  3  1  0  0  0  0
  2 23  1  0  0  0  0
  2 24  1  0  0  0  0
  3 19  1  0  0  0  0
  3  4  1  0  0  0  0
  3 42  1  0  0  0  0
  4  5  1  0  0  0  0
  4 25  1  0  0  0  0
  4 26  1  0  0  0  0
  5  6  1  0  0  0  0
  5 27  1  0  0  0  0
  5 28  1  0  0  0  0
  6  7  1  0  0  0  0
  6 29  1  0  0  0  0
  6 30  1  0  0  0  0
  7  8  1  0  0  0  0
  7 19  1  0  0  0  0
  7 31  1  0  0  0  0
  8  9  1  0  0  0  0
  8 32  1  0  0  0  0
  9 10  2  0  0  0  0
  9 11  1  0  0  0  0
 11 12  1  0  0  0  0
 11 33  1  0  0  0  0
 12 13  1  0  0  0  0
 12 34  1  0  0  0  0
 12 35  1  0  0  0  0
 13 14  1  0  0  0  0
 13 36  1  0  0  0  0
 13 37  1  0  0  0  0
 14 18  1  0  0  0  0
 14 15  2  0  0  0  0
 15 16  1  0  0  0  0
 16 17  2  0  0  0  0
 16 38  1  0  0  0  0
 17 18  1  0  0  0  0
 17 39  1  0  0  0  0
 19 40  1  0  0  0  0
 19 41  1  0  0  0  0
M  CHG  1   3   1
M  END
> <s_m_source_file>
AV-unprocessed.smi

> <i_m_source_file_index>
1833

> <i_lp_mmshare_version>
43012

> <i_f3d_flags>
0

> <s_epik_input>
W0NIM11bQ0gyXU4xW0NIMl1bQ0gyXVtDSDJdW0NASF0oW0NIMl0xKVtOSF1DKD1PKVtOSF1bQ0gyXVtDSDJdYzJuW2NIXVtjSF1zMg==

> <s_epik_cmdline>
J2VwaWtfcHl0aG9uJywgJy1waCcsICc3LjAnLCAnLXRuJywgJzgnLCAnLW1hJywgJzIwMCcsICctbWV0YWxfYmluZGluZycsICctaW1hZScsICc8aW5maWxlLm1hZT4nLCAnLW9tYWUnLCAnPG91dGZpbGUubWFlPic=

> <r_lp_tautomer_probability>
1

> <r_epik_Ionization_Penalty>
0.00269629

> <r_epik_Ionization_Penalty_Charging>
0.00233899

> <r_epik_Ionization_Penalty_Neutral>
0.000357304

> <r_epik_State_Penalty>
-0

> <r_epik_Charging_Adjusted_Penalty>
0.00233899

> <i_epik_Tot_Q>
1

> <i_epik_Tot_abs_Q>
1

> <r_epik_Metal_State_Penalty>
-0

> <b_epik_Metal_Only>
0

> <s_lp_Force_Field>
OPLS_2005

> <r_lp_Energy>
7.28856

> <b_lp_Chiralities_Consistent>
1

> <s_lp_Variant>
AV-unprocessed.smi:1833-1

> <Gold.Version>
5.8.1

> <Gold.Id.Protein>
6NUR|6NUR_protein|mol2

> <Gold.PLP.Fitness>
45.6524

> <Gold.PLP.PLP>
-37.1513

> <Gold.PLP.part.hbond>
-2.3016

> <Gold.PLP.part.metal>
0.0000

> <Gold.PLP.part.buried>
-0.4791

> <Gold.PLP.part.nonpolar>
-34.9069

> <Gold.PLP.part.repulsive>
0.3061

> <Gold.PLP.ligand.clash>
0.0000

> <Gold.PLP.ligand.torsion>
0.2974

> <Gold.PLP.Chemscore.Hbond>
3.0000

> <Gold.PLP.Chemscore.CHOScore>
0.0000

> <Gold.PLP.Chemscore.Metal>
0.0000

> <Gold.Chemscore.Hbonds>
donor molecule, donor type, donor heavy atom, donor atom, acceptor molecule, acceptor atom, score
      L1  H     3    42       P1  7948  2.00
      P1  H  7989  7998       L1    10  1.00

> <Gold.PLP.Chemscore.Internal.Correction>
0.0958

> <Gold.Rescore>
     Score         DG    S(hbond)    S(metal)    S(lipo)     H(rot)  DE(clash)    DE(int)     intcor
     18.96     -19.51       1.98        0.00     100.93       1.71       0.25       0.30       ----

> <Gold.Chemscore.Fitness>
18.9579

> <Gold.Chemscore.DG>
-19.5068

> <Gold.Chemscore.ZeroCoef>
-5.4800

> <Gold.Chemscore.Hbond>
1.9784

> <Gold.Chemscore.Metal>
0.0000

> <Gold.Chemscore.Lipo>
100.9294

> <Gold.Chemscore.Internal_Hbond>
0.0000

> <Gold.Chemscore.DEClash>
0.2523

> <Gold.Chemscore.DEInternal>
0.2966

> <Gold.Chemscore.Rot>
1.7147

> <Gold.Chemscore.Internal.Correction>
   9.000000E+99

> <Gold.Chemscore.Hbonds>
donor molecule, donor type, donor heavy atom, donor atom, acceptor molecule, acceptor atom, score
      L1  H     3    42       P1  7948  0.98
      P1  H  7989  7998       L1    10  0.97

> <Gold.Chemscore.Hbond.Weighted>
-6.6077

> <Gold.Chemscore.Metal.Weighted>
-0.0000

> <Gold.Chemscore.Lipo.Weighted>
-11.8087

> <Gold.Chemscore.Internal_Hbond.Weighted>
0.0000

> <Gold.Chemscore.DEClash.Weighted>
0.2523

> <Gold.Chemscore.DEInternal.Weighted>
0.2966

> <Gold.Chemscore.Rot.Weighted>
4.3896

> <Gold.Chemscore.Internal.Correction.Weighted>
   9.000000E+99

> <Gold.Protein.RotatedTorsions>
[ 6907 6896 6895 6894 ] final  -35.19 input  -60.11 | X-H torsion
[ 7974 7965 7964 7962 ] final   54.31 input  175.53 | X-H torsion
[ 8008 7997 7996 7995 ] final -132.59 input   59.86 | X-H torsion
[ 10167 10162 10161 10158 ] final  117.10 input  -65.29 | X-H torsion
[ 10718 10713 10712 10709 ] final  -34.23 input   66.30 | X-H torsion
[ 10763 10752 10751 10750 ] final   53.56 input  -60.55 | X-H torsion
[ 11005 11000 10999 10996 ] final  161.18 input  -57.11 | X-H torsion

> <Gold.Protein.ActiveResidues>
 VAL166  LYS551  ARG553  GLY616  TRP617  ASP618  TYR619  PRO620  LYS621  CYS622 
 ASP623  PHE694  ASN695  SER759  ASP760  ASP761  ALA762  ILE779  LEU786  VAL792 
 PHE793  MET794  SER795  GLU796  ALA797  LYS798  CYS799  TRP800  GLU811  SER814 

> <Gold.Protein.RotatedAtoms>
  151.0430  134.9620  159.8171 H   0  0  0  0  0  0  0  0  0  0  0  0  # atno 6907 bound_to 6896
  152.5367  134.2634  159.8954 H   0  0  0  0  0  0  0  0  0  0  0  0  # atno 6908 bound_to 6896
  151.2647  133.4242  159.2652 H   0  0  0  0  0  0  0  0  0  0  0  0  # atno 6909 bound_to 6896
  145.9621  139.4069  143.0241 H   0  0  0  0  0  0  0  0  0  0  0  0  # atno 7974 bound_to 7965
  155.3314  140.0467  157.3042 H   0  0  0  0  0  0  0  0  0  0  0  0  # atno 8008 bound_to 7997
  154.5326  140.2262  155.8743 H   0  0  0  0  0  0  0  0  0  0  0  0  # atno 8009 bound_to 7997
  156.1803  140.3075  155.9143 H   0  0  0  0  0  0  0  0  0  0  0  0  # atno 8010 bound_to 7997
  139.6202  144.7099  151.2651 H   0  0  0  0  0  0  0  0  0  0  0  0  # atno 10167 bound_to 10162
  156.3530  130.4311  149.7688 H   0  0  0  0  0  0  0  0  0  0  0  0  # atno 10718 bound_to 10713
  152.9796  135.5774  154.4762 H   0  0  0  0  0  0  0  0  0  0  0  0  # atno 10763 bound_to 10752
  154.4317  135.2774  155.1910 H   0  0  0  0  0  0  0  0  0  0  0  0  # atno 10764 bound_to 10752
  154.3615  135.6187  153.5747 H   0  0  0  0  0  0  0  0  0  0  0  0  # atno 10765 bound_to 10752
  140.2133  134.8251  157.3143 H   0  0  0  0  0  0  0  0  0  0  0  0  # atno 11005 bound_to 11000
  145.8025  140.9764  143.0991 LP  0  0  0  0  0  0  0  0  0  0  0  0  # atno 17320 bound_to 7965
  144.6817  139.9819  143.7483 LP  0  0  0  0  0  0  0  0  0  0  0  0  # atno 17321 bound_to 7965
  140.7377  143.6671  150.8114 LP  0  0  0  0  0  0  0  0  0  0  0  0  # atno 17342 bound_to 10162
  140.0280  143.5473  152.2772 LP  0  0  0  0  0  0  0  0  0  0  0  0  # atno 17343 bound_to 10162
  156.4881  130.8072  151.3083 LP  0  0  0  0  0  0  0  0  0  0  0  0  # atno 17370 bound_to 10713
  157.7464  130.9984  150.2852 LP  0  0  0  0  0  0  0  0  0  0  0  0  # atno 17371 bound_to 10713
  140.1928  134.4351  155.7706 LP  0  0  0  0  0  0  0  0  0  0  0  0  # atno 17394 bound_to 11000
  141.2225  133.7035  156.8055 LP  0  0  0  0  0  0  0  0  0  0  0  0  # atno 17395 bound_to 11000

$$$$
