AV-unprocessed.smi:3303|AV-procd|sdf|12664|dock10
  -GOLD-   2272019 03D 1   1.00000     0.00000
 Structure written by MMmdl.
 45 46  0  0  0  0  0  0  0  0  3 V2000
  152.0195  138.3590  154.4115 C   0  0  0  0  0  0  0  0  0  0  0  0
  150.9340  139.4250  154.1864 C   0  0  1  0  0  0  0  0  0  0  0  0
  149.5407  138.8019  153.9722 C   0  0  0  0  0  0  0  0  0  0  0  0
  148.5147  139.8325  153.6620 N   0  3  1  0  0  0  0  0  0  0  0  0
  147.2169  139.1998  153.3221 C   0  0  0  0  0  0  0  0  0  0  0  0
  148.4203  140.8753  154.7283 C   0  0  2  0  0  0  0  0  0  0  0  0
  147.3950  141.9754  154.3905 C   0  0  0  0  0  0  0  0  0  0  0  0
  149.8014  141.5216  154.9844 C   0  0  0  0  0  0  0  0  0  0  0  0
  150.9016  140.4941  155.2983 C   0  0  1  0  0  0  0  0  0  0  0  0
  150.6961  139.9000  156.6419 N   0  3  0  0  0  0  0  0  0  0  0  0
  150.7797  140.8589  157.7618 C   0  0  0  0  0  0  0  0  0  0  0  0
  152.2183  141.3557  157.9567 C   0  0  0  0  0  0  0  0  0  0  0  0
  152.3668  142.1980  159.2091 C   0  0  0  0  0  0  0  0  0  0  0  0
  153.2609  141.8191  160.2331 C   0  0  0  0  0  0  0  0  0  0  0  0
  153.3635  142.6428  161.3711 C   0  0  0  0  0  0  0  0  0  0  0  0
  152.5732  143.8064  161.4401 C   0  0  0  0  0  0  0  0  0  0  0  0
  151.7123  144.0973  160.3632 C   0  0  0  0  0  0  0  0  0  0  0  0
  151.6078  143.3153  159.2665 N   0  0  0  0  0  0  0  0  0  0  0  0
  151.8195  137.7570  155.2984 H   0  0  0  0  0  0  0  0  0  0  0  0
  153.0013  138.8176  154.5336 H   0  0  0  0  0  0  0  0  0  0  0  0
  152.0805  137.6787  153.5614 H   0  0  0  0  0  0  0  0  0  0  0  0
  151.1977  139.9377  153.2596 H   0  0  0  0  0  0  0  0  0  0  0  0
  149.5932  138.0914  153.1459 H   0  0  0  0  0  0  0  0  0  0  0  0
  149.2347  138.2344  154.8527 H   0  0  0  0  0  0  0  0  0  0  0  0
  146.7483  138.7666  154.2067 H   0  0  0  0  0  0  0  0  0  0  0  0
  147.3531  138.4043  152.5888 H   0  0  0  0  0  0  0  0  0  0  0  0
  146.5259  139.9157  152.8781 H   0  0  0  0  0  0  0  0  0  0  0  0
  148.0926  140.3853  155.6470 H   0  0  0  0  0  0  0  0  0  0  0  0
  147.4181  142.7711  155.1359 H   0  0  0  0  0  0  0  0  0  0  0  0
  146.3735  141.5954  154.3774 H   0  0  0  0  0  0  0  0  0  0  0  0
  147.6012  142.4283  153.4200 H   0  0  0  0  0  0  0  0  0  0  0  0
  150.0955  142.0919  154.1017 H   0  0  0  0  0  0  0  0  0  0  0  0
  149.7334  142.2462  155.7975 H   0  0  0  0  0  0  0  0  0  0  0  0
  151.8573  141.0218  155.2917 H   0  0  0  0  0  0  0  0  0  0  0  0
  149.7828  139.4695  156.6675 H   0  0  0  0  0  0  0  0  0  0  0  0
  150.1193  141.7042  157.5630 H   0  0  0  0  0  0  0  0  0  0  0  0
  150.4235  140.3741  158.6722 H   0  0  0  0  0  0  0  0  0  0  0  0
  152.9038  140.5090  158.0183 H   0  0  0  0  0  0  0  0  0  0  0  0
  152.5312  141.9418  157.0914 H   0  0  0  0  0  0  0  0  0  0  0  0
  153.8552  140.9205  160.1532 H   0  0  0  0  0  0  0  0  0  0  0  0
  154.0362  142.3866  162.1765 H   0  0  0  0  0  0  0  0  0  0  0  0
  152.6256  144.4606  162.2978 H   0  0  0  0  0  0  0  0  0  0  0  0
  151.0929  144.9817  160.3820 H   0  0  0  0  0  0  0  0  0  0  0  0
  151.3934  139.1836  156.7864 H   0  0  0  0  0  0  0  0  0  0  0  0
  148.8269  140.3022  152.8236 H   0  0  0  0  0  0  0  0  0  0  0  0
  1  2  1  0  0  0  0
  1 19  1  0  0  0  0
  1 20  1  0  0  0  0
  1 21  1  0  0  0  0
  2  9  1  0  0  0  0
  2  3  1  0  0  0  0
  2 22  1  0  0  0  0
  3  4  1  0  0  0  0
  3 23  1  0  0  0  0
  3 24  1  0  0  0  0
  4  5  1  0  0  0  0
  4  6  1  0  0  0  0
  4 45  1  0  0  0  0
  5 25  1  0  0  0  0
  5 26  1  0  0  0  0
  5 27  1  0  0  0  0
  6  7  1  0  0  0  0
  6  8  1  0  0  0  0
  6 28  1  0  0  0  0
  7 29  1  0  0  0  0
  7 30  1  0  0  0  0
  7 31  1  0  0  0  0
  8  9  1  0  0  0  0
  8 32  1  0  0  0  0
  8 33  1  0  0  0  0
  9 10  1  0  0  0  0
  9 34  1  0  0  0  0
 10 11  1  0  0  0  0
 10 35  1  0  0  0  0
 10 44  1  0  0  0  0
 11 12  1  0  0  0  0
 11 36  1  0  0  0  0
 11 37  1  0  0  0  0
 12 13  1  0  0  0  0
 12 38  1  0  0  0  0
 12 39  1  0  0  0  0
 13 18  1  0  0  0  0
 13 14  2  0  0  0  0
 14 15  1  0  0  0  0
 14 40  1  0  0  0  0
 15 16  2  0  0  0  0
 15 41  1  0  0  0  0
 16 17  1  0  0  0  0
 16 42  1  0  0  0  0
 17 18  2  0  0  0  0
 17 43  1  0  0  0  0
M  CHG  1   4   1
M  CHG  1  10   1
M  END
> <s_m_source_file>
AV-unprocessed.smi

> <i_m_source_file_index>
3303

> <i_lp_mmshare_version>
43012

> <i_f3d_flags>
0

> <s_epik_input>
W0NIM11bQ0BASF0xW0NIMl1OKFtDSDNdKVtDQEBIXShbQ0gzXSlbQ0gyXVtDQEhdMVtOSF1bQ0gyXVtDSDJdYzJbY0hdW2NIXVtjSF1bY0hdbjI=

> <s_epik_cmdline>
J2VwaWtfcHl0aG9uJywgJy1waCcsICc3LjAnLCAnLXRuJywgJzgnLCAnLW1hJywgJzIwMCcsICctbWV0YWxfYmluZGluZycsICctaW1hZScsICc8aW5maWxlLm1hZT4nLCAnLW9tYWUnLCAnPG91dGZpbGUubWFlPic=

> <r_epik_Ionization_Penalty>
0.0769462

> <r_epik_Ionization_Penalty_Charging>
0.0759813

> <r_epik_Ionization_Penalty_Neutral>
0.000964829

> <r_epik_State_Penalty>
0.0654373

> <r_epik_Charging_Adjusted_Penalty>
0.141419

> <i_epik_Tot_Q>
2

> <i_epik_Tot_abs_Q>
2

> <r_epik_Metal_State_Penalty>
0.0656439

> <b_epik_Metal_Only>
0

> <s_lp_Force_Field>
OPLS_2005

> <r_lp_Energy>
34.3244

> <b_lp_Chiralities_Consistent>
1

> <s_lp_Variant>
AV-unprocessed.smi:3303-8

> <Gold.Version>
5.8.1

> <Gold.Id.Protein>
6NUR|6NUR_protein|mol2

> <Gold.PLP.Fitness>
46.9804

> <Gold.PLP.PLP>
-44.0501

> <Gold.PLP.part.hbond>
-1.0000

> <Gold.PLP.part.metal>
0.0000

> <Gold.PLP.part.buried>
-3.1464

> <Gold.PLP.part.nonpolar>
-39.0418

> <Gold.PLP.part.repulsive>
0.1466

> <Gold.PLP.ligand.clash>
0.0000

> <Gold.PLP.ligand.torsion>
0.0473

> <Gold.PLP.Chemscore.Hbond>
1.0000

> <Gold.PLP.Chemscore.CHOScore>
0.0000

> <Gold.PLP.Chemscore.Metal>
0.0000

> <Gold.Chemscore.Hbonds>
donor molecule, donor type, donor heavy atom, donor atom, acceptor molecule, acceptor atom, score
      L1  H     4    45       P1  7957  0.88

> <Gold.PLP.Chemscore.Internal.Correction>
0.0248

> <Gold.Rescore>
     Score         DG    S(hbond)    S(metal)    S(lipo)     H(rot)  DE(clash)    DE(int)     intcor
     19.72     -19.89       1.00        0.00     124.79       1.37       0.13       0.04       ----

> <Gold.Chemscore.Fitness>
19.7249

> <Gold.Chemscore.DG>
-19.8891

> <Gold.Chemscore.ZeroCoef>
-5.4800

> <Gold.Chemscore.Hbond>
0.9963

> <Gold.Chemscore.Metal>
0.0000

> <Gold.Chemscore.Lipo>
124.7866

> <Gold.Chemscore.Internal_Hbond>
0.0000

> <Gold.Chemscore.DEClash>
0.1262

> <Gold.Chemscore.DEInternal>
0.0380

> <Gold.Chemscore.Rot>
1.3744

> <Gold.Chemscore.Internal.Correction>
   9.000000E+99

> <Gold.Chemscore.Hbonds>
donor molecule, donor type, donor heavy atom, donor atom, acceptor molecule, acceptor atom, score
      L1  H     4    45       P1  7957  0.86

> <Gold.Chemscore.Hbond.Weighted>
-3.3275

> <Gold.Chemscore.Metal.Weighted>
-0.0000

> <Gold.Chemscore.Lipo.Weighted>
-14.6000

> <Gold.Chemscore.Internal_Hbond.Weighted>
0.0000

> <Gold.Chemscore.DEClash.Weighted>
0.1262

> <Gold.Chemscore.DEInternal.Weighted>
0.0380

> <Gold.Chemscore.Rot.Weighted>
3.5185

> <Gold.Chemscore.Internal.Correction.Weighted>
   9.000000E+99

> <Gold.Protein.RotatedTorsions>
[ 6907 6896 6895 6894 ] final  -48.05 input  -60.11 | X-H torsion
[ 7974 7965 7964 7962 ] final   29.72 input  175.53 | X-H torsion
[ 8008 7997 7996 7995 ] final -129.15 input   59.86 | X-H torsion
[ 10167 10162 10161 10158 ] final  142.60 input  -65.29 | X-H torsion
[ 10718 10713 10712 10709 ] final  -24.23 input   66.30 | X-H torsion
[ 10763 10752 10751 10750 ] final   49.69 input  -60.55 | X-H torsion
[ 11005 11000 10999 10996 ] final -121.82 input  -57.11 | X-H torsion

> <Gold.Protein.ActiveResidues>
 VAL166  LYS551  ARG553  GLY616  TRP617  ASP618  TYR619  PRO620  LYS621  CYS622 
 ASP623  PHE694  ASN695  SER759  ASP760  ASP761  ALA762  ILE779  LEU786  VAL792 
 PHE793  MET794  SER795  GLU796  ALA797  LYS798  CYS799  TRP800  GLU811  SER814 

> <Gold.Protein.RotatedAtoms>
  150.8945  134.8352  159.7316 H   0  0  0  0  0  0  0  0  0  0  0  0  # atno 6907 bound_to 6896
  152.4856  134.4597  159.9611 H   0  0  0  0  0  0  0  0  0  0  0  0  # atno 6908 bound_to 6896
  151.4656  133.3543  159.2851 H   0  0  0  0  0  0  0  0  0  0  0  0  # atno 6909 bound_to 6896
  146.1655  139.6884  142.9004 H   0  0  0  0  0  0  0  0  0  0  0  0  # atno 7974 bound_to 7965
  155.2745  140.0441  157.3010 H   0  0  0  0  0  0  0  0  0  0  0  0  # atno 8008 bound_to 7997
  154.5634  140.2352  155.8270 H   0  0  0  0  0  0  0  0  0  0  0  0  # atno 8009 bound_to 7997
  156.2065  140.3011  155.9646 H   0  0  0  0  0  0  0  0  0  0  0  0  # atno 8010 bound_to 7997
  139.4990  144.6096  151.6301 H   0  0  0  0  0  0  0  0  0  0  0  0  # atno 10167 bound_to 10162
  156.4804  130.4544  149.6815 H   0  0  0  0  0  0  0  0  0  0  0  0  # atno 10718 bound_to 10713
  152.9786  135.5903  154.4130 H   0  0  0  0  0  0  0  0  0  0  0  0  # atno 10763 bound_to 10752
  154.3763  135.2767  155.2239 H   0  0  0  0  0  0  0  0  0  0  0  0  # atno 10764 bound_to 10752
  154.4172  135.6067  153.6042 H   0  0  0  0  0  0  0  0  0  0  0  0  # atno 10765 bound_to 10752
  141.0042  134.0359  157.3499 H   0  0  0  0  0  0  0  0  0  0  0  0  # atno 11005 bound_to 11000
  145.4479  141.0426  143.2821 LP  0  0  0  0  0  0  0  0  0  0  0  0  # atno 17320 bound_to 7965
  144.8086  139.6005  143.7040 LP  0  0  0  0  0  0  0  0  0  0  0  0  # atno 17321 bound_to 7965
  140.5767  144.0016  150.6245 LP  0  0  0  0  0  0  0  0  0  0  0  0  # atno 17342 bound_to 10162
  140.3152  143.3172  152.0840 LP  0  0  0  0  0  0  0  0  0  0  0  0  # atno 17343 bound_to 10162
  156.3528  130.7441  151.2402 LP  0  0  0  0  0  0  0  0  0  0  0  0  # atno 17370 bound_to 10713
  157.7484  131.0372  150.4446 LP  0  0  0  0  0  0  0  0  0  0  0  0  # atno 17371 bound_to 10713
  139.9054  135.0178  156.7462 LP  0  0  0  0  0  0  0  0  0  0  0  0  # atno 17394 bound_to 11000
  140.6840  133.9449  155.7927 LP  0  0  0  0  0  0  0  0  0  0  0  0  # atno 17395 bound_to 11000

$$$$
