AV-unprocessed.smi:3116|AV-procd|sdf|11863|dock1
  -GOLD-   2272017243D 1   1.00000     0.00000
 Structure written by MMmdl.
 34 34  0  0  0  0  0  0  0  0  2 V2000
  152.8041  138.8742  154.8967 C   0  0  0  0  0  0  0  0  0  0  0  0
  151.9032  138.0483  155.8273 C   0  0  1  0  0  0  0  0  0  0  0  0
  151.0266  138.9547  156.6072 N   0  3  0  0  0  0  0  0  0  0  0  0
  151.7120  140.0430  157.3452 C   0  0  2  0  0  0  0  0  0  0  0  0
  152.0972  139.5245  158.7430 C   0  0  0  0  0  0  0  0  0  0  0  0
  150.8207  141.3143  157.3980 C   0  0  2  0  0  0  0  0  0  0  0  0
  150.1834  141.6649  156.0399 C   0  0  0  0  0  0  0  0  0  0  0  0
  151.5454  142.4669  157.9182 N   0  0  0  0  0  0  0  0  0  0  0  0
  151.5861  143.7504  157.4131 C   0  0  0  0  0  0  0  0  0  0  0  0
  152.3915  144.4871  158.2336 C   0  0  0  0  0  0  0  0  0  0  0  0
  152.8067  143.5557  159.2254 C   0  0  0  0  0  0  0  0  0  0  0  0
  152.3003  142.3484  159.0342 N   0  0  0  0  0  0  0  0  0  0  0  0
  151.0878  137.0374  155.0082 C   0  0  0  0  0  0  0  0  0  0  0  0
  150.2579  137.5303  154.0853 N   0  0  0  0  0  0  0  0  0  0  0  0
  151.1952  135.8294  155.2123 O   0  0  0  0  0  0  0  0  0  0  0  0
  153.4854  138.2354  154.3332 H   0  0  0  0  0  0  0  0  0  0  0  0
  153.4139  139.5766  155.4658 H   0  0  0  0  0  0  0  0  0  0  0  0
  152.2184  139.4506  154.1788 H   0  0  0  0  0  0  0  0  0  0  0  0
  152.5455  137.5032  156.5204 H   0  0  0  0  0  0  0  0  0  0  0  0
  150.3633  139.3818  155.9772 H   0  0  0  0  0  0  0  0  0  0  0  0
  152.6435  140.2921  156.8338 H   0  0  0  0  0  0  0  0  0  0  0  0
  152.6974  140.2486  159.2943 H   0  0  0  0  0  0  0  0  0  0  0  0
  152.6894  138.6115  158.6723 H   0  0  0  0  0  0  0  0  0  0  0  0
  151.2130  139.3011  159.3410 H   0  0  0  0  0  0  0  0  0  0  0  0
  150.0061  141.1204  158.0979 H   0  0  0  0  0  0  0  0  0  0  0  0
  149.5048  140.8819  155.7021 H   0  0  0  0  0  0  0  0  0  0  0  0
  150.9393  141.8075  155.2669 H   0  0  0  0  0  0  0  0  0  0  0  0
  149.6013  142.5847  156.1075 H   0  0  0  0  0  0  0  0  0  0  0  0
  151.0434  144.0315  156.5224 H   0  0  0  0  0  0  0  0  0  0  0  0
  152.6461  145.5322  158.1391 H   0  0  0  0  0  0  0  0  0  0  0  0
  153.4560  143.7198  160.0728 H   0  0  0  0  0  0  0  0  0  0  0  0
  149.7009  136.9084  153.5171 H   0  0  0  0  0  0  0  0  0  0  0  0
  150.1916  138.5299  153.9555 H   0  0  0  0  0  0  0  0  0  0  0  0
  150.5173  138.3873  157.2700 H   0  0  0  0  0  0  0  0  0  0  0  0
  1  2  1  0  0  0  0
  1 16  1  0  0  0  0
  1 17  1  0  0  0  0
  1 18  1  0  0  0  0
  2  3  1  0  0  0  0
  2 13  1  0  0  0  0
  2 19  1  0  0  0  0
  3  4  1  0  0  0  0
  3 20  1  0  0  0  0
  3 34  1  0  0  0  0
  4  5  1  0  0  0  0
  4  6  1  0  0  0  0
  4 21  1  0  0  0  0
  5 22  1  0  0  0  0
  5 23  1  0  0  0  0
  5 24  1  0  0  0  0
  6  7  1  0  0  0  0
  6  8  1  0  0  0  0
  6 25  1  0  0  0  0
  7 26  1  0  0  0  0
  7 27  1  0  0  0  0
  7 28  1  0  0  0  0
  8 12  1  0  0  0  0
  8  9  1  0  0  0  0
  9 10  2  0  0  0  0
  9 29  1  0  0  0  0
 10 11  1  0  0  0  0
 10 30  1  0  0  0  0
 11 12  2  0  0  0  0
 11 31  1  0  0  0  0
 13 14  1  0  0  0  0
 13 15  2  0  0  0  0
 14 32  1  0  0  0  0
 14 33  1  0  0  0  0
M  CHG  1   3   1
M  END
> <s_m_source_file>
AV-unprocessed.smi

> <i_m_source_file_index>
3116

> <i_lp_mmshare_version>
43012

> <i_f3d_flags>
0

> <s_epik_input>
W05IMl1DKD1PKVtDQEhdKFtDSDNdKVtOSF1bQ0BIXShbQ0gzXSlbQ0BIXShbQ0gzXSluMVtjSF1bY0hdW2NIXW4x

> <s_epik_cmdline>
J2VwaWtfcHl0aG9uJywgJy1waCcsICc3LjAnLCAnLXRuJywgJzgnLCAnLW1hJywgJzIwMCcsICctbWV0YWxfYmluZGluZycsICctaW1hZScsICc8aW5maWxlLm1hZT4nLCAnLW9tYWUnLCAnPG91dGZpbGUubWFlPic=

> <r_lp_tautomer_probability>
1

> <r_epik_Ionization_Penalty>
0.15658

> <r_epik_Ionization_Penalty_Charging>
0.156568

> <r_epik_Ionization_Penalty_Neutral>
1.19778e-05

> <r_epik_State_Penalty>
0.145866

> <r_epik_Charging_Adjusted_Penalty>
0.302434

> <i_epik_Tot_Q>
1

> <i_epik_Tot_abs_Q>
1

> <r_epik_Metal_State_Penalty>
0.146064

> <b_epik_Metal_Only>
0

> <s_lp_Force_Field>
OPLS_2005

> <r_lp_Energy>
10.4239

> <b_lp_Chiralities_Consistent>
1

> <s_lp_Variant>
AV-unprocessed.smi:3116-2

> <Gold.Version>
5.8.1

> <Gold.Id.Protein>
6NUR|6NUR_protein|mol2

> <Gold.PLP.Fitness>
41.1303

> <Gold.PLP.PLP>
-33.3209

> <Gold.PLP.part.hbond>
-2.9193

> <Gold.PLP.part.metal>
0.0000

> <Gold.PLP.part.buried>
-3.5662

> <Gold.PLP.part.nonpolar>
-27.9429

> <Gold.PLP.part.repulsive>
0.2735

> <Gold.PLP.ligand.clash>
0.0000

> <Gold.PLP.ligand.torsion>
0.7417

> <Gold.PLP.Chemscore.Hbond>
2.0000

> <Gold.PLP.Chemscore.CHOScore>
1.0000

> <Gold.PLP.Chemscore.Metal>
0.0000

> <Gold.Chemscore.Hbonds>
donor molecule, donor type, donor heavy atom, donor atom, acceptor molecule, acceptor atom, score
      L1  H    14    32       P1  7948  1.00
      P1  H 10752 10764       L1    15  1.00
      L1  C     9    29       P1  8028  1.00

> <Gold.PLP.Chemscore.Internal.Correction>
0.2928

> <Gold.Rescore>
     Score         DG    S(hbond)    S(metal)    S(lipo)     H(rot)  DE(clash)    DE(int)     intcor
     12.30     -14.58       1.89        0.00      77.28       2.45       0.13       2.15       ----

> <Gold.Chemscore.Fitness>
12.3008

> <Gold.Chemscore.DG>
-14.5816

> <Gold.Chemscore.ZeroCoef>
-5.4800

> <Gold.Chemscore.Hbond>
1.8931

> <Gold.Chemscore.Metal>
0.0000

> <Gold.Chemscore.Lipo>
77.2797

> <Gold.Chemscore.Internal_Hbond>
0.0000

> <Gold.Chemscore.DEClash>
0.1296

> <Gold.Chemscore.DEInternal>
2.1512

> <Gold.Chemscore.Rot>
2.4465

> <Gold.Chemscore.Internal.Correction>
   9.000000E+99

> <Gold.Chemscore.Hbonds>
donor molecule, donor type, donor heavy atom, donor atom, acceptor molecule, acceptor atom, score
      L1  H    14    32       P1  7948  0.59
      P1  H 10752 10764       L1    15  0.26

> <Gold.Chemscore.Hbond.Weighted>
-6.3230

> <Gold.Chemscore.Metal.Weighted>
-0.0000

> <Gold.Chemscore.Lipo.Weighted>
-9.0417

> <Gold.Chemscore.Internal_Hbond.Weighted>
0.0000

> <Gold.Chemscore.DEClash.Weighted>
0.1296

> <Gold.Chemscore.DEInternal.Weighted>
2.1512

> <Gold.Chemscore.Rot.Weighted>
6.2631

> <Gold.Chemscore.Internal.Correction.Weighted>
   9.000000E+99

> <Gold.Protein.RotatedTorsions>
[ 6907 6896 6895 6894 ] final  113.26 input  -60.11 | X-H torsion
[ 7974 7965 7964 7962 ] final    8.73 input  175.53 | X-H torsion
[ 8008 7997 7996 7995 ] final  -34.74 input   59.86 | X-H torsion
[ 10167 10162 10161 10158 ] final -158.65 input  -65.29 | X-H torsion
[ 10718 10713 10712 10709 ] final   96.98 input   66.30 | X-H torsion
[ 10763 10752 10751 10750 ] final  -56.19 input  -60.55 | X-H torsion
[ 11005 11000 10999 10996 ] final  113.14 input  -57.11 | X-H torsion

> <Gold.Protein.ActiveResidues>
 VAL166  LYS551  ARG553  GLY616  TRP617  ASP618  TYR619  PRO620  LYS621  CYS622 
 ASP623  PHE694  ASN695  SER759  ASP760  ASP761  ALA762  ILE779  LEU786  VAL792 
 PHE793  MET794  SER795  GLU796  ALA797  LYS798  CYS799  TRP800  GLU811  SER814 

> <Gold.Protein.RotatedAtoms>
  152.4871  133.8401  159.7147 H   0  0  0  0  0  0  0  0  0  0  0  0  # atno 6907 bound_to 6896
  150.8967  133.7163  159.2896 H   0  0  0  0  0  0  0  0  0  0  0  0  # atno 6908 bound_to 6896
  151.4618  135.1043  159.9779 H   0  0  0  0  0  0  0  0  0  0  0  0  # atno 6909 bound_to 6896
  146.2412  139.9890  142.8428 H   0  0  0  0  0  0  0  0  0  0  0  0  # atno 7974 bound_to 7965
  154.4113  140.1676  156.2098 H   0  0  0  0  0  0  0  0  0  0  0  0  # atno 8008 bound_to 7997
  155.9454  140.3405  155.6339 H   0  0  0  0  0  0  0  0  0  0  0  0  # atno 8009 bound_to 7997
  155.6937  140.0737  157.2429 H   0  0  0  0  0  0  0  0  0  0  0  0  # atno 8010 bound_to 7997
  139.6676  143.9802  152.2264 H   0  0  0  0  0  0  0  0  0  0  0  0  # atno 10167 bound_to 10162
  157.6919  131.0595  150.4574 H   0  0  0  0  0  0  0  0  0  0  0  0  # atno 10718 bound_to 10713
  154.2028  135.6408  153.5092 H   0  0  0  0  0  0  0  0  0  0  0  0  # atno 10763 bound_to 10752
  153.0008  135.5455  154.6297 H   0  0  0  0  0  0  0  0  0  0  0  0  # atno 10764 bound_to 10752
  154.5715  135.2917  155.0796 H   0  0  0  0  0  0  0  0  0  0  0  0  # atno 10765 bound_to 10752
  139.8945  134.9544  156.6694 H   0  0  0  0  0  0  0  0  0  0  0  0  # atno 11005 bound_to 11000
  145.1521  140.9628  143.4427 LP  0  0  0  0  0  0  0  0  0  0  0  0  # atno 17320 bound_to 7965
  145.0195  139.3436  143.6079 LP  0  0  0  0  0  0  0  0  0  0  0  0  # atno 17321 bound_to 7965
  139.9558  144.6591  150.8128 LP  0  0  0  0  0  0  0  0  0  0  0  0  # atno 17342 bound_to 10162
  140.7605  143.3153  151.2747 LP  0  0  0  0  0  0  0  0  0  0  0  0  # atno 17343 bound_to 10162
  156.4921  130.4097  149.6400 LP  0  0  0  0  0  0  0  0  0  0  0  0  # atno 17370 bound_to 10713
  156.3407  130.7380  151.2325 LP  0  0  0  0  0  0  0  0  0  0  0  0  # atno 17371 bound_to 10713
  140.7385  133.8998  155.8261 LP  0  0  0  0  0  0  0  0  0  0  0  0  # atno 17394 bound_to 11000
  141.0096  134.1038  157.4234 LP  0  0  0  0  0  0  0  0  0  0  0  0  # atno 17395 bound_to 11000

$$$$
