AV-unprocessed.smi:3181|AV-procd|sdf|12149|dock9
  -GOLD-   2272017583D 1   1.00000     0.00000
 Structure written by MMmdl.
 42 43  0  0  0  0  0  0  0  0  2 V2000
  150.5733  139.9715  155.1514 C   0  0  0  0  0  0  0  0  0  0  0  0
  149.5805  141.0745  155.5557 C   0  0  2  0  0  0  0  0  0  0  0  0
  148.5703  141.4164  154.4423 C   0  0  0  0  0  0  0  0  0  0  0  0
  147.2736  141.8132  154.9593 N   0  0  0  0  0  0  0  0  0  0  0  0
  146.0641  141.7588  154.3995 C   0  0  0  0  0  0  0  0  0  0  0  0
  145.0933  142.2159  155.1775 N   0  0  0  0  0  0  0  0  0  0  0  0
  145.8250  142.5548  156.2806 C   0  0  0  0  0  0  0  0  0  0  0  0
  147.1374  142.3326  156.2018 N   0  0  0  0  0  0  0  0  0  0  0  0
  150.3187  142.2986  155.9420 N   0  3  0  0  0  0  0  0  0  0  0  0
  150.7298  142.3842  157.3612 C   0  0  1  0  0  0  0  0  0  0  0  0
  151.5062  141.1264  157.8011 C   0  0  0  0  0  0  0  0  0  0  0  0
  151.9875  141.2402  159.2565 C   0  0  0  0  0  0  0  0  0  0  0  0
  152.8341  142.5096  159.4774 C   0  0  2  0  0  0  0  0  0  0  0  0
  153.3820  142.5877  160.9120 C   0  0  0  0  0  0  0  0  0  0  0  0
  152.0728  143.7872  159.0399 C   0  0  2  0  0  0  0  0  0  0  0  0
  150.9232  144.1938  159.9844 C   0  0  0  0  0  0  0  0  0  0  0  0
  151.5894  143.6445  157.5810 C   0  0  0  0  0  0  0  0  0  0  0  0
  150.0633  139.0318  154.9383 H   0  0  0  0  0  0  0  0  0  0  0  0
  151.2895  139.7736  155.9491 H   0  0  0  0  0  0  0  0  0  0  0  0
  151.1369  140.2525  154.2612 H   0  0  0  0  0  0  0  0  0  0  0  0
  149.0135  140.7094  156.4136 H   0  0  0  0  0  0  0  0  0  0  0  0
  148.9511  142.2350  153.8300 H   0  0  0  0  0  0  0  0  0  0  0  0
  148.4368  140.5640  153.7737 H   0  0  0  0  0  0  0  0  0  0  0  0
  145.8904  141.3800  153.4028 H   0  0  0  0  0  0  0  0  0  0  0  0
  145.3775  142.9783  157.1679 H   0  0  0  0  0  0  0  0  0  0  0  0
  151.1364  142.3908  155.3563 H   0  0  0  0  0  0  0  0  0  0  0  0
  149.8256  142.4795  157.9637 H   0  0  0  0  0  0  0  0  0  0  0  0
  150.8852  140.2361  157.6992 H   0  0  0  0  0  0  0  0  0  0  0  0
  152.3667  140.9768  157.1473 H   0  0  0  0  0  0  0  0  0  0  0  0
  151.1289  141.2384  159.9287 H   0  0  0  0  0  0  0  0  0  0  0  0
  152.5732  140.3563  159.5113 H   0  0  0  0  0  0  0  0  0  0  0  0
  153.7049  142.4257  158.8250 H   0  0  0  0  0  0  0  0  0  0  0  0
  152.5819  142.5832  161.6524 H   0  0  0  0  0  0  0  0  0  0  0  0
  153.9718  143.4927  161.0597 H   0  0  0  0  0  0  0  0  0  0  0  0
  154.0283  141.7366  161.1278 H   0  0  0  0  0  0  0  0  0  0  0  0
  152.7861  144.6126  159.0567 H   0  0  0  0  0  0  0  0  0  0  0  0
  150.1822  143.4032  160.0984 H   0  0  0  0  0  0  0  0  0  0  0  0
  150.4051  145.0761  159.6080 H   0  0  0  0  0  0  0  0  0  0  0  0
  151.2930  144.4449  160.9782 H   0  0  0  0  0  0  0  0  0  0  0  0
  152.4590  143.6049  156.9230 H   0  0  0  0  0  0  0  0  0  0  0  0
  151.0317  144.5347  157.2869 H   0  0  0  0  0  0  0  0  0  0  0  0
  149.7100  143.0831  155.7572 H   0  0  0  0  0  0  0  0  0  0  0  0
  1  2  1  0  0  0  0
  1 18  1  0  0  0  0
  1 19  1  0  0  0  0
  1 20  1  0  0  0  0
  2  3  1  0  0  0  0
  2  9  1  0  0  0  0
  2 21  1  0  0  0  0
  3  4  1  0  0  0  0
  3 22  1  0  0  0  0
  3 23  1  0  0  0  0
  4  8  1  0  0  0  0
  4  5  1  0  0  0  0
  5  6  2  0  0  0  0
  5 24  1  0  0  0  0
  6  7  1  0  0  0  0
  7  8  2  0  0  0  0
  7 25  1  0  0  0  0
  9 10  1  0  0  0  0
  9 26  1  0  0  0  0
  9 42  1  0  0  0  0
 10 17  1  0  0  0  0
 10 11  1  0  0  0  0
 10 27  1  0  0  0  0
 11 12  1  0  0  0  0
 11 28  1  0  0  0  0
 11 29  1  0  0  0  0
 12 13  1  0  0  0  0
 12 30  1  0  0  0  0
 12 31  1  0  0  0  0
 13 14  1  0  0  0  0
 13 15  1  0  0  0  0
 13 32  1  0  0  0  0
 14 33  1  0  0  0  0
 14 34  1  0  0  0  0
 14 35  1  0  0  0  0
 15 16  1  0  0  0  0
 15 17  1  0  0  0  0
 15 36  1  0  0  0  0
 16 37  1  0  0  0  0
 16 38  1  0  0  0  0
 16 39  1  0  0  0  0
 17 40  1  0  0  0  0
 17 41  1  0  0  0  0
M  CHG  1   9   1
M  END
> <s_m_source_file>
AV-unprocessed.smi

> <i_m_source_file_index>
3181

> <i_lp_mmshare_version>
43012

> <i_f3d_flags>
0

> <s_epik_input>
bjFbY0hdbltjSF1uMVtDSDJdW0NAQEhdKFtDSDNdKVtOSF1bQ0BASF0yW0NIMl1bQ0gyXVtDQEBIXShbQ0gzXSlbQ0BASF0oW0NIM10pW0NIMl0y

> <s_epik_cmdline>
J2VwaWtfcHl0aG9uJywgJy1waCcsICc3LjAnLCAnLXRuJywgJzgnLCAnLW1hJywgJzIwMCcsICctbWV0YWxfYmluZGluZycsICctaW1hZScsICc8aW5maWxlLm1hZT4nLCAnLW9tYWUnLCAnPG91dGZpbGUubWFlPic=

> <r_lp_tautomer_probability>
1

> <r_epik_Ionization_Penalty>
0.000617007

> <r_epik_Ionization_Penalty_Charging>
0.000616215

> <r_epik_Ionization_Penalty_Neutral>
7.92544e-07

> <r_epik_State_Penalty>
0.000388807

> <r_epik_Charging_Adjusted_Penalty>
0.00100502

> <i_epik_Tot_Q>
1

> <i_epik_Tot_abs_Q>
1

> <r_epik_Metal_State_Penalty>
-0

> <b_epik_Metal_Only>
0

> <s_lp_Force_Field>
OPLS_2005

> <r_lp_Energy>
22.4909

> <b_lp_Chiralities_Consistent>
1

> <s_lp_Variant>
AV-unprocessed.smi:3181-15

> <Gold.Version>
5.8.1

> <Gold.Id.Protein>
6NUR|6NUR_protein|mol2

> <Gold.PLP.Fitness>
43.6945

> <Gold.PLP.PLP>
-37.1337

> <Gold.PLP.part.hbond>
-1.0000

> <Gold.PLP.part.metal>
0.0000

> <Gold.PLP.part.buried>
-4.5003

> <Gold.PLP.part.nonpolar>
-33.3251

> <Gold.PLP.part.repulsive>
1.2135

> <Gold.PLP.ligand.clash>
0.0000

> <Gold.PLP.ligand.torsion>
1.1429

> <Gold.PLP.Chemscore.Hbond>
2.0000

> <Gold.PLP.Chemscore.CHOScore>
0.9434

> <Gold.PLP.Chemscore.Metal>
0.0000

> <Gold.Chemscore.Hbonds>
donor molecule, donor type, donor heavy atom, donor atom, acceptor molecule, acceptor atom, score
      L1  H     9    42       P1  8028  2.00
      L1  C     5    24       P1 10175  0.86

> <Gold.PLP.Chemscore.Internal.Correction>
0.0165

> <Gold.Rescore>
     Score         DG    S(hbond)    S(metal)    S(lipo)     H(rot)  DE(clash)    DE(int)     intcor
     13.97     -15.31       1.00        0.00     101.64       2.11       0.09       1.25       ----

> <Gold.Chemscore.Fitness>
13.9675

> <Gold.Chemscore.DG>
-15.3104

> <Gold.Chemscore.ZeroCoef>
-5.4800

> <Gold.Chemscore.Hbond>
0.9997

> <Gold.Chemscore.Metal>
0.0000

> <Gold.Chemscore.Lipo>
101.6386

> <Gold.Chemscore.Internal_Hbond>
0.0000

> <Gold.Chemscore.DEClash>
0.0915

> <Gold.Chemscore.DEInternal>
1.2513

> <Gold.Chemscore.Rot>
2.1095

> <Gold.Chemscore.Internal.Correction>
   9.000000E+99

> <Gold.Chemscore.Hbonds>
donor molecule, donor type, donor heavy atom, donor atom, acceptor molecule, acceptor atom, score
      L1  H     9    42       P1  8028  1.00

> <Gold.Chemscore.Hbond.Weighted>
-3.3390

> <Gold.Chemscore.Metal.Weighted>
-0.0000

> <Gold.Chemscore.Lipo.Weighted>
-11.8917

> <Gold.Chemscore.Internal_Hbond.Weighted>
0.0000

> <Gold.Chemscore.DEClash.Weighted>
0.0915

> <Gold.Chemscore.DEInternal.Weighted>
1.2513

> <Gold.Chemscore.Rot.Weighted>
5.4003

> <Gold.Chemscore.Internal.Correction.Weighted>
   9.000000E+99

> <Gold.Protein.RotatedTorsions>
[ 6907 6896 6895 6894 ] final  -16.80 input  -60.11 | X-H torsion
[ 7974 7965 7964 7962 ] final -140.94 input  175.53 | X-H torsion
[ 8008 7997 7996 7995 ] final  117.47 input   59.86 | X-H torsion
[ 10167 10162 10161 10158 ] final  101.13 input  -65.29 | X-H torsion
[ 10718 10713 10712 10709 ] final  -28.42 input   66.30 | X-H torsion
[ 10763 10752 10751 10750 ] final   15.01 input  -60.55 | X-H torsion
[ 11005 11000 10999 10996 ] final  -51.85 input  -57.11 | X-H torsion

> <Gold.Protein.ActiveResidues>
 VAL166  LYS551  ARG553  GLY616  TRP617  ASP618  TYR619  PRO620  LYS621  CYS622 
 ASP623  PHE694  ASN695  SER759  ASP760  ASP761  ALA762  ILE779  LEU786  VAL792 
 PHE793  MET794  SER795  GLU796  ALA797  LYS798  CYS799  TRP800  GLU811  SER814 

> <Gold.Protein.RotatedAtoms>
  151.3030  135.0774  159.9245 H   0  0  0  0  0  0  0  0  0  0  0  0  # atno 6907 bound_to 6896
  152.5293  133.9814  159.7818 H   0  0  0  0  0  0  0  0  0  0  0  0  # atno 6908 bound_to 6896
  151.0104  133.5919  159.2714 H   0  0  0  0  0  0  0  0  0  0  0  0  # atno 6909 bound_to 6896
  144.8558  140.6140  143.5360 H   0  0  0  0  0  0  0  0  0  0  0  0  # atno 7974 bound_to 7965
  156.2496  140.2895  156.0684 H   0  0  0  0  0  0  0  0  0  0  0  0  # atno 8008 bound_to 7997
  155.1698  140.0401  157.2878 H   0  0  0  0  0  0  0  0  0  0  0  0  # atno 8009 bound_to 7997
  154.6334  140.2505  155.7414 H   0  0  0  0  0  0  0  0  0  0  0  0  # atno 8010 bound_to 7997
  139.7465  144.6996  151.0496 H   0  0  0  0  0  0  0  0  0  0  0  0  # atno 10167 bound_to 10162
  156.4254  130.4434  149.7154 H   0  0  0  0  0  0  0  0  0  0  0  0  # atno 10718 bound_to 10713
  153.1566  135.6788  153.8803 H   0  0  0  0  0  0  0  0  0  0  0  0  # atno 10763 bound_to 10752
  153.8212  135.3130  155.3411 H   0  0  0  0  0  0  0  0  0  0  0  0  # atno 10764 bound_to 10752
  154.7902  135.4839  154.0123 H   0  0  0  0  0  0  0  0  0  0  0  0  # atno 10765 bound_to 10752
  141.0893  133.6636  156.3938 H   0  0  0  0  0  0  0  0  0  0  0  0  # atno 11005 bound_to 11000
  145.4409  139.1536  143.3971 LP  0  0  0  0  0  0  0  0  0  0  0  0  # atno 17320 bound_to 7965
  146.2822  140.4531  142.8772 LP  0  0  0  0  0  0  0  0  0  0  0  0  # atno 17321 bound_to 7965
  140.7793  143.4860  150.9955 LP  0  0  0  0  0  0  0  0  0  0  0  0  # atno 17342 bound_to 10162
  139.8548  143.7391  152.3176 LP  0  0  0  0  0  0  0  0  0  0  0  0  # atno 17343 bound_to 10162
  156.4078  130.7707  151.2718 LP  0  0  0  0  0  0  0  0  0  0  0  0  # atno 17370 bound_to 10713
  157.7508  131.0220  150.3775 LP  0  0  0  0  0  0  0  0  0  0  0  0  # atno 17371 bound_to 10713
  140.5289  134.6232  157.5343 LP  0  0  0  0  0  0  0  0  0  0  0  0  # atno 17394 bound_to 11000
  139.9716  134.7283  156.0030 LP  0  0  0  0  0  0  0  0  0  0  0  0  # atno 17395 bound_to 11000

$$$$
