AV-unprocessed.smi:1199|AV-procd|sdf|5014|dock3
  -GOLD-   22720 4 33D 1   1.00000     0.00000
 Structure written by MMmdl.
 40 41  0  0  0  0  0  0  0  0  2 V2000
  152.4266  137.8305  158.4033 C   0  0  0  0  0  0  0  0  0  0  0  0
  151.3439  138.5880  157.6172 C   0  0  2  0  0  0  0  0  0  0  0  0
  151.6146  140.1085  157.6109 C   0  0  0  0  0  0  0  0  0  0  0  0
  152.0226  140.6863  158.8934 N   0  0  0  0  0  0  0  0  0  0  0  0
  153.4561  140.5511  159.1457 C   0  0  0  0  0  0  0  0  0  0  0  0
  153.8774  141.2044  160.4728 C   0  0  0  0  0  0  0  0  0  0  0  0
  153.4819  142.5719  160.4840 O   0  0  0  0  0  0  0  0  0  0  0  0
  152.0803  142.7369  160.2979 C   0  0  0  0  0  0  0  0  0  0  0  0
  151.6627  142.0988  158.9623 C   0  0  0  0  0  0  0  0  0  0  0  0
  150.0404  138.3301  158.2201 N   0  0  0  0  0  0  0  0  0  0  0  0
  149.5899  137.1450  158.6639 C   0  0  0  0  0  0  0  0  0  0  0  0
  150.2778  136.1243  158.6651 O   0  0  0  0  0  0  0  0  0  0  0  0
  148.1367  137.0795  159.1651 C   0  0  0  0  0  0  0  0  0  0  0  0
  147.9626  136.3313  160.4215 N   0  0  0  0  0  0  0  0  0  0  0  0
  147.9747  137.1688  161.6175 N   0  5  0  0  0  0  0  0  0  0  0  0
  147.7541  136.5950  162.8301 C   0  0  0  0  0  0  0  0  0  0  0  0
  147.7265  137.2385  163.8765 O   0  0  0  0  0  0  0  0  0  0  0  0
  147.5449  135.1575  162.8789 C   0  0  0  0  0  0  0  0  0  0  0  0
  147.5590  134.4060  161.7606 C   0  0  0  0  0  0  0  0  0  0  0  0
  147.7746  134.9806  160.4385 C   0  0  0  0  0  0  0  0  0  0  0  0
  147.7704  134.3022  159.4116 O   0  0  0  0  0  0  0  0  0  0  0  0
  153.4128  137.9911  157.9672 H   0  0  0  0  0  0  0  0  0  0  0  0
  152.2411  136.7560  158.3990 H   0  0  0  0  0  0  0  0  0  0  0  0
  152.4643  138.1579  159.4428 H   0  0  0  0  0  0  0  0  0  0  0  0
  151.3547  138.2228  156.5885 H   0  0  0  0  0  0  0  0  0  0  0  0
  152.3397  140.3594  156.8347 H   0  0  0  0  0  0  0  0  0  0  0  0
  150.6897  140.6021  157.3096 H   0  0  0  0  0  0  0  0  0  0  0  0
  153.7339  139.4987  159.1822 H   0  0  0  0  0  0  0  0  0  0  0  0
  154.0206  140.9988  158.3264 H   0  0  0  0  0  0  0  0  0  0  0  0
  153.4282  140.6821  161.3187 H   0  0  0  0  0  0  0  0  0  0  0  0
  154.9589  141.1435  160.5965 H   0  0  0  0  0  0  0  0  0  0  0  0
  151.5384  142.2841  161.1292 H   0  0  0  0  0  0  0  0  0  0  0  0
  151.8430  143.8007  160.3013 H   0  0  0  0  0  0  0  0  0  0  0  0
  152.1357  142.6417  158.1423 H   0  0  0  0  0  0  0  0  0  0  0  0
  150.5861  142.2135  158.8312 H   0  0  0  0  0  0  0  0  0  0  0  0
  149.4023  139.1119  158.2743 H   0  0  0  0  0  0  0  0  0  0  0  0
  147.7555  138.0957  159.2797 H   0  0  0  0  0  0  0  0  0  0  0  0
  147.5305  136.6312  158.3761 H   0  0  0  0  0  0  0  0  0  0  0  0
  147.3773  134.6811  163.8334 H   0  0  0  0  0  0  0  0  0  0  0  0
  147.4001  133.3413  161.8442 H   0  0  0  0  0  0  0  0  0  0  0  0
  1  2  1  0  0  0  0
  1 22  1  0  0  0  0
  1 23  1  0  0  0  0
  1 24  1  0  0  0  0
  2  3  1  0  0  0  0
  2 10  1  0  0  0  0
  2 25  1  0  0  0  0
  3  4  1  0  0  0  0
  3 26  1  0  0  0  0
  3 27  1  0  0  0  0
  4  9  1  0  0  0  0
  4  5  1  0  0  0  0
  5  6  1  0  0  0  0
  5 28  1  0  0  0  0
  5 29  1  0  0  0  0
  6  7  1  0  0  0  0
  6 30  1  0  0  0  0
  6 31  1  0  0  0  0
  7  8  1  0  0  0  0
  8  9  1  0  0  0  0
  8 32  1  0  0  0  0
  8 33  1  0  0  0  0
  9 34  1  0  0  0  0
  9 35  1  0  0  0  0
 10 11  1  0  0  0  0
 10 36  1  0  0  0  0
 11 12  2  0  0  0  0
 11 13  1  0  0  0  0
 13 37  1  0  0  0  0
 13 38  1  0  0  0  0
 13 14  1  0  0  0  0
 14 15  1  0  0  0  0
 14 20  1  0  0  0  0
 15 16  1  0  0  0  0
 16 17  2  0  0  0  0
 16 18  1  0  0  0  0
 18 39  1  0  0  0  0
 18 19  2  0  0  0  0
 19 40  1  0  0  0  0
 19 20  1  0  0  0  0
 20 21  2  0  0  0  0
M  CHG  1  15  -1
M  END
> <s_m_source_file>
AV-unprocessed.smi

> <i_m_source_file_index>
1199

> <i_lp_mmshare_version>
43012

> <i_f3d_flags>
0

> <s_epik_input>
W0NIMl0xW0NIMl1PW0NIMl1bQ0gyXU4xW0NIMl1bQ0BASF0oW0NIM10pW05IXUMoPU8pW0NIMl1uMltuSF1jKD1PKVtjSF1bY0hdYzI9Tw==

> <s_epik_cmdline>
J2VwaWtfcHl0aG9uJywgJy1waCcsICc3LjAnLCAnLXRuJywgJzgnLCAnLW1hJywgJzIwMCcsICctbWV0YWxfYmluZGluZycsICctaW1hZScsICc8aW5maWxlLm1hZT4nLCAnLW9tYWUnLCAnPG91dGZpbGUubWFlPic=

> <r_lp_tautomer_probability>
1

> <r_epik_Ionization_Penalty>
0.334996

> <r_epik_Ionization_Penalty_Charging>
0.0976136

> <r_epik_Ionization_Penalty_Neutral>
0.237382

> <r_epik_State_Penalty>
0.26804

> <r_epik_Charging_Adjusted_Penalty>
0.365653

> <i_epik_Tot_Q>
-1

> <i_epik_Tot_abs_Q>
1

> <r_epik_Metal_State_Penalty>
0.26804

> <b_epik_Metal_Only>
0

> <s_lp_Force_Field>
OPLS_2005

> <r_lp_Energy>
38.5668

> <b_lp_Chiralities_Consistent>
1

> <s_lp_Variant>
AV-unprocessed.smi:1199-1

> <Gold.Version>
5.8.1

> <Gold.Id.Protein>
6NUR|6NUR_protein|mol2

> <Gold.PLP.Fitness>
46.7759

> <Gold.PLP.PLP>
-36.3124

> <Gold.PLP.part.hbond>
-3.7223

> <Gold.PLP.part.metal>
0.0000

> <Gold.PLP.part.buried>
-2.4720

> <Gold.PLP.part.nonpolar>
-28.6774

> <Gold.PLP.part.repulsive>
0.1740

> <Gold.PLP.ligand.clash>
0.0000

> <Gold.PLP.ligand.torsion>
1.1863

> <Gold.PLP.Chemscore.Hbond>
4.2712

> <Gold.PLP.Chemscore.CHOScore>
0.0000

> <Gold.PLP.Chemscore.Metal>
0.0000

> <Gold.Chemscore.Hbonds>
donor molecule, donor type, donor heavy atom, donor atom, acceptor molecule, acceptor atom, score
      P1  H  6896  6907       L1    12  0.94
      P1  H  6931  6943       L1    15  2.00
      P1  H  6934  6947       L1    15  0.97

> <Gold.PLP.Chemscore.Internal.Correction>
0.0226

> <Gold.Rescore>
     Score         DG    S(hbond)    S(metal)    S(lipo)     H(rot)  DE(clash)    DE(int)     intcor
     10.30     -12.88       1.86        0.00      60.28       2.30       0.05       2.53       ----

> <Gold.Chemscore.Fitness>
10.3025

> <Gold.Chemscore.DG>
-12.8801

> <Gold.Chemscore.ZeroCoef>
-5.4800

> <Gold.Chemscore.Hbond>
1.8634

> <Gold.Chemscore.Metal>
0.0000

> <Gold.Chemscore.Lipo>
60.2820

> <Gold.Chemscore.Internal_Hbond>
0.0000

> <Gold.Chemscore.DEClash>
0.0516

> <Gold.Chemscore.DEInternal>
2.5260

> <Gold.Chemscore.Rot>
2.2955

> <Gold.Chemscore.Internal.Correction>
   9.000000E+99

> <Gold.Chemscore.Hbonds>
donor molecule, donor type, donor heavy atom, donor atom, acceptor molecule, acceptor atom, score
      P1  H  6896  6907       L1    12  0.91
      P1  H  6931  6943       L1    15  0.42
      P1  H  6934  6947       L1    15  0.22

> <Gold.Chemscore.Hbond.Weighted>
-6.2237

> <Gold.Chemscore.Metal.Weighted>
-0.0000

> <Gold.Chemscore.Lipo.Weighted>
-7.0530

> <Gold.Chemscore.Internal_Hbond.Weighted>
0.0000

> <Gold.Chemscore.DEClash.Weighted>
0.0516

> <Gold.Chemscore.DEInternal.Weighted>
2.5260

> <Gold.Chemscore.Rot.Weighted>
5.8766

> <Gold.Chemscore.Internal.Correction.Weighted>
   9.000000E+99

> <Gold.Protein.RotatedTorsions>
[ 6907 6896 6895 6894 ] final  -60.31 input  -60.11 | X-H torsion
[ 7974 7965 7964 7962 ] final    1.45 input  175.53 | X-H torsion
[ 8008 7997 7996 7995 ] final   67.69 input   59.86 | X-H torsion
[ 10167 10162 10161 10158 ] final  -80.43 input  -65.29 | X-H torsion
[ 10718 10713 10712 10709 ] final -140.60 input   66.30 | X-H torsion
[ 10763 10752 10751 10750 ] final    1.41 input  -60.55 | X-H torsion
[ 11005 11000 10999 10996 ] final  -52.81 input  -57.11 | X-H torsion

> <Gold.Protein.ActiveResidues>
 VAL166  LYS551  ARG553  GLY616  TRP617  ASP618  TYR619  PRO620  LYS621  CYS622 
 ASP623  PHE694  ASN695  SER759  ASP760  ASP761  ALA762  ILE779  LEU786  VAL792 
 PHE793  MET794  SER795  GLU796  ALA797  LYS798  CYS799  TRP800  GLU811  SER814 

> <Gold.Protein.RotatedAtoms>
  150.7866  134.6854  159.6466 H   0  0  0  0  0  0  0  0  0  0  0  0  # atno 6907 bound_to 6896
  152.3963  134.6357  160.0097 H   0  0  0  0  0  0  0  0  0  0  0  0  # atno 6908 bound_to 6896
  151.6642  133.3279  159.3217 H   0  0  0  0  0  0  0  0  0  0  0  0  # atno 6909 bound_to 6896
  146.2440  140.0985  142.8349 H   0  0  0  0  0  0  0  0  0  0  0  0  # atno 7974 bound_to 7965
  155.6968  140.3495  155.4916 H   0  0  0  0  0  0  0  0  0  0  0  0  # atno 8008 bound_to 7997
  155.9476  140.1113  157.1026 H   0  0  0  0  0  0  0  0  0  0  0  0  # atno 8009 bound_to 7997
  154.4115  140.1200  156.4996 H   0  0  0  0  0  0  0  0  0  0  0  0  # atno 8010 bound_to 7997
  140.4503  143.2485  151.8498 H   0  0  0  0  0  0  0  0  0  0  0  0  # atno 10167 bound_to 10162
  156.3242  130.7551  151.1655 H   0  0  0  0  0  0  0  0  0  0  0  0  # atno 10718 bound_to 10713
  153.3084  135.6961  153.7138 H   0  0  0  0  0  0  0  0  0  0  0  0  # atno 10763 bound_to 10752
  153.6025  135.3459  155.2951 H   0  0  0  0  0  0  0  0  0  0  0  0  # atno 10764 bound_to 10752
  154.8569  135.4344  154.2215 H   0  0  0  0  0  0  0  0  0  0  0  0  # atno 10765 bound_to 10752
  141.0944  133.6627  156.4080 H   0  0  0  0  0  0  0  0  0  0  0  0  # atno 11005 bound_to 11000
  145.0589  140.9073  143.4950 LP  0  0  0  0  0  0  0  0  0  0  0  0  # atno 17320 bound_to 7965
  145.1096  139.2766  143.5644 LP  0  0  0  0  0  0  0  0  0  0  0  0  # atno 17321 bound_to 7965
  139.4796  144.5127  151.8910 LP  0  0  0  0  0  0  0  0  0  0  0  0  # atno 17342 bound_to 10162
  140.4214  144.2237  150.5887 LP  0  0  0  0  0  0  0  0  0  0  0  0  # atno 17343 bound_to 10162
  157.7418  131.0499  150.5071 LP  0  0  0  0  0  0  0  0  0  0  0  0  # atno 17370 bound_to 10713
  156.5228  130.4166  149.6242 LP  0  0  0  0  0  0  0  0  0  0  0  0  # atno 17371 bound_to 10713
  140.5176  134.6335  157.5307 LP  0  0  0  0  0  0  0  0  0  0  0  0  # atno 17394 bound_to 11000
  139.9777  134.7189  155.9919 LP  0  0  0  0  0  0  0  0  0  0  0  0  # atno 17395 bound_to 11000

$$$$
