AV-unprocessed.smi:2568|AV-procd|sdf|10091|dock8
  -GOLD-   2272014113D 1   1.00000     0.00000
 Structure written by MMmdl.
 24 25  0  0  0  0  0  0  0  0  1 V2000
  147.2153  140.6367  154.1063 C   0  0  0  0  0  0  0  0  0  0  0  0
  146.8423  139.5626  153.1415 C   0  0  0  0  0  0  0  0  0  0  0  0
  147.2100  139.6010  151.8598 N   0  0  0  0  0  0  0  0  0  0  0  0
  146.7430  138.5033  151.2282 N   0  0  0  0  0  0  0  0  0  0  0  0
  146.0913  137.8744  152.2062 C   0  0  0  0  0  0  0  0  0  0  0  0
  145.4308  136.5528  151.9611 C   0  0  1  0  0  0  0  0  0  0  0  0
  145.5962  136.0828  150.5024 C   0  0  0  0  0  0  0  0  0  0  0  0
  145.0251  134.7472  150.3325 N   0  0  0  0  0  0  0  0  0  0  0  0
  145.6022  133.8008  151.2861 C   0  0  0  0  0  0  0  0  0  0  0  0
  145.4452  134.3259  152.7249 C   0  0  0  0  0  0  0  0  0  0  0  0
  146.0491  135.6103  152.8343 O   0  0  0  0  0  0  0  0  0  0  0  0
  146.1323  138.4790  153.4343 N   0  0  0  0  0  0  0  0  0  0  0  0
  147.7563  140.3136  151.3974 H   0  0  0  0  0  0  0  0  0  0  0  0
  146.7579  140.4517  155.0788 H   0  0  0  0  0  0  0  0  0  0  0  0
  146.8744  141.6052  153.7398 H   0  0  0  0  0  0  0  0  0  0  0  0
  148.2979  140.6683  154.2305 H   0  0  0  0  0  0  0  0  0  0  0  0
  144.3715  136.6383  152.2129 H   0  0  0  0  0  0  0  0  0  0  0  0
  145.1132  136.7855  149.8231 H   0  0  0  0  0  0  0  0  0  0  0  0
  146.6544  136.0675  150.2384 H   0  0  0  0  0  0  0  0  0  0  0  0
  145.1949  134.4226  149.3859 H   0  0  0  0  0  0  0  0  0  0  0  0
  145.1193  132.8285  151.1870 H   0  0  0  0  0  0  0  0  0  0  0  0
  146.6596  133.6496  151.0653 H   0  0  0  0  0  0  0  0  0  0  0  0
  144.3931  134.3786  153.0098 H   0  0  0  0  0  0  0  0  0  0  0  0
  145.9313  133.6477  153.4264 H   0  0  0  0  0  0  0  0  0  0  0  0
  1 14  1  0  0  0  0
  1 15  1  0  0  0  0
  1 16  1  0  0  0  0
  1  2  1  0  0  0  0
  2 12  2  0  0  0  0
  2  3  1  0  0  0  0
  3  4  1  0  0  0  0
  3 13  1  0  0  0  0
  4  5  2  0  0  0  0
  5 12  1  0  0  0  0
  5  6  1  0  0  0  0
  6 11  1  0  0  0  0
  6  7  1  0  0  0  0
  6 17  1  0  0  0  0
  7  8  1  0  0  0  0
  7 18  1  0  0  0  0
  7 19  1  0  0  0  0
  8  9  1  0  0  0  0
  8 20  1  0  0  0  0
  9 10  1  0  0  0  0
  9 21  1  0  0  0  0
  9 22  1  0  0  0  0
 10 11  1  0  0  0  0
 10 23  1  0  0  0  0
 10 24  1  0  0  0  0
M  END
> <s_m_source_file>
AV-unprocessed.smi

> <i_m_source_file_index>
2568

> <i_lp_mmshare_version>
43012

> <i_f3d_flags>
0

> <s_epik_input>
W0NIM11jMW5bbkhdYyhuMSlbQ0BASF0yW0NIMl1bTkhdW0NIMl1bQ0gyXU8y

> <s_epik_cmdline>
J2VwaWtfcHl0aG9uJywgJy1waCcsICc3LjAnLCAnLXRuJywgJzgnLCAnLW1hJywgJzIwMCcsICctbWV0YWxfYmluZGluZycsICctaW1hZScsICc8aW5maWxlLm1hZT4nLCAnLW9tYWUnLCAnPG91dGZpbGUubWFlPic=

> <r_epik_Ionization_Penalty>
1.10101

> <r_epik_Ionization_Penalty_Charging>
0

> <r_epik_Ionization_Penalty_Neutral>
1.10101

> <r_epik_State_Penalty>
1.26524

> <r_epik_Charging_Adjusted_Penalty>
1.26524

> <i_epik_Tot_Q>
0

> <i_epik_Tot_abs_Q>
0

> <r_epik_Metal_State_Penalty>
1.56429

> <b_epik_Metal_Only>
0

> <s_lp_Force_Field>
OPLS_2005

> <r_lp_Energy>
12.1745

> <b_lp_Chiralities_Consistent>
1

> <s_lp_Variant>
AV-unprocessed.smi:2568-4

> <Gold.Version>
5.8.1

> <Gold.Id.Protein>
6NUR|6NUR_protein|mol2

> <Gold.PLP.Fitness>
24.5862

> <Gold.PLP.PLP>
-17.3661

> <Gold.PLP.part.hbond>
-2.6864

> <Gold.PLP.part.metal>
0.0000

> <Gold.PLP.part.buried>
-3.7936

> <Gold.PLP.part.nonpolar>
-13.3368

> <Gold.PLP.part.repulsive>
0.8139

> <Gold.PLP.ligand.clash>
0.0000

> <Gold.PLP.ligand.torsion>
0.0082

> <Gold.PLP.Chemscore.Hbond>
2.4080

> <Gold.PLP.Chemscore.CHOScore>
0.0000

> <Gold.PLP.Chemscore.Metal>
0.0000

> <Gold.Chemscore.Hbonds>
donor molecule, donor type, donor heavy atom, donor atom, acceptor molecule, acceptor atom, score
      L1  H     3    13       P1  7957  0.40
      L1  H     8    20       P1  7921  0.91
      P1  H  7954  7966       L1     4  0.96

> <Gold.PLP.Chemscore.Internal.Correction>
0.0126

> <Gold.Rescore>
     Score         DG    S(hbond)    S(metal)    S(lipo)     H(rot)  DE(clash)    DE(int)     intcor
     13.51     -13.91       2.36        0.00      26.61       1.00       0.38       0.02       ----

> <Gold.Chemscore.Fitness>
13.5115

> <Gold.Chemscore.DG>
-13.9116

> <Gold.Chemscore.ZeroCoef>
-5.4800

> <Gold.Chemscore.Hbond>
2.3587

> <Gold.Chemscore.Metal>
0.0000

> <Gold.Chemscore.Lipo>
26.6108

> <Gold.Chemscore.Internal_Hbond>
0.0000

> <Gold.Chemscore.DEClash>
0.3801

> <Gold.Chemscore.DEInternal>
0.0201

> <Gold.Chemscore.Rot>
1.0000

> <Gold.Chemscore.Internal.Correction>
   9.000000E+99

> <Gold.Chemscore.Hbonds>
donor molecule, donor type, donor heavy atom, donor atom, acceptor molecule, acceptor atom, score
      L1  H     3    13       P1  7957  0.40
      L1  H     8    20       P1  7921  0.82
      P1  H  7954  7966       L1     4  0.58

> <Gold.Chemscore.Hbond.Weighted>
-7.8782

> <Gold.Chemscore.Metal.Weighted>
-0.0000

> <Gold.Chemscore.Lipo.Weighted>
-3.1135

> <Gold.Chemscore.Internal_Hbond.Weighted>
0.0000

> <Gold.Chemscore.DEClash.Weighted>
0.3801

> <Gold.Chemscore.DEInternal.Weighted>
0.0201

> <Gold.Chemscore.Rot.Weighted>
2.5600

> <Gold.Chemscore.Internal.Correction.Weighted>
   9.000000E+99

> <Gold.Protein.RotatedTorsions>
[ 6907 6896 6895 6894 ] final   41.92 input  -60.11 | X-H torsion
[ 7974 7965 7964 7962 ] final  -23.04 input  175.53 | X-H torsion
[ 8008 7997 7996 7995 ] final   98.62 input   59.86 | X-H torsion
[ 10167 10162 10161 10158 ] final -108.43 input  -65.29 | X-H torsion
[ 10718 10713 10712 10709 ] final   59.86 input   66.30 | X-H torsion
[ 10763 10752 10751 10750 ] final -166.74 input  -60.55 | X-H torsion
[ 11005 11000 10999 10996 ] final  -91.72 input  -57.11 | X-H torsion

> <Gold.Protein.ActiveResidues>
 VAL166  LYS551  ARG553  GLY616  TRP617  ASP618  TYR619  PRO620  LYS621  CYS622 
 ASP623  PHE694  ASN695  SER759  ASP760  ASP761  ALA762  ILE779  LEU786  VAL792 
 PHE793  MET794  SER795  GLU796  ALA797  LYS798  CYS799  TRP800  GLU811  SER814 

> <Gold.Protein.RotatedAtoms>
  152.2014  134.8584  160.0507 H   0  0  0  0  0  0  0  0  0  0  0  0  # atno 6907 bound_to 6896
  151.9436  133.3640  159.3982 H   0  0  0  0  0  0  0  0  0  0  0  0  # atno 6908 bound_to 6896
  150.6955  134.4337  159.5304 H   0  0  0  0  0  0  0  0  0  0  0  0  # atno 6909 bound_to 6896
  146.1640  140.4561  142.8559 H   0  0  0  0  0  0  0  0  0  0  0  0  # atno 7974 bound_to 7965
  156.1023  140.3241  155.7958 H   0  0  0  0  0  0  0  0  0  0  0  0  # atno 8008 bound_to 7997
  155.4816  140.0554  157.2983 H   0  0  0  0  0  0  0  0  0  0  0  0  # atno 8009 bound_to 7997
  154.4704  140.2009  156.0023 H   0  0  0  0  0  0  0  0  0  0  0  0  # atno 8010 bound_to 7997
  140.1662  143.4080  152.1389 H   0  0  0  0  0  0  0  0  0  0  0  0  # atno 10167 bound_to 10162
  157.5709  130.8906  149.9265 H   0  0  0  0  0  0  0  0  0  0  0  0  # atno 10718 bound_to 10713
  154.6802  135.2953  154.9623 H   0  0  0  0  0  0  0  0  0  0  0  0  # atno 10763 bound_to 10752
  154.0620  135.6630  153.4817 H   0  0  0  0  0  0  0  0  0  0  0  0  # atno 10764 bound_to 10752
  153.0542  135.5154  154.7842 H   0  0  0  0  0  0  0  0  0  0  0  0  # atno 10765 bound_to 10752
  141.1538  133.7774  156.9919 H   0  0  0  0  0  0  0  0  0  0  0  0  # atno 11005 bound_to 11000
  144.8066  140.6311  143.6443 LP  0  0  0  0  0  0  0  0  0  0  0  0  # atno 17320 bound_to 7965
  145.4515  139.1523  143.3916 LP  0  0  0  0  0  0  0  0  0  0  0  0  # atno 17321 bound_to 7965
  139.5358  144.7208  151.4897 LP  0  0  0  0  0  0  0  0  0  0  0  0  # atno 17342 bound_to 10162
  140.6611  143.8496  150.6889 LP  0  0  0  0  0  0  0  0  0  0  0  0  # atno 17343 bound_to 10162
  156.0754  130.3679  150.0688 LP  0  0  0  0  0  0  0  0  0  0  0  0  # atno 17370 bound_to 10713
  156.8841  130.9566  151.3596 LP  0  0  0  0  0  0  0  0  0  0  0  0  # atno 17371 bound_to 10713
  140.0997  134.9543  157.1904 LP  0  0  0  0  0  0  0  0  0  0  0  0  # atno 17394 bound_to 11000
  140.3335  134.2784  155.7224 LP  0  0  0  0  0  0  0  0  0  0  0  0  # atno 17395 bound_to 11000

$$$$
