AV-unprocessed.smi:2515|AV-procd|sdf|9897|dock6
  -GOLD-   2272013533D 1   1.00000     0.00000
 Structure written by MMmdl.
 36 37  0  0  0  0  0  0  0  0  1 V2000
  154.3556  139.0370  154.3284 N   0  0  0  0  0  0  0  0  0  0  0  0
  153.2815  138.7698  154.6649 C   0  0  0  0  0  0  0  0  0  0  0  0
  151.9599  138.4365  155.0774 C   0  0  0  0  0  0  0  0  0  0  0  0
  151.0735  137.7611  154.2400 N   0  0  0  0  0  0  0  0  0  0  0  0
  149.9594  137.6239  154.9541 C   0  0  0  0  0  0  0  0  0  0  0  0
  148.8090  136.9919  154.5057 N   0  0  0  0  0  0  0  0  0  0  0  0
  150.0232  138.1537  156.1918 N   0  0  0  0  0  0  0  0  0  0  0  0
  148.9927  138.1725  157.2227 C   0  0  0  0  0  0  0  0  0  0  0  0
  149.4408  137.4056  158.4781 C   0  0  0  0  0  0  0  0  0  0  0  0
  148.3205  137.1508  159.3748 N   0  0  0  0  0  0  0  0  0  0  0  0
  148.0305  135.9576  159.9168 C   0  0  0  0  0  0  0  0  0  0  0  0
  148.6958  134.9440  159.6995 O   0  0  0  0  0  0  0  0  0  0  0  0
  146.8077  135.9099  160.8497 C   0  0  0  0  0  0  0  0  0  0  0  0
  146.9156  136.9185  162.0038 C   0  0  0  0  0  0  0  0  0  0  0  0
  147.6113  136.1870  163.1609 C   0  0  0  0  0  0  0  0  0  0  0  0
  147.5001  134.6853  162.8610 C   0  0  0  0  0  0  0  0  0  0  0  0
  146.6769  134.5615  161.5731 C   0  0  0  0  0  0  0  0  0  0  0  0
  151.3133  138.6707  156.2720 C   0  0  0  0  0  0  0  0  0  0  0  0
  151.8506  139.3182  157.4051 C   0  0  0  0  0  0  0  0  0  0  0  0
  152.2899  139.8499  158.3336 N   0  0  0  0  0  0  0  0  0  0  0  0
  148.7582  136.5897  153.5807 H   0  0  0  0  0  0  0  0  0  0  0  0
  147.9830  136.9226  155.0824 H   0  0  0  0  0  0  0  0  0  0  0  0
  148.7627  139.2105  157.4654 H   0  0  0  0  0  0  0  0  0  0  0  0
  148.0716  137.7472  156.8229 H   0  0  0  0  0  0  0  0  0  0  0  0
  149.8785  136.4484  158.1937 H   0  0  0  0  0  0  0  0  0  0  0  0
  150.2202  137.9567  159.0077 H   0  0  0  0  0  0  0  0  0  0  0  0
  147.7253  137.9344  159.6012 H   0  0  0  0  0  0  0  0  0  0  0  0
  145.9111  136.1085  160.2599 H   0  0  0  0  0  0  0  0  0  0  0  0
  147.4446  137.8314  161.7251 H   0  0  0  0  0  0  0  0  0  0  0  0
  145.9128  137.2161  162.3131 H   0  0  0  0  0  0  0  0  0  0  0  0
  148.6616  136.4766  163.2173 H   0  0  0  0  0  0  0  0  0  0  0  0
  147.1532  136.4419  164.1172 H   0  0  0  0  0  0  0  0  0  0  0  0
  148.4960  134.2669  162.7095 H   0  0  0  0  0  0  0  0  0  0  0  0
  147.0404  134.1366  163.6837 H   0  0  0  0  0  0  0  0  0  0  0  0
  145.6296  134.3919  161.8265 H   0  0  0  0  0  0  0  0  0  0  0  0
  146.9985  133.7153  160.9638 H   0  0  0  0  0  0  0  0  0  0  0  0
  1  2  3  0  0  0  0
  2  3  1  0  0  0  0
  3 18  2  0  0  0  0
  3  4  1  0  0  0  0
  4  5  2  0  0  0  0
  5  6  1  0  0  0  0
  5  7  1  0  0  0  0
  6 21  1  0  0  0  0
  6 22  1  0  0  0  0
  7  8  1  0  0  0  0
  7 18  1  0  0  0  0
  8  9  1  0  0  0  0
  8 23  1  0  0  0  0
  8 24  1  0  0  0  0
  9 10  1  0  0  0  0
  9 25  1  0  0  0  0
  9 26  1  0  0  0  0
 10 11  1  0  0  0  0
 10 27  1  0  0  0  0
 11 12  2  0  0  0  0
 11 13  1  0  0  0  0
 13 17  1  0  0  0  0
 13 14  1  0  0  0  0
 13 28  1  0  0  0  0
 14 15  1  0  0  0  0
 14 29  1  0  0  0  0
 14 30  1  0  0  0  0
 15 16  1  0  0  0  0
 15 31  1  0  0  0  0
 15 32  1  0  0  0  0
 16 17  1  0  0  0  0
 16 33  1  0  0  0  0
 16 34  1  0  0  0  0
 17 35  1  0  0  0  0
 17 36  1  0  0  0  0
 18 19  1  0  0  0  0
 19 20  3  0  0  0  0
M  END
> <s_m_source_file>
AV-unprocessed.smi

> <i_m_source_file_index>
2515

> <i_lp_mmshare_version>
43012

> <i_f3d_flags>
0

> <s_epik_input>
TiNDYzFuYyhbTkgyXSluKGMxQyNOKVtDSDJdW0NIMl1bTkhdQyg9TylbQ0hdMltDSDJdW0NIMl1bQ0gyXVtDSDJdMg==

> <s_epik_cmdline>
J2VwaWtfcHl0aG9uJywgJy1waCcsICc3LjAnLCAnLXRuJywgJzgnLCAnLW1hJywgJzIwMCcsICctbWV0YWxfYmluZGluZycsICctaW1hZScsICc8aW5maWxlLm1hZT4nLCAnLW9tYWUnLCAnPG91dGZpbGUubWFlPic=

> <r_lp_tautomer_probability>
1

> <r_epik_Ionization_Penalty>
0.000275801

> <r_epik_Ionization_Penalty_Charging>
2.18328e-09

> <r_epik_Ionization_Penalty_Neutral>
0.000275798

> <r_epik_State_Penalty>
-0

> <r_epik_Charging_Adjusted_Penalty>
2.18328e-09

> <i_epik_Tot_Q>
0

> <i_epik_Tot_abs_Q>
0

> <r_epik_Metal_State_Penalty>
-0

> <b_epik_Metal_Only>
0

> <s_lp_Force_Field>
OPLS_2005

> <r_lp_Energy>
23.1048

> <b_lp_Chiralities_Consistent>
1

> <s_lp_Variant>
AV-unprocessed.smi:2515-1

> <Gold.Version>
5.8.1

> <Gold.Id.Protein>
6NUR|6NUR_protein|mol2

> <Gold.PLP.Fitness>
40.2184

> <Gold.PLP.PLP>
-31.8900

> <Gold.PLP.part.hbond>
-3.0000

> <Gold.PLP.part.metal>
0.0000

> <Gold.PLP.part.buried>
-4.0422

> <Gold.PLP.part.nonpolar>
-25.4952

> <Gold.PLP.part.repulsive>
0.4189

> <Gold.PLP.ligand.clash>
0.0000

> <Gold.PLP.ligand.torsion>
0.1786

> <Gold.PLP.Chemscore.Hbond>
2.8873

> <Gold.PLP.Chemscore.CHOScore>
0.0000

> <Gold.PLP.Chemscore.Metal>
0.0000

> <Gold.Chemscore.Hbonds>
donor molecule, donor type, donor heavy atom, donor atom, acceptor molecule, acceptor atom, score
      L1  H     6    21       P1  7948  1.00
      P1  H  6896  6907       L1    12  0.98
      P1  H  7997  8010       L1     1  0.99

> <Gold.PLP.Chemscore.Internal.Correction>
0.0238

> <Gold.Rescore>
     Score         DG    S(hbond)    S(metal)    S(lipo)     H(rot)  DE(clash)    DE(int)     intcor
     15.72     -15.97       2.86        0.00      56.82       2.23       0.07       0.18       ----

> <Gold.Chemscore.Fitness>
15.7151

> <Gold.Chemscore.DG>
-15.9703

> <Gold.Chemscore.ZeroCoef>
-5.4800

> <Gold.Chemscore.Hbond>
2.8570

> <Gold.Chemscore.Metal>
0.0000

> <Gold.Chemscore.Lipo>
56.8226

> <Gold.Chemscore.Internal_Hbond>
0.0000

> <Gold.Chemscore.DEClash>
0.0725

> <Gold.Chemscore.DEInternal>
0.1827

> <Gold.Chemscore.Rot>
2.2267

> <Gold.Chemscore.Internal.Correction>
   9.000000E+99

> <Gold.Chemscore.Hbonds>
donor molecule, donor type, donor heavy atom, donor atom, acceptor molecule, acceptor atom, score
      L1  H     6    21       P1  7948  1.00
      P1  H  6896  6907       L1    12  0.90
      P1  H  7997  8010       L1     1  0.47

> <Gold.Chemscore.Hbond.Weighted>
-9.5425

> <Gold.Chemscore.Metal.Weighted>
-0.0000

> <Gold.Chemscore.Lipo.Weighted>
-6.6482

> <Gold.Chemscore.Internal_Hbond.Weighted>
0.0000

> <Gold.Chemscore.DEClash.Weighted>
0.0725

> <Gold.Chemscore.DEInternal.Weighted>
0.1827

> <Gold.Chemscore.Rot.Weighted>
5.7004

> <Gold.Chemscore.Internal.Correction.Weighted>
   9.000000E+99

> <Gold.Protein.RotatedTorsions>
[ 6907 6896 6895 6894 ] final  -71.50 input  -60.11 | X-H torsion
[ 7974 7965 7964 7962 ] final -133.53 input  175.53 | X-H torsion
[ 8008 7997 7996 7995 ] final  139.43 input   59.86 | X-H torsion
[ 10167 10162 10161 10158 ] final   83.45 input  -65.29 | X-H torsion
[ 10718 10713 10712 10709 ] final   12.37 input   66.30 | X-H torsion
[ 10763 10752 10751 10750 ] final  157.32 input  -60.55 | X-H torsion
[ 11005 11000 10999 10996 ] final  165.83 input  -57.11 | X-H torsion

> <Gold.Protein.ActiveResidues>
 VAL166  LYS551  ARG553  GLY616  TRP617  ASP618  TYR619  PRO620  LYS621  CYS622 
 ASP623  PHE694  ASN695  SER759  ASP760  ASP761  ALA762  ILE779  LEU786  VAL792 
 PHE793  MET794  SER795  GLU796  ALA797  LYS798  CYS799  TRP800  GLU811  SER814 

> <Gold.Protein.RotatedAtoms>
  150.7210  134.5299  159.5694 H   0  0  0  0  0  0  0  0  0  0  0  0  # atno 6907 bound_to 6896
  152.2835  134.7799  160.0401 H   0  0  0  0  0  0  0  0  0  0  0  0  # atno 6908 bound_to 6896
  151.8438  133.3392  159.3688 H   0  0  0  0  0  0  0  0  0  0  0  0  # atno 6909 bound_to 6896
  144.9184  140.6984  143.4980 H   0  0  0  0  0  0  0  0  0  0  0  0  # atno 7974 bound_to 7965
  156.2989  140.2368  156.4236 H   0  0  0  0  0  0  0  0  0  0  0  0  # atno 8008 bound_to 7997
  154.8333  140.0432  157.1512 H   0  0  0  0  0  0  0  0  0  0  0  0  # atno 8009 bound_to 7997
  154.9183  140.3000  155.5233 H   0  0  0  0  0  0  0  0  0  0  0  0  # atno 8010 bound_to 7997
  139.9183  144.6229  150.8466 H   0  0  0  0  0  0  0  0  0  0  0  0  # atno 10167 bound_to 10162
  157.0092  130.6110  149.5706 H   0  0  0  0  0  0  0  0  0  0  0  0  # atno 10718 bound_to 10713
  154.1984  135.2791  155.2999 H   0  0  0  0  0  0  0  0  0  0  0  0  # atno 10763 bound_to 10752
  154.5873  135.5570  153.7247 H   0  0  0  0  0  0  0  0  0  0  0  0  # atno 10764 bound_to 10752
  153.0094  135.6359  154.2123 H   0  0  0  0  0  0  0  0  0  0  0  0  # atno 10765 bound_to 10752
  140.2601  134.7909  157.3582 H   0  0  0  0  0  0  0  0  0  0  0  0  # atno 11005 bound_to 11000
  145.3336  139.1752  143.4523 LP  0  0  0  0  0  0  0  0  0  0  0  0  # atno 17320 bound_to 7965
  146.3193  140.3369  142.8645 LP  0  0  0  0  0  0  0  0  0  0  0  0  # atno 17321 bound_to 7965
  140.7668  143.3315  151.2399 LP  0  0  0  0  0  0  0  0  0  0  0  0  # atno 17342 bound_to 10162
  139.6883  143.9735  152.2846 LP  0  0  0  0  0  0  0  0  0  0  0  0  # atno 17343 bound_to 10162
  156.0142  130.5236  150.8084 LP  0  0  0  0  0  0  0  0  0  0  0  0  # atno 17370 bound_to 10713
  157.5333  131.0937  150.9926 LP  0  0  0  0  0  0  0  0  0  0  0  0  # atno 17371 bound_to 10713
  140.1473  134.4895  155.7987 LP  0  0  0  0  0  0  0  0  0  0  0  0  # atno 17394 bound_to 11000
  141.2191  133.6848  156.7316 LP  0  0  0  0  0  0  0  0  0  0  0  0  # atno 17395 bound_to 11000

$$$$
