AV-unprocessed.smi:1651|AV-procd|sdf|6638|dock2
  -GOLD-   22720 7343D 1   1.00000     0.00000
 Structure written by MMmdl.
 43 45  0  0  0  0  0  0  0  0  2 V2000
  146.7622  139.6622  154.0115 O   0  0  0  0  0  0  0  0  0  0  0  0
  147.6615  139.0087  153.4830 C   0  0  0  0  0  0  0  0  0  0  0  0
  147.4577  138.1550  152.4701 N   0  0  0  0  0  0  0  0  0  0  0  0
  146.1665  137.8947  151.8466 C   0  0  0  0  0  0  0  0  0  0  0  0
  145.6512  136.4770  152.0087 C   0  0  0  0  0  0  0  0  0  0  0  0
  145.2251  135.6564  150.8125 C   0  0  0  0  0  0  0  0  0  0  0  0
  144.1892  136.1680  151.7830 C   0  0  0  0  0  0  0  0  0  0  0  0
  148.9562  139.0359  153.8437 N   0  0  0  0  0  0  0  0  0  0  0  0
  149.5817  139.8289  154.8439 C   0  0  0  0  0  0  0  0  0  0  0  0
  150.7283  139.3058  155.4764 C   0  0  0  0  0  0  0  0  0  0  0  0
  151.3938  140.0619  156.4631 C   0  0  0  0  0  0  0  0  0  0  0  0
  150.9145  141.3508  156.8085 C   0  0  0  0  0  0  0  0  0  0  0  0
  151.5116  142.1791  157.7859 N   0  0  0  0  0  0  0  0  0  0  0  0
  151.4028  143.6292  157.6118 C   0  0  0  0  0  0  0  0  0  0  0  0
  152.4158  144.3813  158.4920 C   0  0  0  0  0  0  0  0  0  0  0  0
  152.3050  143.9477  159.9599 C   0  0  0  0  0  0  0  0  0  0  0  0
  152.4690  142.4253  160.0650 C   0  0  0  0  0  0  0  0  0  0  0  0
  151.4545  141.6946  159.1692 C   0  0  0  0  0  0  0  0  0  0  0  0
  149.8151  141.8129  156.1645 N   0  3  0  0  0  0  0  0  0  0  0  0
  149.1458  141.1225  155.2164 C   0  0  0  0  0  0  0  0  0  0  0  0
  148.2512  137.6534  152.0985 H   0  0  0  0  0  0  0  0  0  0  0  0
  145.4416  138.5716  152.2991 H   0  0  0  0  0  0  0  0  0  0  0  0
  146.2048  138.1541  150.7869 H   0  0  0  0  0  0  0  0  0  0  0  0
  146.1199  135.9315  152.8260 H   0  0  0  0  0  0  0  0  0  0  0  0
  145.2698  136.1267  149.8321 H   0  0  0  0  0  0  0  0  0  0  0  0
  145.4497  134.5919  150.8291 H   0  0  0  0  0  0  0  0  0  0  0  0
  143.7202  135.4435  152.4457 H   0  0  0  0  0  0  0  0  0  0  0  0
  143.5453  136.9781  151.4466 H   0  0  0  0  0  0  0  0  0  0  0  0
  149.5616  138.3845  153.3658 H   0  0  0  0  0  0  0  0  0  0  0  0
  151.0998  138.3268  155.2111 H   0  0  0  0  0  0  0  0  0  0  0  0
  152.2712  139.6385  156.9279 H   0  0  0  0  0  0  0  0  0  0  0  0
  151.5868  143.9004  156.5718 H   0  0  0  0  0  0  0  0  0  0  0  0
  150.3871  143.9430  157.8569 H   0  0  0  0  0  0  0  0  0  0  0  0
  153.4269  144.1873  158.1310 H   0  0  0  0  0  0  0  0  0  0  0  0
  152.2580  145.4567  158.4059 H   0  0  0  0  0  0  0  0  0  0  0  0
  153.0631  144.4512  160.5605 H   0  0  0  0  0  0  0  0  0  0  0  0
  151.3360  144.2458  160.3624 H   0  0  0  0  0  0  0  0  0  0  0  0
  153.4821  142.1464  159.7717 H   0  0  0  0  0  0  0  0  0  0  0  0
  152.3481  142.1062  161.1005 H   0  0  0  0  0  0  0  0  0  0  0  0
  150.4440  141.8501  159.5496 H   0  0  0  0  0  0  0  0  0  0  0  0
  151.6511  140.6243  159.2308 H   0  0  0  0  0  0  0  0  0  0  0  0
  148.3006  141.6429  154.7922 H   0  0  0  0  0  0  0  0  0  0  0  0
  149.4697  142.7409  156.4106 H   0  0  0  0  0  0  0  0  0  0  0  0
  1  2  2  0  0  0  0
  2  3  1  0  0  0  0
  2  8  1  0  0  0  0
  3  4  1  0  0  0  0
  3 21  1  0  0  0  0
  4  5  1  0  0  0  0
  4 22  1  0  0  0  0
  4 23  1  0  0  0  0
  5  7  1  0  0  0  0
  5  6  1  0  0  0  0
  5 24  1  0  0  0  0
  6  7  1  0  0  0  0
  6 25  1  0  0  0  0
  6 26  1  0  0  0  0
  7 27  1  0  0  0  0
  7 28  1  0  0  0  0
  8  9  1  0  0  0  0
  8 29  1  0  0  0  0
  9 20  1  0  0  0  0
  9 10  2  0  0  0  0
 10 11  1  0  0  0  0
 10 30  1  0  0  0  0
 11 12  2  0  0  0  0
 11 31  1  0  0  0  0
 12 13  1  0  0  0  0
 12 19  1  0  0  0  0
 13 18  1  0  0  0  0
 13 14  1  0  0  0  0
 14 15  1  0  0  0  0
 14 32  1  0  0  0  0
 14 33  1  0  0  0  0
 15 16  1  0  0  0  0
 15 34  1  0  0  0  0
 15 35  1  0  0  0  0
 16 17  1  0  0  0  0
 16 36  1  0  0  0  0
 16 37  1  0  0  0  0
 17 18  1  0  0  0  0
 17 38  1  0  0  0  0
 17 39  1  0  0  0  0
 18 40  1  0  0  0  0
 18 41  1  0  0  0  0
 19 20  2  0  0  0  0
 19 43  1  0  0  0  0
 20 42  1  0  0  0  0
M  CHG  1  19   1
M  END
> <s_m_source_file>
AV-unprocessed.smi

> <i_m_source_file_index>
1651

> <i_lp_mmshare_version>
43012

> <i_f3d_flags>
0

> <s_epik_input>
W0NIMl0xW0NIMl1bQ0hdMVtDSDJdW05IXUMoPU8pW05IXWMyW2NIXVtjSF1jKG5bY0hdMilOM1tDSDJdW0NIMl1bQ0gyXVtDSDJdW0NIMl0z

> <s_epik_cmdline>
J2VwaWtfcHl0aG9uJywgJy1waCcsICc3LjAnLCAnLXRuJywgJzgnLCAnLW1hJywgJzIwMCcsICctbWV0YWxfYmluZGluZycsICctaW1hZScsICc8aW5maWxlLm1hZT4nLCAnLW9tYWUnLCAnPG91dGZpbGUubWFlPic=

> <r_lp_tautomer_probability>
0.999994

> <r_epik_Ionization_Penalty>
1.09132

> <r_epik_Ionization_Penalty_Charging>
1.09129

> <r_epik_Ionization_Penalty_Neutral>
2.16154e-05

> <r_epik_State_Penalty>
1.1476

> <r_epik_Charging_Adjusted_Penalty>
2.2389

> <i_epik_Tot_Q>
1

> <i_epik_Tot_abs_Q>
1

> <r_epik_Metal_State_Penalty>
1.23617

> <b_epik_Metal_Only>
0

> <s_lp_Force_Field>
OPLS_2005

> <r_lp_Energy>
33.6133

> <b_lp_Chiralities_Consistent>
1

> <s_lp_Variant>
AV-unprocessed.smi:1651-2

> <Gold.Version>
5.8.1

> <Gold.Id.Protein>
6NUR|6NUR_protein|mol2

> <Gold.PLP.Fitness>
54.1476

> <Gold.PLP.PLP>
-46.5765

> <Gold.PLP.part.hbond>
-4.0000

> <Gold.PLP.part.metal>
0.0000

> <Gold.PLP.part.buried>
-2.2226

> <Gold.PLP.part.nonpolar>
-41.7514

> <Gold.PLP.part.repulsive>
0.4526

> <Gold.PLP.ligand.clash>
0.0000

> <Gold.PLP.ligand.torsion>
1.0440

> <Gold.PLP.Chemscore.Hbond>
2.8640

> <Gold.PLP.Chemscore.CHOScore>
0.0000

> <Gold.PLP.Chemscore.Metal>
0.0000

> <Gold.Chemscore.Hbonds>
donor molecule, donor type, donor heavy atom, donor atom, acceptor molecule, acceptor atom, score
      L1  H     3    21       P1  7948  0.98
      L1  H    19    43       P1  8028  1.09

> <Gold.PLP.Chemscore.Internal.Correction>
1.0671

> <Gold.Rescore>
     Score         DG    S(hbond)    S(metal)    S(lipo)     H(rot)  DE(clash)    DE(int)     intcor
     19.96     -21.15       1.93        0.00     107.92       1.33       0.23       0.96       ----

> <Gold.Chemscore.Fitness>
19.9588

> <Gold.Chemscore.DG>
-21.1522

> <Gold.Chemscore.ZeroCoef>
-5.4800

> <Gold.Chemscore.Hbond>
1.9323

> <Gold.Chemscore.Metal>
0.0000

> <Gold.Chemscore.Lipo>
107.9204

> <Gold.Chemscore.Internal_Hbond>
0.0000

> <Gold.Chemscore.DEClash>
0.2289

> <Gold.Chemscore.DEInternal>
0.9645

> <Gold.Chemscore.Rot>
1.3313

> <Gold.Chemscore.Internal.Correction>
   9.000000E+99

> <Gold.Chemscore.Hbonds>
donor molecule, donor type, donor heavy atom, donor atom, acceptor molecule, acceptor atom, score
      L1  H     3    21       P1  7948  0.91
      L1  H    19    43       P1  8028  0.52

> <Gold.Chemscore.Hbond.Weighted>
-6.4537

> <Gold.Chemscore.Metal.Weighted>
-0.0000

> <Gold.Chemscore.Lipo.Weighted>
-12.6267

> <Gold.Chemscore.Internal_Hbond.Weighted>
0.0000

> <Gold.Chemscore.DEClash.Weighted>
0.2289

> <Gold.Chemscore.DEInternal.Weighted>
0.9645

> <Gold.Chemscore.Rot.Weighted>
3.4083

> <Gold.Chemscore.Internal.Correction.Weighted>
   9.000000E+99

> <Gold.Protein.RotatedTorsions>
[ 6907 6896 6895 6894 ] final   17.14 input  -60.11 | X-H torsion
[ 7974 7965 7964 7962 ] final   95.51 input  175.53 | X-H torsion
[ 8008 7997 7996 7995 ] final  -89.40 input   59.86 | X-H torsion
[ 10167 10162 10161 10158 ] final  -62.45 input  -65.29 | X-H torsion
[ 10718 10713 10712 10709 ] final  -12.26 input   66.30 | X-H torsion
[ 10763 10752 10751 10750 ] final   90.75 input  -60.55 | X-H torsion
[ 11005 11000 10999 10996 ] final -109.62 input  -57.11 | X-H torsion

> <Gold.Protein.ActiveResidues>
 VAL166  LYS551  ARG553  GLY616  TRP617  ASP618  TYR619  PRO620  LYS621  CYS622 
 ASP623  PHE694  ASN695  SER759  ASP760  ASP761  ALA762  ILE779  LEU786  VAL792 
 PHE793  MET794  SER795  GLU796  ALA797  LYS798  CYS799  TRP800  GLU811  SER814 

> <Gold.Protein.RotatedAtoms>
  151.8449  135.0578  160.0452 H   0  0  0  0  0  0  0  0  0  0  0  0  # atno 6907 bound_to 6896
  152.2781  133.5440  159.5489 H   0  0  0  0  0  0  0  0  0  0  0  0  # atno 6908 bound_to 6896
  150.7178  134.0519  159.3843 H   0  0  0  0  0  0  0  0  0  0  0  0  # atno 6909 bound_to 6896
  145.4512  139.2293  143.3039 H   0  0  0  0  0  0  0  0  0  0  0  0  # atno 7974 bound_to 7965
  154.6861  140.0542  157.0316 H   0  0  0  0  0  0  0  0  0  0  0  0  # atno 8008 bound_to 7997
  155.0882  140.3216  155.4562 H   0  0  0  0  0  0  0  0  0  0  0  0  # atno 8009 bound_to 7997
  156.2712  140.2052  156.6010 H   0  0  0  0  0  0  0  0  0  0  0  0  # atno 8010 bound_to 7997
  140.5938  143.2347  151.6080 H   0  0  0  0  0  0  0  0  0  0  0  0  # atno 10167 bound_to 10162
  156.6472  130.4944  149.6074 H   0  0  0  0  0  0  0  0  0  0  0  0  # atno 10718 bound_to 10713
  153.2009  135.4422  155.0265 H   0  0  0  0  0  0  0  0  0  0  0  0  # atno 10763 bound_to 10752
  154.8146  135.3309  154.7214 H   0  0  0  0  0  0  0  0  0  0  0  0  # atno 10764 bound_to 10752
  153.7660  135.6988  153.4971 H   0  0  0  0  0  0  0  0  0  0  0  0  # atno 10765 bound_to 10752
  141.0837  133.9176  157.2232 H   0  0  0  0  0  0  0  0  0  0  0  0  # atno 11005 bound_to 11000
  146.2503  140.5271  142.8896 LP  0  0  0  0  0  0  0  0  0  0  0  0  # atno 17320 bound_to 7965
  144.8060  140.6301  143.6446 LP  0  0  0  0  0  0  0  0  0  0  0  0  # atno 17321 bound_to 7965
  139.5245  144.3102  152.0999 LP  0  0  0  0  0  0  0  0  0  0  0  0  # atno 17342 bound_to 10162
  140.2271  144.4406  150.6316 LP  0  0  0  0  0  0  0  0  0  0  0  0  # atno 17343 bound_to 10162
  156.2112  130.6680  151.1272 LP  0  0  0  0  0  0  0  0  0  0  0  0  # atno 17370 bound_to 10713
  157.7152  131.0713  150.6352 LP  0  0  0  0  0  0  0  0  0  0  0  0  # atno 17371 bound_to 10713
  139.9653  135.0143  156.9371 LP  0  0  0  0  0  0  0  0  0  0  0  0  # atno 17394 bound_to 11000
  140.5411  134.0719  155.7342 LP  0  0  0  0  0  0  0  0  0  0  0  0  # atno 17395 bound_to 11000

$$$$
