AV-unprocessed.smi:72|AV-procd|sdf|712|dock4
  -GOLD-   2262017 33D 1   1.00000     0.00000
 Structure written by MMmdl.
 28 29  0  0  0  0  0  0  0  0  2 V2000
  153.0529  140.0398  159.1097 N   0  0  0  0  0  0  0  0  0  0  0  0
  152.1397  140.0305  158.2410 C   0  0  0  0  0  0  0  0  0  0  0  0
  150.7523  140.0995  158.6446 N   0  0  0  0  0  0  0  0  0  0  0  0
  149.8492  140.0789  157.7130 C   0  0  0  0  0  0  0  0  0  0  0  0
  150.2026  139.9850  156.3021 N   0  0  0  0  0  0  0  0  0  0  0  0
  149.1505  139.9638  155.2066 C   0  0  1  0  0  0  0  0  0  0  0  0
  147.8768  139.8148  155.7715 O   0  0  0  0  0  0  0  0  0  0  0  0
  147.1181  140.9997  155.5625 C   0  0  2  0  0  0  0  0  0  0  0  0
  145.6092  140.7094  155.6559 C   0  0  0  0  0  0  0  0  0  0  0  0
  145.1881  139.7536  154.7040 O   0  0  0  0  0  0  0  0  0  0  0  0
  147.6449  141.5437  154.2344 C   0  0  1  0  0  0  0  0  0  0  0  0
  147.3430  142.9128  154.0379 O   0  0  0  0  0  0  0  0  0  0  0  0
  149.1391  141.2551  154.3482 C   0  0  1  0  0  0  0  0  0  0  0  0
  149.8493  142.3349  154.9372 O   0  0  0  0  0  0  0  0  0  0  0  0
  151.5734  139.9329  155.9352 C   0  0  0  0  0  0  0  0  0  0  0  0
  151.8505  139.8809  154.7366 O   0  0  0  0  0  0  0  0  0  0  0  0
  152.5163  139.9543  156.9183 N   0  5  0  0  0  0  0  0  0  0  0  0
  149.3480  139.0625  154.6239 H   0  0  0  0  0  0  0  0  0  0  0  0
  147.3863  141.6927  156.3620 H   0  0  0  0  0  0  0  0  0  0  0  0
  147.2441  140.9681  153.3996 H   0  0  0  0  0  0  0  0  0  0  0  0
  149.5827  141.0471  153.3741 H   0  0  0  0  0  0  0  0  0  0  0  0
  152.6879  140.0973  160.0494 H   0  0  0  0  0  0  0  0  0  0  0  0
  148.7826  140.1332  157.9294 H   0  0  0  0  0  0  0  0  0  0  0  0
  145.3466  140.3686  156.6576 H   0  0  0  0  0  0  0  0  0  0  0  0
  145.0490  141.6269  155.4748 H   0  0  0  0  0  0  0  0  0  0  0  0
  144.6722  140.1932  154.0456 H   0  0  0  0  0  0  0  0  0  0  0  0
  147.9136  143.4253  154.5897 H   0  0  0  0  0  0  0  0  0  0  0  0
  149.2943  143.1004  154.9199 H   0  0  0  0  0  0  0  0  0  0  0  0
  1  2  2  0  0  0  0
  1 22  1  0  0  0  0
  2 17  1  0  0  0  0
  2  3  1  0  0  0  0
  3  4  2  0  0  0  0
  4  5  1  0  0  0  0
  4 23  1  0  0  0  0
  5  6  1  0  0  0  0
  5 15  1  0  0  0  0
  6 18  1  0  0  0  0
  6 13  1  0  0  0  0
  6  7  1  0  0  0  0
  7  8  1  0  0  0  0
  8 19  1  0  0  0  0
  8  9  1  0  0  0  0
  8 11  1  0  0  0  0
  9 10  1  0  0  0  0
  9 24  1  0  0  0  0
  9 25  1  0  0  0  0
 10 26  1  0  0  0  0
 11 20  1  0  0  0  0
 11 12  1  0  0  0  0
 11 13  1  0  0  0  0
 12 27  1  0  0  0  0
 13 21  1  0  0  0  0
 13 14  1  0  0  0  0
 14 28  1  0  0  0  0
 15 16  2  0  0  0  0
 15 17  1  0  0  0  0
M  CHG  1  17  -1
M  END
> <s_m_source_file>
AV-unprocessed.smi

> <i_m_source_file_index>
72

> <i_lp_mmshare_version>
43012

> <i_f3d_flags>
0

> <s_epik_input>
W05IMl1jMW5bY0hdbihjKD1PKW4xKVtDQEBIXTJPW0NASF0oW0NIMl1bT0hdKVtDQEBIXShbT0hdKVtDQEhdMltPSF0=

> <s_epik_cmdline>
J2VwaWtfcHl0aG9uJywgJy1waCcsICc3LjAnLCAnLXRuJywgJzgnLCAnLW1hJywgJzIwMCcsICctbWV0YWxfYmluZGluZycsICctaW1hZScsICc8aW5maWxlLm1hZT4nLCAnLW9tYWUnLCAnPG91dGZpbGUubWFlPic=

> <r_lp_tautomer_probability>
7.17554e-07

> <r_epik_Ionization_Penalty>
12.8705

> <r_epik_Ionization_Penalty_Charging>
5.64144

> <r_epik_Ionization_Penalty_Neutral>
7.22905

> <r_epik_State_Penalty>
3.30104

> <r_epik_Charging_Adjusted_Penalty>
8.94249

> <i_epik_Tot_Q>
-1

> <i_epik_Tot_abs_Q>
1

> <r_epik_Metal_State_Penalty>
0.529074

> <b_epik_Metal_Only>
1

> <s_epik_Chemistry_Notes>
This compound contains an acetal/aminal-like group ( X-CH(R)-Y where X, Y are N, S, or O) that may be acid/base labile, releasing an aldehyde.

> <s_lp_Force_Field>
OPLS_2005

> <r_lp_Energy>
42.9938

> <b_lp_Chiralities_Consistent>
1

> <s_lp_Variant>
AV-unprocessed.smi:72-50

> <Gold.Version>
5.8.1

> <Gold.Id.Protein>
6NUR|6NUR_protein|mol2

> <Gold.PLP.Fitness>
39.3492

> <Gold.PLP.PLP>
-21.7102

> <Gold.PLP.part.hbond>
-7.2078

> <Gold.PLP.part.metal>
0.0000

> <Gold.PLP.part.buried>
-0.7292

> <Gold.PLP.part.nonpolar>
-13.4671

> <Gold.PLP.part.repulsive>
0.0661

> <Gold.PLP.ligand.clash>
0.0000

> <Gold.PLP.ligand.torsion>
0.1629

> <Gold.PLP.Chemscore.Hbond>
5.9760

> <Gold.PLP.Chemscore.CHOScore>
0.0000

> <Gold.PLP.Chemscore.Metal>
0.0000

> <Gold.Chemscore.Hbonds>
donor molecule, donor type, donor heavy atom, donor atom, acceptor molecule, acceptor atom, score
      L1  H    10    26       P1 10175  1.00
      L1  H    12    27       P1  8028  1.00
      L1  H    14    28       P1  8028  0.96
      P1  H  7989  7998       L1    16  0.98
      P1  H  7997  8010       L1    17  2.00

> <Gold.PLP.Chemscore.Internal.Correction>
0.0369

> <Gold.Rescore>
     Score         DG    S(hbond)    S(metal)    S(lipo)     H(rot)  DE(clash)    DE(int)     intcor
     12.27     -13.15       4.72        0.00      19.29       4.04       0.60       0.28       ----

> <Gold.Chemscore.Fitness>
12.2711

> <Gold.Chemscore.DG>
-13.1519

> <Gold.Chemscore.ZeroCoef>
-5.4800

> <Gold.Chemscore.Hbond>
4.7179

> <Gold.Chemscore.Metal>
0.0000

> <Gold.Chemscore.Lipo>
19.2918

> <Gold.Chemscore.Internal_Hbond>
0.0000

> <Gold.Chemscore.DEClash>
0.5994

> <Gold.Chemscore.DEInternal>
0.2814

> <Gold.Chemscore.Rot>
4.0403

> <Gold.Chemscore.Internal.Correction>
   9.000000E+99

> <Gold.Chemscore.Hbonds>
donor molecule, donor type, donor heavy atom, donor atom, acceptor molecule, acceptor atom, score
      L1  H    10    26       P1 10175  1.00
      L1  H    12    27       P1  8028  0.74
      L1  H    14    28       P1  8028  0.92
      P1  H  7989  7998       L1    16  0.91
      P1  H  7997  8010       L1    17  0.90

> <Gold.Chemscore.Hbond.Weighted>
-15.7578

> <Gold.Chemscore.Metal.Weighted>
-0.0000

> <Gold.Chemscore.Lipo.Weighted>
-2.2571

> <Gold.Chemscore.Internal_Hbond.Weighted>
0.0000

> <Gold.Chemscore.DEClash.Weighted>
0.5994

> <Gold.Chemscore.DEInternal.Weighted>
0.2814

> <Gold.Chemscore.Rot.Weighted>
10.3431

> <Gold.Chemscore.Internal.Correction.Weighted>
   9.000000E+99

> <Gold.Protein.RotatedTorsions>
[ 6907 6896 6895 6894 ] final -130.34 input  -60.11 | X-H torsion
[ 7974 7965 7964 7962 ] final -133.17 input  175.53 | X-H torsion
[ 8008 7997 7996 7995 ] final   62.41 input   59.86 | X-H torsion
[ 10167 10162 10161 10158 ] final   47.74 input  -65.29 | X-H torsion
[ 10718 10713 10712 10709 ] final   26.75 input   66.30 | X-H torsion
[ 10763 10752 10751 10750 ] final  162.89 input  -60.55 | X-H torsion
[ 11005 11000 10999 10996 ] final   12.41 input  -57.11 | X-H torsion

> <Gold.Protein.ActiveResidues>
 VAL166  LYS551  ARG553  GLY616  TRP617  ASP618  TYR619  PRO620  LYS621  CYS622 
 ASP623  PHE694  ASN695  SER759  ASP760  ASP761  ALA762  ILE779  LEU786  VAL792 
 PHE793  MET794  SER795  GLU796  ALA797  LYS798  CYS799  TRP800  GLU811  SER814 

> <Gold.Protein.RotatedAtoms>
  150.9386  133.6683  159.2795 H   0  0  0  0  0  0  0  0  0  0  0  0  # atno 6907 bound_to 6896
  151.4079  135.0979  159.9586 H   0  0  0  0  0  0  0  0  0  0  0  0  # atno 6908 bound_to 6896
  152.5059  133.8866  159.7427 H   0  0  0  0  0  0  0  0  0  0  0  0  # atno 6909 bound_to 6896
  144.9218  140.7023  143.4961 H   0  0  0  0  0  0  0  0  0  0  0  0  # atno 7974 bound_to 7965
  155.6139  140.3495  155.4631 H   0  0  0  0  0  0  0  0  0  0  0  0  # atno 8008 bound_to 7997
  156.0132  140.1237  157.0457 H   0  0  0  0  0  0  0  0  0  0  0  0  # atno 8009 bound_to 7997
  154.4288  140.1077  156.5845 H   0  0  0  0  0  0  0  0  0  0  0  0  # atno 8010 bound_to 7997
  140.3005  144.2939  150.6220 H   0  0  0  0  0  0  0  0  0  0  0  0  # atno 10167 bound_to 10162
  157.2111  130.6934  149.6228 H   0  0  0  0  0  0  0  0  0  0  0  0  # atno 10718 bound_to 10713
  154.2854  135.2762  155.2679 H   0  0  0  0  0  0  0  0  0  0  0  0  # atno 10763 bound_to 10752
  154.5181  135.5764  153.6662 H   0  0  0  0  0  0  0  0  0  0  0  0  # atno 10764 bound_to 10752
  152.9922  135.6197  154.3015 H   0  0  0  0  0  0  0  0  0  0  0  0  # atno 10765 bound_to 10752
  140.4922  134.0829  155.7774 H   0  0  0  0  0  0  0  0  0  0  0  0  # atno 11005 bound_to 11000
  145.3284  139.1767  143.4550 LP  0  0  0  0  0  0  0  0  0  0  0  0  # atno 17320 bound_to 7965
  146.3208  140.3311  142.8640 LP  0  0  0  0  0  0  0  0  0  0  0  0  # atno 17321 bound_to 7965
  140.5655  143.2187  151.7691 LP  0  0  0  0  0  0  0  0  0  0  0  0  # atno 17342 bound_to 10162
  139.4916  144.4290  151.9894 LP  0  0  0  0  0  0  0  0  0  0  0  0  # atno 17343 bound_to 10162
  155.9690  130.4551  150.5874 LP  0  0  0  0  0  0  0  0  0  0  0  0  # atno 17370 bound_to 10713
  157.3672  131.0759  151.1588 LP  0  0  0  0  0  0  0  0  0  0  0  0  # atno 17371 bound_to 10713
  141.1478  133.9024  157.2173 LP  0  0  0  0  0  0  0  0  0  0  0  0  # atno 17394 bound_to 11000
  139.9762  135.0113  156.9637 LP  0  0  0  0  0  0  0  0  0  0  0  0  # atno 17395 bound_to 11000

$$$$
