AV-unprocessed.smi:2069|AV-procd|sdf|8431|dock9
  -GOLD-   2272011123D 1   1.00000     0.00000
 Structure written by MMmdl.
 38 39  0  0  0  0  0  0  0  0  1 V2000
  150.8029  141.8334  156.5150 C   0  0  0  0  0  0  0  0  0  0  0  0
  150.4241  140.6060  155.7592 C   0  0  0  0  0  0  0  0  0  0  0  0
  151.3023  139.8944  155.0420 N   0  0  0  0  0  0  0  0  0  0  0  0
  150.7136  138.7986  154.4267 N   0  0  0  0  0  0  0  0  0  0  0  0
  149.4042  138.7159  154.6995 C   0  0  0  0  0  0  0  0  0  0  0  0
  148.5557  137.6940  154.1977 N   0  0  0  0  0  0  0  0  0  0  0  0
  147.2764  137.4380  154.5230 C   0  0  0  0  0  0  0  0  0  0  0  0
  146.6092  138.0745  155.3387 O   0  0  0  0  0  0  0  0  0  0  0  0
  146.8042  136.3889  153.8336 N   0  0  0  0  0  0  0  0  0  0  0  0
  145.4554  135.8369  153.9417 C   0  0  0  0  0  0  0  0  0  0  0  0
  144.7192  135.7530  152.5743 C   0  0  2  0  0  0  0  0  0  0  0  0
  143.2610  136.2489  152.7504 C   0  0  0  0  0  0  0  0  0  0  0  0
  144.7964  134.4084  151.9557 N   0  0  0  0  0  0  0  0  0  0  0  0
  146.1775  133.9472  151.7708 C   0  0  0  0  0  0  0  0  0  0  0  0
  146.2632  132.5648  151.1010 C   0  0  0  0  0  0  0  0  0  0  0  0
  145.5870  132.5944  149.8522 O   0  0  0  0  0  0  0  0  0  0  0  0
  144.2209  132.9564  149.9962 C   0  0  0  0  0  0  0  0  0  0  0  0
  144.1191  134.3428  150.6550 C   0  0  0  0  0  0  0  0  0  0  0  0
  148.7793  139.9823  155.7419 S   0  0  0  0  0  0  0  0  0  0  0  0
  151.8503  142.0835  156.3438 H   0  0  0  0  0  0  0  0  0  0  0  0
  150.6516  141.6749  157.5829 H   0  0  0  0  0  0  0  0  0  0  0  0
  150.1868  142.6732  156.1932 H   0  0  0  0  0  0  0  0  0  0  0  0
  148.9721  137.0869  153.5073 H   0  0  0  0  0  0  0  0  0  0  0  0
  147.4263  135.9320  153.1832 H   0  0  0  0  0  0  0  0  0  0  0  0
  145.6017  134.8482  154.3716 H   0  0  0  0  0  0  0  0  0  0  0  0
  144.8495  136.3951  154.6578 H   0  0  0  0  0  0  0  0  0  0  0  0
  145.2136  136.4583  151.9040 H   0  0  0  0  0  0  0  0  0  0  0  0
  143.2092  137.2267  153.2272 H   0  0  0  0  0  0  0  0  0  0  0  0
  142.6803  135.5558  153.3599 H   0  0  0  0  0  0  0  0  0  0  0  0
  142.7467  136.3758  151.7990 H   0  0  0  0  0  0  0  0  0  0  0  0
  146.7332  134.6732  151.1753 H   0  0  0  0  0  0  0  0  0  0  0  0
  146.6881  133.8637  152.7279 H   0  0  0  0  0  0  0  0  0  0  0  0
  147.3049  132.2899  150.9353 H   0  0  0  0  0  0  0  0  0  0  0  0
  145.8278  131.7967  151.7421 H   0  0  0  0  0  0  0  0  0  0  0  0
  143.7508  132.9688  149.0128 H   0  0  0  0  0  0  0  0  0  0  0  0
  143.6977  132.2060  150.5912 H   0  0  0  0  0  0  0  0  0  0  0  0
  143.0589  134.5642  150.7623 H   0  0  0  0  0  0  0  0  0  0  0  0
  144.5349  135.0949  149.9827 H   0  0  0  0  0  0  0  0  0  0  0  0
  1  2  1  0  0  0  0
  1 20  1  0  0  0  0
  1 21  1  0  0  0  0
  1 22  1  0  0  0  0
  2 19  1  0  0  0  0
  2  3  2  0  0  0  0
  3  4  1  0  0  0  0
  4  5  2  0  0  0  0
  5  6  1  0  0  0  0
  5 19  1  0  0  0  0
  6  7  1  0  0  0  0
  6 23  1  0  0  0  0
  7  8  2  0  0  0  0
  7  9  1  0  0  0  0
  9 10  1  0  0  0  0
  9 24  1  0  0  0  0
 10 11  1  0  0  0  0
 10 25  1  0  0  0  0
 10 26  1  0  0  0  0
 11 12  1  0  0  0  0
 11 13  1  0  0  0  0
 11 27  1  0  0  0  0
 12 28  1  0  0  0  0
 12 29  1  0  0  0  0
 12 30  1  0  0  0  0
 13 18  1  0  0  0  0
 13 14  1  0  0  0  0
 14 15  1  0  0  0  0
 14 31  1  0  0  0  0
 14 32  1  0  0  0  0
 15 16  1  0  0  0  0
 15 33  1  0  0  0  0
 15 34  1  0  0  0  0
 16 17  1  0  0  0  0
 17 18  1  0  0  0  0
 17 35  1  0  0  0  0
 17 36  1  0  0  0  0
 18 37  1  0  0  0  0
 18 38  1  0  0  0  0
M  END
> <s_m_source_file>
AV-unprocessed.smi

> <i_m_source_file_index>
2069

> <i_lp_mmshare_version>
43012

> <i_f3d_flags>
0

> <s_epik_input>
W0NIM11jMW5uYyhzMSlbTkhdQyg9TylbTkhdW0NIMl1bQ0BIXShbQ0gzXSlOMltDSDJdW0NIMl1PW0NIMl1bQ0gyXTI=

> <s_epik_cmdline>
J2VwaWtfcHl0aG9uJywgJy1waCcsICc3LjAnLCAnLXRuJywgJzgnLCAnLW1hJywgJzIwMCcsICctbWV0YWxfYmluZGluZycsICctaW1hZScsICc8aW5maWxlLm1hZT4nLCAnLW9tYWUnLCAnPG91dGZpbGUubWFlPic=

> <r_lp_tautomer_probability>
1

> <r_epik_Ionization_Penalty>
0.221104

> <r_epik_Ionization_Penalty_Charging>
0

> <r_epik_Ionization_Penalty_Neutral>
0.221104

> <r_epik_State_Penalty>
0.209349

> <r_epik_Charging_Adjusted_Penalty>
0.209349

> <i_epik_Tot_Q>
0

> <i_epik_Tot_abs_Q>
0

> <r_epik_Metal_State_Penalty>
0.561068

> <b_epik_Metal_Only>
0

> <s_lp_Force_Field>
OPLS_2005

> <r_lp_Energy>
28.2762

> <b_lp_Chiralities_Consistent>
1

> <s_lp_Variant>
AV-unprocessed.smi:2069-1

> <Gold.Version>
5.8.1

> <Gold.Id.Protein>
6NUR|6NUR_protein|mol2

> <Gold.PLP.Fitness>
33.9976

> <Gold.PLP.PLP>
-26.5922

> <Gold.PLP.part.hbond>
-3.0000

> <Gold.PLP.part.metal>
0.0000

> <Gold.PLP.part.buried>
-7.0032

> <Gold.PLP.part.nonpolar>
-18.6422

> <Gold.PLP.part.repulsive>
0.5460

> <Gold.PLP.ligand.clash>
0.0000

> <Gold.PLP.ligand.torsion>
0.6060

> <Gold.PLP.Chemscore.Hbond>
2.8640

> <Gold.PLP.Chemscore.CHOScore>
0.0000

> <Gold.PLP.Chemscore.Metal>
0.0000

> <Gold.Chemscore.Hbonds>
donor molecule, donor type, donor heavy atom, donor atom, acceptor molecule, acceptor atom, score
      L1  H     6    23       P1  7948  1.00
      L1  H     9    24       P1  7948  0.89
      P1  H  7989  7998       L1     3  0.85

> <Gold.PLP.Chemscore.Internal.Correction>
0.0254

> <Gold.Rescore>
     Score         DG    S(hbond)    S(metal)    S(lipo)     H(rot)  DE(clash)    DE(int)     intcor
     13.75     -15.74       2.27        0.00      57.96       1.60       0.08       1.90       ----

> <Gold.Chemscore.Fitness>
13.7540

> <Gold.Chemscore.DG>
-15.7361

> <Gold.Chemscore.ZeroCoef>
-5.4800

> <Gold.Chemscore.Hbond>
2.2678

> <Gold.Chemscore.Metal>
0.0000

> <Gold.Chemscore.Lipo>
57.9626

> <Gold.Chemscore.Internal_Hbond>
0.0000

> <Gold.Chemscore.DEClash>
0.0783

> <Gold.Chemscore.DEInternal>
1.9038

> <Gold.Chemscore.Rot>
1.6016

> <Gold.Chemscore.Internal.Correction>
   9.000000E+99

> <Gold.Chemscore.Hbonds>
donor molecule, donor type, donor heavy atom, donor atom, acceptor molecule, acceptor atom, score
      L1  H     6    23       P1  7948  0.97
      L1  H     9    24       P1  7948  0.81
      P1  H  7989  7998       L1     3  0.09

> <Gold.Chemscore.Hbond.Weighted>
-7.5746

> <Gold.Chemscore.Metal.Weighted>
-0.0000

> <Gold.Chemscore.Lipo.Weighted>
-6.7816

> <Gold.Chemscore.Internal_Hbond.Weighted>
0.0000

> <Gold.Chemscore.DEClash.Weighted>
0.0783

> <Gold.Chemscore.DEInternal.Weighted>
1.9038

> <Gold.Chemscore.Rot.Weighted>
4.1001

> <Gold.Chemscore.Internal.Correction.Weighted>
   9.000000E+99

> <Gold.Protein.RotatedTorsions>
[ 6907 6896 6895 6894 ] final -179.99 input  -60.11 | X-H torsion
[ 7974 7965 7964 7962 ] final  -42.91 input  175.53 | X-H torsion
[ 8008 7997 7996 7995 ] final   28.13 input   59.86 | X-H torsion
[ 10167 10162 10161 10158 ] final   44.87 input  -65.29 | X-H torsion
[ 10718 10713 10712 10709 ] final -108.29 input   66.30 | X-H torsion
[ 10763 10752 10751 10750 ] final  121.69 input  -60.55 | X-H torsion
[ 11005 11000 10999 10996 ] final  -97.35 input  -57.11 | X-H torsion

> <Gold.Protein.ActiveResidues>
 VAL166  LYS551  ARG553  GLY616  TRP617  ASP618  TYR619  PRO620  LYS621  CYS622 
 ASP623  PHE694  ASN695  SER759  ASP760  ASP761  ALA762  ILE779  LEU786  VAL792 
 PHE793  MET794  SER795  GLU796  ALA797  LYS798  CYS799  TRP800  GLU811  SER814 

> <Gold.Protein.RotatedAtoms>
  151.6624  133.3316  159.3176 H   0  0  0  0  0  0  0  0  0  0  0  0  # atno 6907 bound_to 6896
  150.7907  134.6932  159.6518 H   0  0  0  0  0  0  0  0  0  0  0  0  # atno 6908 bound_to 6896
  152.3986  134.6328  160.0131 H   0  0  0  0  0  0  0  0  0  0  0  0  # atno 6909 bound_to 6896
  146.0070  140.7008  142.9243 H   0  0  0  0  0  0  0  0  0  0  0  0  # atno 7974 bound_to 7965
  155.0537  140.3182  155.4683 H   0  0  0  0  0  0  0  0  0  0  0  0  # atno 8008 bound_to 7997
  156.2828  140.2141  156.5607 H   0  0  0  0  0  0  0  0  0  0  0  0  # atno 8009 bound_to 7997
  154.7189  140.0491  157.0608 H   0  0  0  0  0  0  0  0  0  0  0  0  # atno 8010 bound_to 7997
  140.3299  144.2602  150.6169 H   0  0  0  0  0  0  0  0  0  0  0  0  # atno 10167 bound_to 10162
  156.0478  130.5705  150.7941 H   0  0  0  0  0  0  0  0  0  0  0  0  # atno 10718 bound_to 10713
  153.6181  135.3418  155.3001 H   0  0  0  0  0  0  0  0  0  0  0  0  # atno 10763 bound_to 10752
  154.8605  135.4266  154.2237 H   0  0  0  0  0  0  0  0  0  0  0  0  # atno 10764 bound_to 10752
  153.3103  135.7031  153.7194 H   0  0  0  0  0  0  0  0  0  0  0  0  # atno 10765 bound_to 10752
  141.1382  133.8165  157.0695 H   0  0  0  0  0  0  0  0  0  0  0  0  # atno 11005 bound_to 11000
  144.6939  140.3332  143.7212 LP  0  0  0  0  0  0  0  0  0  0  0  0  # atno 17320 bound_to 7965
  145.7400  139.1761  143.2381 LP  0  0  0  0  0  0  0  0  0  0  0  0  # atno 17321 bound_to 7965
  140.5407  143.2224  151.8090 LP  0  0  0  0  0  0  0  0  0  0  0  0  # atno 17342 bound_to 10162
  139.4858  144.4604  151.9548 LP  0  0  0  0  0  0  0  0  0  0  0  0  # atno 17343 bound_to 10162
  157.5373  131.0939  150.9875 LP  0  0  0  0  0  0  0  0  0  0  0  0  # atno 17370 bound_to 10713
  157.0166  130.5657  149.5326 LP  0  0  0  0  0  0  0  0  0  0  0  0  # atno 17371 bound_to 10713
  140.0520  134.9800  157.1154 LP  0  0  0  0  0  0  0  0  0  0  0  0  # atno 17394 bound_to 11000
  140.3975  134.2118  155.7164 LP  0  0  0  0  0  0  0  0  0  0  0  0  # atno 17395 bound_to 11000

$$$$
