AV-unprocessed.smi:3181|AV-procd|sdf|12141|dock5
  -GOLD-   2272017583D 1   1.00000     0.00000
 Structure written by MMmdl.
 42 43  0  0  0  0  0  0  0  0  2 V2000
  149.0020  141.7154  154.3918 C   0  0  0  0  0  0  0  0  0  0  0  0
  149.9321  141.3082  155.5471 C   0  0  2  0  0  0  0  0  0  0  0  0
  149.7752  139.8241  155.9528 C   0  0  0  0  0  0  0  0  0  0  0  0
  150.7903  138.9665  155.3694 N   0  0  0  0  0  0  0  0  0  0  0  0
  150.8627  137.6365  155.2956 C   0  0  0  0  0  0  0  0  0  0  0  0
  151.9516  137.1933  154.6836 N   0  0  0  0  0  0  0  0  0  0  0  0
  152.5454  138.3861  154.3806 C   0  0  0  0  0  0  0  0  0  0  0  0
  151.8890  139.4800  154.7682 N   0  0  0  0  0  0  0  0  0  0  0  0
  149.6992  142.2118  156.6979 N   0  3  0  0  0  0  0  0  0  0  0  0
  150.8664  142.4743  157.5704 C   0  0  1  0  0  0  0  0  0  0  0  0
  150.4914  143.4933  158.6564 C   0  0  0  0  0  0  0  0  0  0  0  0
  151.6823  143.7690  159.5846 C   0  0  0  0  0  0  0  0  0  0  0  0
  152.2170  142.4794  160.2409 C   0  0  2  0  0  0  0  0  0  0  0  0
  153.4069  142.8159  161.1574 C   0  0  0  0  0  0  0  0  0  0  0  0
  152.5643  141.4169  159.1639 C   0  0  1  0  0  0  0  0  0  0  0  0
  153.0323  140.0818  159.7701 C   0  0  0  0  0  0  0  0  0  0  0  0
  151.3611  141.1733  158.2290 C   0  0  0  0  0  0  0  0  0  0  0  0
  149.2216  141.1574  153.4813 H   0  0  0  0  0  0  0  0  0  0  0  0
  149.1152  142.7733  154.1524 H   0  0  0  0  0  0  0  0  0  0  0  0
  147.9558  141.5421  154.6452 H   0  0  0  0  0  0  0  0  0  0  0  0
  150.9551  141.4691  155.2036 H   0  0  0  0  0  0  0  0  0  0  0  0
  149.8402  139.7131  157.0353 H   0  0  0  0  0  0  0  0  0  0  0  0
  148.7917  139.4523  155.6596 H   0  0  0  0  0  0  0  0  0  0  0  0
  150.1060  136.9798  155.6993 H   0  0  0  0  0  0  0  0  0  0  0  0
  153.4897  138.4499  153.8599 H   0  0  0  0  0  0  0  0  0  0  0  0
  149.4160  143.1024  156.3148 H   0  0  0  0  0  0  0  0  0  0  0  0
  151.6754  142.9020  156.9754 H   0  0  0  0  0  0  0  0  0  0  0  0
  150.1631  144.4269  158.1970 H   0  0  0  0  0  0  0  0  0  0  0  0
  149.6493  143.1237  159.2437 H   0  0  0  0  0  0  0  0  0  0  0  0
  152.4794  144.2517  159.0172 H   0  0  0  0  0  0  0  0  0  0  0  0
  151.3812  144.4807  160.3544 H   0  0  0  0  0  0  0  0  0  0  0  0
  151.4223  142.0760  160.8705 H   0  0  0  0  0  0  0  0  0  0  0  0
  154.2674  143.1588  160.5818 H   0  0  0  0  0  0  0  0  0  0  0  0
  153.7192  141.9559  161.7490 H   0  0  0  0  0  0  0  0  0  0  0  0
  153.1458  143.6052  161.8628 H   0  0  0  0  0  0  0  0  0  0  0  0
  153.3826  141.8047  158.5550 H   0  0  0  0  0  0  0  0  0  0  0  0
  152.2857  139.6717  160.4510 H   0  0  0  0  0  0  0  0  0  0  0  0
  153.9655  140.1920  160.3218 H   0  0  0  0  0  0  0  0  0  0  0  0
  153.2130  139.3397  158.9919 H   0  0  0  0  0  0  0  0  0  0  0  0
  150.5469  140.7179  158.7954 H   0  0  0  0  0  0  0  0  0  0  0  0
  151.6379  140.4489  157.4632 H   0  0  0  0  0  0  0  0  0  0  0  0
  148.9380  141.8556  157.2585 H   0  0  0  0  0  0  0  0  0  0  0  0
  1  2  1  0  0  0  0
  1 18  1  0  0  0  0
  1 19  1  0  0  0  0
  1 20  1  0  0  0  0
  2  3  1  0  0  0  0
  2  9  1  0  0  0  0
  2 21  1  0  0  0  0
  3  4  1  0  0  0  0
  3 22  1  0  0  0  0
  3 23  1  0  0  0  0
  4  8  1  0  0  0  0
  4  5  1  0  0  0  0
  5  6  2  0  0  0  0
  5 24  1  0  0  0  0
  6  7  1  0  0  0  0
  7  8  2  0  0  0  0
  7 25  1  0  0  0  0
  9 10  1  0  0  0  0
  9 26  1  0  0  0  0
  9 42  1  0  0  0  0
 10 17  1  0  0  0  0
 10 11  1  0  0  0  0
 10 27  1  0  0  0  0
 11 12  1  0  0  0  0
 11 28  1  0  0  0  0
 11 29  1  0  0  0  0
 12 13  1  0  0  0  0
 12 30  1  0  0  0  0
 12 31  1  0  0  0  0
 13 14  1  0  0  0  0
 13 15  1  0  0  0  0
 13 32  1  0  0  0  0
 14 33  1  0  0  0  0
 14 34  1  0  0  0  0
 14 35  1  0  0  0  0
 15 16  1  0  0  0  0
 15 17  1  0  0  0  0
 15 36  1  0  0  0  0
 16 37  1  0  0  0  0
 16 38  1  0  0  0  0
 16 39  1  0  0  0  0
 17 40  1  0  0  0  0
 17 41  1  0  0  0  0
M  CHG  1   9   1
M  END
> <s_m_source_file>
AV-unprocessed.smi

> <i_m_source_file_index>
3181

> <i_lp_mmshare_version>
43012

> <i_f3d_flags>
0

> <s_epik_input>
bjFbY0hdbltjSF1uMVtDSDJdW0NAQEhdKFtDSDNdKVtOSF1bQ0BASF0yW0NIMl1bQ0gyXVtDQEBIXShbQ0gzXSlbQ0BASF0oW0NIM10pW0NIMl0y

> <s_epik_cmdline>
J2VwaWtfcHl0aG9uJywgJy1waCcsICc3LjAnLCAnLXRuJywgJzgnLCAnLW1hJywgJzIwMCcsICctbWV0YWxfYmluZGluZycsICctaW1hZScsICc8aW5maWxlLm1hZT4nLCAnLW9tYWUnLCAnPG91dGZpbGUubWFlPic=

> <r_lp_tautomer_probability>
1

> <r_epik_Ionization_Penalty>
0.000617007

> <r_epik_Ionization_Penalty_Charging>
0.000616215

> <r_epik_Ionization_Penalty_Neutral>
7.92544e-07

> <r_epik_State_Penalty>
0.000388807

> <r_epik_Charging_Adjusted_Penalty>
0.00100502

> <i_epik_Tot_Q>
1

> <i_epik_Tot_abs_Q>
1

> <r_epik_Metal_State_Penalty>
-0

> <b_epik_Metal_Only>
0

> <s_lp_Force_Field>
OPLS_2005

> <r_lp_Energy>
19.8131

> <b_lp_Chiralities_Consistent>
1

> <s_lp_Variant>
AV-unprocessed.smi:3181-7

> <Gold.Version>
5.8.1

> <Gold.Id.Protein>
6NUR|6NUR_protein|mol2

> <Gold.PLP.Fitness>
45.3358

> <Gold.PLP.PLP>
-35.6457

> <Gold.PLP.part.hbond>
-3.0000

> <Gold.PLP.part.metal>
0.0000

> <Gold.PLP.part.buried>
-4.5099

> <Gold.PLP.part.nonpolar>
-27.8568

> <Gold.PLP.part.repulsive>
0.2065

> <Gold.PLP.ligand.clash>
0.0000

> <Gold.PLP.ligand.torsion>
1.0458

> <Gold.PLP.Chemscore.Hbond>
3.9200

> <Gold.PLP.Chemscore.CHOScore>
0.0000

> <Gold.PLP.Chemscore.Metal>
0.0000

> <Gold.Chemscore.Hbonds>
donor molecule, donor type, donor heavy atom, donor atom, acceptor molecule, acceptor atom, score
      L1  H     9    26       P1  8028  2.00
      P1  H  7989  7998       L1     8  0.99
      P1  H 10752 10765       L1     6  0.96

> <Gold.PLP.Chemscore.Internal.Correction>
0.0217

> <Gold.Rescore>
     Score         DG    S(hbond)    S(metal)    S(lipo)     H(rot)  DE(clash)    DE(int)     intcor
     18.46     -19.74       2.77        0.00      88.93       2.11       0.30       0.99       ----

> <Gold.Chemscore.Fitness>
18.4569

> <Gold.Chemscore.DG>
-19.7432

> <Gold.Chemscore.ZeroCoef>
-5.4800

> <Gold.Chemscore.Hbond>
2.7722

> <Gold.Chemscore.Metal>
0.0000

> <Gold.Chemscore.Lipo>
88.9274

> <Gold.Chemscore.Internal_Hbond>
0.0000

> <Gold.Chemscore.DEClash>
0.2953

> <Gold.Chemscore.DEInternal>
0.9911

> <Gold.Chemscore.Rot>
2.1095

> <Gold.Chemscore.Internal.Correction>
   9.000000E+99

> <Gold.Chemscore.Hbonds>
donor molecule, donor type, donor heavy atom, donor atom, acceptor molecule, acceptor atom, score
      L1  H     9    26       P1  8028  1.00
      P1  H  7989  7998       L1     8  0.85
      P1  H 10752 10765       L1     6  0.87

> <Gold.Chemscore.Hbond.Weighted>
-9.2590

> <Gold.Chemscore.Metal.Weighted>
-0.0000

> <Gold.Chemscore.Lipo.Weighted>
-10.4045

> <Gold.Chemscore.Internal_Hbond.Weighted>
0.0000

> <Gold.Chemscore.DEClash.Weighted>
0.2953

> <Gold.Chemscore.DEInternal.Weighted>
0.9911

> <Gold.Chemscore.Rot.Weighted>
5.4003

> <Gold.Chemscore.Internal.Correction.Weighted>
   9.000000E+99

> <Gold.Protein.RotatedTorsions>
[ 6907 6896 6895 6894 ] final  -81.57 input  -60.11 | X-H torsion
[ 7974 7965 7964 7962 ] final  -84.23 input  175.53 | X-H torsion
[ 8008 7997 7996 7995 ] final  175.73 input   59.86 | X-H torsion
[ 10167 10162 10161 10158 ] final  -49.59 input  -65.29 | X-H torsion
[ 10718 10713 10712 10709 ] final  -24.05 input   66.30 | X-H torsion
[ 10763 10752 10751 10750 ] final  169.24 input  -60.55 | X-H torsion
[ 11005 11000 10999 10996 ] final  -11.17 input  -57.11 | X-H torsion

> <Gold.Protein.ActiveResidues>
 VAL166  LYS551  ARG553  GLY616  TRP617  ASP618  TYR619  PRO620  LYS621  CYS622 
 ASP623  PHE694  ASN695  SER759  ASP760  ASP761  ALA762  ILE779  LEU786  VAL792 
 PHE793  MET794  SER795  GLU796  ALA797  LYS798  CYS799  TRP800  GLU811  SER814 

> <Gold.Protein.RotatedAtoms>
  150.6910  134.3797  159.5028 H   0  0  0  0  0  0  0  0  0  0  0  0  # atno 6907 bound_to 6896
  152.1601  134.8916  160.0551 H   0  0  0  0  0  0  0  0  0  0  0  0  # atno 6908 bound_to 6896
  151.9982  133.3781  159.4208 H   0  0  0  0  0  0  0  0  0  0  0  0  # atno 6909 bound_to 6896
  145.5093  140.9541  143.1716 H   0  0  0  0  0  0  0  0  0  0  0  0  # atno 7974 bound_to 7965
  156.0839  140.1401  156.9677 H   0  0  0  0  0  0  0  0  0  0  0  0  # atno 8008 bound_to 7997
  154.4601  140.0946  156.6918 H   0  0  0  0  0  0  0  0  0  0  0  0  # atno 8009 bound_to 7997
  155.5030  140.3451  155.4377 H   0  0  0  0  0  0  0  0  0  0  0  0  # atno 8010 bound_to 7997
  140.6678  143.2691  151.4237 H   0  0  0  0  0  0  0  0  0  0  0  0  # atno 10167 bound_to 10162
  156.4828  130.4549  149.6801 H   0  0  0  0  0  0  0  0  0  0  0  0  # atno 10718 bound_to 10713
  154.3803  135.2753  155.2215 H   0  0  0  0  0  0  0  0  0  0  0  0  # atno 10763 bound_to 10752
  154.4325  135.5974  153.6081 H   0  0  0  0  0  0  0  0  0  0  0  0  # atno 10764 bound_to 10752
  152.9835  135.5999  154.4045 H   0  0  0  0  0  0  0  0  0  0  0  0  # atno 10765 bound_to 10752
  140.7525  133.8581  155.9056 H   0  0  0  0  0  0  0  0  0  0  0  0  # atno 11005 bound_to 11000
  144.7736  139.6680  143.7184 LP  0  0  0  0  0  0  0  0  0  0  0  0  # atno 17320 bound_to 7965
  146.2176  139.5578  142.9639 LP  0  0  0  0  0  0  0  0  0  0  0  0  # atno 17321 bound_to 7965
  139.5933  144.1451  152.2114 LP  0  0  0  0  0  0  0  0  0  0  0  0  # atno 17342 bound_to 10162
  140.0812  144.5699  150.7121 LP  0  0  0  0  0  0  0  0  0  0  0  0  # atno 17343 bound_to 10162
  156.3504  130.7429  151.2388 LP  0  0  0  0  0  0  0  0  0  0  0  0  # atno 17370 bound_to 10713
  157.7481  131.0378  150.4475 LP  0  0  0  0  0  0  0  0  0  0  0  0  # atno 17371 bound_to 10713
  140.9738  134.1496  157.4554 LP  0  0  0  0  0  0  0  0  0  0  0  0  # atno 17394 bound_to 11000
  139.8785  134.9987  156.5917 LP  0  0  0  0  0  0  0  0  0  0  0  0  # atno 17395 bound_to 11000

$$$$
