AV-unprocessed.smi:35|AV-procd|sdf|253|dock10
  -GOLD-   2262016 13D 1   1.00000     0.00000
 Structure written by MMmdl.
 29 30  0  0  0  0  0  0  0  0  1 V2000
  152.2037  137.0166  159.3971 O   0  0  0  0  0  0  0  0  0  0  0  0
  151.7515  137.5463  158.3846 C   0  0  0  0  0  0  0  0  0  0  0  0
  152.6111  138.0119  157.3870 N   0  0  0  0  0  0  0  0  0  0  0  0
  152.2160  138.6192  156.1935 C   0  0  0  0  0  0  0  0  0  0  0  0
  153.0692  139.0331  155.4100 O   0  0  0  0  0  0  0  0  0  0  0  0
  150.8269  138.7350  155.9489 N   0  0  0  0  0  0  0  0  0  0  0  0
  150.3579  139.4266  154.6773 C   0  0  2  0  0  0  0  0  0  0  0  0
  150.6172  140.8002  154.7722 O   0  0  0  0  0  0  0  0  0  0  0  0
  149.4281  141.5467  155.0267 C   0  0  2  0  0  0  0  0  0  0  0  0
  149.1572  141.6580  156.5455 C   0  0  0  0  0  0  0  0  0  0  0  0
  148.0770  142.5364  156.7787 O   0  0  0  0  0  0  0  0  0  0  0  0
  148.3943  140.7358  154.2383 C   0  0  2  0  0  0  0  0  0  0  0  0
  147.0656  140.9519  154.6726 O   0  0  0  0  0  0  0  0  0  0  0  0
  148.8312  139.2924  154.4520 C   0  0  1  0  0  0  0  0  0  0  0  0
  148.5288  138.5356  153.2965 O   0  0  0  0  0  0  0  0  0  0  0  0
  149.9388  138.3433  156.9466 C   0  0  0  0  0  0  0  0  0  0  0  0
  150.3382  137.7655  158.1036 C   0  0  0  0  0  0  0  0  0  0  0  0
  148.9099  137.2637  159.3815 Br  0  0  0  0  0  0  0  0  0  0  0  0
  153.6029  137.9139  157.5500 H   0  0  0  0  0  0  0  0  0  0  0  0
  150.9723  138.9920  153.8864 H   0  0  0  0  0  0  0  0  0  0  0  0
  149.5179  142.5473  154.6017 H   0  0  0  0  0  0  0  0  0  0  0  0
  148.8569  140.6923  156.9515 H   0  0  0  0  0  0  0  0  0  0  0  0
  150.0354  141.9718  157.1077 H   0  0  0  0  0  0  0  0  0  0  0  0
  148.2898  143.3795  156.4082 H   0  0  0  0  0  0  0  0  0  0  0  0
  148.4751  141.0039  153.1832 H   0  0  0  0  0  0  0  0  0  0  0  0
  146.6115  141.4448  154.0058 H   0  0  0  0  0  0  0  0  0  0  0  0
  148.3507  138.8722  155.3372 H   0  0  0  0  0  0  0  0  0  0  0  0
  148.8581  139.0010  152.5423 H   0  0  0  0  0  0  0  0  0  0  0  0
  148.8775  138.4947  156.8207 H   0  0  0  0  0  0  0  0  0  0  0  0
  1  2  2  0  0  0  0
  2 17  1  0  0  0  0
  2  3  1  0  0  0  0
  3 19  1  0  0  0  0
  3  4  1  0  0  0  0
  4  5  2  0  0  0  0
  4  6  1  0  0  0  0
  6  7  1  0  0  0  0
  6 16  1  0  0  0  0
  7 14  1  0  0  0  0
  7  8  1  0  0  0  0
  7 20  1  0  0  0  0
  8  9  1  0  0  0  0
  9 10  1  0  0  0  0
  9 12  1  0  0  0  0
  9 21  1  0  0  0  0
 10 11  1  0  0  0  0
 10 22  1  0  0  0  0
 10 23  1  0  0  0  0
 11 24  1  0  0  0  0
 12 13  1  0  0  0  0
 12 14  1  0  0  0  0
 12 25  1  0  0  0  0
 13 26  1  0  0  0  0
 14 15  1  0  0  0  0
 14 27  1  0  0  0  0
 15 28  1  0  0  0  0
 16 17  2  0  0  0  0
 16 29  1  0  0  0  0
 17 18  1  0  0  0  0
M  END
> <s_m_source_file>
AV-unprocessed.smi

> <i_m_source_file_index>
35

> <i_lp_mmshare_version>
43012

> <i_f3d_flags>
0

> <s_epik_input>
Tz1jMVtuSF1jKD1PKW4oW2NIXWMxQnIpW0NAQEhdMk9bQ0BASF0oW0NIMl1bT0hdKVtDQEBIXShbT0hdKVtDQEhdMltPSF0=

> <s_epik_cmdline>
J2VwaWtfcHl0aG9uJywgJy1waCcsICc3LjAnLCAnLXRuJywgJzgnLCAnLW1hJywgJzIwMCcsICctbWV0YWxfYmluZGluZycsICctaW1hZScsICc8aW5maWxlLm1hZT4nLCAnLW9tYWUnLCAnPG91dGZpbGUubWFlPic=

> <r_lp_tautomer_probability>
0.999537

> <r_epik_Ionization_Penalty>
0.10812

> <r_epik_Ionization_Penalty_Charging>
0.108119

> <r_epik_Ionization_Penalty_Neutral>
4.93006e-07

> <r_epik_State_Penalty>
0.0979238

> <r_epik_Charging_Adjusted_Penalty>
0.206043

> <i_epik_Tot_Q>
0

> <i_epik_Tot_abs_Q>
0

> <r_epik_Metal_State_Penalty>
3.07911

> <b_epik_Metal_Only>
0

> <s_epik_Chemistry_Notes>
This compound contains an acetal/aminal-like group ( X-CH(R)-Y where X, Y are N, S, or O) that may be acid/base labile, releasing an aldehyde.

> <s_lp_Force_Field>
OPLS_2005

> <r_lp_Energy>
30.5173

> <b_lp_Chiralities_Consistent>
1

> <s_lp_Variant>
AV-unprocessed.smi:35-7

> <Gold.Version>
5.8.1

> <Gold.Id.Protein>
6NUR|6NUR_protein|mol2

> <Gold.PLP.Fitness>
39.1500

> <Gold.PLP.PLP>
-25.4540

> <Gold.PLP.part.hbond>
-5.7242

> <Gold.PLP.part.metal>
0.0000

> <Gold.PLP.part.buried>
-3.9173

> <Gold.PLP.part.nonpolar>
-16.6338

> <Gold.PLP.part.repulsive>
0.2313

> <Gold.PLP.ligand.clash>
0.0000

> <Gold.PLP.ligand.torsion>
0.3606

> <Gold.PLP.Chemscore.Hbond>
4.7840

> <Gold.PLP.Chemscore.CHOScore>
0.0000

> <Gold.PLP.Chemscore.Metal>
0.0000

> <Gold.Chemscore.Hbonds>
donor molecule, donor type, donor heavy atom, donor atom, acceptor molecule, acceptor atom, score
      L1  H    11    24       P1  8028  1.00
      L1  H    15    28       P1  7957  1.00
      P1  H  6896  6909       L1     1  0.69
      P1  H  7989  7998       L1     8  0.72
      P1  H  7997  8010       L1     5  0.90

> <Gold.PLP.Chemscore.Internal.Correction>
0.0653

> <Gold.Rescore>
     Score         DG    S(hbond)    S(metal)    S(lipo)     H(rot)  DE(clash)    DE(int)     intcor
     12.60     -13.48       3.97        0.00      35.37       3.67       0.42       0.46       ----

> <Gold.Chemscore.Fitness>
12.6046

> <Gold.Chemscore.DG>
-13.4817

> <Gold.Chemscore.ZeroCoef>
-5.4800

> <Gold.Chemscore.Hbond>
3.9698

> <Gold.Chemscore.Metal>
0.0000

> <Gold.Chemscore.Lipo>
35.3669

> <Gold.Chemscore.Internal_Hbond>
0.0000

> <Gold.Chemscore.DEClash>
0.4212

> <Gold.Chemscore.DEInternal>
0.4559

> <Gold.Chemscore.Rot>
3.6701

> <Gold.Chemscore.Internal.Correction>
   9.000000E+99

> <Gold.Chemscore.Hbonds>
donor molecule, donor type, donor heavy atom, donor atom, acceptor molecule, acceptor atom, score
      L1  H    11    24       P1  8028  0.39
      L1  H    15    28       P1  7957  0.99
      P1  H  6896  6909       L1     1  0.67
      P1  H  7989  7998       L1     8  0.12
      P1  H  7997  8010       L1     5  0.88

> <Gold.Chemscore.Hbond.Weighted>
-13.2592

> <Gold.Chemscore.Metal.Weighted>
-0.0000

> <Gold.Chemscore.Lipo.Weighted>
-4.1379

> <Gold.Chemscore.Internal_Hbond.Weighted>
0.0000

> <Gold.Chemscore.DEClash.Weighted>
0.4212

> <Gold.Chemscore.DEInternal.Weighted>
0.4559

> <Gold.Chemscore.Rot.Weighted>
9.3955

> <Gold.Chemscore.Internal.Correction.Weighted>
   9.000000E+99

> <Gold.Protein.RotatedTorsions>
[ 6907 6896 6895 6894 ] final  153.06 input  -60.11 | X-H torsion
[ 7974 7965 7964 7962 ] final   43.64 input  175.53 | X-H torsion
[ 8008 7997 7996 7995 ] final  117.03 input   59.86 | X-H torsion
[ 10167 10162 10161 10158 ] final  -29.05 input  -65.29 | X-H torsion
[ 10718 10713 10712 10709 ] final -114.15 input   66.30 | X-H torsion
[ 10763 10752 10751 10750 ] final  -88.07 input  -60.55 | X-H torsion
[ 11005 11000 10999 10996 ] final   60.02 input  -57.11 | X-H torsion

> <Gold.Protein.ActiveResidues>
 VAL166  LYS551  ARG553  GLY616  TRP617  ASP618  TYR619  PRO620  LYS621  CYS622 
 ASP623  PHE694  ASN695  SER759  ASP760  ASP761  ALA762  ILE779  LEU786  VAL792 
 PHE793  MET794  SER795  GLU796  ALA797  LYS798  CYS799  TRP800  GLU811  SER814 

> <Gold.Protein.RotatedAtoms>
  152.0781  133.4139  159.4488 H   0  0  0  0  0  0  0  0  0  0  0  0  # atno 6907 bound_to 6896
  150.6862  134.3014  159.4717 H   0  0  0  0  0  0  0  0  0  0  0  0  # atno 6908 bound_to 6896
  152.0853  134.9443  160.0623 H   0  0  0  0  0  0  0  0  0  0  0  0  # atno 6909 bound_to 6896
  146.0638  139.5164  142.9641 H   0  0  0  0  0  0  0  0  0  0  0  0  # atno 7974 bound_to 7965
  156.2472  140.2905  156.0615 H   0  0  0  0  0  0  0  0  0  0  0  0  # atno 8008 bound_to 7997
  155.1770  140.0403  157.2892 H   0  0  0  0  0  0  0  0  0  0  0  0  # atno 8009 bound_to 7997
  154.6286  140.2493  155.7468 H   0  0  0  0  0  0  0  0  0  0  0  0  # atno 8010 bound_to 7997
  140.7264  143.3960  151.1346 H   0  0  0  0  0  0  0  0  0  0  0  0  # atno 10167 bound_to 10162
  156.0812  130.6011  150.8737 H   0  0  0  0  0  0  0  0  0  0  0  0  # atno 10718 bound_to 10713
  154.6406  135.5390  153.7784 H   0  0  0  0  0  0  0  0  0  0  0  0  # atno 10763 bound_to 10752
  153.0331  135.6458  154.1166 H   0  0  0  0  0  0  0  0  0  0  0  0  # atno 10764 bound_to 10752
  154.1090  135.2928  155.3214 H   0  0  0  0  0  0  0  0  0  0  0  0  # atno 10765 bound_to 10752
  140.0261  134.6080  155.9570 H   0  0  0  0  0  0  0  0  0  0  0  0  # atno 11005 bound_to 11000
  145.6514  141.0262  143.1758 LP  0  0  0  0  0  0  0  0  0  0  0  0  # atno 17320 bound_to 7965
  144.7190  139.8095  143.7388 LP  0  0  0  0  0  0  0  0  0  0  0  0  # atno 17321 bound_to 7965
  139.7573  143.8689  152.3092 LP  0  0  0  0  0  0  0  0  0  0  0  0  # atno 17342 bound_to 10162
  139.8562  144.7140  150.9154 LP  0  0  0  0  0  0  0  0  0  0  0  0  # atno 17343 bound_to 10162
  157.5929  131.0944  150.9089 LP  0  0  0  0  0  0  0  0  0  0  0  0  # atno 17370 bound_to 10713
  156.9261  130.5333  149.5279 LP  0  0  0  0  0  0  0  0  0  0  0  0  # atno 17371 bound_to 10713
  141.1804  133.6545  156.4996 LP  0  0  0  0  0  0  0  0  0  0  0  0  # atno 17394 bound_to 11000
  140.4303  134.7107  157.4938 LP  0  0  0  0  0  0  0  0  0  0  0  0  # atno 17395 bound_to 11000

$$$$
