AV-unprocessed.smi:3290|AV-procd|sdf|12612|dock3
  -GOLD-   2272018543D 1   1.00000     0.00000
 Structure written by MMmdl.
 43 44  0  0  0  0  0  0  0  0  2 V2000
  153.4179  142.1939  159.5851 C   0  0  0  0  0  0  0  0  0  0  0  0
  151.9610  142.5707  159.9221 C   0  0  1  0  0  0  0  0  0  0  0  0
  151.8932  143.6360  161.0373 C   0  0  0  0  0  0  0  0  0  0  0  0
  152.3114  145.0306  160.5436 C   0  0  0  0  0  0  0  0  0  0  0  0
  151.4759  145.4616  159.3299 C   0  0  0  0  0  0  0  0  0  0  0  0
  151.5423  144.4181  158.2038 C   0  0  0  0  0  0  0  0  0  0  0  0
  151.1153  143.0185  158.6955 C   0  0  1  0  0  0  0  0  0  0  0  0
  151.1028  142.0037  157.5338 C   0  0  0  0  0  0  0  0  0  0  0  0
  150.5473  142.5918  156.2990 N   0  3  0  0  0  0  0  0  0  0  0  0
  149.4983  141.7732  155.6592 C   0  0  0  0  0  0  0  0  0  0  0  0
  150.0531  140.9839  154.4609 C   0  0  2  0  0  0  0  0  0  0  0  0
  149.0762  140.9654  153.4379 O   0  0  0  0  0  0  0  0  0  0  0  0
  150.4647  139.5793  154.8720 C   0  0  0  0  0  0  0  0  0  0  0  0
  149.8757  138.4537  154.2587 C   0  0  0  0  0  0  0  0  0  0  0  0
  150.2912  137.1696  154.6654 C   0  0  0  0  0  0  0  0  0  0  0  0
  151.2295  136.9597  155.6130 N   0  0  0  0  0  0  0  0  0  0  0  0
  151.7923  138.0401  156.1951 C   0  0  0  0  0  0  0  0  0  0  0  0
  151.4484  139.3656  155.8621 C   0  0  0  0  0  0  0  0  0  0  0  0
  153.9547  143.0120  159.1058 H   0  0  0  0  0  0  0  0  0  0  0  0
  153.4662  141.3312  158.9212 H   0  0  0  0  0  0  0  0  0  0  0  0
  153.9680  141.9266  160.4875 H   0  0  0  0  0  0  0  0  0  0  0  0
  151.5023  141.6702  160.3318 H   0  0  0  0  0  0  0  0  0  0  0  0
  150.8728  143.6890  161.4199 H   0  0  0  0  0  0  0  0  0  0  0  0
  152.5145  143.3393  161.8831 H   0  0  0  0  0  0  0  0  0  0  0  0
  152.1954  145.7575  161.3482 H   0  0  0  0  0  0  0  0  0  0  0  0
  153.3699  145.0322  160.2821 H   0  0  0  0  0  0  0  0  0  0  0  0
  150.4382  145.6033  159.6344 H   0  0  0  0  0  0  0  0  0  0  0  0
  151.8239  146.4277  158.9634 H   0  0  0  0  0  0  0  0  0  0  0  0
  150.8971  144.7370  157.3841 H   0  0  0  0  0  0  0  0  0  0  0  0
  152.5528  144.3824  157.7957 H   0  0  0  0  0  0  0  0  0  0  0  0
  150.0835  143.1131  159.0389 H   0  0  0  0  0  0  0  0  0  0  0  0
  152.1217  141.6746  157.3251 H   0  0  0  0  0  0  0  0  0  0  0  0
  150.5398  141.1104  157.8052 H   0  0  0  0  0  0  0  0  0  0  0  0
  150.1470  143.4913  156.5258 H   0  0  0  0  0  0  0  0  0  0  0  0
  149.0976  141.0828  156.4028 H   0  0  0  0  0  0  0  0  0  0  0  0
  148.6753  142.4159  155.3421 H   0  0  0  0  0  0  0  0  0  0  0  0
  150.9298  141.4981  154.0644 H   0  0  0  0  0  0  0  0  0  0  0  0
  149.2294  140.2096  152.8907 H   0  0  0  0  0  0  0  0  0  0  0  0
  149.1220  138.5651  153.4933 H   0  0  0  0  0  0  0  0  0  0  0  0
  149.8588  136.2881  154.2157 H   0  0  0  0  0  0  0  0  0  0  0  0
  152.5408  137.8429  156.9482 H   0  0  0  0  0  0  0  0  0  0  0  0
  151.9322  140.1949  156.3571 H   0  0  0  0  0  0  0  0  0  0  0  0
  151.2988  142.7307  155.6388 H   0  0  0  0  0  0  0  0  0  0  0  0
  1  2  1  0  0  0  0
  1 19  1  0  0  0  0
  1 20  1  0  0  0  0
  1 21  1  0  0  0  0
  2  7  1  0  0  0  0
  2  3  1  0  0  0  0
  2 22  1  0  0  0  0
  3  4  1  0  0  0  0
  3 23  1  0  0  0  0
  3 24  1  0  0  0  0
  4  5  1  0  0  0  0
  4 25  1  0  0  0  0
  4 26  1  0  0  0  0
  5  6  1  0  0  0  0
  5 27  1  0  0  0  0
  5 28  1  0  0  0  0
  6  7  1  0  0  0  0
  6 29  1  0  0  0  0
  6 30  1  0  0  0  0
  7  8  1  0  0  0  0
  7 31  1  0  0  0  0
  8  9  1  0  0  0  0
  8 32  1  0  0  0  0
  8 33  1  0  0  0  0
  9 10  1  0  0  0  0
  9 34  1  0  0  0  0
  9 43  1  0  0  0  0
 10 11  1  0  0  0  0
 10 35  1  0  0  0  0
 10 36  1  0  0  0  0
 11 12  1  0  0  0  0
 11 13  1  0  0  0  0
 11 37  1  0  0  0  0
 12 38  1  0  0  0  0
 13 18  1  0  0  0  0
 13 14  2  0  0  0  0
 14 15  1  0  0  0  0
 14 39  1  0  0  0  0
 15 16  2  0  0  0  0
 15 40  1  0  0  0  0
 16 17  1  0  0  0  0
 17 18  2  0  0  0  0
 17 41  1  0  0  0  0
 18 42  1  0  0  0  0
M  CHG  1   9   1
M  END
> <s_m_source_file>
AV-unprocessed.smi

> <i_m_source_file_index>
3290

> <i_lp_mmshare_version>
43012

> <i_f3d_flags>
0

> <s_epik_input>
W0NIM11bQ0BASF0xW0NIMl1bQ0gyXVtDSDJdW0NIMl1bQ0BIXTFbQ0gyXVtOSF1bQ0gyXVtDQEhdKFtPSF0pYzJbY0hdW2NIXW5bY0hdW2NIXTI=

> <s_epik_cmdline>
J2VwaWtfcHl0aG9uJywgJy1waCcsICc3LjAnLCAnLXRuJywgJzgnLCAnLW1hJywgJzIwMCcsICctbWV0YWxfYmluZGluZycsICctaW1hZScsICc8aW5maWxlLm1hZT4nLCAnLW9tYWUnLCAnPG91dGZpbGUubWFlPic=

> <r_lp_tautomer_probability>
1

> <r_epik_Ionization_Penalty>
0.00420552

> <r_epik_Ionization_Penalty_Charging>
0.00207255

> <r_epik_Ionization_Penalty_Neutral>
0.00213297

> <r_epik_State_Penalty>
-0

> <r_epik_Charging_Adjusted_Penalty>
0.00207255

> <i_epik_Tot_Q>
1

> <i_epik_Tot_abs_Q>
1

> <r_epik_Metal_State_Penalty>
-0

> <b_epik_Metal_Only>
0

> <s_lp_Force_Field>
OPLS_2005

> <r_lp_Energy>
18.26

> <b_lp_Chiralities_Consistent>
1

> <s_lp_Variant>
AV-unprocessed.smi:3290-2

> <Gold.Version>
5.8.1

> <Gold.Id.Protein>
6NUR|6NUR_protein|mol2

> <Gold.PLP.Fitness>
54.6133

> <Gold.PLP.PLP>
-42.6891

> <Gold.PLP.part.hbond>
-4.6774

> <Gold.PLP.part.metal>
0.0000

> <Gold.PLP.part.buried>
2.2457

> <Gold.PLP.part.nonpolar>
-38.8307

> <Gold.PLP.part.repulsive>
0.1555

> <Gold.PLP.ligand.clash>
0.0000

> <Gold.PLP.ligand.torsion>
1.2660

> <Gold.PLP.Chemscore.Hbond>
4.0880

> <Gold.PLP.Chemscore.CHOScore>
0.7181

> <Gold.PLP.Chemscore.Metal>
0.0000

> <Gold.Chemscore.Hbonds>
donor molecule, donor type, donor heavy atom, donor atom, acceptor molecule, acceptor atom, score
      L1  H     9    34       P1  8028  1.44
      L1  H    12    38       P1  7957  0.64
      P1  H  8011  8017       L1    12  0.95
      P1  H 10752 10764       L1    16  0.08
      L1  C    15    40       P1  7948  0.87

> <Gold.PLP.Chemscore.Internal.Correction>
0.0379

> <Gold.Rescore>
     Score         DG    S(hbond)    S(metal)    S(lipo)     H(rot)  DE(clash)    DE(int)     intcor
     22.06     -24.68       2.60        0.00     134.73       2.05       1.14       1.49       ----

> <Gold.Chemscore.Fitness>
22.0564

> <Gold.Chemscore.DG>
-24.6837

> <Gold.Chemscore.ZeroCoef>
-5.4800

> <Gold.Chemscore.Hbond>
2.6012

> <Gold.Chemscore.Metal>
0.0000

> <Gold.Chemscore.Lipo>
134.7267

> <Gold.Chemscore.Internal_Hbond>
0.0000

> <Gold.Chemscore.DEClash>
1.1404

> <Gold.Chemscore.DEInternal>
1.4869

> <Gold.Chemscore.Rot>
2.0498

> <Gold.Chemscore.Internal.Correction>
   9.000000E+99

> <Gold.Chemscore.Hbonds>
donor molecule, donor type, donor heavy atom, donor atom, acceptor molecule, acceptor atom, score
      L1  H     9    34       P1  8028  0.71
      L1  H    12    38       P1  7957  0.64
      P1  H  8011  8017       L1    12  0.07
      P1  H 10752 10764       L1    16  0.06

> <Gold.Chemscore.Hbond.Weighted>
-8.6882

> <Gold.Chemscore.Metal.Weighted>
-0.0000

> <Gold.Chemscore.Lipo.Weighted>
-15.7630

> <Gold.Chemscore.Internal_Hbond.Weighted>
0.0000

> <Gold.Chemscore.DEClash.Weighted>
1.1404

> <Gold.Chemscore.DEInternal.Weighted>
1.4869

> <Gold.Chemscore.Rot.Weighted>
5.2475

> <Gold.Chemscore.Internal.Correction.Weighted>
   9.000000E+99

> <Gold.Protein.RotatedTorsions>
[ 6907 6896 6895 6894 ] final -150.61 input  -60.11 | X-H torsion
[ 7974 7965 7964 7962 ] final  105.41 input  175.53 | X-H torsion
[ 8008 7997 7996 7995 ] final  118.35 input   59.86 | X-H torsion
[ 10167 10162 10161 10158 ] final  -76.37 input  -65.29 | X-H torsion
[ 10718 10713 10712 10709 ] final   36.67 input   66.30 | X-H torsion
[ 10763 10752 10751 10750 ] final  -51.13 input  -60.55 | X-H torsion
[ 11005 11000 10999 10996 ] final -100.19 input  -57.11 | X-H torsion

> <Gold.Protein.ActiveResidues>
 VAL166  LYS551  ARG553  GLY616  TRP617  ASP618  TYR619  PRO620  LYS621  CYS622 
 ASP623  PHE694  ASN695  SER759  ASP760  ASP761  ALA762  ILE779  LEU786  VAL792 
 PHE793  MET794  SER795  GLU796  ALA797  LYS798  CYS799  TRP800  GLU811  SER814 

> <Gold.Protein.RotatedAtoms>
  151.2011  133.4610  159.2596 H   0  0  0  0  0  0  0  0  0  0  0  0  # atno 6907 bound_to 6896
  151.1069  135.0004  159.8485 H   0  0  0  0  0  0  0  0  0  0  0  0  # atno 6908 bound_to 6896
  152.5447  134.1933  159.8736 H   0  0  0  0  0  0  0  0  0  0  0  0  # atno 6909 bound_to 6896
  145.3200  139.2515  143.3717 H   0  0  0  0  0  0  0  0  0  0  0  0  # atno 7974 bound_to 7965
  156.2542  140.2876  156.0821 H   0  0  0  0  0  0  0  0  0  0  0  0  # atno 8008 bound_to 7997
  155.1555  140.0398  157.2848 H   0  0  0  0  0  0  0  0  0  0  0  0  # atno 8009 bound_to 7997
  154.6430  140.2527  155.7307 H   0  0  0  0  0  0  0  0  0  0  0  0  # atno 8010 bound_to 7997
  140.4862  143.2390  151.7979 H   0  0  0  0  0  0  0  0  0  0  0  0  # atno 10167 bound_to 10162
  157.3377  130.7531  149.6890 H   0  0  0  0  0  0  0  0  0  0  0  0  # atno 10718 bound_to 10713
  154.1215  135.6534  153.4904 H   0  0  0  0  0  0  0  0  0  0  0  0  # atno 10763 bound_to 10752
  153.0224  135.5271  154.7092 H   0  0  0  0  0  0  0  0  0  0  0  0  # atno 10764 bound_to 10752
  154.6301  135.2975  155.0197 H   0  0  0  0  0  0  0  0  0  0  0  0  # atno 10765 bound_to 10752
  141.1280  133.8380  157.1071 H   0  0  0  0  0  0  0  0  0  0  0  0  # atno 11005 bound_to 11000
  146.3086  140.3755  142.8678 LP  0  0  0  0  0  0  0  0  0  0  0  0  # atno 17320 bound_to 7965
  144.8947  140.7568  143.5905 LP  0  0  0  0  0  0  0  0  0  0  0  0  # atno 17321 bound_to 7965
  139.4842  144.4708  151.9427 LP  0  0  0  0  0  0  0  0  0  0  0  0  # atno 17342 bound_to 10162
  140.3794  144.2755  150.5910 LP  0  0  0  0  0  0  0  0  0  0  0  0  # atno 17343 bound_to 10162
  155.9703  130.4177  150.4291 LP  0  0  0  0  0  0  0  0  0  0  0  0  # atno 17370 bound_to 10713
  157.2333  131.0509  151.2479 LP  0  0  0  0  0  0  0  0  0  0  0  0  # atno 17371 bound_to 10713
  140.0298  134.9906  157.0758 LP  0  0  0  0  0  0  0  0  0  0  0  0  # atno 17394 bound_to 11000
  140.4304  134.1787  155.7168 LP  0  0  0  0  0  0  0  0  0  0  0  0  # atno 17395 bound_to 11000

$$$$
