AV-unprocessed.smi:2376|AV-procd|sdf|9444|dock3
  -GOLD-   2272013 73D 1   1.00000     0.00000
 Structure written by MMmdl.
 28 29  0  0  0  0  0  0  0  0  1 V2000
  149.5932  138.4046  153.1955 N   0  0  0  0  0  0  0  0  0  0  0  0
  150.1130  138.1388  154.4018 C   0  0  0  0  0  0  0  0  0  0  0  0
  150.0347  136.8710  154.8714 N   0  0  0  0  0  0  0  0  0  0  0  0
  150.5422  136.5799  156.0743 C   0  0  0  0  0  0  0  0  0  0  0  0
  151.1541  137.3905  156.9429 N   0  0  0  0  0  0  0  0  0  0  0  0
  151.2314  138.6655  156.4620 C   0  0  0  0  0  0  0  0  0  0  0  0
  150.7383  139.1227  155.2087 C   0  0  0  0  0  0  0  0  0  0  0  0
  150.9911  140.4801  155.0592 N   0  0  0  0  0  0  0  0  0  0  0  0
  151.6014  140.8093  156.1658 C   0  0  0  0  0  0  0  0  0  0  0  0
  151.7864  139.7807  157.0636 N   0  0  0  0  0  0  0  0  0  0  0  0
  152.4225  139.8642  158.3647 C   0  0  0  0  0  0  0  0  0  0  0  0
  151.8773  141.0436  159.1787 C   0  0  0  0  0  0  0  0  0  0  0  0
  152.7104  142.1716  158.9728 O   0  0  0  0  0  0  0  0  0  0  0  0
  152.4141  143.2389  159.8599 C   0  0  0  0  0  0  0  0  0  0  0  0
  151.9083  144.4470  159.0625 C   0  0  0  0  0  0  0  0  0  0  0  0
  152.7660  144.7137  158.0784 F   0  0  0  0  0  0  0  0  0  0  0  0
  150.7155  144.1820  158.5302 F   0  0  0  0  0  0  0  0  0  0  0  0
  151.8185  145.5163  159.8530 F   0  0  0  0  0  0  0  0  0  0  0  0
  149.6382  139.3430  152.8248 H   0  0  0  0  0  0  0  0  0  0  0  0
  149.1553  137.6681  152.6617 H   0  0  0  0  0  0  0  0  0  0  0  0
  150.4444  135.5503  156.3854 H   0  0  0  0  0  0  0  0  0  0  0  0
  151.9327  141.8191  156.3598 H   0  0  0  0  0  0  0  0  0  0  0  0
  152.2585  138.9256  158.8958 H   0  0  0  0  0  0  0  0  0  0  0  0
  153.4998  139.9642  158.2250 H   0  0  0  0  0  0  0  0  0  0  0  0
  150.8564  141.2727  158.8685 H   0  0  0  0  0  0  0  0  0  0  0  0
  151.8507  140.7871  160.2392 H   0  0  0  0  0  0  0  0  0  0  0  0
  151.6553  142.9268  160.5793 H   0  0  0  0  0  0  0  0  0  0  0  0
  153.3069  143.5133  160.4242 H   0  0  0  0  0  0  0  0  0  0  0  0
  1  2  1  0  0  0  0
  1 19  1  0  0  0  0
  1 20  1  0  0  0  0
  2  7  1  0  0  0  0
  2  3  2  0  0  0  0
  3  4  1  0  0  0  0
  4  5  2  0  0  0  0
  4 21  1  0  0  0  0
  5  6  1  0  0  0  0
  6 10  1  0  0  0  0
  6  7  2  0  0  0  0
  7  8  1  0  0  0  0
  8  9  2  0  0  0  0
  9 10  1  0  0  0  0
  9 22  1  0  0  0  0
 10 11  1  0  0  0  0
 11 12  1  0  0  0  0
 11 23  1  0  0  0  0
 11 24  1  0  0  0  0
 12 13  1  0  0  0  0
 12 25  1  0  0  0  0
 12 26  1  0  0  0  0
 13 14  1  0  0  0  0
 14 15  1  0  0  0  0
 14 27  1  0  0  0  0
 14 28  1  0  0  0  0
 15 16  1  0  0  0  0
 15 17  1  0  0  0  0
 15 18  1  0  0  0  0
M  END
> <s_m_source_file>
AV-unprocessed.smi

> <i_m_source_file_index>
2376

> <i_lp_mmshare_version>
43012

> <i_f3d_flags>
0

> <s_epik_input>
bjFbY0hdbmMoW05IMl0pYyhjMTIpbltjSF1uMltDSDJdW0NIMl1PW0NIMl1DKEYpKEYpRg==

> <s_epik_cmdline>
J2VwaWtfcHl0aG9uJywgJy1waCcsICc3LjAnLCAnLXRuJywgJzgnLCAnLW1hJywgJzIwMCcsICctbWV0YWxfYmluZGluZycsICctaW1hZScsICc8aW5maWxlLm1hZT4nLCAnLW9tYWUnLCAnPG91dGZpbGUubWFlPic=

> <r_lp_tautomer_probability>
1

> <r_epik_Ionization_Penalty>
0.000856314

> <r_epik_Ionization_Penalty_Charging>
0

> <r_epik_Ionization_Penalty_Neutral>
0.000856314

> <r_epik_State_Penalty>
-0

> <r_epik_Charging_Adjusted_Penalty>
0

> <i_epik_Tot_Q>
0

> <i_epik_Tot_abs_Q>
0

> <r_epik_Metal_State_Penalty>
-0

> <b_epik_Metal_Only>
0

> <s_lp_Force_Field>
OPLS_2005

> <r_lp_Energy>
6.06006

> <b_lp_Chiralities_Consistent>
1

> <s_lp_Variant>
AV-unprocessed.smi:2376-1

> <Gold.Version>
5.8.1

> <Gold.Id.Protein>
6NUR|6NUR_protein|mol2

> <Gold.PLP.Fitness>
45.3438

> <Gold.PLP.PLP>
-38.9010

> <Gold.PLP.part.hbond>
-3.0000

> <Gold.PLP.part.metal>
0.0000

> <Gold.PLP.part.buried>
-5.5699

> <Gold.PLP.part.nonpolar>
-30.1682

> <Gold.PLP.part.repulsive>
0.3164

> <Gold.PLP.ligand.clash>
0.0000

> <Gold.PLP.ligand.torsion>
0.7956

> <Gold.PLP.Chemscore.Hbond>
2.6720

> <Gold.PLP.Chemscore.CHOScore>
0.0000

> <Gold.PLP.Chemscore.Metal>
0.0000

> <Gold.Chemscore.Hbonds>
donor molecule, donor type, donor heavy atom, donor atom, acceptor molecule, acceptor atom, score
      L1  H     1    19       P1  7957  0.67
      L1  H     1    20       P1  7948  1.00
      P1  H  7989  7998       L1     8  1.00

> <Gold.PLP.Chemscore.Internal.Correction>
0.0180

> <Gold.Rescore>
     Score         DG    S(hbond)    S(metal)    S(lipo)     H(rot)  DE(clash)    DE(int)     intcor
     11.79     -12.59       2.66        0.00      44.25       2.72       0.15       0.65       ----

> <Gold.Chemscore.Fitness>
11.7869

> <Gold.Chemscore.DG>
-12.5880

> <Gold.Chemscore.ZeroCoef>
-5.4800

> <Gold.Chemscore.Hbond>
2.6631

> <Gold.Chemscore.Metal>
0.0000

> <Gold.Chemscore.Lipo>
44.2535

> <Gold.Chemscore.Internal_Hbond>
0.0000

> <Gold.Chemscore.DEClash>
0.1467

> <Gold.Chemscore.DEInternal>
0.6544

> <Gold.Chemscore.Rot>
2.7204

> <Gold.Chemscore.Internal.Correction>
   9.000000E+99

> <Gold.Chemscore.Hbonds>
donor molecule, donor type, donor heavy atom, donor atom, acceptor molecule, acceptor atom, score
      L1  H     1    19       P1  7957  0.66
      L1  H     1    20       P1  7948  0.96
      P1  H  7989  7998       L1     8  0.81

> <Gold.Chemscore.Hbond.Weighted>
-8.8947

> <Gold.Chemscore.Metal.Weighted>
-0.0000

> <Gold.Chemscore.Lipo.Weighted>
-5.1777

> <Gold.Chemscore.Internal_Hbond.Weighted>
0.0000

> <Gold.Chemscore.DEClash.Weighted>
0.1467

> <Gold.Chemscore.DEInternal.Weighted>
0.6544

> <Gold.Chemscore.Rot.Weighted>
6.9644

> <Gold.Chemscore.Internal.Correction.Weighted>
   9.000000E+99

> <Gold.Protein.RotatedTorsions>
[ 6907 6896 6895 6894 ] final   56.96 input  -60.11 | X-H torsion
[ 7974 7965 7964 7962 ] final  -22.55 input  175.53 | X-H torsion
[ 8008 7997 7996 7995 ] final   93.32 input   59.86 | X-H torsion
[ 10167 10162 10161 10158 ] final  -22.56 input  -65.29 | X-H torsion
[ 10718 10713 10712 10709 ] final  -69.54 input   66.30 | X-H torsion
[ 10763 10752 10751 10750 ] final  -25.57 input  -60.55 | X-H torsion
[ 11005 11000 10999 10996 ] final  -37.15 input  -57.11 | X-H torsion

> <Gold.Protein.ActiveResidues>
 VAL166  LYS551  ARG553  GLY616  TRP617  ASP618  TYR619  PRO620  LYS621  CYS622 
 ASP623  PHE694  ASN695  SER759  ASP760  ASP761  ALA762  ILE779  LEU786  VAL792 
 PHE793  MET794  SER795  GLU796  ALA797  LYS798  CYS799  TRP800  GLU811  SER814 

> <Gold.Protein.RotatedAtoms>
  152.3686  134.6768  160.0183 H   0  0  0  0  0  0  0  0  0  0  0  0  # atno 6907 bound_to 6896
  151.7068  133.3306  159.3288 H   0  0  0  0  0  0  0  0  0  0  0  0  # atno 6908 bound_to 6896
  150.7656  134.6502  159.6328 H   0  0  0  0  0  0  0  0  0  0  0  0  # atno 6909 bound_to 6896
  146.1669  140.4494  142.8548 H   0  0  0  0  0  0  0  0  0  0  0  0  # atno 7974 bound_to 7965
  156.0454  140.3314  155.7290 H   0  0  0  0  0  0  0  0  0  0  0  0  # atno 8008 bound_to 7997
  155.5682  140.0625  157.2830 H   0  0  0  0  0  0  0  0  0  0  0  0  # atno 8009 bound_to 7997
  154.4411  140.1865  156.0840 H   0  0  0  0  0  0  0  0  0  0  0  0  # atno 8010 bound_to 7997
  140.7286  143.4523  151.0499 H   0  0  0  0  0  0  0  0  0  0  0  0  # atno 10167 bound_to 10162
  156.0450  130.4314  150.2163 H   0  0  0  0  0  0  0  0  0  0  0  0  # atno 10718 bound_to 10713
  153.7020  135.6956  153.5060 H   0  0  0  0  0  0  0  0  0  0  0  0  # atno 10763 bound_to 10752
  153.2335  135.4329  155.0621 H   0  0  0  0  0  0  0  0  0  0  0  0  # atno 10764 bound_to 10752
  154.8341  135.3490  154.6559 H   0  0  0  0  0  0  0  0  0  0  0  0  # atno 10765 bound_to 10752
  140.9930  133.6995  156.1883 H   0  0  0  0  0  0  0  0  0  0  0  0  # atno 11005 bound_to 11000
  144.8106  140.6378  143.6418 LP  0  0  0  0  0  0  0  0  0  0  0  0  # atno 17320 bound_to 7965
  145.4443  139.1531  143.3953 LP  0  0  0  0  0  0  0  0  0  0  0  0  # atno 17321 bound_to 7965
  139.8200  143.7833  152.3176 LP  0  0  0  0  0  0  0  0  0  0  0  0  # atno 17342 bound_to 10162
  139.7912  144.7409  150.9952 LP  0  0  0  0  0  0  0  0  0  0  0  0  # atno 17343 bound_to 10162
  157.0254  130.9991  151.3328 LP  0  0  0  0  0  0  0  0  0  0  0  0  # atno 17370 bound_to 10713
  157.5315  130.8061  149.7922 LP  0  0  0  0  0  0  0  0  0  0  0  0  # atno 17371 bound_to 10713
  140.7010  134.4563  157.5586 LP  0  0  0  0  0  0  0  0  0  0  0  0  # atno 17394 bound_to 11000
  139.9001  134.8576  156.1933 LP  0  0  0  0  0  0  0  0  0  0  0  0  # atno 17395 bound_to 11000

$$$$
