AV-unprocessed.smi:2709|AV-procd|sdf|10460|dock6
  -GOLD-   2272014503D 1   1.00000     0.00000
 Structure written by MMmdl.
 40 42  0  0  0  0  0  0  0  0  1 V2000
  145.8630  131.5978  152.3786 C   0  0  0  0  0  0  0  0  0  0  0  0
  146.3841  132.3955  153.4290 O   0  0  0  0  0  0  0  0  0  0  0  0
  147.8014  132.4969  153.4202 C   0  0  2  0  0  0  0  0  0  0  0  0
  148.4732  131.1237  153.5585 C   0  0  0  0  0  0  0  0  0  0  0  0
  149.7631  131.4045  154.3205 C   0  0  0  0  0  0  0  0  0  0  0  0
  149.3627  132.4779  155.3310 C   0  0  0  0  0  0  0  0  0  0  0  0
  148.2801  133.3236  154.6368 C   0  0  1  0  0  0  0  0  0  0  0  0
  148.8323  134.6136  154.2310 N   0  0  0  0  0  0  0  0  0  0  0  0
  149.0906  135.6328  155.0620 C   0  0  0  0  0  0  0  0  0  0  0  0
  148.8784  135.5893  156.2728 O   0  0  0  0  0  0  0  0  0  0  0  0
  149.5910  136.6854  154.3929 N   0  0  0  0  0  0  0  0  0  0  0  0
  150.0061  137.9497  154.8933 C   0  0  0  0  0  0  0  0  0  0  0  0
  150.3279  138.0612  156.2623 C   0  0  0  0  0  0  0  0  0  0  0  0
  150.7203  139.2286  156.8152 N   0  0  0  0  0  0  0  0  0  0  0  0
  150.7794  140.2885  156.0051 C   0  0  0  0  0  0  0  0  0  0  0  0
  151.2509  141.5735  156.6118 C   0  0  0  0  0  0  0  0  0  0  0  0
  151.7605  141.6161  158.0380 C   0  0  0  0  0  0  0  0  0  0  0  0
  150.4461  142.2606  157.6964 C   0  0  0  0  0  0  0  0  0  0  0  0
  150.5090  140.3062  154.6974 N   0  0  0  0  0  0  0  0  0  0  0  0
  150.1150  139.1425  154.1357 C   0  0  0  0  0  0  0  0  0  0  0  0
  144.7755  131.5737  152.4461 H   0  0  0  0  0  0  0  0  0  0  0  0
  146.2236  130.5704  152.4359 H   0  0  0  0  0  0  0  0  0  0  0  0
  146.1281  132.0088  151.4038 H   0  0  0  0  0  0  0  0  0  0  0  0
  148.1412  132.9705  152.4964 H   0  0  0  0  0  0  0  0  0  0  0  0
  147.8432  130.4598  154.1524 H   0  0  0  0  0  0  0  0  0  0  0  0
  148.6494  130.6423  152.5963 H   0  0  0  0  0  0  0  0  0  0  0  0
  150.1745  130.5130  154.7950 H   0  0  0  0  0  0  0  0  0  0  0  0
  150.5164  131.8009  153.6384 H   0  0  0  0  0  0  0  0  0  0  0  0
  148.9312  131.9962  156.2094 H   0  0  0  0  0  0  0  0  0  0  0  0
  150.2179  133.0614  155.6746 H   0  0  0  0  0  0  0  0  0  0  0  0
  147.4620  133.4912  155.3404 H   0  0  0  0  0  0  0  0  0  0  0  0
  149.0313  134.7350  153.2490 H   0  0  0  0  0  0  0  0  0  0  0  0
  149.6689  136.5739  153.3927 H   0  0  0  0  0  0  0  0  0  0  0  0
  150.2727  137.2072  156.9214 H   0  0  0  0  0  0  0  0  0  0  0  0
  151.7493  142.2001  155.8745 H   0  0  0  0  0  0  0  0  0  0  0  0
  151.7298  140.6951  158.6171 H   0  0  0  0  0  0  0  0  0  0  0  0
  152.6025  142.2718  158.2496 H   0  0  0  0  0  0  0  0  0  0  0  0
  150.4083  143.3479  157.6797 H   0  0  0  0  0  0  0  0  0  0  0  0
  149.5413  141.7681  158.0475 H   0  0  0  0  0  0  0  0  0  0  0  0
  149.8850  139.1971  153.0840 H   0  0  0  0  0  0  0  0  0  0  0  0
  1  2  1  0  0  0  0
  1 21  1  0  0  0  0
  1 22  1  0  0  0  0
  1 23  1  0  0  0  0
  2  3  1  0  0  0  0
  3  7  1  0  0  0  0
  3  4  1  0  0  0  0
  3 24  1  0  0  0  0
  4  5  1  0  0  0  0
  4 25  1  0  0  0  0
  4 26  1  0  0  0  0
  5  6  1  0  0  0  0
  5 27  1  0  0  0  0
  5 28  1  0  0  0  0
  6  7  1  0  0  0  0
  6 29  1  0  0  0  0
  6 30  1  0  0  0  0
  7  8  1  0  0  0  0
  7 31  1  0  0  0  0
  8  9  1  0  0  0  0
  8 32  1  0  0  0  0
  9 10  2  0  0  0  0
  9 11  1  0  0  0  0
 11 12  1  0  0  0  0
 11 33  1  0  0  0  0
 12 20  1  0  0  0  0
 12 13  2  0  0  0  0
 13 14  1  0  0  0  0
 13 34  1  0  0  0  0
 14 15  2  0  0  0  0
 15 16  1  0  0  0  0
 15 19  1  0  0  0  0
 16 18  1  0  0  0  0
 16 17  1  0  0  0  0
 16 35  1  0  0  0  0
 17 18  1  0  0  0  0
 17 36  1  0  0  0  0
 17 37  1  0  0  0  0
 18 38  1  0  0  0  0
 18 39  1  0  0  0  0
 19 20  2  0  0  0  0
 20 40  1  0  0  0  0
M  END
> <s_m_source_file>
AV-unprocessed.smi

> <i_m_source_file_index>
2709

> <i_lp_mmshare_version>
43012

> <i_f3d_flags>
0

> <s_epik_input>
W0NIM11PW0NAQEhdMVtDSDJdW0NIMl1bQ0gyXVtDQEhdMVtOSF1DKD1PKVtOSF1jMltjSF1uYyhuW2NIXTIpW0NIXTNbQ0gyXVtDSDJdMw==

> <s_epik_cmdline>
J2VwaWtfcHl0aG9uJywgJy1waCcsICc3LjAnLCAnLXRuJywgJzgnLCAnLW1hJywgJzIwMCcsICctbWV0YWxfYmluZGluZycsICctaW1hZScsICc8aW5maWxlLm1hZT4nLCAnLW9tYWUnLCAnPG91dGZpbGUubWFlPic=

> <r_lp_tautomer_probability>
1

> <r_epik_Ionization_Penalty>
2.49969e-05

> <r_epik_Ionization_Penalty_Charging>
0

> <r_epik_Ionization_Penalty_Neutral>
2.49969e-05

> <r_epik_State_Penalty>
-0

> <r_epik_Charging_Adjusted_Penalty>
0

> <i_epik_Tot_Q>
0

> <i_epik_Tot_abs_Q>
0

> <r_epik_Metal_State_Penalty>
-0

> <b_epik_Metal_Only>
0

> <s_lp_Force_Field>
OPLS_2005

> <r_lp_Energy>
17.9033

> <b_lp_Chiralities_Consistent>
1

> <s_lp_Variant>
AV-unprocessed.smi:2709-1

> <Gold.Version>
5.8.1

> <Gold.Id.Protein>
6NUR|6NUR_protein|mol2

> <Gold.PLP.Fitness>
38.6256

> <Gold.PLP.PLP>
-28.3752

> <Gold.PLP.part.hbond>
-3.0000

> <Gold.PLP.part.metal>
0.0000

> <Gold.PLP.part.buried>
-3.5114

> <Gold.PLP.part.nonpolar>
-22.0147

> <Gold.PLP.part.repulsive>
0.2539

> <Gold.PLP.ligand.clash>
0.0000

> <Gold.PLP.ligand.torsion>
0.3354

> <Gold.PLP.Chemscore.Hbond>
2.6000

> <Gold.PLP.Chemscore.CHOScore>
1.0000

> <Gold.PLP.Chemscore.Metal>
0.0000

> <Gold.Chemscore.Hbonds>
donor molecule, donor type, donor heavy atom, donor atom, acceptor molecule, acceptor atom, score
      L1  H     8    32       P1  7948  0.59
      L1  H    11    33       P1  7948  1.00
      P1  H  7989  7998       L1    19  1.00
      L1  C    20    40       P1  7957  1.00

> <Gold.PLP.Chemscore.Internal.Correction>
0.1212

> <Gold.Rescore>
     Score         DG    S(hbond)    S(metal)    S(lipo)     H(rot)  DE(clash)    DE(int)     intcor
     14.66     -16.38       1.87        0.00      70.59       1.41       0.06       1.66       ----

> <Gold.Chemscore.Fitness>
14.6592

> <Gold.Chemscore.DG>
-16.3757

> <Gold.Chemscore.ZeroCoef>
-5.4800

> <Gold.Chemscore.Hbond>
1.8712

> <Gold.Chemscore.Metal>
0.0000

> <Gold.Chemscore.Lipo>
70.5898

> <Gold.Chemscore.Internal_Hbond>
0.0000

> <Gold.Chemscore.DEClash>
0.0609

> <Gold.Chemscore.DEInternal>
1.6556

> <Gold.Chemscore.Rot>
1.4114

> <Gold.Chemscore.Internal.Correction>
   9.000000E+99

> <Gold.Chemscore.Hbonds>
donor molecule, donor type, donor heavy atom, donor atom, acceptor molecule, acceptor atom, score
      L1  H     8    32       P1  7948  0.07
      L1  H    11    33       P1  7948  0.43
      P1  H  7989  7998       L1    19  0.30

> <Gold.Chemscore.Hbond.Weighted>
-6.2499

> <Gold.Chemscore.Metal.Weighted>
-0.0000

> <Gold.Chemscore.Lipo.Weighted>
-8.2590

> <Gold.Chemscore.Internal_Hbond.Weighted>
0.0000

> <Gold.Chemscore.DEClash.Weighted>
0.0609

> <Gold.Chemscore.DEInternal.Weighted>
1.6556

> <Gold.Chemscore.Rot.Weighted>
3.6133

> <Gold.Chemscore.Internal.Correction.Weighted>
   9.000000E+99

> <Gold.Protein.RotatedTorsions>
[ 6907 6896 6895 6894 ] final   75.42 input  -60.11 | X-H torsion
[ 7974 7965 7964 7962 ] final   96.03 input  175.53 | X-H torsion
[ 8008 7997 7996 7995 ] final  148.72 input   59.86 | X-H torsion
[ 10167 10162 10161 10158 ] final  -99.15 input  -65.29 | X-H torsion
[ 10718 10713 10712 10709 ] final  -69.04 input   66.30 | X-H torsion
[ 10763 10752 10751 10750 ] final  -19.97 input  -60.55 | X-H torsion
[ 11005 11000 10999 10996 ] final  -64.47 input  -57.11 | X-H torsion

> <Gold.Protein.ActiveResidues>
 VAL166  LYS551  ARG553  GLY616  TRP617  ASP618  TYR619  PRO620  LYS621  CYS622 
 ASP623  PHE694  ASN695  SER759  ASP760  ASP761  ALA762  ILE779  LEU786  VAL792 
 PHE793  MET794  SER795  GLU796  ALA797  LYS798  CYS799  TRP800  GLU811  SER814 

> <Gold.Protein.RotatedAtoms>
  152.5025  134.4123  159.9452 H   0  0  0  0  0  0  0  0  0  0  0  0  # atno 6907 bound_to 6896
  151.4092  133.3726  159.2749 H   0  0  0  0  0  0  0  0  0  0  0  0  # atno 6908 bound_to 6896
  150.9304  134.8741  159.7607 H   0  0  0  0  0  0  0  0  0  0  0  0  # atno 6909 bound_to 6896
  145.4443  139.2298  143.3074 H   0  0  0  0  0  0  0  0  0  0  0  0  # atno 7974 bound_to 7965
  156.2781  140.2121  156.5744 H   0  0  0  0  0  0  0  0  0  0  0  0  # atno 8008 bound_to 7997
  154.7110  140.0512  157.0572 H   0  0  0  0  0  0  0  0  0  0  0  0  # atno 8009 bound_to 7997
  155.0606  140.3166  155.4665 H   0  0  0  0  0  0  0  0  0  0  0  0  # atno 8010 bound_to 7997
  140.2655  143.3379  152.0585 H   0  0  0  0  0  0  0  0  0  0  0  0  # atno 10167 bound_to 10162
  156.0475  130.4305  150.2089 H   0  0  0  0  0  0  0  0  0  0  0  0  # atno 10718 bound_to 10713
  153.6130  135.6995  153.5339 H   0  0  0  0  0  0  0  0  0  0  0  0  # atno 10763 bound_to 10752
  153.3000  135.4131  155.1244 H   0  0  0  0  0  0  0  0  0  0  0  0  # atno 10764 bound_to 10752
  154.8559  135.3646  154.5669 H   0  0  0  0  0  0  0  0  0  0  0  0  # atno 10765 bound_to 10752
  141.1426  133.6666  156.5838 H   0  0  0  0  0  0  0  0  0  0  0  0  # atno 11005 bound_to 11000
  146.2539  140.5195  142.8882 LP  0  0  0  0  0  0  0  0  0  0  0  0  # atno 17320 bound_to 7965
  144.8101  140.6371  143.6421 LP  0  0  0  0  0  0  0  0  0  0  0  0  # atno 17321 bound_to 7965
  139.5004  144.6691  151.6286 LP  0  0  0  0  0  0  0  0  0  0  0  0  # atno 17342 bound_to 10162
  140.5932  143.9743  150.6338 LP  0  0  0  0  0  0  0  0  0  0  0  0  # atno 17343 bound_to 10162
  157.0176  130.9970  151.3348 LP  0  0  0  0  0  0  0  0  0  0  0  0  # atno 17370 bound_to 10713
  157.5366  130.8093  149.7979 LP  0  0  0  0  0  0  0  0  0  0  0  0  # atno 17371 bound_to 10713
  140.3817  134.7518  157.4665 LP  0  0  0  0  0  0  0  0  0  0  0  0  # atno 17394 bound_to 11000
  140.0633  134.5965  155.8724 LP  0  0  0  0  0  0  0  0  0  0  0  0  # atno 17395 bound_to 11000

$$$$
