AV-unprocessed.smi:3029|AV-procd|sdf|11532|dock1
  -GOLD-   2272016473D 1   1.00000     0.00000
 Structure written by MMmdl.
 41 42  0  0  0  0  0  0  0  0  3 V2000
  153.4780  136.3415  160.6794 O   0  0  0  0  0  0  0  0  0  0  0  0
  153.9319  136.8978  161.6795 C   0  0  0  0  0  0  0  0  0  0  0  0
  154.0777  136.1941  162.9579 C   0  0  0  0  0  0  0  0  0  0  0  0
  154.5674  136.8078  164.0529 C   0  0  0  0  0  0  0  0  0  0  0  0
  154.9694  138.1997  163.9976 C   0  0  0  0  0  0  0  0  0  0  0  0
  155.4897  138.8711  165.1682 N   0  3  0  0  0  0  0  0  0  0  0  0
  155.5891  140.0944  165.1581 O   0  0  0  0  0  0  0  0  0  0  0  0
  155.8164  138.1946  166.1380 O   0  5  0  0  0  0  0  0  0  0  0  0
  154.8369  138.8432  162.8213 C   0  0  0  0  0  0  0  0  0  0  0  0
  154.3261  138.2078  161.6730 N   0  0  0  0  0  0  0  0  0  0  0  0
  154.2144  139.0331  160.4601 C   0  0  0  0  0  0  0  0  0  0  0  0
  153.2693  140.2314  160.6633 C   0  0  0  0  0  0  0  0  0  0  0  0
  153.1515  140.9981  159.4313 N   0  0  0  0  0  0  0  0  0  0  0  0
  152.2159  142.1102  159.5461 C   0  0  1  0  0  0  0  0  0  0  0  0
  152.9081  143.2366  160.3484 C   0  0  0  0  0  0  0  0  0  0  0  0
  152.0538  144.5079  160.4128 C   0  0  0  0  0  0  0  0  0  0  0  0
  151.7036  144.9930  159.0031 C   0  0  0  0  0  0  0  0  0  0  0  0
  150.9765  143.8939  158.2178 C   0  0  0  0  0  0  0  0  0  0  0  0
  151.7972  142.5854  158.1240 C   0  0  2  0  0  0  0  0  0  0  0  0
  150.9982  141.5180  157.3301 C   0  0  0  0  0  0  0  0  0  0  0  0
  151.6963  140.3860  157.2326 F   0  0  0  0  0  0  0  0  0  0  0  0
  149.8491  141.2564  157.9535 F   0  0  0  0  0  0  0  0  0  0  0  0
  150.6954  141.9393  156.1024 F   0  0  0  0  0  0  0  0  0  0  0  0
  153.7829  135.1569  163.0214 H   0  0  0  0  0  0  0  0  0  0  0  0
  154.6552  136.2475  164.9723 H   0  0  0  0  0  0  0  0  0  0  0  0
  155.1017  139.8806  162.6747 H   0  0  0  0  0  0  0  0  0  0  0  0
  155.2069  139.4067  160.2039 H   0  0  0  0  0  0  0  0  0  0  0  0
  153.9061  138.4510  159.5899 H   0  0  0  0  0  0  0  0  0  0  0  0
  152.2865  139.8860  160.9867 H   0  0  0  0  0  0  0  0  0  0  0  0
  153.6615  140.8710  161.4535 H   0  0  0  0  0  0  0  0  0  0  0  0
  154.0558  141.3220  159.1183 H   0  0  0  0  0  0  0  0  0  0  0  0
  151.3185  141.7850  160.0744 H   0  0  0  0  0  0  0  0  0  0  0  0
  153.1250  142.9071  161.3645 H   0  0  0  0  0  0  0  0  0  0  0  0
  153.8696  143.4790  159.8929 H   0  0  0  0  0  0  0  0  0  0  0  0
  151.1399  144.3104  160.9744 H   0  0  0  0  0  0  0  0  0  0  0  0
  152.5887  145.2890  160.9538 H   0  0  0  0  0  0  0  0  0  0  0  0
  151.0778  145.8841  159.0616 H   0  0  0  0  0  0  0  0  0  0  0  0
  152.6120  145.2853  158.4749 H   0  0  0  0  0  0  0  0  0  0  0  0
  150.0159  143.6917  158.6929 H   0  0  0  0  0  0  0  0  0  0  0  0
  150.7496  144.2670  157.2190 H   0  0  0  0  0  0  0  0  0  0  0  0
  152.7039  142.8112  157.5596 H   0  0  0  0  0  0  0  0  0  0  0  0
  1  2  2  0  0  0  0
  2 10  1  0  0  0  0
  2  3  1  0  0  0  0
  3  4  2  0  0  0  0
  3 24  1  0  0  0  0
  4  5  1  0  0  0  0
  4 25  1  0  0  0  0
  5  6  1  0  0  0  0
  5  9  2  0  0  0  0
  6  7  2  0  0  0  0
  6  8  1  0  0  0  0
  9 10  1  0  0  0  0
  9 26  1  0  0  0  0
 10 11  1  0  0  0  0
 11 12  1  0  0  0  0
 11 27  1  0  0  0  0
 11 28  1  0  0  0  0
 12 13  1  0  0  0  0
 12 29  1  0  0  0  0
 12 30  1  0  0  0  0
 13 14  1  0  0  0  0
 13 31  1  0  0  0  0
 14 19  1  0  0  0  0
 14 15  1  0  0  0  0
 14 32  1  0  0  0  0
 15 16  1  0  0  0  0
 15 33  1  0  0  0  0
 15 34  1  0  0  0  0
 16 17  1  0  0  0  0
 16 35  1  0  0  0  0
 16 36  1  0  0  0  0
 17 18  1  0  0  0  0
 17 37  1  0  0  0  0
 17 38  1  0  0  0  0
 18 19  1  0  0  0  0
 18 39  1  0  0  0  0
 18 40  1  0  0  0  0
 19 20  1  0  0  0  0
 19 41  1  0  0  0  0
 20 21  1  0  0  0  0
 20 22  1  0  0  0  0
 20 23  1  0  0  0  0
M  CHG  1   6   1
M  CHG  1   8  -1
M  END
> <s_m_source_file>
AV-unprocessed.smi

> <i_m_source_file_index>
3029

> <i_lp_mmshare_version>
43012

> <i_f3d_flags>
0

> <s_epik_input>
Tz1jMVtjSF1bY0hdYyhbTitdKD1PKVtPLV0pW2NIXW4xW0NIMl1bQ0gyXVtOSF1bQ0BASF0yW0NIMl1bQ0gyXVtDSDJdW0NIMl1bQ0BIXTJDKEYpKEYpRg==

> <s_epik_cmdline>
J2VwaWtfcHl0aG9uJywgJy1waCcsICc3LjAnLCAnLXRuJywgJzgnLCAnLW1hJywgJzIwMCcsICctbWV0YWxfYmluZGluZycsICctaW1hZScsICc8aW5maWxlLm1hZT4nLCAnLW9tYWUnLCAnPG91dGZpbGUubWFlPic=

> <r_lp_tautomer_probability>
1

> <r_epik_Ionization_Penalty>
1.65565

> <r_epik_Ionization_Penalty_Charging>
3.32684e-10

> <r_epik_Ionization_Penalty_Neutral>
1.65565

> <r_epik_State_Penalty>
1.75811

> <r_epik_Charging_Adjusted_Penalty>
1.75811

> <i_epik_Tot_Q>
0

> <i_epik_Tot_abs_Q>
2

> <r_epik_Metal_State_Penalty>
1.75811

> <b_epik_Metal_Only>
0

> <s_lp_Force_Field>
OPLS_2005

> <r_lp_Energy>
36.7279

> <b_lp_Chiralities_Consistent>
1

> <s_lp_Variant>
AV-unprocessed.smi:3029-8

> <Gold.Version>
5.8.1

> <Gold.Id.Protein>
6NUR|6NUR_protein|mol2

> <Gold.PLP.Fitness>
49.6378

> <Gold.PLP.PLP>
-47.0797

> <Gold.PLP.part.hbond>
-1.2009

> <Gold.PLP.part.metal>
0.0000

> <Gold.PLP.part.buried>
-7.2608

> <Gold.PLP.part.nonpolar>
-39.4914

> <Gold.PLP.part.repulsive>
0.0927

> <Gold.PLP.ligand.clash>
0.0000

> <Gold.PLP.ligand.torsion>
0.2277

> <Gold.PLP.Chemscore.Hbond>
0.9750

> <Gold.PLP.Chemscore.CHOScore>
0.0000

> <Gold.PLP.Chemscore.Metal>
0.0000

> <Gold.Chemscore.Hbonds>
donor molecule, donor type, donor heavy atom, donor atom, acceptor molecule, acceptor atom, score
      P1  H  6896  6909       L1     1  1.00

> <Gold.PLP.Chemscore.Internal.Correction>
0.0886

> <Gold.Rescore>
     Score         DG    S(hbond)    S(metal)    S(lipo)     H(rot)  DE(clash)    DE(int)     intcor
     16.23     -17.91       1.00        0.00     118.46       1.86       0.01       1.67       ----

> <Gold.Chemscore.Fitness>
16.2271

> <Gold.Chemscore.DG>
-17.9065

> <Gold.Chemscore.ZeroCoef>
-5.4800

> <Gold.Chemscore.Hbond>
0.9953

> <Gold.Chemscore.Metal>
0.0000

> <Gold.Chemscore.Lipo>
118.4588

> <Gold.Chemscore.Internal_Hbond>
0.0000

> <Gold.Chemscore.DEClash>
0.0142

> <Gold.Chemscore.DEInternal>
1.6652

> <Gold.Chemscore.Rot>
1.8584

> <Gold.Chemscore.Internal.Correction>
   9.000000E+99

> <Gold.Chemscore.Hbonds>
donor molecule, donor type, donor heavy atom, donor atom, acceptor molecule, acceptor atom, score
      P1  H  6896  6909       L1     1  0.97

> <Gold.Chemscore.Hbond.Weighted>
-3.3244

> <Gold.Chemscore.Metal.Weighted>
-0.0000

> <Gold.Chemscore.Lipo.Weighted>
-13.8597

> <Gold.Chemscore.Internal_Hbond.Weighted>
0.0000

> <Gold.Chemscore.DEClash.Weighted>
0.0142

> <Gold.Chemscore.DEInternal.Weighted>
1.6652

> <Gold.Chemscore.Rot.Weighted>
4.7576

> <Gold.Chemscore.Internal.Correction.Weighted>
   9.000000E+99

> <Gold.Protein.RotatedTorsions>
[ 6907 6896 6895 6894 ] final  161.13 input  -60.11 | X-H torsion
[ 7974 7965 7964 7962 ] final   86.27 input  175.53 | X-H torsion
[ 8008 7997 7996 7995 ] final -137.40 input   59.86 | X-H torsion
[ 10167 10162 10161 10158 ] final    5.39 input  -65.29 | X-H torsion
[ 10718 10713 10712 10709 ] final -113.62 input   66.30 | X-H torsion
[ 10763 10752 10751 10750 ] final -100.44 input  -60.55 | X-H torsion
[ 11005 11000 10999 10996 ] final  109.06 input  -57.11 | X-H torsion

> <Gold.Protein.ActiveResidues>
 VAL166  LYS551  ARG553  GLY616  TRP617  ASP618  TYR619  PRO620  LYS621  CYS622 
 ASP623  PHE694  ASN695  SER759  ASP760  ASP761  ALA762  ILE779  LEU786  VAL792 
 PHE793  MET794  SER795  GLU796  ALA797  LYS798  CYS799  TRP800  GLU811  SER814 

> <Gold.Protein.RotatedAtoms>
  151.9603  133.3693  159.4032 H   0  0  0  0  0  0  0  0  0  0  0  0  # atno 6907 bound_to 6896
  150.6965  134.4248  159.5230 H   0  0  0  0  0  0  0  0  0  0  0  0  # atno 6908 bound_to 6896
  152.1935  134.8651  160.0566 H   0  0  0  0  0  0  0  0  0  0  0  0  # atno 6909 bound_to 6896
  145.5745  139.2317  143.2388 H   0  0  0  0  0  0  0  0  0  0  0  0  # atno 7974 bound_to 7965
  155.4111  140.0512  157.3031 H   0  0  0  0  0  0  0  0  0  0  0  0  # atno 8008 bound_to 7997
  154.4946  140.2133  155.9435 H   0  0  0  0  0  0  0  0  0  0  0  0  # atno 8009 bound_to 7997
  156.1388  140.3158  155.8467 H   0  0  0  0  0  0  0  0  0  0  0  0  # atno 8010 bound_to 7997
  140.6484  143.7604  150.7536 H   0  0  0  0  0  0  0  0  0  0  0  0  # atno 10167 bound_to 10162
  156.0778  130.5983  150.8666 H   0  0  0  0  0  0  0  0  0  0  0  0  # atno 10718 bound_to 10713
  154.7579  135.4935  153.9408 H   0  0  0  0  0  0  0  0  0  0  0  0  # atno 10763 bound_to 10752
  153.1217  135.6733  153.9333 H   0  0  0  0  0  0  0  0  0  0  0  0  # atno 10764 bound_to 10752
  153.9063  135.3104  155.3427 H   0  0  0  0  0  0  0  0  0  0  0  0  # atno 10765 bound_to 10752
  139.8855  134.9448  156.6068 H   0  0  0  0  0  0  0  0  0  0  0  0  # atno 11005 bound_to 11000
  146.1761  140.6571  142.9211 LP  0  0  0  0  0  0  0  0  0  0  0  0  # atno 17320 bound_to 7965
  144.7422  140.4974  143.6861 LP  0  0  0  0  0  0  0  0  0  0  0  0  # atno 17321 bound_to 7965
  140.1250  143.4577  152.2290 LP  0  0  0  0  0  0  0  0  0  0  0  0  # atno 17342 bound_to 10162
  139.5697  144.7456  151.3924 LP  0  0  0  0  0  0  0  0  0  0  0  0  # atno 17343 bound_to 10162
  157.5881  131.0945  150.9163 LP  0  0  0  0  0  0  0  0  0  0  0  0  # atno 17370 bound_to 10713
  156.9344  130.5361  149.5279 LP  0  0  0  0  0  0  0  0  0  0  0  0  # atno 17371 bound_to 10713
  140.7841  133.8635  155.8592 LP  0  0  0  0  0  0  0  0  0  0  0  0  # atno 17394 bound_to 11000
  140.9734  134.1501  157.4557 LP  0  0  0  0  0  0  0  0  0  0  0  0  # atno 17395 bound_to 11000

$$$$
