AV-unprocessed.smi:1525|AV-procd|sdf|6144|dock4
  -GOLD-   22720 6293D 1   1.00000     0.00000
 Structure written by MMmdl.
 50 52  0  0  0  0  0  0  0  0  3 V2000
  149.8200  134.2627  155.8202 O   0  0  0  0  0  0  0  0  0  0  0  0
  149.4587  134.8114  154.7795 C   0  0  0  0  0  0  0  0  0  0  0  0
  149.5883  136.1267  154.5549 N   0  0  0  0  0  0  0  0  0  0  0  0
  150.1675  137.0793  155.4954 C   0  0  0  0  0  0  0  0  0  0  0  0
  149.9770  138.5322  155.0181 C   0  0  0  0  0  0  0  0  0  0  0  0
  150.5908  139.5208  155.9397 N   0  3  0  0  0  0  0  0  0  0  0  0
  150.1943  140.9237  155.6609 C   0  0  0  0  0  0  0  0  0  0  0  0
  150.8941  141.8851  156.6370 C   0  0  0  0  0  0  0  0  0  0  0  0
  150.5861  141.5172  157.9757 O   0  0  0  0  0  0  0  0  0  0  0  0
  151.0420  140.2062  158.2839 C   0  0  0  0  0  0  0  0  0  0  0  0
  150.3451  139.1896  157.3641 C   0  0  0  0  0  0  0  0  0  0  0  0
  148.9063  134.1862  153.7261 N   0  0  0  0  0  0  0  0  0  0  0  0
  148.6357  132.7959  153.5752 C   0  0  0  0  0  0  0  0  0  0  0  0
  149.4633  131.8027  154.1590 C   0  0  0  0  0  0  0  0  0  0  0  0
  149.1311  130.4417  154.0177 C   0  0  0  0  0  0  0  0  0  0  0  0
  147.9713  130.0934  153.3033 C   0  0  0  0  0  0  0  0  0  0  0  0
  147.1966  131.0622  152.7728 N   0  3  0  0  0  0  0  0  0  0  0  0
  147.4650  132.3872  152.8783 C   0  0  0  0  0  0  0  0  0  0  0  0
  146.5927  133.3105  152.2634 N   0  0  0  0  0  0  0  0  0  0  0  0
  146.5300  133.2000  150.8082 C   0  0  0  0  0  0  0  0  0  0  0  0
  145.0865  133.5169  150.4120 C   0  0  0  0  0  0  0  0  0  0  0  0
  144.2932  133.1151  151.6491 C   0  0  0  0  0  0  0  0  0  0  0  0
  145.2396  133.4950  152.7864 C   0  0  0  0  0  0  0  0  0  0  0  0
  149.2697  136.4959  153.6707 H   0  0  0  0  0  0  0  0  0  0  0  0
  149.7300  136.9404  156.4857 H   0  0  0  0  0  0  0  0  0  0  0  0
  151.2257  136.8365  155.5865 H   0  0  0  0  0  0  0  0  0  0  0  0
  150.3787  138.6650  154.0122 H   0  0  0  0  0  0  0  0  0  0  0  0
  148.9072  138.7367  154.9522 H   0  0  0  0  0  0  0  0  0  0  0  0
  150.4566  141.2008  154.6407 H   0  0  0  0  0  0  0  0  0  0  0  0
  149.1116  141.0243  155.7523 H   0  0  0  0  0  0  0  0  0  0  0  0
  151.9744  141.8779  156.4837 H   0  0  0  0  0  0  0  0  0  0  0  0
  150.5552  142.9069  156.4648 H   0  0  0  0  0  0  0  0  0  0  0  0
  152.1265  140.1496  158.1777 H   0  0  0  0  0  0  0  0  0  0  0  0
  150.8125  139.9883  159.3272 H   0  0  0  0  0  0  0  0  0  0  0  0
  149.2713  139.1846  157.5588 H   0  0  0  0  0  0  0  0  0  0  0  0
  150.7155  138.1871  157.5822 H   0  0  0  0  0  0  0  0  0  0  0  0
  148.7466  134.7519  152.9052 H   0  0  0  0  0  0  0  0  0  0  0  0
  150.3416  132.0622  154.7302 H   0  0  0  0  0  0  0  0  0  0  0  0
  149.7545  129.6769  154.4576 H   0  0  0  0  0  0  0  0  0  0  0  0
  147.6393  129.0776  153.1445 H   0  0  0  0  0  0  0  0  0  0  0  0
  147.2294  133.8846  150.3284 H   0  0  0  0  0  0  0  0  0  0  0  0
  146.7881  132.1860  150.4978 H   0  0  0  0  0  0  0  0  0  0  0  0
  144.9762  134.5880  150.2369 H   0  0  0  0  0  0  0  0  0  0  0  0
  144.7686  132.9932  149.5100 H   0  0  0  0  0  0  0  0  0  0  0  0
  143.3251  133.6118  151.7175 H   0  0  0  0  0  0  0  0  0  0  0  0
  144.1237  132.0374  151.6486 H   0  0  0  0  0  0  0  0  0  0  0  0
  145.0199  132.9367  153.6960 H   0  0  0  0  0  0  0  0  0  0  0  0
  145.1210  134.5513  153.0294 H   0  0  0  0  0  0  0  0  0  0  0  0
  151.5900  139.4623  155.8045 H   0  0  0  0  0  0  0  0  0  0  0  0
  146.3613  130.7800  152.2593 H   0  0  0  0  0  0  0  0  0  0  0  0
  1  2  2  0  0  0  0
  2  3  1  0  0  0  0
  2 12  1  0  0  0  0
  3  4  1  0  0  0  0
  3 24  1  0  0  0  0
  4  5  1  0  0  0  0
  4 25  1  0  0  0  0
  4 26  1  0  0  0  0
  5  6  1  0  0  0  0
  5 27  1  0  0  0  0
  5 28  1  0  0  0  0
  6 11  1  0  0  0  0
  6  7  1  0  0  0  0
  6 49  1  0  0  0  0
  7  8  1  0  0  0  0
  7 29  1  0  0  0  0
  7 30  1  0  0  0  0
  8  9  1  0  0  0  0
  8 31  1  0  0  0  0
  8 32  1  0  0  0  0
  9 10  1  0  0  0  0
 10 11  1  0  0  0  0
 10 33  1  0  0  0  0
 10 34  1  0  0  0  0
 11 35  1  0  0  0  0
 11 36  1  0  0  0  0
 12 13  1  0  0  0  0
 12 37  1  0  0  0  0
 13 18  1  0  0  0  0
 13 14  2  0  0  0  0
 14 15  1  0  0  0  0
 14 38  1  0  0  0  0
 15 16  2  0  0  0  0
 15 39  1  0  0  0  0
 16 17  1  0  0  0  0
 16 40  1  0  0  0  0
 17 18  2  0  0  0  0
 17 50  1  0  0  0  0
 18 19  1  0  0  0  0
 19 23  1  0  0  0  0
 19 20  1  0  0  0  0
 20 21  1  0  0  0  0
 20 41  1  0  0  0  0
 20 42  1  0  0  0  0
 21 22  1  0  0  0  0
 21 43  1  0  0  0  0
 21 44  1  0  0  0  0
 22 23  1  0  0  0  0
 22 45  1  0  0  0  0
 22 46  1  0  0  0  0
 23 47  1  0  0  0  0
 23 48  1  0  0  0  0
M  CHG  1   6   1
M  CHG  1  17   1
M  END
> <s_m_source_file>
AV-unprocessed.smi

> <i_m_source_file_index>
1525

> <i_lp_mmshare_version>
43012

> <i_f3d_flags>
0

> <s_epik_input>
W0NIMl0xW0NIMl1PW0NIMl1bQ0gyXU4xW0NIMl1bQ0gyXVtOSF1DKD1PKVtOSF1jMltjSF1bY0hdW2NIXW5jMk4zW0NIMl1bQ0gyXVtDSDJdW0NIMl0z

> <s_epik_cmdline>
J2VwaWtfcHl0aG9uJywgJy1waCcsICc3LjAnLCAnLXRuJywgJzgnLCAnLW1hJywgJzIwMCcsICctbWV0YWxfYmluZGluZycsICctaW1hZScsICc8aW5maWxlLm1hZT4nLCAnLW9tYWUnLCAnPG91dGZpbGUubWFlPic=

> <r_lp_tautomer_probability>
0.999994

> <r_epik_Ionization_Penalty>
1.81601

> <r_epik_Ionization_Penalty_Charging>
1.81599

> <r_epik_Ionization_Penalty_Neutral>
2.02981e-05

> <r_epik_State_Penalty>
1.85672

> <r_epik_Charging_Adjusted_Penalty>
3.6727

> <i_epik_Tot_Q>
2

> <i_epik_Tot_abs_Q>
2

> <r_epik_Metal_State_Penalty>
1.93796

> <b_epik_Metal_Only>
0

> <s_lp_Force_Field>
OPLS_2005

> <r_lp_Energy>
52.6706

> <b_lp_Chiralities_Consistent>
1

> <s_lp_Variant>
AV-unprocessed.smi:1525-4

> <Gold.Version>
5.8.1

> <Gold.Id.Protein>
6NUR|6NUR_protein|mol2

> <Gold.PLP.Fitness>
40.6564

> <Gold.PLP.PLP>
-35.9687

> <Gold.PLP.part.hbond>
-2.7953

> <Gold.PLP.part.metal>
0.0000

> <Gold.PLP.part.buried>
-4.9746

> <Gold.PLP.part.nonpolar>
-28.2887

> <Gold.PLP.part.repulsive>
0.3011

> <Gold.PLP.ligand.clash>
0.0000

> <Gold.PLP.ligand.torsion>
0.4675

> <Gold.PLP.Chemscore.Hbond>
1.8100

> <Gold.PLP.Chemscore.CHOScore>
0.0000

> <Gold.PLP.Chemscore.Metal>
0.0000

> <Gold.Chemscore.Hbonds>
donor molecule, donor type, donor heavy atom, donor atom, acceptor molecule, acceptor atom, score
      L1  H     3    24       P1  7948  0.96
      L1  H    12    37       P1  7948  0.85

> <Gold.PLP.Chemscore.Internal.Correction>
0.1927

> <Gold.Rescore>
     Score         DG    S(hbond)    S(metal)    S(lipo)     H(rot)  DE(clash)    DE(int)     intcor
     12.39     -14.01       1.11        0.00      78.34       1.70       0.02       1.59       ----

> <Gold.Chemscore.Fitness>
12.3876

> <Gold.Chemscore.DG>
-14.0059

> <Gold.Chemscore.ZeroCoef>
-5.4800

> <Gold.Chemscore.Hbond>
1.1077

> <Gold.Chemscore.Metal>
0.0000

> <Gold.Chemscore.Lipo>
78.3399

> <Gold.Chemscore.Internal_Hbond>
0.0000

> <Gold.Chemscore.DEClash>
0.0236

> <Gold.Chemscore.DEInternal>
1.5947

> <Gold.Chemscore.Rot>
1.6952

> <Gold.Chemscore.Internal.Correction>
   9.000000E+99

> <Gold.Chemscore.Hbonds>
donor molecule, donor type, donor heavy atom, donor atom, acceptor molecule, acceptor atom, score
      L1  H     3    24       P1  7948  0.87
      L1  H    12    37       P1  7948  0.14

> <Gold.Chemscore.Hbond.Weighted>
-3.6998

> <Gold.Chemscore.Metal.Weighted>
-0.0000

> <Gold.Chemscore.Lipo.Weighted>
-9.1658

> <Gold.Chemscore.Internal_Hbond.Weighted>
0.0000

> <Gold.Chemscore.DEClash.Weighted>
0.0236

> <Gold.Chemscore.DEInternal.Weighted>
1.5947

> <Gold.Chemscore.Rot.Weighted>
4.3397

> <Gold.Chemscore.Internal.Correction.Weighted>
   9.000000E+99

> <Gold.Protein.RotatedTorsions>
[ 6907 6896 6895 6894 ] final  -99.97 input  -60.11 | X-H torsion
[ 7974 7965 7964 7962 ] final  -15.48 input  175.53 | X-H torsion
[ 8008 7997 7996 7995 ] final  -57.92 input   59.86 | X-H torsion
[ 10167 10162 10161 10158 ] final  132.74 input  -65.29 | X-H torsion
[ 10718 10713 10712 10709 ] final   30.83 input   66.30 | X-H torsion
[ 10763 10752 10751 10750 ] final  -56.08 input  -60.55 | X-H torsion
[ 11005 11000 10999 10996 ] final  155.20 input  -57.11 | X-H torsion

> <Gold.Protein.ActiveResidues>
 VAL166  LYS551  ARG553  GLY616  TRP617  ASP618  TYR619  PRO620  LYS621  CYS622 
 ASP623  PHE694  ASN695  SER759  ASP760  ASP761  ALA762  ILE779  LEU786  VAL792 
 PHE793  MET794  SER795  GLU796  ALA797  LYS798  CYS799  TRP800  GLU811  SER814 

> <Gold.Protein.RotatedAtoms>
  150.7099  134.0959  159.3948 H   0  0  0  0  0  0  0  0  0  0  0  0  # atno 6907 bound_to 6896
  151.8945  135.0401  160.0510 H   0  0  0  0  0  0  0  0  0  0  0  0  # atno 6908 bound_to 6896
  152.2465  133.5143  159.5337 H   0  0  0  0  0  0  0  0  0  0  0  0  # atno 6909 bound_to 6896
  146.2030  140.3499  142.8417 H   0  0  0  0  0  0  0  0  0  0  0  0  # atno 7974 bound_to 7965
  154.4287  140.1096  156.5874 H   0  0  0  0  0  0  0  0  0  0  0  0  # atno 8008 bound_to 7997
  155.6048  140.3493  155.4586 H   0  0  0  0  0  0  0  0  0  0  0  0  # atno 8009 bound_to 7997
  156.0145  140.1226  157.0410 H   0  0  0  0  0  0  0  0  0  0  0  0  # atno 8010 bound_to 7997
  139.5326  144.6648  151.4896 H   0  0  0  0  0  0  0  0  0  0  0  0  # atno 10167 bound_to 10162
  157.2646  130.7178  149.6472 H   0  0  0  0  0  0  0  0  0  0  0  0  # atno 10718 bound_to 10713
  154.2010  135.6411  153.5087 H   0  0  0  0  0  0  0  0  0  0  0  0  # atno 10763 bound_to 10752
  153.0012  135.5451  154.6315 H   0  0  0  0  0  0  0  0  0  0  0  0  # atno 10764 bound_to 10752
  154.5728  135.2918  155.0783 H   0  0  0  0  0  0  0  0  0  0  0  0  # atno 10765 bound_to 10752
  140.1560  134.8642  157.2514 H   0  0  0  0  0  0  0  0  0  0  0  0  # atno 11005 bound_to 11000
  144.8727  140.7294  143.6037 LP  0  0  0  0  0  0  0  0  0  0  0  0  # atno 17320 bound_to 7965
  145.3418  139.1730  143.4481 LP  0  0  0  0  0  0  0  0  0  0  0  0  # atno 17321 bound_to 7965
  140.6514  143.8688  150.6790 LP  0  0  0  0  0  0  0  0  0  0  0  0  # atno 17342 bound_to 10162
  140.2054  143.3925  152.1759 LP  0  0  0  0  0  0  0  0  0  0  0  0  # atno 17343 bound_to 10162
  155.9663  130.4387  150.5226 LP  0  0  0  0  0  0  0  0  0  0  0  0  # atno 17370 bound_to 10713
  157.3138  131.0669  151.1982 LP  0  0  0  0  0  0  0  0  0  0  0  0  # atno 17371 bound_to 10713
  140.2547  134.3641  155.7428 LP  0  0  0  0  0  0  0  0  0  0  0  0  # atno 17394 bound_to 11000
  141.2204  133.7336  156.8989 LP  0  0  0  0  0  0  0  0  0  0  0  0  # atno 17395 bound_to 11000

$$$$
