AV-unprocessed.smi:44|AV-procd|sdf|404|dock5
  -GOLD-   2262016253D 1   1.00000     0.00000
 Structure written by MMmdl.
 28 30  0  0  0  0  0  0  0  0  2 V2000
  153.3578  138.6354  157.0409 O   0  0  0  0  0  0  0  0  0  0  0  0
  152.4704  138.6309  156.1900 C   0  0  0  0  0  0  0  0  0  0  0  0
  152.2191  137.6072  155.3130 N   0  5  0  0  0  0  0  0  0  0  0  0
  151.1804  137.7276  154.3920 C   0  0  0  0  0  0  0  0  0  0  0  0
  150.3743  138.7229  154.2393 N   0  0  0  0  0  0  0  0  0  0  0  0
  150.6041  139.7664  155.1121 C   0  0  0  0  0  0  0  0  0  0  0  0
  151.5768  139.8180  156.0740 C   0  0  0  0  0  0  0  0  0  0  0  0
  151.5308  141.0185  156.7728 N   0  0  0  0  0  0  0  0  0  0  0  0
  150.5107  141.6444  156.1855 C   0  0  0  0  0  0  0  0  0  0  0  0
  149.9063  140.9649  155.1884 N   0  0  0  0  0  0  0  0  0  0  0  0
  148.7510  141.4000  154.3466 C   0  0  2  0  0  0  0  0  0  0  0  0
  147.4753  141.4680  155.1945 C   0  0  0  0  0  0  0  0  0  0  0  0
  146.4601  140.8298  154.2721 C   0  0  0  0  0  0  0  0  0  0  0  0
  147.3108  139.7687  153.5768 C   0  0  1  0  0  0  0  0  0  0  0  0
  146.7346  139.2578  152.2494 C   0  0  0  0  0  0  0  0  0  0  0  0
  147.6495  138.3838  151.6227 O   0  0  0  0  0  0  0  0  0  0  0  0
  148.5420  140.4450  153.3463 O   0  0  0  0  0  0  0  0  0  0  0  0
  149.0460  142.3532  153.9070 H   0  0  0  0  0  0  0  0  0  0  0  0
  147.4968  138.9349  154.2558 H   0  0  0  0  0  0  0  0  0  0  0  0
  151.0954  136.8415  153.7578 H   0  0  0  0  0  0  0  0  0  0  0  0
  150.1953  142.6306  156.4911 H   0  0  0  0  0  0  0  0  0  0  0  0
  147.5900  140.8747  156.1033 H   0  0  0  0  0  0  0  0  0  0  0  0
  147.2373  142.4965  155.4670 H   0  0  0  0  0  0  0  0  0  0  0  0
  145.6060  140.4107  154.8045 H   0  0  0  0  0  0  0  0  0  0  0  0
  146.0924  141.5627  153.5528 H   0  0  0  0  0  0  0  0  0  0  0  0
  145.7852  138.7450  152.4067 H   0  0  0  0  0  0  0  0  0  0  0  0
  146.5423  140.0950  151.5778 H   0  0  0  0  0  0  0  0  0  0  0  0
  148.5216  138.6059  151.9107 H   0  0  0  0  0  0  0  0  0  0  0  0
  1  2  2  0  0  0  0
  2  7  1  0  0  0  0
  2  3  1  0  0  0  0
  3  4  1  0  0  0  0
  4  5  2  0  0  0  0
  4 20  1  0  0  0  0
  5  6  1  0  0  0  0
  6 10  1  0  0  0  0
  6  7  2  0  0  0  0
  7  8  1  0  0  0  0
  8  9  2  0  0  0  0
  9 10  1  0  0  0  0
  9 21  1  0  0  0  0
 10 11  1  0  0  0  0
 11 18  1  0  0  0  0
 11 17  1  0  0  0  0
 11 12  1  0  0  0  0
 12 13  1  0  0  0  0
 12 22  1  0  0  0  0
 12 23  1  0  0  0  0
 13 14  1  0  0  0  0
 13 24  1  0  0  0  0
 13 25  1  0  0  0  0
 14 19  1  0  0  0  0
 14 15  1  0  0  0  0
 14 17  1  0  0  0  0
 15 16  1  0  0  0  0
 15 26  1  0  0  0  0
 15 27  1  0  0  0  0
 16 28  1  0  0  0  0
M  CHG  1   3  -1
M  END
> <s_m_source_file>
AV-unprocessed.smi

> <i_m_source_file_index>
44

> <i_lp_mmshare_version>
43012

> <i_f3d_flags>
0

> <s_epik_input>
bjFbY0hdW25IXWMoPU8pYyhjMTIpbltjSF1uMltDQEhdM1tDSDJdW0NIMl1bQ0BIXShPMylbQ0gyXVtPSF0=

> <s_epik_cmdline>
J2VwaWtfcHl0aG9uJywgJy1waCcsICc3LjAnLCAnLXRuJywgJzgnLCAnLW1hJywgJzIwMCcsICctbWV0YWxfYmluZGluZycsICctaW1hZScsICc8aW5maWxlLm1hZT4nLCAnLW9tYWUnLCAnPG91dGZpbGUubWFlPic=

> <r_lp_tautomer_probability>
0.85571

> <r_epik_Ionization_Penalty>
2.55863

> <r_epik_Ionization_Penalty_Charging>
1.36424e-10

> <r_epik_Ionization_Penalty_Neutral>
2.55863

> <r_epik_State_Penalty>
2.63326

> <r_epik_Charging_Adjusted_Penalty>
2.63326

> <i_epik_Tot_Q>
-1

> <i_epik_Tot_abs_Q>
1

> <r_epik_Metal_State_Penalty>
0.475154

> <b_epik_Metal_Only>
1

> <s_epik_Chemistry_Notes>
This compound contains an acetal/aminal-like group ( X-CH(R)-Y where X, Y are N, S, or O) that may be acid/base labile, releasing an aldehyde.

> <s_lp_Force_Field>
OPLS_2005

> <r_lp_Energy>
46.6553

> <b_lp_Chiralities_Consistent>
1

> <s_lp_Variant>
AV-unprocessed.smi:44-10

> <Gold.Version>
5.8.1

> <Gold.Id.Protein>
6NUR|6NUR_protein|mol2

> <Gold.PLP.Fitness>
43.1455

> <Gold.PLP.PLP>
-28.9935

> <Gold.PLP.part.hbond>
-5.0000

> <Gold.PLP.part.metal>
0.0000

> <Gold.PLP.part.buried>
-1.6266

> <Gold.PLP.part.nonpolar>
-27.1512

> <Gold.PLP.part.repulsive>
4.5587

> <Gold.PLP.ligand.clash>
0.0000

> <Gold.PLP.ligand.torsion>
0.1099

> <Gold.PLP.Chemscore.Hbond>
2.9736

> <Gold.PLP.Chemscore.CHOScore>
1.8132

> <Gold.PLP.Chemscore.Metal>
0.0000

> <Gold.Chemscore.Hbonds>
donor molecule, donor type, donor heavy atom, donor atom, acceptor molecule, acceptor atom, score
      L1  H    16    28       P1  7957  0.48
      P1  H  7954  7966       L1    16  0.70
      P1  H  7997  8008       L1     1  1.00
      P1  H 10752 10765       L1     3  0.61
      L1  C     4    20       P1  7948  0.02
      L1  C     4    20       P1  7949  1.00
      L1  C     9    21       P1  8028  0.82

> <Gold.PLP.Chemscore.Internal.Correction>
0.0115

> <Gold.Rescore>
     Score         DG    S(hbond)    S(metal)    S(lipo)     H(rot)  DE(clash)    DE(int)     intcor
      5.97      -9.21       1.85        0.00      28.56       2.26       1.51       1.74       ----

> <Gold.Chemscore.Fitness>
5.9671

> <Gold.Chemscore.DG>
-9.2112

> <Gold.Chemscore.ZeroCoef>
-5.4800

> <Gold.Chemscore.Hbond>
1.8481

> <Gold.Chemscore.Metal>
0.0000

> <Gold.Chemscore.Lipo>
28.5553

> <Gold.Chemscore.Internal_Hbond>
0.0000

> <Gold.Chemscore.DEClash>
1.5085

> <Gold.Chemscore.DEInternal>
1.7357

> <Gold.Chemscore.Rot>
2.2588

> <Gold.Chemscore.Internal.Correction>
   9.000000E+99

> <Gold.Chemscore.Hbonds>
donor molecule, donor type, donor heavy atom, donor atom, acceptor molecule, acceptor atom, score
      L1  H    16    28       P1  7957  0.31
      P1  H  7954  7966       L1    16  0.07
      P1  H  7997  8008       L1     1  0.48
      P1  H 10752 10765       L1     3  0.05

> <Gold.Chemscore.Hbond.Weighted>
-6.1727

> <Gold.Chemscore.Metal.Weighted>
-0.0000

> <Gold.Chemscore.Lipo.Weighted>
-3.3410

> <Gold.Chemscore.Internal_Hbond.Weighted>
0.0000

> <Gold.Chemscore.DEClash.Weighted>
1.5085

> <Gold.Chemscore.DEInternal.Weighted>
1.7357

> <Gold.Chemscore.Rot.Weighted>
5.7825

> <Gold.Chemscore.Internal.Correction.Weighted>
   9.000000E+99

> <Gold.Protein.RotatedTorsions>
[ 6907 6896 6895 6894 ] final -136.38 input  -60.11 | X-H torsion
[ 7974 7965 7964 7962 ] final  -92.42 input  175.53 | X-H torsion
[ 8008 7997 7996 7995 ] final  -59.00 input   59.86 | X-H torsion
[ 10167 10162 10161 10158 ] final  113.84 input  -65.29 | X-H torsion
[ 10718 10713 10712 10709 ] final -135.83 input   66.30 | X-H torsion
[ 10763 10752 10751 10750 ] final -178.69 input  -60.55 | X-H torsion
[ 11005 11000 10999 10996 ] final   67.51 input  -57.11 | X-H torsion

> <Gold.Protein.ActiveResidues>
 VAL166  LYS551  ARG553  GLY616  TRP617  ASP618  TYR619  PRO620  LYS621  CYS622 
 ASP623  PHE694  ASN695  SER759  ASP760  ASP761  ALA762  ILE779  LEU786  VAL792 
 PHE793  MET794  SER795  GLU796  ALA797  LYS798  CYS799  TRP800  GLU811  SER814 

> <Gold.Protein.RotatedAtoms>
  151.0094  133.5980  159.2684 H   0  0  0  0  0  0  0  0  0  0  0  0  # atno 6907 bound_to 6896
  151.3137  135.0800  159.9291 H   0  0  0  0  0  0  0  0  0  0  0  0  # atno 6908 bound_to 6896
  152.5295  133.9754  159.7835 H   0  0  0  0  0  0  0  0  0  0  0  0  # atno 6909 bound_to 6896
  145.4001  140.9536  143.2292 H   0  0  0  0  0  0  0  0  0  0  0  0  # atno 7974 bound_to 7965
  154.4333  140.1071  156.6045 H   0  0  0  0  0  0  0  0  0  0  0  0  # atno 8008 bound_to 7997
  155.5875  140.3491  155.4538 H   0  0  0  0  0  0  0  0  0  0  0  0  # atno 8009 bound_to 7997
  156.0272  140.1252  157.0286 H   0  0  0  0  0  0  0  0  0  0  0  0  # atno 8010 bound_to 7997
  139.6432  144.7125  151.2195 H   0  0  0  0  0  0  0  0  0  0  0  0  # atno 10167 bound_to 10162
  156.2704  130.7262  151.1227 H   0  0  0  0  0  0  0  0  0  0  0  0  # atno 10718 bound_to 10713
  154.5445  135.2808  155.1065 H   0  0  0  0  0  0  0  0  0  0  0  0  # atno 10763 bound_to 10752
  154.2534  135.6335  153.5252 H   0  0  0  0  0  0  0  0  0  0  0  0  # atno 10764 bound_to 10752
  152.9987  135.5588  154.5994 H   0  0  0  0  0  0  0  0  0  0  0  0  # atno 10765 bound_to 10752
  139.9766  134.6812  156.0341 H   0  0  0  0  0  0  0  0  0  0  0  0  # atno 11005 bound_to 11000
  144.8380  139.5519  143.6913 LP  0  0  0  0  0  0  0  0  0  0  0  0  # atno 17320 bound_to 7965
  146.2756  139.6744  142.9265 LP  0  0  0  0  0  0  0  0  0  0  0  0  # atno 17321 bound_to 7965
  140.7501  143.6276  150.8453 LP  0  0  0  0  0  0  0  0  0  0  0  0  # atno 17342 bound_to 10162
  139.9916  143.5841  152.2908 LP  0  0  0  0  0  0  0  0  0  0  0  0  # atno 17343 bound_to 10162
  157.7282  131.0634  150.5832 LP  0  0  0  0  0  0  0  0  0  0  0  0  # atno 17370 bound_to 10713
  156.5927  130.4333  149.5929 LP  0  0  0  0  0  0  0  0  0  0  0  0  # atno 17371 bound_to 10713
  141.1443  133.6559  156.3820 LP  0  0  0  0  0  0  0  0  0  0  0  0  # atno 17394 bound_to 11000
  140.5181  134.6330  157.5308 LP  0  0  0  0  0  0  0  0  0  0  0  0  # atno 17395 bound_to 11000

$$$$
