AV-unprocessed.smi:844|AV-procd|sdf|3926|dock6
  -GOLD-   22720 1383D 1   1.00000     0.00000
 Structure written by MMmdl.
 33 35  0  0  0  0  0  0  0  0  2 V2000
  150.7792  139.1367  157.4594 O   0  0  0  0  0  0  0  0  0  0  0  0
  151.8522  140.0109  157.1755 C   0  0  1  0  0  0  0  0  0  0  0  0
  151.6632  140.5486  155.7425 C   0  0  0  0  0  0  0  0  0  0  0  0
  150.6740  139.7793  154.9773 N   0  0  0  0  0  0  0  0  0  0  0  0
  150.7226  138.4971  154.5241 C   0  0  0  0  0  0  0  0  0  0  0  0
  149.5472  138.2428  153.8848 N   0  3  0  0  0  0  0  0  0  0  0  0
  148.7381  139.3805  153.9262 C   0  0  0  0  0  0  0  0  0  0  0  0
  147.4626  139.6118  153.4204 C   0  0  0  0  0  0  0  0  0  0  0  0
  146.9187  140.8949  153.6383 C   0  0  0  0  0  0  0  0  0  0  0  0
  147.6364  141.8892  154.3348 C   0  0  0  0  0  0  0  0  0  0  0  0
  148.9286  141.6434  154.8439 C   0  0  0  0  0  0  0  0  0  0  0  0
  149.4581  140.3726  154.6241 C   0  0  0  0  0  0  0  0  0  0  0  0
  151.9735  141.1339  158.1998 C   0  0  0  0  0  0  0  0  0  0  0  0
  151.0387  142.1933  158.2096 C   0  0  0  0  0  0  0  0  0  0  0  0
  151.1597  143.2416  159.1420 C   0  0  0  0  0  0  0  0  0  0  0  0
  152.2183  143.2400  160.0698 C   0  0  0  0  0  0  0  0  0  0  0  0
  152.3371  144.2496  160.9641 F   0  0  0  0  0  0  0  0  0  0  0  0
  153.1560  142.1902  160.0637 C   0  0  0  0  0  0  0  0  0  0  0  0
  153.0369  141.1407  159.1319 C   0  0  0  0  0  0  0  0  0  0  0  0
  153.9572  140.1461  159.1316 F   0  0  0  0  0  0  0  0  0  0  0  0
  151.1331  138.2873  157.6755 H   0  0  0  0  0  0  0  0  0  0  0  0
  152.7530  139.3985  157.2133 H   0  0  0  0  0  0  0  0  0  0  0  0
  151.3452  141.5921  155.7539 H   0  0  0  0  0  0  0  0  0  0  0  0
  152.6050  140.5173  155.1926 H   0  0  0  0  0  0  0  0  0  0  0  0
  151.5408  137.8040  154.6575 H   0  0  0  0  0  0  0  0  0  0  0  0
  146.9101  138.8522  152.8871 H   0  0  0  0  0  0  0  0  0  0  0  0
  145.9308  141.1213  153.2637 H   0  0  0  0  0  0  0  0  0  0  0  0
  147.1870  142.8606  154.4820 H   0  0  0  0  0  0  0  0  0  0  0  0
  149.4707  142.4103  155.3776 H   0  0  0  0  0  0  0  0  0  0  0  0
  150.2262  142.2088  157.4977 H   0  0  0  0  0  0  0  0  0  0  0  0
  150.4412  144.0480  159.1438 H   0  0  0  0  0  0  0  0  0  0  0  0
  153.9702  142.1911  160.7733 H   0  0  0  0  0  0  0  0  0  0  0  0
  149.3169  137.3568  153.4533 H   0  0  0  0  0  0  0  0  0  0  0  0
  1  2  1  0  0  0  0
  1 21  1  0  0  0  0
  2  3  1  0  0  0  0
  2 13  1  0  0  0  0
  2 22  1  0  0  0  0
  3  4  1  0  0  0  0
  3 23  1  0  0  0  0
  3 24  1  0  0  0  0
  4 12  1  0  0  0  0
  4  5  1  0  0  0  0
  5  6  2  0  0  0  0
  5 25  1  0  0  0  0
  6  7  1  0  0  0  0
  6 33  1  0  0  0  0
  7 12  2  0  0  0  0
  7  8  1  0  0  0  0
  8  9  2  0  0  0  0
  8 26  1  0  0  0  0
  9 10  1  0  0  0  0
  9 27  1  0  0  0  0
 10 11  2  0  0  0  0
 10 28  1  0  0  0  0
 11 12  1  0  0  0  0
 11 29  1  0  0  0  0
 13 19  1  0  0  0  0
 13 14  2  0  0  0  0
 14 15  1  0  0  0  0
 14 30  1  0  0  0  0
 15 16  2  0  0  0  0
 15 31  1  0  0  0  0
 16 17  1  0  0  0  0
 16 18  1  0  0  0  0
 18 19  2  0  0  0  0
 18 32  1  0  0  0  0
 19 20  1  0  0  0  0
M  CHG  1   6   1
M  END
> <s_m_source_file>
AV-unprocessed.smi

> <i_m_source_file_index>
844

> <i_lp_mmshare_version>
43012

> <i_f3d_flags>
0

> <s_epik_input>
RmMxW2NIXWMoRilbY0hdW2NIXWMxW0NASF0oW09IXSlbQ0gyXW4oW2NIXW4yKWMoYzIzKVtjSF1bY0hdW2NIXVtjSF0z

> <s_epik_cmdline>
J2VwaWtfcHl0aG9uJywgJy1waCcsICc3LjAnLCAnLXRuJywgJzgnLCAnLW1hJywgJzIwMCcsICctbWV0YWxfYmluZGluZycsICctaW1hZScsICc8aW5maWxlLm1hZT4nLCAnLW9tYWUnLCAnPG91dGZpbGUubWFlPic=

> <r_epik_Ionization_Penalty>
1.3029

> <r_epik_Ionization_Penalty_Charging>
1.3029

> <r_epik_Ionization_Penalty_Neutral>
1.79538e-06

> <r_epik_State_Penalty>
1.377

> <r_epik_Charging_Adjusted_Penalty>
2.6799

> <i_epik_Tot_Q>
1

> <i_epik_Tot_abs_Q>
1

> <r_epik_Metal_State_Penalty>
5.40879

> <b_epik_Metal_Only>
0

> <s_lp_Force_Field>
OPLS_2005

> <r_lp_Energy>
17.7817

> <b_lp_Chiralities_Consistent>
1

> <s_lp_Variant>
AV-unprocessed.smi:844-4

> <Gold.Version>
5.8.1

> <Gold.Id.Protein>
6NUR|6NUR_protein|mol2

> <Gold.PLP.Fitness>
49.7067

> <Gold.PLP.PLP>
-45.5746

> <Gold.PLP.part.hbond>
-1.1894

> <Gold.PLP.part.metal>
0.0000

> <Gold.PLP.part.buried>
1.3771

> <Gold.PLP.part.nonpolar>
-44.0346

> <Gold.PLP.part.repulsive>
0.0408

> <Gold.PLP.ligand.clash>
0.0000

> <Gold.PLP.ligand.torsion>
0.9169

> <Gold.PLP.Chemscore.Hbond>
1.9840

> <Gold.PLP.Chemscore.CHOScore>
0.0000

> <Gold.PLP.Chemscore.Metal>
0.0000

> <Gold.Chemscore.Hbonds>
donor molecule, donor type, donor heavy atom, donor atom, acceptor molecule, acceptor atom, score
      L1  H     6    33       P1  7948  2.00

> <Gold.PLP.Chemscore.Internal.Correction>
0.0138

> <Gold.Rescore>
     Score         DG    S(hbond)    S(metal)    S(lipo)     H(rot)  DE(clash)    DE(int)     intcor
     14.43     -16.36       0.98        0.00     110.19       2.06       0.42       1.52       ----

> <Gold.Chemscore.Fitness>
14.4289

> <Gold.Chemscore.DG>
-16.3628

> <Gold.Chemscore.ZeroCoef>
-5.4800

> <Gold.Chemscore.Hbond>
0.9771

> <Gold.Chemscore.Metal>
0.0000

> <Gold.Chemscore.Lipo>
110.1880

> <Gold.Chemscore.Internal_Hbond>
0.0000

> <Gold.Chemscore.DEClash>
0.4184

> <Gold.Chemscore.DEInternal>
1.5155

> <Gold.Chemscore.Rot>
2.0597

> <Gold.Chemscore.Internal.Correction>
   9.000000E+99

> <Gold.Chemscore.Hbonds>
donor molecule, donor type, donor heavy atom, donor atom, acceptor molecule, acceptor atom, score
      L1  H     6    33       P1  7948  0.92

> <Gold.Chemscore.Hbond.Weighted>
-3.2635

> <Gold.Chemscore.Metal.Weighted>
-0.0000

> <Gold.Chemscore.Lipo.Weighted>
-12.8920

> <Gold.Chemscore.Internal_Hbond.Weighted>
0.0000

> <Gold.Chemscore.DEClash.Weighted>
0.4184

> <Gold.Chemscore.DEInternal.Weighted>
1.5155

> <Gold.Chemscore.Rot.Weighted>
5.2728

> <Gold.Chemscore.Internal.Correction.Weighted>
   9.000000E+99

> <Gold.Protein.RotatedTorsions>
[ 6907 6896 6895 6894 ] final   25.49 input  -60.11 | X-H torsion
[ 7974 7965 7964 7962 ] final   16.13 input  175.53 | X-H torsion
[ 8008 7997 7996 7995 ] final  -55.18 input   59.86 | X-H torsion
[ 10167 10162 10161 10158 ] final  -22.30 input  -65.29 | X-H torsion
[ 10718 10713 10712 10709 ] final -106.97 input   66.30 | X-H torsion
[ 10763 10752 10751 10750 ] final  -41.68 input  -60.55 | X-H torsion
[ 11005 11000 10999 10996 ] final  171.61 input  -57.11 | X-H torsion

> <Gold.Protein.ActiveResidues>
 VAL166  LYS551  ARG553  GLY616  TRP617  ASP618  TYR619  PRO620  LYS621  CYS622 
 ASP623  PHE694  ASN695  SER759  ASP760  ASP761  ALA762  ILE779  LEU786  VAL792 
 PHE793  MET794  SER795  GLU796  ALA797  LYS798  CYS799  TRP800  GLU811  SER814 

> <Gold.Protein.RotatedAtoms>
  151.9733  135.0065  160.0553 H   0  0  0  0  0  0  0  0  0  0  0  0  # atno 6907 bound_to 6896
  152.1763  133.4672  159.4943 H   0  0  0  0  0  0  0  0  0  0  0  0  # atno 6908 bound_to 6896
  150.6910  134.1807  159.4290 H   0  0  0  0  0  0  0  0  0  0  0  0  # atno 6909 bound_to 6896
  146.2258  139.8792  142.8574 H   0  0  0  0  0  0  0  0  0  0  0  0  # atno 7974 bound_to 7965
  154.4186  140.1159  156.5436 H   0  0  0  0  0  0  0  0  0  0  0  0  # atno 8008 bound_to 7997
  155.6483  140.3496  155.4720 H   0  0  0  0  0  0  0  0  0  0  0  0  # atno 8009 bound_to 7997
  155.9814  140.1161  157.0713 H   0  0  0  0  0  0  0  0  0  0  0  0  # atno 8010 bound_to 7997
  140.7285  143.4548  151.0464 H   0  0  0  0  0  0  0  0  0  0  0  0  # atno 10167 bound_to 10162
  156.0414  130.5639  150.7755 H   0  0  0  0  0  0  0  0  0  0  0  0  # atno 10718 bound_to 10713
  153.9665  135.6733  153.4746 H   0  0  0  0  0  0  0  0  0  0  0  0  # atno 10763 bound_to 10752
  153.0813  135.4922  154.8505 H   0  0  0  0  0  0  0  0  0  0  0  0  # atno 10764 bound_to 10752
  154.7243  135.3124  154.8957 H   0  0  0  0  0  0  0  0  0  0  0  0  # atno 10765 bound_to 10752
  140.3209  134.7438  157.4063 H   0  0  0  0  0  0  0  0  0  0  0  0  # atno 11005 bound_to 11000
  145.2529  141.0050  143.3870 LP  0  0  0  0  0  0  0  0  0  0  0  0  # atno 17320 bound_to 7965
  144.9360  139.4244  143.6472 LP  0  0  0  0  0  0  0  0  0  0  0  0  # atno 17321 bound_to 7965
  139.8227  143.7798  152.3177 LP  0  0  0  0  0  0  0  0  0  0  0  0  # atno 17342 bound_to 10162
  139.7886  144.7418  150.9987 LP  0  0  0  0  0  0  0  0  0  0  0  0  # atno 17343 bound_to 10162
  157.5237  131.0933  151.0045 LP  0  0  0  0  0  0  0  0  0  0  0  0  # atno 17370 bound_to 10713
  157.0369  130.5733  149.5350 LP  0  0  0  0  0  0  0  0  0  0  0  0  # atno 17371 bound_to 10713
  140.0943  134.5559  155.8414 LP  0  0  0  0  0  0  0  0  0  0  0  0  # atno 17394 bound_to 11000
  141.2087  133.6676  156.6387 LP  0  0  0  0  0  0  0  0  0  0  0  0  # atno 17395 bound_to 11000

$$$$
