AV-unprocessed.smi:1432|AV-procd|sdf|5832|dock4
  -GOLD-   22720 5493D 1   1.00000     0.00000
 Structure written by MMmdl.
 47 48  0  0  0  0  0  0  0  0  2 V2000
  145.3723  132.8768  152.7951 C   0  0  0  0  0  0  0  0  0  0  0  0
  146.5261  133.7814  152.3098 C   0  0  1  0  0  0  0  0  0  0  0  0
  146.1930  134.4996  150.9849 C   0  0  0  0  0  0  0  0  0  0  0  0
  145.1751  135.6325  151.1816 C   0  0  0  0  0  0  0  0  0  0  0  0
  145.6699  136.6015  152.2622 C   0  0  0  0  0  0  0  0  0  0  0  0
  145.9935  135.8592  153.5692 C   0  0  0  0  0  0  0  0  0  0  0  0
  146.9787  134.7679  153.3364 N   0  3  1  0  0  0  0  0  0  0  0  0
  147.4789  134.1416  154.5868 C   0  0  0  0  0  0  0  0  0  0  0  0
  148.6626  134.9196  155.1931 C   0  0  0  0  0  0  0  0  0  0  0  0
  148.2823  135.5992  156.4262 N   0  0  0  0  0  0  0  0  0  0  0  0
  148.8235  135.3630  157.6311 C   0  0  0  0  0  0  0  0  0  0  0  0
  149.7127  134.5301  157.8135 O   0  0  0  0  0  0  0  0  0  0  0  0
  148.2589  136.1922  158.7938 C   0  0  0  0  0  0  0  0  0  0  0  0
  147.8149  135.3759  159.9361 N   0  0  0  0  0  0  0  0  0  0  0  0
  147.8475  133.9773  159.7711 C   0  0  0  0  0  0  0  0  0  0  0  0
  147.4913  133.1157  160.7427 C   0  0  0  0  0  0  0  0  0  0  0  0
  147.5016  131.6127  160.5125 C   0  0  0  0  0  0  0  0  0  0  0  0
  146.7016  131.3052  159.4925 F   0  0  0  0  0  0  0  0  0  0  0  0
  148.7278  131.1734  160.2289 F   0  0  0  0  0  0  0  0  0  0  0  0
  147.0630  130.9639  161.5917 F   0  0  0  0  0  0  0  0  0  0  0  0
  147.0302  133.7004  161.9866 C   0  0  0  0  0  0  0  0  0  0  0  0
  146.9884  135.0362  162.1595 C   0  0  0  0  0  0  0  0  0  0  0  0
  147.4046  135.9601  161.1016 C   0  0  0  0  0  0  0  0  0  0  0  0
  147.3878  137.1817  161.2538 O   0  0  0  0  0  0  0  0  0  0  0  0
  145.0944  132.1615  152.0207 H   0  0  0  0  0  0  0  0  0  0  0  0
  144.4767  133.4439  153.0469 H   0  0  0  0  0  0  0  0  0  0  0  0
  145.6541  132.2970  153.6739 H   0  0  0  0  0  0  0  0  0  0  0  0
  147.3746  133.1274  152.1028 H   0  0  0  0  0  0  0  0  0  0  0  0
  147.1091  134.9164  150.5642 H   0  0  0  0  0  0  0  0  0  0  0  0
  145.8218  133.7855  150.2489 H   0  0  0  0  0  0  0  0  0  0  0  0
  145.0216  136.1649  150.2424 H   0  0  0  0  0  0  0  0  0  0  0  0
  144.2055  135.2224  151.4655 H   0  0  0  0  0  0  0  0  0  0  0  0
  146.5616  137.1200  151.9071 H   0  0  0  0  0  0  0  0  0  0  0  0
  144.9185  137.3701  152.4457 H   0  0  0  0  0  0  0  0  0  0  0  0
  146.3906  136.5758  154.2872 H   0  0  0  0  0  0  0  0  0  0  0  0
  145.0825  135.4549  154.0112 H   0  0  0  0  0  0  0  0  0  0  0  0
  146.6666  134.0484  155.3093 H   0  0  0  0  0  0  0  0  0  0  0  0
  147.8118  133.1268  154.3649 H   0  0  0  0  0  0  0  0  0  0  0  0
  149.5031  134.2497  155.3839 H   0  0  0  0  0  0  0  0  0  0  0  0
  149.0229  135.6796  154.5007 H   0  0  0  0  0  0  0  0  0  0  0  0
  147.5594  136.3016  156.3593 H   0  0  0  0  0  0  0  0  0  0  0  0
  149.0127  136.9166  159.1080 H   0  0  0  0  0  0  0  0  0  0  0  0
  147.4285  136.7927  158.4189 H   0  0  0  0  0  0  0  0  0  0  0  0
  148.1891  133.6463  158.8010 H   0  0  0  0  0  0  0  0  0  0  0  0
  146.7171  133.0585  162.7968 H   0  0  0  0  0  0  0  0  0  0  0  0
  146.6420  135.4371  163.1007 H   0  0  0  0  0  0  0  0  0  0  0  0
  147.7863  135.2124  152.9236 H   0  0  0  0  0  0  0  0  0  0  0  0
  1  2  1  0  0  0  0
  1 25  1  0  0  0  0
  1 26  1  0  0  0  0
  1 27  1  0  0  0  0
  2  7  1  0  0  0  0
  2  3  1  0  0  0  0
  2 28  1  0  0  0  0
  3  4  1  0  0  0  0
  3 29  1  0  0  0  0
  3 30  1  0  0  0  0
  4  5  1  0  0  0  0
  4 31  1  0  0  0  0
  4 32  1  0  0  0  0
  5  6  1  0  0  0  0
  5 33  1  0  0  0  0
  5 34  1  0  0  0  0
  6  7  1  0  0  0  0
  6 35  1  0  0  0  0
  6 36  1  0  0  0  0
  7  8  1  0  0  0  0
  7 47  1  0  0  0  0
  8  9  1  0  0  0  0
  8 37  1  0  0  0  0
  8 38  1  0  0  0  0
  9 10  1  0  0  0  0
  9 39  1  0  0  0  0
  9 40  1  0  0  0  0
 10 11  1  0  0  0  0
 10 41  1  0  0  0  0
 11 12  2  0  0  0  0
 11 13  1  0  0  0  0
 13 14  1  0  0  0  0
 13 42  1  0  0  0  0
 13 43  1  0  0  0  0
 14 23  1  0  0  0  0
 14 15  1  0  0  0  0
 15 16  2  0  0  0  0
 15 44  1  0  0  0  0
 16 17  1  0  0  0  0
 16 21  1  0  0  0  0
 17 18  1  0  0  0  0
 17 19  1  0  0  0  0
 17 20  1  0  0  0  0
 21 22  2  0  0  0  0
 21 45  1  0  0  0  0
 22 23  1  0  0  0  0
 22 46  1  0  0  0  0
 23 24  2  0  0  0  0
M  CHG  1   7   1
M  END
> <s_m_source_file>
AV-unprocessed.smi

> <i_m_source_file_index>
1432

> <i_lp_mmshare_version>
43012

> <i_f3d_flags>
0

> <s_epik_input>
W0NIM11bQ0BASF0xW0NIMl1bQ0gyXVtDSDJdW0NIMl1OMVtDSDJdW0NIMl1bTkhdQyg9TylbQ0gyXW4yW2NIXWMoQyhGKShGKUYpW2NIXVtjSF1jMj1P

> <s_epik_cmdline>
J2VwaWtfcHl0aG9uJywgJy1waCcsICc3LjAnLCAnLXRuJywgJzgnLCAnLW1hJywgJzIwMCcsICctbWV0YWxfYmluZGluZycsICctaW1hZScsICc8aW5maWxlLm1hZT4nLCAnLW9tYWUnLCAnPG91dGZpbGUubWFlPic=

> <r_lp_tautomer_probability>
1

> <r_epik_Ionization_Penalty>
0.00237222

> <r_epik_Ionization_Penalty_Charging>
0.00237213

> <r_epik_Ionization_Penalty_Neutral>
8.2065e-08

> <r_epik_State_Penalty>
0.00163922

> <r_epik_Charging_Adjusted_Penalty>
0.00401135

> <i_epik_Tot_Q>
1

> <i_epik_Tot_abs_Q>
1

> <r_epik_Metal_State_Penalty>
-0

> <b_epik_Metal_Only>
0

> <s_lp_Force_Field>
OPLS_2005

> <r_lp_Energy>
30.8691

> <b_lp_Chiralities_Consistent>
1

> <s_lp_Variant>
AV-unprocessed.smi:1432-2

> <Gold.Version>
5.8.1

> <Gold.Id.Protein>
6NUR|6NUR_protein|mol2

> <Gold.PLP.Fitness>
47.6360

> <Gold.PLP.PLP>
-35.3955

> <Gold.PLP.part.hbond>
-4.0000

> <Gold.PLP.part.metal>
0.0000

> <Gold.PLP.part.buried>
-4.8316

> <Gold.PLP.part.nonpolar>
-26.7818

> <Gold.PLP.part.repulsive>
0.0000

> <Gold.PLP.ligand.clash>
0.7248

> <Gold.PLP.ligand.torsion>
0.8318

> <Gold.PLP.Chemscore.Hbond>
4.8480

> <Gold.PLP.Chemscore.CHOScore>
0.0000

> <Gold.PLP.Chemscore.Metal>
0.0000

> <Gold.Chemscore.Hbonds>
donor molecule, donor type, donor heavy atom, donor atom, acceptor molecule, acceptor atom, score
      L1  H     7    47       P1  7948  2.00
      P1  H  6896  6909       L1    12  1.00
      P1  H  6931  6943       L1    24  0.80
      P1  H  6934  6947       L1    24  0.99

> <Gold.PLP.Chemscore.Internal.Correction>
0.0849

> <Gold.Rescore>
     Score         DG    S(hbond)    S(metal)    S(lipo)     H(rot)  DE(clash)    DE(int)     intcor
     18.26     -20.49       3.70        0.00      68.00       2.08       0.02       2.22       ----

> <Gold.Chemscore.Fitness>
18.2573

> <Gold.Chemscore.DG>
-20.4941

> <Gold.Chemscore.ZeroCoef>
-5.4800

> <Gold.Chemscore.Hbond>
3.7044

> <Gold.Chemscore.Metal>
0.0000

> <Gold.Chemscore.Lipo>
68.0029

> <Gold.Chemscore.Internal_Hbond>
0.0000

> <Gold.Chemscore.DEClash>
0.0212

> <Gold.Chemscore.DEInternal>
2.2156

> <Gold.Chemscore.Rot>
2.0762

> <Gold.Chemscore.Internal.Correction>
   9.000000E+99

> <Gold.Chemscore.Hbonds>
donor molecule, donor type, donor heavy atom, donor atom, acceptor molecule, acceptor atom, score
      L1  H     7    47       P1  7948  1.00
      P1  H  6896  6909       L1    12  0.97
      P1  H  6931  6943       L1    24  0.76
      P1  H  6934  6947       L1    24  0.94

> <Gold.Chemscore.Hbond.Weighted>
-12.3728

> <Gold.Chemscore.Metal.Weighted>
-0.0000

> <Gold.Chemscore.Lipo.Weighted>
-7.9563

> <Gold.Chemscore.Internal_Hbond.Weighted>
0.0000

> <Gold.Chemscore.DEClash.Weighted>
0.0212

> <Gold.Chemscore.DEInternal.Weighted>
2.2156

> <Gold.Chemscore.Rot.Weighted>
5.3150

> <Gold.Chemscore.Internal.Correction.Weighted>
   9.000000E+99

> <Gold.Protein.RotatedTorsions>
[ 6907 6896 6895 6894 ] final   23.01 input  -60.11 | X-H torsion
[ 7974 7965 7964 7962 ] final -173.99 input  175.53 | X-H torsion
[ 8008 7997 7996 7995 ] final -169.58 input   59.86 | X-H torsion
[ 10167 10162 10161 10158 ] final  142.56 input  -65.29 | X-H torsion
[ 10718 10713 10712 10709 ] final   89.84 input   66.30 | X-H torsion
[ 10763 10752 10751 10750 ] final  -51.50 input  -60.55 | X-H torsion
[ 11005 11000 10999 10996 ] final   81.15 input  -57.11 | X-H torsion

> <Gold.Protein.ActiveResidues>
 VAL166  LYS551  ARG553  GLY616  TRP617  ASP618  TYR619  PRO620  LYS621  CYS622 
 ASP623  PHE694  ASN695  SER759  ASP760  ASP761  ALA762  ILE779  LEU786  VAL792 
 PHE793  MET794  SER795  GLU796  ALA797  LYS798  CYS799  TRP800  GLU811  SER814 

> <Gold.Protein.RotatedAtoms>
  151.9359  135.0235  160.0532 H   0  0  0  0  0  0  0  0  0  0  0  0  # atno 6907 bound_to 6896
  152.2078  133.4884  159.5102 H   0  0  0  0  0  0  0  0  0  0  0  0  # atno 6908 bound_to 6896
  150.6969  134.1423  159.4152 H   0  0  0  0  0  0  0  0  0  0  0  0  # atno 6909 bound_to 6896
  144.7134  140.1538  143.6382 H   0  0  0  0  0  0  0  0  0  0  0  0  # atno 7974 bound_to 7965
  155.9068  140.1050  157.1309 H   0  0  0  0  0  0  0  0  0  0  0  0  # atno 8008 bound_to 7997
  154.4034  140.1282  156.4571 H   0  0  0  0  0  0  0  0  0  0  0  0  # atno 8009 bound_to 7997
  155.7357  140.3467  155.5083 H   0  0  0  0  0  0  0  0  0  0  0  0  # atno 8010 bound_to 7997
  139.4991  144.6099  151.6296 H   0  0  0  0  0  0  0  0  0  0  0  0  # atno 10167 bound_to 10162
  157.6957  131.0348  150.3487 H   0  0  0  0  0  0  0  0  0  0  0  0  # atno 10718 bound_to 10713
  154.1276  135.6525  153.4915 H   0  0  0  0  0  0  0  0  0  0  0  0  # atno 10763 bound_to 10752
  153.0205  135.5285  154.7034 H   0  0  0  0  0  0  0  0  0  0  0  0  # atno 10764 bound_to 10752
  154.6259  135.2970  155.0243 H   0  0  0  0  0  0  0  0  0  0  0  0  # atno 10765 bound_to 10752
  139.9108  134.7975  156.2004 H   0  0  0  0  0  0  0  0  0  0  0  0  # atno 11005 bound_to 11000
  145.9092  139.2477  143.1447 LP  0  0  0  0  0  0  0  0  0  0  0  0  # atno 17320 bound_to 7965
  145.9733  140.8742  143.0151 LP  0  0  0  0  0  0  0  0  0  0  0  0  # atno 17321 bound_to 7965
  140.5770  144.0011  150.6247 LP  0  0  0  0  0  0  0  0  0  0  0  0  # atno 17342 bound_to 10162
  140.3147  143.3175  152.0844 LP  0  0  0  0  0  0  0  0  0  0  0  0  # atno 17343 bound_to 10162
  156.3938  130.3903  149.7010 LP  0  0  0  0  0  0  0  0  0  0  0  0  # atno 17370 bound_to 10713
  156.4350  130.7833  151.2854 LP  0  0  0  0  0  0  0  0  0  0  0  0  # atno 17371 bound_to 10713
  141.0528  133.6880  156.1805 LP  0  0  0  0  0  0  0  0  0  0  0  0  # atno 17394 bound_to 11000
  140.6783  134.4794  157.5588 LP  0  0  0  0  0  0  0  0  0  0  0  0  # atno 17395 bound_to 11000

$$$$
