AV-unprocessed.smi:276|AV-procd|sdf|2082|dock5
  -GOLD-   2262021353D 1   1.00000     0.00000
 Structure written by MMmdl.
 57 61  0  0  0  0  0  0  0  0  1 V2000
  152.0874  140.3078  158.5577 C   0  0  0  0  0  0  0  0  0  0  0  0
  152.5836  139.5945  157.4387 O   0  0  0  0  0  0  0  0  0  0  0  0
  151.5954  138.7741  156.8363 C   0  0  2  0  0  0  0  0  0  0  0  0
  152.0081  138.1641  155.4912 C   0  0  0  0  0  0  0  0  0  0  0  0
  150.5886  138.4632  154.9694 C   0  0  1  0  0  0  0  0  0  0  0  0
  149.6953  137.3112  155.1548 N   0  0  0  0  0  0  0  0  0  0  0  0
  150.2354  136.0053  154.7861 C   0  0  0  0  0  0  0  0  0  0  0  0
  148.4272  137.4442  154.7044 C   0  0  0  0  0  0  0  0  0  0  0  0
  148.2228  138.3420  153.7086 N   0  0  0  0  0  0  0  0  0  0  0  0
  146.9967  138.5194  153.2089 C   0  0  0  0  0  0  0  0  0  0  0  0
  145.8576  137.9199  153.5604 N   0  0  0  0  0  0  0  0  0  0  0  0
  146.0555  137.0310  154.5755 C   0  0  0  0  0  0  0  0  0  0  0  0
  147.2979  136.7329  155.2036 C   0  0  0  0  0  0  0  0  0  0  0  0
  147.1079  135.7747  156.1922 N   0  0  0  0  0  0  0  0  0  0  0  0
  145.8311  135.5118  156.1422 C   0  0  0  0  0  0  0  0  0  0  0  0
  145.1182  136.2386  155.2157 N   0  0  0  0  0  0  0  0  0  0  0  0
  143.6923  136.1446  154.9517 C   0  0  0  0  0  0  0  0  0  0  0  0
  143.0492  137.4585  154.4471 C   0  0  1  0  0  0  0  0  0  0  0  0
  143.3200  137.5026  153.0605 O   0  0  0  0  0  0  0  0  0  0  0  0
  141.5156  137.5656  154.6150 C   0  0  1  0  0  0  0  0  0  0  0  0
  140.7901  138.4956  153.6386 C   0  0  0  0  0  0  0  0  0  0  0  0
  139.3783  137.9372  153.5781 C   0  0  0  0  0  0  0  0  0  0  0  0
  139.5195  136.5232  154.1411 C   0  0  0  0  0  0  0  0  0  0  0  0
  140.9188  136.3216  154.2762 O   0  0  0  0  0  0  0  0  0  0  0  0
  150.5131  139.5561  156.0705 C   0  0  0  0  0  0  0  0  0  0  0  0
  150.7544  141.0278  155.6883 C   0  0  0  0  0  0  0  0  0  0  0  0
  149.8695  141.4258  156.8725 C   0  0  0  0  0  0  0  0  0  0  0  0
  149.2327  140.0370  156.7805 C   0  0  0  0  0  0  0  0  0  0  0  0
  152.8827  140.9193  158.9838 H   0  0  0  0  0  0  0  0  0  0  0  0
  151.7304  139.6306  159.3345 H   0  0  0  0  0  0  0  0  0  0  0  0
  151.2709  140.9711  158.2693 H   0  0  0  0  0  0  0  0  0  0  0  0
  151.1584  138.0424  157.5194 H   0  0  0  0  0  0  0  0  0  0  0  0
  152.7701  138.7550  154.9799 H   0  0  0  0  0  0  0  0  0  0  0  0
  152.2979  137.1146  155.5441 H   0  0  0  0  0  0  0  0  0  0  0  0
  150.6009  138.8602  153.9545 H   0  0  0  0  0  0  0  0  0  0  0  0
  149.4680  135.3113  154.4380 H   0  0  0  0  0  0  0  0  0  0  0  0
  150.7199  135.5490  155.6492 H   0  0  0  0  0  0  0  0  0  0  0  0
  150.9779  136.1050  153.9938 H   0  0  0  0  0  0  0  0  0  0  0  0
  146.9170  139.2453  152.4133 H   0  0  0  0  0  0  0  0  0  0  0  0
  145.3696  134.7855  156.7952 H   0  0  0  0  0  0  0  0  0  0  0  0
  143.5585  135.3575  154.2080 H   0  0  0  0  0  0  0  0  0  0  0  0
  143.1890  135.8018  155.8569 H   0  0  0  0  0  0  0  0  0  0  0  0
  143.5347  138.3167  154.9115 H   0  0  0  0  0  0  0  0  0  0  0  0
  143.0476  138.3436  152.7271 H   0  0  0  0  0  0  0  0  0  0  0  0
  141.2528  137.8320  155.6409 H   0  0  0  0  0  0  0  0  0  0  0  0
  140.8048  139.5378  153.9557 H   0  0  0  0  0  0  0  0  0  0  0  0
  141.2445  138.4326  152.6489 H   0  0  0  0  0  0  0  0  0  0  0  0
  138.6917  138.5246  154.1884 H   0  0  0  0  0  0  0  0  0  0  0  0
  139.0015  137.9337  152.5550 H   0  0  0  0  0  0  0  0  0  0  0  0
  139.0479  136.4506  155.1218 H   0  0  0  0  0  0  0  0  0  0  0  0
  139.0773  135.7675  153.4919 H   0  0  0  0  0  0  0  0  0  0  0  0
  151.7877  141.3691  155.7519 H   0  0  0  0  0  0  0  0  0  0  0  0
  150.3079  141.2888  154.7271 H   0  0  0  0  0  0  0  0  0  0  0  0
  150.4360  141.5719  157.7937 H   0  0  0  0  0  0  0  0  0  0  0  0
  149.1896  142.2554  156.6770 H   0  0  0  0  0  0  0  0  0  0  0  0
  148.3470  140.0537  156.1466 H   0  0  0  0  0  0  0  0  0  0  0  0
  149.0321  139.5612  157.7406 H   0  0  0  0  0  0  0  0  0  0  0  0
  1  2  1  0  0  0  0
  1 29  1  0  0  0  0
  1 30  1  0  0  0  0
  1 31  1  0  0  0  0
  2  3  1  0  0  0  0
  3 25  1  0  0  0  0
  3  4  1  0  0  0  0
  3 32  1  0  0  0  0
  4  5  1  0  0  0  0
  4 33  1  0  0  0  0
  4 34  1  0  0  0  0
  5  6  1  0  0  0  0
  5 25  1  0  0  0  0
  5 35  1  0  0  0  0
  6  7  1  0  0  0  0
  6  8  1  0  0  0  0
  7 36  1  0  0  0  0
  7 37  1  0  0  0  0
  7 38  1  0  0  0  0
  8 13  1  0  0  0  0
  8  9  2  0  0  0  0
  9 10  1  0  0  0  0
 10 11  2  0  0  0  0
 10 39  1  0  0  0  0
 11 12  1  0  0  0  0
 12 16  1  0  0  0  0
 12 13  2  0  0  0  0
 13 14  1  0  0  0  0
 14 15  2  0  0  0  0
 15 16  1  0  0  0  0
 15 40  1  0  0  0  0
 16 17  1  0  0  0  0
 17 18  1  0  0  0  0
 17 41  1  0  0  0  0
 17 42  1  0  0  0  0
 18 19  1  0  0  0  0
 18 20  1  0  0  0  0
 18 43  1  0  0  0  0
 19 44  1  0  0  0  0
 20 24  1  0  0  0  0
 20 21  1  0  0  0  0
 20 45  1  0  0  0  0
 21 22  1  0  0  0  0
 21 46  1  0  0  0  0
 21 47  1  0  0  0  0
 22 23  1  0  0  0  0
 22 48  1  0  0  0  0
 22 49  1  0  0  0  0
 23 24  1  0  0  0  0
 23 50  1  0  0  0  0
 23 51  1  0  0  0  0
 25 28  1  0  0  0  0
 25 26  1  0  0  0  0
 26 27  1  0  0  0  0
 26 52  1  0  0  0  0
 26 53  1  0  0  0  0
 27 28  1  0  0  0  0
 27 54  1  0  0  0  0
 27 55  1  0  0  0  0
 28 56  1  0  0  0  0
 28 57  1  0  0  0  0
M  END
> <s_m_source_file>
AV-unprocessed.smi

> <i_m_source_file_index>
276

> <i_lp_mmshare_version>
43012

> <i_f3d_flags>
0

> <s_epik_input>
W0NIMl0xW0NIMl1bQ0gyXUMxMltDQEhdKE9bQ0gzXSlbQ0gyXVtDQEhdMk4oW0NIM10pYyhuW2NIXW4zKWMoYzM0KW5bY0hdbjRbQ0gyXVtDQEhdKFtPSF0pW0NAQEhdNVtDSDJdW0NIMl1bQ0gyXU81

> <s_epik_cmdline>
J2VwaWtfcHl0aG9uJywgJy1waCcsICc3LjAnLCAnLXRuJywgJzgnLCAnLW1hJywgJzIwMCcsICctbWV0YWxfYmluZGluZycsICctaW1hZScsICc8aW5maWxlLm1hZT4nLCAnLW9tYWUnLCAnPG91dGZpbGUubWFlPic=

> <r_lp_tautomer_probability>
1

> <r_epik_Ionization_Penalty>
0.00204117

> <r_epik_Ionization_Penalty_Charging>
0

> <r_epik_Ionization_Penalty_Neutral>
0.00204117

> <r_epik_State_Penalty>
0.00127401

> <r_epik_Charging_Adjusted_Penalty>
0.00127401

> <i_epik_Tot_Q>
0

> <i_epik_Tot_abs_Q>
0

> <r_epik_Metal_State_Penalty>
-0

> <b_epik_Metal_Only>
0

> <s_lp_Force_Field>
OPLS_2005

> <r_lp_Energy>
59.2093

> <b_lp_Chiralities_Consistent>
1

> <s_lp_Variant>
AV-unprocessed.smi:276-13

> <Gold.Version>
5.8.1

> <Gold.Id.Protein>
6NUR|6NUR_protein|mol2

> <Gold.PLP.Fitness>
37.6310

> <Gold.PLP.PLP>
-33.1639

> <Gold.PLP.part.hbond>
-2.6448

> <Gold.PLP.part.metal>
0.0000

> <Gold.PLP.part.buried>
-3.8993

> <Gold.PLP.part.nonpolar>
-27.8952

> <Gold.PLP.part.repulsive>
1.7192

> <Gold.PLP.ligand.clash>
0.0000

> <Gold.PLP.ligand.torsion>
1.9341

> <Gold.PLP.Chemscore.Hbond>
1.9920

> <Gold.PLP.Chemscore.CHOScore>
0.4688

> <Gold.PLP.Chemscore.Metal>
0.0000

> <Gold.Chemscore.Hbonds>
donor molecule, donor type, donor heavy atom, donor atom, acceptor molecule, acceptor atom, score
      L1  H    19    44       P1 10175  0.56
      P1  H  7997  8009       L1     2  1.00

> <Gold.PLP.Chemscore.Internal.Correction>
0.9530

> <Gold.Rescore>
     Score         DG    S(hbond)    S(metal)    S(lipo)     H(rot)  DE(clash)    DE(int)     intcor
     10.95     -14.56       1.94        0.00      81.57       2.72       0.33       3.28       ----

> <Gold.Chemscore.Fitness>
10.9464

> <Gold.Chemscore.DG>
-14.5573

> <Gold.Chemscore.ZeroCoef>
-5.4800

> <Gold.Chemscore.Hbond>
1.9429

> <Gold.Chemscore.Metal>
0.0000

> <Gold.Chemscore.Lipo>
81.5727

> <Gold.Chemscore.Internal_Hbond>
0.0000

> <Gold.Chemscore.DEClash>
0.3337

> <Gold.Chemscore.DEInternal>
3.2772

> <Gold.Chemscore.Rot>
2.7172

> <Gold.Chemscore.Internal.Correction>
   9.000000E+99

> <Gold.Chemscore.Hbonds>
donor molecule, donor type, donor heavy atom, donor atom, acceptor molecule, acceptor atom, score
      L1  H    19    44       P1 10175  0.55
      P1  H  7997  8009       L1     2  0.89

> <Gold.Chemscore.Hbond.Weighted>
-6.4893

> <Gold.Chemscore.Metal.Weighted>
-0.0000

> <Gold.Chemscore.Lipo.Weighted>
-9.5440

> <Gold.Chemscore.Internal_Hbond.Weighted>
0.0000

> <Gold.Chemscore.DEClash.Weighted>
0.3337

> <Gold.Chemscore.DEInternal.Weighted>
3.2772

> <Gold.Chemscore.Rot.Weighted>
6.9560

> <Gold.Chemscore.Internal.Correction.Weighted>
   9.000000E+99

> <Gold.Protein.RotatedTorsions>
[ 6907 6896 6895 6894 ] final   93.02 input  -60.11 | X-H torsion
[ 7974 7965 7964 7962 ] final  -16.70 input  175.53 | X-H torsion
[ 8008 7997 7996 7995 ] final  168.73 input   59.86 | X-H torsion
[ 10167 10162 10161 10158 ] final  159.88 input  -65.29 | X-H torsion
[ 10718 10713 10712 10709 ] final  156.05 input   66.30 | X-H torsion
[ 10763 10752 10751 10750 ] final  -14.51 input  -60.55 | X-H torsion
[ 11005 11000 10999 10996 ] final  161.43 input  -57.11 | X-H torsion

> <Gold.Protein.ActiveResidues>
 VAL166  LYS551  ARG553  GLY616  TRP617  ASP618  TYR619  PRO620  LYS621  CYS622 
 ASP623  PHE694  ASN695  SER759  ASP760  ASP761  ALA762  ILE779  LEU786  VAL792 
 PHE793  MET794  SER795  GLU796  ALA797  LYS798  CYS799  TRP800  GLU811  SER814 

> <Gold.Protein.RotatedAtoms>
  152.5453  134.1412  159.8479 H   0  0  0  0  0  0  0  0  0  0  0  0  # atno 6907 bound_to 6896
  151.1448  133.4940  159.2603 H   0  0  0  0  0  0  0  0  0  0  0  0  # atno 6908 bound_to 6896
  151.1534  135.0249  159.8733 H   0  0  0  0  0  0  0  0  0  0  0  0  # atno 6909 bound_to 6896
  146.1975  140.3674  142.8435 H   0  0  0  0  0  0  0  0  0  0  0  0  # atno 7974 bound_to 7965
  156.1520  140.1582  156.8754 H   0  0  0  0  0  0  0  0  0  0  0  0  # atno 8008 bound_to 7997
  154.5080  140.0808  156.7970 H   0  0  0  0  0  0  0  0  0  0  0  0  # atno 8009 bound_to 7997
  155.3877  140.3408  155.4252 H   0  0  0  0  0  0  0  0  0  0  0  0  # atno 8010 bound_to 7997
  139.4835  144.4688  151.8605 H   0  0  0  0  0  0  0  0  0  0  0  0  # atno 10167 bound_to 10162
  157.2102  131.0696  151.1974 H   0  0  0  0  0  0  0  0  0  0  0  0  # atno 10718 bound_to 10713
  153.5294  135.7015  153.5691 H   0  0  0  0  0  0  0  0  0  0  0  0  # atno 10763 bound_to 10752
  153.3705  135.3946  155.1785 H   0  0  0  0  0  0  0  0  0  0  0  0  # atno 10764 bound_to 10752
  154.8686  135.3811  154.4789 H   0  0  0  0  0  0  0  0  0  0  0  0  # atno 10765 bound_to 10752
  140.2157  134.8234  157.3168 H   0  0  0  0  0  0  0  0  0  0  0  0  # atno 11005 bound_to 11000
  144.8612  140.7142  143.6106 LP  0  0  0  0  0  0  0  0  0  0  0  0  # atno 17320 bound_to 7965
  145.3594  139.1686  143.4392 LP  0  0  0  0  0  0  0  0  0  0  0  0  # atno 17321 bound_to 7965
  140.4155  144.2313  150.5888 LP  0  0  0  0  0  0  0  0  0  0  0  0  # atno 17342 bound_to 10162
  140.4925  143.2343  151.8798 LP  0  0  0  0  0  0  0  0  0  0  0  0  # atno 17343 bound_to 10162
  157.3680  130.7166  149.6545 LP  0  0  0  0  0  0  0  0  0  0  0  0  # atno 17370 bound_to 10713
  155.9691  130.4207  150.4434 LP  0  0  0  0  0  0  0  0  0  0  0  0  # atno 17371 bound_to 10713
  140.1903  134.4380  155.7720 LP  0  0  0  0  0  0  0  0  0  0  0  0  # atno 17394 bound_to 11000
  141.2225  133.7024  156.8015 LP  0  0  0  0  0  0  0  0  0  0  0  0  # atno 17395 bound_to 11000

$$$$
