AV-unprocessed.smi:1123|AV-procd|sdf|4832|dock10
  -GOLD-   22720 3393D 1   1.00000     0.00000
 Structure written by MMmdl.
 38 39  0  0  0  0  0  0  0  0  2 V2000
  153.4184  141.3400  160.8951 C   0  0  0  0  0  0  0  0  0  0  0  0
  153.3117  142.0926  159.5531 C   0  0  1  0  0  0  0  0  0  0  0  0
  152.6027  141.2698  158.4652 C   0  0  0  0  0  0  0  0  0  0  0  0
  152.9945  140.1390  158.1743 O   0  0  0  0  0  0  0  0  0  0  0  0
  151.5516  141.8528  157.8663 N   0  0  0  0  0  0  0  0  0  0  0  0
  150.7314  141.2314  156.8333 C   0  0  0  0  0  0  0  0  0  0  0  0
  149.2384  141.2396  157.2137 C   0  0  0  0  0  0  0  0  0  0  0  0
  148.3963  141.8913  156.1801 N   0  3  0  0  0  0  0  0  0  0  0  0
  148.5460  141.2587  154.8477 C   0  0  0  0  0  0  0  0  0  0  0  0
  147.6928  141.9954  153.8012 C   0  0  0  0  0  0  0  0  0  0  0  0
  146.3327  142.0047  154.2156 O   0  0  0  0  0  0  0  0  0  0  0  0
  146.1585  142.6869  155.4511 C   0  0  0  0  0  0  0  0  0  0  0  0
  146.9620  141.9756  156.5531 C   0  0  0  0  0  0  0  0  0  0  0  0
  152.6691  143.3926  159.7020 N   0  0  0  0  0  0  0  0  0  0  0  0
  152.1688  143.9827  160.7898 C   0  0  0  0  0  0  0  0  0  0  0  0
  151.6935  145.2008  160.5721 N   0  0  0  0  0  0  0  0  0  0  0  0
  151.9581  145.3132  159.2368 C   0  0  0  0  0  0  0  0  0  0  0  0
  152.5511  144.2636  158.6685 N   0  0  0  0  0  0  0  0  0  0  0  0
  153.9469  140.3938  160.7741 H   0  0  0  0  0  0  0  0  0  0  0  0
  152.4389  141.1188  161.3212 H   0  0  0  0  0  0  0  0  0  0  0  0
  153.9698  141.9297  161.6278 H   0  0  0  0  0  0  0  0  0  0  0  0
  154.3301  142.2770  159.2071 H   0  0  0  0  0  0  0  0  0  0  0  0
  151.2917  142.7830  158.1610 H   0  0  0  0  0  0  0  0  0  0  0  0
  150.9063  141.7409  155.8852 H   0  0  0  0  0  0  0  0  0  0  0  0
  151.0750  140.2050  156.7008 H   0  0  0  0  0  0  0  0  0  0  0  0
  148.9163  140.2045  157.3381 H   0  0  0  0  0  0  0  0  0  0  0  0
  149.0779  141.7284  158.1760 H   0  0  0  0  0  0  0  0  0  0  0  0
  149.5931  141.2776  154.5434 H   0  0  0  0  0  0  0  0  0  0  0  0
  148.2463  140.2108  154.9039 H   0  0  0  0  0  0  0  0  0  0  0  0
  148.0487  143.0165  153.6557 H   0  0  0  0  0  0  0  0  0  0  0  0
  147.7644  141.4929  152.8365 H   0  0  0  0  0  0  0  0  0  0  0  0
  146.4683  143.7286  155.3524 H   0  0  0  0  0  0  0  0  0  0  0  0
  145.0982  142.6931  155.7040 H   0  0  0  0  0  0  0  0  0  0  0  0
  146.5652  140.9715  156.7111 H   0  0  0  0  0  0  0  0  0  0  0  0
  146.8412  142.5164  157.4909 H   0  0  0  0  0  0  0  0  0  0  0  0
  152.1556  143.5135  161.7626 H   0  0  0  0  0  0  0  0  0  0  0  0
  151.7125  146.1979  158.6678 H   0  0  0  0  0  0  0  0  0  0  0  0
  148.7352  142.8379  156.0831 H   0  0  0  0  0  0  0  0  0  0  0  0
  1  2  1  0  0  0  0
  1 19  1  0  0  0  0
  1 20  1  0  0  0  0
  1 21  1  0  0  0  0
  2  3  1  0  0  0  0
  2 14  1  0  0  0  0
  2 22  1  0  0  0  0
  3  4  2  0  0  0  0
  3  5  1  0  0  0  0
  5  6  1  0  0  0  0
  5 23  1  0  0  0  0
  6  7  1  0  0  0  0
  6 24  1  0  0  0  0
  6 25  1  0  0  0  0
  7  8  1  0  0  0  0
  7 26  1  0  0  0  0
  7 27  1  0  0  0  0
  8 13  1  0  0  0  0
  8  9  1  0  0  0  0
  8 38  1  0  0  0  0
  9 10  1  0  0  0  0
  9 28  1  0  0  0  0
  9 29  1  0  0  0  0
 10 11  1  0  0  0  0
 10 30  1  0  0  0  0
 10 31  1  0  0  0  0
 11 12  1  0  0  0  0
 12 13  1  0  0  0  0
 12 32  1  0  0  0  0
 12 33  1  0  0  0  0
 13 34  1  0  0  0  0
 13 35  1  0  0  0  0
 14 18  1  0  0  0  0
 14 15  1  0  0  0  0
 15 16  2  0  0  0  0
 15 36  1  0  0  0  0
 16 17  1  0  0  0  0
 17 18  2  0  0  0  0
 17 37  1  0  0  0  0
M  CHG  1   8   1
M  END
> <s_m_source_file>
AV-unprocessed.smi

> <i_m_source_file_index>
1123

> <i_lp_mmshare_version>
43012

> <i_f3d_flags>
0

> <s_epik_input>
bjFbY0hdbltjSF1uMVtDQEhdKFtDSDNdKUMoPU8pW05IXVtDSDJdW0NIMl1OMltDSDJdW0NIMl1PW0NIMl1bQ0gyXTI=

> <s_epik_cmdline>
J2VwaWtfcHl0aG9uJywgJy1waCcsICc3LjAnLCAnLXRuJywgJzgnLCAnLW1hJywgJzIwMCcsICctbWV0YWxfYmluZGluZycsICctaW1hZScsICc8aW5maWxlLm1hZT4nLCAnLW9tYWUnLCAnPG91dGZpbGUubWFlPic=

> <r_lp_tautomer_probability>
1

> <r_epik_Ionization_Penalty>
0.71326

> <r_epik_Ionization_Penalty_Charging>
0.713252

> <r_epik_Ionization_Penalty_Neutral>
7.98515e-06

> <r_epik_State_Penalty>
0.737017

> <r_epik_Charging_Adjusted_Penalty>
1.45027

> <i_epik_Tot_Q>
1

> <i_epik_Tot_abs_Q>
1

> <r_epik_Metal_State_Penalty>
0.73702

> <b_epik_Metal_Only>
0

> <s_lp_Force_Field>
OPLS_2005

> <r_lp_Energy>
21.0283

> <b_lp_Chiralities_Consistent>
1

> <s_lp_Variant>
AV-unprocessed.smi:1123-4

> <Gold.Version>
5.8.1

> <Gold.Id.Protein>
6NUR|6NUR_protein|mol2

> <Gold.PLP.Fitness>
44.7493

> <Gold.PLP.PLP>
-36.5981

> <Gold.PLP.part.hbond>
-2.0000

> <Gold.PLP.part.metal>
0.0000

> <Gold.PLP.part.buried>
-7.2183

> <Gold.PLP.part.nonpolar>
-27.4700

> <Gold.PLP.part.repulsive>
0.4575

> <Gold.PLP.ligand.clash>
0.0000

> <Gold.PLP.ligand.torsion>
0.4507

> <Gold.PLP.Chemscore.Hbond>
2.9760

> <Gold.PLP.Chemscore.CHOScore>
0.0000

> <Gold.PLP.Chemscore.Metal>
0.0000

> <Gold.Chemscore.Hbonds>
donor molecule, donor type, donor heavy atom, donor atom, acceptor molecule, acceptor atom, score
      L1  H     8    38       P1  8028  2.00
      P1  H  7997  8008       L1     4  0.94

> <Gold.PLP.Chemscore.Internal.Correction>
0.1246

> <Gold.Rescore>
     Score         DG    S(hbond)    S(metal)    S(lipo)     H(rot)  DE(clash)    DE(int)     intcor
      8.70     -10.65       1.81        0.00      51.52       2.69       0.11       1.84       ----

> <Gold.Chemscore.Fitness>
8.7005

> <Gold.Chemscore.DG>
-10.6545

> <Gold.Chemscore.ZeroCoef>
-5.4800

> <Gold.Chemscore.Hbond>
1.8074

> <Gold.Chemscore.Metal>
0.0000

> <Gold.Chemscore.Lipo>
51.5234

> <Gold.Chemscore.Internal_Hbond>
0.0000

> <Gold.Chemscore.DEClash>
0.1109

> <Gold.Chemscore.DEInternal>
1.8431

> <Gold.Chemscore.Rot>
2.6916

> <Gold.Chemscore.Internal.Correction>
   9.000000E+99

> <Gold.Chemscore.Hbonds>
donor molecule, donor type, donor heavy atom, donor atom, acceptor molecule, acceptor atom, score
      L1  H     8    38       P1  8028  0.99
      P1  H  7997  8008       L1     4  0.82

> <Gold.Chemscore.Hbond.Weighted>
-6.0368

> <Gold.Chemscore.Metal.Weighted>
-0.0000

> <Gold.Chemscore.Lipo.Weighted>
-6.0282

> <Gold.Chemscore.Internal_Hbond.Weighted>
0.0000

> <Gold.Chemscore.DEClash.Weighted>
0.1109

> <Gold.Chemscore.DEInternal.Weighted>
1.8431

> <Gold.Chemscore.Rot.Weighted>
6.8906

> <Gold.Chemscore.Internal.Correction.Weighted>
   9.000000E+99

> <Gold.Protein.RotatedTorsions>
[ 6907 6896 6895 6894 ] final  152.87 input  -60.11 | X-H torsion
[ 7974 7965 7964 7962 ] final  -44.76 input  175.53 | X-H torsion
[ 8008 7997 7996 7995 ] final  -91.06 input   59.86 | X-H torsion
[ 10167 10162 10161 10158 ] final -134.48 input  -65.29 | X-H torsion
[ 10718 10713 10712 10709 ] final -104.19 input   66.30 | X-H torsion
[ 10763 10752 10751 10750 ] final  132.70 input  -60.55 | X-H torsion
[ 11005 11000 10999 10996 ] final   31.00 input  -57.11 | X-H torsion

> <Gold.Protein.ActiveResidues>
 VAL166  LYS551  ARG553  GLY616  TRP617  ASP618  TYR619  PRO620  LYS621  CYS622 
 ASP623  PHE694  ASN695  SER759  ASP760  ASP761  ALA762  ILE779  LEU786  VAL792 
 PHE793  MET794  SER795  GLU796  ALA797  LYS798  CYS799  TRP800  GLU811  SER814 

> <Gold.Protein.RotatedAtoms>
  152.0806  133.4151  159.4499 H   0  0  0  0  0  0  0  0  0  0  0  0  # atno 6907 bound_to 6896
  150.6862  134.2986  159.4706 H   0  0  0  0  0  0  0  0  0  0  0  0  # atno 6908 bound_to 6896
  152.0827  134.9459  160.0624 H   0  0  0  0  0  0  0  0  0  0  0  0  # atno 6909 bound_to 6896
  145.9888  140.7203  142.9327 H   0  0  0  0  0  0  0  0  0  0  0  0  # atno 7974 bound_to 7965
  154.7061  140.0523  157.0505 H   0  0  0  0  0  0  0  0  0  0  0  0  # atno 8008 bound_to 7997
  155.0618  140.3190  155.4639 H   0  0  0  0  0  0  0  0  0  0  0  0  # atno 8009 bound_to 7997
  156.2775  140.2097  156.5745 H   0  0  0  0  0  0  0  0  0  0  0  0  # atno 8010 bound_to 7997
  139.8876  143.6762  152.2617 H   0  0  0  0  0  0  0  0  0  0  0  0  # atno 10167 bound_to 10162
  156.0294  130.5503  150.7360 H   0  0  0  0  0  0  0  0  0  0  0  0  # atno 10718 bound_to 10713
  153.7950  135.3150  155.3383 H   0  0  0  0  0  0  0  0  0  0  0  0  # atno 10763 bound_to 10752
  154.8111  135.4666  154.0522 H   0  0  0  0  0  0  0  0  0  0  0  0  # atno 10764 bound_to 10752
  153.1852  135.6900  153.8512 H   0  0  0  0  0  0  0  0  0  0  0  0  # atno 10765 bound_to 10752
  140.2885  134.2891  155.7782 H   0  0  0  0  0  0  0  0  0  0  0  0  # atno 11005 bound_to 11000
  144.6883  140.3034  143.7259 LP  0  0  0  0  0  0  0  0  0  0  0  0  # atno 17320 bound_to 7965
  145.7661  139.1841  143.2239 LP  0  0  0  0  0  0  0  0  0  0  0  0  # atno 17321 bound_to 7965
  139.7139  144.7615  151.1066 LP  0  0  0  0  0  0  0  0  0  0  0  0  # atno 17342 bound_to 10162
  140.7733  143.5295  150.9440 LP  0  0  0  0  0  0  0  0  0  0  0  0  # atno 17343 bound_to 10162
  157.4941  131.0913  151.0392 LP  0  0  0  0  0  0  0  0  0  0  0  0  # atno 17370 bound_to 10713
  157.0791  130.5895  149.5417 LP  0  0  0  0  0  0  0  0  0  0  0  0  # atno 17371 bound_to 10713
  141.2150  133.7570  156.9589 LP  0  0  0  0  0  0  0  0  0  0  0  0  # atno 17394 bound_to 11000
  140.1217  134.9413  157.2213 LP  0  0  0  0  0  0  0  0  0  0  0  0  # atno 17395 bound_to 11000

$$$$
