AV-unprocessed.smi:734|AV-procd|sdf|3531|dock9
  -GOLD-   22720 0523D 1   1.00000     0.00000
 Structure written by MMmdl.
 38 39  0  0  0  0  0  0  0  0  3 V2000
  152.7506  142.9727  159.4153 C   0  0  0  0  0  0  0  0  0  0  0  0
  152.4014  141.4775  159.4356 C   0  0  0  0  0  0  0  0  0  0  0  0
  153.4936  140.6119  160.0807 C   0  0  0  0  0  0  0  0  0  0  0  0
  152.0074  140.9717  158.0830 C   0  0  0  0  0  0  0  0  0  0  0  0
  152.6124  139.9419  157.4831 N   0  0  0  0  0  0  0  0  0  0  0  0
  152.0623  139.6609  156.2414 N   0  0  0  0  0  0  0  0  0  0  0  0
  151.0448  140.4722  155.9216 C   0  0  0  0  0  0  0  0  0  0  0  0
  150.3724  140.3620  154.7638 N   0  5  0  0  0  0  0  0  0  0  0  0
  149.0926  139.9275  154.7677 C   0  0  0  0  0  0  0  0  0  0  0  0
  148.5270  139.3263  155.6842 O   0  0  0  0  0  0  0  0  0  0  0  0
  148.4212  140.2123  153.6429 N   0  0  0  0  0  0  0  0  0  0  0  0
  147.0262  139.8787  153.3831 C   0  0  0  0  0  0  0  0  0  0  0  0
  146.8785  139.0592  152.0883 C   0  0  0  0  0  0  0  0  0  0  0  0
  145.6903  138.1768  152.1237 N   0  3  0  0  0  0  0  0  0  0  0  0
  145.5221  137.4409  153.4086 C   0  0  0  0  0  0  0  0  0  0  0  0
  145.0427  136.0858  152.9708 C   0  0  0  0  0  0  0  0  0  0  0  0
  145.0844  135.9587  151.6495 C   0  0  0  0  0  0  0  0  0  0  0  0
  145.5981  137.2087  150.9930 C   0  0  0  0  0  0  0  0  0  0  0  0
  150.7021  141.6881  157.1510 S   0  0  0  0  0  0  0  0  0  0  0  0
  151.9207  143.5638  159.0262 H   0  0  0  0  0  0  0  0  0  0  0  0
  153.6214  143.1679  158.7881 H   0  0  0  0  0  0  0  0  0  0  0  0
  152.9751  143.3377  160.4178 H   0  0  0  0  0  0  0  0  0  0  0  0
  151.5191  141.3780  160.0690 H   0  0  0  0  0  0  0  0  0  0  0  0
  153.1770  139.5709  160.1515 H   0  0  0  0  0  0  0  0  0  0  0  0
  153.7246  140.9569  161.0887 H   0  0  0  0  0  0  0  0  0  0  0  0
  154.4162  140.6405  159.5002 H   0  0  0  0  0  0  0  0  0  0  0  0
  148.9217  140.7006  152.9145 H   0  0  0  0  0  0  0  0  0  0  0  0
  146.6507  139.3060  154.2312 H   0  0  0  0  0  0  0  0  0  0  0  0
  146.4356  140.7952  153.3419 H   0  0  0  0  0  0  0  0  0  0  0  0
  146.8174  139.7103  151.2149 H   0  0  0  0  0  0  0  0  0  0  0  0
  147.7692  138.4428  151.9575 H   0  0  0  0  0  0  0  0  0  0  0  0
  146.4631  137.3363  153.9509 H   0  0  0  0  0  0  0  0  0  0  0  0
  144.7925  137.9371  154.0490 H   0  0  0  0  0  0  0  0  0  0  0  0
  144.7304  135.3225  153.6684 H   0  0  0  0  0  0  0  0  0  0  0  0
  144.8118  135.0749  151.0915 H   0  0  0  0  0  0  0  0  0  0  0  0
  144.9117  137.5685  150.2261 H   0  0  0  0  0  0  0  0  0  0  0  0
  146.5694  137.0085  150.5384 H   0  0  0  0  0  0  0  0  0  0  0  0
  144.8790  138.7733  152.0461 H   0  0  0  0  0  0  0  0  0  0  0  0
  1  2  1  0  0  0  0
  1 20  1  0  0  0  0
  1 21  1  0  0  0  0
  1 22  1  0  0  0  0
  2  3  1  0  0  0  0
  2  4  1  0  0  0  0
  2 23  1  0  0  0  0
  3 24  1  0  0  0  0
  3 25  1  0  0  0  0
  3 26  1  0  0  0  0
  4 19  1  0  0  0  0
  4  5  2  0  0  0  0
  5  6  1  0  0  0  0
  6  7  2  0  0  0  0
  7  8  1  0  0  0  0
  7 19  1  0  0  0  0
  8  9  1  0  0  0  0
  9 10  2  0  0  0  0
  9 11  1  0  0  0  0
 11 12  1  0  0  0  0
 11 27  1  0  0  0  0
 12 13  1  0  0  0  0
 12 28  1  0  0  0  0
 12 29  1  0  0  0  0
 13 14  1  0  0  0  0
 13 30  1  0  0  0  0
 13 31  1  0  0  0  0
 14 18  1  0  0  0  0
 14 15  1  0  0  0  0
 14 38  1  0  0  0  0
 15 16  1  0  0  0  0
 15 32  1  0  0  0  0
 15 33  1  0  0  0  0
 16 17  2  0  0  0  0
 16 34  1  0  0  0  0
 17 18  1  0  0  0  0
 17 35  1  0  0  0  0
 18 36  1  0  0  0  0
 18 37  1  0  0  0  0
M  CHG  1   8  -1
M  CHG  1  14   1
M  END
> <s_m_source_file>
AV-unprocessed.smi

> <i_m_source_file_index>
734

> <i_lp_mmshare_version>
43012

> <i_f3d_flags>
0

> <s_epik_input>
W0NIM11bQ0hdKFtDSDNdKWMxbm5jKHMxKVtOSF1DKD1PKVtOSF1bQ0gyXVtDSDJdTjJbQ0gyXVtDSF09W0NIXVtDSDJdMg==

> <s_epik_cmdline>
J2VwaWtfcHl0aG9uJywgJy1waCcsICc3LjAnLCAnLXRuJywgJzgnLCAnLW1hJywgJzIwMCcsICctbWV0YWxfYmluZGluZycsICctaW1hZScsICc8aW5maWxlLm1hZT4nLCAnLW9tYWUnLCAnPG91dGZpbGUubWFlPic=

> <r_lp_tautomer_probability>
1

> <r_epik_Ionization_Penalty>
3.04352

> <r_epik_Ionization_Penalty_Charging>
2.92732

> <r_epik_Ionization_Penalty_Neutral>
0.116198

> <r_epik_State_Penalty>
2.92347

> <r_epik_Charging_Adjusted_Penalty>
5.85079

> <i_epik_Tot_Q>
0

> <i_epik_Tot_abs_Q>
2

> <r_epik_Metal_State_Penalty>
0.448048

> <b_epik_Metal_Only>
1

> <s_lp_Force_Field>
OPLS_2005

> <r_lp_Energy>
6.61646

> <b_lp_Chiralities_Consistent>
1

> <s_lp_Variant>
AV-unprocessed.smi:734-2

> <Gold.Version>
5.8.1

> <Gold.Id.Protein>
6NUR|6NUR_protein|mol2

> <Gold.PLP.Fitness>
46.3170

> <Gold.PLP.PLP>
-34.4759

> <Gold.PLP.part.hbond>
-5.0795

> <Gold.PLP.part.metal>
0.0000

> <Gold.PLP.part.buried>
2.3562

> <Gold.PLP.part.nonpolar>
-32.5616

> <Gold.PLP.part.repulsive>
0.2928

> <Gold.PLP.ligand.clash>
0.0000

> <Gold.PLP.ligand.torsion>
1.0192

> <Gold.PLP.Chemscore.Hbond>
4.5680

> <Gold.PLP.Chemscore.CHOScore>
0.0000

> <Gold.PLP.Chemscore.Metal>
0.0000

> <Gold.Chemscore.Hbonds>
donor molecule, donor type, donor heavy atom, donor atom, acceptor molecule, acceptor atom, score
      L1  H    11    27       P1  7957  0.61
      L1  H    14    38       P1 10175  1.66
      P1  H  7989  7998       L1     8  1.00
      P1  H  7997  8008       L1     5  0.90

> <Gold.PLP.Chemscore.Internal.Correction>
0.1756

> <Gold.Rescore>
     Score         DG    S(hbond)    S(metal)    S(lipo)     H(rot)  DE(clash)    DE(int)     intcor
     16.11     -18.68       2.53        0.00      77.51       1.68       1.61       0.97       ----

> <Gold.Chemscore.Fitness>
16.1080

> <Gold.Chemscore.DG>
-18.6837

> <Gold.Chemscore.ZeroCoef>
-5.4800

> <Gold.Chemscore.Hbond>
2.5287

> <Gold.Chemscore.Metal>
0.0000

> <Gold.Chemscore.Lipo>
77.5106

> <Gold.Chemscore.Internal_Hbond>
0.0000

> <Gold.Chemscore.DEClash>
1.6075

> <Gold.Chemscore.DEInternal>
0.9683

> <Gold.Chemscore.Rot>
1.6839

> <Gold.Chemscore.Internal.Correction>
   9.000000E+99

> <Gold.Chemscore.Hbonds>
donor molecule, donor type, donor heavy atom, donor atom, acceptor molecule, acceptor atom, score
      L1  H    11    27       P1  7957  0.60
      L1  H    14    38       P1 10175  0.80
      P1  H  7989  7998       L1     8  0.38
      P1  H  7997  8008       L1     5  0.16

> <Gold.Chemscore.Hbond.Weighted>
-8.4458

> <Gold.Chemscore.Metal.Weighted>
-0.0000

> <Gold.Chemscore.Lipo.Weighted>
-9.0687

> <Gold.Chemscore.Internal_Hbond.Weighted>
0.0000

> <Gold.Chemscore.DEClash.Weighted>
1.6075

> <Gold.Chemscore.DEInternal.Weighted>
0.9683

> <Gold.Chemscore.Rot.Weighted>
4.3108

> <Gold.Chemscore.Internal.Correction.Weighted>
   9.000000E+99

> <Gold.Protein.RotatedTorsions>
[ 6907 6896 6895 6894 ] final   61.26 input  -60.11 | X-H torsion
[ 7974 7965 7964 7962 ] final  -35.79 input  175.53 | X-H torsion
[ 8008 7997 7996 7995 ] final  -79.25 input   59.86 | X-H torsion
[ 10167 10162 10161 10158 ] final  -91.30 input  -65.29 | X-H torsion
[ 10718 10713 10712 10709 ] final  -80.07 input   66.30 | X-H torsion
[ 10763 10752 10751 10750 ] final -126.83 input  -60.55 | X-H torsion
[ 11005 11000 10999 10996 ] final  -71.14 input  -57.11 | X-H torsion

> <Gold.Protein.ActiveResidues>
 VAL166  LYS551  ARG553  GLY616  TRP617  ASP618  TYR619  PRO620  LYS621  CYS622 
 ASP623  PHE694  ASN695  SER759  ASP760  ASP761  ALA762  ILE779  LEU786  VAL792 
 PHE793  MET794  SER795  GLU796  ALA797  LYS798  CYS799  TRP800  GLU811  SER814 

> <Gold.Protein.RotatedAtoms>
  152.4073  134.6185  160.0044 H   0  0  0  0  0  0  0  0  0  0  0  0  # atno 6907 bound_to 6896
  151.6372  133.3322  159.3130 H   0  0  0  0  0  0  0  0  0  0  0  0  # atno 6908 bound_to 6896
  150.7967  134.7073  159.6628 H   0  0  0  0  0  0  0  0  0  0  0  0  # atno 6909 bound_to 6896
  146.0716  140.6201  142.8949 H   0  0  0  0  0  0  0  0  0  0  0  0  # atno 7974 bound_to 7965
  154.5767  140.0681  156.9044 H   0  0  0  0  0  0  0  0  0  0  0  0  # atno 8008 bound_to 7997
  155.2537  140.3353  155.4261 H   0  0  0  0  0  0  0  0  0  0  0  0  # atno 8009 bound_to 7997
  156.2159  140.1778  156.7575 H   0  0  0  0  0  0  0  0  0  0  0  0  # atno 8010 bound_to 7997
  140.3463  143.2915  151.9778 H   0  0  0  0  0  0  0  0  0  0  0  0  # atno 10167 bound_to 10162
  156.0078  130.4564  150.3745 H   0  0  0  0  0  0  0  0  0  0  0  0  # atno 10718 bound_to 10713
  154.8748  135.3982  154.3494 H   0  0  0  0  0  0  0  0  0  0  0  0  # atno 10763 bound_to 10752
  153.4282  135.7024  153.6253 H   0  0  0  0  0  0  0  0  0  0  0  0  # atno 10764 bound_to 10752
  153.4886  135.3753  155.2450 H   0  0  0  0  0  0  0  0  0  0  0  0  # atno 10765 bound_to 10752
  141.1587  133.6809  156.6861 H   0  0  0  0  0  0  0  0  0  0  0  0  # atno 11005 bound_to 11000
  144.7235  140.4451  143.6990 LP  0  0  0  0  0  0  0  0  0  0  0  0  # atno 17320 bound_to 7965
  145.6380  139.1546  143.2931 LP  0  0  0  0  0  0  0  0  0  0  0  0  # atno 17321 bound_to 7965
  139.4833  144.6114  151.7426 LP  0  0  0  0  0  0  0  0  0  0  0  0  # atno 17342 bound_to 10162
  140.5262  144.0802  150.6038 LP  0  0  0  0  0  0  0  0  0  0  0  0  # atno 17343 bound_to 10162
  157.1828  131.0396  151.2740 LP  0  0  0  0  0  0  0  0  0  0  0  0  # atno 17370 bound_to 10713
  157.4131  130.7396  149.6854 LP  0  0  0  0  0  0  0  0  0  0  0  0  # atno 17371 bound_to 10713
  140.3066  134.8120  157.4142 LP  0  0  0  0  0  0  0  0  0  0  0  0  # atno 17394 bound_to 11000
  140.1215  134.5213  155.8180 LP  0  0  0  0  0  0  0  0  0  0  0  0  # atno 17395 bound_to 11000

$$$$
