AV-unprocessed.smi:1341|AV-procd|sdf|5505|dock4
  -GOLD-   22720 5 83D 1   1.00000     0.00000
 Structure written by MMmdl.
 34 35  0  0  0  0  0  0  0  0  1 V2000
  147.0108  140.1380  153.2778 C   0  0  0  0  0  0  0  0  0  0  0  0
  147.2759  140.7780  154.4264 C   0  0  0  0  0  0  0  0  0  0  0  0
  148.2620  141.9214  154.5641 C   0  0  0  0  0  0  0  0  0  0  0  0
  149.3202  141.6047  155.5149 N   0  0  0  0  0  0  0  0  0  0  0  0
  150.3176  140.7297  155.3033 C   0  0  0  0  0  0  0  0  0  0  0  0
  150.4530  140.0916  154.2591 O   0  0  0  0  0  0  0  0  0  0  0  0
  151.3006  140.6046  156.4332 C   0  0  0  0  0  0  0  0  0  0  0  0
  151.3716  141.6397  157.3041 N   0  0  0  0  0  0  0  0  0  0  0  0
  152.2103  141.5486  158.3438 C   0  0  0  0  0  0  0  0  0  0  0  0
  152.2689  142.6354  159.2259 N   0  0  0  0  0  0  0  0  0  0  0  0
  153.0404  142.5853  160.4707 C   0  0  0  0  0  0  0  0  0  0  0  0
  152.3827  143.4527  161.5570 C   0  0  0  0  0  0  0  0  0  0  0  0
  152.2134  144.7806  161.0767 O   0  0  0  0  0  0  0  0  0  0  0  0
  151.3576  144.8201  159.9415 C   0  0  0  0  0  0  0  0  0  0  0  0
  151.9762  144.0045  158.7935 C   0  0  0  0  0  0  0  0  0  0  0  0
  152.9970  140.4963  158.5995 N   0  0  0  0  0  0  0  0  0  0  0  0
  152.9424  139.4498  157.7498 C   0  0  0  0  0  0  0  0  0  0  0  0
  152.0943  139.4452  156.6258 C   0  0  0  0  0  0  0  0  0  0  0  0
  152.0844  138.0831  155.5589 Cl  0  0  0  0  0  0  0  0  0  0  0  0
  147.5055  140.4086  152.3565 H   0  0  0  0  0  0  0  0  0  0  0  0
  146.2924  139.3321  153.2454 H   0  0  0  0  0  0  0  0  0  0  0  0
  146.7566  140.4801  155.3259 H   0  0  0  0  0  0  0  0  0  0  0  0
  148.7152  142.1428  153.5972 H   0  0  0  0  0  0  0  0  0  0  0  0
  147.7285  142.8203  154.8764 H   0  0  0  0  0  0  0  0  0  0  0  0
  149.2967  142.0831  156.4040 H   0  0  0  0  0  0  0  0  0  0  0  0
  153.1358  141.5709  160.8567 H   0  0  0  0  0  0  0  0  0  0  0  0
  154.0507  142.9421  160.2682 H   0  0  0  0  0  0  0  0  0  0  0  0
  151.4201  143.0357  161.8575 H   0  0  0  0  0  0  0  0  0  0  0  0
  153.0104  143.4764  162.4479 H   0  0  0  0  0  0  0  0  0  0  0  0
  150.3694  144.4374  160.2023 H   0  0  0  0  0  0  0  0  0  0  0  0
  151.2250  145.8576  159.6343 H   0  0  0  0  0  0  0  0  0  0  0  0
  152.9039  144.4713  158.4606 H   0  0  0  0  0  0  0  0  0  0  0  0
  151.2888  144.0309  157.9485 H   0  0  0  0  0  0  0  0  0  0  0  0
  153.5851  138.6100  157.9682 H   0  0  0  0  0  0  0  0  0  0  0  0
  1  2  2  0  0  0  0
  1 20  1  0  0  0  0
  1 21  1  0  0  0  0
  2  3  1  0  0  0  0
  2 22  1  0  0  0  0
  3  4  1  0  0  0  0
  3 23  1  0  0  0  0
  3 24  1  0  0  0  0
  4  5  1  0  0  0  0
  4 25  1  0  0  0  0
  5  6  2  0  0  0  0
  5  7  1  0  0  0  0
  7 18  1  0  0  0  0
  7  8  2  0  0  0  0
  8  9  1  0  0  0  0
  9 10  1  0  0  0  0
  9 16  2  0  0  0  0
 10 15  1  0  0  0  0
 10 11  1  0  0  0  0
 11 12  1  0  0  0  0
 11 26  1  0  0  0  0
 11 27  1  0  0  0  0
 12 13  1  0  0  0  0
 12 28  1  0  0  0  0
 12 29  1  0  0  0  0
 13 14  1  0  0  0  0
 14 15  1  0  0  0  0
 14 30  1  0  0  0  0
 14 31  1  0  0  0  0
 15 32  1  0  0  0  0
 15 33  1  0  0  0  0
 16 17  1  0  0  0  0
 17 18  2  0  0  0  0
 17 34  1  0  0  0  0
 18 19  1  0  0  0  0
M  END
> <s_m_source_file>
AV-unprocessed.smi

> <i_m_source_file_index>
1341

> <i_lp_mmshare_version>
43012

> <i_f3d_flags>
0

> <s_epik_input>
W0NIMl09W0NIXVtDSDJdW05IXUMoPU8pYzFuYyhuW2NIXWMxQ2wpTjJbQ0gyXVtDSDJdT1tDSDJdW0NIMl0y

> <s_epik_cmdline>
J2VwaWtfcHl0aG9uJywgJy1waCcsICc3LjAnLCAnLXRuJywgJzgnLCAnLW1hJywgJzIwMCcsICctbWV0YWxfYmluZGluZycsICctaW1hZScsICc8aW5maWxlLm1hZT4nLCAnLW9tYWUnLCAnPG91dGZpbGUubWFlPic=

> <r_lp_tautomer_probability>
1

> <r_epik_Ionization_Penalty>
2.38615e-05

> <r_epik_Ionization_Penalty_Charging>
0

> <r_epik_Ionization_Penalty_Neutral>
2.38615e-05

> <r_epik_State_Penalty>
-0

> <r_epik_Charging_Adjusted_Penalty>
0

> <i_epik_Tot_Q>
0

> <i_epik_Tot_abs_Q>
0

> <r_epik_Metal_State_Penalty>
0.0225026

> <b_epik_Metal_Only>
0

> <s_lp_Force_Field>
OPLS_2005

> <r_lp_Energy>
14.7295

> <b_lp_Chiralities_Consistent>
1

> <s_lp_Variant>
AV-unprocessed.smi:1341-1

> <Gold.Version>
5.8.1

> <Gold.Id.Protein>
6NUR|6NUR_protein|mol2

> <Gold.PLP.Fitness>
40.7251

> <Gold.PLP.PLP>
-38.5764

> <Gold.PLP.part.hbond>
-1.4696

> <Gold.PLP.part.metal>
0.0000

> <Gold.PLP.part.buried>
-1.6299

> <Gold.PLP.part.nonpolar>
-35.1508

> <Gold.PLP.part.repulsive>
0.4845

> <Gold.PLP.ligand.clash>
0.0000

> <Gold.PLP.ligand.torsion>
0.4818

> <Gold.PLP.Chemscore.Hbond>
1.0000

> <Gold.PLP.Chemscore.CHOScore>
0.0000

> <Gold.PLP.Chemscore.Metal>
0.0000

> <Gold.Chemscore.Hbonds>
donor molecule, donor type, donor heavy atom, donor atom, acceptor molecule, acceptor atom, score
      P1  H  7989  7998       L1     6  1.00

> <Gold.PLP.Chemscore.Internal.Correction>
0.1123

> <Gold.Rescore>
     Score         DG    S(hbond)    S(metal)    S(lipo)     H(rot)  DE(clash)    DE(int)     intcor
     13.63     -15.49       0.85        0.00      86.89       1.16       0.14       1.72       ----

> <Gold.Chemscore.Fitness>
13.6304

> <Gold.Chemscore.DG>
-15.4923

> <Gold.Chemscore.ZeroCoef>
-5.4800

> <Gold.Chemscore.Hbond>
0.8460

> <Gold.Chemscore.Metal>
0.0000

> <Gold.Chemscore.Lipo>
86.8943

> <Gold.Chemscore.Internal_Hbond>
0.0000

> <Gold.Chemscore.DEClash>
0.1390

> <Gold.Chemscore.DEInternal>
1.7228

> <Gold.Chemscore.Rot>
1.1641

> <Gold.Chemscore.Internal.Correction>
   9.000000E+99

> <Gold.Chemscore.Hbonds>
donor molecule, donor type, donor heavy atom, donor atom, acceptor molecule, acceptor atom, score
      P1  H  7989  7998       L1     6  0.44

> <Gold.Chemscore.Hbond.Weighted>
-2.8258

> <Gold.Chemscore.Metal.Weighted>
-0.0000

> <Gold.Chemscore.Lipo.Weighted>
-10.1666

> <Gold.Chemscore.Internal_Hbond.Weighted>
0.0000

> <Gold.Chemscore.DEClash.Weighted>
0.1390

> <Gold.Chemscore.DEInternal.Weighted>
1.7228

> <Gold.Chemscore.Rot.Weighted>
2.9802

> <Gold.Chemscore.Internal.Correction.Weighted>
   9.000000E+99

> <Gold.Protein.RotatedTorsions>
[ 6907 6896 6895 6894 ] final  175.73 input  -60.11 | X-H torsion
[ 7974 7965 7964 7962 ] final  114.23 input  175.53 | X-H torsion
[ 8008 7997 7996 7995 ] final  138.04 input   59.86 | X-H torsion
[ 10167 10162 10161 10158 ] final    9.83 input  -65.29 | X-H torsion
[ 10718 10713 10712 10709 ] final   19.87 input   66.30 | X-H torsion
[ 10763 10752 10751 10750 ] final  -29.96 input  -60.55 | X-H torsion
[ 11005 11000 10999 10996 ] final  118.29 input  -57.11 | X-H torsion

> <Gold.Protein.ActiveResidues>
 VAL166  LYS551  ARG553  GLY616  TRP617  ASP618  TYR619  PRO620  LYS621  CYS622 
 ASP623  PHE694  ASN695  SER759  ASP760  ASP761  ALA762  ILE779  LEU786  VAL792 
 PHE793  MET794  SER795  GLU796  ALA797  LYS798  CYS799  TRP800  GLU811  SER814 

> <Gold.Protein.RotatedAtoms>
  151.7316  133.3318  159.3341 H   0  0  0  0  0  0  0  0  0  0  0  0  # atno 6907 bound_to 6896
  150.7610  134.6358  159.6220 H   0  0  0  0  0  0  0  0  0  0  0  0  # atno 6908 bound_to 6896
  152.3588  134.6904  160.0265 H   0  0  0  0  0  0  0  0  0  0  0  0  # atno 6909 bound_to 6896
  145.2070  139.2924  143.4288 H   0  0  0  0  0  0  0  0  0  0  0  0  # atno 7974 bound_to 7965
  156.2999  140.2404  156.4008 H   0  0  0  0  0  0  0  0  0  0  0  0  # atno 8008 bound_to 7997
  154.8529  140.0423  157.1636 H   0  0  0  0  0  0  0  0  0  0  0  0  # atno 8009 bound_to 7997
  154.8979  140.2972  155.5338 H   0  0  0  0  0  0  0  0  0  0  0  0  # atno 8010 bound_to 7997
  140.6231  143.8161  150.7199 H   0  0  0  0  0  0  0  0  0  0  0  0  # atno 10167 bound_to 10162
  157.1166  130.6531  149.5912 H   0  0  0  0  0  0  0  0  0  0  0  0  # atno 10718 bound_to 10713
  153.7732  135.6911  153.4902 H   0  0  0  0  0  0  0  0  0  0  0  0  # atno 10763 bound_to 10752
  153.1860  135.4488  155.0088 H   0  0  0  0  0  0  0  0  0  0  0  0  # atno 10764 bound_to 10752
  154.8110  135.3377  154.7240 H   0  0  0  0  0  0  0  0  0  0  0  0  # atno 10765 bound_to 10752
  139.9104  134.9619  156.7481 H   0  0  0  0  0  0  0  0  0  0  0  0  # atno 11005 bound_to 11000
  146.3406  140.2333  142.8594 LP  0  0  0  0  0  0  0  0  0  0  0  0  # atno 17320 bound_to 7965
  144.9893  140.8532  143.5349 LP  0  0  0  0  0  0  0  0  0  0  0  0  # atno 17321 bound_to 7965
  140.1755  143.4158  152.1970 LP  0  0  0  0  0  0  0  0  0  0  0  0  # atno 17342 bound_to 10162
  139.5456  144.7295  151.4595 LP  0  0  0  0  0  0  0  0  0  0  0  0  # atno 17343 bound_to 10162
  155.9838  130.4859  150.6951 LP  0  0  0  0  0  0  0  0  0  0  0  0  # atno 17370 bound_to 10713
  157.4513  131.0873  151.0843 LP  0  0  0  0  0  0  0  0  0  0  0  0  # atno 17371 bound_to 10713
  140.6796  133.9487  155.7902 LP  0  0  0  0  0  0  0  0  0  0  0  0  # atno 17394 bound_to 11000
  141.0520  134.0471  157.3771 LP  0  0  0  0  0  0  0  0  0  0  0  0  # atno 17395 bound_to 11000

$$$$
