AV-unprocessed.smi:2183|AV-procd|sdf|8867|dock5
  -GOLD-   2272012 63D 1   1.00000     0.00000
 Structure written by MMmdl.
 41 43  0  0  0  0  0  0  0  0  2 V2000
  147.2119  138.0351  151.7340 O   0  0  0  0  0  0  0  0  0  0  0  0
  145.9182  137.6564  152.1484 C   0  0  0  0  0  0  0  0  0  0  0  0
  145.5990  136.2435  151.7866 C   0  0  0  0  0  0  0  0  0  0  0  0
  146.4888  135.3140  151.3381 N   0  3  0  0  0  0  0  0  0  0  0  0
  145.8297  134.1091  151.0912 C   0  0  0  0  0  0  0  0  0  0  0  0
  146.3093  132.8874  150.6293 C   0  0  0  0  0  0  0  0  0  0  0  0
  145.3653  131.8491  150.4889 C   0  0  0  0  0  0  0  0  0  0  0  0
  144.0052  132.0464  150.8036 C   0  0  0  0  0  0  0  0  0  0  0  0
  143.5305  133.2900  151.2700 C   0  0  0  0  0  0  0  0  0  0  0  0
  144.4697  134.3127  151.4046 C   0  0  0  0  0  0  0  0  0  0  0  0
  144.3740  135.6445  151.8273 N   0  0  0  0  0  0  0  0  0  0  0  0
  143.0684  136.1955  152.2245 C   0  0  0  0  0  0  0  0  0  0  0  0
  142.7137  135.8905  153.6935 C   0  0  2  0  0  0  0  0  0  0  0  0
  142.9234  134.5200  153.9669 O   0  0  0  0  0  0  0  0  0  0  0  0
  141.2577  136.2407  154.0322 C   0  0  0  0  0  0  0  0  0  0  0  0
  141.0972  137.6510  153.9543 O   0  0  0  0  0  0  0  0  0  0  0  0
  139.8206  138.1678  154.0075 C   0  0  0  0  0  0  0  0  0  0  0  0
  139.6930  139.5686  153.9043 C   0  0  0  0  0  0  0  0  0  0  0  0
  138.4265  140.1827  153.9490 C   0  0  0  0  0  0  0  0  0  0  0  0
  137.2689  139.3969  154.0990 C   0  0  0  0  0  0  0  0  0  0  0  0
  135.7157  140.1460  154.1552 Cl  0  0  0  0  0  0  0  0  0  0  0  0
  137.3812  137.9978  154.2033 C   0  0  0  0  0  0  0  0  0  0  0  0
  138.6484  137.3841  154.1582 C   0  0  0  0  0  0  0  0  0  0  0  0
  147.8444  137.5960  152.2822 H   0  0  0  0  0  0  0  0  0  0  0  0
  145.8390  137.7817  153.2286 H   0  0  0  0  0  0  0  0  0  0  0  0
  145.1880  138.3261  151.6941 H   0  0  0  0  0  0  0  0  0  0  0  0
  147.3509  132.7337  150.3878 H   0  0  0  0  0  0  0  0  0  0  0  0
  145.6910  130.8821  150.1333 H   0  0  0  0  0  0  0  0  0  0  0  0
  143.3109  131.2271  150.6853 H   0  0  0  0  0  0  0  0  0  0  0  0
  142.4869  133.4270  151.5115 H   0  0  0  0  0  0  0  0  0  0  0  0
  143.1168  137.2738  152.0683 H   0  0  0  0  0  0  0  0  0  0  0  0
  142.2977  135.8303  151.5456 H   0  0  0  0  0  0  0  0  0  0  0  0
  143.3722  136.4560  154.3535 H   0  0  0  0  0  0  0  0  0  0  0  0
  143.2671  134.4399  154.8434 H   0  0  0  0  0  0  0  0  0  0  0  0
  140.5790  135.7330  153.3446 H   0  0  0  0  0  0  0  0  0  0  0  0
  141.0274  135.9063  155.0454 H   0  0  0  0  0  0  0  0  0  0  0  0
  140.5762  140.1794  153.7894 H   0  0  0  0  0  0  0  0  0  0  0  0
  138.3455  141.2567  153.8683 H   0  0  0  0  0  0  0  0  0  0  0  0
  136.4951  137.3913  154.3185 H   0  0  0  0  0  0  0  0  0  0  0  0
  138.6933  136.3092  154.2429 H   0  0  0  0  0  0  0  0  0  0  0  0
  147.4754  135.4960  151.2060 H   0  0  0  0  0  0  0  0  0  0  0  0
  1  2  1  0  0  0  0
  1 24  1  0  0  0  0
  2  3  1  0  0  0  0
  2 25  1  0  0  0  0
  2 26  1  0  0  0  0
  3 11  1  0  0  0  0
  3  4  2  0  0  0  0
  4  5  1  0  0  0  0
  4 41  1  0  0  0  0
  5 10  2  0  0  0  0
  5  6  1  0  0  0  0
  6  7  2  0  0  0  0
  6 27  1  0  0  0  0
  7  8  1  0  0  0  0
  7 28  1  0  0  0  0
  8  9  2  0  0  0  0
  8 29  1  0  0  0  0
  9 10  1  0  0  0  0
  9 30  1  0  0  0  0
 10 11  1  0  0  0  0
 11 12  1  0  0  0  0
 12 13  1  0  0  0  0
 12 31  1  0  0  0  0
 12 32  1  0  0  0  0
 13 14  1  0  0  0  0
 13 15  1  0  0  0  0
 13 33  1  0  0  0  0
 14 34  1  0  0  0  0
 15 16  1  0  0  0  0
 15 35  1  0  0  0  0
 15 36  1  0  0  0  0
 16 17  1  0  0  0  0
 17 23  1  0  0  0  0
 17 18  2  0  0  0  0
 18 19  1  0  0  0  0
 18 37  1  0  0  0  0
 19 20  2  0  0  0  0
 19 38  1  0  0  0  0
 20 21  1  0  0  0  0
 20 22  1  0  0  0  0
 22 23  2  0  0  0  0
 22 39  1  0  0  0  0
 23 40  1  0  0  0  0
M  CHG  1   4   1
M  END
> <s_m_source_file>
AV-unprocessed.smi

> <i_m_source_file_index>
2183

> <i_lp_mmshare_version>
43012

> <i_f3d_flags>
0

> <s_epik_input>
W2NIXTFbY0hdW2NIXVtjSF1jKGMxMiluKGMobjIpW0NIMl1bT0hdKVtDSDJdW0NASF0oW09IXSlbQ0gyXU9jM1tjSF1bY0hdYyhDbClbY0hdW2NIXTM=

> <s_epik_cmdline>
J2VwaWtfcHl0aG9uJywgJy1waCcsICc3LjAnLCAnLXRuJywgJzgnLCAnLW1hJywgJzIwMCcsICctbWV0YWxfYmluZGluZycsICctaW1hZScsICc8aW5maWxlLm1hZT4nLCAnLW9tYWUnLCAnPG91dGZpbGUubWFlPic=

> <r_lp_tautomer_probability>
1

> <r_epik_Ionization_Penalty>
1.40052

> <r_epik_Ionization_Penalty_Charging>
1.39966

> <r_epik_Ionization_Penalty_Neutral>
0.000858184

> <r_epik_State_Penalty>
1.4817

> <r_epik_Charging_Adjusted_Penalty>
2.88136

> <i_epik_Tot_Q>
1

> <i_epik_Tot_abs_Q>
1

> <r_epik_Metal_State_Penalty>
5.5238

> <b_epik_Metal_Only>
0

> <s_lp_Force_Field>
OPLS_2005

> <r_lp_Energy>
17.0634

> <b_lp_Chiralities_Consistent>
1

> <s_lp_Variant>
AV-unprocessed.smi:2183-3

> <Gold.Version>
5.8.1

> <Gold.Id.Protein>
6NUR|6NUR_protein|mol2

> <Gold.PLP.Fitness>
54.1834

> <Gold.PLP.PLP>
-44.7141

> <Gold.PLP.part.hbond>
-4.5352

> <Gold.PLP.part.metal>
0.0000

> <Gold.PLP.part.buried>
-6.4735

> <Gold.PLP.part.nonpolar>
-34.7710

> <Gold.PLP.part.repulsive>
0.2204

> <Gold.PLP.ligand.clash>
0.0029

> <Gold.PLP.ligand.torsion>
0.5921

> <Gold.PLP.Chemscore.Hbond>
3.5193

> <Gold.PLP.Chemscore.CHOScore>
0.0000

> <Gold.PLP.Chemscore.Metal>
0.0000

> <Gold.Chemscore.Hbonds>
donor molecule, donor type, donor heavy atom, donor atom, acceptor molecule, acceptor atom, score
      L1  H     1    24       P1  7948  0.56
      L1  H     4    41       P1  7948  1.95
      P1  H  7954  7966       L1     1  0.85

> <Gold.PLP.Chemscore.Internal.Correction>
0.0987

> <Gold.Rescore>
     Score         DG    S(hbond)    S(metal)    S(lipo)     H(rot)  DE(clash)    DE(int)     intcor
     14.42     -15.53       1.38        0.00     114.86       3.13       0.33       0.77       ----

> <Gold.Chemscore.Fitness>
14.4209

> <Gold.Chemscore.DG>
-15.5273

> <Gold.Chemscore.ZeroCoef>
-5.4800

> <Gold.Chemscore.Hbond>
1.3842

> <Gold.Chemscore.Metal>
0.0000

> <Gold.Chemscore.Lipo>
114.8566

> <Gold.Chemscore.Internal_Hbond>
0.0000

> <Gold.Chemscore.DEClash>
0.3336

> <Gold.Chemscore.DEInternal>
0.7728

> <Gold.Chemscore.Rot>
3.1305

> <Gold.Chemscore.Internal.Correction>
   9.000000E+99

> <Gold.Chemscore.Hbonds>
donor molecule, donor type, donor heavy atom, donor atom, acceptor molecule, acceptor atom, score
      L1  H     1    24       P1  7948  0.56
      L1  H     4    41       P1  7948  0.69
      P1  H  7954  7966       L1     1  0.18

> <Gold.Chemscore.Hbond.Weighted>
-4.6232

> <Gold.Chemscore.Metal.Weighted>
-0.0000

> <Gold.Chemscore.Lipo.Weighted>
-13.4382

> <Gold.Chemscore.Internal_Hbond.Weighted>
0.0000

> <Gold.Chemscore.DEClash.Weighted>
0.3336

> <Gold.Chemscore.DEInternal.Weighted>
0.7728

> <Gold.Chemscore.Rot.Weighted>
8.0141

> <Gold.Chemscore.Internal.Correction.Weighted>
   9.000000E+99

> <Gold.Protein.RotatedTorsions>
[ 6907 6896 6895 6894 ] final  108.85 input  -60.11 | X-H torsion
[ 7974 7965 7964 7962 ] final   70.83 input  175.53 | X-H torsion
[ 8008 7997 7996 7995 ] final   65.13 input   59.86 | X-H torsion
[ 10167 10162 10161 10158 ] final -150.82 input  -65.29 | X-H torsion
[ 10718 10713 10712 10709 ] final   62.87 input   66.30 | X-H torsion
[ 10763 10752 10751 10750 ] final   82.84 input  -60.55 | X-H torsion
[ 11005 11000 10999 10996 ] final  155.75 input  -57.11 | X-H torsion

> <Gold.Protein.ActiveResidues>
 VAL166  LYS551  ARG553  GLY616  TRP617  ASP618  TYR619  PRO620  LYS621  CYS622 
 ASP623  PHE694  ASN695  SER759  ASP760  ASP761  ALA762  ILE779  LEU786  VAL792 
 PHE793  MET794  SER795  GLU796  ALA797  LYS798  CYS799  TRP800  GLU811  SER814 

> <Gold.Protein.RotatedAtoms>
  152.5094  133.9028  159.7449 H   0  0  0  0  0  0  0  0  0  0  0  0  # atno 6907 bound_to 6896
  150.9440  133.6615  159.2792 H   0  0  0  0  0  0  0  0  0  0  0  0  # atno 6908 bound_to 6896
  151.3917  135.0962  159.9581 H   0  0  0  0  0  0  0  0  0  0  0  0  # atno 6909 bound_to 6896
  145.7733  139.2853  143.1308 H   0  0  0  0  0  0  0  0  0  0  0  0  # atno 7974 bound_to 7965
  155.6570  140.3497  155.4768 H   0  0  0  0  0  0  0  0  0  0  0  0  # atno 8008 bound_to 7997
  155.9800  140.1172  157.0758 H   0  0  0  0  0  0  0  0  0  0  0  0  # atno 8009 bound_to 7997
  154.4189  140.1140  156.5409 H   0  0  0  0  0  0  0  0  0  0  0  0  # atno 8010 bound_to 7997
  139.7321  143.8792  152.2538 H   0  0  0  0  0  0  0  0  0  0  0  0  # atno 10167 bound_to 10162
  157.5931  130.9074  149.9643 H   0  0  0  0  0  0  0  0  0  0  0  0  # atno 10718 bound_to 10713
  153.1238  135.4713  154.9239 H   0  0  0  0  0  0  0  0  0  0  0  0  # atno 10763 bound_to 10752
  154.7601  135.3129  154.8398 H   0  0  0  0  0  0  0  0  0  0  0  0  # atno 10764 bound_to 10752
  153.8956  135.6880  153.4812 H   0  0  0  0  0  0  0  0  0  0  0  0  # atno 10765 bound_to 10752
  140.1610  134.8609  157.2574 H   0  0  0  0  0  0  0  0  0  0  0  0  # atno 11005 bound_to 11000
  146.0148  140.8402  142.9953 LP  0  0  0  0  0  0  0  0  0  0  0  0  # atno 17320 bound_to 7965
  144.6809  140.2542  143.7327 LP  0  0  0  0  0  0  0  0  0  0  0  0  # atno 17321 bound_to 7965
  139.8718  144.7064  150.8978 LP  0  0  0  0  0  0  0  0  0  0  0  0  # atno 17342 bound_to 10162
  140.7773  143.3732  151.1611 LP  0  0  0  0  0  0  0  0  0  0  0  0  # atno 17343 bound_to 10162
  156.0989  130.3657  150.0254 LP  0  0  0  0  0  0  0  0  0  0  0  0  # atno 17370 bound_to 10713
  156.8373  130.9413  151.3634 LP  0  0  0  0  0  0  0  0  0  0  0  0  # atno 17371 bound_to 10713
  140.2489  134.3706  155.7450 LP  0  0  0  0  0  0  0  0  0  0  0  0  # atno 17394 bound_to 11000
  141.2209  133.7306  156.8905 LP  0  0  0  0  0  0  0  0  0  0  0  0  # atno 17395 bound_to 11000

$$$$
