AV-unprocessed.smi:1054|AV-procd|sdf|4623|dock2
  -GOLD-   22720 3123D 1   1.00000     0.00000
 Structure written by MMmdl.
 35 36  0  0  0  0  0  0  0  0  1 V2000
  151.8575  140.0259  158.1726 O   0  0  0  0  0  0  0  0  0  0  0  0
  151.2845  140.9302  157.5647 C   0  0  0  0  0  0  0  0  0  0  0  0
  151.1304  142.1880  158.0144 N   0  0  0  0  0  0  0  0  0  0  0  0
  151.5717  142.7426  159.2453 C   0  0  0  0  0  0  0  0  0  0  0  0
  151.4875  144.1508  159.3303 C   0  0  0  0  0  0  0  0  0  0  0  0
  151.9007  144.8001  160.5098 C   0  0  0  0  0  0  0  0  0  0  0  0
  152.3885  144.0233  161.5756 C   0  0  0  0  0  0  0  0  0  0  0  0
  152.4388  142.6271  161.4097 C   0  0  0  0  0  0  0  0  0  0  0  0
  152.0437  142.0027  160.2799 N   0  0  0  0  0  0  0  0  0  0  0  0
  150.7241  140.7834  156.3518 N   0  0  0  0  0  0  0  0  0  0  0  0
  150.6457  139.5729  155.5196 C   0  0  0  0  0  0  0  0  0  0  0  0
  149.6254  139.7788  154.3643 C   0  0  0  0  0  0  0  0  0  0  0  0
  149.9329  140.9159  153.5818 O   0  0  0  0  0  0  0  0  0  0  0  0
  152.0745  139.3036  154.9854 C   0  0  0  0  0  0  0  0  0  0  0  0
  152.2277  137.9048  154.3638 C   0  0  0  0  0  0  0  0  0  0  0  0
  151.8680  136.9115  155.3138 O   0  0  0  0  0  0  0  0  0  0  0  0
  150.5081  137.0075  155.7143 C   0  0  0  0  0  0  0  0  0  0  0  0
  150.2489  138.3601  156.4023 C   0  0  0  0  0  0  0  0  0  0  0  0
  150.6360  142.8228  157.4058 H   0  0  0  0  0  0  0  0  0  0  0  0
  151.1103  144.7324  158.5016 H   0  0  0  0  0  0  0  0  0  0  0  0
  151.8445  145.8753  160.5938 H   0  0  0  0  0  0  0  0  0  0  0  0
  152.7153  144.4848  162.4958 H   0  0  0  0  0  0  0  0  0  0  0  0
  152.8061  141.9945  162.2043 H   0  0  0  0  0  0  0  0  0  0  0  0
  150.2804  141.6007  155.9597 H   0  0  0  0  0  0  0  0  0  0  0  0
  149.6063  138.9166  153.6989 H   0  0  0  0  0  0  0  0  0  0  0  0
  148.6096  139.8847  154.7445 H   0  0  0  0  0  0  0  0  0  0  0  0
  149.6765  140.7431  152.6890 H   0  0  0  0  0  0  0  0  0  0  0  0
  152.3745  140.0649  154.2646 H   0  0  0  0  0  0  0  0  0  0  0  0
  152.7872  139.3806  155.8084 H   0  0  0  0  0  0  0  0  0  0  0  0
  151.6257  137.8017  153.4603 H   0  0  0  0  0  0  0  0  0  0  0  0
  153.2643  137.7426  154.0686 H   0  0  0  0  0  0  0  0  0  0  0  0
  149.8522  136.8669  154.8546 H   0  0  0  0  0  0  0  0  0  0  0  0
  150.2914  136.1936  156.4062 H   0  0  0  0  0  0  0  0  0  0  0  0
  150.8247  138.3817  157.3289 H   0  0  0  0  0  0  0  0  0  0  0  0
  149.2007  138.4167  156.6961 H   0  0  0  0  0  0  0  0  0  0  0  0
  1  2  2  0  0  0  0
  2  3  1  0  0  0  0
  2 10  1  0  0  0  0
  3  4  1  0  0  0  0
  3 19  1  0  0  0  0
  4  9  1  0  0  0  0
  4  5  2  0  0  0  0
  5  6  1  0  0  0  0
  5 20  1  0  0  0  0
  6  7  2  0  0  0  0
  6 21  1  0  0  0  0
  7  8  1  0  0  0  0
  7 22  1  0  0  0  0
  8  9  2  0  0  0  0
  8 23  1  0  0  0  0
 10 11  1  0  0  0  0
 10 24  1  0  0  0  0
 11 18  1  0  0  0  0
 11 12  1  0  0  0  0
 11 14  1  0  0  0  0
 12 13  1  0  0  0  0
 12 25  1  0  0  0  0
 12 26  1  0  0  0  0
 13 27  1  0  0  0  0
 14 15  1  0  0  0  0
 14 28  1  0  0  0  0
 14 29  1  0  0  0  0
 15 16  1  0  0  0  0
 15 30  1  0  0  0  0
 15 31  1  0  0  0  0
 16 17  1  0  0  0  0
 17 18  1  0  0  0  0
 17 32  1  0  0  0  0
 17 33  1  0  0  0  0
 18 34  1  0  0  0  0
 18 35  1  0  0  0  0
M  END
> <s_m_source_file>
AV-unprocessed.smi

> <i_m_source_file_index>
1054

> <i_lp_mmshare_version>
43012

> <i_f3d_flags>
0

> <s_epik_input>
W0NIMl0xW0NIMl1PW0NIMl1bQ0gyXUMxKFtDSDJdW09IXSlbTkhdQyg9TylbTkhdYzJbY0hdW2NIXVtjSF1bY0hdbjI=

> <s_epik_cmdline>
J2VwaWtfcHl0aG9uJywgJy1waCcsICc3LjAnLCAnLXRuJywgJzgnLCAnLW1hJywgJzIwMCcsICctbWV0YWxfYmluZGluZycsICctaW1hZScsICc8aW5maWxlLm1hZT4nLCAnLW9tYWUnLCAnPG91dGZpbGUubWFlPic=

> <r_lp_tautomer_probability>
1

> <r_epik_Ionization_Penalty>
4.33411e-05

> <r_epik_Ionization_Penalty_Charging>
0

> <r_epik_Ionization_Penalty_Neutral>
4.33411e-05

> <r_epik_State_Penalty>
-0

> <r_epik_Charging_Adjusted_Penalty>
0

> <i_epik_Tot_Q>
0

> <i_epik_Tot_abs_Q>
0

> <r_epik_Metal_State_Penalty>
-0

> <b_epik_Metal_Only>
0

> <s_lp_Force_Field>
OPLS_2005

> <r_lp_Energy>
17.545

> <b_lp_Chiralities_Consistent>
1

> <s_lp_Variant>
AV-unprocessed.smi:1054-1

> <Gold.Version>
5.8.1

> <Gold.Id.Protein>
6NUR|6NUR_protein|mol2

> <Gold.PLP.Fitness>
42.8930

> <Gold.PLP.PLP>
-36.2925

> <Gold.PLP.part.hbond>
-3.8828

> <Gold.PLP.part.metal>
0.0000

> <Gold.PLP.part.buried>
-4.0161

> <Gold.PLP.part.nonpolar>
-27.6727

> <Gold.PLP.part.repulsive>
0.2122

> <Gold.PLP.ligand.clash>
0.0000

> <Gold.PLP.ligand.torsion>
0.2823

> <Gold.PLP.Chemscore.Hbond>
2.3840

> <Gold.PLP.Chemscore.CHOScore>
0.0000

> <Gold.PLP.Chemscore.Metal>
0.0000

> <Gold.Chemscore.Hbonds>
donor molecule, donor type, donor heavy atom, donor atom, acceptor molecule, acceptor atom, score
      L1  H    13    27       P1  7957  1.00
      P1  H  7989  7998       L1    13  0.34
      P1  H 10752 10763       L1    16  0.99

> <Gold.PLP.Chemscore.Internal.Correction>
0.0131

> <Gold.Rescore>
     Score         DG    S(hbond)    S(metal)    S(lipo)     H(rot)  DE(clash)    DE(int)     intcor
     13.01     -16.46       1.73        0.00      85.54       1.88       0.68       2.77       ----

> <Gold.Chemscore.Fitness>
13.0145

> <Gold.Chemscore.DG>
-16.4568

> <Gold.Chemscore.ZeroCoef>
-5.4800

> <Gold.Chemscore.Hbond>
1.7286

> <Gold.Chemscore.Metal>
0.0000

> <Gold.Chemscore.Lipo>
85.5394

> <Gold.Chemscore.Internal_Hbond>
0.0000

> <Gold.Chemscore.DEClash>
0.6757

> <Gold.Chemscore.DEInternal>
2.7666

> <Gold.Chemscore.Rot>
1.8769

> <Gold.Chemscore.Internal.Correction>
   9.000000E+99

> <Gold.Chemscore.Hbonds>
donor molecule, donor type, donor heavy atom, donor atom, acceptor molecule, acceptor atom, score
      L1  H    13    27       P1  7957  1.00
      P1  H  7989  7998       L1    13  0.05
      P1  H 10752 10763       L1    16  0.28

> <Gold.Chemscore.Hbond.Weighted>
-5.7735

> <Gold.Chemscore.Metal.Weighted>
-0.0000

> <Gold.Chemscore.Lipo.Weighted>
-10.0081

> <Gold.Chemscore.Internal_Hbond.Weighted>
0.0000

> <Gold.Chemscore.DEClash.Weighted>
0.6757

> <Gold.Chemscore.DEInternal.Weighted>
2.7666

> <Gold.Chemscore.Rot.Weighted>
4.8048

> <Gold.Chemscore.Internal.Correction.Weighted>
   9.000000E+99

> <Gold.Protein.RotatedTorsions>
[ 6907 6896 6895 6894 ] final  -26.88 input  -60.11 | X-H torsion
[ 7974 7965 7964 7962 ] final  -39.13 input  175.53 | X-H torsion
[ 8008 7997 7996 7995 ] final   18.34 input   59.86 | X-H torsion
[ 10167 10162 10161 10158 ] final  -58.68 input  -65.29 | X-H torsion
[ 10718 10713 10712 10709 ] final  -69.81 input   66.30 | X-H torsion
[ 10763 10752 10751 10750 ] final   78.34 input  -60.55 | X-H torsion
[ 11005 11000 10999 10996 ] final   -9.35 input  -57.11 | X-H torsion

> <Gold.Protein.ActiveResidues>
 VAL166  LYS551  ARG553  GLY616  TRP617  ASP618  TYR619  PRO620  LYS621  CYS622 
 ASP623  PHE694  ASN695  SER759  ASP760  ASP761  ALA762  ILE779  LEU786  VAL792 
 PHE793  MET794  SER795  GLU796  ALA797  LYS798  CYS799  TRP800  GLU811  SER814 

> <Gold.Protein.RotatedAtoms>
  151.1547  135.0244  159.8683 H   0  0  0  0  0  0  0  0  0  0  0  0  # atno 6907 bound_to 6896
  152.5452  134.1348  159.8464 H   0  0  0  0  0  0  0  0  0  0  0  0  # atno 6908 bound_to 6896
  151.1437  133.4908  159.2629 H   0  0  0  0  0  0  0  0  0  0  0  0  # atno 6909 bound_to 6896
  146.0424  140.6591  142.9081 H   0  0  0  0  0  0  0  0  0  0  0  0  # atno 7974 bound_to 7965
  154.9046  140.3005  155.5299 H   0  0  0  0  0  0  0  0  0  0  0  0  # atno 8008 bound_to 7997
  156.3017  140.2400  156.4013 H   0  0  0  0  0  0  0  0  0  0  0  0  # atno 8009 bound_to 7997
  154.8486  140.0410  157.1578 H   0  0  0  0  0  0  0  0  0  0  0  0  # atno 8010 bound_to 7997
  140.6182  143.2410  151.5544 H   0  0  0  0  0  0  0  0  0  0  0  0  # atno 10167 bound_to 10162
  156.0437  130.4319  150.2203 H   0  0  0  0  0  0  0  0  0  0  0  0  # atno 10718 bound_to 10713
  153.0867  135.4881  154.8610 H   0  0  0  0  0  0  0  0  0  0  0  0  # atno 10763 bound_to 10752
  154.7219  135.3041  154.9036 H   0  0  0  0  0  0  0  0  0  0  0  0  # atno 10764 bound_to 10752
  153.9698  135.6802  153.4800 H   0  0  0  0  0  0  0  0  0  0  0  0  # atno 10765 bound_to 10752
  140.7332  133.8732  155.8909 H   0  0  0  0  0  0  0  0  0  0  0  0  # atno 11005 bound_to 11000
  144.7081  140.3932  143.7102 LP  0  0  0  0  0  0  0  0  0  0  0  0  # atno 17320 bound_to 7965
  145.6862  139.1629  143.2672 LP  0  0  0  0  0  0  0  0  0  0  0  0  # atno 17321 bound_to 7965
  139.5416  144.2631  152.1363 LP  0  0  0  0  0  0  0  0  0  0  0  0  # atno 17342 bound_to 10162
  140.1845  144.4812  150.6511 LP  0  0  0  0  0  0  0  0  0  0  0  0  # atno 17343 bound_to 10162
  157.0295  131.0003  151.3316 LP  0  0  0  0  0  0  0  0  0  0  0  0  # atno 17370 bound_to 10713
  157.5287  130.8045  149.7892 LP  0  0  0  0  0  0  0  0  0  0  0  0  # atno 17371 bound_to 10713
  140.9903  134.1288  157.4414 LP  0  0  0  0  0  0  0  0  0  0  0  0  # atno 17394 bound_to 11000
  139.8822  135.0038  156.6210 LP  0  0  0  0  0  0  0  0  0  0  0  0  # atno 17395 bound_to 11000

$$$$
