AV-unprocessed.smi:3287|AV-procd|sdf|12600|dock8
  -GOLD-   2272018523D 1   1.00000     0.00000
 Structure written by MMmdl.
 43 44  0  0  0  0  0  0  0  0  2 V2000
  152.1897  143.3018  161.2180 C   0  0  0  0  0  0  0  0  0  0  0  0
  152.9488  143.2795  159.8758 C   0  0  2  0  0  0  0  0  0  0  0  0
  152.5065  144.4333  158.9525 C   0  0  0  0  0  0  0  0  0  0  0  0
  151.1074  144.2052  158.3544 C   0  0  0  0  0  0  0  0  0  0  0  0
  151.0262  142.8588  157.6063 C   0  0  2  0  0  0  0  0  0  0  0  0
  149.6648  142.6062  157.0858 N   0  3  0  0  0  0  0  0  0  0  0  0
  149.4628  141.2799  156.4634 C   0  0  0  0  0  0  0  0  0  0  0  0
  150.2853  141.1336  155.1717 C   0  0  2  0  0  0  0  0  0  0  0  0
  149.4507  141.4180  154.0651 O   0  0  0  0  0  0  0  0  0  0  0  0
  150.9037  139.7480  155.0709 C   0  0  0  0  0  0  0  0  0  0  0  0
  152.2331  139.5255  155.4871 C   0  0  0  0  0  0  0  0  0  0  0  0
  152.7629  138.2234  155.3839 C   0  0  0  0  0  0  0  0  0  0  0  0
  152.0610  137.1729  154.9082 N   0  0  0  0  0  0  0  0  0  0  0  0
  150.7884  137.3900  154.5133 C   0  0  0  0  0  0  0  0  0  0  0  0
  150.1644  138.6520  154.5750 C   0  0  0  0  0  0  0  0  0  0  0  0
  151.4546  141.7017  158.5277 C   0  0  0  0  0  0  0  0  0  0  0  0
  152.8609  141.9306  159.1174 C   0  0  2  0  0  0  0  0  0  0  0  0
  153.3323  140.7294  159.9537 C   0  0  0  0  0  0  0  0  0  0  0  0
  151.1292  143.0830  161.0967 H   0  0  0  0  0  0  0  0  0  0  0  0
  152.2692  144.2806  161.6918 H   0  0  0  0  0  0  0  0  0  0  0  0
  152.5992  142.5771  161.9213 H   0  0  0  0  0  0  0  0  0  0  0  0
  153.9990  143.4511  160.1164 H   0  0  0  0  0  0  0  0  0  0  0  0
  152.5313  145.3799  159.4934 H   0  0  0  0  0  0  0  0  0  0  0  0
  153.2258  144.5351  158.1387 H   0  0  0  0  0  0  0  0  0  0  0  0
  150.3576  144.2378  159.1458 H   0  0  0  0  0  0  0  0  0  0  0  0
  150.8757  145.0305  157.6814 H   0  0  0  0  0  0  0  0  0  0  0  0
  151.7148  142.8819  156.7600 H   0  0  0  0  0  0  0  0  0  0  0  0
  149.0240  142.6641  157.8649 H   0  0  0  0  0  0  0  0  0  0  0  0
  149.7611  140.5060  157.1708 H   0  0  0  0  0  0  0  0  0  0  0  0
  148.4024  141.1304  156.2537 H   0  0  0  0  0  0  0  0  0  0  0  0
  151.0892  141.8714  155.1711 H   0  0  0  0  0  0  0  0  0  0  0  0
  148.5528  141.4271  154.3614 H   0  0  0  0  0  0  0  0  0  0  0  0
  152.8385  140.3299  155.8783 H   0  0  0  0  0  0  0  0  0  0  0  0
  153.7773  138.0204  155.6936 H   0  0  0  0  0  0  0  0  0  0  0  0
  150.2500  136.5325  154.1377 H   0  0  0  0  0  0  0  0  0  0  0  0
  149.1413  138.7699  154.2492 H   0  0  0  0  0  0  0  0  0  0  0  0
  150.7289  141.5760  159.3321 H   0  0  0  0  0  0  0  0  0  0  0  0
  151.4453  140.7677  157.9640 H   0  0  0  0  0  0  0  0  0  0  0  0
  153.5501  142.0003  158.2740 H   0  0  0  0  0  0  0  0  0  0  0  0
  152.6531  140.5192  160.7799 H   0  0  0  0  0  0  0  0  0  0  0  0
  154.3246  140.9050  160.3701 H   0  0  0  0  0  0  0  0  0  0  0  0
  153.3891  139.8284  159.3422 H   0  0  0  0  0  0  0  0  0  0  0  0
  149.4259  143.3287  156.4221 H   0  0  0  0  0  0  0  0  0  0  0  0
  1  2  1  0  0  0  0
  1 19  1  0  0  0  0
  1 20  1  0  0  0  0
  1 21  1  0  0  0  0
  2 17  1  0  0  0  0
  2  3  1  0  0  0  0
  2 22  1  0  0  0  0
  3  4  1  0  0  0  0
  3 23  1  0  0  0  0
  3 24  1  0  0  0  0
  4  5  1  0  0  0  0
  4 25  1  0  0  0  0
  4 26  1  0  0  0  0
  5  6  1  0  0  0  0
  5 16  1  0  0  0  0
  5 27  1  0  0  0  0
  6  7  1  0  0  0  0
  6 28  1  0  0  0  0
  6 43  1  0  0  0  0
  7  8  1  0  0  0  0
  7 29  1  0  0  0  0
  7 30  1  0  0  0  0
  8  9  1  0  0  0  0
  8 10  1  0  0  0  0
  8 31  1  0  0  0  0
  9 32  1  0  0  0  0
 10 15  1  0  0  0  0
 10 11  2  0  0  0  0
 11 12  1  0  0  0  0
 11 33  1  0  0  0  0
 12 13  2  0  0  0  0
 12 34  1  0  0  0  0
 13 14  1  0  0  0  0
 14 15  2  0  0  0  0
 14 35  1  0  0  0  0
 15 36  1  0  0  0  0
 16 17  1  0  0  0  0
 16 37  1  0  0  0  0
 16 38  1  0  0  0  0
 17 18  1  0  0  0  0
 17 39  1  0  0  0  0
 18 40  1  0  0  0  0
 18 41  1  0  0  0  0
 18 42  1  0  0  0  0
M  CHG  1   6   1
M  END
> <s_m_source_file>
AV-unprocessed.smi

> <i_m_source_file_index>
3287

> <i_lp_mmshare_version>
43012

> <i_f3d_flags>
0

> <s_epik_input>
W0NIM11bQ0BASF0xW0NIMl1bQ0gyXVtDQEhdKFtDSDJdW0NASF0xW0NIM10pW05IXVtDSDJdW0NASF0oW09IXSljMltjSF1bY0hdbltjSF1bY0hdMg==

> <s_epik_cmdline>
J2VwaWtfcHl0aG9uJywgJy1waCcsICc3LjAnLCAnLXRuJywgJzgnLCAnLW1hJywgJzIwMCcsICctbWV0YWxfYmluZGluZycsICctaW1hZScsICc8aW5maWxlLm1hZT4nLCAnLW9tYWUnLCAnPG91dGZpbGUubWFlPic=

> <r_lp_tautomer_probability>
1

> <r_epik_Ionization_Penalty>
0.00537262

> <r_epik_Ionization_Penalty_Charging>
0.00321624

> <r_epik_Ionization_Penalty_Neutral>
0.00215638

> <r_epik_State_Penalty>
-0

> <r_epik_Charging_Adjusted_Penalty>
0.00321624

> <i_epik_Tot_Q>
1

> <i_epik_Tot_abs_Q>
1

> <r_epik_Metal_State_Penalty>
-0

> <b_epik_Metal_Only>
0

> <s_lp_Force_Field>
OPLS_2005

> <r_lp_Energy>
17.0862

> <b_lp_Chiralities_Consistent>
1

> <s_lp_Variant>
AV-unprocessed.smi:3287-11

> <Gold.Version>
5.8.1

> <Gold.Id.Protein>
6NUR|6NUR_protein|mol2

> <Gold.PLP.Fitness>
57.7320

> <Gold.PLP.PLP>
-46.3108

> <Gold.PLP.part.hbond>
-4.1315

> <Gold.PLP.part.metal>
0.0000

> <Gold.PLP.part.buried>
-1.7382

> <Gold.PLP.part.nonpolar>
-40.7636

> <Gold.PLP.part.repulsive>
0.1152

> <Gold.PLP.ligand.clash>
0.0000

> <Gold.PLP.ligand.torsion>
1.2171

> <Gold.PLP.Chemscore.Hbond>
3.5943

> <Gold.PLP.Chemscore.CHOScore>
1.0174

> <Gold.PLP.Chemscore.Metal>
0.0000

> <Gold.Chemscore.Hbonds>
donor molecule, donor type, donor heavy atom, donor atom, acceptor molecule, acceptor atom, score
      L1  H     6    43       P1  8028  2.00
      P1  H  8011  8017       L1     9  0.70
      P1  H 10752 10765       L1    13  0.90
      L1  C    14    35       P1  7948  0.73
      L1  C    14    35       P1  7949  0.03

> <Gold.PLP.Chemscore.Internal.Correction>
0.0203

> <Gold.Rescore>
     Score         DG    S(hbond)    S(metal)    S(lipo)     H(rot)  DE(clash)    DE(int)     intcor
     23.16     -24.57       2.55        0.00     132.09       1.90       0.10       1.30       ----

> <Gold.Chemscore.Fitness>
23.1623

> <Gold.Chemscore.DG>
-24.5659

> <Gold.Chemscore.ZeroCoef>
-5.4800

> <Gold.Chemscore.Hbond>
2.5462

> <Gold.Chemscore.Metal>
0.0000

> <Gold.Chemscore.Lipo>
132.0895

> <Gold.Chemscore.Internal_Hbond>
0.0000

> <Gold.Chemscore.DEClash>
0.0993

> <Gold.Chemscore.DEInternal>
1.3043

> <Gold.Chemscore.Rot>
1.9035

> <Gold.Chemscore.Internal.Correction>
   9.000000E+99

> <Gold.Chemscore.Hbonds>
donor molecule, donor type, donor heavy atom, donor atom, acceptor molecule, acceptor atom, score
      L1  H     6    43       P1  8028  1.00
      P1  H  8011  8017       L1     9  0.59
      P1  H 10752 10765       L1    13  0.84

> <Gold.Chemscore.Hbond.Weighted>
-8.5043

> <Gold.Chemscore.Metal.Weighted>
-0.0000

> <Gold.Chemscore.Lipo.Weighted>
-15.4545

> <Gold.Chemscore.Internal_Hbond.Weighted>
0.0000

> <Gold.Chemscore.DEClash.Weighted>
0.0993

> <Gold.Chemscore.DEInternal.Weighted>
1.3043

> <Gold.Chemscore.Rot.Weighted>
4.8729

> <Gold.Chemscore.Internal.Correction.Weighted>
   9.000000E+99

> <Gold.Protein.RotatedTorsions>
[ 6907 6896 6895 6894 ] final  -17.83 input  -60.11 | X-H torsion
[ 7974 7965 7964 7962 ] final  -33.24 input  175.53 | X-H torsion
[ 8008 7997 7996 7995 ] final   33.39 input   59.86 | X-H torsion
[ 10167 10162 10161 10158 ] final -143.02 input  -65.29 | X-H torsion
[ 10718 10713 10712 10709 ] final   96.70 input   66.30 | X-H torsion
[ 10763 10752 10751 10750 ] final  173.08 input  -60.55 | X-H torsion
[ 11005 11000 10999 10996 ] final   32.24 input  -57.11 | X-H torsion

> <Gold.Protein.ActiveResidues>
 VAL166  LYS551  ARG553  GLY616  TRP617  ASP618  TYR619  PRO620  LYS621  CYS622 
 ASP623  PHE694  ASN695  SER759  ASP760  ASP761  ALA762  ILE779  LEU786  VAL792 
 PHE793  MET794  SER795  GLU796  ALA797  LYS798  CYS799  TRP800  GLU811  SER814 

> <Gold.Protein.RotatedAtoms>
  151.2874  135.0732  159.9191 H   0  0  0  0  0  0  0  0  0  0  0  0  # atno 6907 bound_to 6896
  152.5323  133.9968  159.7886 H   0  0  0  0  0  0  0  0  0  0  0  0  # atno 6908 bound_to 6896
  151.0232  133.5807  159.2699 H   0  0  0  0  0  0  0  0  0  0  0  0  # atno 6909 bound_to 6896
  146.0926  140.5891  142.8857 H   0  0  0  0  0  0  0  0  0  0  0  0  # atno 7974 bound_to 7965
  155.1379  140.3263  155.4459 H   0  0  0  0  0  0  0  0  0  0  0  0  # atno 8008 bound_to 7997
  156.2614  140.1999  156.6445 H   0  0  0  0  0  0  0  0  0  0  0  0  # atno 8009 bound_to 7997
  154.6564  140.0552  157.0000 H   0  0  0  0  0  0  0  0  0  0  0  0  # atno 8010 bound_to 7997
  139.8033  143.7803  152.2659 H   0  0  0  0  0  0  0  0  0  0  0  0  # atno 10167 bound_to 10162
  157.6923  131.0586  150.4532 H   0  0  0  0  0  0  0  0  0  0  0  0  # atno 10718 bound_to 10713
  154.4350  135.2760  155.1886 H   0  0  0  0  0  0  0  0  0  0  0  0  # atno 10763 bound_to 10752
  154.3776  135.6094  153.5777 H   0  0  0  0  0  0  0  0  0  0  0  0  # atno 10764 bound_to 10752
  152.9838  135.5872  154.4668 H   0  0  0  0  0  0  0  0  0  0  0  0  # atno 10765 bound_to 10752
  140.2755  134.3033  155.7815 H   0  0  0  0  0  0  0  0  0  0  0  0  # atno 11005 bound_to 11000
  144.7372  140.4841  143.6895 LP  0  0  0  0  0  0  0  0  0  0  0  0  # atno 17320 bound_to 7965
  145.6009  139.1503  143.3130 LP  0  0  0  0  0  0  0  0  0  0  0  0  # atno 17321 bound_to 7965
  139.7930  144.7403  150.9929 LP  0  0  0  0  0  0  0  0  0  0  0  0  # atno 17342 bound_to 10162
  140.7820  143.4423  151.0534 LP  0  0  0  0  0  0  0  0  0  0  0  0  # atno 17343 bound_to 10162
  156.4881  130.4089  149.6422 LP  0  0  0  0  0  0  0  0  0  0  0  0  # atno 17370 bound_to 10713
  156.3443  130.7398  151.2348 LP  0  0  0  0  0  0  0  0  0  0  0  0  # atno 17371 bound_to 10713
  141.2171  133.7493  156.9400 LP  0  0  0  0  0  0  0  0  0  0  0  0  # atno 17394 bound_to 11000
  140.1333  134.9342  157.2366 LP  0  0  0  0  0  0  0  0  0  0  0  0  # atno 17395 bound_to 11000

$$$$
