AV-unprocessed.smi:2667|AV-procd|sdf|10336|dock1
  -GOLD-   2272014353D 1   1.00000     0.00000
 Structure written by MMmdl.
 45 47  0  0  0  0  0  0  0  0  2 V2000
  157.3677  145.8672  169.3019 C   0  0  0  0  0  0  0  0  0  0  0  0
  156.1683  145.0055  168.8768 C   0  0  0  0  0  0  0  0  0  0  0  0
  156.5403  143.8214  167.9709 C   0  0  0  0  0  0  0  0  0  0  0  0
  157.4904  143.0967  168.2707 O   0  0  0  0  0  0  0  0  0  0  0  0
  155.7118  143.6059  166.7492 C   0  0  0  0  0  0  0  0  0  0  0  0
  154.9299  144.6396  166.1823 C   0  0  0  0  0  0  0  0  0  0  0  0
  154.1580  144.4006  165.0294 C   0  0  0  0  0  0  0  0  0  0  0  0
  154.1445  143.1324  164.4173 C   0  0  0  0  0  0  0  0  0  0  0  0
  153.3555  142.9888  163.2976 O   0  0  0  0  0  0  0  0  0  0  0  0
  153.0639  144.1416  162.5195 C   0  0  0  0  0  0  0  0  0  0  0  0
  152.0019  143.8306  161.4467 C   0  0  2  0  0  0  0  0  0  0  0  0
  150.7344  143.7412  162.0637 O   0  0  0  0  0  0  0  0  0  0  0  0
  152.2922  142.6261  160.5168 C   0  0  0  0  0  0  0  0  0  0  0  0
  151.6294  142.6672  159.2032 N   0  0  0  0  0  0  0  0  0  0  0  0
  150.8949  143.6608  158.6310 C   0  0  0  0  0  0  0  0  0  0  0  0
  150.4927  143.2249  157.4057 N   0  3  0  0  0  0  0  0  0  0  0  0
  150.9596  141.9256  157.1976 C   0  0  0  0  0  0  0  0  0  0  0  0
  150.8039  141.0650  156.1151 C   0  0  0  0  0  0  0  0  0  0  0  0
  151.4055  139.7942  156.2249 C   0  0  0  0  0  0  0  0  0  0  0  0
  152.1251  139.4198  157.3781 C   0  0  0  0  0  0  0  0  0  0  0  0
  152.2759  140.3003  158.4696 C   0  0  0  0  0  0  0  0  0  0  0  0
  151.6838  141.5573  158.3517 C   0  0  0  0  0  0  0  0  0  0  0  0
  154.9287  142.0966  164.9802 C   0  0  0  0  0  0  0  0  0  0  0  0
  155.7016  142.3340  166.1332 C   0  0  0  0  0  0  0  0  0  0  0  0
  157.0426  146.6845  169.9458 H   0  0  0  0  0  0  0  0  0  0  0  0
  157.8678  146.3077  168.4385 H   0  0  0  0  0  0  0  0  0  0  0  0
  158.1018  145.2827  169.8578 H   0  0  0  0  0  0  0  0  0  0  0  0
  155.6713  144.6195  169.7669 H   0  0  0  0  0  0  0  0  0  0  0  0
  155.4453  145.6310  168.3525 H   0  0  0  0  0  0  0  0  0  0  0  0
  154.9051  145.6286  166.6146 H   0  0  0  0  0  0  0  0  0  0  0  0
  153.5668  145.2014  164.6096 H   0  0  0  0  0  0  0  0  0  0  0  0
  152.7165  144.9517  163.1628 H   0  0  0  0  0  0  0  0  0  0  0  0
  153.9718  144.4826  162.0195 H   0  0  0  0  0  0  0  0  0  0  0  0
  151.9427  144.7105  160.8052 H   0  0  0  0  0  0  0  0  0  0  0  0
  150.8058  144.0713  162.9460 H   0  0  0  0  0  0  0  0  0  0  0  0
  153.3651  142.5109  160.3589 H   0  0  0  0  0  0  0  0  0  0  0  0
  151.9635  141.7084  161.0063 H   0  0  0  0  0  0  0  0  0  0  0  0
  150.6847  144.6282  159.0646 H   0  0  0  0  0  0  0  0  0  0  0  0
  150.2505  141.3478  155.2317 H   0  0  0  0  0  0  0  0  0  0  0  0
  151.3119  139.0919  155.4089 H   0  0  0  0  0  0  0  0  0  0  0  0
  152.5714  138.4373  157.4265 H   0  0  0  0  0  0  0  0  0  0  0  0
  152.8293  140.0031  159.3475 H   0  0  0  0  0  0  0  0  0  0  0  0
  154.9561  141.1089  164.5462 H   0  0  0  0  0  0  0  0  0  0  0  0
  156.2884  141.5223  166.5387 H   0  0  0  0  0  0  0  0  0  0  0  0
  149.9375  143.7747  156.7627 H   0  0  0  0  0  0  0  0  0  0  0  0
  1  2  1  0  0  0  0
  1 25  1  0  0  0  0
  1 26  1  0  0  0  0
  1 27  1  0  0  0  0
  2  3  1  0  0  0  0
  2 28  1  0  0  0  0
  2 29  1  0  0  0  0
  3  4  2  0  0  0  0
  3  5  1  0  0  0  0
  5 24  1  0  0  0  0
  5  6  2  0  0  0  0
  6  7  1  0  0  0  0
  6 30  1  0  0  0  0
  7  8  2  0  0  0  0
  7 31  1  0  0  0  0
  8  9  1  0  0  0  0
  8 23  1  0  0  0  0
  9 10  1  0  0  0  0
 10 11  1  0  0  0  0
 10 32  1  0  0  0  0
 10 33  1  0  0  0  0
 11 12  1  0  0  0  0
 11 13  1  0  0  0  0
 11 34  1  0  0  0  0
 12 35  1  0  0  0  0
 13 14  1  0  0  0  0
 13 36  1  0  0  0  0
 13 37  1  0  0  0  0
 14 22  1  0  0  0  0
 14 15  1  0  0  0  0
 15 16  2  0  0  0  0
 15 38  1  0  0  0  0
 16 17  1  0  0  0  0
 16 45  1  0  0  0  0
 17 22  2  0  0  0  0
 17 18  1  0  0  0  0
 18 19  2  0  0  0  0
 18 39  1  0  0  0  0
 19 20  1  0  0  0  0
 19 40  1  0  0  0  0
 20 21  2  0  0  0  0
 20 41  1  0  0  0  0
 21 22  1  0  0  0  0
 21 42  1  0  0  0  0
 23 24  2  0  0  0  0
 23 43  1  0  0  0  0
 24 44  1  0  0  0  0
M  CHG  1  16   1
M  END
> <s_m_source_file>
AV-unprocessed.smi

> <i_m_source_file_index>
2667

> <i_lp_mmshare_version>
43012

> <i_f3d_flags>
0

> <s_epik_input>
W0NIM11bQ0gyXUMoPU8pYzFbY0hdW2NIXWMoW2NIXVtjSF0xKU9bQ0gyXVtDQEhdKFtPSF0pW0NIMl1uKFtjSF1uMiljKGMyMylbY0hdW2NIXVtjSF1bY0hdMw==

> <s_epik_cmdline>
J2VwaWtfcHl0aG9uJywgJy1waCcsICc3LjAnLCAnLXRuJywgJzgnLCAnLW1hJywgJzIwMCcsICctbWV0YWxfYmluZGluZycsICctaW1hZScsICc8aW5maWxlLm1hZT4nLCAnLW9tYWUnLCAnPG91dGZpbGUubWFlPic=

> <r_lp_tautomer_probability>
0.9999

> <r_epik_Ionization_Penalty>
1.40272

> <r_epik_Ionization_Penalty_Charging>
1.40272

> <r_epik_Ionization_Penalty_Neutral>
2.3993e-06

> <r_epik_State_Penalty>
1.48501

> <r_epik_Charging_Adjusted_Penalty>
2.88772

> <i_epik_Tot_Q>
1

> <i_epik_Tot_abs_Q>
1

> <r_epik_Metal_State_Penalty>
5.5274

> <b_epik_Metal_Only>
0

> <s_lp_Force_Field>
OPLS_2005

> <r_lp_Energy>
30.2491

> <b_lp_Chiralities_Consistent>
1

> <s_lp_Variant>
AV-unprocessed.smi:2667-3

> <Gold.Version>
5.8.1

> <Gold.Id.Protein>
6NUR|6NUR_protein|mol2

> <Gold.PLP.Fitness>
58.7180

> <Gold.PLP.PLP>
-53.7700

> <Gold.PLP.part.hbond>
-3.7544

> <Gold.PLP.part.metal>
0.0000

> <Gold.PLP.part.buried>
-7.1001

> <Gold.PLP.part.nonpolar>
-41.1850

> <Gold.PLP.part.repulsive>
0.0947

> <Gold.PLP.ligand.clash>
0.0000

> <Gold.PLP.ligand.torsion>
1.0477

> <Gold.PLP.Chemscore.Hbond>
2.2811

> <Gold.PLP.Chemscore.CHOScore>
0.0000

> <Gold.PLP.Chemscore.Metal>
0.0000

> <Gold.Chemscore.Hbonds>
donor molecule, donor type, donor heavy atom, donor atom, acceptor molecule, acceptor atom, score
      L1  H    16    45       P1  8028  2.00
      P1  H  6933  6945       L1    12  0.30

> <Gold.PLP.Chemscore.Internal.Correction>
0.2003

> <Gold.Rescore>
     Score         DG    S(hbond)    S(metal)    S(lipo)     H(rot)  DE(clash)    DE(int)     intcor
     15.47     -19.22       1.31        0.00     136.64       2.59       2.86       0.90       ----

> <Gold.Chemscore.Fitness>
15.4689

> <Gold.Chemscore.DG>
-19.2221

> <Gold.Chemscore.ZeroCoef>
-5.4800

> <Gold.Chemscore.Hbond>
1.3112

> <Gold.Chemscore.Metal>
0.0000

> <Gold.Chemscore.Lipo>
136.6353

> <Gold.Chemscore.Internal_Hbond>
0.0000

> <Gold.Chemscore.DEClash>
2.8578

> <Gold.Chemscore.DEInternal>
0.8955

> <Gold.Chemscore.Rot>
2.5873

> <Gold.Chemscore.Internal.Correction>
   9.000000E+99

> <Gold.Chemscore.Hbonds>
donor molecule, donor type, donor heavy atom, donor atom, acceptor molecule, acceptor atom, score
      L1  H    16    45       P1  8028  1.00
      P1  H  6933  6945       L1    12  0.14

> <Gold.Chemscore.Hbond.Weighted>
-4.3793

> <Gold.Chemscore.Metal.Weighted>
-0.0000

> <Gold.Chemscore.Lipo.Weighted>
-15.9863

> <Gold.Chemscore.Internal_Hbond.Weighted>
0.0000

> <Gold.Chemscore.DEClash.Weighted>
2.8578

> <Gold.Chemscore.DEInternal.Weighted>
0.8955

> <Gold.Chemscore.Rot.Weighted>
6.6235

> <Gold.Chemscore.Internal.Correction.Weighted>
   9.000000E+99

> <Gold.Protein.RotatedTorsions>
[ 6907 6896 6895 6894 ] final   -3.64 input  -60.11 | X-H torsion
[ 7974 7965 7964 7962 ] final -157.43 input  175.53 | X-H torsion
[ 8008 7997 7996 7995 ] final  -36.03 input   59.86 | X-H torsion
[ 10167 10162 10161 10158 ] final -174.63 input  -65.29 | X-H torsion
[ 10718 10713 10712 10709 ] final   96.79 input   66.30 | X-H torsion
[ 10763 10752 10751 10750 ] final  111.73 input  -60.55 | X-H torsion
[ 11005 11000 10999 10996 ] final -167.43 input  -57.11 | X-H torsion

> <Gold.Protein.ActiveResidues>
 VAL166  LYS551  ARG553  GLY616  TRP617  ASP618  TYR619  PRO620  LYS621  CYS622 
 ASP623  PHE694  ASN695  SER759  ASP760  ASP761  ALA762  ILE779  LEU786  VAL792 
 PHE793  MET794  SER795  GLU796  ALA797  LYS798  CYS799  TRP800  GLU811  SER814 

> <Gold.Protein.RotatedAtoms>
  151.5105  135.1065  159.9852 H   0  0  0  0  0  0  0  0  0  0  0  0  # atno 6907 bound_to 6896
  152.4663  133.7927  159.6921 H   0  0  0  0  0  0  0  0  0  0  0  0  # atno 6908 bound_to 6896
  150.8649  133.7525  159.3005 H   0  0  0  0  0  0  0  0  0  0  0  0  # atno 6909 bound_to 6896
  144.7549  140.3971  143.6020 H   0  0  0  0  0  0  0  0  0  0  0  0  # atno 7974 bound_to 7965
  154.4082  140.1641  156.2307 H   0  0  0  0  0  0  0  0  0  0  0  0  # atno 8008 bound_to 7997
  155.9285  140.3416  155.6207 H   0  0  0  0  0  0  0  0  0  0  0  0  # atno 8009 bound_to 7997
  155.7135  140.0759  157.2351 H   0  0  0  0  0  0  0  0  0  0  0  0  # atno 8010 bound_to 7997
  139.5624  144.1838  152.1259 H   0  0  0  0  0  0  0  0  0  0  0  0  # atno 10167 bound_to 10162
  157.6922  131.0589  150.4546 H   0  0  0  0  0  0  0  0  0  0  0  0  # atno 10718 bound_to 10713
  153.4675  135.3708  155.2372 H   0  0  0  0  0  0  0  0  0  0  0  0  # atno 10763 bound_to 10752
  154.8757  135.3923  154.3851 H   0  0  0  0  0  0  0  0  0  0  0  0  # atno 10764 bound_to 10752
  153.4434  135.7084  153.6219 H   0  0  0  0  0  0  0  0  0  0  0  0  # atno 10765 bound_to 10752
  140.5533  134.5406  157.5127 H   0  0  0  0  0  0  0  0  0  0  0  0  # atno 11005 bound_to 11000
  145.6815  139.1619  143.2698 LP  0  0  0  0  0  0  0  0  0  0  0  0  # atno 17320 bound_to 7965
  146.1546  140.6876  142.9306 LP  0  0  0  0  0  0  0  0  0  0  0  0  # atno 17321 bound_to 7965
  140.1354  144.5250  150.6776 LP  0  0  0  0  0  0  0  0  0  0  0  0  # atno 17342 bound_to 10162
  140.6905  143.2373  151.5145 LP  0  0  0  0  0  0  0  0  0  0  0  0  # atno 17343 bound_to 10162
  156.4894  130.4092  149.6415 LP  0  0  0  0  0  0  0  0  0  0  0  0  # atno 17370 bound_to 10713
  156.3431  130.7392  151.2341 LP  0  0  0  0  0  0  0  0  0  0  0  0  # atno 17371 bound_to 10713
  139.9444  134.7728  156.0598 LP  0  0  0  0  0  0  0  0  0  0  0  0  # atno 17394 bound_to 11000
  141.1158  133.6628  156.3091 LP  0  0  0  0  0  0  0  0  0  0  0  0  # atno 17395 bound_to 11000

$$$$
