AV-unprocessed.smi:1413|AV-procd|sdf|5749|dock1
  -GOLD-   22720 5383D 1   1.00000     0.00000
 Structure written by MMmdl.
 53 55  0  0  0  0  0  0  0  0  1 V2000
  153.6501  141.3540  160.5007 C   0  0  0  0  0  0  0  0  0  0  0  0
  153.1266  141.9875  159.2075 C   0  0  1  0  0  0  0  0  0  0  0  0
  152.1651  141.0495  158.4527 C   0  0  0  0  0  0  0  0  0  0  0  0
  151.5897  141.7306  157.2965 N   0  0  0  0  0  0  0  0  0  0  0  0
  150.9159  140.9024  156.3727 C   0  0  0  0  0  0  0  0  0  0  0  0
  151.6352  139.9493  155.6132 C   0  0  0  0  0  0  0  0  0  0  0  0
  150.9452  139.1387  154.6909 C   0  0  0  0  0  0  0  0  0  0  0  0
  149.5489  139.3052  154.5447 C   0  0  0  0  0  0  0  0  0  0  0  0
  148.7415  138.5383  153.6629 N   0  0  0  0  0  0  0  0  0  0  0  0
  147.4053  138.5663  153.5228 C   0  0  0  0  0  0  0  0  0  0  0  0
  146.6412  139.3017  154.1474 O   0  0  0  0  0  0  0  0  0  0  0  0
  146.9984  137.6650  152.6170 N   0  0  0  0  0  0  0  0  0  0  0  0
  145.6119  137.3768  152.2523 C   0  0  2  0  0  0  0  0  0  0  0  0
  144.7943  137.1931  153.5396 C   0  0  0  0  0  0  0  0  0  0  0  0
  145.5351  136.1327  151.3429 C   0  0  2  0  0  0  0  0  0  0  0  0
  144.1214  135.6114  151.0739 C   0  0  0  0  0  0  0  0  0  0  0  0
  144.3898  134.1662  150.7241 C   0  0  0  0  0  0  0  0  0  0  0  0
  145.5121  133.8150  151.6957 C   0  0  0  0  0  0  0  0  0  0  0  0
  146.2123  135.0312  151.9449 O   0  0  0  0  0  0  0  0  0  0  0  0
  148.9171  140.2686  155.3552 C   0  0  0  0  0  0  0  0  0  0  0  0
  149.5752  141.0502  156.2362 N   0  0  0  0  0  0  0  0  0  0  0  0
  150.9849  143.0189  157.6283 C   0  0  0  0  0  0  0  0  0  0  0  0
  151.9836  143.9004  158.4010 C   0  0  1  0  0  0  0  0  0  0  0  0
  151.3479  145.2131  158.8709 C   0  0  0  0  0  0  0  0  0  0  0  0
  152.4420  143.1901  159.5480 O   0  0  0  0  0  0  0  0  0  0  0  0
  154.1944  140.4324  160.2943 H   0  0  0  0  0  0  0  0  0  0  0  0
  152.8320  141.1154  161.1810 H   0  0  0  0  0  0  0  0  0  0  0  0
  154.3285  142.0317  161.0196 H   0  0  0  0  0  0  0  0  0  0  0  0
  153.9787  142.2292  158.5695 H   0  0  0  0  0  0  0  0  0  0  0  0
  152.7029  140.1487  158.1601 H   0  0  0  0  0  0  0  0  0  0  0  0
  151.3541  140.7345  159.1111 H   0  0  0  0  0  0  0  0  0  0  0  0
  152.7043  139.8394  155.7165 H   0  0  0  0  0  0  0  0  0  0  0  0
  151.4950  138.4028  154.1247 H   0  0  0  0  0  0  0  0  0  0  0  0
  149.2275  137.8237  153.1413 H   0  0  0  0  0  0  0  0  0  0  0  0
  147.7058  137.1123  152.1551 H   0  0  0  0  0  0  0  0  0  0  0  0
  145.1868  138.2251  151.7129 H   0  0  0  0  0  0  0  0  0  0  0  0
  143.7425  137.0111  153.3175 H   0  0  0  0  0  0  0  0  0  0  0  0
  144.8448  138.0839  154.1668 H   0  0  0  0  0  0  0  0  0  0  0  0
  145.1602  136.3503  154.1270 H   0  0  0  0  0  0  0  0  0  0  0  0
  146.0235  136.3359  150.3881 H   0  0  0  0  0  0  0  0  0  0  0  0
  143.5109  135.6677  151.9763 H   0  0  0  0  0  0  0  0  0  0  0  0
  143.6092  136.1548  150.2794 H   0  0  0  0  0  0  0  0  0  0  0  0
  143.5139  133.5262  150.8336 H   0  0  0  0  0  0  0  0  0  0  0  0
  144.7440  134.0901  149.6953 H   0  0  0  0  0  0  0  0  0  0  0  0
  145.1013  133.4547  152.6396 H   0  0  0  0  0  0  0  0  0  0  0  0
  146.1770  133.0468  151.3005 H   0  0  0  0  0  0  0  0  0  0  0  0
  147.8501  140.4255  155.2908 H   0  0  0  0  0  0  0  0  0  0  0  0
  150.6780  143.5341  156.7171 H   0  0  0  0  0  0  0  0  0  0  0  0
  150.0885  142.8516  158.2272 H   0  0  0  0  0  0  0  0  0  0  0  0
  152.8360  144.1371  157.7616 H   0  0  0  0  0  0  0  0  0  0  0  0
  150.9889  145.8007  158.0257 H   0  0  0  0  0  0  0  0  0  0  0  0
  152.0690  145.8220  159.4168 H   0  0  0  0  0  0  0  0  0  0  0  0
  150.5013  145.0270  159.5325 H   0  0  0  0  0  0  0  0  0  0  0  0
  1  2  1  0  0  0  0
  1 26  1  0  0  0  0
  1 27  1  0  0  0  0
  1 28  1  0  0  0  0
  2 25  1  0  0  0  0
  2  3  1  0  0  0  0
  2 29  1  0  0  0  0
  3  4  1  0  0  0  0
  3 30  1  0  0  0  0
  3 31  1  0  0  0  0
  4  5  1  0  0  0  0
  4 22  1  0  0  0  0
  5 21  1  0  0  0  0
  5  6  2  0  0  0  0
  6  7  1  0  0  0  0
  6 32  1  0  0  0  0
  7  8  2  0  0  0  0
  7 33  1  0  0  0  0
  8  9  1  0  0  0  0
  8 20  1  0  0  0  0
  9 10  1  0  0  0  0
  9 34  1  0  0  0  0
 10 11  2  0  0  0  0
 10 12  1  0  0  0  0
 12 13  1  0  0  0  0
 12 35  1  0  0  0  0
 13 14  1  0  0  0  0
 13 15  1  0  0  0  0
 13 36  1  0  0  0  0
 14 37  1  0  0  0  0
 14 38  1  0  0  0  0
 14 39  1  0  0  0  0
 15 19  1  0  0  0  0
 15 16  1  0  0  0  0
 15 40  1  0  0  0  0
 16 17  1  0  0  0  0
 16 41  1  0  0  0  0
 16 42  1  0  0  0  0
 17 18  1  0  0  0  0
 17 43  1  0  0  0  0
 17 44  1  0  0  0  0
 18 19  1  0  0  0  0
 18 45  1  0  0  0  0
 18 46  1  0  0  0  0
 20 21  2  0  0  0  0
 20 47  1  0  0  0  0
 22 23  1  0  0  0  0
 22 48  1  0  0  0  0
 22 49  1  0  0  0  0
 23 24  1  0  0  0  0
 23 25  1  0  0  0  0
 23 50  1  0  0  0  0
 24 51  1  0  0  0  0
 24 52  1  0  0  0  0
 24 53  1  0  0  0  0
M  END
> <s_m_source_file>
AV-unprocessed.smi

> <i_m_source_file_index>
1413

> <i_lp_mmshare_version>
43012

> <i_f3d_flags>
0

> <s_epik_input>
W0NIM11bQ0BASF0xW0NIMl1OKFtDSDJdW0NASF0oTzEpW0NIM10pYzJbY0hdW2NIXWMoW2NIXW4yKVtOSF1DKD1PKVtOSF1bQ0BIXShbQ0gzXSlbQ0BASF0zW0NIMl1bQ0gyXVtDSDJdTzM=

> <s_epik_cmdline>
J2VwaWtfcHl0aG9uJywgJy1waCcsICc3LjAnLCAnLXRuJywgJzgnLCAnLW1hJywgJzIwMCcsICctbWV0YWxfYmluZGluZycsICctaW1hZScsICc8aW5maWxlLm1hZT4nLCAnLW9tYWUnLCAnPG91dGZpbGUubWFlPic=

> <r_lp_tautomer_probability>
1

> <r_epik_Ionization_Penalty>
0.00271172

> <r_epik_Ionization_Penalty_Charging>
0

> <r_epik_Ionization_Penalty_Neutral>
0.00271172

> <r_epik_State_Penalty>
0.00186503

> <r_epik_Charging_Adjusted_Penalty>
0.00186503

> <i_epik_Tot_Q>
0

> <i_epik_Tot_abs_Q>
0

> <r_epik_Metal_State_Penalty>
-0

> <b_epik_Metal_Only>
0

> <s_lp_Force_Field>
OPLS_2005

> <r_lp_Energy>
33.7461

> <b_lp_Chiralities_Consistent>
1

> <s_lp_Variant>
AV-unprocessed.smi:1413-2

> <Gold.Version>
5.8.1

> <Gold.Id.Protein>
6NUR|6NUR_protein|mol2

> <Gold.PLP.Fitness>
52.3812

> <Gold.PLP.PLP>
-47.5060

> <Gold.PLP.part.hbond>
-2.9504

> <Gold.PLP.part.metal>
0.0000

> <Gold.PLP.part.buried>
-4.6646

> <Gold.PLP.part.nonpolar>
-41.5450

> <Gold.PLP.part.repulsive>
1.5113

> <Gold.PLP.ligand.clash>
0.0000

> <Gold.PLP.ligand.torsion>
0.5758

> <Gold.PLP.Chemscore.Hbond>
1.8873

> <Gold.PLP.Chemscore.CHOScore>
0.0000

> <Gold.PLP.Chemscore.Metal>
0.0000

> <Gold.Chemscore.Hbonds>
donor molecule, donor type, donor heavy atom, donor atom, acceptor molecule, acceptor atom, score
      L1  H     9    34       P1  7948  0.89
      L1  H    12    35       P1  7948  1.00

> <Gold.PLP.Chemscore.Internal.Correction>
0.3650

> <Gold.Rescore>
     Score         DG    S(hbond)    S(metal)    S(lipo)     H(rot)  DE(clash)    DE(int)     intcor
     18.83     -22.07       1.88        0.00     117.76       1.35       0.03       3.21       ----

> <Gold.Chemscore.Fitness>
18.8347

> <Gold.Chemscore.DG>
-22.0744

> <Gold.Chemscore.ZeroCoef>
-5.4800

> <Gold.Chemscore.Hbond>
1.8757

> <Gold.Chemscore.Metal>
0.0000

> <Gold.Chemscore.Lipo>
117.7611

> <Gold.Chemscore.Internal_Hbond>
0.0000

> <Gold.Chemscore.DEClash>
0.0314

> <Gold.Chemscore.DEInternal>
3.2083

> <Gold.Chemscore.Rot>
1.3471

> <Gold.Chemscore.Internal.Correction>
   9.000000E+99

> <Gold.Chemscore.Hbonds>
donor molecule, donor type, donor heavy atom, donor atom, acceptor molecule, acceptor atom, score
      L1  H     9    34       P1  7948  0.80
      L1  H    12    35       P1  7948  0.94

> <Gold.Chemscore.Hbond.Weighted>
-6.2649

> <Gold.Chemscore.Metal.Weighted>
-0.0000

> <Gold.Chemscore.Lipo.Weighted>
-13.7781

> <Gold.Chemscore.Internal_Hbond.Weighted>
0.0000

> <Gold.Chemscore.DEClash.Weighted>
0.0314

> <Gold.Chemscore.DEInternal.Weighted>
3.2083

> <Gold.Chemscore.Rot.Weighted>
3.4485

> <Gold.Chemscore.Internal.Correction.Weighted>
   9.000000E+99

> <Gold.Protein.RotatedTorsions>
[ 6907 6896 6895 6894 ] final   65.34 input  -60.11 | X-H torsion
[ 7974 7965 7964 7962 ] final  117.36 input  175.53 | X-H torsion
[ 8008 7997 7996 7995 ] final   33.67 input   59.86 | X-H torsion
[ 10167 10162 10161 10158 ] final  112.51 input  -65.29 | X-H torsion
[ 10718 10713 10712 10709 ] final  -91.06 input   66.30 | X-H torsion
[ 10763 10752 10751 10750 ] final -127.17 input  -60.55 | X-H torsion
[ 11005 11000 10999 10996 ] final  -18.67 input  -57.11 | X-H torsion

> <Gold.Protein.ActiveResidues>
 VAL166  LYS551  ARG553  GLY616  TRP617  ASP618  TYR619  PRO620  LYS621  CYS622 
 ASP623  PHE694  ASN695  SER759  ASP760  ASP761  ALA762  ILE779  LEU786  VAL792 
 PHE793  MET794  SER795  GLU796  ALA797  LYS798  CYS799  TRP800  GLU811  SER814 

> <Gold.Protein.RotatedAtoms>
  152.4400  134.5610  159.9893 H   0  0  0  0  0  0  0  0  0  0  0  0  # atno 6907 bound_to 6896
  151.5710  133.3384  159.2997 H   0  0  0  0  0  0  0  0  0  0  0  0  # atno 6908 bound_to 6896
  150.8304  134.7589  159.6913 H   0  0  0  0  0  0  0  0  0  0  0  0  # atno 6909 bound_to 6896
  145.1683  139.3116  143.4481 H   0  0  0  0  0  0  0  0  0  0  0  0  # atno 7974 bound_to 7965
  155.1423  140.3267  155.4449 H   0  0  0  0  0  0  0  0  0  0  0  0  # atno 8008 bound_to 7997
  156.2601  140.1991  156.6488 H   0  0  0  0  0  0  0  0  0  0  0  0  # atno 8009 bound_to 7997
  154.6533  140.0556  156.9967 H   0  0  0  0  0  0  0  0  0  0  0  0  # atno 8010 bound_to 7997
  139.6530  144.7128  151.2011 H   0  0  0  0  0  0  0  0  0  0  0  0  # atno 10167 bound_to 10162
  155.9991  130.4933  150.5417 H   0  0  0  0  0  0  0  0  0  0  0  0  # atno 10718 bound_to 10713
  154.8751  135.3971  154.3550 H   0  0  0  0  0  0  0  0  0  0  0  0  # atno 10763 bound_to 10752
  153.4330  135.7025  153.6223 H   0  0  0  0  0  0  0  0  0  0  0  0  # atno 10764 bound_to 10752
  153.4837  135.3763  155.2425 H   0  0  0  0  0  0  0  0  0  0  0  0  # atno 10765 bound_to 10752
  140.8291  133.8010  155.9740 H   0  0  0  0  0  0  0  0  0  0  0  0  # atno 11005 bound_to 11000
  146.3472  140.1819  142.8589 LP  0  0  0  0  0  0  0  0  0  0  0  0  # atno 17320 bound_to 7965
  145.0259  140.8832  143.5138 LP  0  0  0  0  0  0  0  0  0  0  0  0  # atno 17321 bound_to 7965
  140.7546  143.6119  150.8597 LP  0  0  0  0  0  0  0  0  0  0  0  0  # atno 17342 bound_to 10162
  139.9769  143.5995  152.2956 LP  0  0  0  0  0  0  0  0  0  0  0  0  # atno 17343 bound_to 10162
  157.3353  131.0707  151.1830 LP  0  0  0  0  0  0  0  0  0  0  0  0  # atno 17370 bound_to 10713
  157.2697  130.6698  149.6013 LP  0  0  0  0  0  0  0  0  0  0  0  0  # atno 17371 bound_to 10713
  140.9017  134.2370  157.5038 LP  0  0  0  0  0  0  0  0  0  0  0  0  # atno 17394 bound_to 11000
  139.8705  134.9709  156.4720 LP  0  0  0  0  0  0  0  0  0  0  0  0  # atno 17395 bound_to 11000

$$$$
