AV-unprocessed.smi:2431|AV-procd|sdf|9586|dock8
  -GOLD-   2272013223D 1   1.00000     0.00000
 Structure written by MMmdl.
 36 37  0  0  0  0  0  0  0  0  3 V2000
  146.6759  139.8117  153.2800 O   0  0  0  0  0  0  0  0  0  0  0  0
  147.3539  138.8085  153.0561 C   0  0  0  0  0  0  0  0  0  0  0  0
  146.9172  137.7670  152.3334 N   0  0  0  0  0  0  0  0  0  0  0  0
  145.6006  137.6745  151.7133 C   0  0  0  0  0  0  0  0  0  0  0  0
  145.0769  136.2285  151.7224 C   0  0  0  0  0  0  0  0  0  0  0  0
  143.7067  136.1083  152.3599 C   0  0  0  0  0  0  0  0  0  0  0  0
  142.9725  137.1021  152.8582 C   0  0  0  0  0  0  0  0  0  0  0  0
  141.6675  136.6262  153.4347 C   0  0  0  0  0  0  0  0  0  0  0  0
  141.7128  135.0931  153.2482 C   0  0  0  0  0  0  0  0  0  0  0  0
  143.0335  134.7687  152.5141 C   0  0  0  0  0  0  0  0  0  0  0  0
  148.6171  138.6158  153.4727 N   0  0  0  0  0  0  0  0  0  0  0  0
  149.4411  139.4894  154.2387 C   0  0  0  0  0  0  0  0  0  0  0  0
  149.0957  140.8463  154.4547 C   0  0  0  0  0  0  0  0  0  0  0  0
  149.9562  141.6574  155.2176 C   0  0  0  0  0  0  0  0  0  0  0  0
  151.1015  141.2086  155.7675 N   0  0  0  0  0  0  0  0  0  0  0  0
  151.4227  139.9121  155.5789 C   0  0  0  0  0  0  0  0  0  0  0  0
  150.6336  139.0002  154.8406 C   0  0  0  0  0  0  0  0  0  0  0  0
  151.0812  137.6000  154.7131 N   0  3  0  0  0  0  0  0  0  0  0  0
  150.2176  136.7379  154.5912 O   0  0  0  0  0  0  0  0  0  0  0  0
  152.2851  137.3637  154.7074 O   0  5  0  0  0  0  0  0  0  0  0  0
  147.5412  136.9853  152.1953 H   0  0  0  0  0  0  0  0  0  0  0  0
  144.9193  138.3197  152.2686 H   0  0  0  0  0  0  0  0  0  0  0  0
  145.6412  138.0678  150.6963 H   0  0  0  0  0  0  0  0  0  0  0  0
  145.0160  135.8380  150.7061 H   0  0  0  0  0  0  0  0  0  0  0  0
  145.7754  135.5882  152.2627 H   0  0  0  0  0  0  0  0  0  0  0  0
  143.2558  138.1445  152.8642 H   0  0  0  0  0  0  0  0  0  0  0  0
  141.5924  136.9044  154.4865 H   0  0  0  0  0  0  0  0  0  0  0  0
  140.8332  137.0742  152.8941 H   0  0  0  0  0  0  0  0  0  0  0  0
  141.6822  134.5905  154.2158 H   0  0  0  0  0  0  0  0  0  0  0  0
  140.8527  134.7443  152.6754 H   0  0  0  0  0  0  0  0  0  0  0  0
  142.8465  134.3204  151.5381 H   0  0  0  0  0  0  0  0  0  0  0  0
  143.6609  134.0910  153.0940 H   0  0  0  0  0  0  0  0  0  0  0  0
  149.0748  137.7846  153.1268 H   0  0  0  0  0  0  0  0  0  0  0  0
  148.1880  141.2752  154.0581 H   0  0  0  0  0  0  0  0  0  0  0  0
  149.7148  142.6953  155.3930 H   0  0  0  0  0  0  0  0  0  0  0  0
  152.3410  139.5897  156.0476 H   0  0  0  0  0  0  0  0  0  0  0  0
  1  2  2  0  0  0  0
  2  3  1  0  0  0  0
  2 11  1  0  0  0  0
  3  4  1  0  0  0  0
  3 21  1  0  0  0  0
  4  5  1  0  0  0  0
  4 22  1  0  0  0  0
  4 23  1  0  0  0  0
  5  6  1  0  0  0  0
  5 24  1  0  0  0  0
  5 25  1  0  0  0  0
  6 10  1  0  0  0  0
  6  7  2  0  0  0  0
  7  8  1  0  0  0  0
  7 26  1  0  0  0  0
  8  9  1  0  0  0  0
  8 27  1  0  0  0  0
  8 28  1  0  0  0  0
  9 10  1  0  0  0  0
  9 29  1  0  0  0  0
  9 30  1  0  0  0  0
 10 31  1  0  0  0  0
 10 32  1  0  0  0  0
 11 12  1  0  0  0  0
 11 33  1  0  0  0  0
 12 17  1  0  0  0  0
 12 13  2  0  0  0  0
 13 14  1  0  0  0  0
 13 34  1  0  0  0  0
 14 15  2  0  0  0  0
 14 35  1  0  0  0  0
 15 16  1  0  0  0  0
 16 17  2  0  0  0  0
 16 36  1  0  0  0  0
 17 18  1  0  0  0  0
 18 19  2  0  0  0  0
 18 20  1  0  0  0  0
M  CHG  1  18   1
M  CHG  1  20  -1
M  END
> <s_m_source_file>
AV-unprocessed.smi

> <i_m_source_file_index>
2431

> <i_lp_mmshare_version>
43012

> <i_f3d_flags>
0

> <s_epik_input>
W0NIMl0xW0NIMl1bQ0gyXVtDSF09QzFbQ0gyXVtDSDJdW05IXUMoPU8pW05IXWMyW2NIXVtjSF1uW2NIXWMyW04rXSg9TylbTy1d

> <s_epik_cmdline>
J2VwaWtfcHl0aG9uJywgJy1waCcsICc3LjAnLCAnLXRuJywgJzgnLCAnLW1hJywgJzIwMCcsICctbWV0YWxfYmluZGluZycsICctaW1hZScsICc8aW5maWxlLm1hZT4nLCAnLW9tYWUnLCAnPG91dGZpbGUubWFlPic=

> <r_lp_tautomer_probability>
1

> <r_epik_Ionization_Penalty>
0.000148912

> <r_epik_Ionization_Penalty_Charging>
0

> <r_epik_Ionization_Penalty_Neutral>
0.000148912

> <r_epik_State_Penalty>
-0

> <r_epik_Charging_Adjusted_Penalty>
0

> <i_epik_Tot_Q>
0

> <i_epik_Tot_abs_Q>
2

> <r_epik_Metal_State_Penalty>
-0

> <b_epik_Metal_Only>
0

> <s_lp_Force_Field>
OPLS_2005

> <r_lp_Energy>
28.1068

> <b_lp_Chiralities_Consistent>
1

> <s_lp_Variant>
AV-unprocessed.smi:2431-1

> <Gold.Version>
5.8.1

> <Gold.Id.Protein>
6NUR|6NUR_protein|mol2

> <Gold.PLP.Fitness>
45.8078

> <Gold.PLP.PLP>
-36.8570

> <Gold.PLP.part.hbond>
-4.5894

> <Gold.PLP.part.metal>
0.0000

> <Gold.PLP.part.buried>
-2.4060

> <Gold.PLP.part.nonpolar>
-31.7317

> <Gold.PLP.part.repulsive>
0.7861

> <Gold.PLP.ligand.clash>
0.0000

> <Gold.PLP.ligand.torsion>
0.9806

> <Gold.PLP.Chemscore.Hbond>
2.6320

> <Gold.PLP.Chemscore.CHOScore>
1.0000

> <Gold.PLP.Chemscore.Metal>
0.0000

> <Gold.Chemscore.Hbonds>
donor molecule, donor type, donor heavy atom, donor atom, acceptor molecule, acceptor atom, score
      L1  H     3    21       P1  7948  1.00
      L1  H    11    33       P1  7948  0.93
      P1  H 10752 10765       L1    20  0.74
      L1  C    14    35       P1  8028  1.00

> <Gold.PLP.Chemscore.Internal.Correction>
0.0161

> <Gold.Rescore>
     Score         DG    S(hbond)    S(metal)    S(lipo)     H(rot)  DE(clash)    DE(int)     intcor
     14.25     -19.38       2.75        0.00      72.77       1.48       1.47       3.66       ----

> <Gold.Chemscore.Fitness>
14.2472

> <Gold.Chemscore.DG>
-19.3758

> <Gold.Chemscore.ZeroCoef>
-5.4800

> <Gold.Chemscore.Hbond>
2.7476

> <Gold.Chemscore.Metal>
0.0000

> <Gold.Chemscore.Lipo>
72.7749

> <Gold.Chemscore.Internal_Hbond>
0.0000

> <Gold.Chemscore.DEClash>
1.4672

> <Gold.Chemscore.DEInternal>
3.6614

> <Gold.Chemscore.Rot>
1.4828

> <Gold.Chemscore.Internal.Correction>
   9.000000E+99

> <Gold.Chemscore.Hbonds>
donor molecule, donor type, donor heavy atom, donor atom, acceptor molecule, acceptor atom, score
      L1  H     3    21       P1  7948  0.98
      L1  H    11    33       P1  7948  0.87
      P1  H 10752 10765       L1    20  0.73

> <Gold.Chemscore.Hbond.Weighted>
-9.1771

> <Gold.Chemscore.Metal.Weighted>
-0.0000

> <Gold.Chemscore.Lipo.Weighted>
-8.5147

> <Gold.Chemscore.Internal_Hbond.Weighted>
0.0000

> <Gold.Chemscore.DEClash.Weighted>
1.4672

> <Gold.Chemscore.DEInternal.Weighted>
3.6614

> <Gold.Chemscore.Rot.Weighted>
3.7960

> <Gold.Chemscore.Internal.Correction.Weighted>
   9.000000E+99

> <Gold.Protein.RotatedTorsions>
[ 6907 6896 6895 6894 ] final   -7.03 input  -60.11 | X-H torsion
[ 7974 7965 7964 7962 ] final -178.23 input  175.53 | X-H torsion
[ 8008 7997 7996 7995 ] final -128.23 input   59.86 | X-H torsion
[ 10167 10162 10161 10158 ] final  -92.88 input  -65.29 | X-H torsion
[ 10718 10713 10712 10709 ] final  -96.94 input   66.30 | X-H torsion
[ 10763 10752 10751 10750 ] final  174.80 input  -60.55 | X-H torsion
[ 11005 11000 10999 10996 ] final   26.75 input  -57.11 | X-H torsion

> <Gold.Protein.ActiveResidues>
 VAL166  LYS551  ARG553  GLY616  TRP617  ASP618  TYR619  PRO620  LYS621  CYS622 
 ASP623  PHE694  ASN695  SER759  ASP760  ASP761  ALA762  ILE779  LEU786  VAL792 
 PHE793  MET794  SER795  GLU796  ALA797  LYS798  CYS799  TRP800  GLU811  SER814 

> <Gold.Protein.RotatedAtoms>
  151.4561  135.1034  159.9711 H   0  0  0  0  0  0  0  0  0  0  0  0  # atno 6907 bound_to 6896
  152.4870  133.8395  159.7156 H   0  0  0  0  0  0  0  0  0  0  0  0  # atno 6908 bound_to 6896
  150.8989  133.7085  159.2911 H   0  0  0  0  0  0  0  0  0  0  0  0  # atno 6909 bound_to 6896
  144.7130  140.0900  143.6422 H   0  0  0  0  0  0  0  0  0  0  0  0  # atno 7974 bound_to 7965
  155.2593  140.0435  157.2995 H   0  0  0  0  0  0  0  0  0  0  0  0  # atno 8008 bound_to 7997
  154.5720  140.2376  155.8146 H   0  0  0  0  0  0  0  0  0  0  0  0  # atno 8009 bound_to 7997
  156.2130  140.2993  155.9783 H   0  0  0  0  0  0  0  0  0  0  0  0  # atno 8010 bound_to 7997
  140.3303  143.2998  151.9949 H   0  0  0  0  0  0  0  0  0  0  0  0  # atno 10167 bound_to 10162
  156.0072  130.5173  150.6300 H   0  0  0  0  0  0  0  0  0  0  0  0  # atno 10718 bound_to 10713
  154.4589  135.2767  155.1727 H   0  0  0  0  0  0  0  0  0  0  0  0  # atno 10763 bound_to 10752
  154.3523  135.6147  153.5652 H   0  0  0  0  0  0  0  0  0  0  0  0  # atno 10764 bound_to 10752
  152.9853  135.5814  154.4948 H   0  0  0  0  0  0  0  0  0  0  0  0  # atno 10765 bound_to 10752
  140.3337  134.2410  155.7699 H   0  0  0  0  0  0  0  0  0  0  0  0  # atno 11005 bound_to 11000
  145.9629  139.2813  143.1145 LP  0  0  0  0  0  0  0  0  0  0  0  0  # atno 17320 bound_to 7965
  145.9201  140.9121  143.0409 LP  0  0  0  0  0  0  0  0  0  0  0  0  # atno 17321 bound_to 7965
  139.4858  144.6240  151.7200 LP  0  0  0  0  0  0  0  0  0  0  0  0  # atno 17342 bound_to 10162
  140.5403  144.0590  150.6086 LP  0  0  0  0  0  0  0  0  0  0  0  0  # atno 17343 bound_to 10162
  157.4100  131.0822  151.1230 LP  0  0  0  0  0  0  0  0  0  0  0  0  # atno 17370 bound_to 10713
  157.1865  130.6332  149.5689 LP  0  0  0  0  0  0  0  0  0  0  0  0  # atno 17371 bound_to 10713
  141.2057  133.7853  157.0219 LP  0  0  0  0  0  0  0  0  0  0  0  0  # atno 17394 bound_to 11000
  140.0839  134.9632  157.1669 LP  0  0  0  0  0  0  0  0  0  0  0  0  # atno 17395 bound_to 11000

$$$$
