AV-unprocessed.smi:910|AV-procd|sdf|4118|dock9
  -GOLD-   22720 2 13D 1   1.00000     0.00000
 Structure written by MMmdl.
 46 47  0  0  0  0  0  0  0  0  1 V2000
  145.2631  129.9783  151.7648 C   0  0  0  0  0  0  0  0  0  0  0  0
  145.6931  131.4116  151.7606 C   0  0  0  0  0  0  0  0  0  0  0  0
  146.5976  131.9097  152.6872 N   0  0  0  0  0  0  0  0  0  0  0  0
  146.7281  133.1988  152.3692 C   0  0  0  0  0  0  0  0  0  0  0  0
  147.5678  134.1442  153.0096 N   0  0  0  0  0  0  0  0  0  0  0  0
  147.7850  134.2748  154.3283 C   0  0  0  0  0  0  0  0  0  0  0  0
  147.1661  133.6765  155.2090 O   0  0  0  0  0  0  0  0  0  0  0  0
  148.7797  135.1399  154.5764 N   0  0  0  0  0  0  0  0  0  0  0  0
  149.3443  135.4091  155.8952 C   0  0  0  0  0  0  0  0  0  0  0  0
  150.3819  136.5408  155.8347 C   0  0  0  0  0  0  0  0  0  0  0  0
  149.7130  137.7564  155.5359 O   0  0  0  0  0  0  0  0  0  0  0  0
  150.3546  138.5912  154.5805 C   0  0  2  0  0  0  0  0  0  0  0  0
  151.8368  138.8074  154.9587 C   0  0  0  0  0  0  0  0  0  0  0  0
  151.9831  139.5599  156.2924 C   0  0  0  0  0  0  0  0  0  0  0  0
  151.2202  140.8928  156.2688 C   0  0  0  0  0  0  0  0  0  0  0  0
  149.7450  140.6876  155.8894 C   0  0  0  0  0  0  0  0  0  0  0  0
  149.6030  139.9410  154.5467 C   0  0  2  0  0  0  0  0  0  0  0  0
  148.1306  139.7722  154.1406 C   0  0  0  0  0  0  0  0  0  0  0  0
  145.9790  133.5804  151.3009 O   0  0  0  0  0  0  0  0  0  0  0  0
  145.3233  132.4373  150.9274 C   0  0  0  0  0  0  0  0  0  0  0  0
  144.3975  132.5182  149.7615 C   0  0  0  0  0  0  0  0  0  0  0  0
  144.9373  129.6588  150.7746 H   0  0  0  0  0  0  0  0  0  0  0  0
  144.4332  129.8208  152.4538 H   0  0  0  0  0  0  0  0  0  0  0  0
  146.0777  129.3209  152.0706 H   0  0  0  0  0  0  0  0  0  0  0  0
  148.1071  134.7370  152.3964 H   0  0  0  0  0  0  0  0  0  0  0  0
  149.2217  135.5959  153.7919 H   0  0  0  0  0  0  0  0  0  0  0  0
  148.5256  135.7014  156.5529 H   0  0  0  0  0  0  0  0  0  0  0  0
  149.7808  134.5064  156.3260 H   0  0  0  0  0  0  0  0  0  0  0  0
  150.9211  136.5985  156.7802 H   0  0  0  0  0  0  0  0  0  0  0  0
  151.1157  136.3348  155.0546 H   0  0  0  0  0  0  0  0  0  0  0  0
  150.2912  138.1305  153.5930 H   0  0  0  0  0  0  0  0  0  0  0  0
  152.3717  137.8599  155.0082 H   0  0  0  0  0  0  0  0  0  0  0  0
  152.3247  139.3821  154.1706 H   0  0  0  0  0  0  0  0  0  0  0  0
  151.6092  138.9405  157.1076 H   0  0  0  0  0  0  0  0  0  0  0  0
  153.0372  139.7406  156.5037 H   0  0  0  0  0  0  0  0  0  0  0  0
  151.2893  141.3770  157.2434 H   0  0  0  0  0  0  0  0  0  0  0  0
  151.6899  141.5686  155.5531 H   0  0  0  0  0  0  0  0  0  0  0  0
  149.2403  140.1306  156.6801 H   0  0  0  0  0  0  0  0  0  0  0  0
  149.2470  141.6562  155.8322 H   0  0  0  0  0  0  0  0  0  0  0  0
  150.0733  140.5573  153.7791 H   0  0  0  0  0  0  0  0  0  0  0  0
  147.5799  139.1789  154.8714 H   0  0  0  0  0  0  0  0  0  0  0  0
  148.0444  139.2744  153.1745 H   0  0  0  0  0  0  0  0  0  0  0  0
  147.6340  140.7393  154.0582 H   0  0  0  0  0  0  0  0  0  0  0  0
  143.5530  131.8405  149.8883 H   0  0  0  0  0  0  0  0  0  0  0  0
  144.9137  132.2470  148.8406 H   0  0  0  0  0  0  0  0  0  0  0  0
  144.0038  133.5282  149.6449 H   0  0  0  0  0  0  0  0  0  0  0  0
  1  2  1  0  0  0  0
  1 22  1  0  0  0  0
  1 23  1  0  0  0  0
  1 24  1  0  0  0  0
  2 20  2  0  0  0  0
  2  3  1  0  0  0  0
  3  4  2  0  0  0  0
  4  5  1  0  0  0  0
  4 19  1  0  0  0  0
  5  6  1  0  0  0  0
  5 25  1  0  0  0  0
  6  7  2  0  0  0  0
  6  8  1  0  0  0  0
  8  9  1  0  0  0  0
  8 26  1  0  0  0  0
  9 10  1  0  0  0  0
  9 27  1  0  0  0  0
  9 28  1  0  0  0  0
 10 11  1  0  0  0  0
 10 29  1  0  0  0  0
 10 30  1  0  0  0  0
 11 12  1  0  0  0  0
 12 17  1  0  0  0  0
 12 13  1  0  0  0  0
 12 31  1  0  0  0  0
 13 14  1  0  0  0  0
 13 32  1  0  0  0  0
 13 33  1  0  0  0  0
 14 15  1  0  0  0  0
 14 34  1  0  0  0  0
 14 35  1  0  0  0  0
 15 16  1  0  0  0  0
 15 36  1  0  0  0  0
 15 37  1  0  0  0  0
 16 17  1  0  0  0  0
 16 38  1  0  0  0  0
 16 39  1  0  0  0  0
 17 18  1  0  0  0  0
 17 40  1  0  0  0  0
 18 41  1  0  0  0  0
 18 42  1  0  0  0  0
 18 43  1  0  0  0  0
 19 20  1  0  0  0  0
 20 21  1  0  0  0  0
 21 44  1  0  0  0  0
 21 45  1  0  0  0  0
 21 46  1  0  0  0  0
M  END
> <s_m_source_file>
AV-unprocessed.smi

> <i_m_source_file_index>
910

> <i_lp_mmshare_version>
43012

> <i_f3d_flags>
0

> <s_epik_input>
W0NIM11jMW5jKG9jMVtDSDNdKVtOSF1DKD1PKVtOSF1bQ0gyXVtDSDJdT1tDQEBIXTJbQ0gyXVtDSDJdW0NIMl1bQ0gyXVtDQEhdMltDSDNd

> <s_epik_cmdline>
J2VwaWtfcHl0aG9uJywgJy1waCcsICc3LjAnLCAnLXRuJywgJzgnLCAnLW1hJywgJzIwMCcsICctbWV0YWxfYmluZGluZycsICctaW1hZScsICc8aW5maWxlLm1hZT4nLCAnLW9tYWUnLCAnPG91dGZpbGUubWFlPic=

> <r_lp_tautomer_probability>
0.785861

> <r_epik_Ionization_Penalty>
4.15957e-05

> <r_epik_Ionization_Penalty_Charging>
0

> <r_epik_Ionization_Penalty_Neutral>
4.15957e-05

> <r_epik_State_Penalty>
0.0240523

> <r_epik_Charging_Adjusted_Penalty>
0.0240523

> <i_epik_Tot_Q>
0

> <i_epik_Tot_abs_Q>
0

> <r_epik_Metal_State_Penalty>
0.057053

> <b_epik_Metal_Only>
0

> <s_lp_Force_Field>
OPLS_2005

> <r_lp_Energy>
8.47643

> <b_lp_Chiralities_Consistent>
1

> <s_lp_Variant>
AV-unprocessed.smi:910-3

> <Gold.Version>
5.8.1

> <Gold.Id.Protein>
6NUR|6NUR_protein|mol2

> <Gold.PLP.Fitness>
42.4528

> <Gold.PLP.PLP>
-38.0534

> <Gold.PLP.part.hbond>
-2.0000

> <Gold.PLP.part.metal>
0.0000

> <Gold.PLP.part.buried>
-4.4644

> <Gold.PLP.part.nonpolar>
-31.3002

> <Gold.PLP.part.repulsive>
0.4065

> <Gold.PLP.ligand.clash>
0.0000

> <Gold.PLP.ligand.torsion>
0.6847

> <Gold.PLP.Chemscore.Hbond>
1.9120

> <Gold.PLP.Chemscore.CHOScore>
0.0000

> <Gold.PLP.Chemscore.Metal>
0.0000

> <Gold.Chemscore.Hbonds>
donor molecule, donor type, donor heavy atom, donor atom, acceptor molecule, acceptor atom, score
      L1  H     5    25       P1  7948  1.00
      L1  H     8    26       P1  7948  0.91

> <Gold.PLP.Chemscore.Internal.Correction>
0.0327

> <Gold.Rescore>
     Score         DG    S(hbond)    S(metal)    S(lipo)     H(rot)  DE(clash)    DE(int)     intcor
     17.75     -18.49       1.79        0.00      96.32       1.66       0.08       0.66       ----

> <Gold.Chemscore.Fitness>
17.7550

> <Gold.Chemscore.DG>
-18.4895

> <Gold.Chemscore.ZeroCoef>
-5.4800

> <Gold.Chemscore.Hbond>
1.7914

> <Gold.Chemscore.Metal>
0.0000

> <Gold.Chemscore.Lipo>
96.3218

> <Gold.Chemscore.Internal_Hbond>
0.0000

> <Gold.Chemscore.DEClash>
0.0787

> <Gold.Chemscore.DEInternal>
0.6558

> <Gold.Chemscore.Rot>
1.6576

> <Gold.Chemscore.Internal.Correction>
   9.000000E+99

> <Gold.Chemscore.Hbonds>
donor molecule, donor type, donor heavy atom, donor atom, acceptor molecule, acceptor atom, score
      L1  H     5    25       P1  7948  0.45
      L1  H     8    26       P1  7948  0.51

> <Gold.Chemscore.Hbond.Weighted>
-5.9834

> <Gold.Chemscore.Metal.Weighted>
-0.0000

> <Gold.Chemscore.Lipo.Weighted>
-11.2697

> <Gold.Chemscore.Internal_Hbond.Weighted>
0.0000

> <Gold.Chemscore.DEClash.Weighted>
0.0787

> <Gold.Chemscore.DEInternal.Weighted>
0.6558

> <Gold.Chemscore.Rot.Weighted>
4.2436

> <Gold.Chemscore.Internal.Correction.Weighted>
   9.000000E+99

> <Gold.Protein.RotatedTorsions>
[ 6907 6896 6895 6894 ] final -169.48 input  -60.11 | X-H torsion
[ 7974 7965 7964 7962 ] final   87.57 input  175.53 | X-H torsion
[ 8008 7997 7996 7995 ] final  178.93 input   59.86 | X-H torsion
[ 10167 10162 10161 10158 ] final  110.86 input  -65.29 | X-H torsion
[ 10718 10713 10712 10709 ] final   62.24 input   66.30 | X-H torsion
[ 10763 10752 10751 10750 ] final  -58.77 input  -60.55 | X-H torsion
[ 11005 11000 10999 10996 ] final  113.56 input  -57.11 | X-H torsion

> <Gold.Protein.ActiveResidues>
 VAL166  LYS551  ARG553  GLY616  TRP617  ASP618  TYR619  PRO620  LYS621  CYS622 
 ASP623  PHE694  ASN695  SER759  ASP760  ASP761  ALA762  ILE779  LEU786  VAL792 
 PHE793  MET794  SER795  GLU796  ALA797  LYS798  CYS799  TRP800  GLU811  SER814 

> <Gold.Protein.RotatedAtoms>
  151.4922  133.3522  159.2855 H   0  0  0  0  0  0  0  0  0  0  0  0  # atno 6907 bound_to 6896
  150.8827  134.8222  159.7247 H   0  0  0  0  0  0  0  0  0  0  0  0  # atno 6908 bound_to 6896
  152.4773  134.4822  159.9721 H   0  0  0  0  0  0  0  0  0  0  0  0  # atno 6909 bound_to 6896
  145.5573  139.2300  143.2479 H   0  0  0  0  0  0  0  0  0  0  0  0  # atno 7974 bound_to 7965
  156.0491  140.1321  157.0070 H   0  0  0  0  0  0  0  0  0  0  0  0  # atno 8008 bound_to 7997
  154.4426  140.1014  156.6420 H   0  0  0  0  0  0  0  0  0  0  0  0  # atno 8009 bound_to 7997
  155.5551  140.3463  155.4480 H   0  0  0  0  0  0  0  0  0  0  0  0  # atno 8010 bound_to 7997
  139.6656  144.7127  151.1784 H   0  0  0  0  0  0  0  0  0  0  0  0  # atno 10167 bound_to 10162
  157.5887  130.9039  149.9563 H   0  0  0  0  0  0  0  0  0  0  0  0  # atno 10718 bound_to 10713
  154.2432  135.6339  153.5214 H   0  0  0  0  0  0  0  0  0  0  0  0  # atno 10763 bound_to 10752
  152.9926  135.5547  154.5887 H   0  0  0  0  0  0  0  0  0  0  0  0  # atno 10764 bound_to 10752
  154.5398  135.2894  155.1081 H   0  0  0  0  0  0  0  0  0  0  0  0  # atno 10765 bound_to 10752
  139.8956  134.9552  156.6758 H   0  0  0  0  0  0  0  0  0  0  0  0  # atno 11005 bound_to 11000
  146.1876  140.6397  142.9160 LP  0  0  0  0  0  0  0  0  0  0  0  0  # atno 17320 bound_to 7965
  144.7500  140.5167  143.6808 LP  0  0  0  0  0  0  0  0  0  0  0  0  # atno 17321 bound_to 7965
  140.7598  143.5925  150.8781 LP  0  0  0  0  0  0  0  0  0  0  0  0  # atno 17342 bound_to 10162
  139.9586  143.6189  152.3009 LP  0  0  0  0  0  0  0  0  0  0  0  0  # atno 17343 bound_to 10162
  156.0938  130.3661  150.0344 LP  0  0  0  0  0  0  0  0  0  0  0  0  # atno 17370 bound_to 10713
  156.8471  130.9446  151.3628 LP  0  0  0  0  0  0  0  0  0  0  0  0  # atno 17371 bound_to 10713
  140.7338  133.9036  155.8229 LP  0  0  0  0  0  0  0  0  0  0  0  0  # atno 17394 bound_to 11000
  141.0132  134.0991  157.4199 LP  0  0  0  0  0  0  0  0  0  0  0  0  # atno 17395 bound_to 11000

$$$$
