AV-unprocessed.smi:1680|AV-procd|sdf|6740|dock4
  -GOLD-   22720 7493D 1   1.00000     0.00000
 Structure written by MMmdl.
 38 39  0  0  0  0  0  0  0  0  3 V2000
  143.7996  132.4154  149.8302 C   0  0  0  0  0  0  0  0  0  0  0  0
  145.2393  132.1560  150.2792 C   0  0  0  0  0  0  0  0  0  0  0  0
  145.6545  130.9976  150.2499 O   0  0  0  0  0  0  0  0  0  0  0  0
  146.0037  133.1958  150.6915 N   0  0  0  0  0  0  0  0  0  0  0  0
  147.3728  133.0290  151.1871 C   0  0  0  0  0  0  0  0  0  0  0  0
  147.4119  133.3788  152.6857 C   0  0  0  0  0  0  0  0  0  0  0  0
  146.8836  134.7456  152.9419 N   0  3  0  0  0  0  0  0  0  0  0  0
  146.9293  135.1001  154.3821 C   0  0  0  0  0  0  0  0  0  0  0  0
  148.2326  134.6392  155.0611 C   0  0  0  0  0  0  0  0  0  0  0  0
  149.3832  135.3755  154.5516 N   0  0  0  0  0  0  0  0  0  0  0  0
  150.4220  135.8052  155.2820 C   0  0  0  0  0  0  0  0  0  0  0  0
  150.4564  135.5769  156.4935 O   0  0  0  0  0  0  0  0  0  0  0  0
  151.3504  136.4768  154.5652 N   0  5  0  0  0  0  0  0  0  0  0  0
  151.6847  137.7320  154.9077 C   0  0  0  0  0  0  0  0  0  0  0  0
  152.8673  138.2747  154.5771 N   0  0  0  0  0  0  0  0  0  0  0  0
  153.0115  139.5821  155.0215 N   0  0  0  0  0  0  0  0  0  0  0  0
  151.9251  139.9963  155.6730 C   0  0  0  0  0  0  0  0  0  0  0  0
  150.6262  138.8290  155.7994 S   0  0  0  0  0  0  0  0  0  0  0  0
  145.5505  134.9721  152.3170 C   0  0  0  0  0  0  0  0  0  0  0  0
  145.5531  134.5845  150.8264 C   0  0  0  0  0  0  0  0  0  0  0  0
  143.2132  132.8501  150.6403 H   0  0  0  0  0  0  0  0  0  0  0  0
  143.3159  131.4841  149.5328 H   0  0  0  0  0  0  0  0  0  0  0  0
  143.7772  133.0892  148.9730 H   0  0  0  0  0  0  0  0  0  0  0  0
  147.7602  132.0208  151.0345 H   0  0  0  0  0  0  0  0  0  0  0  0
  148.0384  133.6901  150.6303 H   0  0  0  0  0  0  0  0  0  0  0  0
  146.8240  132.6530  153.2503 H   0  0  0  0  0  0  0  0  0  0  0  0
  148.4379  133.3078  153.0485 H   0  0  0  0  0  0  0  0  0  0  0  0
  146.7875  136.1749  154.5046 H   0  0  0  0  0  0  0  0  0  0  0  0
  146.0892  134.6205  154.8869 H   0  0  0  0  0  0  0  0  0  0  0  0
  148.1643  134.7540  156.1443 H   0  0  0  0  0  0  0  0  0  0  0  0
  148.4185  133.5829  154.8710 H   0  0  0  0  0  0  0  0  0  0  0  0
  149.3975  135.5787  153.5625 H   0  0  0  0  0  0  0  0  0  0  0  0
  151.8873  140.9961  156.0789 H   0  0  0  0  0  0  0  0  0  0  0  0
  144.7974  134.3868  152.8475 H   0  0  0  0  0  0  0  0  0  0  0  0
  145.2619  136.0183  152.4102 H   0  0  0  0  0  0  0  0  0  0  0  0
  146.2367  135.2326  150.2758 H   0  0  0  0  0  0  0  0  0  0  0  0
  144.5692  134.7707  150.3985 H   0  0  0  0  0  0  0  0  0  0  0  0
  147.5259  135.3731  152.4793 H   0  0  0  0  0  0  0  0  0  0  0  0
  1  2  1  0  0  0  0
  1 21  1  0  0  0  0
  1 22  1  0  0  0  0
  1 23  1  0  0  0  0
  2  3  2  0  0  0  0
  2  4  1  0  0  0  0
  4 20  1  0  0  0  0
  4  5  1  0  0  0  0
  5  6  1  0  0  0  0
  5 24  1  0  0  0  0
  5 25  1  0  0  0  0
  6  7  1  0  0  0  0
  6 26  1  0  0  0  0
  6 27  1  0  0  0  0
  7  8  1  0  0  0  0
  7 19  1  0  0  0  0
  7 38  1  0  0  0  0
  8  9  1  0  0  0  0
  8 28  1  0  0  0  0
  8 29  1  0  0  0  0
  9 10  1  0  0  0  0
  9 30  1  0  0  0  0
  9 31  1  0  0  0  0
 10 11  1  0  0  0  0
 10 32  1  0  0  0  0
 11 12  2  0  0  0  0
 11 13  1  0  0  0  0
 13 14  1  0  0  0  0
 14 18  1  0  0  0  0
 14 15  2  0  0  0  0
 15 16  1  0  0  0  0
 16 17  2  0  0  0  0
 17 18  1  0  0  0  0
 17 33  1  0  0  0  0
 19 20  1  0  0  0  0
 19 34  1  0  0  0  0
 19 35  1  0  0  0  0
 20 36  1  0  0  0  0
 20 37  1  0  0  0  0
M  CHG  1   7   1
M  CHG  1  13  -1
M  END
> <s_m_source_file>
AV-unprocessed.smi

> <i_m_source_file_index>
1680

> <i_lp_mmshare_version>
43012

> <i_f3d_flags>
0

> <s_epik_input>
W0NIM11DKD1PKU4xW0NIMl1bQ0gyXU4oW0NIMl1bQ0gyXTEpW0NIMl1bQ0gyXVtOSF1DKD1PKVtOSF1jMm5uW2NIXXMy

> <s_epik_cmdline>
J2VwaWtfcHl0aG9uJywgJy1waCcsICc3LjAnLCAnLXRuJywgJzgnLCAnLW1hJywgJzIwMCcsICctbWV0YWxfYmluZGluZycsICctaW1hZScsICc8aW5maWxlLm1hZT4nLCAnLW9tYWUnLCAnPG91dGZpbGUubWFlPic=

> <r_lp_tautomer_probability>
1

> <r_epik_Ionization_Penalty>
3.68953

> <r_epik_Ionization_Penalty_Charging>
3.65812

> <r_epik_Ionization_Penalty_Neutral>
0.0314116

> <r_epik_State_Penalty>
3.68215

> <r_epik_Charging_Adjusted_Penalty>
7.34027

> <i_epik_Tot_Q>
0

> <i_epik_Tot_abs_Q>
2

> <r_epik_Metal_State_Penalty>
1.11495

> <b_epik_Metal_Only>
1

> <s_lp_Force_Field>
OPLS_2005

> <r_lp_Energy>
32.4697

> <b_lp_Chiralities_Consistent>
1

> <s_lp_Variant>
AV-unprocessed.smi:1680-4

> <Gold.Version>
5.8.1

> <Gold.Id.Protein>
6NUR|6NUR_protein|mol2

> <Gold.PLP.Fitness>
46.2387

> <Gold.PLP.PLP>
-30.0464

> <Gold.PLP.part.hbond>
-5.4079

> <Gold.PLP.part.metal>
0.0000

> <Gold.PLP.part.buried>
-1.0532

> <Gold.PLP.part.nonpolar>
-23.7519

> <Gold.PLP.part.repulsive>
0.3608

> <Gold.PLP.ligand.clash>
0.0000

> <Gold.PLP.ligand.torsion>
0.9296

> <Gold.PLP.Chemscore.Hbond>
6.0000

> <Gold.PLP.Chemscore.CHOScore>
0.0000

> <Gold.PLP.Chemscore.Metal>
0.0000

> <Gold.Chemscore.Hbonds>
donor molecule, donor type, donor heavy atom, donor atom, acceptor molecule, acceptor atom, score
      L1  H     7    38       P1  7948  2.00
      L1  H    10    32       P1  7948  1.00
      P1  H  7997  8010       L1    16  1.00
      P1  H 10752 10763       L1    13  2.00

> <Gold.PLP.Chemscore.Internal.Correction>
0.0514

> <Gold.Rescore>
     Score         DG    S(hbond)    S(metal)    S(lipo)     H(rot)  DE(clash)    DE(int)     intcor
     15.88     -16.94       3.15        0.00      47.35       1.80       0.08       0.97       ----

> <Gold.Chemscore.Fitness>
15.8828

> <Gold.Chemscore.DG>
-16.9374

> <Gold.Chemscore.ZeroCoef>
-5.4800

> <Gold.Chemscore.Hbond>
3.1517

> <Gold.Chemscore.Metal>
0.0000

> <Gold.Chemscore.Lipo>
47.3466

> <Gold.Chemscore.Internal_Hbond>
0.0000

> <Gold.Chemscore.DEClash>
0.0823

> <Gold.Chemscore.DEInternal>
0.9723

> <Gold.Chemscore.Rot>
1.8003

> <Gold.Chemscore.Internal.Correction>
   9.000000E+99

> <Gold.Chemscore.Hbonds>
donor molecule, donor type, donor heavy atom, donor atom, acceptor molecule, acceptor atom, score
      L1  H     7    38       P1  7948  1.00
      L1  H    10    32       P1  7948  0.30
      P1  H  7997  8010       L1    16  0.74
      P1  H 10752 10763       L1    13  0.39

> <Gold.Chemscore.Hbond.Weighted>
-10.5266

> <Gold.Chemscore.Metal.Weighted>
-0.0000

> <Gold.Chemscore.Lipo.Weighted>
-5.5395

> <Gold.Chemscore.Internal_Hbond.Weighted>
0.0000

> <Gold.Chemscore.DEClash.Weighted>
0.0823

> <Gold.Chemscore.DEInternal.Weighted>
0.9723

> <Gold.Chemscore.Rot.Weighted>
4.6088

> <Gold.Chemscore.Internal.Correction.Weighted>
   9.000000E+99

> <Gold.Protein.RotatedTorsions>
[ 6907 6896 6895 6894 ] final  -91.17 input  -60.11 | X-H torsion
[ 7974 7965 7964 7962 ] final  127.74 input  175.53 | X-H torsion
[ 8008 7997 7996 7995 ] final  107.69 input   59.86 | X-H torsion
[ 10167 10162 10161 10158 ] final  -42.77 input  -65.29 | X-H torsion
[ 10718 10713 10712 10709 ] final -134.78 input   66.30 | X-H torsion
[ 10763 10752 10751 10750 ] final   49.16 input  -60.55 | X-H torsion
[ 11005 11000 10999 10996 ] final   76.51 input  -57.11 | X-H torsion

> <Gold.Protein.ActiveResidues>
 VAL166  LYS551  ARG553  GLY616  TRP617  ASP618  TYR619  PRO620  LYS621  CYS622 
 ASP623  PHE694  ASN695  SER759  ASP760  ASP761  ALA762  ILE779  LEU786  VAL792 
 PHE793  MET794  SER795  GLU796  ALA797  LYS798  CYS799  TRP800  GLU811  SER814 

> <Gold.Protein.RotatedAtoms>
  150.6889  134.2319  159.4437 H   0  0  0  0  0  0  0  0  0  0  0  0  # atno 6907 bound_to 6896
  152.0269  134.9788  160.0581 H   0  0  0  0  0  0  0  0  0  0  0  0  # atno 6908 bound_to 6896
  152.1343  133.4391  159.4772 H   0  0  0  0  0  0  0  0  0  0  0  0  # atno 6909 bound_to 6896
  145.0473  139.3913  143.5072 H   0  0  0  0  0  0  0  0  0  0  0  0  # atno 7974 bound_to 7965
  156.1845  140.3090  155.9211 H   0  0  0  0  0  0  0  0  0  0  0  0  # atno 8008 bound_to 7997
  155.3312  140.0461  157.3059 H   0  0  0  0  0  0  0  0  0  0  0  0  # atno 8009 bound_to 7997
  154.5379  140.2252  155.8700 H   0  0  0  0  0  0  0  0  0  0  0  0  # atno 8010 bound_to 7997
  140.6957  143.3019  151.3256 H   0  0  0  0  0  0  0  0  0  0  0  0  # atno 10167 bound_to 10162
  156.2591  130.7199  151.1126 H   0  0  0  0  0  0  0  0  0  0  0  0  # atno 10718 bound_to 10713
  152.9788  135.5921  154.4043 H   0  0  0  0  0  0  0  0  0  0  0  0  # atno 10763 bound_to 10752
  154.3685  135.2767  155.2282 H   0  0  0  0  0  0  0  0  0  0  0  0  # atno 10764 bound_to 10752
  154.4247  135.6050  153.6086 H   0  0  0  0  0  0  0  0  0  0  0  0  # atno 10765 bound_to 10752
  139.9295  134.7606  156.1404 H   0  0  0  0  0  0  0  0  0  0  0  0  # atno 11005 bound_to 11000
  146.3515  140.0104  142.8667 LP  0  0  0  0  0  0  0  0  0  0  0  0  # atno 17320 bound_to 7965
  145.1572  140.9654  143.4398 LP  0  0  0  0  0  0  0  0  0  0  0  0  # atno 17321 bound_to 7965
  139.6411  144.0538  152.2555 LP  0  0  0  0  0  0  0  0  0  0  0  0  # atno 17342 bound_to 10162
  140.0044  144.6270  150.7702 LP  0  0  0  0  0  0  0  0  0  0  0  0  # atno 17343 bound_to 10162
  157.7244  131.0660  150.5998 LP  0  0  0  0  0  0  0  0  0  0  0  0  # atno 17370 bound_to 10713
  156.6085  130.4373  149.5868 LP  0  0  0  0  0  0  0  0  0  0  0  0  # atno 17371 bound_to 10713
  141.0875  133.6728  156.2467 LP  0  0  0  0  0  0  0  0  0  0  0  0  # atno 17394 bound_to 11000
  140.6241  134.5331  157.5551 LP  0  0  0  0  0  0  0  0  0  0  0  0  # atno 17395 bound_to 11000

$$$$
