AV-unprocessed.smi:284|AV-procd|sdf|2158|dock7
  -GOLD-   2262021513D 1   1.00000     0.00000
 Structure written by MMmdl.
 60 62  0  0  0  0  0  0  0  0  1 V2000
  149.8402  133.4810  157.0875 C   0  0  0  0  0  0  0  0  0  0  0  0
  149.5075  134.7635  156.3416 C   0  0  0  0  0  0  0  0  0  0  0  0
  148.2334  135.1234  156.0628 C   0  0  0  0  0  0  0  0  0  0  0  0
  147.8981  136.2818  155.3872 N   0  0  0  0  0  0  0  0  0  0  0  0
  146.4587  136.6384  155.1021 C   0  0  1  0  0  0  0  0  0  0  0  0
  146.1570  138.0682  155.5373 C   0  0  0  0  0  0  0  0  0  0  0  0
  145.0565  138.4259  154.5635 C   0  0  1  0  0  0  0  0  0  0  0  0
  144.8993  139.8259  154.4485 O   0  0  0  0  0  0  0  0  0  0  0  0
  145.5008  137.7113  153.2737 C   0  0  1  0  0  0  0  0  0  0  0  0
  146.4390  138.5140  152.3482 C   0  0  0  0  0  0  0  0  0  0  0  0
  146.4725  137.9489  151.0540 O   0  0  0  0  0  0  0  0  0  0  0  0
  146.2216  136.5623  153.7264 O   0  0  0  0  0  0  0  0  0  0  0  0
  148.9155  137.1349  154.9162 C   0  0  0  0  0  0  0  0  0  0  0  0
  148.6406  138.1569  154.2830 O   0  0  0  0  0  0  0  0  0  0  0  0
  150.2577  136.7868  155.1880 N   0  0  0  0  0  0  0  0  0  0  0  0
  151.3285  137.6943  154.7186 C   0  0  0  0  0  0  0  0  0  0  0  0
  151.2062  139.1247  155.2668 C   0  0  0  0  0  0  0  0  0  0  0  0
  150.8167  140.0411  154.5416 O   0  0  0  0  0  0  0  0  0  0  0  0
  151.5183  139.2637  156.5681 N   0  0  0  0  0  0  0  0  0  0  0  0
  151.5399  140.4471  157.3543 C   0  0  0  0  0  0  0  0  0  0  0  0
  150.9564  141.6034  156.8016 C   0  0  0  0  0  0  0  0  0  0  0  0
  150.9158  142.8072  157.5309 C   0  0  0  0  0  0  0  0  0  0  0  0
  151.4505  142.8808  158.8408 C   0  0  0  0  0  0  0  0  0  0  0  0
  151.4187  144.1762  159.6742 C   0  0  0  0  0  0  0  0  0  0  0  0
  152.1175  143.9344  161.0282 C   0  0  0  0  0  0  0  0  0  0  0  0
  149.9839  144.6701  159.9680 C   0  0  0  0  0  0  0  0  0  0  0  0
  152.1524  145.3020  158.9156 C   0  0  0  0  0  0  0  0  0  0  0  0
  152.0209  141.7098  159.3936 C   0  0  0  0  0  0  0  0  0  0  0  0
  152.0636  140.5053  158.6661 C   0  0  0  0  0  0  0  0  0  0  0  0
  150.6142  135.6214  155.9105 C   0  0  0  0  0  0  0  0  0  0  0  0
  151.7962  135.3679  156.1507 O   0  0  0  0  0  0  0  0  0  0  0  0
  148.9418  132.9339  157.3753 H   0  0  0  0  0  0  0  0  0  0  0  0
  150.4004  133.7020  157.9969 H   0  0  0  0  0  0  0  0  0  0  0  0
  150.4455  132.8231  156.4629 H   0  0  0  0  0  0  0  0  0  0  0  0
  147.4421  134.4631  156.3838 H   0  0  0  0  0  0  0  0  0  0  0  0
  145.8315  135.8920  155.5927 H   0  0  0  0  0  0  0  0  0  0  0  0
  145.8594  138.1120  156.5854 H   0  0  0  0  0  0  0  0  0  0  0  0
  147.0379  138.6942  155.3840 H   0  0  0  0  0  0  0  0  0  0  0  0
  144.1169  137.9921  154.9094 H   0  0  0  0  0  0  0  0  0  0  0  0
  144.2140  140.0007  153.8211 H   0  0  0  0  0  0  0  0  0  0  0  0
  144.6338  137.3722  152.7050 H   0  0  0  0  0  0  0  0  0  0  0  0
  146.1474  139.5629  152.2917 H   0  0  0  0  0  0  0  0  0  0  0  0
  147.4565  138.4861  152.7394 H   0  0  0  0  0  0  0  0  0  0  0  0
  145.7915  138.3483  150.5344 H   0  0  0  0  0  0  0  0  0  0  0  0
  152.3182  137.3149  154.9765 H   0  0  0  0  0  0  0  0  0  0  0  0
  151.3401  137.7353  153.6279 H   0  0  0  0  0  0  0  0  0  0  0  0
  151.7184  138.4090  157.0670 H   0  0  0  0  0  0  0  0  0  0  0  0
  150.5372  141.5740  155.8063 H   0  0  0  0  0  0  0  0  0  0  0  0
  150.4617  143.6624  157.0557 H   0  0  0  0  0  0  0  0  0  0  0  0
  152.0976  144.8298  161.6505 H   0  0  0  0  0  0  0  0  0  0  0  0
  153.1639  143.6545  160.9058 H   0  0  0  0  0  0  0  0  0  0  0  0
  151.6278  143.1365  161.5876 H   0  0  0  0  0  0  0  0  0  0  0  0
  149.4122  143.9368  160.5383 H   0  0  0  0  0  0  0  0  0  0  0  0
  149.4369  144.8877  159.0497 H   0  0  0  0  0  0  0  0  0  0  0  0
  149.9958  145.5884  160.5562 H   0  0  0  0  0  0  0  0  0  0  0  0
  152.1255  146.2389  159.4732 H   0  0  0  0  0  0  0  0  0  0  0  0
  151.6928  145.4870  157.9440 H   0  0  0  0  0  0  0  0  0  0  0  0
  153.2023  145.0663  158.7423 H   0  0  0  0  0  0  0  0  0  0  0  0
  152.4283  141.7212  160.3935 H   0  0  0  0  0  0  0  0  0  0  0  0
  152.4885  139.6350  159.1419 H   0  0  0  0  0  0  0  0  0  0  0  0
  1  2  1  0  0  0  0
  1 32  1  0  0  0  0
  1 33  1  0  0  0  0
  1 34  1  0  0  0  0
  2 30  1  0  0  0  0
  2  3  2  0  0  0  0
  3  4  1  0  0  0  0
  3 35  1  0  0  0  0
  4  5  1  0  0  0  0
  4 13  1  0  0  0  0
  5 12  1  0  0  0  0
  5  6  1  0  0  0  0
  5 36  1  0  0  0  0
  6  7  1  0  0  0  0
  6 37  1  0  0  0  0
  6 38  1  0  0  0  0
  7  8  1  0  0  0  0
  7  9  1  0  0  0  0
  7 39  1  0  0  0  0
  8 40  1  0  0  0  0
  9 10  1  0  0  0  0
  9 12  1  0  0  0  0
  9 41  1  0  0  0  0
 10 11  1  0  0  0  0
 10 42  1  0  0  0  0
 10 43  1  0  0  0  0
 11 44  1  0  0  0  0
 13 14  2  0  0  0  0
 13 15  1  0  0  0  0
 15 16  1  0  0  0  0
 15 30  1  0  0  0  0
 16 17  1  0  0  0  0
 16 45  1  0  0  0  0
 16 46  1  0  0  0  0
 17 18  2  0  0  0  0
 17 19  1  0  0  0  0
 19 20  1  0  0  0  0
 19 47  1  0  0  0  0
 20 29  1  0  0  0  0
 20 21  2  0  0  0  0
 21 22  1  0  0  0  0
 21 48  1  0  0  0  0
 22 23  2  0  0  0  0
 22 49  1  0  0  0  0
 23 24  1  0  0  0  0
 23 28  1  0  0  0  0
 24 25  1  0  0  0  0
 24 26  1  0  0  0  0
 24 27  1  0  0  0  0
 25 50  1  0  0  0  0
 25 51  1  0  0  0  0
 25 52  1  0  0  0  0
 26 53  1  0  0  0  0
 26 54  1  0  0  0  0
 26 55  1  0  0  0  0
 27 56  1  0  0  0  0
 27 57  1  0  0  0  0
 27 58  1  0  0  0  0
 28 29  2  0  0  0  0
 28 59  1  0  0  0  0
 29 60  1  0  0  0  0
 30 31  2  0  0  0  0
M  END
> <s_m_source_file>
AV-unprocessed.smi

> <i_m_source_file_index>
284

> <i_lp_mmshare_version>
43012

> <i_f3d_flags>
0

> <s_epik_input>
W09IXVtDSDJdW0NAQEhdKE8xKVtDQEhdKFtPSF0pW0NIMl1bQ0BIXTFuKFtjSF1jMltDSDNdKWMoPU8pbihjMj1PKVtDSDJdQyg9TylbTkhdYzNbY0hdW2NIXWMoQyhbQ0gzXSkoW0NIM10pW0NIM10pW2NIXVtjSF0z

> <s_epik_cmdline>
J2VwaWtfcHl0aG9uJywgJy1waCcsICc3LjAnLCAnLXRuJywgJzgnLCAnLW1hJywgJzIwMCcsICctbWV0YWxfYmluZGluZycsICctaW1hZScsICc8aW5maWxlLm1hZT4nLCAnLW9tYWUnLCAnPG91dGZpbGUubWFlPic=

> <r_lp_tautomer_probability>
1

> <r_epik_Ionization_Penalty>
4.92358e-06

> <r_epik_Ionization_Penalty_Charging>
1.29777e-07

> <r_epik_Ionization_Penalty_Neutral>
4.79381e-06

> <r_epik_State_Penalty>
-0

> <r_epik_Charging_Adjusted_Penalty>
1.29777e-07

> <i_epik_Tot_Q>
0

> <i_epik_Tot_abs_Q>
0

> <r_epik_Metal_State_Penalty>
-0

> <b_epik_Metal_Only>
0

> <s_epik_Chemistry_Notes>
This compound contains an acetal/aminal-like group ( X-CH(R)-Y where X, Y are N, S, or O) that may be acid/base labile, releasing an aldehyde.

> <s_lp_Force_Field>
OPLS_2005

> <r_lp_Energy>
41.7726

> <b_lp_Chiralities_Consistent>
1

> <s_lp_Variant>
AV-unprocessed.smi:284-2

> <Gold.Version>
5.8.1

> <Gold.Id.Protein>
6NUR|6NUR_protein|mol2

> <Gold.PLP.Fitness>
62.2050

> <Gold.PLP.PLP>
-48.4129

> <Gold.PLP.part.hbond>
-5.6052

> <Gold.PLP.part.metal>
0.0000

> <Gold.PLP.part.buried>
-8.3096

> <Gold.PLP.part.nonpolar>
-37.8008

> <Gold.PLP.part.repulsive>
0.8001

> <Gold.PLP.ligand.clash>
0.0000

> <Gold.PLP.ligand.torsion>
0.4869

> <Gold.PLP.Chemscore.Hbond>
4.8775

> <Gold.PLP.Chemscore.CHOScore>
0.0000

> <Gold.PLP.Chemscore.Metal>
0.0000

> <Gold.Chemscore.Hbonds>
donor molecule, donor type, donor heavy atom, donor atom, acceptor molecule, acceptor atom, score
      L1  H     8    40       P1 10175  0.96
      L1  H    11    44       P1 10171  0.96
      P1  H  7954  7966       L1    11  0.94
      P1  H  7989  7998       L1    18  1.00
      P1  H 10752 10764       L1    31  1.00

> <Gold.PLP.Chemscore.Internal.Correction>
0.1334

> <Gold.Rescore>
     Score         DG    S(hbond)    S(metal)    S(lipo)     H(rot)  DE(clash)    DE(int)     intcor
     18.83     -27.17       4.71        0.00     122.47       3.27       0.08       8.26       ----

> <Gold.Chemscore.Fitness>
18.8308

> <Gold.Chemscore.DG>
-27.1722

> <Gold.Chemscore.ZeroCoef>
-5.4800

> <Gold.Chemscore.Hbond>
4.7136

> <Gold.Chemscore.Metal>
0.0000

> <Gold.Chemscore.Lipo>
122.4673

> <Gold.Chemscore.Internal_Hbond>
0.0000

> <Gold.Chemscore.DEClash>
0.0765

> <Gold.Chemscore.DEInternal>
8.2649

> <Gold.Chemscore.Rot>
3.2735

> <Gold.Chemscore.Internal.Correction>
   9.000000E+99

> <Gold.Chemscore.Hbonds>
donor molecule, donor type, donor heavy atom, donor atom, acceptor molecule, acceptor atom, score
      L1  H     8    40       P1 10175  0.88
      L1  H    11    44       P1 10171  0.89
      P1  H  7954  7966       L1    11  0.54
      P1  H  7989  7998       L1    18  0.96
      P1  H 10752 10764       L1    31  1.00

> <Gold.Chemscore.Hbond.Weighted>
-15.7436

> <Gold.Chemscore.Metal.Weighted>
-0.0000

> <Gold.Chemscore.Lipo.Weighted>
-14.3287

> <Gold.Chemscore.Internal_Hbond.Weighted>
0.0000

> <Gold.Chemscore.DEClash.Weighted>
0.0765

> <Gold.Chemscore.DEInternal.Weighted>
8.2649

> <Gold.Chemscore.Rot.Weighted>
8.3801

> <Gold.Chemscore.Internal.Correction.Weighted>
   9.000000E+99

> <Gold.Protein.RotatedTorsions>
[ 6907 6896 6895 6894 ] final   -5.55 input  -60.11 | X-H torsion
[ 7974 7965 7964 7962 ] final   34.98 input  175.53 | X-H torsion
[ 8008 7997 7996 7995 ] final   37.92 input   59.86 | X-H torsion
[ 10167 10162 10161 10158 ] final  132.33 input  -65.29 | X-H torsion
[ 10718 10713 10712 10709 ] final  -32.70 input   66.30 | X-H torsion
[ 10763 10752 10751 10750 ] final  -30.72 input  -60.55 | X-H torsion
[ 11005 11000 10999 10996 ] final   83.83 input  -57.11 | X-H torsion

> <Gold.Protein.ActiveResidues>
 VAL166  LYS551  ARG553  GLY616  TRP617  ASP618  TYR619  PRO620  LYS621  CYS622 
 ASP623  PHE694  ASN695  SER759  ASP760  ASP761  ALA762  ILE779  LEU786  VAL792 
 PHE793  MET794  SER795  GLU796  ALA797  LYS798  CYS799  TRP800  GLU811  SER814 

> <Gold.Protein.RotatedAtoms>
  151.4798  135.1051  159.9774 H   0  0  0  0  0  0  0  0  0  0  0  0  # atno 6907 bound_to 6896
  152.4783  133.8189  159.7053 H   0  0  0  0  0  0  0  0  0  0  0  0  # atno 6908 bound_to 6896
  150.8837  133.7275  159.2951 H   0  0  0  0  0  0  0  0  0  0  0  0  # atno 6909 bound_to 6896
  146.1315  139.6200  142.9223 H   0  0  0  0  0  0  0  0  0  0  0  0  # atno 7974 bound_to 7965
  155.2116  140.3324  155.4328 H   0  0  0  0  0  0  0  0  0  0  0  0  # atno 8008 bound_to 7997
  156.2368  140.1876  156.7146 H   0  0  0  0  0  0  0  0  0  0  0  0  # atno 8009 bound_to 7997
  154.6074  140.0614  156.9435 H   0  0  0  0  0  0  0  0  0  0  0  0  # atno 8010 bound_to 7997
  139.5344  144.6667  151.4836 H   0  0  0  0  0  0  0  0  0  0  0  0  # atno 10167 bound_to 10162
  156.3717  130.4341  149.7540 H   0  0  0  0  0  0  0  0  0  0  0  0  # atno 10718 bound_to 10713
  153.7856  135.6902  153.4880 H   0  0  0  0  0  0  0  0  0  0  0  0  # atno 10763 bound_to 10752
  153.1783  135.4516  154.9993 H   0  0  0  0  0  0  0  0  0  0  0  0  # atno 10764 bound_to 10752
  154.8065  135.3359  154.7356 H   0  0  0  0  0  0  0  0  0  0  0  0  # atno 10765 bound_to 10752
  139.9019  134.8173  156.2363 H   0  0  0  0  0  0  0  0  0  0  0  0  # atno 11005 bound_to 11000
  145.5250  141.0430  143.2414 LP  0  0  0  0  0  0  0  0  0  0  0  0  # atno 17320 bound_to 7965
  144.7695  139.6767  143.7200 LP  0  0  0  0  0  0  0  0  0  0  0  0  # atno 17321 bound_to 7965
  140.6543  143.8633  150.6818 LP  0  0  0  0  0  0  0  0  0  0  0  0  # atno 17342 bound_to 10162
  140.2007  143.3961  152.1794 LP  0  0  0  0  0  0  0  0  0  0  0  0  # atno 17343 bound_to 10162
  156.4665  130.7976  151.2995 LP  0  0  0  0  0  0  0  0  0  0  0  0  # atno 17370 bound_to 10713
  157.7484  131.0049  150.3095 LP  0  0  0  0  0  0  0  0  0  0  0  0  # atno 17371 bound_to 10713
  141.0314  133.6987  156.1436 LP  0  0  0  0  0  0  0  0  0  0  0  0  # atno 17394 bound_to 11000
  140.7091  134.4481  157.5582 LP  0  0  0  0  0  0  0  0  0  0  0  0  # atno 17395 bound_to 11000

$$$$
