AV-unprocessed.smi:2923|AV-procd|sdf|11207|dock2
  -GOLD-   2272016103D 1   1.00000     0.00000
 Structure written by MMmdl.
 47 49  0  0  0  0  0  0  0  0  2 V2000
  143.8459  132.9364  148.6213 C   0  0  0  0  0  0  0  0  0  0  0  0
  144.3674  132.9460  149.9836 N   0  0  0  0  0  0  0  0  0  0  0  0
  144.5264  131.6979  150.7182 C   0  0  0  0  0  0  0  0  0  0  0  0
  144.6206  134.1762  150.6282 C   0  0  0  0  0  0  0  0  0  0  0  0
  145.0240  134.2739  151.9821 C   0  0  0  0  0  0  0  0  0  0  0  0
  145.2559  135.5411  152.5549 C   0  0  0  0  0  0  0  0  0  0  0  0
  145.0866  136.7074  151.7797 C   0  0  0  0  0  0  0  0  0  0  0  0
  145.3301  137.9560  152.4165 N   0  0  0  0  0  0  0  0  0  0  0  0
  146.2947  138.2948  153.2897 C   0  0  0  0  0  0  0  0  0  0  0  0
  147.1672  137.5430  153.7224 O   0  0  0  0  0  0  0  0  0  0  0  0
  146.1883  139.5807  153.6496 N   0  0  0  0  0  0  0  0  0  0  0  0
  147.0863  140.2516  154.5840 C   0  0  1  0  0  0  0  0  0  0  0  0
  148.4891  140.4700  153.9966 C   0  0  2  0  0  0  0  0  0  0  0  0
  149.6732  139.7664  154.6024 C   0  0  0  0  0  0  0  0  0  0  0  0
  150.2371  140.8145  155.5656 C   0  0  0  0  0  0  0  0  0  0  0  0
  149.1419  141.6891  155.8269 O   0  0  0  0  0  0  0  0  0  0  0  0
  148.4320  141.8639  154.6032 C   0  0  2  0  0  0  0  0  0  0  0  0
  146.8923  141.7867  154.6784 C   0  0  0  0  0  0  0  0  0  0  0  0
  146.1708  142.4843  153.5164 C   0  0  0  0  0  0  0  0  0  0  0  0
  146.2568  142.3078  155.9682 C   0  0  0  0  0  0  0  0  0  0  0  0
  144.6835  136.5571  150.4307 C   0  0  0  0  0  0  0  0  0  0  0  0
  144.4724  135.3238  149.9226 N   0  3  0  0  0  0  0  0  0  0  0  0
  144.5324  133.4446  147.9435 H   0  0  0  0  0  0  0  0  0  0  0  0
  142.8793  133.4393  148.5781 H   0  0  0  0  0  0  0  0  0  0  0  0
  143.7100  131.9187  148.2554 H   0  0  0  0  0  0  0  0  0  0  0  0
  143.8767  131.6828  151.5939 H   0  0  0  0  0  0  0  0  0  0  0  0
  145.5587  131.5754  151.0468 H   0  0  0  0  0  0  0  0  0  0  0  0
  144.2712  130.8378  150.0992 H   0  0  0  0  0  0  0  0  0  0  0  0
  145.1606  133.3956  152.5950 H   0  0  0  0  0  0  0  0  0  0  0  0
  145.5626  135.6119  153.5883 H   0  0  0  0  0  0  0  0  0  0  0  0
  144.6842  138.6928  152.1741 H   0  0  0  0  0  0  0  0  0  0  0  0
  145.4425  140.1337  153.2533 H   0  0  0  0  0  0  0  0  0  0  0  0
  147.1311  139.7791  155.5680 H   0  0  0  0  0  0  0  0  0  0  0  0
  148.4893  140.5081  152.9057 H   0  0  0  0  0  0  0  0  0  0  0  0
  149.3604  138.8721  155.1421 H   0  0  0  0  0  0  0  0  0  0  0  0
  150.4107  139.4676  153.8571 H   0  0  0  0  0  0  0  0  0  0  0  0
  150.6289  140.3759  156.4835 H   0  0  0  0  0  0  0  0  0  0  0  0
  151.0378  141.3818  155.0888 H   0  0  0  0  0  0  0  0  0  0  0  0
  148.8464  142.6455  153.9645 H   0  0  0  0  0  0  0  0  0  0  0  0
  146.2843  143.5673  153.5720 H   0  0  0  0  0  0  0  0  0  0  0  0
  145.1018  142.2685  153.5168 H   0  0  0  0  0  0  0  0  0  0  0  0
  146.5652  142.1721  152.5490 H   0  0  0  0  0  0  0  0  0  0  0  0
  146.4002  143.3830  156.0786 H   0  0  0  0  0  0  0  0  0  0  0  0
  146.6879  141.8327  156.8498 H   0  0  0  0  0  0  0  0  0  0  0  0
  145.1843  142.1121  155.9934 H   0  0  0  0  0  0  0  0  0  0  0  0
  144.5159  137.3603  149.7305 H   0  0  0  0  0  0  0  0  0  0  0  0
  144.1821  135.2536  148.9474 H   0  0  0  0  0  0  0  0  0  0  0  0
  1  2  1  0  0  0  0
  1 23  1  0  0  0  0
  1 24  1  0  0  0  0
  1 25  1  0  0  0  0
  2  3  1  0  0  0  0
  2  4  1  0  0  0  0
  3 26  1  0  0  0  0
  3 27  1  0  0  0  0
  3 28  1  0  0  0  0
  4 22  1  0  0  0  0
  4  5  2  0  0  0  0
  5  6  1  0  0  0  0
  5 29  1  0  0  0  0
  6  7  2  0  0  0  0
  6 30  1  0  0  0  0
  7  8  1  0  0  0  0
  7 21  1  0  0  0  0
  8  9  1  0  0  0  0
  8 31  1  0  0  0  0
  9 10  2  0  0  0  0
  9 11  1  0  0  0  0
 11 12  1  0  0  0  0
 11 32  1  0  0  0  0
 12 18  1  0  0  0  0
 12 13  1  0  0  0  0
 12 33  1  0  0  0  0
 13 17  1  0  0  0  0
 13 14  1  0  0  0  0
 13 34  1  0  0  0  0
 14 15  1  0  0  0  0
 14 35  1  0  0  0  0
 14 36  1  0  0  0  0
 15 16  1  0  0  0  0
 15 37  1  0  0  0  0
 15 38  1  0  0  0  0
 16 17  1  0  0  0  0
 17 18  1  0  0  0  0
 17 39  1  0  0  0  0
 18 19  1  0  0  0  0
 18 20  1  0  0  0  0
 19 40  1  0  0  0  0
 19 41  1  0  0  0  0
 19 42  1  0  0  0  0
 20 43  1  0  0  0  0
 20 44  1  0  0  0  0
 20 45  1  0  0  0  0
 21 22  2  0  0  0  0
 21 46  1  0  0  0  0
 22 47  1  0  0  0  0
M  CHG  1  22   1
M  END
> <s_m_source_file>
AV-unprocessed.smi

> <i_m_source_file_index>
2923

> <i_lp_mmshare_version>
43012

> <i_f3d_flags>
0

> <s_epik_input>
W0NIM11OKFtDSDNdKWMxW2NIXVtjSF1jKFtjSF1uMSlbTkhdQyg9TylbTkhdW0NASF0yQyhbQ0gzXSkoW0NIM10pW0NAQEhdKFtDQEhdMjMpT1tDSDJdW0NIMl0z

> <s_epik_cmdline>
J2VwaWtfcHl0aG9uJywgJy1waCcsICc3LjAnLCAnLXRuJywgJzgnLCAnLW1hJywgJzIwMCcsICctbWV0YWxfYmluZGluZycsICctaW1hZScsICc8aW5maWxlLm1hZT4nLCAnLW9tYWUnLCAnPG91dGZpbGUubWFlPic=

> <r_lp_tautomer_probability>
0.999994

> <r_epik_Ionization_Penalty>
0.252205

> <r_epik_Ionization_Penalty_Charging>
0.252185

> <r_epik_Ionization_Penalty_Neutral>
1.99479e-05

> <r_epik_State_Penalty>
0.243573

> <r_epik_Charging_Adjusted_Penalty>
0.495758

> <i_epik_Tot_Q>
1

> <i_epik_Tot_abs_Q>
1

> <r_epik_Metal_State_Penalty>
0.534372

> <b_epik_Metal_Only>
0

> <s_lp_Force_Field>
OPLS_2005

> <r_lp_Energy>
44.3361

> <b_lp_Chiralities_Consistent>
1

> <s_lp_Variant>
AV-unprocessed.smi:2923-6

> <Gold.Version>
5.8.1

> <Gold.Id.Protein>
6NUR|6NUR_protein|mol2

> <Gold.PLP.Fitness>
40.4419

> <Gold.PLP.PLP>
-35.0245

> <Gold.PLP.part.hbond>
-4.0879

> <Gold.PLP.part.metal>
0.0000

> <Gold.PLP.part.buried>
2.5010

> <Gold.PLP.part.nonpolar>
-35.4020

> <Gold.PLP.part.repulsive>
1.9615

> <Gold.PLP.ligand.clash>
0.0000

> <Gold.PLP.ligand.torsion>
0.4030

> <Gold.PLP.Chemscore.Hbond>
2.0131

> <Gold.PLP.Chemscore.CHOScore>
0.0000

> <Gold.PLP.Chemscore.Metal>
0.0000

> <Gold.Chemscore.Hbonds>
donor molecule, donor type, donor heavy atom, donor atom, acceptor molecule, acceptor atom, score
      L1  H     8    31       P1 10175  0.98
      L1  H    11    32       P1 10175  1.00
      L1  H    22    47       P1  7921  0.02

> <Gold.PLP.Chemscore.Internal.Correction>
0.1841

> <Gold.Rescore>
     Score         DG    S(hbond)    S(metal)    S(lipo)     H(rot)  DE(clash)    DE(int)     intcor
     15.34     -20.22       1.90        0.00      93.56       1.00       3.42       1.46       ----

> <Gold.Chemscore.Fitness>
15.3392

> <Gold.Chemscore.DG>
-20.2196

> <Gold.Chemscore.ZeroCoef>
-5.4800

> <Gold.Chemscore.Hbond>
1.9022

> <Gold.Chemscore.Metal>
0.0000

> <Gold.Chemscore.Lipo>
93.5588

> <Gold.Chemscore.Internal_Hbond>
0.0000

> <Gold.Chemscore.DEClash>
3.4208

> <Gold.Chemscore.DEInternal>
1.4597

> <Gold.Chemscore.Rot>
1.0000

> <Gold.Chemscore.Internal.Correction>
   9.000000E+99

> <Gold.Chemscore.Hbonds>
donor molecule, donor type, donor heavy atom, donor atom, acceptor molecule, acceptor atom, score
      L1  H     8    31       P1 10175  0.90
      L1  H    11    32       P1 10175  0.98
      L1  H    22    47       P1  7921  0.02

> <Gold.Chemscore.Hbond.Weighted>
-6.3532

> <Gold.Chemscore.Metal.Weighted>
-0.0000

> <Gold.Chemscore.Lipo.Weighted>
-10.9464

> <Gold.Chemscore.Internal_Hbond.Weighted>
0.0000

> <Gold.Chemscore.DEClash.Weighted>
3.4208

> <Gold.Chemscore.DEInternal.Weighted>
1.4597

> <Gold.Chemscore.Rot.Weighted>
2.5600

> <Gold.Chemscore.Internal.Correction.Weighted>
   9.000000E+99

> <Gold.Protein.RotatedTorsions>
[ 6907 6896 6895 6894 ] final   91.53 input  -60.11 | X-H torsion
[ 7974 7965 7964 7962 ] final  -60.31 input  175.53 | X-H torsion
[ 8008 7997 7996 7995 ] final  132.08 input   59.86 | X-H torsion
[ 10167 10162 10161 10158 ] final -143.76 input  -65.29 | X-H torsion
[ 10718 10713 10712 10709 ] final   67.88 input   66.30 | X-H torsion
[ 10763 10752 10751 10750 ] final -170.77 input  -60.55 | X-H torsion
[ 11005 11000 10999 10996 ] final  132.67 input  -57.11 | X-H torsion

> <Gold.Protein.ActiveResidues>
 VAL166  LYS551  ARG553  GLY616  TRP617  ASP618  TYR619  PRO620  LYS621  CYS622 
 ASP623  PHE694  ASN695  SER759  ASP760  ASP761  ALA762  ILE779  LEU786  VAL792 
 PHE793  MET794  SER795  GLU796  ALA797  LYS798  CYS799  TRP800  GLU811  SER814 

> <Gold.Protein.RotatedAtoms>
  152.5450  134.1642  159.8569 H   0  0  0  0  0  0  0  0  0  0  0  0  # atno 6907 bound_to 6896
  151.1657  133.4809  159.2601 H   0  0  0  0  0  0  0  0  0  0  0  0  # atno 6908 bound_to 6896
  151.1326  135.0149  159.8644 H   0  0  0  0  0  0  0  0  0  0  0  0  # atno 6909 bound_to 6896
  145.8171  140.8563  143.0152 H   0  0  0  0  0  0  0  0  0  0  0  0  # atno 7974 bound_to 7965
  156.2978  140.2555  156.3031 H   0  0  0  0  0  0  0  0  0  0  0  0  # atno 8008 bound_to 7997
  154.9398  140.0396  157.2110 H   0  0  0  0  0  0  0  0  0  0  0  0  # atno 8009 bound_to 7997
  154.8137  140.2848  155.5839 H   0  0  0  0  0  0  0  0  0  0  0  0  # atno 8010 bound_to 7997
  139.7963  143.7896  152.2654 H   0  0  0  0  0  0  0  0  0  0  0  0  # atno 10167 bound_to 10162
  157.6256  130.9344  150.0301 H   0  0  0  0  0  0  0  0  0  0  0  0  # atno 10718 bound_to 10713
  154.6378  135.2894  155.0140 H   0  0  0  0  0  0  0  0  0  0  0  0  # atno 10763 bound_to 10752
  154.1277  135.6538  153.4919 H   0  0  0  0  0  0  0  0  0  0  0  0  # atno 10764 bound_to 10752
  153.0311  135.5303  154.7232 H   0  0  0  0  0  0  0  0  0  0  0  0  # atno 10765 bound_to 10752
  139.9804  134.9550  156.9615 H   0  0  0  0  0  0  0  0  0  0  0  0  # atno 11005 bound_to 11000
  144.6751  140.0479  143.7479 LP  0  0  0  0  0  0  0  0  0  0  0  0  # atno 17320 bound_to 7965
  145.9715  139.2873  143.1096 LP  0  0  0  0  0  0  0  0  0  0  0  0  # atno 17321 bound_to 7965
  139.8002  144.7377  150.9835 LP  0  0  0  0  0  0  0  0  0  0  0  0  # atno 17342 bound_to 10162
  140.7820  143.4352  151.0634 LP  0  0  0  0  0  0  0  0  0  0  0  0  # atno 17343 bound_to 10162
  156.1427  130.3642  149.9558 LP  0  0  0  0  0  0  0  0  0  0  0  0  # atno 17370 bound_to 10713
  156.7596  130.9146  151.3641 LP  0  0  0  0  0  0  0  0  0  0  0  0  # atno 17371 bound_to 10713
  140.5108  134.1004  155.7270 LP  0  0  0  0  0  0  0  0  0  0  0  0  # atno 17394 bound_to 11000
  141.1477  133.9026  157.2176 LP  0  0  0  0  0  0  0  0  0  0  0  0  # atno 17395 bound_to 11000

$$$$
