AV-unprocessed.smi:788|AV-procd|sdf|3732|dock6
  -GOLD-   22720 1163D 1   1.00000     0.00000
 Structure written by MMmdl.
 35 36  0  0  0  0  0  0  0  0  1 V2000
  152.7685  145.2813  157.1894 C   0  0  0  0  0  0  0  0  0  0  0  0
  152.7693  144.2248  158.3078 C   0  0  1  0  0  0  0  0  0  0  0  0
  151.8653  144.6470  159.4840 C   0  0  0  0  0  0  0  0  0  0  0  0
  151.9072  143.6181  160.6241 C   0  0  0  0  0  0  0  0  0  0  0  0
  151.5395  142.2121  160.1259 C   0  0  0  0  0  0  0  0  0  0  0  0
  152.4425  141.7746  158.9544 C   0  0  1  0  0  0  0  0  0  0  0  0
  152.1120  140.3452  158.4915 C   0  0  0  0  0  0  0  0  0  0  0  0
  152.4024  142.8074  157.7997 C   0  0  1  0  0  0  0  0  0  0  0  0
  151.0888  142.8115  157.1521 N   0  0  0  0  0  0  0  0  0  0  0  0
  150.6291  141.9262  156.2529 C   0  0  0  0  0  0  0  0  0  0  0  0
  151.2958  140.9746  155.8503 O   0  0  0  0  0  0  0  0  0  0  0  0
  149.3750  142.1363  155.7983 N   0  0  0  0  0  0  0  0  0  0  0  0
  148.5719  141.4217  154.8607 C   0  0  0  0  0  0  0  0  0  0  0  0
  148.7876  140.1513  154.4805 N   0  0  0  0  0  0  0  0  0  0  0  0
  147.8524  139.7161  153.5517 N   0  0  0  0  0  0  0  0  0  0  0  0
  146.9675  140.6742  153.2626 C   0  0  0  0  0  0  0  0  0  0  0  0
  147.1920  142.2009  154.0980 S   0  0  0  0  0  0  0  0  0  0  0  0
  151.7688  145.4416  156.7847 H   0  0  0  0  0  0  0  0  0  0  0  0
  153.4172  144.9811  156.3663 H   0  0  0  0  0  0  0  0  0  0  0  0
  153.1293  146.2410  157.5598 H   0  0  0  0  0  0  0  0  0  0  0  0
  153.7910  144.1743  158.6876 H   0  0  0  0  0  0  0  0  0  0  0  0
  152.1780  145.6203  159.8631 H   0  0  0  0  0  0  0  0  0  0  0  0
  150.8370  144.7693  159.1405 H   0  0  0  0  0  0  0  0  0  0  0  0
  152.9060  143.5998  161.0618 H   0  0  0  0  0  0  0  0  0  0  0  0
  151.2269  143.9195  161.4210 H   0  0  0  0  0  0  0  0  0  0  0  0
  151.6259  141.5019  160.9489 H   0  0  0  0  0  0  0  0  0  0  0  0
  150.4929  142.1964  159.8179 H   0  0  0  0  0  0  0  0  0  0  0  0
  153.4675  141.7514  159.3277 H   0  0  0  0  0  0  0  0  0  0  0  0
  151.0733  140.2532  158.1731 H   0  0  0  0  0  0  0  0  0  0  0  0
  152.2731  139.6275  159.2962 H   0  0  0  0  0  0  0  0  0  0  0  0
  152.7446  140.0485  157.6544 H   0  0  0  0  0  0  0  0  0  0  0  0
  153.1629  142.5148  157.0736 H   0  0  0  0  0  0  0  0  0  0  0  0
  150.4663  143.5609  157.4188 H   0  0  0  0  0  0  0  0  0  0  0  0
  148.9258  142.9515  156.1893 H   0  0  0  0  0  0  0  0  0  0  0  0
  146.1775  140.4805  152.5523 H   0  0  0  0  0  0  0  0  0  0  0  0
  1  2  1  0  0  0  0
  1 18  1  0  0  0  0
  1 19  1  0  0  0  0
  1 20  1  0  0  0  0
  2  8  1  0  0  0  0
  2  3  1  0  0  0  0
  2 21  1  0  0  0  0
  3  4  1  0  0  0  0
  3 22  1  0  0  0  0
  3 23  1  0  0  0  0
  4  5  1  0  0  0  0
  4 24  1  0  0  0  0
  4 25  1  0  0  0  0
  5  6  1  0  0  0  0
  5 26  1  0  0  0  0
  5 27  1  0  0  0  0
  6  7  1  0  0  0  0
  6  8  1  0  0  0  0
  6 28  1  0  0  0  0
  7 29  1  0  0  0  0
  7 30  1  0  0  0  0
  7 31  1  0  0  0  0
  8  9  1  0  0  0  0
  8 32  1  0  0  0  0
  9 10  1  0  0  0  0
  9 33  1  0  0  0  0
 10 11  2  0  0  0  0
 10 12  1  0  0  0  0
 12 13  1  0  0  0  0
 12 34  1  0  0  0  0
 13 17  1  0  0  0  0
 13 14  2  0  0  0  0
 14 15  1  0  0  0  0
 15 16  2  0  0  0  0
 16 17  1  0  0  0  0
 16 35  1  0  0  0  0
M  END
> <s_m_source_file>
AV-unprocessed.smi

> <i_m_source_file_index>
788

> <i_lp_mmshare_version>
43012

> <i_f3d_flags>
0

> <s_epik_input>
W0NIM11bQ0BASF0xW0NIMl1bQ0gyXVtDSDJdW0NAQEhdKFtDSDNdKVtDQEhdMVtOSF1DKD1PKVtOSF1jMm5uW2NIXXMy

> <s_epik_cmdline>
J2VwaWtfcHl0aG9uJywgJy1waCcsICc3LjAnLCAnLXRuJywgJzgnLCAnLW1hJywgJzIwMCcsICctbWV0YWxfYmluZGluZycsICctaW1hZScsICc8aW5maWxlLm1hZT4nLCAnLW9tYWUnLCAnPG91dGZpbGUubWFlPic=

> <r_lp_tautomer_probability>
1

> <r_epik_Ionization_Penalty>
0.000304078

> <r_epik_Ionization_Penalty_Charging>
0

> <r_epik_Ionization_Penalty_Neutral>
0.000304078

> <r_epik_State_Penalty>
-0

> <r_epik_Charging_Adjusted_Penalty>
0

> <i_epik_Tot_Q>
0

> <i_epik_Tot_abs_Q>
0

> <r_epik_Metal_State_Penalty>
0.164801

> <b_epik_Metal_Only>
0

> <s_lp_Force_Field>
OPLS_2005

> <r_lp_Energy>
12.7564

> <b_lp_Chiralities_Consistent>
1

> <s_lp_Variant>
AV-unprocessed.smi:788-2

> <Gold.Version>
5.8.1

> <Gold.Id.Protein>
6NUR|6NUR_protein|mol2

> <Gold.PLP.Fitness>
33.4900

> <Gold.PLP.PLP>
-28.8494

> <Gold.PLP.part.hbond>
-2.0432

> <Gold.PLP.part.metal>
0.0000

> <Gold.PLP.part.buried>
-4.3523

> <Gold.PLP.part.nonpolar>
-23.9322

> <Gold.PLP.part.repulsive>
1.7343

> <Gold.PLP.ligand.clash>
0.0000

> <Gold.PLP.ligand.torsion>
0.3716

> <Gold.PLP.Chemscore.Hbond>
0.7921

> <Gold.PLP.Chemscore.CHOScore>
1.0000

> <Gold.PLP.Chemscore.Metal>
0.0000

> <Gold.Chemscore.Hbonds>
donor molecule, donor type, donor heavy atom, donor atom, acceptor molecule, acceptor atom, score
      L1  H    12    34       P1  8028  0.66
      P1  H  7989  7998       L1    11  0.10
      L1  C    16    35       P1 10175  1.00

> <Gold.PLP.Chemscore.Internal.Correction>
0.0076

> <Gold.Rescore>
     Score         DG    S(hbond)    S(metal)    S(lipo)     H(rot)  DE(clash)    DE(int)     intcor
     13.06     -20.82       1.50        0.00     110.22       1.00       5.18       2.59       ----

> <Gold.Chemscore.Fitness>
13.0573

> <Gold.Chemscore.DG>
-20.8243

> <Gold.Chemscore.ZeroCoef>
-5.4800

> <Gold.Chemscore.Hbond>
1.4997

> <Gold.Chemscore.Metal>
0.0000

> <Gold.Chemscore.Lipo>
110.2152

> <Gold.Chemscore.Internal_Hbond>
0.0000

> <Gold.Chemscore.DEClash>
5.1752

> <Gold.Chemscore.DEInternal>
2.5918

> <Gold.Chemscore.Rot>
1.0000

> <Gold.Chemscore.Internal.Correction>
   9.000000E+99

> <Gold.Chemscore.Hbonds>
donor molecule, donor type, donor heavy atom, donor atom, acceptor molecule, acceptor atom, score
      L1  H    12    34       P1  8028  0.66
      P1  H  7989  7998       L1    11  0.10

> <Gold.Chemscore.Hbond.Weighted>
-5.0091

> <Gold.Chemscore.Metal.Weighted>
-0.0000

> <Gold.Chemscore.Lipo.Weighted>
-12.8952

> <Gold.Chemscore.Internal_Hbond.Weighted>
0.0000

> <Gold.Chemscore.DEClash.Weighted>
5.1752

> <Gold.Chemscore.DEInternal.Weighted>
2.5918

> <Gold.Chemscore.Rot.Weighted>
2.5600

> <Gold.Chemscore.Internal.Correction.Weighted>
   9.000000E+99

> <Gold.Protein.RotatedTorsions>
[ 6907 6896 6895 6894 ] final -109.68 input  -60.11 | X-H torsion
[ 7974 7965 7964 7962 ] final   88.59 input  175.53 | X-H torsion
[ 8008 7997 7996 7995 ] final   66.69 input   59.86 | X-H torsion
[ 10167 10162 10161 10158 ] final   -6.11 input  -65.29 | X-H torsion
[ 10718 10713 10712 10709 ] final  132.04 input   66.30 | X-H torsion
[ 10763 10752 10751 10750 ] final  172.80 input  -60.55 | X-H torsion
[ 11005 11000 10999 10996 ] final  157.36 input  -57.11 | X-H torsion

> <Gold.Protein.ActiveResidues>
 VAL166  LYS551  ARG553  GLY616  TRP617  ASP618  TYR619  PRO620  LYS621  CYS622 
 ASP623  PHE694  ASN695  SER759  ASP760  ASP761  ALA762  ILE779  LEU786  VAL792 
 PHE793  MET794  SER795  GLU796  ALA797  LYS798  CYS799  TRP800  GLU811  SER814 

> <Gold.Protein.RotatedAtoms>
  150.7577  133.9493  159.3480 H   0  0  0  0  0  0  0  0  0  0  0  0  # atno 6907 bound_to 6896
  151.7408  135.0852  160.0325 H   0  0  0  0  0  0  0  0  0  0  0  0  # atno 6908 bound_to 6896
  152.3529  133.6164  159.5994 H   0  0  0  0  0  0  0  0  0  0  0  0  # atno 6909 bound_to 6896
  145.5437  139.2290  143.2552 H   0  0  0  0  0  0  0  0  0  0  0  0  # atno 7974 bound_to 7965
  155.6812  140.3496  155.4856 H   0  0  0  0  0  0  0  0  0  0  0  0  # atno 8008 bound_to 7997
  155.9605  140.1136  157.0922 H   0  0  0  0  0  0  0  0  0  0  0  0  # atno 8009 bound_to 7997
  154.4142  140.1176  156.5158 H   0  0  0  0  0  0  0  0  0  0  0  0  # atno 8010 bound_to 7997
  140.6986  143.6231  150.8593 H   0  0  0  0  0  0  0  0  0  0  0  0  # atno 10167 bound_to 10162
  157.4909  131.1090  150.9557 H   0  0  0  0  0  0  0  0  0  0  0  0  # atno 10718 bound_to 10713
  154.4312  135.2760  155.1911 H   0  0  0  0  0  0  0  0  0  0  0  0  # atno 10763 bound_to 10752
  154.3817  135.6086  153.5798 H   0  0  0  0  0  0  0  0  0  0  0  0  # atno 10764 bound_to 10752
  152.9836  135.5882  154.4623 H   0  0  0  0  0  0  0  0  0  0  0  0  # atno 10765 bound_to 10752
  140.1762  134.8508  157.2749 H   0  0  0  0  0  0  0  0  0  0  0  0  # atno 11005 bound_to 11000
  146.1964  140.6257  142.9122 LP  0  0  0  0  0  0  0  0  0  0  0  0  # atno 17320 bound_to 7965
  144.7564  140.5318  143.6766 LP  0  0  0  0  0  0  0  0  0  0  0  0  # atno 17321 bound_to 7965
  139.9951  143.5804  152.2896 LP  0  0  0  0  0  0  0  0  0  0  0  0  # atno 17342 bound_to 10162
  139.6474  144.7659  151.2217 LP  0  0  0  0  0  0  0  0  0  0  0  0  # atno 17343 bound_to 10162
  157.0259  130.5692  149.5337 LP  0  0  0  0  0  0  0  0  0  0  0  0  # atno 17370 bound_to 10713
  156.0173  130.5267  150.8172 LP  0  0  0  0  0  0  0  0  0  0  0  0  # atno 17371 bound_to 10713
  140.2319  134.3898  155.7518 LP  0  0  0  0  0  0  0  0  0  0  0  0  # atno 17394 bound_to 11000
  141.2220  133.7219  156.8655 LP  0  0  0  0  0  0  0  0  0  0  0  0  # atno 17395 bound_to 11000

$$$$
