AV-unprocessed.smi:2916|AV-procd|sdf|11189|dock1
  -GOLD-   2272016 83D 1   1.00000     0.00000
 Structure written by MMmdl.
 37 38  0  0  0  0  0  0  0  0  1 V2000
  149.3866  138.8050  154.2843 N   0  0  0  0  0  0  0  0  0  0  0  0
  150.0591  139.8557  154.7650 C   0  0  0  0  0  0  0  0  0  0  0  0
  151.2874  139.8517  154.8237 O   0  0  0  0  0  0  0  0  0  0  0  0
  149.2275  141.0890  155.2165 C   0  0  0  0  0  0  0  0  0  0  0  0
  150.0877  142.1796  155.6976 N   0  0  0  0  0  0  0  0  0  0  0  0
  150.6024  142.0791  157.0635 C   0  0  0  0  0  0  0  0  0  0  0  0
  151.4035  143.3438  157.4122 C   0  0  0  0  0  0  0  0  0  0  0  0
  151.9304  143.2985  158.7651 N   0  0  0  0  0  0  0  0  0  0  0  0
  151.7445  144.2071  159.7855 C   0  0  0  0  0  0  0  0  0  0  0  0
  152.4445  143.7535  160.8665 C   0  0  0  0  0  0  0  0  0  0  0  0
  153.0329  142.5433  160.4042 C   0  0  0  0  0  0  0  0  0  0  0  0
  152.7238  142.2737  159.1461 N   0  0  0  0  0  0  0  0  0  0  0  0
  148.4336  141.6904  154.0225 C   0  0  0  0  0  0  0  0  0  0  0  0
  147.2652  140.8035  153.5568 C   0  0  0  0  0  0  0  0  0  0  0  0
  146.2899  140.5370  154.7104 C   0  0  0  0  0  0  0  0  0  0  0  0
  147.0145  139.9031  155.9047 C   0  0  0  0  0  0  0  0  0  0  0  0
  148.2182  140.7545  156.3591 C   0  0  0  0  0  0  0  0  0  0  0  0
  149.8881  137.9859  153.9736 H   0  0  0  0  0  0  0  0  0  0  0  0
  148.3791  138.8403  154.2288 H   0  0  0  0  0  0  0  0  0  0  0  0
  149.5894  143.0529  155.5977 H   0  0  0  0  0  0  0  0  0  0  0  0
  149.7949  141.9552  157.7847 H   0  0  0  0  0  0  0  0  0  0  0  0
  151.2496  141.2066  157.1534 H   0  0  0  0  0  0  0  0  0  0  0  0
  152.2462  143.4457  156.7276 H   0  0  0  0  0  0  0  0  0  0  0  0
  150.7925  144.2397  157.2884 H   0  0  0  0  0  0  0  0  0  0  0  0
  151.1401  145.0931  159.6568 H   0  0  0  0  0  0  0  0  0  0  0  0
  152.5249  144.2161  161.8388 H   0  0  0  0  0  0  0  0  0  0  0  0
  153.6719  141.8580  160.9415 H   0  0  0  0  0  0  0  0  0  0  0  0
  148.0259  142.6624  154.3068 H   0  0  0  0  0  0  0  0  0  0  0  0
  149.0930  141.8926  153.1771 H   0  0  0  0  0  0  0  0  0  0  0  0
  146.7388  141.2897  152.7350 H   0  0  0  0  0  0  0  0  0  0  0  0
  147.6414  139.8587  153.1629 H   0  0  0  0  0  0  0  0  0  0  0  0
  145.8237  141.4732  155.0198 H   0  0  0  0  0  0  0  0  0  0  0  0
  145.4829  139.8847  154.3751 H   0  0  0  0  0  0  0  0  0  0  0  0
  146.3175  139.7832  156.7343 H   0  0  0  0  0  0  0  0  0  0  0  0
  147.3391  138.8973  155.6391 H   0  0  0  0  0  0  0  0  0  0  0  0
  148.7149  140.2432  157.1843 H   0  0  0  0  0  0  0  0  0  0  0  0
  147.8323  141.6834  156.7829 H   0  0  0  0  0  0  0  0  0  0  0  0
  1  2  1  0  0  0  0
  1 18  1  0  0  0  0
  1 19  1  0  0  0  0
  2  3  2  0  0  0  0
  2  4  1  0  0  0  0
  4 17  1  0  0  0  0
  4  5  1  0  0  0  0
  4 13  1  0  0  0  0
  5  6  1  0  0  0  0
  5 20  1  0  0  0  0
  6  7  1  0  0  0  0
  6 21  1  0  0  0  0
  6 22  1  0  0  0  0
  7  8  1  0  0  0  0
  7 23  1  0  0  0  0
  7 24  1  0  0  0  0
  8 12  1  0  0  0  0
  8  9  1  0  0  0  0
  9 10  2  0  0  0  0
  9 25  1  0  0  0  0
 10 11  1  0  0  0  0
 10 26  1  0  0  0  0
 11 12  2  0  0  0  0
 11 27  1  0  0  0  0
 13 14  1  0  0  0  0
 13 28  1  0  0  0  0
 13 29  1  0  0  0  0
 14 15  1  0  0  0  0
 14 30  1  0  0  0  0
 14 31  1  0  0  0  0
 15 16  1  0  0  0  0
 15 32  1  0  0  0  0
 15 33  1  0  0  0  0
 16 17  1  0  0  0  0
 16 34  1  0  0  0  0
 16 35  1  0  0  0  0
 17 36  1  0  0  0  0
 17 37  1  0  0  0  0
M  END
> <s_m_source_file>
AV-unprocessed.smi

> <i_m_source_file_index>
2916

> <i_lp_mmshare_version>
43012

> <i_f3d_flags>
0

> <s_epik_input>
W0NIMl0xW0NIMl1bQ0gyXVtDSDJdW0NIMl1DMShDKD1PKVtOSDJdKVtOSF1bQ0gyXVtDSDJdbjJbY0hdW2NIXVtjSF1uMg==

> <s_epik_cmdline>
J2VwaWtfcHl0aG9uJywgJy1waCcsICc3LjAnLCAnLXRuJywgJzgnLCAnLW1hJywgJzIwMCcsICctbWV0YWxfYmluZGluZycsICctaW1hZScsICc8aW5maWxlLm1hZT4nLCAnLW9tYWUnLCAnPG91dGZpbGUubWFlPic=

> <r_lp_tautomer_probability>
1

> <r_epik_Ionization_Penalty>
0.895772

> <r_epik_Ionization_Penalty_Charging>
0

> <r_epik_Ionization_Penalty_Neutral>
0.895772

> <r_epik_State_Penalty>
0.934109

> <r_epik_Charging_Adjusted_Penalty>
0.934109

> <i_epik_Tot_Q>
0

> <i_epik_Tot_abs_Q>
0

> <r_epik_Metal_State_Penalty>
0.933276

> <b_epik_Metal_Only>
0

> <s_lp_Force_Field>
OPLS_2005

> <r_lp_Energy>
12.2075

> <b_lp_Chiralities_Consistent>
1

> <s_lp_Variant>
AV-unprocessed.smi:2916-2

> <Gold.Version>
5.8.1

> <Gold.Id.Protein>
6NUR|6NUR_protein|mol2

> <Gold.PLP.Fitness>
41.0600

> <Gold.PLP.PLP>
-35.5953

> <Gold.PLP.part.hbond>
-2.1477

> <Gold.PLP.part.metal>
0.0000

> <Gold.PLP.part.buried>
-3.5599

> <Gold.PLP.part.nonpolar>
-29.3494

> <Gold.PLP.part.repulsive>
0.1208

> <Gold.PLP.ligand.clash>
0.0000

> <Gold.PLP.ligand.torsion>
0.2790

> <Gold.PLP.Chemscore.Hbond>
2.0000

> <Gold.PLP.Chemscore.CHOScore>
0.0000

> <Gold.PLP.Chemscore.Metal>
0.0000

> <Gold.Chemscore.Hbonds>
donor molecule, donor type, donor heavy atom, donor atom, acceptor molecule, acceptor atom, score
      L1  H     5    20       P1  8028  1.00
      P1  H  7989  7998       L1     3  1.00

> <Gold.PLP.Chemscore.Internal.Correction>
0.0228

> <Gold.Rescore>
     Score         DG    S(hbond)    S(metal)    S(lipo)     H(rot)  DE(clash)    DE(int)     intcor
     14.38     -16.11       1.99        0.00      82.10       2.20       0.05       1.68       ----

> <Gold.Chemscore.Fitness>
14.3807

> <Gold.Chemscore.DG>
-16.1074

> <Gold.Chemscore.ZeroCoef>
-5.4800

> <Gold.Chemscore.Hbond>
1.9929

> <Gold.Chemscore.Metal>
0.0000

> <Gold.Chemscore.Lipo>
82.1019

> <Gold.Chemscore.Internal_Hbond>
0.0000

> <Gold.Chemscore.DEClash>
0.0497

> <Gold.Chemscore.DEInternal>
1.6770

> <Gold.Chemscore.Rot>
2.2011

> <Gold.Chemscore.Internal.Correction>
   9.000000E+99

> <Gold.Chemscore.Hbonds>
donor molecule, donor type, donor heavy atom, donor atom, acceptor molecule, acceptor atom, score
      L1  H     5    20       P1  8028  1.00
      P1  H  7989  7998       L1     3  0.26

> <Gold.Chemscore.Hbond.Weighted>
-6.6563

> <Gold.Chemscore.Metal.Weighted>
-0.0000

> <Gold.Chemscore.Lipo.Weighted>
-9.6059

> <Gold.Chemscore.Internal_Hbond.Weighted>
0.0000

> <Gold.Chemscore.DEClash.Weighted>
0.0497

> <Gold.Chemscore.DEInternal.Weighted>
1.6770

> <Gold.Chemscore.Rot.Weighted>
5.6348

> <Gold.Chemscore.Internal.Correction.Weighted>
   9.000000E+99

> <Gold.Protein.RotatedTorsions>
[ 6907 6896 6895 6894 ] final  -91.21 input  -60.11 | X-H torsion
[ 7974 7965 7964 7962 ] final   38.84 input  175.53 | X-H torsion
[ 8008 7997 7996 7995 ] final  -78.16 input   59.86 | X-H torsion
[ 10167 10162 10161 10158 ] final  -39.52 input  -65.29 | X-H torsion
[ 10718 10713 10712 10709 ] final  165.82 input   66.30 | X-H torsion
[ 10763 10752 10751 10750 ] final -173.54 input  -60.55 | X-H torsion
[ 11005 11000 10999 10996 ] final  -42.93 input  -57.11 | X-H torsion

> <Gold.Protein.ActiveResidues>
 VAL166  LYS551  ARG553  GLY616  TRP617  ASP618  TYR619  PRO620  LYS621  CYS622 
 ASP623  PHE694  ASN695  SER759  ASP760  ASP761  ALA762  ILE779  LEU786  VAL792 
 PHE793  MET794  SER795  GLU796  ALA797  LYS798  CYS799  TRP800  GLU811  SER814 

> <Gold.Protein.RotatedAtoms>
  150.6890  134.2312  159.4434 H   0  0  0  0  0  0  0  0  0  0  0  0  # atno 6907 bound_to 6896
  152.0262  134.9792  160.0581 H   0  0  0  0  0  0  0  0  0  0  0  0  # atno 6908 bound_to 6896
  152.1349  133.4394  159.4775 H   0  0  0  0  0  0  0  0  0  0  0  0  # atno 6909 bound_to 6896
  146.1031  139.5723  142.9401 H   0  0  0  0  0  0  0  0  0  0  0  0  # atno 7974 bound_to 7965
  154.5663  140.0699  156.8897 H   0  0  0  0  0  0  0  0  0  0  0  0  # atno 8008 bound_to 7997
  155.2716  140.3365  155.4246 H   0  0  0  0  0  0  0  0  0  0  0  0  # atno 8009 bound_to 7997
  156.2083  140.1749  156.7736 H   0  0  0  0  0  0  0  0  0  0  0  0  # atno 8010 bound_to 7997
  140.7062  143.3209  151.2794 H   0  0  0  0  0  0  0  0  0  0  0  0  # atno 10167 bound_to 10162
  157.0746  131.0375  151.2598 H   0  0  0  0  0  0  0  0  0  0  0  0  # atno 10718 bound_to 10713
  154.6067  135.2860  155.0476 H   0  0  0  0  0  0  0  0  0  0  0  0  # atno 10763 bound_to 10752
  154.1721  135.6471  153.5016 H   0  0  0  0  0  0  0  0  0  0  0  0  # atno 10764 bound_to 10752
  153.0178  135.5403  154.6806 H   0  0  0  0  0  0  0  0  0  0  0  0  # atno 10765 bound_to 10752
  141.0349  133.6804  156.2662 H   0  0  0  0  0  0  0  0  0  0  0  0  # atno 11005 bound_to 11000
  145.5815  141.0382  143.2119 LP  0  0  0  0  0  0  0  0  0  0  0  0  # atno 17320 bound_to 7965
  144.7448  139.7349  143.7296 LP  0  0  0  0  0  0  0  0  0  0  0  0  # atno 17321 bound_to 7965
  139.6663  144.0100  152.2725 LP  0  0  0  0  0  0  0  0  0  0  0  0  # atno 17342 bound_to 10162
  139.9683  144.6511  150.8013 LP  0  0  0  0  0  0  0  0  0  0  0  0  # atno 17343 bound_to 10162
  157.4850  130.7787  149.7451 LP  0  0  0  0  0  0  0  0  0  0  0  0  # atno 17370 bound_to 10713
  155.9940  130.3920  150.2875 LP  0  0  0  0  0  0  0  0  0  0  0  0  # atno 17371 bound_to 10713
  140.6340  134.5235  157.5562 LP  0  0  0  0  0  0  0  0  0  0  0  0  # atno 17394 bound_to 11000
  139.9234  134.8104  156.1143 LP  0  0  0  0  0  0  0  0  0  0  0  0  # atno 17395 bound_to 11000

$$$$
