AV-unprocessed.smi:2662|AV-procd|sdf|10319|dock1
  -GOLD-   2272014333D 1   1.00000     0.00000
 Structure written by MMmdl.
 36 38  0  0  0  0  0  0  0  0  1 V2000
  151.9547  136.9134  153.9063 O   0  0  0  0  0  0  0  0  0  0  0  0
  151.7231  137.9148  154.8763 C   0  0  0  0  0  0  0  0  0  0  0  0
  150.5463  138.7992  154.5746 C   0  0  0  0  0  0  0  0  0  0  0  0
  149.5596  138.4368  153.7511 N   0  0  0  0  0  0  0  0  0  0  0  0
  148.7161  139.5291  153.7820 C   0  0  0  0  0  0  0  0  0  0  0  0
  147.4924  139.7633  153.1154 C   0  0  0  0  0  0  0  0  0  0  0  0
  146.7962  140.9747  153.3071 C   0  0  0  0  0  0  0  0  0  0  0  0
  147.3119  141.9660  154.1670 C   0  0  0  0  0  0  0  0  0  0  0  0
  148.5303  141.7524  154.8399 C   0  0  0  0  0  0  0  0  0  0  0  0
  149.2221  140.5424  154.6432 C   0  0  0  0  0  0  0  0  0  0  0  0
  150.4197  140.0304  155.1330 N   0  0  0  0  0  0  0  0  0  0  0  0
  151.3234  140.7081  156.0538 C   0  0  0  0  0  0  0  0  0  0  0  0
  150.7286  140.8381  157.4713 C   0  0  1  0  0  0  0  0  0  0  0  0
  150.5351  139.5374  157.9903 O   0  0  0  0  0  0  0  0  0  0  0  0
  151.5829  141.7099  158.3851 C   0  0  0  0  0  0  0  0  0  0  0  0
  151.4561  143.1171  158.3531 C   0  0  0  0  0  0  0  0  0  0  0  0
  152.2245  143.9215  159.2162 C   0  0  0  0  0  0  0  0  0  0  0  0
  152.0917  145.2684  159.1818 F   0  0  0  0  0  0  0  0  0  0  0  0
  153.1261  143.3259  160.1180 C   0  0  0  0  0  0  0  0  0  0  0  0
  153.2583  141.9249  160.1559 C   0  0  0  0  0  0  0  0  0  0  0  0
  152.4905  141.1180  159.2940 C   0  0  0  0  0  0  0  0  0  0  0  0
  152.6237  139.7711  159.3531 F   0  0  0  0  0  0  0  0  0  0  0  0
  151.3224  137.0152  153.2118 H   0  0  0  0  0  0  0  0  0  0  0  0
  151.5670  137.4337  155.8420 H   0  0  0  0  0  0  0  0  0  0  0  0
  152.6227  138.5236  154.9539 H   0  0  0  0  0  0  0  0  0  0  0  0
  147.0893  139.0098  152.4551 H   0  0  0  0  0  0  0  0  0  0  0  0
  145.8622  141.1438  152.7917 H   0  0  0  0  0  0  0  0  0  0  0  0
  146.7721  142.8908  154.3087 H   0  0  0  0  0  0  0  0  0  0  0  0
  148.9294  142.5105  155.4972 H   0  0  0  0  0  0  0  0  0  0  0  0
  152.2457  140.1267  156.0922 H   0  0  0  0  0  0  0  0  0  0  0  0
  151.5994  141.6852  155.6577 H   0  0  0  0  0  0  0  0  0  0  0  0
  149.7331  141.2773  157.4028 H   0  0  0  0  0  0  0  0  0  0  0  0
  149.6262  139.4406  158.2295 H   0  0  0  0  0  0  0  0  0  0  0  0
  150.7605  143.5871  157.6737 H   0  0  0  0  0  0  0  0  0  0  0  0
  153.7142  143.9424  160.7817 H   0  0  0  0  0  0  0  0  0  0  0  0
  153.9476  141.4676  160.8504 H   0  0  0  0  0  0  0  0  0  0  0  0
  1  2  1  0  0  0  0
  1 23  1  0  0  0  0
  2  3  1  0  0  0  0
  2 24  1  0  0  0  0
  2 25  1  0  0  0  0
  3 11  1  0  0  0  0
  3  4  2  0  0  0  0
  4  5  1  0  0  0  0
  5 10  2  0  0  0  0
  5  6  1  0  0  0  0
  6  7  2  0  0  0  0
  6 26  1  0  0  0  0
  7  8  1  0  0  0  0
  7 27  1  0  0  0  0
  8  9  2  0  0  0  0
  8 28  1  0  0  0  0
  9 10  1  0  0  0  0
  9 29  1  0  0  0  0
 10 11  1  0  0  0  0
 11 12  1  0  0  0  0
 12 13  1  0  0  0  0
 12 30  1  0  0  0  0
 12 31  1  0  0  0  0
 13 14  1  0  0  0  0
 13 15  1  0  0  0  0
 13 32  1  0  0  0  0
 14 33  1  0  0  0  0
 15 21  1  0  0  0  0
 15 16  2  0  0  0  0
 16 17  1  0  0  0  0
 16 34  1  0  0  0  0
 17 18  1  0  0  0  0
 17 19  2  0  0  0  0
 19 20  1  0  0  0  0
 19 35  1  0  0  0  0
 20 21  2  0  0  0  0
 20 36  1  0  0  0  0
 21 22  1  0  0  0  0
M  END
> <s_m_source_file>
AV-unprocessed.smi

> <i_m_source_file_index>
2662

> <i_lp_mmshare_version>
43012

> <i_f3d_flags>
0

> <s_epik_input>
W2NIXTFbY0hdW2NIXVtjSF1jKGMxMiluKGMobjIpW0NIMl1bT0hdKVtDSDJdW0NASF0oW09IXSljM1tjSF1jKEYpW2NIXVtjSF1jM0Y=

> <s_epik_cmdline>
J2VwaWtfcHl0aG9uJywgJy1waCcsICc3LjAnLCAnLXRuJywgJzgnLCAnLW1hJywgJzIwMCcsICctbWV0YWxfYmluZGluZycsICctaW1hZScsICc8aW5maWxlLm1hZT4nLCAnLW9tYWUnLCAnPG91dGZpbGUubWFlPic=

> <r_epik_Ionization_Penalty>
0.0634732

> <r_epik_Ionization_Penalty_Charging>
0

> <r_epik_Ionization_Penalty_Neutral>
0.0634732

> <r_epik_State_Penalty>
0.0551572

> <r_epik_Charging_Adjusted_Penalty>
0.0551572

> <i_epik_Tot_Q>
0

> <i_epik_Tot_abs_Q>
0

> <r_epik_Metal_State_Penalty>
5.78034e-05

> <b_epik_Metal_Only>
0

> <s_lp_Force_Field>
OPLS_2005

> <r_lp_Energy>
12.437

> <b_lp_Chiralities_Consistent>
1

> <s_lp_Variant>
AV-unprocessed.smi:2662-2

> <Gold.Version>
5.8.1

> <Gold.Id.Protein>
6NUR|6NUR_protein|mol2

> <Gold.PLP.Fitness>
53.6668

> <Gold.PLP.PLP>
-50.9838

> <Gold.PLP.part.hbond>
-2.0000

> <Gold.PLP.part.metal>
0.0000

> <Gold.PLP.part.buried>
-0.8729

> <Gold.PLP.part.nonpolar>
-50.4688

> <Gold.PLP.part.repulsive>
1.9243

> <Gold.PLP.ligand.clash>
0.0000

> <Gold.PLP.ligand.torsion>
1.0662

> <Gold.PLP.Chemscore.Hbond>
1.5868

> <Gold.PLP.Chemscore.CHOScore>
0.0000

> <Gold.PLP.Chemscore.Metal>
0.0000

> <Gold.Chemscore.Hbonds>
donor molecule, donor type, donor heavy atom, donor atom, acceptor molecule, acceptor atom, score
      L1  H     1    23       P1  7949  0.58
      P1  H 10752 10763       L1     1  1.00

> <Gold.PLP.Chemscore.Internal.Correction>
0.0550

> <Gold.Rescore>
     Score         DG    S(hbond)    S(metal)    S(lipo)     H(rot)  DE(clash)    DE(int)     intcor
     13.32     -16.80       1.32        0.00     121.92       2.88       0.54       2.94       ----

> <Gold.Chemscore.Fitness>
13.3181

> <Gold.Chemscore.DG>
-16.8001

> <Gold.Chemscore.ZeroCoef>
-5.4800

> <Gold.Chemscore.Hbond>
1.3233

> <Gold.Chemscore.Metal>
0.0000

> <Gold.Chemscore.Lipo>
121.9196

> <Gold.Chemscore.Internal_Hbond>
0.0000

> <Gold.Chemscore.DEClash>
0.5447

> <Gold.Chemscore.DEInternal>
2.9374

> <Gold.Chemscore.Rot>
2.8767

> <Gold.Chemscore.Internal.Correction>
   9.000000E+99

> <Gold.Chemscore.Hbonds>
donor molecule, donor type, donor heavy atom, donor atom, acceptor molecule, acceptor atom, score
      L1  H     1    23       P1  7949  0.41
      P1  H 10752 10763       L1     1  0.95

> <Gold.Chemscore.Hbond.Weighted>
-4.4200

> <Gold.Chemscore.Metal.Weighted>
-0.0000

> <Gold.Chemscore.Lipo.Weighted>
-14.2646

> <Gold.Chemscore.Internal_Hbond.Weighted>
0.0000

> <Gold.Chemscore.DEClash.Weighted>
0.5447

> <Gold.Chemscore.DEInternal.Weighted>
2.9374

> <Gold.Chemscore.Rot.Weighted>
7.3644

> <Gold.Chemscore.Internal.Correction.Weighted>
   9.000000E+99

> <Gold.Protein.RotatedTorsions>
[ 6907 6896 6895 6894 ] final   11.63 input  -60.11 | X-H torsion
[ 7974 7965 7964 7962 ] final   38.68 input  175.53 | X-H torsion
[ 8008 7997 7996 7995 ] final -149.42 input   59.86 | X-H torsion
[ 10167 10162 10161 10158 ] final  -16.12 input  -65.29 | X-H torsion
[ 10718 10713 10712 10709 ] final   82.05 input   66.30 | X-H torsion
[ 10763 10752 10751 10750 ] final   17.39 input  -60.55 | X-H torsion
[ 11005 11000 10999 10996 ] final   46.87 input  -57.11 | X-H torsion

> <Gold.Protein.ActiveResidues>
 VAL166  LYS551  ARG553  GLY616  TRP617  ASP618  TYR619  PRO620  LYS621  CYS622 
 ASP623  PHE694  ASN695  SER759  ASP760  ASP761  ALA762  ILE779  LEU786  VAL792 
 PHE793  MET794  SER795  GLU796  ALA797  LYS798  CYS799  TRP800  GLU811  SER814 

> <Gold.Protein.RotatedAtoms>
  151.7573  135.0818  160.0339 H   0  0  0  0  0  0  0  0  0  0  0  0  # atno 6907 bound_to 6896
  152.3376  133.6025  159.5862 H   0  0  0  0  0  0  0  0  0  0  0  0  # atno 6908 bound_to 6896
  150.7460  133.9687  159.3580 H   0  0  0  0  0  0  0  0  0  0  0  0  # atno 6909 bound_to 6896
  146.1043  139.5743  142.9394 H   0  0  0  0  0  0  0  0  0  0  0  0  # atno 7974 bound_to 7965
  155.6073  140.0668  157.2716 H   0  0  0  0  0  0  0  0  0  0  0  0  # atno 8008 bound_to 7997
  154.4263  140.1808  156.1283 H   0  0  0  0  0  0  0  0  0  0  0  0  # atno 8009 bound_to 7997
  156.0113  140.3326  155.6947 H   0  0  0  0  0  0  0  0  0  0  0  0  # atno 8010 bound_to 7997
  140.7229  143.5148  150.9705 H   0  0  0  0  0  0  0  0  0  0  0  0  # atno 10167 bound_to 10162
  157.6848  131.0031  150.2317 H   0  0  0  0  0  0  0  0  0  0  0  0  # atno 10718 bound_to 10713
  153.1343  135.6747  153.9127 H   0  0  0  0  0  0  0  0  0  0  0  0  # atno 10763 bound_to 10752
  153.8604  135.3082  155.3438 H   0  0  0  0  0  0  0  0  0  0  0  0  # atno 10764 bound_to 10752
  154.7734  135.4927  153.9778 H   0  0  0  0  0  0  0  0  0  0  0  0  # atno 10765 bound_to 10752
  140.1330  134.4681  155.8507 H   0  0  0  0  0  0  0  0  0  0  0  0  # atno 11005 bound_to 11000
  145.5792  141.0384  143.2131 LP  0  0  0  0  0  0  0  0  0  0  0  0  # atno 17320 bound_to 7965
  144.7458  139.7324  143.7293 LP  0  0  0  0  0  0  0  0  0  0  0  0  # atno 17321 bound_to 7965
  139.8864  143.7008  152.3151 LP  0  0  0  0  0  0  0  0  0  0  0  0  # atno 17342 bound_to 10162
  139.7308  144.7582  151.0804 LP  0  0  0  0  0  0  0  0  0  0  0  0  # atno 17343 bound_to 10162
  156.2948  130.3750  149.7806 LP  0  0  0  0  0  0  0  0  0  0  0  0  # atno 17370 bound_to 10713
  156.5454  130.8318  151.3282 LP  0  0  0  0  0  0  0  0  0  0  0  0  # atno 17371 bound_to 10713
  141.2173  133.6803  156.7104 LP  0  0  0  0  0  0  0  0  0  0  0  0  # atno 17394 bound_to 11000
  140.2818  134.8310  157.3940 LP  0  0  0  0  0  0  0  0  0  0  0  0  # atno 17395 bound_to 11000

$$$$
