AV-unprocessed.smi:1067|AV-procd|sdf|4672|dock2
  -GOLD-   22720 3183D 1   1.00000     0.00000
 Structure written by MMmdl.
 50 52  0  0  0  0  0  0  0  0  1 V2000
  147.1782  135.2308  153.6943 N   0  0  0  0  0  0  0  0  0  0  0  0
  145.8701  135.0462  153.4904 C   0  0  0  0  0  0  0  0  0  0  0  0
  145.1728  134.4946  154.3406 O   0  0  0  0  0  0  0  0  0  0  0  0
  145.2442  135.5600  152.1617 C   0  0  0  0  0  0  0  0  0  0  0  0
  145.4724  137.0954  152.0559 C   0  0  0  0  0  0  0  0  0  0  0  0
  146.8049  137.5341  152.4751 N   0  0  0  0  0  0  0  0  0  0  0  0
  147.0634  138.5082  153.3588 C   0  0  0  0  0  0  0  0  0  0  0  0
  146.1882  139.1704  153.9163 O   0  0  0  0  0  0  0  0  0  0  0  0
  148.3866  138.6625  153.5365 N   0  0  0  0  0  0  0  0  0  0  0  0
  149.0606  139.5830  154.3831 C   0  0  0  0  0  0  0  0  0  0  0  0
  148.6067  140.8947  154.6537 C   0  0  0  0  0  0  0  0  0  0  0  0
  149.3573  141.7109  155.5212 C   0  0  0  0  0  0  0  0  0  0  0  0
  150.5375  141.1942  156.1064 C   0  0  0  0  0  0  0  0  0  0  0  0
  151.3234  141.9829  156.9693 N   0  0  0  0  0  0  0  0  0  0  0  0
  151.8642  141.4610  158.2143 C   0  0  0  0  0  0  0  0  0  0  0  0
  152.5552  142.6588  158.8642 C   0  0  0  0  0  0  0  0  0  0  0  0
  151.6990  143.8415  158.4106 C   0  0  0  0  0  0  0  0  0  0  0  0
  151.2006  143.4330  157.0192 C   0  0  0  0  0  0  0  0  0  0  0  0
  150.9633  139.9333  155.8554 N   0  0  0  0  0  0  0  0  0  0  0  0
  150.2394  139.1545  155.0246 C   0  0  0  0  0  0  0  0  0  0  0  0
  145.8656  134.8773  150.9113 C   0  0  0  0  0  0  0  0  0  0  0  0
  145.4930  133.3857  150.7994 C   0  0  0  0  0  0  0  0  0  0  0  0
  144.0785  133.2439  150.7671 O   0  0  0  0  0  0  0  0  0  0  0  0
  143.4466  133.7281  151.9457 C   0  0  0  0  0  0  0  0  0  0  0  0
  143.7256  135.2347  152.1100 C   0  0  0  0  0  0  0  0  0  0  0  0
  147.6037  134.8996  154.5482 H   0  0  0  0  0  0  0  0  0  0  0  0
  147.7380  135.6950  152.9940 H   0  0  0  0  0  0  0  0  0  0  0  0
  145.3387  137.4151  151.0216 H   0  0  0  0  0  0  0  0  0  0  0  0
  144.7063  137.6292  152.6208 H   0  0  0  0  0  0  0  0  0  0  0  0
  147.5892  137.0433  152.0708 H   0  0  0  0  0  0  0  0  0  0  0  0
  148.9831  138.0965  152.9509 H   0  0  0  0  0  0  0  0  0  0  0  0
  147.6980  141.2874  154.2246 H   0  0  0  0  0  0  0  0  0  0  0  0
  149.0211  142.7174  155.7199 H   0  0  0  0  0  0  0  0  0  0  0  0
  151.0482  141.0991  158.8412 H   0  0  0  0  0  0  0  0  0  0  0  0
  152.5595  140.6390  158.0408 H   0  0  0  0  0  0  0  0  0  0  0  0
  152.6263  142.5715  159.9486 H   0  0  0  0  0  0  0  0  0  0  0  0
  153.5655  142.7628  158.4660 H   0  0  0  0  0  0  0  0  0  0  0  0
  150.8484  143.9529  159.0845 H   0  0  0  0  0  0  0  0  0  0  0  0
  152.2458  144.7845  158.4035 H   0  0  0  0  0  0  0  0  0  0  0  0
  151.8281  143.8669  156.2401 H   0  0  0  0  0  0  0  0  0  0  0  0
  150.1742  143.7649  156.8593 H   0  0  0  0  0  0  0  0  0  0  0  0
  150.6214  138.1573  154.8611 H   0  0  0  0  0  0  0  0  0  0  0  0
  145.5065  135.3808  150.0124 H   0  0  0  0  0  0  0  0  0  0  0  0
  146.9496  134.9955  150.8886 H   0  0  0  0  0  0  0  0  0  0  0  0
  145.9039  132.9686  149.8799 H   0  0  0  0  0  0  0  0  0  0  0  0
  145.9097  132.8021  151.6211 H   0  0  0  0  0  0  0  0  0  0  0  0
  142.3734  133.5575  151.8589 H   0  0  0  0  0  0  0  0  0  0  0  0
  143.7845  133.1610  152.8140 H   0  0  0  0  0  0  0  0  0  0  0  0
  143.2091  135.6005  152.9982 H   0  0  0  0  0  0  0  0  0  0  0  0
  143.2718  135.7635  151.2707 H   0  0  0  0  0  0  0  0  0  0  0  0
  1  2  1  0  0  0  0
  1 26  1  0  0  0  0
  1 27  1  0  0  0  0
  2  3  2  0  0  0  0
  2  4  1  0  0  0  0
  4 25  1  0  0  0  0
  4  5  1  0  0  0  0
  4 21  1  0  0  0  0
  5  6  1  0  0  0  0
  5 28  1  0  0  0  0
  5 29  1  0  0  0  0
  6  7  1  0  0  0  0
  6 30  1  0  0  0  0
  7  8  2  0  0  0  0
  7  9  1  0  0  0  0
  9 10  1  0  0  0  0
  9 31  1  0  0  0  0
 10 20  1  0  0  0  0
 10 11  2  0  0  0  0
 11 12  1  0  0  0  0
 11 32  1  0  0  0  0
 12 13  2  0  0  0  0
 12 33  1  0  0  0  0
 13 14  1  0  0  0  0
 13 19  1  0  0  0  0
 14 18  1  0  0  0  0
 14 15  1  0  0  0  0
 15 16  1  0  0  0  0
 15 34  1  0  0  0  0
 15 35  1  0  0  0  0
 16 17  1  0  0  0  0
 16 36  1  0  0  0  0
 16 37  1  0  0  0  0
 17 18  1  0  0  0  0
 17 38  1  0  0  0  0
 17 39  1  0  0  0  0
 18 40  1  0  0  0  0
 18 41  1  0  0  0  0
 19 20  2  0  0  0  0
 20 42  1  0  0  0  0
 21 22  1  0  0  0  0
 21 43  1  0  0  0  0
 21 44  1  0  0  0  0
 22 23  1  0  0  0  0
 22 45  1  0  0  0  0
 22 46  1  0  0  0  0
 23 24  1  0  0  0  0
 24 25  1  0  0  0  0
 24 47  1  0  0  0  0
 24 48  1  0  0  0  0
 25 49  1  0  0  0  0
 25 50  1  0  0  0  0
M  END
> <s_m_source_file>
AV-unprocessed.smi

> <i_m_source_file_index>
1067

> <i_lp_mmshare_version>
43012

> <i_f3d_flags>
0

> <s_epik_input>
W0NIMl0xW0NIMl1PW0NIMl1bQ0gyXUMxKEMoPU8pW05IMl0pW0NIMl1bTkhdQyg9TylbTkhdYzJbY0hdW2NIXWMobltjSF0yKU4zW0NIMl1bQ0gyXVtDSDJdW0NIMl0z

> <s_epik_cmdline>
J2VwaWtfcHl0aG9uJywgJy1waCcsICc3LjAnLCAnLXRuJywgJzgnLCAnLW1hJywgJzIwMCcsICctbWV0YWxfYmluZGluZycsICctaW1hZScsICc8aW5maWxlLm1hZT4nLCAnLW9tYWUnLCAnPG91dGZpbGUubWFlPic=

> <r_lp_tautomer_probability>
1

> <r_epik_Ionization_Penalty>
0.0944962

> <r_epik_Ionization_Penalty_Charging>
0

> <r_epik_Ionization_Penalty_Neutral>
0.0944962

> <r_epik_State_Penalty>
0.0841646

> <r_epik_Charging_Adjusted_Penalty>
0.0841646

> <i_epik_Tot_Q>
0

> <i_epik_Tot_abs_Q>
0

> <r_epik_Metal_State_Penalty>
0.0725577

> <b_epik_Metal_Only>
0

> <s_lp_Force_Field>
OPLS_2005

> <r_lp_Energy>
34.2759

> <b_lp_Chiralities_Consistent>
1

> <s_lp_Variant>
AV-unprocessed.smi:1067-1

> <Gold.Version>
5.8.1

> <Gold.Id.Protein>
6NUR|6NUR_protein|mol2

> <Gold.PLP.Fitness>
47.4388

> <Gold.PLP.PLP>
-41.1807

> <Gold.PLP.part.hbond>
-3.9842

> <Gold.PLP.part.metal>
0.0000

> <Gold.PLP.part.buried>
-3.7740

> <Gold.PLP.part.nonpolar>
-34.5721

> <Gold.PLP.part.repulsive>
0.5201

> <Gold.PLP.ligand.clash>
0.0000

> <Gold.PLP.ligand.torsion>
0.9782

> <Gold.PLP.Chemscore.Hbond>
2.6763

> <Gold.PLP.Chemscore.CHOScore>
0.0000

> <Gold.PLP.Chemscore.Metal>
0.0000

> <Gold.Chemscore.Hbonds>
donor molecule, donor type, donor heavy atom, donor atom, acceptor molecule, acceptor atom, score
      L1  H     1    27       P1  7948  1.00
      L1  H     6    30       P1  7948  1.00
      L1  H     9    31       P1  7948  0.62

> <Gold.PLP.Chemscore.Internal.Correction>
0.1857

> <Gold.Rescore>
     Score         DG    S(hbond)    S(metal)    S(lipo)     H(rot)  DE(clash)    DE(int)     intcor
     18.46     -21.82       2.87        0.00      97.38       1.81       0.08       3.29       ----

> <Gold.Chemscore.Fitness>
18.4554

> <Gold.Chemscore.DG>
-21.8177

> <Gold.Chemscore.ZeroCoef>
-5.4800

> <Gold.Chemscore.Hbond>
2.8658

> <Gold.Chemscore.Metal>
0.0000

> <Gold.Chemscore.Lipo>
97.3757

> <Gold.Chemscore.Internal_Hbond>
0.0000

> <Gold.Chemscore.DEClash>
0.0772

> <Gold.Chemscore.DEInternal>
3.2850

> <Gold.Chemscore.Rot>
1.8075

> <Gold.Chemscore.Internal.Correction>
   9.000000E+99

> <Gold.Chemscore.Hbonds>
donor molecule, donor type, donor heavy atom, donor atom, acceptor molecule, acceptor atom, score
      L1  H     1    27       P1  7948  1.00
      L1  H     6    30       P1  7948  0.98
      L1  H     9    31       P1  7948  0.62

> <Gold.Chemscore.Hbond.Weighted>
-9.5719

> <Gold.Chemscore.Metal.Weighted>
-0.0000

> <Gold.Chemscore.Lipo.Weighted>
-11.3930

> <Gold.Chemscore.Internal_Hbond.Weighted>
0.0000

> <Gold.Chemscore.DEClash.Weighted>
0.0772

> <Gold.Chemscore.DEInternal.Weighted>
3.2850

> <Gold.Chemscore.Rot.Weighted>
4.6272

> <Gold.Chemscore.Internal.Correction.Weighted>
   9.000000E+99

> <Gold.Protein.RotatedTorsions>
[ 6907 6896 6895 6894 ] final   96.02 input  -60.11 | X-H torsion
[ 7974 7965 7964 7962 ] final  -19.40 input  175.53 | X-H torsion
[ 8008 7997 7996 7995 ] final  -97.10 input   59.86 | X-H torsion
[ 10167 10162 10161 10158 ] final  -20.79 input  -65.29 | X-H torsion
[ 10718 10713 10712 10709 ] final   60.98 input   66.30 | X-H torsion
[ 10763 10752 10751 10750 ] final  -27.62 input  -60.55 | X-H torsion
[ 11005 11000 10999 10996 ] final   14.61 input  -57.11 | X-H torsion

> <Gold.Protein.ActiveResidues>
 VAL166  LYS551  ARG553  GLY616  TRP617  ASP618  TYR619  PRO620  LYS621  CYS622 
 ASP623  PHE694  ASN695  SER759  ASP760  ASP761  ALA762  ILE779  LEU786  VAL792 
 PHE793  MET794  SER795  GLU796  ALA797  LYS798  CYS799  TRP800  GLU811  SER814 

> <Gold.Protein.RotatedAtoms>
  152.5439  134.0950  159.8292 H   0  0  0  0  0  0  0  0  0  0  0  0  # atno 6907 bound_to 6896
  151.1034  133.5219  159.2616 H   0  0  0  0  0  0  0  0  0  0  0  0  # atno 6908 bound_to 6896
  151.1965  135.0434  159.8908 H   0  0  0  0  0  0  0  0  0  0  0  0  # atno 6909 bound_to 6896
  146.1843  140.4056  142.8482 H   0  0  0  0  0  0  0  0  0  0  0  0  # atno 7974 bound_to 7965
  154.7832  140.0466  157.1144 H   0  0  0  0  0  0  0  0  0  0  0  0  # atno 8008 bound_to 7997
  154.9679  140.3086  155.4981 H   0  0  0  0  0  0  0  0  0  0  0  0  # atno 8009 bound_to 7997
  156.2939  140.2258  156.4769 H   0  0  0  0  0  0  0  0  0  0  0  0  # atno 8010 bound_to 7997
  140.7278  143.4689  151.0274 H   0  0  0  0  0  0  0  0  0  0  0  0  # atno 10167 bound_to 10162
  157.5794  130.8969  149.9404 H   0  0  0  0  0  0  0  0  0  0  0  0  # atno 10718 bound_to 10713
  153.7351  135.6936  153.4980 H   0  0  0  0  0  0  0  0  0  0  0  0  # atno 10763 bound_to 10752
  153.2108  135.4403  155.0377 H   0  0  0  0  0  0  0  0  0  0  0  0  # atno 10764 bound_to 10752
  154.8240  135.3436  154.6879 H   0  0  0  0  0  0  0  0  0  0  0  0  # atno 10765 bound_to 10752
  140.4675  134.1064  155.7727 H   0  0  0  0  0  0  0  0  0  0  0  0  # atno 11005 bound_to 11000
  144.8370  140.6797  143.6254 LP  0  0  0  0  0  0  0  0  0  0  0  0  # atno 17320 bound_to 7965
  145.3984  139.1602  143.4191 LP  0  0  0  0  0  0  0  0  0  0  0  0  # atno 17321 bound_to 7965
  139.8380  143.7602  152.3180 LP  0  0  0  0  0  0  0  0  0  0  0  0  # atno 17342 bound_to 10162
  139.7741  144.7467  151.0182 LP  0  0  0  0  0  0  0  0  0  0  0  0  # atno 17343 bound_to 10162
  156.0839  130.3670  150.0525 LP  0  0  0  0  0  0  0  0  0  0  0  0  # atno 17370 bound_to 10713
  156.8667  130.9510  151.3613 LP  0  0  0  0  0  0  0  0  0  0  0  0  # atno 17371 bound_to 10713
  141.1592  133.8824  157.1894 LP  0  0  0  0  0  0  0  0  0  0  0  0  # atno 17394 bound_to 11000
  139.9906  135.0066  156.9965 LP  0  0  0  0  0  0  0  0  0  0  0  0  # atno 17395 bound_to 11000

$$$$
