AV-unprocessed.smi:3116|AV-procd|sdf|11874|dock5
  -GOLD-   2272017253D 1   1.00000     0.00000
 Structure written by MMmdl.
 33 33  0  0  0  0  0  0  0  0  1 V2000
  147.9265  141.2423  156.6146 C   0  0  0  0  0  0  0  0  0  0  0  0
  149.3368  141.0988  156.0081 C   0  0  2  0  0  0  0  0  0  0  0  0
  150.2084  142.1880  156.4775 N   0  0  0  0  0  0  0  0  0  0  0  0
  150.4714  142.2058  157.9164 C   0  0  2  0  0  0  0  0  0  0  0  0
  149.3508  142.9562  158.6626 C   0  0  0  0  0  0  0  0  0  0  0  0
  151.8729  142.8159  158.1866 C   0  0  1  0  0  0  0  0  0  0  0  0
  151.9821  144.2947  157.7709 C   0  0  0  0  0  0  0  0  0  0  0  0
  152.3361  142.6082  159.5564 N   0  0  0  0  0  0  0  0  0  0  0  0
  153.3836  141.8312  160.0131 C   0  0  0  0  0  0  0  0  0  0  0  0
  153.4440  141.9784  161.3689 C   0  0  0  0  0  0  0  0  0  0  0  0
  152.3827  142.8800  161.6576 C   0  0  0  0  0  0  0  0  0  0  0  0
  151.7257  143.2572  160.5734 N   0  0  0  0  0  0  0  0  0  0  0  0
  149.3039  141.0785  154.4715 C   0  0  0  0  0  0  0  0  0  0  0  0
  149.7957  139.9888  153.8751 N   0  0  0  0  0  0  0  0  0  0  0  0
  148.8436  142.0180  153.8248 O   0  0  0  0  0  0  0  0  0  0  0  0
  147.2688  140.4376  156.2836 H   0  0  0  0  0  0  0  0  0  0  0  0
  147.4633  142.1888  156.3321 H   0  0  0  0  0  0  0  0  0  0  0  0
  147.9514  141.2062  157.7030 H   0  0  0  0  0  0  0  0  0  0  0  0
  149.7450  140.1342  156.3148 H   0  0  0  0  0  0  0  0  0  0  0  0
  149.8954  143.0931  156.1564 H   0  0  0  0  0  0  0  0  0  0  0  0
  150.4955  141.1759  158.2763 H   0  0  0  0  0  0  0  0  0  0  0  0
  149.5941  143.0639  159.7198 H   0  0  0  0  0  0  0  0  0  0  0  0
  148.4038  142.4198  158.6094 H   0  0  0  0  0  0  0  0  0  0  0  0
  149.1924  143.9561  158.2571 H   0  0  0  0  0  0  0  0  0  0  0  0
  152.5693  142.2808  157.5380 H   0  0  0  0  0  0  0  0  0  0  0  0
  151.7120  144.4259  156.7230 H   0  0  0  0  0  0  0  0  0  0  0  0
  153.0019  144.6601  157.8950 H   0  0  0  0  0  0  0  0  0  0  0  0
  151.3276  144.9354  158.3624 H   0  0  0  0  0  0  0  0  0  0  0  0
  153.9952  141.2454  159.3426 H   0  0  0  0  0  0  0  0  0  0  0  0
  154.1416  141.5147  162.0504 H   0  0  0  0  0  0  0  0  0  0  0  0
  152.0739  143.2712  162.6156 H   0  0  0  0  0  0  0  0  0  0  0  0
  149.7868  139.9215  152.8679 H   0  0  0  0  0  0  0  0  0  0  0  0
  150.1635  139.2333  154.4349 H   0  0  0  0  0  0  0  0  0  0  0  0
  1  2  1  0  0  0  0
  1 16  1  0  0  0  0
  1 17  1  0  0  0  0
  1 18  1  0  0  0  0
  2  3  1  0  0  0  0
  2 13  1  0  0  0  0
  2 19  1  0  0  0  0
  3  4  1  0  0  0  0
  3 20  1  0  0  0  0
  4  5  1  0  0  0  0
  4  6  1  0  0  0  0
  4 21  1  0  0  0  0
  5 22  1  0  0  0  0
  5 23  1  0  0  0  0
  5 24  1  0  0  0  0
  6  7  1  0  0  0  0
  6  8  1  0  0  0  0
  6 25  1  0  0  0  0
  7 26  1  0  0  0  0
  7 27  1  0  0  0  0
  7 28  1  0  0  0  0
  8 12  1  0  0  0  0
  8  9  1  0  0  0  0
  9 10  2  0  0  0  0
  9 29  1  0  0  0  0
 10 11  1  0  0  0  0
 10 30  1  0  0  0  0
 11 12  2  0  0  0  0
 11 31  1  0  0  0  0
 13 14  1  0  0  0  0
 13 15  2  0  0  0  0
 14 32  1  0  0  0  0
 14 33  1  0  0  0  0
M  END
> <s_m_source_file>
AV-unprocessed.smi

> <i_m_source_file_index>
3116

> <i_lp_mmshare_version>
43012

> <i_f3d_flags>
0

> <s_epik_input>
W05IMl1DKD1PKVtDQEhdKFtDSDNdKVtOSF1bQ0BIXShbQ0gzXSlbQ0BIXShbQ0gzXSluMVtjSF1bY0hdW2NIXW4x

> <s_epik_cmdline>
J2VwaWtfcHl0aG9uJywgJy1waCcsICc3LjAnLCAnLXRuJywgJzgnLCAnLW1hJywgJzIwMCcsICctbWV0YWxfYmluZGluZycsICctaW1hZScsICc8aW5maWxlLm1hZT4nLCAnLW9tYWUnLCAnPG91dGZpbGUubWFlPic=

> <r_lp_tautomer_probability>
1

> <r_epik_Ionization_Penalty>
0.865977

> <r_epik_Ionization_Penalty_Charging>
0

> <r_epik_Ionization_Penalty_Neutral>
0.865977

> <r_epik_State_Penalty>
0.901888

> <r_epik_Charging_Adjusted_Penalty>
0.901888

> <i_epik_Tot_Q>
0

> <i_epik_Tot_abs_Q>
0

> <r_epik_Metal_State_Penalty>
0.901181

> <b_epik_Metal_Only>
0

> <s_lp_Force_Field>
OPLS_2005

> <r_lp_Energy>
11.5103

> <b_lp_Chiralities_Consistent>
1

> <s_lp_Variant>
AV-unprocessed.smi:3116-13

> <Gold.Version>
5.8.1

> <Gold.Id.Protein>
6NUR|6NUR_protein|mol2

> <Gold.PLP.Fitness>
43.2284

> <Gold.PLP.PLP>
-36.6277

> <Gold.PLP.part.hbond>
-3.0865

> <Gold.PLP.part.metal>
0.0000

> <Gold.PLP.part.buried>
-5.5818

> <Gold.PLP.part.nonpolar>
-28.3875

> <Gold.PLP.part.repulsive>
1.0500

> <Gold.PLP.ligand.clash>
0.0000

> <Gold.PLP.ligand.torsion>
0.5001

> <Gold.PLP.Chemscore.Hbond>
2.4640

> <Gold.PLP.Chemscore.CHOScore>
0.0000

> <Gold.PLP.Chemscore.Metal>
0.0000

> <Gold.Chemscore.Hbonds>
donor molecule, donor type, donor heavy atom, donor atom, acceptor molecule, acceptor atom, score
      L1  H     3    20       P1  8028  1.00
      L1  H    14    32       P1  7957  1.00
      P1  H  8011  8017       L1    15  0.43

> <Gold.PLP.Chemscore.Internal.Correction>
0.2089

> <Gold.Rescore>
     Score         DG    S(hbond)    S(metal)    S(lipo)     H(rot)  DE(clash)    DE(int)     intcor
     16.19     -17.06       2.58        0.00      77.38       2.38       0.02       0.84       ----

> <Gold.Chemscore.Fitness>
16.1939

> <Gold.Chemscore.DG>
-17.0604

> <Gold.Chemscore.ZeroCoef>
-5.4800

> <Gold.Chemscore.Hbond>
2.5836

> <Gold.Chemscore.Metal>
0.0000

> <Gold.Chemscore.Lipo>
77.3760

> <Gold.Chemscore.Internal_Hbond>
0.0000

> <Gold.Chemscore.DEClash>
0.0249

> <Gold.Chemscore.DEInternal>
0.8415

> <Gold.Chemscore.Rot>
2.3836

> <Gold.Chemscore.Internal.Correction>
   9.000000E+99

> <Gold.Chemscore.Hbonds>
donor molecule, donor type, donor heavy atom, donor atom, acceptor molecule, acceptor atom, score
      L1  H     3    20       P1  8028  0.98
      L1  H    14    32       P1  7957  1.00
      P1  H  8011  8017       L1    15  0.40

> <Gold.Chemscore.Hbond.Weighted>
-8.6293

> <Gold.Chemscore.Metal.Weighted>
-0.0000

> <Gold.Chemscore.Lipo.Weighted>
-9.0530

> <Gold.Chemscore.Internal_Hbond.Weighted>
0.0000

> <Gold.Chemscore.DEClash.Weighted>
0.0249

> <Gold.Chemscore.DEInternal.Weighted>
0.8415

> <Gold.Chemscore.Rot.Weighted>
6.1020

> <Gold.Chemscore.Internal.Correction.Weighted>
   9.000000E+99

> <Gold.Protein.RotatedTorsions>
[ 6907 6896 6895 6894 ] final   29.09 input  -60.11 | X-H torsion
[ 7974 7965 7964 7962 ] final   57.07 input  175.53 | X-H torsion
[ 8008 7997 7996 7995 ] final -108.72 input   59.86 | X-H torsion
[ 10167 10162 10161 10158 ] final  -44.76 input  -65.29 | X-H torsion
[ 10718 10713 10712 10709 ] final  -11.37 input   66.30 | X-H torsion
[ 10763 10752 10751 10750 ] final  -58.63 input  -60.55 | X-H torsion
[ 11005 11000 10999 10996 ] final   44.49 input  -57.11 | X-H torsion

> <Gold.Protein.ActiveResidues>
 VAL166  LYS551  ARG553  GLY616  TRP617  ASP618  TYR619  PRO620  LYS621  CYS622 
 ASP623  PHE694  ASN695  SER759  ASP760  ASP761  ALA762  ILE779  LEU786  VAL792 
 PHE793  MET794  SER795  GLU796  ALA797  LYS798  CYS799  TRP800  GLU811  SER814 

> <Gold.Protein.RotatedAtoms>
  152.0265  134.9793  160.0571 H   0  0  0  0  0  0  0  0  0  0  0  0  # atno 6907 bound_to 6896
  152.1287  133.4390  159.4718 H   0  0  0  0  0  0  0  0  0  0  0  0  # atno 6908 bound_to 6896
  150.6854  134.2366  159.4499 H   0  0  0  0  0  0  0  0  0  0  0  0  # atno 6909 bound_to 6896
  145.9330  139.3823  143.0409 H   0  0  0  0  0  0  0  0  0  0  0  0  # atno 7974 bound_to 7965
  154.9485  140.0401  157.2132 H   0  0  0  0  0  0  0  0  0  0  0  0  # atno 8008 bound_to 7997
  154.8001  140.2850  155.5906 H   0  0  0  0  0  0  0  0  0  0  0  0  # atno 8009 bound_to 7997
  156.2960  140.2557  156.2867 H   0  0  0  0  0  0  0  0  0  0  0  0  # atno 8010 bound_to 7997
  140.6884  143.2914  151.3541 H   0  0  0  0  0  0  0  0  0  0  0  0  # atno 10167 bound_to 10162
  156.6599  130.4979  149.6034 H   0  0  0  0  0  0  0  0  0  0  0  0  # atno 10718 bound_to 10713
  154.2411  135.6343  153.5207 H   0  0  0  0  0  0  0  0  0  0  0  0  # atno 10763 bound_to 10752
  152.9930  135.5542  154.5909 H   0  0  0  0  0  0  0  0  0  0  0  0  # atno 10764 bound_to 10752
  154.5415  135.2895  155.1066 H   0  0  0  0  0  0  0  0  0  0  0  0  # atno 10765 bound_to 10752
  140.1547  134.4417  155.8358 H   0  0  0  0  0  0  0  0  0  0  0  0  # atno 11005 bound_to 11000
  145.8401  140.9585  143.0804 LP  0  0  0  0  0  0  0  0  0  0  0  0  # atno 17320 bound_to 7965
  144.6767  140.0273  143.7483 LP  0  0  0  0  0  0  0  0  0  0  0  0  # atno 17321 bound_to 7965
  139.6264  144.0806  152.2438 LP  0  0  0  0  0  0  0  0  0  0  0  0  # atno 17342 bound_to 10162
  140.0267  144.6112  150.7522 LP  0  0  0  0  0  0  0  0  0  0  0  0  # atno 17343 bound_to 10162
  156.2019  130.6625  151.1176 LP  0  0  0  0  0  0  0  0  0  0  0  0  # atno 17370 bound_to 10713
  157.7113  131.0733  150.6491 LP  0  0  0  0  0  0  0  0  0  0  0  0  # atno 17371 bound_to 10713
  141.2203  133.6887  156.7485 LP  0  0  0  0  0  0  0  0  0  0  0  0  # atno 17394 bound_to 11000
  140.2562  134.8502  157.3715 LP  0  0  0  0  0  0  0  0  0  0  0  0  # atno 17395 bound_to 11000

$$$$
