AV-unprocessed.smi:1898|AV-procd|sdf|7700|dock4
  -GOLD-   22720 9433D 1   1.00000     0.00000
 Structure written by MMmdl.
 46 47  0  0  0  0  0  0  0  0  1 V2000
  153.4858  141.8128  161.1945 C   0  0  0  0  0  0  0  0  0  0  0  0
  152.6674  141.8782  159.9937 N   0  0  0  0  0  0  0  0  0  0  0  0
  152.7975  141.0517  158.9459 C   0  0  0  0  0  0  0  0  0  0  0  0
  153.6222  140.1392  158.9022 O   0  0  0  0  0  0  0  0  0  0  0  0
  151.8484  141.2859  157.7646 C   0  0  0  0  0  0  0  0  0  0  0  0
  151.3441  140.0521  157.1161 N   0  0  0  0  0  0  0  0  0  0  0  0
  152.0215  139.8761  155.8269 C   0  0  0  0  0  0  0  0  0  0  0  0
  151.6157  138.5430  155.1734 C   0  0  0  0  0  0  0  0  0  0  0  0
  150.0961  138.4654  154.9710 C   0  0  0  0  0  0  0  0  0  0  0  0
  149.7274  137.1501  154.4552 N   0  0  0  0  0  0  0  0  0  0  0  0
  149.9798  135.9831  155.0648 C   0  0  0  0  0  0  0  0  0  0  0  0
  150.5577  135.8946  156.1480 O   0  0  0  0  0  0  0  0  0  0  0  0
  149.5400  134.9477  154.3301 N   0  0  0  0  0  0  0  0  0  0  0  0
  149.6384  133.5557  154.6065 C   0  0  0  0  0  0  0  0  0  0  0  0
  150.5597  132.9998  155.5273 C   0  0  0  0  0  0  0  0  0  0  0  0
  150.5602  131.6085  155.7375 C   0  0  0  0  0  0  0  0  0  0  0  0
  149.6343  130.8231  155.0272 C   0  0  0  0  0  0  0  0  0  0  0  0
  148.7413  131.3392  154.1583 N   0  0  0  0  0  0  0  0  0  0  0  0
  148.7391  132.6806  153.9534 C   0  0  0  0  0  0  0  0  0  0  0  0
  147.8201  133.2080  153.0661 O   0  0  0  0  0  0  0  0  0  0  0  0
  146.8755  132.3301  152.4634 C   0  0  0  0  0  0  0  0  0  0  0  0
  149.4022  138.7452  156.3140 C   0  0  0  0  0  0  0  0  0  0  0  0
  149.8859  140.0711  156.9266 C   0  0  0  0  0  0  0  0  0  0  0  0
  153.1871  142.5948  161.8922 H   0  0  0  0  0  0  0  0  0  0  0  0
  154.5395  141.9566  160.9526 H   0  0  0  0  0  0  0  0  0  0  0  0
  153.3710  140.8488  161.6917 H   0  0  0  0  0  0  0  0  0  0  0  0
  151.9659  142.6034  159.9476 H   0  0  0  0  0  0  0  0  0  0  0  0
  151.0066  141.8929  158.1037 H   0  0  0  0  0  0  0  0  0  0  0  0
  152.3875  141.8874  157.0311 H   0  0  0  0  0  0  0  0  0  0  0  0
  151.7908  140.7084  155.1593 H   0  0  0  0  0  0  0  0  0  0  0  0
  153.1024  139.8797  155.9750 H   0  0  0  0  0  0  0  0  0  0  0  0
  152.1254  138.4332  154.2155 H   0  0  0  0  0  0  0  0  0  0  0  0
  151.9528  137.7154  155.7996 H   0  0  0  0  0  0  0  0  0  0  0  0
  149.8041  139.2306  154.2489 H   0  0  0  0  0  0  0  0  0  0  0  0
  149.2513  137.1283  153.5653 H   0  0  0  0  0  0  0  0  0  0  0  0
  149.1538  135.1780  153.4260 H   0  0  0  0  0  0  0  0  0  0  0  0
  151.2534  133.6089  156.0852 H   0  0  0  0  0  0  0  0  0  0  0  0
  151.2515  131.1551  156.4324 H   0  0  0  0  0  0  0  0  0  0  0  0
  149.6058  129.7524  155.1653 H   0  0  0  0  0  0  0  0  0  0  0  0
  146.2225  132.9015  151.8040 H   0  0  0  0  0  0  0  0  0  0  0  0
  146.2465  131.8454  153.2115 H   0  0  0  0  0  0  0  0  0  0  0  0
  147.3687  131.5666  151.8601 H   0  0  0  0  0  0  0  0  0  0  0  0
  148.3206  138.7796  156.1795 H   0  0  0  0  0  0  0  0  0  0  0  0
  149.5999  137.9309  157.0129 H   0  0  0  0  0  0  0  0  0  0  0  0
  149.3696  140.2084  157.8765 H   0  0  0  0  0  0  0  0  0  0  0  0
  149.6002  140.9096  156.2889 H   0  0  0  0  0  0  0  0  0  0  0  0
  1  2  1  0  0  0  0
  1 24  1  0  0  0  0
  1 25  1  0  0  0  0
  1 26  1  0  0  0  0
  2  3  1  0  0  0  0
  2 27  1  0  0  0  0
  3  4  2  0  0  0  0
  3  5  1  0  0  0  0
  5  6  1  0  0  0  0
  5 28  1  0  0  0  0
  5 29  1  0  0  0  0
  6 23  1  0  0  0  0
  6  7  1  0  0  0  0
  7  8  1  0  0  0  0
  7 30  1  0  0  0  0
  7 31  1  0  0  0  0
  8  9  1  0  0  0  0
  8 32  1  0  0  0  0
  8 33  1  0  0  0  0
  9 10  1  0  0  0  0
  9 22  1  0  0  0  0
  9 34  1  0  0  0  0
 10 11  1  0  0  0  0
 10 35  1  0  0  0  0
 11 12  2  0  0  0  0
 11 13  1  0  0  0  0
 13 14  1  0  0  0  0
 13 36  1  0  0  0  0
 14 19  1  0  0  0  0
 14 15  2  0  0  0  0
 15 16  1  0  0  0  0
 15 37  1  0  0  0  0
 16 17  2  0  0  0  0
 16 38  1  0  0  0  0
 17 18  1  0  0  0  0
 17 39  1  0  0  0  0
 18 19  2  0  0  0  0
 19 20  1  0  0  0  0
 20 21  1  0  0  0  0
 21 40  1  0  0  0  0
 21 41  1  0  0  0  0
 21 42  1  0  0  0  0
 22 23  1  0  0  0  0
 22 43  1  0  0  0  0
 22 44  1  0  0  0  0
 23 45  1  0  0  0  0
 23 46  1  0  0  0  0
M  END
> <s_m_source_file>
AV-unprocessed.smi

> <i_m_source_file_index>
1898

> <i_lp_mmshare_version>
43012

> <i_f3d_flags>
0

> <s_epik_input>
W0NIM11bTkhdQyg9TylbQ0gyXU4xW0NIMl1bQ0gyXVtDSF0oW0NIMl1bQ0gyXTEpW05IXUMoPU8pW05IXWMyW2NIXVtjSF1bY0hdbmMyT1tDSDNd

> <s_epik_cmdline>
J2VwaWtfcHl0aG9uJywgJy1waCcsICc3LjAnLCAnLXRuJywgJzgnLCAnLW1hJywgJzIwMCcsICctbWV0YWxfYmluZGluZycsICctaW1hZScsICc8aW5maWxlLm1hZT4nLCAnLW9tYWUnLCAnPG91dGZpbGUubWFlPic=

> <r_lp_tautomer_probability>
1

> <r_epik_Ionization_Penalty>
0.16483

> <r_epik_Ionization_Penalty_Charging>
0

> <r_epik_Ionization_Penalty_Neutral>
0.16483

> <r_epik_State_Penalty>
0.154069

> <r_epik_Charging_Adjusted_Penalty>
0.154069

> <i_epik_Tot_Q>
0

> <i_epik_Tot_abs_Q>
0

> <r_epik_Metal_State_Penalty>
0.158584

> <b_epik_Metal_Only>
0

> <s_lp_Force_Field>
OPLS_2005

> <r_lp_Energy>
15.9116

> <b_lp_Chiralities_Consistent>
1

> <s_lp_Variant>
AV-unprocessed.smi:1898-1

> <Gold.Version>
5.8.1

> <Gold.Id.Protein>
6NUR|6NUR_protein|mol2

> <Gold.PLP.Fitness>
41.9515

> <Gold.PLP.PLP>
-35.3792

> <Gold.PLP.part.hbond>
-3.0000

> <Gold.PLP.part.metal>
0.0000

> <Gold.PLP.part.buried>
-5.9600

> <Gold.PLP.part.nonpolar>
-27.2119

> <Gold.PLP.part.repulsive>
0.4212

> <Gold.PLP.ligand.clash>
0.0000

> <Gold.PLP.ligand.torsion>
1.0743

> <Gold.PLP.Chemscore.Hbond>
2.9040

> <Gold.PLP.Chemscore.CHOScore>
0.0000

> <Gold.PLP.Chemscore.Metal>
0.0000

> <Gold.Chemscore.Hbonds>
donor molecule, donor type, donor heavy atom, donor atom, acceptor molecule, acceptor atom, score
      L1  H    10    35       P1  7948  0.96
      L1  H    13    36       P1  7948  1.00
      P1  H  7997  8009       L1     4  0.90

> <Gold.PLP.Chemscore.Internal.Correction>
0.0089

> <Gold.Rescore>
     Score         DG    S(hbond)    S(metal)    S(lipo)     H(rot)  DE(clash)    DE(int)     intcor
     12.88     -16.21       2.39        0.00      66.60       1.96       0.01       3.31       ----

> <Gold.Chemscore.Fitness>
12.8846

> <Gold.Chemscore.DG>
-16.2096

> <Gold.Chemscore.ZeroCoef>
-5.4800

> <Gold.Chemscore.Hbond>
2.3851

> <Gold.Chemscore.Metal>
0.0000

> <Gold.Chemscore.Lipo>
66.6007

> <Gold.Chemscore.Internal_Hbond>
0.0000

> <Gold.Chemscore.DEClash>
0.0120

> <Gold.Chemscore.DEInternal>
3.3131

> <Gold.Chemscore.Rot>
1.9645

> <Gold.Chemscore.Internal.Correction>
   9.000000E+99

> <Gold.Chemscore.Hbonds>
donor molecule, donor type, donor heavy atom, donor atom, acceptor molecule, acceptor atom, score
      L1  H    10    35       P1  7948  0.91
      L1  H    13    36       P1  7948  0.25
      P1  H  7997  8009       L1     4  0.75

> <Gold.Chemscore.Hbond.Weighted>
-7.9664

> <Gold.Chemscore.Metal.Weighted>
-0.0000

> <Gold.Chemscore.Lipo.Weighted>
-7.7923

> <Gold.Chemscore.Internal_Hbond.Weighted>
0.0000

> <Gold.Chemscore.DEClash.Weighted>
0.0120

> <Gold.Chemscore.DEInternal.Weighted>
3.3131

> <Gold.Chemscore.Rot.Weighted>
5.0290

> <Gold.Chemscore.Internal.Correction.Weighted>
   9.000000E+99

> <Gold.Protein.RotatedTorsions>
[ 6907 6896 6895 6894 ] final   83.12 input  -60.11 | X-H torsion
[ 7974 7965 7964 7962 ] final   77.89 input  175.53 | X-H torsion
[ 8008 7997 7996 7995 ] final  142.44 input   59.86 | X-H torsion
[ 10167 10162 10161 10158 ] final -102.46 input  -65.29 | X-H torsion
[ 10718 10713 10712 10709 ] final  174.61 input   66.30 | X-H torsion
[ 10763 10752 10751 10750 ] final  -40.81 input  -60.55 | X-H torsion
[ 11005 11000 10999 10996 ] final  -29.59 input  -57.11 | X-H torsion

> <Gold.Protein.ActiveResidues>
 VAL166  LYS551  ARG553  GLY616  TRP617  ASP618  TYR619  PRO620  LYS621  CYS622 
 ASP623  PHE694  ASN695  SER759  ASP760  ASP761  ALA762  ILE779  LEU786  VAL792 
 PHE793  MET794  SER795  GLU796  ALA797  LYS798  CYS799  TRP800  GLU811  SER814 

> <Gold.Protein.RotatedAtoms>
  152.5318  134.2945  159.9055 H   0  0  0  0  0  0  0  0  0  0  0  0  # atno 6907 bound_to 6896
  151.2896  133.4165  159.2640 H   0  0  0  0  0  0  0  0  0  0  0  0  # atno 6908 bound_to 6896
  151.0212  134.9486  159.8117 H   0  0  0  0  0  0  0  0  0  0  0  0  # atno 6909 bound_to 6896
  145.6842  139.2533  143.1797 H   0  0  0  0  0  0  0  0  0  0  0  0  # atno 7974 bound_to 7965
  156.2949  140.2288  156.4729 H   0  0  0  0  0  0  0  0  0  0  0  0  # atno 8008 bound_to 7997
  154.7920  140.0453  157.1229 H   0  0  0  0  0  0  0  0  0  0  0  0  # atno 8009 bound_to 7997
  154.9634  140.3057  155.5024 H   0  0  0  0  0  0  0  0  0  0  0  0  # atno 8010 bound_to 7997
  140.2304  143.3611  152.0891 H   0  0  0  0  0  0  0  0  0  0  0  0  # atno 10167 bound_to 10162
  156.9470  131.0019  151.2956 H   0  0  0  0  0  0  0  0  0  0  0  0  # atno 10718 bound_to 10713
  153.9521  135.6749  153.4744 H   0  0  0  0  0  0  0  0  0  0  0  0  # atno 10763 bound_to 10752
  153.0879  135.4889  154.8630 H   0  0  0  0  0  0  0  0  0  0  0  0  # atno 10764 bound_to 10752
  154.7320  135.3140  154.8835 H   0  0  0  0  0  0  0  0  0  0  0  0  # atno 10765 bound_to 10752
  140.9310  133.7338  156.0936 H   0  0  0  0  0  0  0  0  0  0  0  0  # atno 11005 bound_to 11000
  146.0938  140.7625  142.9582 LP  0  0  0  0  0  0  0  0  0  0  0  0  # atno 17320 bound_to 7965
  144.7016  140.3679  143.7151 LP  0  0  0  0  0  0  0  0  0  0  0  0  # atno 17321 bound_to 7965
  139.5112  144.6896  151.5794 LP  0  0  0  0  0  0  0  0  0  0  0  0  # atno 17342 bound_to 10162
  140.6189  143.9296  150.6510 LP  0  0  0  0  0  0  0  0  0  0  0  0  # atno 17343 bound_to 10162
  157.5747  130.8335  149.8439 LP  0  0  0  0  0  0  0  0  0  0  0  0  # atno 17370 bound_to 10713
  156.0379  130.3746  150.1511 LP  0  0  0  0  0  0  0  0  0  0  0  0  # atno 17371 bound_to 10713
  140.7863  134.3669  157.5475 LP  0  0  0  0  0  0  0  0  0  0  0  0  # atno 17394 bound_to 11000
  139.8796  134.9112  156.3033 LP  0  0  0  0  0  0  0  0  0  0  0  0  # atno 17395 bound_to 11000

$$$$
