AV-unprocessed.smi:1194|AV-procd|sdf|4991|dock8
  -GOLD-   22720 3593D 1   1.00000     0.00000
 Structure written by MMmdl.
 47 48  0  0  0  0  0  0  0  0  1 V2000
  147.8967  136.1386  163.2069 C   0  0  0  0  0  0  0  0  0  0  0  0
  147.2310  135.1345  162.2593 C   0  0  0  0  0  0  0  0  0  0  0  0
  147.8370  135.1725  160.8429 C   0  0  0  0  0  0  0  0  0  0  0  0
  147.8471  136.5725  160.2009 C   0  0  0  0  0  0  0  0  0  0  0  0
  147.4550  137.5288  160.8718 O   0  0  0  0  0  0  0  0  0  0  0  0
  148.2993  136.7181  158.9270 N   0  0  0  0  0  0  0  0  0  0  0  0
  148.7156  135.5927  158.0638 C   0  0  0  0  0  0  0  0  0  0  0  0
  147.7362  135.4552  156.8852 C   0  0  0  0  0  0  0  0  0  0  0  0
  147.6161  136.7767  156.1079 C   0  0  0  0  0  0  0  0  0  0  0  0
  147.2823  137.9391  157.0598 C   0  0  0  0  0  0  0  0  0  0  0  0
  148.2814  138.0323  158.2397 C   0  0  2  0  0  0  0  0  0  0  0  0
  149.6814  138.5565  157.8519 C   0  0  0  0  0  0  0  0  0  0  0  0
  150.3934  137.9154  157.0787 O   0  0  0  0  0  0  0  0  0  0  0  0
  150.0665  139.7268  158.3848 N   0  0  0  0  0  0  0  0  0  0  0  0
  151.3489  140.3670  158.1343 C   0  0  0  0  0  0  0  0  0  0  0  0
  151.1430  141.7893  157.5981 C   0  0  0  0  0  0  0  0  0  0  0  0
  151.6556  142.8408  158.5618 C   0  0  0  0  0  0  0  0  0  0  0  0
  152.2907  142.4701  159.7648 C   0  0  0  0  0  0  0  0  0  0  0  0
  152.7446  143.4823  160.6319 C   0  0  0  0  0  0  0  0  0  0  0  0
  152.5431  144.8259  160.2576 C   0  0  0  0  0  0  0  0  0  0  0  0
  151.9356  145.1925  159.1085 N   0  0  0  0  0  0  0  0  0  0  0  0
  151.5030  144.2156  158.2827 C   0  0  0  0  0  0  0  0  0  0  0  0
  147.4543  136.0851  164.2018 H   0  0  0  0  0  0  0  0  0  0  0  0
  147.7778  137.1601  162.8447 H   0  0  0  0  0  0  0  0  0  0  0  0
  148.9640  135.9393  163.3062 H   0  0  0  0  0  0  0  0  0  0  0  0
  147.3299  134.1325  162.6791 H   0  0  0  0  0  0  0  0  0  0  0  0
  146.1622  135.3483  162.2129 H   0  0  0  0  0  0  0  0  0  0  0  0
  148.8619  134.8024  160.8898 H   0  0  0  0  0  0  0  0  0  0  0  0
  147.2730  134.4960  160.1993 H   0  0  0  0  0  0  0  0  0  0  0  0
  149.7200  135.7756  157.6818 H   0  0  0  0  0  0  0  0  0  0  0  0
  148.7874  134.6361  158.5765 H   0  0  0  0  0  0  0  0  0  0  0  0
  148.0630  134.6583  156.2167 H   0  0  0  0  0  0  0  0  0  0  0  0
  146.7549  135.1621  157.2608 H   0  0  0  0  0  0  0  0  0  0  0  0
  148.5525  136.9814  155.5875 H   0  0  0  0  0  0  0  0  0  0  0  0
  146.8489  136.6908  155.3381 H   0  0  0  0  0  0  0  0  0  0  0  0
  147.2457  138.8772  156.5046 H   0  0  0  0  0  0  0  0  0  0  0  0
  146.2771  137.7935  157.4577 H   0  0  0  0  0  0  0  0  0  0  0  0
  147.8914  138.8130  158.8935 H   0  0  0  0  0  0  0  0  0  0  0  0
  149.4268  140.2023  159.0049 H   0  0  0  0  0  0  0  0  0  0  0  0
  151.9243  140.3930  159.0609 H   0  0  0  0  0  0  0  0  0  0  0  0
  151.9171  139.7747  157.4151 H   0  0  0  0  0  0  0  0  0  0  0  0
  151.6552  141.9068  156.6420 H   0  0  0  0  0  0  0  0  0  0  0  0
  150.0845  141.9685  157.4048 H   0  0  0  0  0  0  0  0  0  0  0  0
  152.4259  141.4294  160.0206 H   0  0  0  0  0  0  0  0  0  0  0  0
  153.2346  143.2353  161.5620 H   0  0  0  0  0  0  0  0  0  0  0  0
  152.8787  145.6273  160.8989 H   0  0  0  0  0  0  0  0  0  0  0  0
  151.0193  144.5414  157.3736 H   0  0  0  0  0  0  0  0  0  0  0  0
  1  2  1  0  0  0  0
  1 23  1  0  0  0  0
  1 24  1  0  0  0  0
  1 25  1  0  0  0  0
  2  3  1  0  0  0  0
  2 26  1  0  0  0  0
  2 27  1  0  0  0  0
  3  4  1  0  0  0  0
  3 28  1  0  0  0  0
  3 29  1  0  0  0  0
  4  5  2  0  0  0  0
  4  6  1  0  0  0  0
  6 11  1  0  0  0  0
  6  7  1  0  0  0  0
  7  8  1  0  0  0  0
  7 30  1  0  0  0  0
  7 31  1  0  0  0  0
  8  9  1  0  0  0  0
  8 32  1  0  0  0  0
  8 33  1  0  0  0  0
  9 10  1  0  0  0  0
  9 34  1  0  0  0  0
  9 35  1  0  0  0  0
 10 11  1  0  0  0  0
 10 36  1  0  0  0  0
 10 37  1  0  0  0  0
 11 12  1  0  0  0  0
 11 38  1  0  0  0  0
 12 13  2  0  0  0  0
 12 14  1  0  0  0  0
 14 15  1  0  0  0  0
 14 39  1  0  0  0  0
 15 16  1  0  0  0  0
 15 40  1  0  0  0  0
 15 41  1  0  0  0  0
 16 17  1  0  0  0  0
 16 42  1  0  0  0  0
 16 43  1  0  0  0  0
 17 22  1  0  0  0  0
 17 18  2  0  0  0  0
 18 19  1  0  0  0  0
 18 44  1  0  0  0  0
 19 20  2  0  0  0  0
 19 45  1  0  0  0  0
 20 21  1  0  0  0  0
 20 46  1  0  0  0  0
 21 22  2  0  0  0  0
 22 47  1  0  0  0  0
M  END
> <s_m_source_file>
AV-unprocessed.smi

> <i_m_source_file_index>
1194

> <i_lp_mmshare_version>
43012

> <i_f3d_flags>
0

> <s_epik_input>
W0NIM11bQ0gyXVtDSDJdQyg9TylOMVtDSDJdW0NIMl1bQ0gyXVtDSDJdW0NASF0xQyg9TylbTkhdW0NIMl1bQ0gyXWMyW2NIXVtjSF1bY0hdbltjSF0y

> <s_epik_cmdline>
J2VwaWtfcHl0aG9uJywgJy1waCcsICc3LjAnLCAnLXRuJywgJzgnLCAnLW1hJywgJzIwMCcsICctbWV0YWxfYmluZGluZycsICctaW1hZScsICc8aW5maWxlLm1hZT4nLCAnLW9tYWUnLCAnPG91dGZpbGUubWFlPic=

> <r_epik_Ionization_Penalty>
0.0130932

> <r_epik_Ionization_Penalty_Charging>
0

> <r_epik_Ionization_Penalty_Neutral>
0.0130932

> <r_epik_State_Penalty>
0.0101714

> <r_epik_Charging_Adjusted_Penalty>
0.0101714

> <i_epik_Tot_Q>
0

> <i_epik_Tot_abs_Q>
0

> <r_epik_Metal_State_Penalty>
0.00995056

> <b_epik_Metal_Only>
0

> <s_lp_Force_Field>
OPLS_2005

> <r_lp_Energy>
25.0478

> <b_lp_Chiralities_Consistent>
1

> <s_lp_Variant>
AV-unprocessed.smi:1194-2

> <Gold.Version>
5.8.1

> <Gold.Id.Protein>
6NUR|6NUR_protein|mol2

> <Gold.PLP.Fitness>
45.2847

> <Gold.PLP.PLP>
-38.7887

> <Gold.PLP.part.hbond>
-1.9494

> <Gold.PLP.part.metal>
0.0000

> <Gold.PLP.part.buried>
-5.2418

> <Gold.PLP.part.nonpolar>
-31.9374

> <Gold.PLP.part.repulsive>
0.2797

> <Gold.PLP.ligand.clash>
0.0000

> <Gold.PLP.ligand.torsion>
0.4288

> <Gold.PLP.Chemscore.Hbond>
1.4264

> <Gold.PLP.Chemscore.CHOScore>
1.0000

> <Gold.PLP.Chemscore.Metal>
0.0000

> <Gold.Chemscore.Hbonds>
donor molecule, donor type, donor heavy atom, donor atom, acceptor molecule, acceptor atom, score
      P1  H  6931  6943       L1     5  0.66
      P1  H  6934  6947       L1     5  0.98
      L1  C    22    47       P1  8028  0.56

> <Gold.PLP.Chemscore.Internal.Correction>
0.0745

> <Gold.Rescore>
     Score         DG    S(hbond)    S(metal)    S(lipo)     H(rot)  DE(clash)    DE(int)     intcor
     14.49     -17.25       1.30        0.00     100.33       1.68       0.07       2.69       ----

> <Gold.Chemscore.Fitness>
14.4900

> <Gold.Chemscore.DG>
-17.2515

> <Gold.Chemscore.ZeroCoef>
-5.4800

> <Gold.Chemscore.Hbond>
1.2992

> <Gold.Chemscore.Metal>
0.0000

> <Gold.Chemscore.Lipo>
100.3339

> <Gold.Chemscore.Internal_Hbond>
0.0000

> <Gold.Chemscore.DEClash>
0.0726

> <Gold.Chemscore.DEInternal>
2.6889

> <Gold.Chemscore.Rot>
1.6823

> <Gold.Chemscore.Internal.Correction>
   9.000000E+99

> <Gold.Chemscore.Hbonds>
donor molecule, donor type, donor heavy atom, donor atom, acceptor molecule, acceptor atom, score
      P1  H  6931  6943       L1     5  0.41
      P1  H  6934  6947       L1     5  0.87

> <Gold.Chemscore.Hbond.Weighted>
-4.3392

> <Gold.Chemscore.Metal.Weighted>
-0.0000

> <Gold.Chemscore.Lipo.Weighted>
-11.7391

> <Gold.Chemscore.Internal_Hbond.Weighted>
0.0000

> <Gold.Chemscore.DEClash.Weighted>
0.0726

> <Gold.Chemscore.DEInternal.Weighted>
2.6889

> <Gold.Chemscore.Rot.Weighted>
4.3068

> <Gold.Chemscore.Internal.Correction.Weighted>
   9.000000E+99

> <Gold.Protein.RotatedTorsions>
[ 6907 6896 6895 6894 ] final   49.50 input  -60.11 | X-H torsion
[ 7974 7965 7964 7962 ] final  -93.14 input  175.53 | X-H torsion
[ 8008 7997 7996 7995 ] final    6.34 input   59.86 | X-H torsion
[ 10167 10162 10161 10158 ] final   67.19 input  -65.29 | X-H torsion
[ 10718 10713 10712 10709 ] final  160.50 input   66.30 | X-H torsion
[ 10763 10752 10751 10750 ] final   38.55 input  -60.55 | X-H torsion
[ 11005 11000 10999 10996 ] final  -42.04 input  -57.11 | X-H torsion

> <Gold.Protein.ActiveResidues>
 VAL166  LYS551  ARG553  GLY616  TRP617  ASP618  TYR619  PRO620  LYS621  CYS622 
 ASP623  PHE694  ASN695  SER759  ASP760  ASP761  ALA762  ILE779  LEU786  VAL792 
 PHE793  MET794  SER795  GLU796  ALA797  LYS798  CYS799  TRP800  GLU811  SER814 

> <Gold.Protein.RotatedAtoms>
  152.2914  134.7717  160.0376 H   0  0  0  0  0  0  0  0  0  0  0  0  # atno 6907 bound_to 6896
  151.8261  133.3396  159.3607 H   0  0  0  0  0  0  0  0  0  0  0  0  # atno 6908 bound_to 6896
  150.7232  134.5456  159.5813 H   0  0  0  0  0  0  0  0  0  0  0  0  # atno 6909 bound_to 6896
  145.3905  140.9527  143.2343 H   0  0  0  0  0  0  0  0  0  0  0  0  # atno 7974 bound_to 7965
  154.7398  140.2746  155.6383 H   0  0  0  0  0  0  0  0  0  0  0  0  # atno 8008 bound_to 7997
  156.2871  140.2699  156.2048 H   0  0  0  0  0  0  0  0  0  0  0  0  # atno 8009 bound_to 7997
  155.0273  140.0371  157.2450 H   0  0  0  0  0  0  0  0  0  0  0  0  # atno 8010 bound_to 7997
  140.0922  144.4978  150.7091 H   0  0  0  0  0  0  0  0  0  0  0  0  # atno 10167 bound_to 10162
  157.1495  131.0560  151.2287 H   0  0  0  0  0  0  0  0  0  0  0  0  # atno 10718 bound_to 10713
  152.9997  135.6246  154.2322 H   0  0  0  0  0  0  0  0  0  0  0  0  # atno 10763 bound_to 10752
  154.2064  135.2802  155.2975 H   0  0  0  0  0  0  0  0  0  0  0  0  # atno 10764 bound_to 10752
  154.5642  135.5696  153.7094 H   0  0  0  0  0  0  0  0  0  0  0  0  # atno 10765 bound_to 10752
  141.0288  133.6829  156.2539 H   0  0  0  0  0  0  0  0  0  0  0  0  # atno 11005 bound_to 11000
  144.8443  139.5422  143.6886 LP  0  0  0  0  0  0  0  0  0  0  0  0  # atno 17320 bound_to 7965
  146.2799  139.6851  142.9236 LP  0  0  0  0  0  0  0  0  0  0  0  0  # atno 17321 bound_to 7965
  140.7022  143.2443  151.4830 LP  0  0  0  0  0  0  0  0  0  0  0  0  # atno 17342 bound_to 10162
  139.5718  144.1910  152.1847 LP  0  0  0  0  0  0  0  0  0  0  0  0  # atno 17343 bound_to 10162
  157.4234  130.7450  149.6931 LP  0  0  0  0  0  0  0  0  0  0  0  0  # atno 17370 bound_to 10713
  155.9773  130.4064  150.3720 LP  0  0  0  0  0  0  0  0  0  0  0  0  # atno 17371 bound_to 10713
  140.6444  134.5132  157.5572 LP  0  0  0  0  0  0  0  0  0  0  0  0  # atno 17394 bound_to 11000
  139.9193  134.8180  156.1261 LP  0  0  0  0  0  0  0  0  0  0  0  0  # atno 17395 bound_to 11000

$$$$
