AV-unprocessed.smi:143|AV-procd|sdf|1193|dock5
  -GOLD-   2262018353D 1   1.00000     0.00000
 Structure written by MMmdl.
 38 40  0  0  0  0  0  0  0  0  1 V2000
  151.5479  143.4111  157.8681 O   0  0  0  0  0  0  0  0  0  0  0  0
  151.4559  142.5594  158.7545 C   0  0  0  0  0  0  0  0  0  0  0  0
  150.6410  141.2718  158.5070 C   0  0  0  0  0  0  0  0  0  0  0  0
  150.8667  140.6949  157.1862 N   0  0  0  0  0  0  0  0  0  0  0  0
  152.1247  140.0913  156.9354 C   0  0  0  0  0  0  0  0  0  0  0  0
  153.0129  140.0495  157.7886 O   0  0  0  0  0  0  0  0  0  0  0  0
  152.2658  139.5165  155.6022 C   0  0  0  0  0  0  0  0  0  0  0  0
  153.4134  138.9076  155.2587 F   0  0  0  0  0  0  0  0  0  0  0  0
  151.2583  139.5808  154.7051 C   0  0  0  0  0  0  0  0  0  0  0  0
  150.0456  140.1907  154.9700 N   0  0  0  0  0  0  0  0  0  0  0  0
  148.9616  140.1637  153.9172 C   0  0  2  0  0  0  0  0  0  0  0  0
  148.2327  141.5102  153.7458 C   0  0  0  0  0  0  0  0  0  0  0  0
  146.7827  141.1497  154.0253 C   0  0  0  0  0  0  0  0  0  0  0  0
  146.7547  139.6445  153.7845 C   0  0  0  0  0  0  0  0  0  0  0  0
  148.0111  139.2107  154.2811 O   0  0  0  0  0  0  0  0  0  0  0  0
  149.8051  140.7426  156.2498 C   0  0  0  0  0  0  0  0  0  0  0  0
  148.7115  141.2326  156.5374 O   0  0  0  0  0  0  0  0  0  0  0  0
  152.1000  142.7173  160.0914 C   0  0  0  0  0  0  0  0  0  0  0  0
  153.0672  141.7731  160.5095 C   0  0  0  0  0  0  0  0  0  0  0  0
  153.6918  141.8926  161.7662 C   0  0  0  0  0  0  0  0  0  0  0  0
  153.3534  142.9557  162.6232 C   0  0  0  0  0  0  0  0  0  0  0  0
  154.1956  143.1170  164.3222 Br  0  0  0  0  0  0  0  0  0  0  0  0
  152.3900  143.8990  162.2213 C   0  0  0  0  0  0  0  0  0  0  0  0
  151.7659  143.7818  160.9639 C   0  0  0  0  0  0  0  0  0  0  0  0
  150.8755  140.5092  159.2510 H   0  0  0  0  0  0  0  0  0  0  0  0
  149.5708  141.4588  158.6093 H   0  0  0  0  0  0  0  0  0  0  0  0
  151.4170  139.1326  153.7350 H   0  0  0  0  0  0  0  0  0  0  0  0
  149.4475  139.8495  152.9923 H   0  0  0  0  0  0  0  0  0  0  0  0
  148.6164  142.2839  154.4114 H   0  0  0  0  0  0  0  0  0  0  0  0
  148.3619  141.8456  152.7163 H   0  0  0  0  0  0  0  0  0  0  0  0
  146.5356  141.3647  155.0652 H   0  0  0  0  0  0  0  0  0  0  0  0
  146.0800  141.6923  153.3926 H   0  0  0  0  0  0  0  0  0  0  0  0
  145.9275  139.1504  154.2943 H   0  0  0  0  0  0  0  0  0  0  0  0
  146.6871  139.4220  152.7183 H   0  0  0  0  0  0  0  0  0  0  0  0
  153.3442  140.9477  159.8694 H   0  0  0  0  0  0  0  0  0  0  0  0
  154.4309  141.1667  162.0715 H   0  0  0  0  0  0  0  0  0  0  0  0
  152.1273  144.7151  162.8782 H   0  0  0  0  0  0  0  0  0  0  0  0
  151.0298  144.5235  160.6929 H   0  0  0  0  0  0  0  0  0  0  0  0
  1  2  2  0  0  0  0
  2  3  1  0  0  0  0
  2 18  1  0  0  0  0
  3  4  1  0  0  0  0
  3 25  1  0  0  0  0
  3 26  1  0  0  0  0
  4 16  1  0  0  0  0
  4  5  1  0  0  0  0
  5  6  2  0  0  0  0
  5  7  1  0  0  0  0
  7  8  1  0  0  0  0
  7  9  2  0  0  0  0
  9 10  1  0  0  0  0
  9 27  1  0  0  0  0
 10 11  1  0  0  0  0
 10 16  1  0  0  0  0
 11 15  1  0  0  0  0
 11 12  1  0  0  0  0
 11 28  1  0  0  0  0
 12 13  1  0  0  0  0
 12 29  1  0  0  0  0
 12 30  1  0  0  0  0
 13 14  1  0  0  0  0
 13 31  1  0  0  0  0
 13 32  1  0  0  0  0
 14 15  1  0  0  0  0
 14 33  1  0  0  0  0
 14 34  1  0  0  0  0
 16 17  2  0  0  0  0
 18 24  1  0  0  0  0
 18 19  2  0  0  0  0
 19 20  1  0  0  0  0
 19 35  1  0  0  0  0
 20 21  2  0  0  0  0
 20 36  1  0  0  0  0
 21 22  1  0  0  0  0
 21 23  1  0  0  0  0
 23 24  2  0  0  0  0
 23 37  1  0  0  0  0
 24 38  1  0  0  0  0
M  END
> <s_m_source_file>
AV-unprocessed.smi

> <i_m_source_file_index>
143

> <i_lp_mmshare_version>
43012

> <i_f3d_flags>
0

> <s_epik_input>
W2NIXTFbY0hdYyhCcilbY0hdW2NIXWMxQyg9TylbQ0gyXW4yYyg9TyljKEYpW2NIXW4oYzI9TylbQ0BASF0zW0NIMl1bQ0gyXVtDSDJdTzM=

> <s_epik_cmdline>
J2VwaWtfcHl0aG9uJywgJy1waCcsICc3LjAnLCAnLXRuJywgJzgnLCAnLW1hJywgJzIwMCcsICctbWV0YWxfYmluZGluZycsICctaW1hZScsICc8aW5maWxlLm1hZT4nLCAnLW9tYWUnLCAnPG91dGZpbGUubWFlPic=

> <r_lp_tautomer_probability>
1

> <r_epik_Ionization_Penalty>
4.7008e-09

> <r_epik_Ionization_Penalty_Charging>
4.69459e-09

> <r_epik_Ionization_Penalty_Neutral>
6.21034e-12

> <r_epik_State_Penalty>
-0

> <r_epik_Charging_Adjusted_Penalty>
4.69459e-09

> <i_epik_Tot_Q>
0

> <i_epik_Tot_abs_Q>
0

> <r_epik_Metal_State_Penalty>
-0

> <b_epik_Metal_Only>
0

> <s_epik_Chemistry_Notes>
This compound contains an acetal/aminal-like group ( X-CH(R)-Y where X, Y are N, S, or O) that may be acid/base labile, releasing an aldehyde.

> <s_lp_Force_Field>
OPLS_2005

> <r_lp_Energy>
36.1645

> <b_lp_Chiralities_Consistent>
1

> <s_lp_Variant>
AV-unprocessed.smi:143-1

> <Gold.Version>
5.8.1

> <Gold.Id.Protein>
6NUR|6NUR_protein|mol2

> <Gold.PLP.Fitness>
49.9666

> <Gold.PLP.PLP>
-50.6111

> <Gold.PLP.part.hbond>
-1.0000

> <Gold.PLP.part.metal>
0.0000

> <Gold.PLP.part.buried>
0.1217

> <Gold.PLP.part.nonpolar>
-49.2266

> <Gold.PLP.part.repulsive>
0.2704

> <Gold.PLP.ligand.clash>
0.0000

> <Gold.PLP.ligand.torsion>
1.8374

> <Gold.PLP.Chemscore.Hbond>
1.0000

> <Gold.PLP.Chemscore.CHOScore>
0.0000

> <Gold.PLP.Chemscore.Metal>
0.0000

> <Gold.Chemscore.Hbonds>
donor molecule, donor type, donor heavy atom, donor atom, acceptor molecule, acceptor atom, score
      P1  H  7997  8010       L1     6  1.00

> <Gold.PLP.Chemscore.Internal.Correction>
0.0304

> <Gold.Rescore>
     Score         DG    S(hbond)    S(metal)    S(lipo)     H(rot)  DE(clash)    DE(int)     intcor
     13.10     -18.27       0.89        0.00     118.48       1.58       1.87       3.30       ----

> <Gold.Chemscore.Fitness>
13.1002

> <Gold.Chemscore.DG>
-18.2700

> <Gold.Chemscore.ZeroCoef>
-5.4800

> <Gold.Chemscore.Hbond>
0.8872

> <Gold.Chemscore.Metal>
0.0000

> <Gold.Chemscore.Lipo>
118.4847

> <Gold.Chemscore.Internal_Hbond>
0.0000

> <Gold.Chemscore.DEClash>
1.8710

> <Gold.Chemscore.DEInternal>
3.2988

> <Gold.Chemscore.Rot>
1.5765

> <Gold.Chemscore.Internal.Correction>
   9.000000E+99

> <Gold.Chemscore.Hbonds>
donor molecule, donor type, donor heavy atom, donor atom, acceptor molecule, acceptor atom, score
      P1  H  7997  8010       L1     6  0.63

> <Gold.Chemscore.Hbond.Weighted>
-2.9631

> <Gold.Chemscore.Metal.Weighted>
-0.0000

> <Gold.Chemscore.Lipo.Weighted>
-13.8627

> <Gold.Chemscore.Internal_Hbond.Weighted>
0.0000

> <Gold.Chemscore.DEClash.Weighted>
1.8710

> <Gold.Chemscore.DEInternal.Weighted>
3.2988

> <Gold.Chemscore.Rot.Weighted>
4.0359

> <Gold.Chemscore.Internal.Correction.Weighted>
   9.000000E+99

> <Gold.Protein.RotatedTorsions>
[ 6907 6896 6895 6894 ] final  138.39 input  -60.11 | X-H torsion
[ 7974 7965 7964 7962 ] final  -18.56 input  175.53 | X-H torsion
[ 8008 7997 7996 7995 ] final   37.79 input   59.86 | X-H torsion
[ 10167 10162 10161 10158 ] final -117.71 input  -65.29 | X-H torsion
[ 10718 10713 10712 10709 ] final   50.73 input   66.30 | X-H torsion
[ 10763 10752 10751 10750 ] final  -50.22 input  -60.55 | X-H torsion
[ 11005 11000 10999 10996 ] final  -82.39 input  -57.11 | X-H torsion

> <Gold.Protein.ActiveResidues>
 VAL166  LYS551  ARG553  GLY616  TRP617  ASP618  TYR619  PRO620  LYS621  CYS622 
 ASP623  PHE694  ASN695  SER759  ASP760  ASP761  ALA762  ILE779  LEU786  VAL792 
 PHE793  MET794  SER795  GLU796  ALA797  LYS798  CYS799  TRP800  GLU811  SER814 

> <Gold.Protein.RotatedAtoms>
  152.2671  133.5349  159.5416 H   0  0  0  0  0  0  0  0  0  0  0  0  # atno 6907 bound_to 6896
  150.7146  134.0749  159.3886 H   0  0  0  0  0  0  0  0  0  0  0  0  # atno 6908 bound_to 6896
  151.8665  135.0505  160.0525 H   0  0  0  0  0  0  0  0  0  0  0  0  # atno 6909 bound_to 6896
  146.1886  140.3938  142.8467 H   0  0  0  0  0  0  0  0  0  0  0  0  # atno 7974 bound_to 7965
  155.2095  140.3322  155.4331 H   0  0  0  0  0  0  0  0  0  0  0  0  # atno 8008 bound_to 7997
  156.2376  140.1879  156.7126 H   0  0  0  0  0  0  0  0  0  0  0  0  # atno 8009 bound_to 7997
  154.6087  140.0612  156.9451 H   0  0  0  0  0  0  0  0  0  0  0  0  # atno 8010 bound_to 7997
  140.0654  143.4928  152.2009 H   0  0  0  0  0  0  0  0  0  0  0  0  # atno 10167 bound_to 10162
  157.4913  130.8378  149.8206 H   0  0  0  0  0  0  0  0  0  0  0  0  # atno 10718 bound_to 10713
  154.1068  135.6555  153.4878 H   0  0  0  0  0  0  0  0  0  0  0  0  # atno 10763 bound_to 10752
  153.0270  135.5238  154.7232 H   0  0  0  0  0  0  0  0  0  0  0  0  # atno 10764 bound_to 10752
  154.6400  135.2987  155.0084 H   0  0  0  0  0  0  0  0  0  0  0  0  # atno 10765 bound_to 10752
  141.1663  133.7242  156.8564 H   0  0  0  0  0  0  0  0  0  0  0  0  # atno 11005 bound_to 11000
  144.8444  140.6906  143.6209 LP  0  0  0  0  0  0  0  0  0  0  0  0  # atno 17320 bound_to 7965
  145.3862  139.1626  143.4253 LP  0  0  0  0  0  0  0  0  0  0  0  0  # atno 17321 bound_to 7965
  139.5868  144.7534  151.3499 LP  0  0  0  0  0  0  0  0  0  0  0  0  # atno 17342 bound_to 10162
  140.7152  143.7286  150.7641 LP  0  0  0  0  0  0  0  0  0  0  0  0  # atno 17343 bound_to 10162
  156.0175  130.3808  150.2065 LP  0  0  0  0  0  0  0  0  0  0  0  0  # atno 17370 bound_to 10713
  157.0253  130.9991  151.3328 LP  0  0  0  0  0  0  0  0  0  0  0  0  # atno 17371 bound_to 10713
  140.1879  134.8986  157.3026 LP  0  0  0  0  0  0  0  0  0  0  0  0  # atno 17394 bound_to 11000
  140.2322  134.3895  155.7516 LP  0  0  0  0  0  0  0  0  0  0  0  0  # atno 17395 bound_to 11000

$$$$
