AV-unprocessed.smi:1592|AV-procd|sdf|6402|dock3
  -GOLD-   22720 7 33D 1   1.00000     0.00000
 Structure written by MMmdl.
 27 28  0  0  0  0  0  0  0  0  1 V2000
  150.6704  140.3936  155.2414 O   0  0  0  0  0  0  0  0  0  0  0  0
  149.9822  141.4029  155.3988 C   0  0  0  0  0  0  0  0  0  0  0  0
  150.1401  142.2886  156.3998 N   0  0  0  0  0  0  0  0  0  0  0  0
  151.1020  142.2817  157.4478 C   0  0  0  0  0  0  0  0  0  0  0  0
  151.7464  141.1588  157.8539 N   0  0  0  0  0  0  0  0  0  0  0  0
  152.6457  141.2365  158.8566 C   0  0  0  0  0  0  0  0  0  0  0  0
  152.9600  142.4378  159.5164 C   0  0  0  0  0  0  0  0  0  0  0  0
  152.3013  143.6100  159.1066 C   0  0  0  0  0  0  0  0  0  0  0  0
  151.3603  143.5350  158.0599 C   0  0  0  0  0  0  0  0  0  0  0  0
  150.7159  144.6721  157.6570 O   0  0  0  0  0  0  0  0  0  0  0  0
  148.8392  141.7060  154.4231 C   0  0  1  0  0  0  0  0  0  0  0  0
  148.5192  140.5550  153.4503 C   0  0  0  0  0  0  0  0  0  0  0  0
  147.1578  140.0664  153.9050 C   0  0  0  0  0  0  0  0  0  0  0  0
  146.5538  141.3300  154.4999 C   0  0  0  0  0  0  0  0  0  0  0  0
  147.6505  141.9150  155.1831 O   0  0  0  0  0  0  0  0  0  0  0  0
  149.4940  143.0645  156.4161 H   0  0  0  0  0  0  0  0  0  0  0  0
  153.1285  140.3133  159.1405 H   0  0  0  0  0  0  0  0  0  0  0  0
  153.6864  142.4584  160.3152 H   0  0  0  0  0  0  0  0  0  0  0  0
  152.5153  144.5523  159.5894 H   0  0  0  0  0  0  0  0  0  0  0  0
  150.1323  144.5287  156.9275 H   0  0  0  0  0  0  0  0  0  0  0  0
  149.0586  142.6115  153.8547 H   0  0  0  0  0  0  0  0  0  0  0  0
  148.4553  140.9435  152.4331 H   0  0  0  0  0  0  0  0  0  0  0  0
  149.2595  139.7536  153.4449 H   0  0  0  0  0  0  0  0  0  0  0  0
  146.5605  139.6457  153.0959 H   0  0  0  0  0  0  0  0  0  0  0  0
  147.2718  139.3070  154.6795 H   0  0  0  0  0  0  0  0  0  0  0  0
  146.2076  142.0053  153.7160 H   0  0  0  0  0  0  0  0  0  0  0  0
  145.7224  141.1249  155.1744 H   0  0  0  0  0  0  0  0  0  0  0  0
  1  2  2  0  0  0  0
  2  3  1  0  0  0  0
  2 11  1  0  0  0  0
  3  4  1  0  0  0  0
  3 16  1  0  0  0  0
  4  9  1  0  0  0  0
  4  5  2  0  0  0  0
  5  6  1  0  0  0  0
  6  7  2  0  0  0  0
  6 17  1  0  0  0  0
  7  8  1  0  0  0  0
  7 18  1  0  0  0  0
  8  9  2  0  0  0  0
  8 19  1  0  0  0  0
  9 10  1  0  0  0  0
 10 20  1  0  0  0  0
 11 15  1  0  0  0  0
 11 12  1  0  0  0  0
 11 21  1  0  0  0  0
 12 13  1  0  0  0  0
 12 22  1  0  0  0  0
 12 23  1  0  0  0  0
 13 14  1  0  0  0  0
 13 24  1  0  0  0  0
 13 25  1  0  0  0  0
 14 15  1  0  0  0  0
 14 26  1  0  0  0  0
 14 27  1  0  0  0  0
M  END
> <s_m_source_file>
AV-unprocessed.smi

> <i_m_source_file_index>
1592

> <i_lp_mmshare_version>
43012

> <i_f3d_flags>
0

> <s_epik_input>
TzFbQ0gyXVtDSDJdW0NIMl1bQ0BIXTFDKD1PKVtOSF1jMm5bY0hdW2NIXVtjSF1jMltPSF0=

> <s_epik_cmdline>
J2VwaWtfcHl0aG9uJywgJy1waCcsICc3LjAnLCAnLXRuJywgJzgnLCAnLW1hJywgJzIwMCcsICctbWV0YWxfYmluZGluZycsICctaW1hZScsICc8aW5maWxlLm1hZT4nLCAnLW9tYWUnLCAnPG91dGZpbGUubWFlPic=

> <r_lp_tautomer_probability>
0.43658

> <r_epik_Ionization_Penalty>
0.0209102

> <r_epik_Ionization_Penalty_Charging>
0

> <r_epik_Ionization_Penalty_Neutral>
0.0209102

> <r_epik_State_Penalty>
0.412899

> <r_epik_Charging_Adjusted_Penalty>
0.412899

> <i_epik_Tot_Q>
0

> <i_epik_Tot_abs_Q>
0

> <r_epik_Metal_State_Penalty>
0.372161

> <b_epik_Metal_Only>
0

> <s_lp_Force_Field>
OPLS_2005

> <r_lp_Energy>
20.3979

> <b_lp_Chiralities_Consistent>
1

> <s_lp_Variant>
AV-unprocessed.smi:1592-2

> <Gold.Version>
5.8.1

> <Gold.Id.Protein>
6NUR|6NUR_protein|mol2

> <Gold.PLP.Fitness>
37.3593

> <Gold.PLP.PLP>
-28.9427

> <Gold.PLP.part.hbond>
-3.8225

> <Gold.PLP.part.metal>
0.0000

> <Gold.PLP.part.buried>
1.3699

> <Gold.PLP.part.nonpolar>
-26.5053

> <Gold.PLP.part.repulsive>
0.4883

> <Gold.PLP.ligand.clash>
0.0000

> <Gold.PLP.ligand.torsion>
0.2594

> <Gold.PLP.Chemscore.Hbond>
2.9760

> <Gold.PLP.Chemscore.CHOScore>
0.0000

> <Gold.PLP.Chemscore.Metal>
0.0000

> <Gold.Chemscore.Hbonds>
donor molecule, donor type, donor heavy atom, donor atom, acceptor molecule, acceptor atom, score
      L1  H     3    16       P1  8028  0.99
      L1  H    10    20       P1  8028  1.00
      P1  H  7989  7998       L1     1  0.96

> <Gold.PLP.Chemscore.Internal.Correction>
0.0074

> <Gold.Rescore>
     Score         DG    S(hbond)    S(metal)    S(lipo)     H(rot)  DE(clash)    DE(int)     intcor
     15.14     -18.21       2.39        0.00      72.73       1.47       1.61       1.46       ----

> <Gold.Chemscore.Fitness>
15.1447

> <Gold.Chemscore.DG>
-18.2126

> <Gold.Chemscore.ZeroCoef>
-5.4800

> <Gold.Chemscore.Hbond>
2.3944

> <Gold.Chemscore.Metal>
0.0000

> <Gold.Chemscore.Lipo>
72.7287

> <Gold.Chemscore.Internal_Hbond>
0.0000

> <Gold.Chemscore.DEClash>
1.6079

> <Gold.Chemscore.DEInternal>
1.4599

> <Gold.Chemscore.Rot>
1.4742

> <Gold.Chemscore.Internal.Correction>
   9.000000E+99

> <Gold.Chemscore.Hbonds>
donor molecule, donor type, donor heavy atom, donor atom, acceptor molecule, acceptor atom, score
      L1  H     3    16       P1  8028  0.93
      L1  H    10    20       P1  8028  0.70
      P1  H  7989  7998       L1     1  0.23

> <Gold.Chemscore.Hbond.Weighted>
-7.9972

> <Gold.Chemscore.Metal.Weighted>
-0.0000

> <Gold.Chemscore.Lipo.Weighted>
-8.5093

> <Gold.Chemscore.Internal_Hbond.Weighted>
0.0000

> <Gold.Chemscore.DEClash.Weighted>
1.6079

> <Gold.Chemscore.DEInternal.Weighted>
1.4599

> <Gold.Chemscore.Rot.Weighted>
3.7739

> <Gold.Chemscore.Internal.Correction.Weighted>
   9.000000E+99

> <Gold.Protein.RotatedTorsions>
[ 6907 6896 6895 6894 ] final   83.62 input  -60.11 | X-H torsion
[ 7974 7965 7964 7962 ] final  -38.52 input  175.53 | X-H torsion
[ 8008 7997 7996 7995 ] final -171.14 input   59.86 | X-H torsion
[ 10167 10162 10161 10158 ] final -127.41 input  -65.29 | X-H torsion
[ 10718 10713 10712 10709 ] final  -25.53 input   66.30 | X-H torsion
[ 10763 10752 10751 10750 ] final  126.55 input  -60.55 | X-H torsion
[ 11005 11000 10999 10996 ] final  -39.92 input  -57.11 | X-H torsion

> <Gold.Protein.ActiveResidues>
 VAL166  LYS551  ARG553  GLY616  TRP617  ASP618  TYR619  PRO620  LYS621  CYS622 
 ASP623  PHE694  ASN695  SER759  ASP760  ASP761  ALA762  ILE779  LEU786  VAL792 
 PHE793  MET794  SER795  GLU796  ALA797  LYS798  CYS799  TRP800  GLU811  SER814 

> <Gold.Protein.RotatedAtoms>
  152.5332  134.2867  159.9027 H   0  0  0  0  0  0  0  0  0  0  0  0  # atno 6907 bound_to 6896
  151.2820  133.4198  159.2635 H   0  0  0  0  0  0  0  0  0  0  0  0  # atno 6908 bound_to 6896
  151.0275  134.9530  159.8150 H   0  0  0  0  0  0  0  0  0  0  0  0  # atno 6909 bound_to 6896
  146.0479  140.6521  142.9056 H   0  0  0  0  0  0  0  0  0  0  0  0  # atno 7974 bound_to 7965
  155.9276  140.1085  157.1158 H   0  0  0  0  0  0  0  0  0  0  0  0  # atno 8008 bound_to 7997
  154.4065  140.1244  156.4826 H   0  0  0  0  0  0  0  0  0  0  0  0  # atno 8009 bound_to 7997
  155.7120  140.3471  155.4980 H   0  0  0  0  0  0  0  0  0  0  0  0  # atno 8010 bound_to 7997
  139.9611  143.5948  152.2444 H   0  0  0  0  0  0  0  0  0  0  0  0  # atno 10167 bound_to 10162
  156.4631  130.4508  149.6916 H   0  0  0  0  0  0  0  0  0  0  0  0  # atno 10718 bound_to 10713
  153.6951  135.3292  155.3211 H   0  0  0  0  0  0  0  0  0  0  0  0  # atno 10763 bound_to 10752
  154.8429  135.4441  154.1468 H   0  0  0  0  0  0  0  0  0  0  0  0  # atno 10764 bound_to 10752
  153.2520  135.6982  153.7747 H   0  0  0  0  0  0  0  0  0  0  0  0  # atno 10765 bound_to 10752
  141.0137  133.6895  156.2252 H   0  0  0  0  0  0  0  0  0  0  0  0  # atno 11005 bound_to 11000
  144.7107  140.4027  143.7083 LP  0  0  0  0  0  0  0  0  0  0  0  0  # atno 17320 bound_to 7965
  145.6775  139.1611  143.2719 LP  0  0  0  0  0  0  0  0  0  0  0  0  # atno 17321 bound_to 7965
  139.6553  144.7662  151.2068 LP  0  0  0  0  0  0  0  0  0  0  0  0  # atno 17342 bound_to 10162
  140.7553  143.6096  150.8619 LP  0  0  0  0  0  0  0  0  0  0  0  0  # atno 17343 bound_to 10162
  156.3695  130.7523  151.2505 LP  0  0  0  0  0  0  0  0  0  0  0  0  # atno 17370 bound_to 10713
  157.7496  131.0327  150.4238 LP  0  0  0  0  0  0  0  0  0  0  0  0  # atno 17371 bound_to 10713
  140.6690  134.4888  157.5586 LP  0  0  0  0  0  0  0  0  0  0  0  0  # atno 17394 bound_to 11000
  139.9105  134.8356  156.1547 LP  0  0  0  0  0  0  0  0  0  0  0  0  # atno 17395 bound_to 11000

$$$$
