AV-unprocessed.smi:1133|AV-procd|sdf|4856|dock1
  -GOLD-   22720 3423D 1   1.00000     0.00000
 Structure written by MMmdl.
 41 42  0  0  0  0  0  0  0  0  1 V2000
  144.9188  143.3431  154.8245 C   0  0  0  0  0  0  0  0  0  0  0  0
  145.6533  142.3630  155.7423 C   0  0  0  0  0  0  0  0  0  0  0  0
  145.1596  142.1218  156.8441 O   0  0  0  0  0  0  0  0  0  0  0  0
  146.8069  141.7943  155.3165 N   0  0  0  0  0  0  0  0  0  0  0  0
  147.5266  140.7801  156.0954 C   0  0  0  0  0  0  0  0  0  0  0  0
  147.3717  139.4172  155.3965 C   0  0  0  0  0  0  0  0  0  0  0  0
  147.8570  139.4766  153.9319 C   0  0  0  0  0  0  0  0  0  0  0  0
  147.5189  138.2300  153.2520 N   0  0  0  0  0  0  0  0  0  0  0  0
  146.3068  137.6577  153.2486 C   0  0  0  0  0  0  0  0  0  0  0  0
  145.3190  138.1282  153.8131 O   0  0  0  0  0  0  0  0  0  0  0  0
  146.3017  136.5055  152.5639 N   0  0  0  0  0  0  0  0  0  0  0  0
  145.1378  135.6446  152.3913 C   0  0  0  0  0  0  0  0  0  0  0  0
  144.8452  135.3779  150.9052 C   0  0  0  0  0  0  0  0  0  0  0  0
  144.9837  133.9729  150.5814 N   0  0  0  0  0  0  0  0  0  0  0  0
  146.1595  133.2366  150.5271 C   0  0  0  0  0  0  0  0  0  0  0  0
  145.8030  131.9530  150.1799 C   0  0  0  0  0  0  0  0  0  0  0  0
  144.4219  131.8782  150.0146 N   0  0  0  0  0  0  0  0  0  0  0  0
  144.0054  133.1121  150.2688 C   0  0  0  0  0  0  0  0  0  0  0  0
  147.2480  140.6851  153.1828 C   0  0  0  0  0  0  0  0  0  0  0  0
  147.4099  141.9843  153.9916 C   0  0  0  0  0  0  0  0  0  0  0  0
  144.6599  142.8676  153.8778 H   0  0  0  0  0  0  0  0  0  0  0  0
  145.5338  144.2210  154.6253 H   0  0  0  0  0  0  0  0  0  0  0  0
  143.9928  143.6841  155.2889 H   0  0  0  0  0  0  0  0  0  0  0  0
  148.5813  141.0522  156.1588 H   0  0  0  0  0  0  0  0  0  0  0  0
  147.1761  140.7111  157.1259 H   0  0  0  0  0  0  0  0  0  0  0  0
  147.9254  138.6537  155.9441 H   0  0  0  0  0  0  0  0  0  0  0  0
  146.3221  139.1202  155.4275 H   0  0  0  0  0  0  0  0  0  0  0  0
  148.9424  139.5931  153.9488 H   0  0  0  0  0  0  0  0  0  0  0  0
  148.2660  137.7644  152.7579 H   0  0  0  0  0  0  0  0  0  0  0  0
  147.1633  136.2000  152.1354 H   0  0  0  0  0  0  0  0  0  0  0  0
  145.2874  134.7060  152.9281 H   0  0  0  0  0  0  0  0  0  0  0  0
  144.2822  136.1354  152.8562 H   0  0  0  0  0  0  0  0  0  0  0  0
  143.8327  135.6954  150.6520 H   0  0  0  0  0  0  0  0  0  0  0  0
  145.5246  135.9453  150.2675 H   0  0  0  0  0  0  0  0  0  0  0  0
  147.1250  133.6742  150.7341 H   0  0  0  0  0  0  0  0  0  0  0  0
  146.4290  131.0848  150.0363 H   0  0  0  0  0  0  0  0  0  0  0  0
  142.9643  133.3974  150.2246 H   0  0  0  0  0  0  0  0  0  0  0  0
  147.7167  140.7972  152.2045 H   0  0  0  0  0  0  0  0  0  0  0  0
  146.1868  140.5100  152.9984 H   0  0  0  0  0  0  0  0  0  0  0  0
  146.9908  142.8221  153.4362 H   0  0  0  0  0  0  0  0  0  0  0  0
  148.4689  142.2178  154.1107 H   0  0  0  0  0  0  0  0  0  0  0  0
  1  2  1  0  0  0  0
  1 21  1  0  0  0  0
  1 22  1  0  0  0  0
  1 23  1  0  0  0  0
  2  3  2  0  0  0  0
  2  4  1  0  0  0  0
  4 20  1  0  0  0  0
  4  5  1  0  0  0  0
  5  6  1  0  0  0  0
  5 24  1  0  0  0  0
  5 25  1  0  0  0  0
  6  7  1  0  0  0  0
  6 26  1  0  0  0  0
  6 27  1  0  0  0  0
  7  8  1  0  0  0  0
  7 19  1  0  0  0  0
  7 28  1  0  0  0  0
  8  9  1  0  0  0  0
  8 29  1  0  0  0  0
  9 10  2  0  0  0  0
  9 11  1  0  0  0  0
 11 12  1  0  0  0  0
 11 30  1  0  0  0  0
 12 13  1  0  0  0  0
 12 31  1  0  0  0  0
 12 32  1  0  0  0  0
 13 14  1  0  0  0  0
 13 33  1  0  0  0  0
 13 34  1  0  0  0  0
 14 18  1  0  0  0  0
 14 15  1  0  0  0  0
 15 16  2  0  0  0  0
 15 35  1  0  0  0  0
 16 17  1  0  0  0  0
 16 36  1  0  0  0  0
 17 18  2  0  0  0  0
 18 37  1  0  0  0  0
 19 20  1  0  0  0  0
 19 38  1  0  0  0  0
 19 39  1  0  0  0  0
 20 40  1  0  0  0  0
 20 41  1  0  0  0  0
M  END
> <s_m_source_file>
AV-unprocessed.smi

> <i_m_source_file_index>
1133

> <i_lp_mmshare_version>
43012

> <i_f3d_flags>
0

> <s_epik_input>
W0NIM11DKD1PKU4xW0NIMl1bQ0gyXVtDSF0oW0NIMl1bQ0gyXTEpW05IXUMoPU8pW05IXVtDSDJdW0NIMl1uMltjSF1bY0hdbltjSF0y

> <s_epik_cmdline>
J2VwaWtfcHl0aG9uJywgJy1waCcsICc3LjAnLCAnLXRuJywgJzgnLCAnLW1hJywgJzIwMCcsICctbWV0YWxfYmluZGluZycsICctaW1hZScsICc8aW5maWxlLm1hZT4nLCAnLW9tYWUnLCAnPG91dGZpbGUubWFlPic=

> <r_lp_tautomer_probability>
1

> <r_epik_Ionization_Penalty>
0.622276

> <r_epik_Ionization_Penalty_Charging>
0.622222

> <r_epik_Ionization_Penalty_Neutral>
5.3634e-05

> <r_epik_State_Penalty>
0.638348

> <r_epik_Charging_Adjusted_Penalty>
1.26057

> <i_epik_Tot_Q>
0

> <i_epik_Tot_abs_Q>
0

> <r_epik_Metal_State_Penalty>
0.307013

> <b_epik_Metal_Only>
0

> <s_lp_Force_Field>
OPLS_2005

> <r_lp_Energy>
21.3303

> <b_lp_Chiralities_Consistent>
1

> <s_lp_Variant>
AV-unprocessed.smi:1133-2

> <Gold.Version>
5.8.1

> <Gold.Id.Protein>
6NUR|6NUR_protein|mol2

> <Gold.PLP.Fitness>
44.1534

> <Gold.PLP.PLP>
-33.3028

> <Gold.PLP.part.hbond>
-2.4232

> <Gold.PLP.part.metal>
0.0000

> <Gold.PLP.part.buried>
-5.0791

> <Gold.PLP.part.nonpolar>
-26.3883

> <Gold.PLP.part.repulsive>
0.7609

> <Gold.PLP.ligand.clash>
0.0000

> <Gold.PLP.ligand.torsion>
0.6010

> <Gold.PLP.Chemscore.Hbond>
2.0000

> <Gold.PLP.Chemscore.CHOScore>
2.0000

> <Gold.PLP.Chemscore.Metal>
0.0000

> <Gold.Chemscore.Hbonds>
donor molecule, donor type, donor heavy atom, donor atom, acceptor molecule, acceptor atom, score
      L1  H     8    29       P1  7948  1.00
      L1  H    11    30       P1  7948  1.00
      L1  C    16    36       P1 10747  0.94
      L1  C    18    37       P1 10186  1.00

> <Gold.PLP.Chemscore.Internal.Correction>
0.0525

> <Gold.Rescore>
     Score         DG    S(hbond)    S(metal)    S(lipo)     H(rot)  DE(clash)    DE(int)     intcor
     12.09     -14.33       2.13        0.00      58.97       2.01       0.45       1.79       ----

> <Gold.Chemscore.Fitness>
12.0903

> <Gold.Chemscore.DG>
-14.3323

> <Gold.Chemscore.ZeroCoef>
-5.4800

> <Gold.Chemscore.Hbond>
2.1268

> <Gold.Chemscore.Metal>
0.0000

> <Gold.Chemscore.Lipo>
58.9652

> <Gold.Chemscore.Internal_Hbond>
0.0000

> <Gold.Chemscore.DEClash>
0.4500

> <Gold.Chemscore.DEInternal>
1.7920

> <Gold.Chemscore.Rot>
2.0119

> <Gold.Chemscore.Internal.Correction>
   9.000000E+99

> <Gold.Chemscore.Hbonds>
donor molecule, donor type, donor heavy atom, donor atom, acceptor molecule, acceptor atom, score
      L1  H     8    29       P1  7948  0.95
      L1  H    11    30       P1  7948  0.99
      P1  H 10785 10796       L1    17  0.02

> <Gold.Chemscore.Hbond.Weighted>
-7.1037

> <Gold.Chemscore.Metal.Weighted>
-0.0000

> <Gold.Chemscore.Lipo.Weighted>
-6.8989

> <Gold.Chemscore.Internal_Hbond.Weighted>
0.0000

> <Gold.Chemscore.DEClash.Weighted>
0.4500

> <Gold.Chemscore.DEInternal.Weighted>
1.7920

> <Gold.Chemscore.Rot.Weighted>
5.1503

> <Gold.Chemscore.Internal.Correction.Weighted>
   9.000000E+99

> <Gold.Protein.RotatedTorsions>
[ 6907 6896 6895 6894 ] final   18.13 input  -60.11 | X-H torsion
[ 7974 7965 7964 7962 ] final -175.81 input  175.53 | X-H torsion
[ 8008 7997 7996 7995 ] final   73.25 input   59.86 | X-H torsion
[ 10167 10162 10161 10158 ] final  -14.71 input  -65.29 | X-H torsion
[ 10718 10713 10712 10709 ] final   34.98 input   66.30 | X-H torsion
[ 10763 10752 10751 10750 ] final   10.91 input  -60.55 | X-H torsion
[ 11005 11000 10999 10996 ] final  -48.27 input  -57.11 | X-H torsion

> <Gold.Protein.ActiveResidues>
 VAL166  LYS551  ARG553  GLY616  TRP617  ASP618  TYR619  PRO620  LYS621  CYS622 
 ASP623  PHE694  ASN695  SER759  ASP760  ASP761  ALA762  ILE779  LEU786  VAL792 
 PHE793  MET794  SER795  GLU796  ALA797  LYS798  CYS799  TRP800  GLU811  SER814 

> <Gold.Protein.RotatedAtoms>
  151.8604  135.0526  160.0468 H   0  0  0  0  0  0  0  0  0  0  0  0  # atno 6907 bound_to 6896
  152.2667  133.5341  159.5423 H   0  0  0  0  0  0  0  0  0  0  0  0  # atno 6908 bound_to 6896
  150.7136  134.0670  159.3893 H   0  0  0  0  0  0  0  0  0  0  0  0  # atno 6909 bound_to 6896
  144.7127  140.1265  143.6401 H   0  0  0  0  0  0  0  0  0  0  0  0  # atno 7974 bound_to 7965
  155.7809  140.3482  155.5297 H   0  0  0  0  0  0  0  0  0  0  0  0  # atno 8008 bound_to 7997
  155.8729  140.0989  157.1558 H   0  0  0  0  0  0  0  0  0  0  0  0  # atno 8009 bound_to 7997
  154.4019  140.1337  156.4088 H   0  0  0  0  0  0  0  0  0  0  0  0  # atno 8010 bound_to 7997
  140.7206  143.5293  150.9539 H   0  0  0  0  0  0  0  0  0  0  0  0  # atno 10167 bound_to 10162
  157.3170  130.7428  149.6761 H   0  0  0  0  0  0  0  0  0  0  0  0  # atno 10718 bound_to 10713
  153.1982  135.6852  153.8265 H   0  0  0  0  0  0  0  0  0  0  0  0  # atno 10763 bound_to 10752
  153.7541  135.3219  155.3327 H   0  0  0  0  0  0  0  0  0  0  0  0  # atno 10764 bound_to 10752
  154.8156  135.4688  154.0736 H   0  0  0  0  0  0  0  0  0  0  0  0  # atno 10765 bound_to 10752
  141.0691  133.6684  156.3417 H   0  0  0  0  0  0  0  0  0  0  0  0  # atno 11005 bound_to 11000
  145.9324  139.2615  143.1317 LP  0  0  0  0  0  0  0  0  0  0  0  0  # atno 17320 bound_to 7965
  145.9508  140.8910  143.0260 LP  0  0  0  0  0  0  0  0  0  0  0  0  # atno 17321 bound_to 7965
  139.9013  143.6833  152.3131 LP  0  0  0  0  0  0  0  0  0  0  0  0  # atno 17342 bound_to 10162
  139.7183  144.7607  151.0997 LP  0  0  0  0  0  0  0  0  0  0  0  0  # atno 17343 bound_to 10162
  155.9682  130.4234  150.4562 LP  0  0  0  0  0  0  0  0  0  0  0  0  # atno 17370 bound_to 10713
  157.2571  131.0559  151.2343 LP  0  0  0  0  0  0  0  0  0  0  0  0  # atno 17371 bound_to 10713
  140.5712  134.5839  157.5458 LP  0  0  0  0  0  0  0  0  0  0  0  0  # atno 17394 bound_to 11000
  139.9505  134.7625  156.0459 LP  0  0  0  0  0  0  0  0  0  0  0  0  # atno 17395 bound_to 11000

$$$$
