AV-unprocessed.smi:2186|AV-procd|sdf|8876|dock8
  -GOLD-   2272012 73D 1   1.00000     0.00000
 Structure written by MMmdl.
 43 44  0  0  0  0  0  0  0  0  1 V2000
  144.1181  145.7102  154.7731 C   0  0  0  0  0  0  0  0  0  0  0  0
  144.5224  144.4115  155.4860 C   0  0  0  0  0  0  0  0  0  0  0  0
  145.0274  144.6419  156.9177 C   0  0  0  0  0  0  0  0  0  0  0  0
  145.4822  143.6012  154.6731 C   0  0  0  0  0  0  0  0  0  0  0  0
  145.9740  142.4220  155.0653 N   0  0  0  0  0  0  0  0  0  0  0  0
  146.8634  141.8699  154.1375 C   0  0  0  0  0  0  0  0  0  0  0  0
  147.5231  140.5522  154.4233 C   0  0  0  0  0  0  0  0  0  0  0  0
  149.0270  140.7512  154.6172 C   0  0  0  0  0  0  0  0  0  0  0  0
  149.7392  141.0432  153.6566 O   0  0  0  0  0  0  0  0  0  0  0  0
  149.4949  140.5968  155.8658 N   0  0  0  0  0  0  0  0  0  0  0  0
  150.8812  140.7882  156.2702 C   0  0  0  0  0  0  0  0  0  0  0  0
  150.9776  141.1066  157.7738 C   0  0  0  0  0  0  0  0  0  0  0  0
  151.9701  142.1196  158.1270 N   0  0  0  0  0  0  0  0  0  0  0  0
  152.0895  142.2507  159.5753 C   0  0  0  0  0  0  0  0  0  0  0  0
  153.1318  143.3099  159.9724 C   0  0  0  0  0  0  0  0  0  0  0  0
  152.7858  144.5597  159.3848 O   0  0  0  0  0  0  0  0  0  0  0  0
  152.6987  144.4920  157.9652 C   0  0  0  0  0  0  0  0  0  0  0  0
  151.6622  143.4300  157.5573 C   0  0  0  0  0  0  0  0  0  0  0  0
  147.0298  142.6496  153.0197 C   0  0  0  0  0  0  0  0  0  0  0  0
  146.0844  144.1105  153.0992 S   0  0  0  0  0  0  0  0  0  0  0  0
  143.6873  145.5012  153.7933 H   0  0  0  0  0  0  0  0  0  0  0  0
  144.9766  146.3665  154.6264 H   0  0  0  0  0  0  0  0  0  0  0  0
  143.3751  146.2604  155.3507 H   0  0  0  0  0  0  0  0  0  0  0  0
  143.6142  143.8139  155.5736 H   0  0  0  0  0  0  0  0  0  0  0  0
  145.2231  143.6949  157.4215 H   0  0  0  0  0  0  0  0  0  0  0  0
  144.2922  145.1857  157.5110 H   0  0  0  0  0  0  0  0  0  0  0  0
  145.9519  145.2201  156.9243 H   0  0  0  0  0  0  0  0  0  0  0  0
  147.1001  140.0883  155.3154 H   0  0  0  0  0  0  0  0  0  0  0  0
  147.3546  139.8530  153.6034 H   0  0  0  0  0  0  0  0  0  0  0  0
  148.8348  140.3619  156.5932 H   0  0  0  0  0  0  0  0  0  0  0  0
  151.4280  139.8710  156.0495 H   0  0  0  0  0  0  0  0  0  0  0  0
  151.3315  141.5749  155.6639 H   0  0  0  0  0  0  0  0  0  0  0  0
  149.9985  141.4054  158.1517 H   0  0  0  0  0  0  0  0  0  0  0  0
  151.2263  140.1783  158.2906 H   0  0  0  0  0  0  0  0  0  0  0  0
  151.1225  142.5198  160.0033 H   0  0  0  0  0  0  0  0  0  0  0  0
  152.3677  141.2915  160.0127 H   0  0  0  0  0  0  0  0  0  0  0  0
  153.1663  143.4214  161.0564 H   0  0  0  0  0  0  0  0  0  0  0  0
  154.1298  143.0111  159.6484 H   0  0  0  0  0  0  0  0  0  0  0  0
  152.4118  145.4701  157.5788 H   0  0  0  0  0  0  0  0  0  0  0  0
  153.6777  144.2563  157.5453 H   0  0  0  0  0  0  0  0  0  0  0  0
  151.6327  143.3745  156.4697 H   0  0  0  0  0  0  0  0  0  0  0  0
  150.6709  143.7509  157.8817 H   0  0  0  0  0  0  0  0  0  0  0  0
  147.6541  142.4555  152.1601 H   0  0  0  0  0  0  0  0  0  0  0  0
  1  2  1  0  0  0  0
  1 21  1  0  0  0  0
  1 22  1  0  0  0  0
  1 23  1  0  0  0  0
  2  3  1  0  0  0  0
  2  4  1  0  0  0  0
  2 24  1  0  0  0  0
  3 25  1  0  0  0  0
  3 26  1  0  0  0  0
  3 27  1  0  0  0  0
  4 20  1  0  0  0  0
  4  5  2  0  0  0  0
  5  6  1  0  0  0  0
  6  7  1  0  0  0  0
  6 19  2  0  0  0  0
  7  8  1  0  0  0  0
  7 28  1  0  0  0  0
  7 29  1  0  0  0  0
  8  9  2  0  0  0  0
  8 10  1  0  0  0  0
 10 11  1  0  0  0  0
 10 30  1  0  0  0  0
 11 12  1  0  0  0  0
 11 31  1  0  0  0  0
 11 32  1  0  0  0  0
 12 13  1  0  0  0  0
 12 33  1  0  0  0  0
 12 34  1  0  0  0  0
 13 18  1  0  0  0  0
 13 14  1  0  0  0  0
 14 15  1  0  0  0  0
 14 35  1  0  0  0  0
 14 36  1  0  0  0  0
 15 16  1  0  0  0  0
 15 37  1  0  0  0  0
 15 38  1  0  0  0  0
 16 17  1  0  0  0  0
 17 18  1  0  0  0  0
 17 39  1  0  0  0  0
 17 40  1  0  0  0  0
 18 41  1  0  0  0  0
 18 42  1  0  0  0  0
 19 20  1  0  0  0  0
 19 43  1  0  0  0  0
M  END
> <s_m_source_file>
AV-unprocessed.smi

> <i_m_source_file_index>
2186

> <i_lp_mmshare_version>
43012

> <i_f3d_flags>
0

> <s_epik_input>
W0NIM11bQ0hdKFtDSDNdKWMxbmMoW2NIXXMxKVtDSDJdQyg9TylbTkhdW0NIMl1bQ0gyXU4yW0NIMl1bQ0gyXU9bQ0gyXVtDSDJdMg==

> <s_epik_cmdline>
J2VwaWtfcHl0aG9uJywgJy1waCcsICc3LjAnLCAnLXRuJywgJzgnLCAnLW1hJywgJzIwMCcsICctbWV0YWxfYmluZGluZycsICctaW1hZScsICc8aW5maWxlLm1hZT4nLCAnLW9tYWUnLCAnPG91dGZpbGUubWFlPic=

> <r_epik_Ionization_Penalty>
0.226788

> <r_epik_Ionization_Penalty_Charging>
0

> <r_epik_Ionization_Penalty_Neutral>
0.226788

> <r_epik_State_Penalty>
0.21727

> <r_epik_Charging_Adjusted_Penalty>
0.21727

> <i_epik_Tot_Q>
0

> <i_epik_Tot_abs_Q>
0

> <r_epik_Metal_State_Penalty>
0.217263

> <b_epik_Metal_Only>
0

> <s_lp_Force_Field>
OPLS_2005

> <r_lp_Energy>
12.6153

> <b_lp_Chiralities_Consistent>
1

> <s_lp_Variant>
AV-unprocessed.smi:2186-1

> <Gold.Version>
5.8.1

> <Gold.Id.Protein>
6NUR|6NUR_protein|mol2

> <Gold.PLP.Fitness>
39.4768

> <Gold.PLP.PLP>
-37.0003

> <Gold.PLP.part.hbond>
-2.0000

> <Gold.PLP.part.metal>
0.0000

> <Gold.PLP.part.buried>
-6.4863

> <Gold.PLP.part.nonpolar>
-30.7633

> <Gold.PLP.part.repulsive>
2.6571

> <Gold.PLP.ligand.clash>
0.0000

> <Gold.PLP.ligand.torsion>
0.6610

> <Gold.PLP.Chemscore.Hbond>
1.2305

> <Gold.PLP.Chemscore.CHOScore>
0.0000

> <Gold.PLP.Chemscore.Metal>
0.0000

> <Gold.Chemscore.Hbonds>
donor molecule, donor type, donor heavy atom, donor atom, acceptor molecule, acceptor atom, score
      P1  H  7989  7998       L1     9  0.30
      P1  H  8011  8017       L1     9  0.96

> <Gold.PLP.Chemscore.Internal.Correction>
0.1071

> <Gold.Rescore>
     Score         DG    S(hbond)    S(metal)    S(lipo)     H(rot)  DE(clash)    DE(int)     intcor
     13.81     -17.20       1.20        0.00     103.76       1.73       2.81       0.59       ----

> <Gold.Chemscore.Fitness>
13.8085

> <Gold.Chemscore.DG>
-17.2030

> <Gold.Chemscore.ZeroCoef>
-5.4800

> <Gold.Chemscore.Hbond>
1.1980

> <Gold.Chemscore.Metal>
0.0000

> <Gold.Chemscore.Lipo>
103.7606

> <Gold.Chemscore.Internal_Hbond>
0.0000

> <Gold.Chemscore.DEClash>
2.8084

> <Gold.Chemscore.DEInternal>
0.5861

> <Gold.Chemscore.Rot>
1.7259

> <Gold.Chemscore.Internal.Correction>
   9.000000E+99

> <Gold.Chemscore.Hbonds>
donor molecule, donor type, donor heavy atom, donor atom, acceptor molecule, acceptor atom, score
      P1  H  7989  7998       L1     9  0.30
      P1  H  8011  8017       L1     9  0.92

> <Gold.Chemscore.Hbond.Weighted>
-4.0012

> <Gold.Chemscore.Metal.Weighted>
-0.0000

> <Gold.Chemscore.Lipo.Weighted>
-12.1400

> <Gold.Chemscore.Internal_Hbond.Weighted>
0.0000

> <Gold.Chemscore.DEClash.Weighted>
2.8084

> <Gold.Chemscore.DEInternal.Weighted>
0.5861

> <Gold.Chemscore.Rot.Weighted>
4.4182

> <Gold.Chemscore.Internal.Correction.Weighted>
   9.000000E+99

> <Gold.Protein.RotatedTorsions>
[ 6907 6896 6895 6894 ] final   46.49 input  -60.11 | X-H torsion
[ 7974 7965 7964 7962 ] final   42.79 input  175.53 | X-H torsion
[ 8008 7997 7996 7995 ] final   36.72 input   59.86 | X-H torsion
[ 10167 10162 10161 10158 ] final   92.29 input  -65.29 | X-H torsion
[ 10718 10713 10712 10709 ] final -144.63 input   66.30 | X-H torsion
[ 10763 10752 10751 10750 ] final  -40.28 input  -60.55 | X-H torsion
[ 11005 11000 10999 10996 ] final  163.19 input  -57.11 | X-H torsion

> <Gold.Protein.ActiveResidues>
 VAL166  LYS551  ARG553  GLY616  TRP617  ASP618  TYR619  PRO620  LYS621  CYS622 
 ASP623  PHE694  ASN695  SER759  ASP760  ASP761  ALA762  ILE779  LEU786  VAL792 
 PHE793  MET794  SER795  GLU796  ALA797  LYS798  CYS799  TRP800  GLU811  SER814 

> <Gold.Protein.RotatedAtoms>
  152.2570  134.8074  160.0436 H   0  0  0  0  0  0  0  0  0  0  0  0  # atno 6907 bound_to 6896
  151.8734  133.3475  159.3750 H   0  0  0  0  0  0  0  0  0  0  0  0  # atno 6908 bound_to 6896
  150.7103  134.5017  159.5609 H   0  0  0  0  0  0  0  0  0  0  0  0  # atno 6909 bound_to 6896
  146.0711  139.5260  142.9597 H   0  0  0  0  0  0  0  0  0  0  0  0  # atno 7974 bound_to 7965
  155.1920  140.3308  155.4357 H   0  0  0  0  0  0  0  0  0  0  0  0  # atno 8008 bound_to 7997
  156.2439  140.1908  156.6962 H   0  0  0  0  0  0  0  0  0  0  0  0  # atno 8009 bound_to 7997
  154.6199  140.0597  156.9588 H   0  0  0  0  0  0  0  0  0  0  0  0  # atno 8010 bound_to 7997
  139.8291  144.6695  150.9422 H   0  0  0  0  0  0  0  0  0  0  0  0  # atno 10167 bound_to 10162
  156.3725  130.7795  151.1977 H   0  0  0  0  0  0  0  0  0  0  0  0  # atno 10718 bound_to 10713
  153.9433  135.6759  153.4744 H   0  0  0  0  0  0  0  0  0  0  0  0  # atno 10763 bound_to 10752
  153.0921  135.4869  154.8706 H   0  0  0  0  0  0  0  0  0  0  0  0  # atno 10764 bound_to 10752
  154.7365  135.3150  154.8760 H   0  0  0  0  0  0  0  0  0  0  0  0  # atno 10765 bound_to 10752
  140.2333  134.8107  157.3339 H   0  0  0  0  0  0  0  0  0  0  0  0  # atno 11005 bound_to 11000
  145.6390  141.0288  143.1822 LP  0  0  0  0  0  0  0  0  0  0  0  0  # atno 17320 bound_to 7965
  144.7232  139.7961  143.7374 LP  0  0  0  0  0  0  0  0  0  0  0  0  # atno 17321 bound_to 7965
  140.7808  143.4017  151.1137 LP  0  0  0  0  0  0  0  0  0  0  0  0  # atno 17342 bound_to 10162
  139.7672  143.8547  152.3113 LP  0  0  0  0  0  0  0  0  0  0  0  0  # atno 17343 bound_to 10162
  157.7485  131.0368  150.4426 LP  0  0  0  0  0  0  0  0  0  0  0  0  # atno 17370 bound_to 10713
  156.4656  130.4041  149.6549 LP  0  0  0  0  0  0  0  0  0  0  0  0  # atno 17371 bound_to 10713
  140.1728  134.4587  155.7821 LP  0  0  0  0  0  0  0  0  0  0  0  0  # atno 17394 bound_to 11000
  141.2216  133.6949  156.7736 LP  0  0  0  0  0  0  0  0  0  0  0  0  # atno 17395 bound_to 11000

$$$$
