AV-unprocessed.smi:3335|AV-procd|sdf|12845|dock2
  -GOLD-   2272019233D 1   1.00000     0.00000
 Structure written by MMmdl.
 46 47  0  0  0  0  0  0  0  0  1 V2000
  146.6267  142.8196  153.7305 C   0  0  0  0  0  0  0  0  0  0  0  0
  147.4964  141.6358  154.0408 C   0  0  0  0  0  0  0  0  0  0  0  0
  147.2296  140.2619  153.7801 C   0  0  0  0  0  0  0  0  0  0  0  0
  148.2039  139.4639  154.1832 N   0  0  0  0  0  0  0  0  0  0  0  0
  149.1293  140.2960  154.7113 N   0  0  0  0  0  0  0  0  0  0  0  0
  150.3614  139.7625  155.2787 C   0  0  2  0  0  0  0  0  0  0  0  0
  150.3333  138.2215  155.2555 C   0  0  0  0  0  0  0  0  0  0  0  0
  150.6432  140.3389  156.6927 C   0  0  2  0  0  0  0  0  0  0  0  0
  149.3886  140.4400  157.5803 C   0  0  0  0  0  0  0  0  0  0  0  0
  151.1820  141.6904  156.5589 N   0  0  0  0  0  0  0  0  0  0  0  0
  151.3090  142.4116  157.8371 C   0  0  2  0  0  0  0  0  0  0  0  0
  151.8432  143.8399  157.6158 C   0  0  0  0  0  0  0  0  0  0  0  0
  152.2467  141.6506  158.7957 C   0  0  0  0  0  0  0  0  0  0  0  0
  152.7825  140.6109  158.4061 O   0  0  0  0  0  0  0  0  0  0  0  0
  152.4669  142.1391  160.0363 N   0  0  0  0  0  0  0  0  0  0  0  0
  153.3322  141.4789  161.0134 C   0  0  0  0  0  0  0  0  0  0  0  0
  153.1236  142.2269  162.3301 C   0  0  0  0  0  0  0  0  0  0  0  0
  152.6769  143.6161  161.8998 C   0  0  0  0  0  0  0  0  0  0  0  0
  151.9196  143.3764  160.5937 C   0  0  0  0  0  0  0  0  0  0  0  0
  148.7250  141.6127  154.6375 C   0  0  0  0  0  0  0  0  0  0  0  0
  145.5899  142.5275  153.5628 H   0  0  0  0  0  0  0  0  0  0  0  0
  146.9633  143.3408  152.8344 H   0  0  0  0  0  0  0  0  0  0  0  0
  146.6271  143.5447  154.5446 H   0  0  0  0  0  0  0  0  0  0  0  0
  146.3597  139.8234  153.3138 H   0  0  0  0  0  0  0  0  0  0  0  0
  151.1676  140.0833  154.6164 H   0  0  0  0  0  0  0  0  0  0  0  0
  151.3000  137.8012  155.5328 H   0  0  0  0  0  0  0  0  0  0  0  0
  150.0944  137.8497  154.2588 H   0  0  0  0  0  0  0  0  0  0  0  0
  149.5900  137.8236  155.9468 H   0  0  0  0  0  0  0  0  0  0  0  0
  151.3503  139.6823  157.2020 H   0  0  0  0  0  0  0  0  0  0  0  0
  148.9722  139.4572  157.8010 H   0  0  0  0  0  0  0  0  0  0  0  0
  148.6079  141.0313  157.1005 H   0  0  0  0  0  0  0  0  0  0  0  0
  149.6209  140.9082  158.5377 H   0  0  0  0  0  0  0  0  0  0  0  0
  150.6379  142.2157  155.8894 H   0  0  0  0  0  0  0  0  0  0  0  0
  150.3172  142.4687  158.2841 H   0  0  0  0  0  0  0  0  0  0  0  0
  151.9677  144.3676  158.5620 H   0  0  0  0  0  0  0  0  0  0  0  0
  151.1633  144.4357  157.0068 H   0  0  0  0  0  0  0  0  0  0  0  0
  152.8115  143.8303  157.1135 H   0  0  0  0  0  0  0  0  0  0  0  0
  153.0986  140.4184  161.1193 H   0  0  0  0  0  0  0  0  0  0  0  0
  154.3689  141.5661  160.6848 H   0  0  0  0  0  0  0  0  0  0  0  0
  152.3271  141.7479  162.9014 H   0  0  0  0  0  0  0  0  0  0  0  0
  154.0179  142.2438  162.9536 H   0  0  0  0  0  0  0  0  0  0  0  0
  152.0716  144.1196  162.6542 H   0  0  0  0  0  0  0  0  0  0  0  0
  153.5532  144.2361  161.7058 H   0  0  0  0  0  0  0  0  0  0  0  0
  152.0343  144.2236  159.9163 H   0  0  0  0  0  0  0  0  0  0  0  0
  150.8560  143.2369  160.7923 H   0  0  0  0  0  0  0  0  0  0  0  0
  149.3378  142.4177  155.0157 H   0  0  0  0  0  0  0  0  0  0  0  0
  1  2  1  0  0  0  0
  1 21  1  0  0  0  0
  1 22  1  0  0  0  0
  1 23  1  0  0  0  0
  2 20  2  0  0  0  0
  2  3  1  0  0  0  0
  3  4  2  0  0  0  0
  3 24  1  0  0  0  0
  4  5  1  0  0  0  0
  5  6  1  0  0  0  0
  5 20  1  0  0  0  0
  6  7  1  0  0  0  0
  6  8  1  0  0  0  0
  6 25  1  0  0  0  0
  7 26  1  0  0  0  0
  7 27  1  0  0  0  0
  7 28  1  0  0  0  0
  8  9  1  0  0  0  0
  8 10  1  0  0  0  0
  8 29  1  0  0  0  0
  9 30  1  0  0  0  0
  9 31  1  0  0  0  0
  9 32  1  0  0  0  0
 10 11  1  0  0  0  0
 10 33  1  0  0  0  0
 11 12  1  0  0  0  0
 11 13  1  0  0  0  0
 11 34  1  0  0  0  0
 12 35  1  0  0  0  0
 12 36  1  0  0  0  0
 12 37  1  0  0  0  0
 13 14  2  0  0  0  0
 13 15  1  0  0  0  0
 15 19  1  0  0  0  0
 15 16  1  0  0  0  0
 16 17  1  0  0  0  0
 16 38  1  0  0  0  0
 16 39  1  0  0  0  0
 17 18  1  0  0  0  0
 17 40  1  0  0  0  0
 17 41  1  0  0  0  0
 18 19  1  0  0  0  0
 18 42  1  0  0  0  0
 18 43  1  0  0  0  0
 19 44  1  0  0  0  0
 19 45  1  0  0  0  0
 20 46  1  0  0  0  0
M  END
> <s_m_source_file>
AV-unprocessed.smi

> <i_m_source_file_index>
3335

> <i_lp_mmshare_version>
43012

> <i_f3d_flags>
0

> <s_epik_input>
W0NIM11jMVtjSF1ubihbY0hdMSlbQ0BIXShbQ0gzXSlbQ0BIXShbQ0gzXSlbTkhdW0NASF0oW0NIM10pQyg9TylOMltDSDJdW0NIMl1bQ0gyXVtDSDJdMg==

> <s_epik_cmdline>
J2VwaWtfcHl0aG9uJywgJy1waCcsICc3LjAnLCAnLXRuJywgJzgnLCAnLW1hJywgJzIwMCcsICctbWV0YWxfYmluZGluZycsICctaW1hZScsICc8aW5maWxlLm1hZT4nLCAnLW9tYWUnLCAnPG91dGZpbGUubWFlPic=

> <r_lp_tautomer_probability>
1

> <r_epik_Ionization_Penalty>
0.918803

> <r_epik_Ionization_Penalty_Charging>
0

> <r_epik_Ionization_Penalty_Neutral>
0.918803

> <r_epik_State_Penalty>
0.958258

> <r_epik_Charging_Adjusted_Penalty>
0.958258

> <i_epik_Tot_Q>
0

> <i_epik_Tot_abs_Q>
0

> <r_epik_Metal_State_Penalty>
0.956786

> <b_epik_Metal_Only>
0

> <s_lp_Force_Field>
OPLS_2005

> <r_lp_Energy>
39.0848

> <b_lp_Chiralities_Consistent>
1

> <s_lp_Variant>
AV-unprocessed.smi:3335-9

> <Gold.Version>
5.8.1

> <Gold.Id.Protein>
6NUR|6NUR_protein|mol2

> <Gold.PLP.Fitness>
51.2639

> <Gold.PLP.PLP>
-48.0048

> <Gold.PLP.part.hbond>
-1.0000

> <Gold.PLP.part.metal>
0.0000

> <Gold.PLP.part.buried>
-1.8071

> <Gold.PLP.part.nonpolar>
-44.6152

> <Gold.PLP.part.repulsive>
0.1531

> <Gold.PLP.ligand.clash>
0.0000

> <Gold.PLP.ligand.torsion>
0.5828

> <Gold.PLP.Chemscore.Hbond>
0.3744

> <Gold.PLP.Chemscore.CHOScore>
1.0000

> <Gold.PLP.Chemscore.Metal>
0.0000

> <Gold.Chemscore.Hbonds>
donor molecule, donor type, donor heavy atom, donor atom, acceptor molecule, acceptor atom, score
      P1  H  7997  8008       L1    14  0.19
      L1  C     3    24       P1 10175  0.13
      L1  C    20    46       P1  8028  1.00

> <Gold.PLP.Chemscore.Internal.Correction>
0.3015

> <Gold.Rescore>
     Score         DG    S(hbond)    S(metal)    S(lipo)     H(rot)  DE(clash)    DE(int)     intcor
     11.95     -15.05       0.05        0.00     115.93       1.62       1.17       1.93       ----

> <Gold.Chemscore.Fitness>
11.9480

> <Gold.Chemscore.DG>
-15.0473

> <Gold.Chemscore.ZeroCoef>
-5.4800

> <Gold.Chemscore.Hbond>
0.0455

> <Gold.Chemscore.Metal>
0.0000

> <Gold.Chemscore.Lipo>
115.9263

> <Gold.Chemscore.Internal_Hbond>
0.0000

> <Gold.Chemscore.DEClash>
1.1714

> <Gold.Chemscore.DEInternal>
1.9278

> <Gold.Chemscore.Rot>
1.6204

> <Gold.Chemscore.Internal.Correction>
   9.000000E+99

> <Gold.Chemscore.Hbonds>
donor molecule, donor type, donor heavy atom, donor atom, acceptor molecule, acceptor atom, score
      P1  H  7997  8008       L1    14  0.19

> <Gold.Chemscore.Hbond.Weighted>
-0.1521

> <Gold.Chemscore.Metal.Weighted>
-0.0000

> <Gold.Chemscore.Lipo.Weighted>
-13.5634

> <Gold.Chemscore.Internal_Hbond.Weighted>
0.0000

> <Gold.Chemscore.DEClash.Weighted>
1.1714

> <Gold.Chemscore.DEInternal.Weighted>
1.9278

> <Gold.Chemscore.Rot.Weighted>
4.1482

> <Gold.Chemscore.Internal.Correction.Weighted>
   9.000000E+99

> <Gold.Protein.RotatedTorsions>
[ 6907 6896 6895 6894 ] final -113.53 input  -60.11 | X-H torsion
[ 7974 7965 7964 7962 ] final  155.18 input  175.53 | X-H torsion
[ 8008 7997 7996 7995 ] final  -81.33 input   59.86 | X-H torsion
[ 10167 10162 10161 10158 ] final  159.09 input  -65.29 | X-H torsion
[ 10718 10713 10712 10709 ] final  -32.05 input   66.30 | X-H torsion
[ 10763 10752 10751 10750 ] final  158.84 input  -60.55 | X-H torsion
[ 11005 11000 10999 10996 ] final -104.10 input  -57.11 | X-H torsion

> <Gold.Protein.ActiveResidues>
 VAL166  LYS551  ARG553  GLY616  TRP617  ASP618  TYR619  PRO620  LYS621  CYS622 
 ASP623  PHE694  ASN695  SER759  ASP760  ASP761  ALA762  ILE779  LEU786  VAL792 
 PHE793  MET794  SER795  GLU796  ALA797  LYS798  CYS799  TRP800  GLU811  SER814 

> <Gold.Protein.RotatedAtoms>
  150.7836  133.8931  159.3318 H   0  0  0  0  0  0  0  0  0  0  0  0  # atno 6907 bound_to 6896
  151.6787  135.0963  160.0221 H   0  0  0  0  0  0  0  0  0  0  0  0  # atno 6908 bound_to 6896
  152.3894  133.6619  159.6260 H   0  0  0  0  0  0  0  0  0  0  0  0  # atno 6909 bound_to 6896
  144.8041  139.7033  143.6169 H   0  0  0  0  0  0  0  0  0  0  0  0  # atno 7974 bound_to 7965
  154.5973  140.0649  156.9320 H   0  0  0  0  0  0  0  0  0  0  0  0  # atno 8008 bound_to 7997
  155.2192  140.3329  155.4299 H   0  0  0  0  0  0  0  0  0  0  0  0  # atno 8009 bound_to 7997
  156.2295  140.1834  156.7262 H   0  0  0  0  0  0  0  0  0  0  0  0  # atno 8010 bound_to 7997
  139.4830  144.4763  151.8507 H   0  0  0  0  0  0  0  0  0  0  0  0  # atno 10167 bound_to 10162
  156.3796  130.4354  149.7479 H   0  0  0  0  0  0  0  0  0  0  0  0  # atno 10718 bound_to 10713
  154.2223  135.2781  155.2920 H   0  0  0  0  0  0  0  0  0  0  0  0  # atno 10763 bound_to 10752
  154.5691  135.5624  153.7082 H   0  0  0  0  0  0  0  0  0  0  0  0  # atno 10764 bound_to 10752
  153.0039  135.6317  154.2363 H   0  0  0  0  0  0  0  0  0  0  0  0  # atno 10765 bound_to 10752
  141.1116  133.8695  157.1569 H   0  0  0  0  0  0  0  0  0  0  0  0  # atno 11005 bound_to 11000
  146.2329  139.5849  142.9543 LP  0  0  0  0  0  0  0  0  0  0  0  0  # atno 17320 bound_to 7965
  145.5480  141.0415  143.2294 LP  0  0  0  0  0  0  0  0  0  0  0  0  # atno 17321 bound_to 7965
  140.4235  144.2211  150.5887 LP  0  0  0  0  0  0  0  0  0  0  0  0  # atno 17342 bound_to 10162
  140.4850  143.2366  151.8901 LP  0  0  0  0  0  0  0  0  0  0  0  0  # atno 17343 bound_to 10162
  156.4575  130.7936  151.2956 LP  0  0  0  0  0  0  0  0  0  0  0  0  # atno 17370 bound_to 10713
  157.7491  131.0076  150.3197 LP  0  0  0  0  0  0  0  0  0  0  0  0  # atno 17371 bound_to 10713
  140.0013  135.0026  157.0195 LP  0  0  0  0  0  0  0  0  0  0  0  0  # atno 17394 bound_to 11000
  140.4760  134.1338  155.7210 LP  0  0  0  0  0  0  0  0  0  0  0  0  # atno 17395 bound_to 11000

$$$$
