AV-unprocessed.smi:3251|AV-procd|sdf|12437|dock4
  -GOLD-   2272018323D 1   1.00000     0.00000
 Structure written by MMmdl.
 40 41  0  0  0  0  0  0  0  0  1 V2000
  153.6965  141.9538  162.0359 C   0  0  0  0  0  0  0  0  0  0  0  0
  153.0054  142.9312  161.1301 C   0  0  0  0  0  0  0  0  0  0  0  0
  152.2819  144.1017  161.4960 C   0  0  0  0  0  0  0  0  0  0  0  0
  151.7973  144.7548  160.4524 N   0  0  0  0  0  0  0  0  0  0  0  0
  152.1944  144.0279  159.3866 N   0  0  0  0  0  0  0  0  0  0  0  0
  151.8559  144.4710  158.0460 C   0  0  0  0  0  0  0  0  0  0  0  0
  151.4652  143.2931  157.1397 C   0  0  0  0  0  0  0  0  0  0  0  0
  150.1534  142.7819  157.5267 N   0  0  0  0  0  0  0  0  0  0  0  0
  150.0021  141.3330  157.3111 C   0  0  2  0  0  0  0  0  0  0  0  0
  151.2879  140.6125  157.7448 C   0  0  0  0  0  0  0  0  0  0  0  0
  149.6768  140.9812  155.8414 C   0  0  0  0  0  0  0  0  0  0  0  0
  150.5441  140.4360  155.1557 O   0  0  0  0  0  0  0  0  0  0  0  0
  148.4586  141.2785  155.3397 N   0  0  0  0  0  0  0  0  0  0  0  0
  148.0039  141.0486  153.9686 C   0  0  0  0  0  0  0  0  0  0  0  0
  146.6676  141.7808  153.8442 C   0  0  0  0  0  0  0  0  0  0  0  0
  146.1390  141.8342  155.2702 C   0  0  0  0  0  0  0  0  0  0  0  0
  147.4001  141.9036  156.1312 C   0  0  0  0  0  0  0  0  0  0  0  0
  152.9246  142.9217  159.7664 C   0  0  0  0  0  0  0  0  0  0  0  0
  153.2866  141.9786  163.0458 H   0  0  0  0  0  0  0  0  0  0  0  0
  154.7625  142.1671  162.1157 H   0  0  0  0  0  0  0  0  0  0  0  0
  153.5987  140.9299  161.6749 H   0  0  0  0  0  0  0  0  0  0  0  0
  152.0973  144.4949  162.4848 H   0  0  0  0  0  0  0  0  0  0  0  0
  151.0498  145.2035  158.1061 H   0  0  0  0  0  0  0  0  0  0  0  0
  152.7189  144.9908  157.6277 H   0  0  0  0  0  0  0  0  0  0  0  0
  151.4187  143.6200  156.1005 H   0  0  0  0  0  0  0  0  0  0  0  0
  152.2375  142.5252  157.1949 H   0  0  0  0  0  0  0  0  0  0  0  0
  149.4328  143.3109  157.0571 H   0  0  0  0  0  0  0  0  0  0  0  0
  149.2013  140.9959  157.9685 H   0  0  0  0  0  0  0  0  0  0  0  0
  151.2013  139.5329  157.6164 H   0  0  0  0  0  0  0  0  0  0  0  0
  151.5037  140.7979  158.7973 H   0  0  0  0  0  0  0  0  0  0  0  0
  152.1502  140.9478  157.1665 H   0  0  0  0  0  0  0  0  0  0  0  0
  148.7182  141.4125  153.2290 H   0  0  0  0  0  0  0  0  0  0  0  0
  147.8645  139.9774  153.8151 H   0  0  0  0  0  0  0  0  0  0  0  0
  146.8387  142.7952  153.4815 H   0  0  0  0  0  0  0  0  0  0  0  0
  145.9793  141.2909  153.1550 H   0  0  0  0  0  0  0  0  0  0  0  0
  145.4631  142.6726  155.4410 H   0  0  0  0  0  0  0  0  0  0  0  0
  145.5948  140.9152  155.4921 H   0  0  0  0  0  0  0  0  0  0  0  0
  147.2528  141.4023  157.0892 H   0  0  0  0  0  0  0  0  0  0  0  0
  147.6717  142.9413  156.3296 H   0  0  0  0  0  0  0  0  0  0  0  0
  153.3293  142.2312  159.0411 H   0  0  0  0  0  0  0  0  0  0  0  0
  1  2  1  0  0  0  0
  1 19  1  0  0  0  0
  1 20  1  0  0  0  0
  1 21  1  0  0  0  0
  2 18  2  0  0  0  0
  2  3  1  0  0  0  0
  3  4  2  0  0  0  0
  3 22  1  0  0  0  0
  4  5  1  0  0  0  0
  5  6  1  0  0  0  0
  5 18  1  0  0  0  0
  6  7  1  0  0  0  0
  6 23  1  0  0  0  0
  6 24  1  0  0  0  0
  7  8  1  0  0  0  0
  7 25  1  0  0  0  0
  7 26  1  0  0  0  0
  8  9  1  0  0  0  0
  8 27  1  0  0  0  0
  9 10  1  0  0  0  0
  9 11  1  0  0  0  0
  9 28  1  0  0  0  0
 10 29  1  0  0  0  0
 10 30  1  0  0  0  0
 10 31  1  0  0  0  0
 11 12  2  0  0  0  0
 11 13  1  0  0  0  0
 13 17  1  0  0  0  0
 13 14  1  0  0  0  0
 14 15  1  0  0  0  0
 14 32  1  0  0  0  0
 14 33  1  0  0  0  0
 15 16  1  0  0  0  0
 15 34  1  0  0  0  0
 15 35  1  0  0  0  0
 16 17  1  0  0  0  0
 16 36  1  0  0  0  0
 16 37  1  0  0  0  0
 17 38  1  0  0  0  0
 17 39  1  0  0  0  0
 18 40  1  0  0  0  0
M  END
> <s_m_source_file>
AV-unprocessed.smi

> <i_m_source_file_index>
3251

> <i_lp_mmshare_version>
43012

> <i_f3d_flags>
0

> <s_epik_input>
W0NIM11jMVtjSF1ubihbY0hdMSlbQ0gyXVtDSDJdW05IXVtDQEhdKFtDSDNdKUMoPU8pTjJbQ0gyXVtDSDJdW0NIMl1bQ0gyXTI=

> <s_epik_cmdline>
J2VwaWtfcHl0aG9uJywgJy1waCcsICc3LjAnLCAnLXRuJywgJzgnLCAnLW1hJywgJzIwMCcsICctbWV0YWxfYmluZGluZycsICctaW1hZScsICc8aW5maWxlLm1hZT4nLCAnLW9tYWUnLCAnPG91dGZpbGUubWFlPic=

> <r_lp_tautomer_probability>
1

> <r_epik_Ionization_Penalty>
0.734676

> <r_epik_Ionization_Penalty_Charging>
0

> <r_epik_Ionization_Penalty_Neutral>
0.734676

> <r_epik_State_Penalty>
0.75825

> <r_epik_Charging_Adjusted_Penalty>
0.75825

> <i_epik_Tot_Q>
0

> <i_epik_Tot_abs_Q>
0

> <r_epik_Metal_State_Penalty>
0.756914

> <b_epik_Metal_Only>
0

> <s_lp_Force_Field>
OPLS_2005

> <r_lp_Energy>
32.0163

> <b_lp_Chiralities_Consistent>
1

> <s_lp_Variant>
AV-unprocessed.smi:3251-3

> <Gold.Version>
5.8.1

> <Gold.Id.Protein>
6NUR|6NUR_protein|mol2

> <Gold.PLP.Fitness>
49.9626

> <Gold.PLP.PLP>
-45.8386

> <Gold.PLP.part.hbond>
-2.0000

> <Gold.PLP.part.metal>
0.0000

> <Gold.PLP.part.buried>
-5.4667

> <Gold.PLP.part.nonpolar>
-38.2214

> <Gold.PLP.part.repulsive>
0.2007

> <Gold.PLP.ligand.clash>
0.0000

> <Gold.PLP.ligand.torsion>
0.9722

> <Gold.PLP.Chemscore.Hbond>
2.0000

> <Gold.PLP.Chemscore.CHOScore>
0.0000

> <Gold.PLP.Chemscore.Metal>
0.0000

> <Gold.Chemscore.Hbonds>
donor molecule, donor type, donor heavy atom, donor atom, acceptor molecule, acceptor atom, score
      L1  H     8    27       P1  8028  0.94
      P1  H  7989  7998       L1    12  1.00

> <Gold.PLP.Chemscore.Internal.Correction>
0.0684

> <Gold.Rescore>
     Score         DG    S(hbond)    S(metal)    S(lipo)     H(rot)  DE(clash)    DE(int)     intcor
     17.57     -20.23       1.91        0.00     108.68       1.70       1.81       0.85       ----

> <Gold.Chemscore.Fitness>
17.5668

> <Gold.Chemscore.DG>
-20.2266

> <Gold.Chemscore.ZeroCoef>
-5.4800

> <Gold.Chemscore.Hbond>
1.9072

> <Gold.Chemscore.Metal>
0.0000

> <Gold.Chemscore.Lipo>
108.6840

> <Gold.Chemscore.Internal_Hbond>
0.0000

> <Gold.Chemscore.DEClash>
1.8064

> <Gold.Chemscore.DEInternal>
0.8535

> <Gold.Chemscore.Rot>
1.6951

> <Gold.Chemscore.Internal.Correction>
   9.000000E+99

> <Gold.Chemscore.Hbonds>
donor molecule, donor type, donor heavy atom, donor atom, acceptor molecule, acceptor atom, score
      L1  H     8    27       P1  8028  0.80
      P1  H  7989  7998       L1    12  0.90

> <Gold.Chemscore.Hbond.Weighted>
-6.3701

> <Gold.Chemscore.Metal.Weighted>
-0.0000

> <Gold.Chemscore.Lipo.Weighted>
-12.7160

> <Gold.Chemscore.Internal_Hbond.Weighted>
0.0000

> <Gold.Chemscore.DEClash.Weighted>
1.8064

> <Gold.Chemscore.DEInternal.Weighted>
0.8535

> <Gold.Chemscore.Rot.Weighted>
4.3395

> <Gold.Chemscore.Internal.Correction.Weighted>
   9.000000E+99

> <Gold.Protein.RotatedTorsions>
[ 6907 6896 6895 6894 ] final   -4.90 input  -60.11 | X-H torsion
[ 7974 7965 7964 7962 ] final   58.05 input  175.53 | X-H torsion
[ 8008 7997 7996 7995 ] final   54.96 input   59.86 | X-H torsion
[ 10167 10162 10161 10158 ] final   35.66 input  -65.29 | X-H torsion
[ 10718 10713 10712 10709 ] final -156.81 input   66.30 | X-H torsion
[ 10763 10752 10751 10750 ] final -127.67 input  -60.55 | X-H torsion
[ 11005 11000 10999 10996 ] final  -50.74 input  -57.11 | X-H torsion

> <Gold.Protein.ActiveResidues>
 VAL166  LYS551  ARG553  GLY616  TRP617  ASP618  TYR619  PRO620  LYS621  CYS622 
 ASP623  PHE694  ASN695  SER759  ASP760  ASP761  ALA762  ILE779  LEU786  VAL792 
 PHE793  MET794  SER795  GLU796  ALA797  LYS798  CYS799  TRP800  GLU811  SER814 

> <Gold.Protein.RotatedAtoms>
  151.4903  135.1057  159.9801 H   0  0  0  0  0  0  0  0  0  0  0  0  # atno 6907 bound_to 6896
  152.4744  133.8099  159.7008 H   0  0  0  0  0  0  0  0  0  0  0  0  # atno 6908 bound_to 6896
  150.8772  133.7360  159.2969 H   0  0  0  0  0  0  0  0  0  0  0  0  # atno 6909 bound_to 6896
  145.9224  139.3740  143.0470 H   0  0  0  0  0  0  0  0  0  0  0  0  # atno 7974 bound_to 7965
  155.4933  140.3472  155.4358 H   0  0  0  0  0  0  0  0  0  0  0  0  # atno 8008 bound_to 7997
  156.0962  140.1423  156.9556 H   0  0  0  0  0  0  0  0  0  0  0  0  # atno 8009 bound_to 7997
  154.4665  140.0916  156.7011 H   0  0  0  0  0  0  0  0  0  0  0  0  # atno 8010 bound_to 7997
  140.4201  144.1472  150.6147 H   0  0  0  0  0  0  0  0  0  0  0  0  # atno 10167 bound_to 10162
  156.5317  130.8523  151.2718 H   0  0  0  0  0  0  0  0  0  0  0  0  # atno 10718 bound_to 10713
  154.8753  135.3954  154.3631 H   0  0  0  0  0  0  0  0  0  0  0  0  # atno 10763 bound_to 10752
  153.4401  135.7026  153.6180 H   0  0  0  0  0  0  0  0  0  0  0  0  # atno 10764 bound_to 10752
  153.4764  135.3779  155.2388 H   0  0  0  0  0  0  0  0  0  0  0  0  # atno 10765 bound_to 10752
  141.0833  133.6648  156.3776 H   0  0  0  0  0  0  0  0  0  0  0  0  # atno 11005 bound_to 11000
  145.8533  140.9517  143.0738 LP  0  0  0  0  0  0  0  0  0  0  0  0  # atno 17320 bound_to 7965
  144.6754  140.0435  143.7480 LP  0  0  0  0  0  0  0  0  0  0  0  0  # atno 17321 bound_to 7965
  140.4543  143.2474  151.9305 LP  0  0  0  0  0  0  0  0  0  0  0  0  # atno 17342 bound_to 10162
  139.4782  144.5531  151.8355 LP  0  0  0  0  0  0  0  0  0  0  0  0  # atno 17343 bound_to 10162
  157.7420  130.9882  150.2489 LP  0  0  0  0  0  0  0  0  0  0  0  0  # atno 17370 bound_to 10713
  156.3054  130.3764  149.7711 LP  0  0  0  0  0  0  0  0  0  0  0  0  # atno 17371 bound_to 10713
  140.5420  134.6111  157.5382 LP  0  0  0  0  0  0  0  0  0  0  0  0  # atno 17394 bound_to 11000
  139.9648  134.7391  156.0160 LP  0  0  0  0  0  0  0  0  0  0  0  0  # atno 17395 bound_to 11000

$$$$
