AV-unprocessed.smi:3298|AV-procd|sdf|12642|dock2
  -GOLD-   2272018573D 1   1.00000     0.00000
 Structure written by MMmdl.
 35 36  0  0  0  0  0  0  0  0  1 V2000
  153.8839  141.0769  160.3131 C   0  0  0  0  0  0  0  0  0  0  0  0
  153.0027  142.1638  159.7334 C   0  0  0  0  0  0  0  0  0  0  0  0
  152.1658  141.9034  158.6273 C   0  0  0  0  0  0  0  0  0  0  0  0
  151.3574  142.9531  158.1254 C   0  0  0  0  0  0  0  0  0  0  0  0
  150.4745  142.8389  157.0153 N   0  0  0  0  0  0  0  0  0  0  0  0
  150.3286  141.8320  156.1354 C   0  0  0  0  0  0  0  0  0  0  0  0
  150.9579  140.7744  156.1415 O   0  0  0  0  0  0  0  0  0  0  0  0
  149.3840  142.1194  155.2278 N   0  0  0  0  0  0  0  0  0  0  0  0
  148.9789  141.2446  154.1318 C   0  0  2  0  0  0  0  0  0  0  0  0
  147.6600  141.6721  153.5439 C   0  0  0  0  0  0  0  0  0  0  0  0
  146.7253  140.7296  153.6413 C   0  0  0  0  0  0  0  0  0  0  0  0
  147.2166  139.4866  154.3364 C   0  0  1  0  0  0  0  0  0  0  0  0
  146.9914  138.2233  153.4889 C   0  0  0  0  0  0  0  0  0  0  0  0
  147.6515  137.1199  154.0725 O   0  0  0  0  0  0  0  0  0  0  0  0
  148.7105  139.7987  154.6179 C   0  0  0  0  0  0  0  0  0  0  0  0
  151.4450  144.2126  158.7541 C   0  0  0  0  0  0  0  0  0  0  0  0
  152.3137  144.3678  159.8521 C   0  0  0  0  0  0  0  0  0  0  0  0
  153.0785  143.3686  160.3388 N   0  0  0  0  0  0  0  0  0  0  0  0
  149.7368  141.2405  153.3463 H   0  0  0  0  0  0  0  0  0  0  0  0
  146.6702  139.4013  155.2767 H   0  0  0  0  0  0  0  0  0  0  0  0
  153.7864  140.1462  159.7534 H   0  0  0  0  0  0  0  0  0  0  0  0
  153.6099  140.8801  161.3499 H   0  0  0  0  0  0  0  0  0  0  0  0
  154.9307  141.3810  160.2859 H   0  0  0  0  0  0  0  0  0  0  0  0
  152.1688  140.9175  158.1908 H   0  0  0  0  0  0  0  0  0  0  0  0
  149.8483  143.6204  156.8893 H   0  0  0  0  0  0  0  0  0  0  0  0
  148.9127  143.0096  155.2957 H   0  0  0  0  0  0  0  0  0  0  0  0
  147.5206  142.6413  153.0878 H   0  0  0  0  0  0  0  0  0  0  0  0
  145.7101  140.8250  153.2851 H   0  0  0  0  0  0  0  0  0  0  0  0
  145.9276  137.9929  153.4246 H   0  0  0  0  0  0  0  0  0  0  0  0
  147.3540  138.3656  152.4701 H   0  0  0  0  0  0  0  0  0  0  0  0
  148.1394  136.6704  153.3994 H   0  0  0  0  0  0  0  0  0  0  0  0
  149.3623  139.1071  154.0821 H   0  0  0  0  0  0  0  0  0  0  0  0
  148.9339  139.6744  155.6784 H   0  0  0  0  0  0  0  0  0  0  0  0
  150.8563  145.0487  158.4061 H   0  0  0  0  0  0  0  0  0  0  0  0
  152.3967  145.3211  160.3526 H   0  0  0  0  0  0  0  0  0  0  0  0
  1  2  1  0  0  0  0
  1 21  1  0  0  0  0
  1 22  1  0  0  0  0
  1 23  1  0  0  0  0
  2 18  1  0  0  0  0
  2  3  2  0  0  0  0
  3  4  1  0  0  0  0
  3 24  1  0  0  0  0
  4  5  1  0  0  0  0
  4 16  2  0  0  0  0
  5  6  1  0  0  0  0
  5 25  1  0  0  0  0
  6  7  2  0  0  0  0
  6  8  1  0  0  0  0
  8  9  1  0  0  0  0
  8 26  1  0  0  0  0
  9 19  1  0  0  0  0
  9 15  1  0  0  0  0
  9 10  1  0  0  0  0
 10 11  2  0  0  0  0
 10 27  1  0  0  0  0
 11 12  1  0  0  0  0
 11 28  1  0  0  0  0
 12 20  1  0  0  0  0
 12 13  1  0  0  0  0
 12 15  1  0  0  0  0
 13 14  1  0  0  0  0
 13 29  1  0  0  0  0
 13 30  1  0  0  0  0
 14 31  1  0  0  0  0
 15 32  1  0  0  0  0
 15 33  1  0  0  0  0
 16 17  1  0  0  0  0
 16 34  1  0  0  0  0
 17 18  2  0  0  0  0
 17 35  1  0  0  0  0
M  END
> <s_m_source_file>
AV-unprocessed.smi

> <i_m_source_file_index>
3298

> <i_lp_mmshare_version>
43012

> <i_f3d_flags>
0

> <s_epik_input>
W0NIM11jMVtjSF1jKFtjSF1bY0hdbjEpW05IXUMoPU8pW05IXVtDQEBIXTJbQ0hdPVtDSF1bQ0BASF0oW0NIMl0yKVtDSDJdW09IXQ==

> <s_epik_cmdline>
J2VwaWtfcHl0aG9uJywgJy1waCcsICc3LjAnLCAnLXRuJywgJzgnLCAnLW1hJywgJzIwMCcsICctbWV0YWxfYmluZGluZycsICctaW1hZScsICc8aW5maWxlLm1hZT4nLCAnLW9tYWUnLCAnPG91dGZpbGUubWFlPic=

> <r_epik_Ionization_Penalty>
0.379275

> <r_epik_Ionization_Penalty_Charging>
0

> <r_epik_Ionization_Penalty_Neutral>
0.379275

> <r_epik_State_Penalty>
0.377195

> <r_epik_Charging_Adjusted_Penalty>
0.377195

> <i_epik_Tot_Q>
0

> <i_epik_Tot_abs_Q>
0

> <r_epik_Metal_State_Penalty>
0.22815

> <b_epik_Metal_Only>
0

> <s_lp_Force_Field>
OPLS_2005

> <r_lp_Energy>
21.788

> <b_lp_Chiralities_Consistent>
1

> <s_lp_Variant>
AV-unprocessed.smi:3298-3

> <Gold.Version>
5.8.1

> <Gold.Id.Protein>
6NUR|6NUR_protein|mol2

> <Gold.PLP.Fitness>
44.5457

> <Gold.PLP.PLP>
-35.9678

> <Gold.PLP.part.hbond>
-3.0000

> <Gold.PLP.part.metal>
0.0000

> <Gold.PLP.part.buried>
-3.6562

> <Gold.PLP.part.nonpolar>
-29.6497

> <Gold.PLP.part.repulsive>
0.2359

> <Gold.PLP.ligand.clash>
0.0000

> <Gold.PLP.ligand.torsion>
0.2194

> <Gold.PLP.Chemscore.Hbond>
3.0000

> <Gold.PLP.Chemscore.CHOScore>
0.0000

> <Gold.PLP.Chemscore.Metal>
0.0000

> <Gold.Chemscore.Hbonds>
donor molecule, donor type, donor heavy atom, donor atom, acceptor molecule, acceptor atom, score
      L1  H     5    25       P1  8028  0.96
      L1  H     8    26       P1  8028  1.00
      L1  H    14    31       P1  7948  1.00

> <Gold.PLP.Chemscore.Internal.Correction>
0.0168

> <Gold.Rescore>
     Score         DG    S(hbond)    S(metal)    S(lipo)     H(rot)  DE(clash)    DE(int)     intcor
     19.59     -22.63       2.92        0.00     102.12       1.78       0.48       2.56       ----

> <Gold.Chemscore.Fitness>
19.5880

> <Gold.Chemscore.DG>
-22.6297

> <Gold.Chemscore.ZeroCoef>
-5.4800

> <Gold.Chemscore.Hbond>
2.9215

> <Gold.Chemscore.Metal>
0.0000

> <Gold.Chemscore.Lipo>
102.1186

> <Gold.Chemscore.Internal_Hbond>
0.0000

> <Gold.Chemscore.DEClash>
0.4840

> <Gold.Chemscore.DEInternal>
2.5577

> <Gold.Chemscore.Rot>
1.7796

> <Gold.Chemscore.Internal.Correction>
   9.000000E+99

> <Gold.Chemscore.Hbonds>
donor molecule, donor type, donor heavy atom, donor atom, acceptor molecule, acceptor atom, score
      L1  H     5    25       P1  8028  0.91
      L1  H     8    26       P1  8028  0.97
      L1  H    14    31       P1  7948  1.00

> <Gold.Chemscore.Hbond.Weighted>
-9.7577

> <Gold.Chemscore.Metal.Weighted>
-0.0000

> <Gold.Chemscore.Lipo.Weighted>
-11.9479

> <Gold.Chemscore.Internal_Hbond.Weighted>
0.0000

> <Gold.Chemscore.DEClash.Weighted>
0.4840

> <Gold.Chemscore.DEInternal.Weighted>
2.5577

> <Gold.Chemscore.Rot.Weighted>
4.5558

> <Gold.Chemscore.Internal.Correction.Weighted>
   9.000000E+99

> <Gold.Protein.RotatedTorsions>
[ 6907 6896 6895 6894 ] final  -54.50 input  -60.11 | X-H torsion
[ 7974 7965 7964 7962 ] final   70.80 input  175.53 | X-H torsion
[ 8008 7997 7996 7995 ] final -120.86 input   59.86 | X-H torsion
[ 10167 10162 10161 10158 ] final -130.21 input  -65.29 | X-H torsion
[ 10718 10713 10712 10709 ] final   52.21 input   66.30 | X-H torsion
[ 10763 10752 10751 10750 ] final   50.21 input  -60.55 | X-H torsion
[ 11005 11000 10999 10996 ] final  -93.43 input  -57.11 | X-H torsion

> <Gold.Protein.ActiveResidues>
 VAL166  LYS551  ARG553  GLY616  TRP617  ASP618  TYR619  PRO620  LYS621  CYS622 
 ASP623  PHE694  ASN695  SER759  ASP760  ASP761  ALA762  ILE779  LEU786  VAL792 
 PHE793  MET794  SER795  GLU796  ALA797  LYS798  CYS799  TRP800  GLU811  SER814 

> <Gold.Protein.RotatedAtoms>
  150.8333  134.7595  159.6871 H   0  0  0  0  0  0  0  0  0  0  0  0  # atno 6907 bound_to 6896
  152.4434  134.5542  159.9885 H   0  0  0  0  0  0  0  0  0  0  0  0  # atno 6908 bound_to 6896
  151.5698  133.3354  159.3023 H   0  0  0  0  0  0  0  0  0  0  0  0  # atno 6909 bound_to 6896
  145.7737  139.2855  143.1306 H   0  0  0  0  0  0  0  0  0  0  0  0  # atno 7974 bound_to 7965
  155.1387  140.0401  157.2793 H   0  0  0  0  0  0  0  0  0  0  0  0  # atno 8008 bound_to 7997
  154.6489  140.2564  155.7210 H   0  0  0  0  0  0  0  0  0  0  0  0  # atno 8009 bound_to 7997
  156.2568  140.2840  156.0914 H   0  0  0  0  0  0  0  0  0  0  0  0  # atno 8010 bound_to 7997
  139.9317  143.6264  152.2528 H   0  0  0  0  0  0  0  0  0  0  0  0  # atno 10167 bound_to 10162
  157.5053  130.8465  149.8367 H   0  0  0  0  0  0  0  0  0  0  0  0  # atno 10718 bound_to 10713
  152.9785  135.5886  154.4216 H   0  0  0  0  0  0  0  0  0  0  0  0  # atno 10763 bound_to 10752
  154.3839  135.2767  155.2197 H   0  0  0  0  0  0  0  0  0  0  0  0  # atno 10764 bound_to 10752
  154.4098  135.6084  153.6000 H   0  0  0  0  0  0  0  0  0  0  0  0  # atno 10765 bound_to 10752
  141.1497  133.7887  157.0159 H   0  0  0  0  0  0  0  0  0  0  0  0  # atno 11005 bound_to 11000
  146.0144  140.8405  142.9954 LP  0  0  0  0  0  0  0  0  0  0  0  0  # atno 17320 bound_to 7965
  144.6808  140.2537  143.7328 LP  0  0  0  0  0  0  0  0  0  0  0  0  # atno 17321 bound_to 7965
  139.6777  144.7657  151.1666 LP  0  0  0  0  0  0  0  0  0  0  0  0  # atno 17342 bound_to 10162
  140.7635  143.5771  150.8934 LP  0  0  0  0  0  0  0  0  0  0  0  0  # atno 17343 bound_to 10162
  156.0254  130.3781  150.1837 LP  0  0  0  0  0  0  0  0  0  0  0  0  # atno 17370 bound_to 10713
  157.0027  130.9927  151.3386 LP  0  0  0  0  0  0  0  0  0  0  0  0  # atno 17371 bound_to 10713
  140.0847  134.9627  157.1681 LP  0  0  0  0  0  0  0  0  0  0  0  0  # atno 17394 bound_to 11000
  140.3527  134.2580  155.7196 LP  0  0  0  0  0  0  0  0  0  0  0  0  # atno 17395 bound_to 11000

$$$$
