AV-unprocessed.smi:50|AV-procd|sdf|496|dock3
  -GOLD-   2262016363D 1   1.00000     0.00000
 Structure written by MMmdl.
 43 44  0  0  0  0  0  0  0  0  3 V2000
  144.4921  131.9890  150.4196 C   0  0  0  0  0  0  0  0  0  0  0  0
  145.5740  132.3306  151.4632 C   0  0  0  0  0  0  0  0  0  0  0  0
  146.7733  132.9902  150.7571 C   0  0  0  0  0  0  0  0  0  0  0  0
  145.9992  131.0898  152.2960 C   0  0  1  0  0  0  0  0  0  0  0  0
  146.6660  130.0715  151.4631 N   0  3  0  0  0  0  0  0  0  0  0  0
  146.9864  131.4067  153.4306 C   0  0  0  0  0  0  0  0  0  0  0  0
  148.0958  130.8860  153.5576 O   0  0  0  0  0  0  0  0  0  0  0  0
  146.4475  132.2978  154.2798 O   0  0  0  0  0  0  0  0  0  0  0  0
  147.1396  132.6417  155.4695 C   0  0  0  0  0  0  0  0  0  0  0  0
  146.3647  132.1214  156.6833 C   0  0  0  0  0  0  0  0  0  0  0  0
  146.9543  132.6470  157.8607 O   0  0  0  0  0  0  0  0  0  0  0  0
  146.2139  132.3748  159.0051 C   0  0  0  0  0  0  0  0  0  0  0  0
  146.6576  133.2614  160.0668 N   0  0  0  0  0  0  0  0  0  0  0  0
  146.9037  132.9474  161.3552 C   0  0  0  0  0  0  0  0  0  0  0  0
  147.2940  133.9611  162.1267 N   0  0  0  0  0  0  0  0  0  0  0  0
  147.2840  135.0264  161.2336 C   0  0  0  0  0  0  0  0  0  0  0  0
  147.5994  136.4649  161.4097 C   0  0  0  0  0  0  0  0  0  0  0  0
  147.9544  136.8695  162.5153 O   0  0  0  0  0  0  0  0  0  0  0  0
  147.4610  137.2383  160.2899 N   0  5  0  0  0  0  0  0  0  0  0  0
  147.0483  136.6666  159.0781 C   0  0  0  0  0  0  0  0  0  0  0  0
  146.9540  137.5880  158.0580 N   0  0  0  0  0  0  0  0  0  0  0  0
  146.7605  135.4086  158.8493 N   0  0  0  0  0  0  0  0  0  0  0  0
  146.8989  134.6276  159.9820 C   0  0  0  0  0  0  0  0  0  0  0  0
  145.1053  130.6315  152.7209 H   0  0  0  0  0  0  0  0  0  0  0  0
  144.8451  131.2311  149.7196 H   0  0  0  0  0  0  0  0  0  0  0  0
  144.2155  132.8698  149.8393 H   0  0  0  0  0  0  0  0  0  0  0  0
  143.5782  131.6140  150.8801 H   0  0  0  0  0  0  0  0  0  0  0  0
  145.1536  133.0764  152.1402 H   0  0  0  0  0  0  0  0  0  0  0  0
  147.2738  132.2882  150.0892 H   0  0  0  0  0  0  0  0  0  0  0  0
  147.5118  133.3609  151.4677 H   0  0  0  0  0  0  0  0  0  0  0  0
  146.4537  133.8441  150.1587 H   0  0  0  0  0  0  0  0  0  0  0  0
  146.9487  129.2968  152.0464 H   0  0  0  0  0  0  0  0  0  0  0  0
  147.4803  130.4781  151.0253 H   0  0  0  0  0  0  0  0  0  0  0  0
  148.1316  132.1890  155.4431 H   0  0  0  0  0  0  0  0  0  0  0  0
  147.2738  133.7222  155.5413 H   0  0  0  0  0  0  0  0  0  0  0  0
  145.3103  132.3943  156.6173 H   0  0  0  0  0  0  0  0  0  0  0  0
  146.4220  131.0321  156.7029 H   0  0  0  0  0  0  0  0  0  0  0  0
  145.1528  132.5516  158.8211 H   0  0  0  0  0  0  0  0  0  0  0  0
  146.3653  131.3445  159.3290 H   0  0  0  0  0  0  0  0  0  0  0  0
  146.7945  131.9446  161.7406 H   0  0  0  0  0  0  0  0  0  0  0  0
  147.1602  138.5694  158.1717 H   0  0  0  0  0  0  0  0  0  0  0  0
  146.6778  137.3428  157.1185 H   0  0  0  0  0  0  0  0  0  0  0  0
  146.0272  129.7451  150.7524 H   0  0  0  0  0  0  0  0  0  0  0  0
  1  2  1  0  0  0  0
  1 25  1  0  0  0  0
  1 26  1  0  0  0  0
  1 27  1  0  0  0  0
  2  3  1  0  0  0  0
  2  4  1  0  0  0  0
  2 28  1  0  0  0  0
  3 29  1  0  0  0  0
  3 30  1  0  0  0  0
  3 31  1  0  0  0  0
  4 24  1  0  0  0  0
  4  5  1  0  0  0  0
  4  6  1  0  0  0  0
  5 32  1  0  0  0  0
  5 33  1  0  0  0  0
  5 43  1  0  0  0  0
  6  7  2  0  0  0  0
  6  8  1  0  0  0  0
  8  9  1  0  0  0  0
  9 10  1  0  0  0  0
  9 34  1  0  0  0  0
  9 35  1  0  0  0  0
 10 11  1  0  0  0  0
 10 36  1  0  0  0  0
 10 37  1  0  0  0  0
 11 12  1  0  0  0  0
 12 13  1  0  0  0  0
 12 38  1  0  0  0  0
 12 39  1  0  0  0  0
 13 23  1  0  0  0  0
 13 14  1  0  0  0  0
 14 15  2  0  0  0  0
 14 40  1  0  0  0  0
 15 16  1  0  0  0  0
 16 23  2  0  0  0  0
 16 17  1  0  0  0  0
 17 18  2  0  0  0  0
 17 19  1  0  0  0  0
 19 20  1  0  0  0  0
 20 21  1  0  0  0  0
 20 22  2  0  0  0  0
 21 41  1  0  0  0  0
 21 42  1  0  0  0  0
 22 23  1  0  0  0  0
M  CHG  1   5   1
M  CHG  1  19  -1
M  END
> <s_m_source_file>
AV-unprocessed.smi

> <i_m_source_file_index>
50

> <i_lp_mmshare_version>
43012

> <i_f3d_flags>
0

> <s_epik_input>
W0NIM11bQ0hdKFtDSDNdKVtDQEhdKFtOSDJdKUMoPU8pT1tDSDJdW0NIMl1PW0NIMl1uKFtjSF1uMSljKGMxMiluYyhbTkgyXSlbbkhdYzI9Tw==

> <s_epik_cmdline>
J2VwaWtfcHl0aG9uJywgJy1waCcsICc3LjAnLCAnLXRuJywgJzgnLCAnLW1hJywgJzIwMCcsICctbWV0YWxfYmluZGluZycsICctaW1hZScsICc8aW5maWxlLm1hZT4nLCAnLW9tYWUnLCAnPG91dGZpbGUubWFlPic=

> <r_lp_tautomer_probability>
0.99994

> <r_epik_Ionization_Penalty>
3.77459

> <r_epik_Ionization_Penalty_Charging>
0.215994

> <r_epik_Ionization_Penalty_Neutral>
3.5586

> <r_epik_State_Penalty>
3.75449

> <r_epik_Charging_Adjusted_Penalty>
3.97048

> <i_epik_Tot_Q>
0

> <i_epik_Tot_abs_Q>
2

> <r_epik_Metal_State_Penalty>
0.723824

> <b_epik_Metal_Only>
1

> <s_epik_Chemistry_Notes>
This compound has an ester and may undergo hydrolysis at high or low pH. This compound contains an acetal/aminal-like group ( X-CH(R)-Y where X, Y are N, S, or O) that may be acid/base labile, releasing an aldehyde.

> <s_lp_Force_Field>
OPLS_2005

> <r_lp_Energy>
22.4326

> <b_lp_Chiralities_Consistent>
1

> <s_lp_Variant>
AV-unprocessed.smi:50-6

> <Gold.Version>
5.8.1

> <Gold.Id.Protein>
6NUR|6NUR_protein|mol2

> <Gold.PLP.Fitness>
38.9288

> <Gold.PLP.PLP>
-28.1308

> <Gold.PLP.part.hbond>
-3.2503

> <Gold.PLP.part.metal>
0.0000

> <Gold.PLP.part.buried>
-6.1410

> <Gold.PLP.part.nonpolar>
-19.1862

> <Gold.PLP.part.repulsive>
0.3111

> <Gold.PLP.ligand.clash>
0.0000

> <Gold.PLP.ligand.torsion>
0.7061

> <Gold.PLP.Chemscore.Hbond>
4.0000

> <Gold.PLP.Chemscore.CHOScore>
0.0000

> <Gold.PLP.Chemscore.Metal>
0.0000

> <Gold.Chemscore.Hbonds>
donor molecule, donor type, donor heavy atom, donor atom, acceptor molecule, acceptor atom, score
      L1  H     5    33       P1 10747  1.00
      P1  H  6931  6943       L1    18  0.90
      P1  H  6934  6947       L1    19  2.00

> <Gold.PLP.Chemscore.Internal.Correction>
0.2101

> <Gold.Rescore>
     Score         DG    S(hbond)    S(metal)    S(lipo)     H(rot)  DE(clash)    DE(int)     intcor
      4.77      -6.01       2.33        0.00      43.86       4.83       0.08       1.17       ----

> <Gold.Chemscore.Fitness>
4.7679

> <Gold.Chemscore.DG>
-6.0138

> <Gold.Chemscore.ZeroCoef>
-5.4800

> <Gold.Chemscore.Hbond>
2.3263

> <Gold.Chemscore.Metal>
0.0000

> <Gold.Chemscore.Lipo>
43.8621

> <Gold.Chemscore.Internal_Hbond>
0.0000

> <Gold.Chemscore.DEClash>
0.0802

> <Gold.Chemscore.DEInternal>
1.1658

> <Gold.Chemscore.Rot>
4.8312

> <Gold.Chemscore.Internal.Correction>
   9.000000E+99

> <Gold.Chemscore.Hbonds>
donor molecule, donor type, donor heavy atom, donor atom, acceptor molecule, acceptor atom, score
      L1  H     5    33       P1 10747  1.00
      P1  H  6931  6943       L1    18  0.17
      P1  H  6934  6947       L1    19  0.53

> <Gold.Chemscore.Hbond.Weighted>
-7.7698

> <Gold.Chemscore.Metal.Weighted>
-0.0000

> <Gold.Chemscore.Lipo.Weighted>
-5.1319

> <Gold.Chemscore.Internal_Hbond.Weighted>
0.0000

> <Gold.Chemscore.DEClash.Weighted>
0.0802

> <Gold.Chemscore.DEInternal.Weighted>
1.1658

> <Gold.Chemscore.Rot.Weighted>
12.3678

> <Gold.Chemscore.Internal.Correction.Weighted>
   9.000000E+99

> <Gold.Protein.RotatedTorsions>
[ 6907 6896 6895 6894 ] final   94.76 input  -60.11 | X-H torsion
[ 7974 7965 7964 7962 ] final   19.18 input  175.53 | X-H torsion
[ 8008 7997 7996 7995 ] final  -23.42 input   59.86 | X-H torsion
[ 10167 10162 10161 10158 ] final -134.54 input  -65.29 | X-H torsion
[ 10718 10713 10712 10709 ] final -118.20 input   66.30 | X-H torsion
[ 10763 10752 10751 10750 ] final  175.25 input  -60.55 | X-H torsion
[ 11005 11000 10999 10996 ] final   13.38 input  -57.11 | X-H torsion

> <Gold.Protein.ActiveResidues>
 VAL166  LYS551  ARG553  GLY616  TRP617  ASP618  TYR619  PRO620  LYS621  CYS622 
 ASP623  PHE694  ASN695  SER759  ASP760  ASP761  ALA762  ILE779  LEU786  VAL792 
 PHE793  MET794  SER795  GLU796  ALA797  LYS798  CYS799  TRP800  GLU811  SER814 

> <Gold.Protein.RotatedAtoms>
  152.5448  134.1144  159.8372 H   0  0  0  0  0  0  0  0  0  0  0  0  # atno 6907 bound_to 6896
  151.1207  133.5099  159.2609 H   0  0  0  0  0  0  0  0  0  0  0  0  # atno 6908 bound_to 6896
  151.1782  135.0358  159.8835 H   0  0  0  0  0  0  0  0  0  0  0  0  # atno 6909 bound_to 6896
  146.2158  139.8350  142.8652 H   0  0  0  0  0  0  0  0  0  0  0  0  # atno 7974 bound_to 7965
  154.4586  140.1981  156.0308 H   0  0  0  0  0  0  0  0  0  0  0  0  # atno 8008 bound_to 7997
  156.0796  140.3273  155.7648 H   0  0  0  0  0  0  0  0  0  0  0  0  # atno 8009 bound_to 7997
  155.5133  140.0563  157.2910 H   0  0  0  0  0  0  0  0  0  0  0  0  # atno 8010 bound_to 7997
  139.8870  143.6769  152.2618 H   0  0  0  0  0  0  0  0  0  0  0  0  # atno 10167 bound_to 10162
  156.1089  130.6233  150.9261 H   0  0  0  0  0  0  0  0  0  0  0  0  # atno 10718 bound_to 10713
  154.4650  135.2769  155.1684 H   0  0  0  0  0  0  0  0  0  0  0  0  # atno 10763 bound_to 10752
  154.3457  135.6161  153.5621 H   0  0  0  0  0  0  0  0  0  0  0  0  # atno 10764 bound_to 10752
  152.9858  135.5799  154.5020 H   0  0  0  0  0  0  0  0  0  0  0  0  # atno 10765 bound_to 10752
  140.4814  134.0932  155.7752 H   0  0  0  0  0  0  0  0  0  0  0  0  # atno 11005 bound_to 11000
  145.2958  141.0180  143.3637 LP  0  0  0  0  0  0  0  0  0  0  0  0  # atno 17320 bound_to 7965
  144.9043  139.4609  143.6617 LP  0  0  0  0  0  0  0  0  0  0  0  0  # atno 17321 bound_to 7965
  139.7144  144.7614  151.1059 LP  0  0  0  0  0  0  0  0  0  0  0  0  # atno 17342 bound_to 10162
  140.7734  143.5289  150.9447 LP  0  0  0  0  0  0  0  0  0  0  0  0  # atno 17343 bound_to 10162
  157.6269  131.0925  150.8517 LP  0  0  0  0  0  0  0  0  0  0  0  0  # atno 17370 bound_to 10713
  156.8631  130.5120  149.5302 LP  0  0  0  0  0  0  0  0  0  0  0  0  # atno 17371 bound_to 10713
  141.1529  133.8935  157.2051 LP  0  0  0  0  0  0  0  0  0  0  0  0  # atno 17394 bound_to 11000
  139.9824  135.0093  156.9782 LP  0  0  0  0  0  0  0  0  0  0  0  0  # atno 17395 bound_to 11000

$$$$
