AV-unprocessed.smi:2149|AV-procd|sdf|8754|dock8
  -GOLD-   2272011533D 1   1.00000     0.00000
 Structure written by MMmdl.
 43 44  0  0  0  0  0  0  0  0  2 V2000
  148.9966  140.5168  156.0985 C   0  0  0  0  0  0  0  0  0  0  0  0
  149.5345  140.2069  154.3672 S   0  0  0  0  0  0  0  0  0  0  0  0
  148.5466  139.3215  153.7323 O   0  0  0  0  0  0  0  0  0  0  0  0
  149.8576  141.5027  153.7494 O   0  0  0  0  0  0  0  0  0  0  0  0
  151.0177  139.3123  154.5355 N   0  0  0  0  0  0  0  0  0  0  0  0
  151.0972  137.9107  154.0744 C   0  0  0  0  0  0  0  0  0  0  0  0
  151.0207  136.9172  155.2489 C   0  0  0  0  0  0  0  0  0  0  0  0
  152.0564  137.2459  156.3321 C   0  0  0  0  0  0  0  0  0  0  0  0
  151.8570  138.6953  156.8056 C   0  0  1  0  0  0  0  0  0  0  0  0
  152.8603  139.0874  157.8968 C   0  0  0  0  0  0  0  0  0  0  0  0
  154.0715  139.0115  157.6902 O   0  0  0  0  0  0  0  0  0  0  0  0
  152.3369  139.5496  159.0423 N   0  0  0  0  0  0  0  0  0  0  0  0
  153.0983  140.1261  160.1464 C   0  0  0  0  0  0  0  0  0  0  0  0
  153.8946  141.3839  159.7352 C   0  0  0  0  0  0  0  0  0  0  0  0
  153.1488  142.6867  159.9768 C   0  0  0  0  0  0  0  0  0  0  0  0
  152.8944  143.6079  158.9370 C   0  0  0  0  0  0  0  0  0  0  0  0
  152.1638  144.7812  159.2165 C   0  0  0  0  0  0  0  0  0  0  0  0
  151.7107  145.0135  160.5313 C   0  0  0  0  0  0  0  0  0  0  0  0
  152.0016  144.0660  161.5341 C   0  0  0  0  0  0  0  0  0  0  0  0
  152.7010  142.9513  161.2254 N   0  3  0  0  0  0  0  0  0  0  0  0
  151.9686  139.6621  155.6074 C   0  0  0  0  0  0  0  0  0  0  0  0
  148.0473  141.0518  156.0848 H   0  0  0  0  0  0  0  0  0  0  0  0
  149.7360  141.1251  156.6155 H   0  0  0  0  0  0  0  0  0  0  0  0
  148.8598  139.5704  156.6191 H   0  0  0  0  0  0  0  0  0  0  0  0
  150.3098  137.7039  153.3501 H   0  0  0  0  0  0  0  0  0  0  0  0
  152.0426  137.7775  153.5473 H   0  0  0  0  0  0  0  0  0  0  0  0
  150.0217  136.9282  155.6834 H   0  0  0  0  0  0  0  0  0  0  0  0
  151.1797  135.9028  154.8822 H   0  0  0  0  0  0  0  0  0  0  0  0
  151.9523  136.5521  157.1675 H   0  0  0  0  0  0  0  0  0  0  0  0
  153.0618  137.1079  155.9310 H   0  0  0  0  0  0  0  0  0  0  0  0
  150.8559  138.7738  157.2293 H   0  0  0  0  0  0  0  0  0  0  0  0
  151.3310  139.5605  159.1297 H   0  0  0  0  0  0  0  0  0  0  0  0
  152.3780  140.3953  160.9190 H   0  0  0  0  0  0  0  0  0  0  0  0
  153.7592  139.3791  160.5887 H   0  0  0  0  0  0  0  0  0  0  0  0
  154.8463  141.4101  160.2676 H   0  0  0  0  0  0  0  0  0  0  0  0
  154.1475  141.3217  158.6760 H   0  0  0  0  0  0  0  0  0  0  0  0
  153.2402  143.4113  157.9323 H   0  0  0  0  0  0  0  0  0  0  0  0
  151.9498  145.4912  158.4308 H   0  0  0  0  0  0  0  0  0  0  0  0
  151.1476  145.9053  160.7657 H   0  0  0  0  0  0  0  0  0  0  0  0
  151.6942  144.1633  162.5651 H   0  0  0  0  0  0  0  0  0  0  0  0
  152.9766  139.6305  155.1908 H   0  0  0  0  0  0  0  0  0  0  0  0
  151.8041  140.6898  155.9277 H   0  0  0  0  0  0  0  0  0  0  0  0
  152.8932  142.2764  161.9659 H   0  0  0  0  0  0  0  0  0  0  0  0
  1  2  1  0  0  0  0
  1 22  1  0  0  0  0
  1 23  1  0  0  0  0
  1 24  1  0  0  0  0
  2  3  2  0  0  0  0
  2  4  2  0  0  0  0
  2  5  1  0  0  0  0
  5 21  1  0  0  0  0
  5  6  1  0  0  0  0
  6  7  1  0  0  0  0
  6 25  1  0  0  0  0
  6 26  1  0  0  0  0
  7  8  1  0  0  0  0
  7 27  1  0  0  0  0
  7 28  1  0  0  0  0
  8  9  1  0  0  0  0
  8 29  1  0  0  0  0
  8 30  1  0  0  0  0
  9 10  1  0  0  0  0
  9 21  1  0  0  0  0
  9 31  1  0  0  0  0
 10 11  2  0  0  0  0
 10 12  1  0  0  0  0
 12 13  1  0  0  0  0
 12 32  1  0  0  0  0
 13 14  1  0  0  0  0
 13 33  1  0  0  0  0
 13 34  1  0  0  0  0
 14 15  1  0  0  0  0
 14 35  1  0  0  0  0
 14 36  1  0  0  0  0
 15 20  1  0  0  0  0
 15 16  2  0  0  0  0
 16 17  1  0  0  0  0
 16 37  1  0  0  0  0
 17 18  2  0  0  0  0
 17 38  1  0  0  0  0
 18 19  1  0  0  0  0
 18 39  1  0  0  0  0
 19 20  2  0  0  0  0
 19 40  1  0  0  0  0
 20 43  1  0  0  0  0
 21 41  1  0  0  0  0
 21 42  1  0  0  0  0
M  CHG  1  20   1
M  END
> <s_m_source_file>
AV-unprocessed.smi

> <i_m_source_file_index>
2149

> <i_lp_mmshare_version>
43012

> <i_f3d_flags>
0

> <s_epik_input>
W0NIM11TKD1PKSg9TylOMVtDSDJdW0NIMl1bQ0gyXVtDQEhdKFtDSDJdMSlDKD1PKVtOSF1bQ0gyXVtDSDJdYzJbY0hdW2NIXVtjSF1bY0hdbjI=

> <s_epik_cmdline>
J2VwaWtfcHl0aG9uJywgJy1waCcsICc3LjAnLCAnLXRuJywgJzgnLCAnLW1hJywgJzIwMCcsICctbWV0YWxfYmluZGluZycsICctaW1hZScsICc8aW5maWxlLm1hZT4nLCAnLW9tYWUnLCAnPG91dGZpbGUubWFlPic=

> <r_epik_Ionization_Penalty>
1.83523

> <r_epik_Ionization_Penalty_Charging>
1.83523

> <r_epik_Ionization_Penalty_Neutral>
2.62835e-08

> <r_epik_State_Penalty>
1.95153

> <r_epik_Charging_Adjusted_Penalty>
3.78676

> <i_epik_Tot_Q>
1

> <i_epik_Tot_abs_Q>
1

> <r_epik_Metal_State_Penalty>
1.97791

> <b_epik_Metal_Only>
0

> <s_lp_Force_Field>
OPLS_2005

> <r_lp_Energy>
6.48015

> <b_lp_Chiralities_Consistent>
1

> <s_lp_Variant>
AV-unprocessed.smi:2149-3

> <Gold.Version>
5.8.1

> <Gold.Id.Protein>
6NUR|6NUR_protein|mol2

> <Gold.PLP.Fitness>
49.5063

> <Gold.PLP.PLP>
-43.5620

> <Gold.PLP.part.hbond>
-2.8023

> <Gold.PLP.part.metal>
0.0000

> <Gold.PLP.part.buried>
-6.3715

> <Gold.PLP.part.nonpolar>
-37.8647

> <Gold.PLP.part.repulsive>
1.5436

> <Gold.PLP.ligand.clash>
0.0000

> <Gold.PLP.ligand.torsion>
1.3848

> <Gold.PLP.Chemscore.Hbond>
2.2000

> <Gold.PLP.Chemscore.CHOScore>
0.0000

> <Gold.PLP.Chemscore.Metal>
0.0000

> <Gold.Chemscore.Hbonds>
donor molecule, donor type, donor heavy atom, donor atom, acceptor molecule, acceptor atom, score
      P1  H  7989  7998       L1     4  0.06
      P1  H  7997  8010       L1    11  0.52
      P1  H  8011  8017       L1     4  0.70

> <Gold.PLP.Chemscore.Internal.Correction>
2.1140

> <Gold.Rescore>
     Score         DG    S(hbond)    S(metal)    S(lipo)     H(rot)  DE(clash)    DE(int)     intcor
     18.71     -20.59       1.90        0.00     111.00       1.65       0.45       1.43       ----

> <Gold.Chemscore.Fitness>
18.7053

> <Gold.Chemscore.DG>
-20.5880

> <Gold.Chemscore.ZeroCoef>
-5.4800

> <Gold.Chemscore.Hbond>
1.9027

> <Gold.Chemscore.Metal>
0.0000

> <Gold.Chemscore.Lipo>
110.9957

> <Gold.Chemscore.Internal_Hbond>
0.0000

> <Gold.Chemscore.DEClash>
0.4479

> <Gold.Chemscore.DEInternal>
1.4348

> <Gold.Chemscore.Rot>
1.6538

> <Gold.Chemscore.Internal.Correction>
   9.000000E+99

> <Gold.Chemscore.Hbonds>
donor molecule, donor type, donor heavy atom, donor atom, acceptor molecule, acceptor atom, score
      P1  H  7997  8010       L1    11  0.44
      P1  H  8011  8017       L1     4  0.70

> <Gold.Chemscore.Hbond.Weighted>
-6.3552

> <Gold.Chemscore.Metal.Weighted>
-0.0000

> <Gold.Chemscore.Lipo.Weighted>
-12.9865

> <Gold.Chemscore.Internal_Hbond.Weighted>
0.0000

> <Gold.Chemscore.DEClash.Weighted>
0.4479

> <Gold.Chemscore.DEInternal.Weighted>
1.4348

> <Gold.Chemscore.Rot.Weighted>
4.2337

> <Gold.Chemscore.Internal.Correction.Weighted>
   9.000000E+99

> <Gold.Protein.RotatedTorsions>
[ 6907 6896 6895 6894 ] final  135.42 input  -60.11 | X-H torsion
[ 7974 7965 7964 7962 ] final -172.62 input  175.53 | X-H torsion
[ 8008 7997 7996 7995 ] final   40.03 input   59.86 | X-H torsion
[ 10167 10162 10161 10158 ] final   66.17 input  -65.29 | X-H torsion
[ 10718 10713 10712 10709 ] final  139.67 input   66.30 | X-H torsion
[ 10763 10752 10751 10750 ] final   18.11 input  -60.55 | X-H torsion
[ 11005 11000 10999 10996 ] final -159.50 input  -57.11 | X-H torsion

> <Gold.Protein.ActiveResidues>
 VAL166  LYS551  ARG553  GLY616  TRP617  ASP618  TYR619  PRO620  LYS621  CYS622 
 ASP623  PHE694  ASN695  SER759  ASP760  ASP761  ALA762  ILE779  LEU786  VAL792 
 PHE793  MET794  SER795  GLU796  ALA797  LYS798  CYS799  TRP800  GLU811  SER814 

> <Gold.Protein.RotatedAtoms>
  152.3006  133.5651  159.5615 H   0  0  0  0  0  0  0  0  0  0  0  0  # atno 6907 bound_to 6896
  150.7276  134.0297  159.3738 H   0  0  0  0  0  0  0  0  0  0  0  0  # atno 6908 bound_to 6896
  151.8197  135.0656  160.0474 H   0  0  0  0  0  0  0  0  0  0  0  0  # atno 6909 bound_to 6896
  144.7145  140.1745  143.6364 H   0  0  0  0  0  0  0  0  0  0  0  0  # atno 7974 bound_to 7965
  155.2464  140.3349  155.4286 H   0  0  0  0  0  0  0  0  0  0  0  0  # atno 8008 bound_to 7997
  156.2234  140.1819  156.7466 H   0  0  0  0  0  0  0  0  0  0  0  0  # atno 8009 bound_to 7997
  154.5861  140.0645  156.9158 H   0  0  0  0  0  0  0  0  0  0  0  0  # atno 8010 bound_to 7997
  140.1033  144.4884  150.7024 H   0  0  0  0  0  0  0  0  0  0  0  0  # atno 10167 bound_to 10162
  157.4118  131.1029  151.0446 H   0  0  0  0  0  0  0  0  0  0  0  0  # atno 10718 bound_to 10713
  153.1278  135.6733  153.9228 H   0  0  0  0  0  0  0  0  0  0  0  0  # atno 10763 bound_to 10752
  153.8723  135.3068  155.3444 H   0  0  0  0  0  0  0  0  0  0  0  0  # atno 10764 bound_to 10752
  154.7681  135.4954  153.9674 H   0  0  0  0  0  0  0  0  0  0  0  0  # atno 10765 bound_to 10752
  140.6418  134.4543  157.5233 H   0  0  0  0  0  0  0  0  0  0  0  0  # atno 11005 bound_to 11000
  145.8913  139.2377  143.1548 LP  0  0  0  0  0  0  0  0  0  0  0  0  # atno 17320 bound_to 7965
  145.9900  140.8610  143.0071 LP  0  0  0  0  0  0  0  0  0  0  0  0  # atno 17321 bound_to 7965
  140.6966  143.2407  151.4984 LP  0  0  0  0  0  0  0  0  0  0  0  0  # atno 17342 bound_to 10162
  139.5659  144.2043  152.1764 LP  0  0  0  0  0  0  0  0  0  0  0  0  # atno 17343 bound_to 10162
  157.1407  130.6142  149.5554 LP  0  0  0  0  0  0  0  0  0  0  0  0  # atno 17370 bound_to 10713
  155.9853  130.4882  150.7025 LP  0  0  0  0  0  0  0  0  0  0  0  0  # atno 17371 bound_to 10713
  139.9077  134.8412  156.1643 LP  0  0  0  0  0  0  0  0  0  0  0  0  # atno 17394 bound_to 11000
  141.0601  133.6846  156.1935 LP  0  0  0  0  0  0  0  0  0  0  0  0  # atno 17395 bound_to 11000

$$$$
