AV-unprocessed.smi:1948|AV-procd|sdf|7876|dock5
  -GOLD-   2272010 23D 1   1.00000     0.00000
 Structure written by MMmdl.
 29 30  0  0  0  0  0  0  0  0  2 V2000
  151.0034  141.0451  158.4972 O   0  0  0  0  0  0  0  0  0  0  0  0
  152.1472  140.7702  158.1270 C   0  0  0  0  0  0  0  0  0  0  0  0
  152.4978  139.7704  157.2858 N   0  5  0  0  0  0  0  0  0  0  0  0
  151.8346  139.6012  156.1299 C   0  0  0  0  0  0  0  0  0  0  0  0
  151.1987  140.6100  155.5124 N   0  0  0  0  0  0  0  0  0  0  0  0
  150.5816  140.2243  154.3301 N   0  0  0  0  0  0  0  0  0  0  0  0
  150.7751  138.9292  154.0812 C   0  0  0  0  0  0  0  0  0  0  0  0
  151.7326  138.0648  155.2652 S   0  0  0  0  0  0  0  0  0  0  0  0
  153.1863  141.4951  158.5669 N   0  0  0  0  0  0  0  0  0  0  0  0
  153.1190  142.6276  159.4871 C   0  0  2  0  0  0  0  0  0  0  0  0
  152.6761  142.1653  160.8898 C   0  0  0  0  0  0  0  0  0  0  0  0
  152.5396  143.3535  161.8581 C   0  0  0  0  0  0  0  0  0  0  0  0
  151.6064  144.4509  161.3120 C   0  0  2  0  0  0  0  0  0  0  0  0
  150.2666  143.9985  161.3186 O   0  0  0  0  0  0  0  0  0  0  0  0
  152.0107  144.8833  159.8901 C   0  0  0  0  0  0  0  0  0  0  0  0
  152.1480  143.6860  158.9330 C   0  0  0  0  0  0  0  0  0  0  0  0
  150.3554  138.4812  153.1932 H   0  0  0  0  0  0  0  0  0  0  0  0
  154.1032  141.2348  158.2345 H   0  0  0  0  0  0  0  0  0  0  0  0
  154.1083  143.0839  159.5604 H   0  0  0  0  0  0  0  0  0  0  0  0
  151.7235  141.6380  160.8212 H   0  0  0  0  0  0  0  0  0  0  0  0
  153.3929  141.4495  161.2936 H   0  0  0  0  0  0  0  0  0  0  0  0
  152.1890  143.0065  162.8308 H   0  0  0  0  0  0  0  0  0  0  0  0
  153.5281  143.7819  162.0282 H   0  0  0  0  0  0  0  0  0  0  0  0
  151.6507  145.3170  161.9731 H   0  0  0  0  0  0  0  0  0  0  0  0
  149.7145  144.6896  160.9863 H   0  0  0  0  0  0  0  0  0  0  0  0
  151.2908  145.6001  159.4935 H   0  0  0  0  0  0  0  0  0  0  0  0
  152.9661  145.4075  159.9370 H   0  0  0  0  0  0  0  0  0  0  0  0
  152.4936  144.0353  157.9594 H   0  0  0  0  0  0  0  0  0  0  0  0
  151.1671  143.2379  158.7676 H   0  0  0  0  0  0  0  0  0  0  0  0
  1  2  2  0  0  0  0
  2  3  1  0  0  0  0
  2  9  1  0  0  0  0
  3  4  1  0  0  0  0
  4  8  1  0  0  0  0
  4  5  2  0  0  0  0
  5  6  1  0  0  0  0
  6  7  2  0  0  0  0
  7  8  1  0  0  0  0
  7 17  1  0  0  0  0
  9 10  1  0  0  0  0
  9 18  1  0  0  0  0
 10 16  1  0  0  0  0
 10 11  1  0  0  0  0
 10 19  1  0  0  0  0
 11 12  1  0  0  0  0
 11 20  1  0  0  0  0
 11 21  1  0  0  0  0
 12 13  1  0  0  0  0
 12 22  1  0  0  0  0
 12 23  1  0  0  0  0
 13 14  1  0  0  0  0
 13 15  1  0  0  0  0
 13 24  1  0  0  0  0
 14 25  1  0  0  0  0
 15 16  1  0  0  0  0
 15 26  1  0  0  0  0
 15 27  1  0  0  0  0
 16 28  1  0  0  0  0
 16 29  1  0  0  0  0
M  CHG  1   3  -1
M  END
> <s_m_source_file>
AV-unprocessed.smi

> <i_m_source_file_index>
1948

> <i_lp_mmshare_version>
43012

> <i_f3d_flags>
0

> <s_epik_input>
czFbY0hdbm5jMVtOSF1DKD1PKVtOSF1bQ0BASF0yW0NIMl1bQ0gyXVtDQEBIXShbT0hdKVtDSDJdW0NIMl0y

> <s_epik_cmdline>
J2VwaWtfcHl0aG9uJywgJy1waCcsICc3LjAnLCAnLXRuJywgJzgnLCAnLW1hJywgJzIwMCcsICctbWV0YWxfYmluZGluZycsICctaW1hZScsICc8aW5maWxlLm1hZT4nLCAnLW9tYWUnLCAnPG91dGZpbGUubWFlPic=

> <r_lp_tautomer_probability>
1

> <r_epik_Ionization_Penalty>
4.52057

> <r_epik_Ionization_Penalty_Charging>
4.4725

> <r_epik_Ionization_Penalty_Neutral>
0.048076

> <r_epik_State_Penalty>
4.47218

> <r_epik_Charging_Adjusted_Penalty>
8.94468

> <i_epik_Tot_Q>
-1

> <i_epik_Tot_abs_Q>
1

> <r_epik_Metal_State_Penalty>
0.805713

> <b_epik_Metal_Only>
1

> <s_lp_Force_Field>
OPLS_2005

> <r_lp_Energy>
8.18749

> <b_lp_Chiralities_Consistent>
1

> <s_lp_Variant>
AV-unprocessed.smi:1948-4

> <Gold.Version>
5.8.1

> <Gold.Id.Protein>
6NUR|6NUR_protein|mol2

> <Gold.PLP.Fitness>
43.9882

> <Gold.PLP.PLP>
-35.4151

> <Gold.PLP.part.hbond>
-5.1563

> <Gold.PLP.part.metal>
0.0000

> <Gold.PLP.part.buried>
0.0008

> <Gold.PLP.part.nonpolar>
-29.7987

> <Gold.PLP.part.repulsive>
0.2487

> <Gold.PLP.ligand.clash>
0.0000

> <Gold.PLP.ligand.torsion>
0.5830

> <Gold.PLP.Chemscore.Hbond>
2.6500

> <Gold.PLP.Chemscore.CHOScore>
0.5941

> <Gold.PLP.Chemscore.Metal>
0.0000

> <Gold.Chemscore.Hbonds>
donor molecule, donor type, donor heavy atom, donor atom, acceptor molecule, acceptor atom, score
      P1  H  7989  7998       L1     6  0.57
      P1  H  7997  8009       L1     3  2.00
      L1  C     7    17       P1  7948  0.04
      L1  C     7    17       P1  7957  0.57

> <Gold.PLP.Chemscore.Internal.Correction>
0.0069

> <Gold.Rescore>
     Score         DG    S(hbond)    S(metal)    S(lipo)     H(rot)  DE(clash)    DE(int)     intcor
      9.99     -13.35       0.50        0.00      86.47       1.53       1.49       1.87       ----

> <Gold.Chemscore.Fitness>
9.9925

> <Gold.Chemscore.DG>
-13.3502

> <Gold.Chemscore.ZeroCoef>
-5.4800

> <Gold.Chemscore.Hbond>
0.5029

> <Gold.Chemscore.Metal>
0.0000

> <Gold.Chemscore.Lipo>
86.4675

> <Gold.Chemscore.Internal_Hbond>
0.0000

> <Gold.Chemscore.DEClash>
1.4853

> <Gold.Chemscore.DEInternal>
1.8724

> <Gold.Chemscore.Rot>
1.5337

> <Gold.Chemscore.Internal.Correction>
   9.000000E+99

> <Gold.Chemscore.Hbonds>
donor molecule, donor type, donor heavy atom, donor atom, acceptor molecule, acceptor atom, score
      P1  H  7989  7998       L1     6  0.02
      P1  H  7997  8009       L1     3  0.23

> <Gold.Chemscore.Hbond.Weighted>
-1.6797

> <Gold.Chemscore.Metal.Weighted>
-0.0000

> <Gold.Chemscore.Lipo.Weighted>
-10.1167

> <Gold.Chemscore.Internal_Hbond.Weighted>
0.0000

> <Gold.Chemscore.DEClash.Weighted>
1.4853

> <Gold.Chemscore.DEInternal.Weighted>
1.8724

> <Gold.Chemscore.Rot.Weighted>
3.9262

> <Gold.Chemscore.Internal.Correction.Weighted>
   9.000000E+99

> <Gold.Protein.RotatedTorsions>
[ 6907 6896 6895 6894 ] final  165.43 input  -60.11 | X-H torsion
[ 7974 7965 7964 7962 ] final  -96.38 input  175.53 | X-H torsion
[ 8008 7997 7996 7995 ] final  179.57 input   59.86 | X-H torsion
[ 10167 10162 10161 10158 ] final   13.22 input  -65.29 | X-H torsion
[ 10718 10713 10712 10709 ] final  -64.25 input   66.30 | X-H torsion
[ 10763 10752 10751 10750 ] final  156.08 input  -60.55 | X-H torsion
[ 11005 11000 10999 10996 ] final  175.30 input  -57.11 | X-H torsion

> <Gold.Protein.ActiveResidues>
 VAL166  LYS551  ARG553  GLY616  TRP617  ASP618  TYR619  PRO620  LYS621  CYS622 
 ASP623  PHE694  ASN695  SER759  ASP760  ASP761  ALA762  ILE779  LEU786  VAL792 
 PHE793  MET794  SER795  GLU796  ALA797  LYS798  CYS799  TRP800  GLU811  SER814 

> <Gold.Protein.RotatedAtoms>
  151.8946  133.3524  159.3809 H   0  0  0  0  0  0  0  0  0  0  0  0  # atno 6907 bound_to 6896
  150.7095  134.4890  159.5516 H   0  0  0  0  0  0  0  0  0  0  0  0  # atno 6908 bound_to 6896
  152.2466  134.8175  160.0503 H   0  0  0  0  0  0  0  0  0  0  0  0  # atno 6909 bound_to 6896
  145.3476  140.9471  143.2572 H   0  0  0  0  0  0  0  0  0  0  0  0  # atno 7974 bound_to 7965
  156.0419  140.1305  157.0146 H   0  0  0  0  0  0  0  0  0  0  0  0  # atno 8008 bound_to 7997
  154.4395  140.1028  156.6320 H   0  0  0  0  0  0  0  0  0  0  0  0  # atno 8009 bound_to 7997
  155.5654  140.3465  155.4504 H   0  0  0  0  0  0  0  0  0  0  0  0  # atno 8010 bound_to 7997
  140.6016  143.8592  150.6971 H   0  0  0  0  0  0  0  0  0  0  0  0  # atno 10167 bound_to 10162
  156.0740  130.4231  150.1394 H   0  0  0  0  0  0  0  0  0  0  0  0  # atno 10718 bound_to 10713
  154.1786  135.2801  155.3059 H   0  0  0  0  0  0  0  0  0  0  0  0  # atno 10763 bound_to 10752
  154.6020  135.5526  153.7388 H   0  0  0  0  0  0  0  0  0  0  0  0  # atno 10764 bound_to 10752
  153.0144  135.6394  154.1925 H   0  0  0  0  0  0  0  0  0  0  0  0  # atno 10765 bound_to 10752
  140.3607  134.7115  157.4329 H   0  0  0  0  0  0  0  0  0  0  0  0  # atno 11005 bound_to 11000
  144.8742  139.4995  143.6753 LP  0  0  0  0  0  0  0  0  0  0  0  0  # atno 17320 bound_to 7965
  146.2981  139.7341  142.9111 LP  0  0  0  0  0  0  0  0  0  0  0  0  # atno 17321 bound_to 7965
  140.2139  143.3861  152.1696 LP  0  0  0  0  0  0  0  0  0  0  0  0  # atno 17342 bound_to 10162
  139.5295  144.7143  151.5106 LP  0  0  0  0  0  0  0  0  0  0  0  0  # atno 17343 bound_to 10162
  156.9439  130.9753  151.3511 LP  0  0  0  0  0  0  0  0  0  0  0  0  # atno 17370 bound_to 10713
  157.5826  130.8387  149.8544 LP  0  0  0  0  0  0  0  0  0  0  0  0  # atno 17371 bound_to 10713
  140.0629  134.5970  155.8728 LP  0  0  0  0  0  0  0  0  0  0  0  0  # atno 17394 bound_to 11000
  141.1985  133.6602  156.5795 LP  0  0  0  0  0  0  0  0  0  0  0  0  # atno 17395 bound_to 11000

$$$$
