AV-unprocessed.smi:2221|AV-procd|sdf|8984|dock7
  -GOLD-   2272012193D 1   1.00000     0.00000
 Structure written by MMmdl.
 53 54  0  0  0  0  0  0  0  0  2 V2000
  151.7649  145.7021  160.3282 C   0  0  0  0  0  0  0  0  0  0  0  0
  151.7757  144.3523  159.6420 C   0  0  0  0  0  0  0  0  0  0  0  0
  152.5168  143.2801  160.1741 C   0  0  0  0  0  0  0  0  0  0  0  0
  152.4849  142.0473  159.4936 C   0  0  0  0  0  0  0  0  0  0  0  0
  153.2589  140.8535  160.0116 C   0  0  0  0  0  0  0  0  0  0  0  0
  151.7743  141.8482  158.3628 N   0  0  0  0  0  0  0  0  0  0  0  0
  151.0569  142.8739  157.8411 C   0  0  0  0  0  0  0  0  0  0  0  0
  150.2785  142.7676  156.6579 N   0  0  0  0  0  0  0  0  0  0  0  0
  149.9314  141.6524  155.9919 C   0  0  0  0  0  0  0  0  0  0  0  0
  150.2591  140.5061  156.2983 O   0  0  0  0  0  0  0  0  0  0  0  0
  149.1518  141.9372  154.9386 N   0  0  0  0  0  0  0  0  0  0  0  0
  148.5847  140.9507  154.0213 C   0  0  0  0  0  0  0  0  0  0  0  0
  147.1370  141.2764  153.5897 C   0  0  0  0  0  0  0  0  0  0  0  0
  146.2400  140.0925  153.6047 N   0  3  2  0  0  0  0  0  0  0  0  0
  145.7892  139.7380  154.9735 C   0  0  0  0  0  0  0  0  0  0  0  0
  144.7574  138.5961  154.9403 C   0  0  0  0  0  0  0  0  0  0  0  0
  145.3074  137.3343  154.2311 C   0  0  2  0  0  0  0  0  0  0  0  0
  146.3442  136.6387  155.0197 N   0  0  0  0  0  0  0  0  0  0  0  0
  145.8609  136.2736  156.3500 C   0  0  0  0  0  0  0  0  0  0  0  0
  146.7858  135.3983  154.3859 C   0  0  0  0  0  0  0  0  0  0  0  0
  145.7877  137.7680  152.8243 C   0  0  0  0  0  0  0  0  0  0  0  0
  146.8049  138.9204  152.8888 C   0  0  0  0  0  0  0  0  0  0  0  0
  151.0371  144.1441  158.4596 C   0  0  0  0  0  0  0  0  0  0  0  0
  152.6289  145.8156  160.9835 H   0  0  0  0  0  0  0  0  0  0  0  0
  150.8615  145.8108  160.9285 H   0  0  0  0  0  0  0  0  0  0  0  0
  151.7895  146.5072  159.5932 H   0  0  0  0  0  0  0  0  0  0  0  0
  153.0939  143.3991  161.0797 H   0  0  0  0  0  0  0  0  0  0  0  0
  154.0220  141.1610  160.7273 H   0  0  0  0  0  0  0  0  0  0  0  0
  153.7547  140.3307  159.1930 H   0  0  0  0  0  0  0  0  0  0  0  0
  152.5852  140.1548  160.5081 H   0  0  0  0  0  0  0  0  0  0  0  0
  149.9333  143.6405  156.2873 H   0  0  0  0  0  0  0  0  0  0  0  0
  148.9407  142.9071  154.7520 H   0  0  0  0  0  0  0  0  0  0  0  0
  149.2318  140.9070  153.1453 H   0  0  0  0  0  0  0  0  0  0  0  0
  148.6269  139.9590  154.4743 H   0  0  0  0  0  0  0  0  0  0  0  0
  146.7217  142.0716  154.2102 H   0  0  0  0  0  0  0  0  0  0  0  0
  147.1713  141.6754  152.5752 H   0  0  0  0  0  0  0  0  0  0  0  0
  146.6489  139.4566  155.5836 H   0  0  0  0  0  0  0  0  0  0  0  0
  145.3369  140.6108  155.4461 H   0  0  0  0  0  0  0  0  0  0  0  0
  144.3861  138.3876  155.9418 H   0  0  0  0  0  0  0  0  0  0  0  0
  143.8810  138.9440  154.3915 H   0  0  0  0  0  0  0  0  0  0  0  0
  144.4822  136.6326  154.0992 H   0  0  0  0  0  0  0  0  0  0  0  0
  146.6066  135.6844  156.8854 H   0  0  0  0  0  0  0  0  0  0  0  0
  144.9449  135.6838  156.2917 H   0  0  0  0  0  0  0  0  0  0  0  0
  145.6712  137.1494  156.9680 H   0  0  0  0  0  0  0  0  0  0  0  0
  147.4722  134.8534  155.0355 H   0  0  0  0  0  0  0  0  0  0  0  0
  147.3341  135.5912  153.4652 H   0  0  0  0  0  0  0  0  0  0  0  0
  145.9423  134.7439  154.1611 H   0  0  0  0  0  0  0  0  0  0  0  0
  146.1824  136.9379  152.2409 H   0  0  0  0  0  0  0  0  0  0  0  0
  144.9214  138.1105  152.2567 H   0  0  0  0  0  0  0  0  0  0  0  0
  147.0809  139.2023  151.8730 H   0  0  0  0  0  0  0  0  0  0  0  0
  147.7195  138.5914  153.3847 H   0  0  0  0  0  0  0  0  0  0  0  0
  150.4603  144.9532  158.0350 H   0  0  0  0  0  0  0  0  0  0  0  0
  145.4079  140.3682  153.1031 H   0  0  0  0  0  0  0  0  0  0  0  0
  1  2  1  0  0  0  0
  1 24  1  0  0  0  0
  1 25  1  0  0  0  0
  1 26  1  0  0  0  0
  2 23  1  0  0  0  0
  2  3  2  0  0  0  0
  3  4  1  0  0  0  0
  3 27  1  0  0  0  0
  4  5  1  0  0  0  0
  4  6  2  0  0  0  0
  5 28  1  0  0  0  0
  5 29  1  0  0  0  0
  5 30  1  0  0  0  0
  6  7  1  0  0  0  0
  7  8  1  0  0  0  0
  7 23  2  0  0  0  0
  8  9  1  0  0  0  0
  8 31  1  0  0  0  0
  9 10  2  0  0  0  0
  9 11  1  0  0  0  0
 11 12  1  0  0  0  0
 11 32  1  0  0  0  0
 12 13  1  0  0  0  0
 12 33  1  0  0  0  0
 12 34  1  0  0  0  0
 13 14  1  0  0  0  0
 13 35  1  0  0  0  0
 13 36  1  0  0  0  0
 14 22  1  0  0  0  0
 14 15  1  0  0  0  0
 14 53  1  0  0  0  0
 15 16  1  0  0  0  0
 15 37  1  0  0  0  0
 15 38  1  0  0  0  0
 16 17  1  0  0  0  0
 16 39  1  0  0  0  0
 16 40  1  0  0  0  0
 17 18  1  0  0  0  0
 17 21  1  0  0  0  0
 17 41  1  0  0  0  0
 18 19  1  0  0  0  0
 18 20  1  0  0  0  0
 19 42  1  0  0  0  0
 19 43  1  0  0  0  0
 19 44  1  0  0  0  0
 20 45  1  0  0  0  0
 20 46  1  0  0  0  0
 20 47  1  0  0  0  0
 21 22  1  0  0  0  0
 21 48  1  0  0  0  0
 21 49  1  0  0  0  0
 22 50  1  0  0  0  0
 22 51  1  0  0  0  0
 23 52  1  0  0  0  0
M  CHG  1  14   1
M  END
> <s_m_source_file>
AV-unprocessed.smi

> <i_m_source_file_index>
2221

> <i_lp_mmshare_version>
43012

> <i_f3d_flags>
0

> <s_epik_input>
W0NIM11jMVtjSF1jKFtDSDNdKW5jKFtjSF0xKVtOSF1DKD1PKVtOSF1bQ0gyXVtDSDJdTjJbQ0gyXVtDSDJdW0NIXShOKFtDSDNdKVtDSDNdKVtDSDJdW0NIMl0y

> <s_epik_cmdline>
J2VwaWtfcHl0aG9uJywgJy1waCcsICc3LjAnLCAnLXRuJywgJzgnLCAnLW1hJywgJzIwMCcsICctbWV0YWxfYmluZGluZycsICctaW1hZScsICc8aW5maWxlLm1hZT4nLCAnLW9tYWUnLCAnPG91dGZpbGUubWFlPic=

> <r_epik_Ionization_Penalty>
1.32168

> <r_epik_Ionization_Penalty_Charging>
0.00219175

> <r_epik_Ionization_Penalty_Neutral>
1.31949

> <r_epik_State_Penalty>
1.51166

> <r_epik_Charging_Adjusted_Penalty>
1.51385

> <i_epik_Tot_Q>
1

> <i_epik_Tot_abs_Q>
1

> <r_epik_Metal_State_Penalty>
1.51167

> <b_epik_Metal_Only>
0

> <s_lp_Force_Field>
OPLS_2005

> <r_lp_Energy>
32.286

> <b_lp_Chiralities_Consistent>
1

> <s_lp_Variant>
AV-unprocessed.smi:2221-5

> <Gold.Version>
5.8.1

> <Gold.Id.Protein>
6NUR|6NUR_protein|mol2

> <Gold.PLP.Fitness>
53.1876

> <Gold.PLP.PLP>
-42.9656

> <Gold.PLP.part.hbond>
-2.9226

> <Gold.PLP.part.metal>
0.0000

> <Gold.PLP.part.buried>
-4.0060

> <Gold.PLP.part.nonpolar>
-36.0115

> <Gold.PLP.part.repulsive>
0.3918

> <Gold.PLP.ligand.clash>
0.0000

> <Gold.PLP.ligand.torsion>
0.6043

> <Gold.PLP.Chemscore.Hbond>
3.8000

> <Gold.PLP.Chemscore.CHOScore>
0.0000

> <Gold.PLP.Chemscore.Metal>
0.0000

> <Gold.Chemscore.Hbonds>
donor molecule, donor type, donor heavy atom, donor atom, acceptor molecule, acceptor atom, score
      L1  H     8    31       P1  8028  1.00
      L1  H    11    32       P1  8028  0.85
      L1  H    14    53       P1 10175  2.00

> <Gold.PLP.Chemscore.Internal.Correction>
0.0306

> <Gold.Rescore>
     Score         DG    S(hbond)    S(metal)    S(lipo)     H(rot)  DE(clash)    DE(int)     intcor
     20.80     -22.74       2.88        0.00     100.67       1.61       0.04       1.90       ----

> <Gold.Chemscore.Fitness>
20.7984

> <Gold.Chemscore.DG>
-22.7434

> <Gold.Chemscore.ZeroCoef>
-5.4800

> <Gold.Chemscore.Hbond>
2.8777

> <Gold.Chemscore.Metal>
0.0000

> <Gold.Chemscore.Lipo>
100.6685

> <Gold.Chemscore.Internal_Hbond>
0.0000

> <Gold.Chemscore.DEClash>
0.0433

> <Gold.Chemscore.DEInternal>
1.9018

> <Gold.Chemscore.Rot>
1.6119

> <Gold.Chemscore.Internal.Correction>
   9.000000E+99

> <Gold.Chemscore.Hbonds>
donor molecule, donor type, donor heavy atom, donor atom, acceptor molecule, acceptor atom, score
      L1  H     8    31       P1  8028  0.99
      L1  H    11    32       P1  8028  0.81
      L1  H    14    53       P1 10175  0.97

> <Gold.Chemscore.Hbond.Weighted>
-9.6116

> <Gold.Chemscore.Metal.Weighted>
-0.0000

> <Gold.Chemscore.Lipo.Weighted>
-11.7782

> <Gold.Chemscore.Internal_Hbond.Weighted>
0.0000

> <Gold.Chemscore.DEClash.Weighted>
0.0433

> <Gold.Chemscore.DEInternal.Weighted>
1.9018

> <Gold.Chemscore.Rot.Weighted>
4.1264

> <Gold.Chemscore.Internal.Correction.Weighted>
   9.000000E+99

> <Gold.Protein.RotatedTorsions>
[ 6907 6896 6895 6894 ] final   51.32 input  -60.11 | X-H torsion
[ 7974 7965 7964 7962 ] final  -28.15 input  175.53 | X-H torsion
[ 8008 7997 7996 7995 ] final -162.26 input   59.86 | X-H torsion
[ 10167 10162 10161 10158 ] final  143.08 input  -65.29 | X-H torsion
[ 10718 10713 10712 10709 ] final   44.37 input   66.30 | X-H torsion
[ 10763 10752 10751 10750 ] final  168.41 input  -60.55 | X-H torsion
[ 11005 11000 10999 10996 ] final   -0.02 input  -57.11 | X-H torsion

> <Gold.Protein.ActiveResidues>
 VAL166  LYS551  ARG553  GLY616  TRP617  ASP618  TYR619  PRO620  LYS621  CYS622 
 ASP623  PHE694  ASN695  SER759  ASP760  ASP761  ALA762  ILE779  LEU786  VAL792 
 PHE793  MET794  SER795  GLU796  ALA797  LYS798  CYS799  TRP800  GLU811  SER814 

> <Gold.Protein.RotatedAtoms>
  152.3114  134.7493  160.0335 H   0  0  0  0  0  0  0  0  0  0  0  0  # atno 6907 bound_to 6896
  151.7972  133.3360  159.3524 H   0  0  0  0  0  0  0  0  0  0  0  0  # atno 6908 bound_to 6896
  150.7322  134.5718  159.5938 H   0  0  0  0  0  0  0  0  0  0  0  0  # atno 6909 bound_to 6896
  146.1308  140.5245  142.8694 H   0  0  0  0  0  0  0  0  0  0  0  0  # atno 7974 bound_to 7965
  155.8042  140.0896  157.1940 H   0  0  0  0  0  0  0  0  0  0  0  0  # atno 8008 bound_to 7997
  154.3981  140.1466  156.3369 H   0  0  0  0  0  0  0  0  0  0  0  0  # atno 8009 bound_to 7997
  155.8432  140.3438  155.5648 H   0  0  0  0  0  0  0  0  0  0  0  0  # atno 8010 bound_to 7997
  139.4978  144.6064  151.6369 H   0  0  0  0  0  0  0  0  0  0  0  0  # atno 10167 bound_to 10162
  157.4261  130.7997  149.7559 H   0  0  0  0  0  0  0  0  0  0  0  0  # atno 10718 bound_to 10713
  154.3681  135.2753  155.2282 H   0  0  0  0  0  0  0  0  0  0  0  0  # atno 10763 bound_to 10752
  154.4441  135.5947  153.6152 H   0  0  0  0  0  0  0  0  0  0  0  0  # atno 10764 bound_to 10752
  152.9840  135.6026  154.3909 H   0  0  0  0  0  0  0  0  0  0  0  0  # atno 10765 bound_to 10752
  140.6317  133.9569  155.8278 H   0  0  0  0  0  0  0  0  0  0  0  0  # atno 11005 bound_to 11000
  144.7689  140.5592  143.6684 LP  0  0  0  0  0  0  0  0  0  0  0  0  # atno 17320 bound_to 7965
  145.5265  139.1476  143.3523 LP  0  0  0  0  0  0  0  0  0  0  0  0  # atno 17321 bound_to 7965
  140.5727  144.0081  150.6225 LP  0  0  0  0  0  0  0  0  0  0  0  0  # atno 17342 bound_to 10162
  140.3204  143.3141  152.0790 LP  0  0  0  0  0  0  0  0  0  0  0  0  # atno 17343 bound_to 10162
  155.9897  130.3950  150.3062 LP  0  0  0  0  0  0  0  0  0  0  0  0  # atno 17370 bound_to 10713
  157.1214  131.0248  151.3007 LP  0  0  0  0  0  0  0  0  0  0  0  0  # atno 17371 bound_to 10713
  141.0671  134.0261  157.3579 LP  0  0  0  0  0  0  0  0  0  0  0  0  # atno 17394 bound_to 11000
  139.9114  135.0190  156.7705 LP  0  0  0  0  0  0  0  0  0  0  0  0  # atno 17395 bound_to 11000

$$$$
