AV-unprocessed.smi:3304|AV-procd|sdf|12698|dock1
  -GOLD-   2272019 33D 1   1.00000     0.00000
 Structure written by MMmdl.
 46 47  0  0  0  0  0  0  0  0  2 V2000
  145.6204  143.9941  153.1099 C   0  0  0  0  0  0  0  0  0  0  0  0
  145.7870  143.1993  154.3649 C   0  0  0  0  0  0  0  0  0  0  0  0
  146.7511  142.2996  154.7336 C   0  0  0  0  0  0  0  0  0  0  0  0
  147.9570  141.8328  153.9653 C   0  0  0  0  0  0  0  0  0  0  0  0
  148.9299  141.0550  154.8616 C   0  0  0  0  0  0  0  0  0  0  0  0
  149.8421  141.9698  155.5740 N   0  3  0  0  0  0  0  0  0  0  0  0
  150.0331  141.6377  157.0000 C   0  0  0  0  0  0  0  0  0  0  0  0
  151.3055  142.2913  157.5704 C   0  0  2  0  0  0  0  0  0  0  0  0
  151.5671  141.8173  159.0138 C   0  0  0  0  0  0  0  0  0  0  0  0
  152.8345  142.4589  159.6056 C   0  0  0  0  0  0  0  0  0  0  0  0
  152.7966  143.9988  159.5510 C   0  0  2  0  0  0  0  0  0  0  0  0
  151.8343  144.6040  160.5882 C   0  0  0  0  0  0  0  0  0  0  0  0
  152.5000  144.4794  158.1165 C   0  0  0  0  0  0  0  0  0  0  0  0
  151.2341  143.8328  157.5272 C   0  0  0  0  0  0  0  0  0  0  0  0
  146.3500  141.8917  156.0372 C   0  0  0  0  0  0  0  0  0  0  0  0
  145.2386  142.4806  156.4401 N   0  0  0  0  0  0  0  0  0  0  0  0
  144.8919  143.2853  155.4146 N   0  0  0  0  0  0  0  0  0  0  0  0
  143.6952  144.0976  155.5205 C   0  0  0  0  0  0  0  0  0  0  0  0
  146.4193  143.7844  152.3990 H   0  0  0  0  0  0  0  0  0  0  0  0
  145.6356  145.0630  153.3236 H   0  0  0  0  0  0  0  0  0  0  0  0
  144.6722  143.7590  152.6258 H   0  0  0  0  0  0  0  0  0  0  0  0
  147.6552  141.2043  153.1266 H   0  0  0  0  0  0  0  0  0  0  0  0
  148.4777  142.6833  153.5236 H   0  0  0  0  0  0  0  0  0  0  0  0
  148.3741  140.4642  155.5911 H   0  0  0  0  0  0  0  0  0  0  0  0
  149.5169  140.3584  154.2614 H   0  0  0  0  0  0  0  0  0  0  0  0
  150.7425  141.9489  155.1168 H   0  0  0  0  0  0  0  0  0  0  0  0
  149.1581  141.9502  157.5719 H   0  0  0  0  0  0  0  0  0  0  0  0
  150.1016  140.5528  157.0910 H   0  0  0  0  0  0  0  0  0  0  0  0
  152.1524  141.9704  156.9612 H   0  0  0  0  0  0  0  0  0  0  0  0
  150.7071  142.0492  159.6430 H   0  0  0  0  0  0  0  0  0  0  0  0
  151.6733  140.7320  159.0346 H   0  0  0  0  0  0  0  0  0  0  0  0
  152.9802  142.1210  160.6323 H   0  0  0  0  0  0  0  0  0  0  0  0
  153.7022  142.1050  159.0471 H   0  0  0  0  0  0  0  0  0  0  0  0
  153.7928  144.3573  159.8140 H   0  0  0  0  0  0  0  0  0  0  0  0
  150.8008  144.3057  160.4141 H   0  0  0  0  0  0  0  0  0  0  0  0
  151.8708  145.6934  160.5652 H   0  0  0  0  0  0  0  0  0  0  0  0
  152.1018  144.2902  161.5975 H   0  0  0  0  0  0  0  0  0  0  0  0
  152.4089  145.5660  158.0944 H   0  0  0  0  0  0  0  0  0  0  0  0
  153.3501  144.2362  157.4774 H   0  0  0  0  0  0  0  0  0  0  0  0
  151.1074  144.1760  156.5000 H   0  0  0  0  0  0  0  0  0  0  0  0
  150.3554  144.1795  158.0720 H   0  0  0  0  0  0  0  0  0  0  0  0
  146.8318  141.1866  156.6986 H   0  0  0  0  0  0  0  0  0  0  0  0
  143.9537  145.1496  155.3979 H   0  0  0  0  0  0  0  0  0  0  0  0
  143.2216  143.9632  156.4942 H   0  0  0  0  0  0  0  0  0  0  0  0
  142.9879  143.8105  154.7419 H   0  0  0  0  0  0  0  0  0  0  0  0
  149.4694  142.9065  155.5110 H   0  0  0  0  0  0  0  0  0  0  0  0
  1  2  1  0  0  0  0
  1 19  1  0  0  0  0
  1 20  1  0  0  0  0
  1 21  1  0  0  0  0
  2 17  1  0  0  0  0
  2  3  2  0  0  0  0
  3  4  1  0  0  0  0
  3 15  1  0  0  0  0
  4  5  1  0  0  0  0
  4 22  1  0  0  0  0
  4 23  1  0  0  0  0
  5  6  1  0  0  0  0
  5 24  1  0  0  0  0
  5 25  1  0  0  0  0
  6  7  1  0  0  0  0
  6 26  1  0  0  0  0
  6 46  1  0  0  0  0
  7  8  1  0  0  0  0
  7 27  1  0  0  0  0
  7 28  1  0  0  0  0
  8 14  1  0  0  0  0
  8  9  1  0  0  0  0
  8 29  1  0  0  0  0
  9 10  1  0  0  0  0
  9 30  1  0  0  0  0
  9 31  1  0  0  0  0
 10 11  1  0  0  0  0
 10 32  1  0  0  0  0
 10 33  1  0  0  0  0
 11 12  1  0  0  0  0
 11 13  1  0  0  0  0
 11 34  1  0  0  0  0
 12 35  1  0  0  0  0
 12 36  1  0  0  0  0
 12 37  1  0  0  0  0
 13 14  1  0  0  0  0
 13 38  1  0  0  0  0
 13 39  1  0  0  0  0
 14 40  1  0  0  0  0
 14 41  1  0  0  0  0
 15 16  2  0  0  0  0
 15 42  1  0  0  0  0
 16 17  1  0  0  0  0
 17 18  1  0  0  0  0
 18 43  1  0  0  0  0
 18 44  1  0  0  0  0
 18 45  1  0  0  0  0
M  CHG  1   6   1
M  END
> <s_m_source_file>
AV-unprocessed.smi

> <i_m_source_file_index>
3304

> <i_lp_mmshare_version>
43012

> <i_f3d_flags>
0

> <s_epik_input>
W0NIM11uMW5bY0hdYyhjMVtDSDNdKVtDSDJdW0NIMl1bTkhdW0NIMl1bQ0BASF0yW0NIMl1bQ0gyXVtDQEBIXShbQ0gzXSlbQ0gyXVtDSDJdMg==

> <s_epik_cmdline>
J2VwaWtfcHl0aG9uJywgJy1waCcsICc3LjAnLCAnLXRuJywgJzgnLCAnLW1hJywgJzIwMCcsICctbWV0YWxfYmluZGluZycsICctaW1hZScsICc8aW5maWxlLm1hZT4nLCAnLW9tYWUnLCAnPG91dGZpbGUubWFlPic=

> <r_lp_tautomer_probability>
1

> <r_epik_Ionization_Penalty>
0.000505313

> <r_epik_Ionization_Penalty_Charging>
0.000421171

> <r_epik_Ionization_Penalty_Neutral>
8.41424e-05

> <r_epik_State_Penalty>
-0

> <r_epik_Charging_Adjusted_Penalty>
0.000421171

> <i_epik_Tot_Q>
1

> <i_epik_Tot_abs_Q>
1

> <r_epik_Metal_State_Penalty>
-0

> <b_epik_Metal_Only>
0

> <s_lp_Force_Field>
OPLS_2005

> <r_lp_Energy>
12.247

> <b_lp_Chiralities_Consistent>
1

> <s_lp_Variant>
AV-unprocessed.smi:3304-2

> <Gold.Version>
5.8.1

> <Gold.Id.Protein>
6NUR|6NUR_protein|mol2

> <Gold.PLP.Fitness>
50.2947

> <Gold.PLP.PLP>
-45.4713

> <Gold.PLP.part.hbond>
-1.0000

> <Gold.PLP.part.metal>
0.0000

> <Gold.PLP.part.buried>
-4.0325

> <Gold.PLP.part.nonpolar>
-40.3348

> <Gold.PLP.part.repulsive>
0.2376

> <Gold.PLP.ligand.clash>
0.0000

> <Gold.PLP.ligand.torsion>
0.6817

> <Gold.PLP.Chemscore.Hbond>
2.0000

> <Gold.PLP.Chemscore.CHOScore>
0.0000

> <Gold.PLP.Chemscore.Metal>
0.0000

> <Gold.Chemscore.Hbonds>
donor molecule, donor type, donor heavy atom, donor atom, acceptor molecule, acceptor atom, score
      L1  H     6    46       P1  8028  2.00

> <Gold.PLP.Chemscore.Internal.Correction>
0.1868

> <Gold.Rescore>
     Score         DG    S(hbond)    S(metal)    S(lipo)     H(rot)  DE(clash)    DE(int)     intcor
     19.39     -20.18       1.00        0.00     128.43       1.43       0.24       0.55       ----

> <Gold.Chemscore.Fitness>
19.3903

> <Gold.Chemscore.DG>
-20.1773

> <Gold.Chemscore.ZeroCoef>
-5.4800

> <Gold.Chemscore.Hbond>
1.0000

> <Gold.Chemscore.Metal>
0.0000

> <Gold.Chemscore.Lipo>
128.4285

> <Gold.Chemscore.Internal_Hbond>
0.0000

> <Gold.Chemscore.DEClash>
0.2361

> <Gold.Chemscore.DEInternal>
0.5509

> <Gold.Chemscore.Rot>
1.4331

> <Gold.Chemscore.Internal.Correction>
   9.000000E+99

> <Gold.Chemscore.Hbonds>
donor molecule, donor type, donor heavy atom, donor atom, acceptor molecule, acceptor atom, score
      L1  H     6    46       P1  8028  1.00

> <Gold.Chemscore.Hbond.Weighted>
-3.3399

> <Gold.Chemscore.Metal.Weighted>
-0.0000

> <Gold.Chemscore.Lipo.Weighted>
-15.0261

> <Gold.Chemscore.Internal_Hbond.Weighted>
0.0000

> <Gold.Chemscore.DEClash.Weighted>
0.2361

> <Gold.Chemscore.DEInternal.Weighted>
0.5509

> <Gold.Chemscore.Rot.Weighted>
3.6688

> <Gold.Chemscore.Internal.Correction.Weighted>
   9.000000E+99

> <Gold.Protein.RotatedTorsions>
[ 6907 6896 6895 6894 ] final  109.81 input  -60.11 | X-H torsion
[ 7974 7965 7964 7962 ] final -128.44 input  175.53 | X-H torsion
[ 8008 7997 7996 7995 ] final  159.54 input   59.86 | X-H torsion
[ 10167 10162 10161 10158 ] final  164.40 input  -65.29 | X-H torsion
[ 10718 10713 10712 10709 ] final  -18.71 input   66.30 | X-H torsion
[ 10763 10752 10751 10750 ] final   -7.43 input  -60.55 | X-H torsion
[ 11005 11000 10999 10996 ] final  122.70 input  -57.11 | X-H torsion

> <Gold.Protein.ActiveResidues>
 VAL166  LYS551  ARG553  GLY616  TRP617  ASP618  TYR619  PRO620  LYS621  CYS622 
 ASP623  PHE694  ASN695  SER759  ASP760  ASP761  ALA762  ILE779  LEU786  VAL792 
 PHE793  MET794  SER795  GLU796  ALA797  LYS798  CYS799  TRP800  GLU811  SER814 

> <Gold.Protein.RotatedAtoms>
  152.5050  133.8891  159.7384 H   0  0  0  0  0  0  0  0  0  0  0  0  # atno 6907 bound_to 6896
  150.9334  133.6731  159.2812 H   0  0  0  0  0  0  0  0  0  0  0  0  # atno 6908 bound_to 6896
  151.4067  135.0984  159.9625 H   0  0  0  0  0  0  0  0  0  0  0  0  # atno 6909 bound_to 6896
  144.9670  140.7506  143.4694 H   0  0  0  0  0  0  0  0  0  0  0  0  # atno 7974 bound_to 7965
  156.2232  140.1828  156.7426 H   0  0  0  0  0  0  0  0  0  0  0  0  # atno 8008 bound_to 7997
  154.5899  140.0652  156.9252 H   0  0  0  0  0  0  0  0  0  0  0  0  # atno 8009 bound_to 7997
  155.2355  140.3318  155.4301 H   0  0  0  0  0  0  0  0  0  0  0  0  # atno 8010 bound_to 7997
  139.4888  144.4239  151.9153 H   0  0  0  0  0  0  0  0  0  0  0  0  # atno 10167 bound_to 10162
  156.5557  130.4713  149.6430 H   0  0  0  0  0  0  0  0  0  0  0  0  # atno 10718 bound_to 10713
  153.4262  135.7011  153.6261 H   0  0  0  0  0  0  0  0  0  0  0  0  # atno 10763 bound_to 10752
  153.4694  135.3718  155.2383 H   0  0  0  0  0  0  0  0  0  0  0  0  # atno 10764 bound_to 10752
  154.8724  135.4039  154.3639 H   0  0  0  0  0  0  0  0  0  0  0  0  # atno 10765 bound_to 10752
  139.9280  134.9641  156.8148 H   0  0  0  0  0  0  0  0  0  0  0  0  # atno 11005 bound_to 11000
  145.2615  139.1990  143.4889 LP  0  0  0  0  0  0  0  0  0  0  0  0  # atno 17320 bound_to 7965
  146.3371  140.2546  142.8600 LP  0  0  0  0  0  0  0  0  0  0  0  0  # atno 17321 bound_to 7965
  140.3685  144.2885  150.5923 LP  0  0  0  0  0  0  0  0  0  0  0  0  # atno 17342 bound_to 10162
  140.5340  143.2237  151.8192 LP  0  0  0  0  0  0  0  0  0  0  0  0  # atno 17343 bound_to 10162
  156.2844  130.7089  151.1921 LP  0  0  0  0  0  0  0  0  0  0  0  0  # atno 17370 bound_to 10713
  157.7378  131.0547  150.5330 LP  0  0  0  0  0  0  0  0  0  0  0  0  # atno 17371 bound_to 10713
  140.6282  133.9930  155.7649 LP  0  0  0  0  0  0  0  0  0  0  0  0  # atno 17394 bound_to 11000
  141.0850  134.0004  157.3327 LP  0  0  0  0  0  0  0  0  0  0  0  0  # atno 17395 bound_to 11000

$$$$
