AV-unprocessed.smi:3160|AV-procd|sdf|12054|dock3
  -GOLD-   2272017483D 1   1.00000     0.00000
 Structure written by MMmdl.
 40 41  0  0  0  0  0  0  0  0  2 V2000
  151.7542  145.5739  159.4859 C   0  0  0  0  0  0  0  0  0  0  0  0
  151.8594  144.1503  159.0204 C   0  0  0  0  0  0  0  0  0  0  0  0
  152.5665  143.0783  159.6347 C   0  0  0  0  0  0  0  0  0  0  0  0
  152.4592  141.9418  158.9660 N   0  0  0  0  0  0  0  0  0  0  0  0
  151.6793  142.2430  157.9059 N   0  0  0  0  0  0  0  0  0  0  0  0
  151.3502  141.2084  156.9336 C   0  0  1  0  0  0  0  0  0  0  0  0
  151.7950  139.8337  157.4655 C   0  0  0  0  0  0  0  0  0  0  0  0
  149.8508  141.2408  156.5405 C   0  0  1  0  0  0  0  0  0  0  0  0
  148.9136  141.5331  157.7268 C   0  0  0  0  0  0  0  0  0  0  0  0
  149.6236  142.2559  155.4861 N   0  3  0  0  0  0  0  0  0  0  0  0
  148.5807  141.9153  154.4945 C   0  0  0  0  0  0  0  0  0  0  0  0
  147.1710  142.0435  155.0702 C   0  0  0  0  0  0  0  0  0  0  0  0
  146.2964  141.2024  154.1344 C   0  0  0  0  0  0  0  0  0  0  0  0
  147.2324  140.1691  153.4855 C   0  0  0  0  0  0  0  0  0  0  0  0
  148.6363  140.4571  154.0308 C   0  0  0  0  0  0  0  0  0  0  0  0
  151.3041  143.5716  157.9147 C   0  0  0  0  0  0  0  0  0  0  0  0
  152.3799  145.7627  160.3586 H   0  0  0  0  0  0  0  0  0  0  0  0
  150.7317  145.8319  159.7621 H   0  0  0  0  0  0  0  0  0  0  0  0
  152.0654  146.2747  158.7111 H   0  0  0  0  0  0  0  0  0  0  0  0
  153.1529  143.0929  160.5417 H   0  0  0  0  0  0  0  0  0  0  0  0
  151.9347  141.4130  156.0341 H   0  0  0  0  0  0  0  0  0  0  0  0
  151.6746  139.0546  156.7128 H   0  0  0  0  0  0  0  0  0  0  0  0
  151.2186  139.5382  158.3427 H   0  0  0  0  0  0  0  0  0  0  0  0
  152.8479  139.8471  157.7497 H   0  0  0  0  0  0  0  0  0  0  0  0
  149.5832  140.2549  156.1565 H   0  0  0  0  0  0  0  0  0  0  0  0
  148.9601  140.7495  158.4834 H   0  0  0  0  0  0  0  0  0  0  0  0
  147.8754  141.5974  157.3998 H   0  0  0  0  0  0  0  0  0  0  0  0
  149.1684  142.4771  158.2096 H   0  0  0  0  0  0  0  0  0  0  0  0
  149.3823  143.1335  155.9240 H   0  0  0  0  0  0  0  0  0  0  0  0
  148.6665  142.5792  153.6323 H   0  0  0  0  0  0  0  0  0  0  0  0
  147.1364  141.6190  156.0750 H   0  0  0  0  0  0  0  0  0  0  0  0
  146.8361  143.0792  155.1362 H   0  0  0  0  0  0  0  0  0  0  0  0
  145.4744  140.7297  154.6731 H   0  0  0  0  0  0  0  0  0  0  0  0
  145.8580  141.8364  153.3623 H   0  0  0  0  0  0  0  0  0  0  0  0
  146.9247  139.1461  153.7055 H   0  0  0  0  0  0  0  0  0  0  0  0
  147.2169  140.2874  152.4012 H   0  0  0  0  0  0  0  0  0  0  0  0
  149.4143  140.2787  153.2876 H   0  0  0  0  0  0  0  0  0  0  0  0
  148.8353  139.8019  154.8806 H   0  0  0  0  0  0  0  0  0  0  0  0
  150.6799  143.9924  157.1401 H   0  0  0  0  0  0  0  0  0  0  0  0
  150.4945  142.3784  154.9893 H   0  0  0  0  0  0  0  0  0  0  0  0
  1  2  1  0  0  0  0
  1 17  1  0  0  0  0
  1 18  1  0  0  0  0
  1 19  1  0  0  0  0
  2 16  2  0  0  0  0
  2  3  1  0  0  0  0
  3  4  2  0  0  0  0
  3 20  1  0  0  0  0
  4  5  1  0  0  0  0
  5  6  1  0  0  0  0
  5 16  1  0  0  0  0
  6  7  1  0  0  0  0
  6  8  1  0  0  0  0
  6 21  1  0  0  0  0
  7 22  1  0  0  0  0
  7 23  1  0  0  0  0
  7 24  1  0  0  0  0
  8  9  1  0  0  0  0
  8 10  1  0  0  0  0
  8 25  1  0  0  0  0
  9 26  1  0  0  0  0
  9 27  1  0  0  0  0
  9 28  1  0  0  0  0
 10 11  1  0  0  0  0
 10 29  1  0  0  0  0
 10 40  1  0  0  0  0
 11 15  1  0  0  0  0
 11 12  1  0  0  0  0
 11 30  1  0  0  0  0
 12 13  1  0  0  0  0
 12 31  1  0  0  0  0
 12 32  1  0  0  0  0
 13 14  1  0  0  0  0
 13 33  1  0  0  0  0
 13 34  1  0  0  0  0
 14 15  1  0  0  0  0
 14 35  1  0  0  0  0
 14 36  1  0  0  0  0
 15 37  1  0  0  0  0
 15 38  1  0  0  0  0
 16 39  1  0  0  0  0
M  CHG  1  10   1
M  END
> <s_m_source_file>
AV-unprocessed.smi

> <i_m_source_file_index>
3160

> <i_lp_mmshare_version>
43012

> <i_f3d_flags>
0

> <s_epik_input>
W0NIM11jMVtjSF1ubihbY0hdMSlbQ0BIXShbQ0gzXSlbQ0BIXShbQ0gzXSlbTkhdW0NIXTJbQ0gyXVtDSDJdW0NIMl1bQ0gyXTI=

> <s_epik_cmdline>
J2VwaWtfcHl0aG9uJywgJy1waCcsICc3LjAnLCAnLXRuJywgJzgnLCAnLW1hJywgJzIwMCcsICctbWV0YWxfYmluZGluZycsICctaW1hZScsICc8aW5maWxlLm1hZT4nLCAnLW9tYWUnLCAnPG91dGZpbGUubWFlPic=

> <r_lp_tautomer_probability>
1

> <r_epik_Ionization_Penalty>
0.00117636

> <r_epik_Ionization_Penalty_Charging>
0.00115264

> <r_epik_Ionization_Penalty_Neutral>
2.37123e-05

> <r_epik_State_Penalty>
-0

> <r_epik_Charging_Adjusted_Penalty>
0.00115264

> <i_epik_Tot_Q>
1

> <i_epik_Tot_abs_Q>
1

> <r_epik_Metal_State_Penalty>
-0

> <b_epik_Metal_Only>
0

> <s_lp_Force_Field>
OPLS_2005

> <r_lp_Energy>
32.0781

> <b_lp_Chiralities_Consistent>
1

> <s_lp_Variant>
AV-unprocessed.smi:3160-4

> <Gold.Version>
5.8.1

> <Gold.Id.Protein>
6NUR|6NUR_protein|mol2

> <Gold.PLP.Fitness>
42.4684

> <Gold.PLP.PLP>
-36.0740

> <Gold.PLP.part.hbond>
-1.0000

> <Gold.PLP.part.metal>
0.0000

> <Gold.PLP.part.buried>
0.4193

> <Gold.PLP.part.nonpolar>
-34.1116

> <Gold.PLP.part.repulsive>
0.1797

> <Gold.PLP.ligand.clash>
0.0000

> <Gold.PLP.ligand.torsion>
1.3462

> <Gold.PLP.Chemscore.Hbond>
2.0000

> <Gold.PLP.Chemscore.CHOScore>
1.0000

> <Gold.PLP.Chemscore.Metal>
0.0000

> <Gold.Chemscore.Hbonds>
donor molecule, donor type, donor heavy atom, donor atom, acceptor molecule, acceptor atom, score
      L1  H    10    29       P1  8028  1.79
      L1  C    16    39       P1  8028  1.00

> <Gold.PLP.Chemscore.Internal.Correction>
0.0868

> <Gold.Rescore>
     Score         DG    S(hbond)    S(metal)    S(lipo)     H(rot)  DE(clash)    DE(int)     intcor
     15.97     -17.35       0.95        0.00     104.36       1.37       0.21       1.18       ----

> <Gold.Chemscore.Fitness>
15.9692

> <Gold.Chemscore.DG>
-17.3517

> <Gold.Chemscore.ZeroCoef>
-5.4800

> <Gold.Chemscore.Hbond>
0.9493

> <Gold.Chemscore.Metal>
0.0000

> <Gold.Chemscore.Lipo>
104.3649

> <Gold.Chemscore.Internal_Hbond>
0.0000

> <Gold.Chemscore.DEClash>
0.2063

> <Gold.Chemscore.DEInternal>
1.1763

> <Gold.Chemscore.Rot>
1.3709

> <Gold.Chemscore.Internal.Correction>
   9.000000E+99

> <Gold.Chemscore.Hbonds>
donor molecule, donor type, donor heavy atom, donor atom, acceptor molecule, acceptor atom, score
      L1  H    10    29       P1  8028  0.88

> <Gold.Chemscore.Hbond.Weighted>
-3.1706

> <Gold.Chemscore.Metal.Weighted>
-0.0000

> <Gold.Chemscore.Lipo.Weighted>
-12.2107

> <Gold.Chemscore.Internal_Hbond.Weighted>
0.0000

> <Gold.Chemscore.DEClash.Weighted>
0.2063

> <Gold.Chemscore.DEInternal.Weighted>
1.1763

> <Gold.Chemscore.Rot.Weighted>
3.5095

> <Gold.Chemscore.Internal.Correction.Weighted>
   9.000000E+99

> <Gold.Protein.RotatedTorsions>
[ 6907 6896 6895 6894 ] final -144.96 input  -60.11 | X-H torsion
[ 7974 7965 7964 7962 ] final  114.87 input  175.53 | X-H torsion
[ 8008 7997 7996 7995 ] final  -88.05 input   59.86 | X-H torsion
[ 10167 10162 10161 10158 ] final -168.87 input  -65.29 | X-H torsion
[ 10718 10713 10712 10709 ] final   62.28 input   66.30 | X-H torsion
[ 10763 10752 10751 10750 ] final  160.48 input  -60.55 | X-H torsion
[ 11005 11000 10999 10996 ] final  151.54 input  -57.11 | X-H torsion

> <Gold.Protein.ActiveResidues>
 VAL166  LYS551  ARG553  GLY616  TRP617  ASP618  TYR619  PRO620  LYS621  CYS622 
 ASP623  PHE694  ASN695  SER759  ASP760  ASP761  ALA762  ILE779  LEU786  VAL792 
 PHE793  MET794  SER795  GLU796  ALA797  LYS798  CYS799  TRP800  GLU811  SER814 

> <Gold.Protein.RotatedAtoms>
  151.1212  133.5102  159.2601 H   0  0  0  0  0  0  0  0  0  0  0  0  # atno 6907 bound_to 6896
  151.1859  135.0381  159.8822 H   0  0  0  0  0  0  0  0  0  0  0  0  # atno 6908 bound_to 6896
  152.5456  134.1058  159.8391 H   0  0  0  0  0  0  0  0  0  0  0  0  # atno 6909 bound_to 6896
  145.1990  139.2961  143.4328 H   0  0  0  0  0  0  0  0  0  0  0  0  # atno 7974 bound_to 7965
  154.6703  140.0558  157.0159 H   0  0  0  0  0  0  0  0  0  0  0  0  # atno 8008 bound_to 7997
  155.1098  140.3237  155.4506 H   0  0  0  0  0  0  0  0  0  0  0  0  # atno 8009 bound_to 7997
  156.2655  140.2016  156.6222 H   0  0  0  0  0  0  0  0  0  0  0  0  # atno 8010 bound_to 7997
  139.5958  144.1115  152.1687 H   0  0  0  0  0  0  0  0  0  0  0  0  # atno 10167 bound_to 10162
  157.5889  130.9041  149.9567 H   0  0  0  0  0  0  0  0  0  0  0  0  # atno 10718 bound_to 10713
  154.2480  135.2772  155.2828 H   0  0  0  0  0  0  0  0  0  0  0  0  # atno 10763 bound_to 10752
  154.5489  135.5681  153.6908 H   0  0  0  0  0  0  0  0  0  0  0  0  # atno 10764 bound_to 10752
  152.9986  135.6269  154.2626 H   0  0  0  0  0  0  0  0  0  0  0  0  # atno 10765 bound_to 10752
  140.1228  134.8853  157.2096 H   0  0  0  0  0  0  0  0  0  0  0  0  # atno 11005 bound_to 11000
  146.3421  140.2229  142.8592 LP  0  0  0  0  0  0  0  0  0  0  0  0  # atno 17320 bound_to 7965
  144.9966  140.8595  143.5307 LP  0  0  0  0  0  0  0  0  0  0  0  0  # atno 17321 bound_to 7965
  140.0700  144.5787  150.7199 LP  0  0  0  0  0  0  0  0  0  0  0  0  # atno 17342 bound_to 10162
  140.7210  143.2589  151.4277 LP  0  0  0  0  0  0  0  0  0  0  0  0  # atno 17343 bound_to 10162
  156.0941  130.3661  150.0339 LP  0  0  0  0  0  0  0  0  0  0  0  0  # atno 17370 bound_to 10713
  156.8465  130.9444  151.3628 LP  0  0  0  0  0  0  0  0  0  0  0  0  # atno 17371 bound_to 10713
  140.2943  134.3204  155.7306 LP  0  0  0  0  0  0  0  0  0  0  0  0  # atno 17394 bound_to 11000
  141.2155  133.7553  156.9549 LP  0  0  0  0  0  0  0  0  0  0  0  0  # atno 17395 bound_to 11000

$$$$
