AV-unprocessed.smi:1809|AV-procd|sdf|7329|dock3
  -GOLD-   22720 8583D 1   1.00000     0.00000
 Structure written by MMmdl.
 38 40  0  0  0  0  0  0  0  0  2 V2000
  146.6658  134.1960  162.5260 C   0  0  0  0  0  0  0  0  0  0  0  0
  147.3048  135.1936  161.6217 C   0  0  0  0  0  0  0  0  0  0  0  0
  147.5135  136.4631  161.9794 N   0  0  0  0  0  0  0  0  0  0  0  0
  148.1203  137.1974  160.9703 N   0  0  0  0  0  0  0  0  0  0  0  0
  148.3503  136.4784  159.8624 C   0  0  0  0  0  0  0  0  0  0  0  0
  148.9333  137.0014  158.7709 N   0  5  0  0  0  0  0  0  0  0  0  0
  150.1979  137.4758  158.8416 C   0  0  0  0  0  0  0  0  0  0  0  0
  151.1590  136.9195  159.3782 O   0  0  0  0  0  0  0  0  0  0  0  0
  150.3606  138.6697  158.2569 N   0  0  0  0  0  0  0  0  0  0  0  0
  151.6152  139.4082  158.1933 C   0  0  0  0  0  0  0  0  0  0  0  0
  151.5756  140.6328  159.1180 C   0  0  2  0  0  0  0  0  0  0  0  0
  150.9509  141.8614  158.4171 C   0  0  0  0  0  0  0  0  0  0  0  0
  151.0499  143.0256  159.2768 N   0  0  0  0  0  0  0  0  0  0  0  0
  150.5833  144.2805  158.7352 C   0  0  0  0  0  0  0  0  0  0  0  0
  151.1856  145.3442  159.6701 C   0  0  0  0  0  0  0  0  0  0  0  0
  152.3662  144.6261  160.3612 C   0  0  0  0  0  0  0  0  0  0  0  0
  152.4199  143.2841  159.6290 C   0  0  1  0  0  0  0  0  0  0  0  0
  153.0236  142.0866  160.3762 C   0  0  0  0  0  0  0  0  0  0  0  0
  152.9148  140.9413  159.5277 O   0  0  0  0  0  0  0  0  0  0  0  0
  147.8405  134.7955  159.9981 S   0  0  0  0  0  0  0  0  0  0  0  0
  145.5905  134.3692  162.5707 H   0  0  0  0  0  0  0  0  0  0  0  0
  147.0783  134.2793  163.5318 H   0  0  0  0  0  0  0  0  0  0  0  0
  146.8431  133.1848  162.1598 H   0  0  0  0  0  0  0  0  0  0  0  0
  149.5517  139.0991  157.8323 H   0  0  0  0  0  0  0  0  0  0  0  0
  152.4442  138.7549  158.4700 H   0  0  0  0  0  0  0  0  0  0  0  0
  151.7834  139.7255  157.1631 H   0  0  0  0  0  0  0  0  0  0  0  0
  150.9866  140.3927  160.0054 H   0  0  0  0  0  0  0  0  0  0  0  0
  151.4655  142.0502  157.4737 H   0  0  0  0  0  0  0  0  0  0  0  0
  149.9059  141.6661  158.1747 H   0  0  0  0  0  0  0  0  0  0  0  0
  150.9652  144.4185  157.7223 H   0  0  0  0  0  0  0  0  0  0  0  0
  149.4946  144.3225  158.6954 H   0  0  0  0  0  0  0  0  0  0  0  0
  151.5117  146.2203  159.1090 H   0  0  0  0  0  0  0  0  0  0  0  0
  150.4554  145.6727  160.4107 H   0  0  0  0  0  0  0  0  0  0  0  0
  153.3025  145.1786  160.2775 H   0  0  0  0  0  0  0  0  0  0  0  0
  152.1503  144.4804  161.4206 H   0  0  0  0  0  0  0  0  0  0  0  0
  152.9966  143.4319  158.7132 H   0  0  0  0  0  0  0  0  0  0  0  0
  154.0733  142.2651  160.6097 H   0  0  0  0  0  0  0  0  0  0  0  0
  152.5041  141.9044  161.3183 H   0  0  0  0  0  0  0  0  0  0  0  0
  1  2  1  0  0  0  0
  1 21  1  0  0  0  0
  1 22  1  0  0  0  0
  1 23  1  0  0  0  0
  2 20  1  0  0  0  0
  2  3  2  0  0  0  0
  3  4  1  0  0  0  0
  4  5  2  0  0  0  0
  5  6  1  0  0  0  0
  5 20  1  0  0  0  0
  6  7  1  0  0  0  0
  7  8  2  0  0  0  0
  7  9  1  0  0  0  0
  9 10  1  0  0  0  0
  9 24  1  0  0  0  0
 10 11  1  0  0  0  0
 10 25  1  0  0  0  0
 10 26  1  0  0  0  0
 11 19  1  0  0  0  0
 11 12  1  0  0  0  0
 11 27  1  0  0  0  0
 12 13  1  0  0  0  0
 12 28  1  0  0  0  0
 12 29  1  0  0  0  0
 13 17  1  0  0  0  0
 13 14  1  0  0  0  0
 14 15  1  0  0  0  0
 14 30  1  0  0  0  0
 14 31  1  0  0  0  0
 15 16  1  0  0  0  0
 15 32  1  0  0  0  0
 15 33  1  0  0  0  0
 16 17  1  0  0  0  0
 16 34  1  0  0  0  0
 16 35  1  0  0  0  0
 17 18  1  0  0  0  0
 17 36  1  0  0  0  0
 18 19  1  0  0  0  0
 18 37  1  0  0  0  0
 18 38  1  0  0  0  0
M  CHG  1   6  -1
M  END
> <s_m_source_file>
AV-unprocessed.smi

> <i_m_source_file_index>
1809

> <i_lp_mmshare_version>
43012

> <i_f3d_flags>
0

> <s_epik_input>
W0NIM11jMW5uYyhzMSlbTkhdQyg9TylbTkhdW0NIMl1bQ0BIXShbQ0gyXTIpT1tDSDJdW0NAQEhdKE4yMylbQ0gyXVtDSDJdW0NIMl0z

> <s_epik_cmdline>
J2VwaWtfcHl0aG9uJywgJy1waCcsICc3LjAnLCAnLXRuJywgJzgnLCAnLW1hJywgJzIwMCcsICctbWV0YWxfYmluZGluZycsICctaW1hZScsICc8aW5maWxlLm1hZT4nLCAnLW9tYWUnLCAnPG91dGZpbGUubWFlPic=

> <r_lp_tautomer_probability>
1

> <r_epik_Ionization_Penalty>
4.48809

> <r_epik_Ionization_Penalty_Charging>
3.27284

> <r_epik_Ionization_Penalty_Neutral>
1.21525

> <r_epik_State_Penalty>
4.69427

> <r_epik_Charging_Adjusted_Penalty>
7.96711

> <i_epik_Tot_Q>
-1

> <i_epik_Tot_abs_Q>
1

> <r_epik_Metal_State_Penalty>
1.91976

> <b_epik_Metal_Only>
1

> <s_lp_Force_Field>
OPLS_2005

> <r_lp_Energy>
45.7249

> <b_lp_Chiralities_Consistent>
1

> <s_lp_Variant>
AV-unprocessed.smi:1809-21

> <Gold.Version>
5.8.1

> <Gold.Id.Protein>
6NUR|6NUR_protein|mol2

> <Gold.PLP.Fitness>
45.3889

> <Gold.PLP.PLP>
-40.4655

> <Gold.PLP.part.hbond>
-3.1381

> <Gold.PLP.part.metal>
0.0000

> <Gold.PLP.part.buried>
-6.8491

> <Gold.PLP.part.nonpolar>
-30.4043

> <Gold.PLP.part.repulsive>
0.1520

> <Gold.PLP.ligand.clash>
0.0000

> <Gold.PLP.ligand.torsion>
1.3530

> <Gold.PLP.Chemscore.Hbond>
2.5303

> <Gold.PLP.Chemscore.CHOScore>
0.0000

> <Gold.PLP.Chemscore.Metal>
0.0000

> <Gold.Chemscore.Hbonds>
donor molecule, donor type, donor heavy atom, donor atom, acceptor molecule, acceptor atom, score
      P1  H  6896  6907       L1     8  1.00
      P1  H  6931  6943       L1     4  0.94
      P1  H  6934  6947       L1     4  0.64

> <Gold.PLP.Chemscore.Internal.Correction>
0.0386

> <Gold.Rescore>
     Score         DG    S(hbond)    S(metal)    S(lipo)     H(rot)  DE(clash)    DE(int)     intcor
     19.47     -20.70       2.27        0.00      93.91       1.31       0.00       1.23       ----

> <Gold.Chemscore.Fitness>
19.4666

> <Gold.Chemscore.DG>
-20.6974

> <Gold.Chemscore.ZeroCoef>
-5.4800

> <Gold.Chemscore.Hbond>
2.2667

> <Gold.Chemscore.Metal>
0.0000

> <Gold.Chemscore.Lipo>
93.9126

> <Gold.Chemscore.Internal_Hbond>
0.0000

> <Gold.Chemscore.DEClash>
0.0000

> <Gold.Chemscore.DEInternal>
1.2308

> <Gold.Chemscore.Rot>
1.3051

> <Gold.Chemscore.Internal.Correction>
   9.000000E+99

> <Gold.Chemscore.Hbonds>
donor molecule, donor type, donor heavy atom, donor atom, acceptor molecule, acceptor atom, score
      P1  H  6896  6907       L1     8  0.96
      P1  H  6931  6943       L1     4  0.23
      P1  H  6934  6947       L1     4  0.37

> <Gold.Chemscore.Hbond.Weighted>
-7.5708

> <Gold.Chemscore.Metal.Weighted>
-0.0000

> <Gold.Chemscore.Lipo.Weighted>
-10.9878

> <Gold.Chemscore.Internal_Hbond.Weighted>
0.0000

> <Gold.Chemscore.DEClash.Weighted>
0.0000

> <Gold.Chemscore.DEInternal.Weighted>
1.2308

> <Gold.Chemscore.Rot.Weighted>
3.3412

> <Gold.Chemscore.Internal.Correction.Weighted>
   9.000000E+99

> <Gold.Protein.RotatedTorsions>
[ 6907 6896 6895 6894 ] final  -28.86 input  -60.11 | X-H torsion
[ 7974 7965 7964 7962 ] final    8.80 input  175.53 | X-H torsion
[ 8008 7997 7996 7995 ] final   27.79 input   59.86 | X-H torsion
[ 10167 10162 10161 10158 ] final   95.99 input  -65.29 | X-H torsion
[ 10718 10713 10712 10709 ] final -140.04 input   66.30 | X-H torsion
[ 10763 10752 10751 10750 ] final -148.40 input  -60.55 | X-H torsion
[ 11005 11000 10999 10996 ] final  168.02 input  -57.11 | X-H torsion

> <Gold.Protein.ActiveResidues>
 VAL166  LYS551  ARG553  GLY616  TRP617  ASP618  TYR619  PRO620  LYS621  CYS622 
 ASP623  PHE694  ASN695  SER759  ASP760  ASP761  ALA762  ILE779  LEU786  VAL792 
 PHE793  MET794  SER795  GLU796  ALA797  LYS798  CYS799  TRP800  GLU811  SER814 

> <Gold.Protein.RotatedAtoms>
  151.1272  135.0111  159.8565 H   0  0  0  0  0  0  0  0  0  0  0  0  # atno 6907 bound_to 6896
  152.5450  134.1653  159.8584 H   0  0  0  0  0  0  0  0  0  0  0  0  # atno 6908 bound_to 6896
  151.1716  133.4735  159.2627 H   0  0  0  0  0  0  0  0  0  0  0  0  # atno 6909 bound_to 6896
  146.2412  139.9879  142.8429 H   0  0  0  0  0  0  0  0  0  0  0  0  # atno 7974 bound_to 7965
  155.0484  140.3177  155.4700 H   0  0  0  0  0  0  0  0  0  0  0  0  # atno 8008 bound_to 7997
  156.2839  140.2150  156.5553 H   0  0  0  0  0  0  0  0  0  0  0  0  # atno 8009 bound_to 7997
  154.7231  140.0488  157.0645 H   0  0  0  0  0  0  0  0  0  0  0  0  # atno 8010 bound_to 7997
  139.7936  144.6842  150.9858 H   0  0  0  0  0  0  0  0  0  0  0  0  # atno 10167 bound_to 10162
  156.3177  130.7517  151.1607 H   0  0  0  0  0  0  0  0  0  0  0  0  # atno 10718 bound_to 10713
  154.8235  135.3335  154.6968 H   0  0  0  0  0  0  0  0  0  0  0  0  # atno 10763 bound_to 10752
  153.7598  135.6933  153.4932 H   0  0  0  0  0  0  0  0  0  0  0  0  # atno 10764 bound_to 10752
  153.2118  135.4479  155.0338 H   0  0  0  0  0  0  0  0  0  0  0  0  # atno 10765 bound_to 10752
  140.2828  134.7736  157.3773 H   0  0  0  0  0  0  0  0  0  0  0  0  # atno 11005 bound_to 11000
  145.1531  140.9633  143.4421 LP  0  0  0  0  0  0  0  0  0  0  0  0  # atno 17320 bound_to 7965
  145.0186  139.3444  143.6083 LP  0  0  0  0  0  0  0  0  0  0  0  0  # atno 17321 bound_to 7965
  140.7820  143.4354  151.0631 LP  0  0  0  0  0  0  0  0  0  0  0  0  # atno 17342 bound_to 10162
  139.8030  143.8057  152.3164 LP  0  0  0  0  0  0  0  0  0  0  0  0  # atno 17343 bound_to 10162
  157.7405  131.0516  150.5162 LP  0  0  0  0  0  0  0  0  0  0  0  0  # atno 17370 bound_to 10713
  156.5310  130.4185  149.6202 LP  0  0  0  0  0  0  0  0  0  0  0  0  # atno 17371 bound_to 10713
  140.1267  134.5148  155.8139 LP  0  0  0  0  0  0  0  0  0  0  0  0  # atno 17394 bound_to 11000
  141.2160  133.6775  156.6965 LP  0  0  0  0  0  0  0  0  0  0  0  0  # atno 17395 bound_to 11000

$$$$
