AV-unprocessed.smi:1576|AV-procd|sdf|6347|dock10
  -GOLD-   22720 6563D 1   1.00000     0.00000
 Structure written by MMmdl.
 45 47  0  0  0  0  0  0  0  0  3 V2000
  149.9820  133.9233  157.6417 O   0  0  0  0  0  0  0  0  0  0  0  0
  150.2622  134.7257  156.7441 C   0  0  0  0  0  0  0  0  0  0  0  0
  149.9854  134.4346  155.4606 N   0  0  0  0  0  0  0  0  0  0  0  0
  149.4048  133.2581  154.9163 C   0  0  0  0  0  0  0  0  0  0  0  0
  148.5393  133.4018  153.8111 C   0  0  0  0  0  0  0  0  0  0  0  0
  147.9523  132.2592  153.2300 C   0  0  0  0  0  0  0  0  0  0  0  0
  148.2522  130.9828  153.7585 C   0  0  0  0  0  0  0  0  0  0  0  0
  147.7140  129.7931  153.2511 N   0  0  0  0  0  0  0  0  0  0  0  0
  146.6279  130.0239  152.3018 C   0  0  0  0  0  0  0  0  0  0  0  0
  145.9489  128.6993  151.9129 C   0  0  0  0  0  0  0  0  0  0  0  0
  146.9798  127.6868  151.3887 C   0  0  0  0  0  0  0  0  0  0  0  0
  148.1128  127.5039  152.4114 C   0  0  0  0  0  0  0  0  0  0  0  0
  148.7374  128.8585  152.7897 C   0  0  0  0  0  0  0  0  0  0  0  0
  149.1012  130.8839  154.8041 N   0  3  0  0  0  0  0  0  0  0  0  0
  149.6825  131.9532  155.3905 C   0  0  0  0  0  0  0  0  0  0  0  0
  150.8277  135.9555  156.8783 N   0  5  0  0  0  0  0  0  0  0  0  0
  150.1272  137.2302  156.6789 C   0  0  2  0  0  0  0  0  0  0  0  0
  149.8049  137.4243  155.1784 C   0  0  0  0  0  0  0  0  0  0  0  0
  151.0548  137.9289  154.4456 C   0  0  0  0  0  0  0  0  0  0  0  0
  151.9059  139.0205  155.6423 S   0  0  0  0  0  0  0  0  0  0  0  0
  153.3306  138.6585  155.7037 O   0  0  0  0  0  0  0  0  0  0  0  0
  151.4937  140.4125  155.4031 O   0  0  0  0  0  0  0  0  0  0  0  0
  151.0316  138.3929  157.1328 C   0  0  0  0  0  0  0  0  0  0  0  0
  150.1558  135.1829  154.8048 H   0  0  0  0  0  0  0  0  0  0  0  0
  148.3182  134.3821  153.4145 H   0  0  0  0  0  0  0  0  0  0  0  0
  147.2815  132.3669  152.3903 H   0  0  0  0  0  0  0  0  0  0  0  0
  145.8939  130.7007  152.7411 H   0  0  0  0  0  0  0  0  0  0  0  0
  147.0198  130.5129  151.4091 H   0  0  0  0  0  0  0  0  0  0  0  0
  145.4367  128.2827  152.7813 H   0  0  0  0  0  0  0  0  0  0  0  0
  145.1828  128.8796  151.1583 H   0  0  0  0  0  0  0  0  0  0  0  0
  146.4985  126.7302  151.1831 H   0  0  0  0  0  0  0  0  0  0  0  0
  147.3923  128.0393  150.4425 H   0  0  0  0  0  0  0  0  0  0  0  0
  147.7212  127.0198  153.3070 H   0  0  0  0  0  0  0  0  0  0  0  0
  148.8775  126.8390  152.0091 H   0  0  0  0  0  0  0  0  0  0  0  0
  149.2551  129.2799  151.9268 H   0  0  0  0  0  0  0  0  0  0  0  0
  149.4841  128.7157  153.5721 H   0  0  0  0  0  0  0  0  0  0  0  0
  150.3522  131.7199  156.2050 H   0  0  0  0  0  0  0  0  0  0  0  0
  149.2014  137.2623  157.2553 H   0  0  0  0  0  0  0  0  0  0  0  0
  149.4024  136.5226  154.7151 H   0  0  0  0  0  0  0  0  0  0  0  0
  149.0286  138.1853  155.0924 H   0  0  0  0  0  0  0  0  0  0  0  0
  151.7256  137.1046  154.1979 H   0  0  0  0  0  0  0  0  0  0  0  0
  150.8241  138.4760  153.5319 H   0  0  0  0  0  0  0  0  0  0  0  0
  150.4277  139.2105  157.5262 H   0  0  0  0  0  0  0  0  0  0  0  0
  151.7537  138.1116  157.9000 H   0  0  0  0  0  0  0  0  0  0  0  0
  149.3158  129.9559  155.1697 H   0  0  0  0  0  0  0  0  0  0  0  0
  1  2  2  0  0  0  0
  2  3  1  0  0  0  0
  2 16  1  0  0  0  0
  3  4  1  0  0  0  0
  3 24  1  0  0  0  0
  4 15  1  0  0  0  0
  4  5  2  0  0  0  0
  5  6  1  0  0  0  0
  5 25  1  0  0  0  0
  6  7  2  0  0  0  0
  6 26  1  0  0  0  0
  7  8  1  0  0  0  0
  7 14  1  0  0  0  0
  8 13  1  0  0  0  0
  8  9  1  0  0  0  0
  9 10  1  0  0  0  0
  9 27  1  0  0  0  0
  9 28  1  0  0  0  0
 10 11  1  0  0  0  0
 10 29  1  0  0  0  0
 10 30  1  0  0  0  0
 11 12  1  0  0  0  0
 11 31  1  0  0  0  0
 11 32  1  0  0  0  0
 12 13  1  0  0  0  0
 12 33  1  0  0  0  0
 12 34  1  0  0  0  0
 13 35  1  0  0  0  0
 13 36  1  0  0  0  0
 14 15  2  0  0  0  0
 14 45  1  0  0  0  0
 15 37  1  0  0  0  0
 16 17  1  0  0  0  0
 17 23  1  0  0  0  0
 17 18  1  0  0  0  0
 17 38  1  0  0  0  0
 18 19  1  0  0  0  0
 18 39  1  0  0  0  0
 18 40  1  0  0  0  0
 19 20  1  0  0  0  0
 19 41  1  0  0  0  0
 19 42  1  0  0  0  0
 20 21  2  0  0  0  0
 20 22  2  0  0  0  0
 20 23  1  0  0  0  0
 23 43  1  0  0  0  0
 23 44  1  0  0  0  0
M  CHG  1  14   1
M  CHG  1  16  -1
M  END
> <s_m_source_file>
AV-unprocessed.smi

> <i_m_source_file_index>
1576

> <i_lp_mmshare_version>
43012

> <i_f3d_flags>
0

> <s_epik_input>
Tz1TMSg9TylbQ0gyXVtDSDJdW0NASF0oW0NIMl0xKVtOSF1DKD1PKVtOSF1jMltjSF1bY0hdYyhuW2NIXTIpTjNbQ0gyXVtDSDJdW0NIMl1bQ0gyXVtDSDJdMw==

> <s_epik_cmdline>
J2VwaWtfcHl0aG9uJywgJy1waCcsICc3LjAnLCAnLXRuJywgJzgnLCAnLW1hJywgJzIwMCcsICctbWV0YWxfYmluZGluZycsICctaW1hZScsICc8aW5maWxlLm1hZT4nLCAnLW9tYWUnLCAnPG91dGZpbGUubWFlPic=

> <r_lp_tautomer_probability>
0.999994

> <r_epik_Ionization_Penalty>
8.26491

> <r_epik_Ionization_Penalty_Charging>
8.26491

> <r_epik_Ionization_Penalty_Neutral>
3.15169e-06

> <r_epik_State_Penalty>
7.8977

> <r_epik_Charging_Adjusted_Penalty>
16.1626

> <i_epik_Tot_Q>
0

> <i_epik_Tot_abs_Q>
2

> <r_epik_Metal_State_Penalty>
3.88896

> <b_epik_Metal_Only>
1

> <s_lp_Force_Field>
OPLS_2005

> <r_lp_Energy>
29.9243

> <b_lp_Chiralities_Consistent>
1

> <s_lp_Variant>
AV-unprocessed.smi:1576-5

> <Gold.Version>
5.8.1

> <Gold.Id.Protein>
6NUR|6NUR_protein|mol2

> <Gold.PLP.Fitness>
42.5278

> <Gold.PLP.PLP>
-36.1075

> <Gold.PLP.part.hbond>
-3.0000

> <Gold.PLP.part.metal>
0.0000

> <Gold.PLP.part.buried>
-4.5236

> <Gold.PLP.part.nonpolar>
-29.5676

> <Gold.PLP.part.repulsive>
0.1790

> <Gold.PLP.ligand.clash>
0.0000

> <Gold.PLP.ligand.torsion>
1.1362

> <Gold.PLP.Chemscore.Hbond>
2.8480

> <Gold.PLP.Chemscore.CHOScore>
0.0000

> <Gold.PLP.Chemscore.Metal>
0.0000

> <Gold.Chemscore.Hbonds>
donor molecule, donor type, donor heavy atom, donor atom, acceptor molecule, acceptor atom, score
      P1  H  6896  6909       L1     1  1.00
      P1  H  7989  7998       L1    22  0.88
      P1  H  7997  8008       L1    21  0.96

> <Gold.PLP.Chemscore.Internal.Correction>
0.1487

> <Gold.Rescore>
     Score         DG    S(hbond)    S(metal)    S(lipo)     H(rot)  DE(clash)    DE(int)     intcor
     18.07     -21.25       2.75        0.00      83.32       1.24       0.05       3.13       ----

> <Gold.Chemscore.Fitness>
18.0669

> <Gold.Chemscore.DG>
-21.2480

> <Gold.Chemscore.ZeroCoef>
-5.4800

> <Gold.Chemscore.Hbond>
2.7502

> <Gold.Chemscore.Metal>
0.0000

> <Gold.Chemscore.Lipo>
83.3164

> <Gold.Chemscore.Internal_Hbond>
0.0000

> <Gold.Chemscore.DEClash>
0.0492

> <Gold.Chemscore.DEInternal>
3.1318

> <Gold.Chemscore.Rot>
1.2366

> <Gold.Chemscore.Internal.Correction>
   9.000000E+99

> <Gold.Chemscore.Hbonds>
donor molecule, donor type, donor heavy atom, donor atom, acceptor molecule, acceptor atom, score
      P1  H  6896  6909       L1     1  0.96
      P1  H  7989  7998       L1    22  0.67
      P1  H  7997  8008       L1    21  0.72

> <Gold.Chemscore.Hbond.Weighted>
-9.1857

> <Gold.Chemscore.Metal.Weighted>
-0.0000

> <Gold.Chemscore.Lipo.Weighted>
-9.7480

> <Gold.Chemscore.Internal_Hbond.Weighted>
0.0000

> <Gold.Chemscore.DEClash.Weighted>
0.0492

> <Gold.Chemscore.DEInternal.Weighted>
3.1318

> <Gold.Chemscore.Rot.Weighted>
3.1657

> <Gold.Chemscore.Internal.Correction.Weighted>
   9.000000E+99

> <Gold.Protein.RotatedTorsions>
[ 6907 6896 6895 6894 ] final    4.67 input  -60.11 | X-H torsion
[ 7974 7965 7964 7962 ] final -132.22 input  175.53 | X-H torsion
[ 8008 7997 7996 7995 ] final  -34.10 input   59.86 | X-H torsion
[ 10167 10162 10161 10158 ] final  150.91 input  -65.29 | X-H torsion
[ 10718 10713 10712 10709 ] final -114.14 input   66.30 | X-H torsion
[ 10763 10752 10751 10750 ] final  -91.82 input  -60.55 | X-H torsion
[ 11005 11000 10999 10996 ] final   -6.98 input  -57.11 | X-H torsion

> <Gold.Protein.ActiveResidues>
 VAL166  LYS551  ARG553  GLY616  TRP617  ASP618  TYR619  PRO620  LYS621  CYS622 
 ASP623  PHE694  ASN695  SER759  ASP760  ASP761  ALA762  ILE779  LEU786  VAL792 
 PHE793  MET794  SER795  GLU796  ALA797  LYS798  CYS799  TRP800  GLU811  SER814 

> <Gold.Protein.RotatedAtoms>
  151.6450  135.1008  160.0148 H   0  0  0  0  0  0  0  0  0  0  0  0  # atno 6907 bound_to 6896
  152.4033  133.6846  159.6343 H   0  0  0  0  0  0  0  0  0  0  0  0  # atno 6908 bound_to 6896
  150.7930  133.8671  159.3289 H   0  0  0  0  0  0  0  0  0  0  0  0  # atno 6909 bound_to 6896
  144.9305  140.7123  143.4909 H   0  0  0  0  0  0  0  0  0  0  0  0  # atno 7974 bound_to 7965
  154.4130  140.1693  156.1995 H   0  0  0  0  0  0  0  0  0  0  0  0  # atno 8008 bound_to 7997
  155.9536  140.3399  155.6406 H   0  0  0  0  0  0  0  0  0  0  0  0  # atno 8009 bound_to 7997
  155.6838  140.0726  157.2465 H   0  0  0  0  0  0  0  0  0  0  0  0  # atno 8010 bound_to 7997
  139.4845  144.5484  151.7444 H   0  0  0  0  0  0  0  0  0  0  0  0  # atno 10167 bound_to 10162
  156.0811  130.6011  150.8736 H   0  0  0  0  0  0  0  0  0  0  0  0  # atno 10718 bound_to 10713
  154.6799  135.5254  153.8249 H   0  0  0  0  0  0  0  0  0  0  0  0  # atno 10763 bound_to 10752
  153.0558  135.6550  154.0592 H   0  0  0  0  0  0  0  0  0  0  0  0  # atno 10764 bound_to 10752
  154.0480  135.2971  155.3324 H   0  0  0  0  0  0  0  0  0  0  0  0  # atno 10765 bound_to 10752
  140.7078  133.8934  155.8729 H   0  0  0  0  0  0  0  0  0  0  0  0  # atno 11005 bound_to 11000
  145.3149  139.1807  143.4619 LP  0  0  0  0  0  0  0  0  0  0  0  0  # atno 17320 bound_to 7965
  146.3245  140.3159  142.8630 LP  0  0  0  0  0  0  0  0  0  0  0  0  # atno 17321 bound_to 7965
  140.5034  144.1135  150.5976 LP  0  0  0  0  0  0  0  0  0  0  0  0  # atno 17342 bound_to 10162
  140.4036  143.2691  151.9918 LP  0  0  0  0  0  0  0  0  0  0  0  0  # atno 17343 bound_to 10162
  157.5928  131.0944  150.9091 LP  0  0  0  0  0  0  0  0  0  0  0  0  # atno 17370 bound_to 10713
  156.9263  130.5333  149.5279 LP  0  0  0  0  0  0  0  0  0  0  0  0  # atno 17371 bound_to 10713
  141.0110  134.1021  157.4222 LP  0  0  0  0  0  0  0  0  0  0  0  0  # atno 17394 bound_to 11000
  139.8879  135.0094  156.6591 LP  0  0  0  0  0  0  0  0  0  0  0  0  # atno 17395 bound_to 11000

$$$$
