AV-unprocessed.smi:290|AV-procd|sdf|2237|dock7
  -GOLD-   2262022103D 1   1.00000     0.00000
 Structure written by MMmdl.
 59 62  0  0  0  0  0  0  0  0  2 V2000
  150.5852  140.5132  158.3183 C   0  0  0  0  0  0  0  0  0  0  0  0
  150.7777  139.0139  158.0372 C   0  0  2  0  0  0  0  0  0  0  0  0
  150.9323  138.2898  159.2572 O   0  0  0  0  0  0  0  0  0  0  0  0
  152.1742  137.6011  159.2611 C   0  0  0  0  0  0  0  0  0  0  0  0
  152.4638  137.3453  157.7881 C   0  0  0  0  0  0  0  0  0  0  0  0
  151.9694  138.6256  157.1291 C   0  0  2  0  0  0  0  0  0  0  0  0
  153.0033  139.5939  157.2104 O   0  0  0  0  0  0  0  0  0  0  0  0
  151.5710  138.4546  155.6436 C   0  0  0  0  0  0  0  0  0  0  0  0
  150.4921  137.4995  155.4410 N   0  0  0  0  0  0  0  0  0  0  0  0
  149.1970  137.7850  155.0704 C   0  0  0  0  0  0  0  0  0  0  0  0
  148.4085  136.7507  154.9593 N   0  0  0  0  0  0  0  0  0  0  0  0
  149.2235  135.6690  155.2701 C   0  0  0  0  0  0  0  0  0  0  0  0
  149.0242  134.2618  155.3510 C   0  0  0  0  0  0  0  0  0  0  0  0
  147.8547  133.6302  155.1125 N   0  0  0  0  0  0  0  0  0  0  0  0
  146.6688  134.2419  155.7037 C   0  0  0  0  0  0  0  0  0  0  0  0
  145.5528  134.0980  154.6677 C   0  0  0  0  0  0  0  0  0  0  0  0
  146.3230  134.0879  153.3434 C   0  0  2  0  0  0  0  0  0  0  0  0
  145.5711  133.5795  152.1579 N   0  3  1  0  0  0  0  0  0  0  0  0
  144.5226  134.5245  151.6954 C   0  0  0  0  0  0  0  0  0  0  0  0
  146.4773  133.1665  151.0500 C   0  0  0  0  0  0  0  0  0  0  0  0
  145.8392  132.1471  150.0882 C   0  0  0  0  0  0  0  0  0  0  0  0
  146.7176  131.8596  149.0216 O   0  0  0  0  0  0  0  0  0  0  0  0
  147.5863  133.2794  153.7204 C   0  0  2  0  0  0  0  0  0  0  0  0
  147.4249  131.7517  153.6032 C   0  0  0  0  0  0  0  0  0  0  0  0
  150.0825  133.4866  155.6889 N   0  0  0  0  0  0  0  0  0  0  0  0
  151.2691  134.0490  155.9397 C   0  0  0  0  0  0  0  0  0  0  0  0
  151.6036  135.3412  155.9095 N   0  0  0  0  0  0  0  0  0  0  0  0
  150.5393  136.1223  155.5676 C   0  0  0  0  0  0  0  0  0  0  0  0
  146.6151  135.1168  153.1288 H   0  0  0  0  0  0  0  0  0  0  0  0
  148.4202  133.5836  153.0853 H   0  0  0  0  0  0  0  0  0  0  0  0
  150.4760  141.0748  157.3900 H   0  0  0  0  0  0  0  0  0  0  0  0
  151.4278  140.9313  158.8700 H   0  0  0  0  0  0  0  0  0  0  0  0
  149.6892  140.6820  158.9156 H   0  0  0  0  0  0  0  0  0  0  0  0
  149.8570  138.6348  157.5919 H   0  0  0  0  0  0  0  0  0  0  0  0
  152.9386  138.2446  159.6988 H   0  0  0  0  0  0  0  0  0  0  0  0
  152.1226  136.6837  159.8476 H   0  0  0  0  0  0  0  0  0  0  0  0
  153.5133  137.1237  157.5898 H   0  0  0  0  0  0  0  0  0  0  0  0
  151.8717  136.4938  157.4498 H   0  0  0  0  0  0  0  0  0  0  0  0
  152.6572  140.3699  157.6238 H   0  0  0  0  0  0  0  0  0  0  0  0
  151.2513  139.4110  155.2280 H   0  0  0  0  0  0  0  0  0  0  0  0
  152.4322  138.1387  155.0533 H   0  0  0  0  0  0  0  0  0  0  0  0
  148.8520  138.7926  154.8893 H   0  0  0  0  0  0  0  0  0  0  0  0
  146.4068  133.7470  156.6392 H   0  0  0  0  0  0  0  0  0  0  0  0
  146.8411  135.2957  155.9270 H   0  0  0  0  0  0  0  0  0  0  0  0
  145.0290  133.1525  154.8151 H   0  0  0  0  0  0  0  0  0  0  0  0
  144.8242  134.9063  154.7388 H   0  0  0  0  0  0  0  0  0  0  0  0
  144.9604  135.4825  151.4122 H   0  0  0  0  0  0  0  0  0  0  0  0
  143.7778  134.7049  152.4700 H   0  0  0  0  0  0  0  0  0  0  0  0
  143.9757  134.1375  150.8376 H   0  0  0  0  0  0  0  0  0  0  0  0
  146.7948  134.0522  150.4979 H   0  0  0  0  0  0  0  0  0  0  0  0
  147.3889  132.7219  151.4484 H   0  0  0  0  0  0  0  0  0  0  0  0
  145.5520  131.2224  150.5867 H   0  0  0  0  0  0  0  0  0  0  0  0
  144.9252  132.5673  149.6676 H   0  0  0  0  0  0  0  0  0  0  0  0
  147.5030  131.4684  149.3743 H   0  0  0  0  0  0  0  0  0  0  0  0
  147.2758  131.4402  152.5706 H   0  0  0  0  0  0  0  0  0  0  0  0
  146.5807  131.3857  154.1883 H   0  0  0  0  0  0  0  0  0  0  0  0
  148.3187  131.2415  153.9635 H   0  0  0  0  0  0  0  0  0  0  0  0
  152.0637  133.3670  156.2044 H   0  0  0  0  0  0  0  0  0  0  0  0
  145.0945  132.7430  152.4648 H   0  0  0  0  0  0  0  0  0  0  0  0
  1  2  1  0  0  0  0
  1 31  1  0  0  0  0
  1 32  1  0  0  0  0
  1 33  1  0  0  0  0
  2  6  1  0  0  0  0
  2  3  1  0  0  0  0
  2 34  1  0  0  0  0
  3  4  1  0  0  0  0
  4  5  1  0  0  0  0
  4 35  1  0  0  0  0
  4 36  1  0  0  0  0
  5  6  1  0  0  0  0
  5 37  1  0  0  0  0
  5 38  1  0  0  0  0
  6  7  1  0  0  0  0
  6  8  1  0  0  0  0
  7 39  1  0  0  0  0
  8  9  1  0  0  0  0
  8 40  1  0  0  0  0
  8 41  1  0  0  0  0
  9 28  1  0  0  0  0
  9 10  1  0  0  0  0
 10 11  2  0  0  0  0
 10 42  1  0  0  0  0
 11 12  1  0  0  0  0
 12 28  2  0  0  0  0
 12 13  1  0  0  0  0
 13 14  1  0  0  0  0
 13 25  2  0  0  0  0
 14 23  1  0  0  0  0
 14 15  1  0  0  0  0
 15 16  1  0  0  0  0
 15 43  1  0  0  0  0
 15 44  1  0  0  0  0
 16 17  1  0  0  0  0
 16 45  1  0  0  0  0
 16 46  1  0  0  0  0
 17 29  1  0  0  0  0
 17 18  1  0  0  0  0
 17 23  1  0  0  0  0
 18 19  1  0  0  0  0
 18 20  1  0  0  0  0
 18 59  1  0  0  0  0
 19 47  1  0  0  0  0
 19 48  1  0  0  0  0
 19 49  1  0  0  0  0
 20 21  1  0  0  0  0
 20 50  1  0  0  0  0
 20 51  1  0  0  0  0
 21 22  1  0  0  0  0
 21 52  1  0  0  0  0
 21 53  1  0  0  0  0
 22 54  1  0  0  0  0
 23 30  1  0  0  0  0
 23 24  1  0  0  0  0
 24 55  1  0  0  0  0
 24 56  1  0  0  0  0
 24 57  1  0  0  0  0
 25 26  1  0  0  0  0
 26 27  2  0  0  0  0
 26 58  1  0  0  0  0
 27 28  1  0  0  0  0
M  CHG  1  18   1
M  END
> <s_m_source_file>
AV-unprocessed.smi

> <i_m_source_file_index>
290

> <i_lp_mmshare_version>
43012

> <i_f3d_flags>
0

> <s_epik_input>
W0NIMl0xW0NIMl1PW0NAQEhdKFtDSDNdKVtDQEBdMShbT0hdKVtDSDJdbihbY0hdbjIpYyhjMjMpbltjSF1uYzNONFtDSDJdW0NIMl1bQ0BIXShbQ0BIXTRbQ0gzXSlOKFtDSDNdKVtDSDJdW0NIMl1bT0hd

> <s_epik_cmdline>
J2VwaWtfcHl0aG9uJywgJy1waCcsICc3LjAnLCAnLXRuJywgJzgnLCAnLW1hJywgJzIwMCcsICctbWV0YWxfYmluZGluZycsICctaW1hZScsICc8aW5maWxlLm1hZT4nLCAnLW9tYWUnLCAnPG91dGZpbGUubWFlPic=

> <r_lp_tautomer_probability>
1

> <r_epik_Ionization_Penalty>
0.0036983

> <r_epik_Ionization_Penalty_Charging>
0.0032725

> <r_epik_Ionization_Penalty_Neutral>
0.000425798

> <r_epik_State_Penalty>
-0

> <r_epik_Charging_Adjusted_Penalty>
0.0032725

> <i_epik_Tot_Q>
1

> <i_epik_Tot_abs_Q>
1

> <r_epik_Metal_State_Penalty>
-0

> <b_epik_Metal_Only>
0

> <s_lp_Force_Field>
OPLS_2005

> <r_lp_Energy>
65.7953

> <b_lp_Chiralities_Consistent>
1

> <s_lp_Variant>
AV-unprocessed.smi:290-23

> <Gold.Version>
5.8.1

> <Gold.Id.Protein>
6NUR|6NUR_protein|mol2

> <Gold.PLP.Fitness>
38.2477

> <Gold.PLP.PLP>
-31.1702

> <Gold.PLP.part.hbond>
-3.6674

> <Gold.PLP.part.metal>
0.0000

> <Gold.PLP.part.buried>
-7.7531

> <Gold.PLP.part.nonpolar>
-21.6223

> <Gold.PLP.part.repulsive>
0.5301

> <Gold.PLP.ligand.clash>
0.0000

> <Gold.PLP.ligand.torsion>
1.0981

> <Gold.PLP.Chemscore.Hbond>
3.0000

> <Gold.PLP.Chemscore.CHOScore>
0.0000

> <Gold.PLP.Chemscore.Metal>
0.0000

> <Gold.Chemscore.Hbonds>
donor molecule, donor type, donor heavy atom, donor atom, acceptor molecule, acceptor atom, score
      L1  H    22    54       P1 10747  1.00
      P1  H  7997  8008       L1     7  1.00
      P1  H 10752 10763       L1    27  1.00

> <Gold.PLP.Chemscore.Internal.Correction>
0.2736

> <Gold.Rescore>
     Score         DG    S(hbond)    S(metal)    S(lipo)     H(rot)  DE(clash)    DE(int)     intcor
     11.48     -12.86       2.75        0.00      64.70       3.67       0.00       1.38       ----

> <Gold.Chemscore.Fitness>
11.4764

> <Gold.Chemscore.DG>
-12.8562

> <Gold.Chemscore.ZeroCoef>
-5.4800

> <Gold.Chemscore.Hbond>
2.7517

> <Gold.Chemscore.Metal>
0.0000

> <Gold.Chemscore.Lipo>
64.7017

> <Gold.Chemscore.Internal_Hbond>
0.0000

> <Gold.Chemscore.DEClash>
0.0000

> <Gold.Chemscore.DEInternal>
1.3799

> <Gold.Chemscore.Rot>
3.6658

> <Gold.Chemscore.Internal.Correction>
   9.000000E+99

> <Gold.Chemscore.Hbonds>
donor molecule, donor type, donor heavy atom, donor atom, acceptor molecule, acceptor atom, score
      L1  H    22    54       P1 10747  1.00
      P1  H  7997  8008       L1     7  0.39
      P1  H 10752 10763       L1    27  0.53

> <Gold.Chemscore.Hbond.Weighted>
-9.1906

> <Gold.Chemscore.Metal.Weighted>
-0.0000

> <Gold.Chemscore.Lipo.Weighted>
-7.5701

> <Gold.Chemscore.Internal_Hbond.Weighted>
0.0000

> <Gold.Chemscore.DEClash.Weighted>
0.0000

> <Gold.Chemscore.DEInternal.Weighted>
1.3799

> <Gold.Chemscore.Rot.Weighted>
9.3844

> <Gold.Chemscore.Internal.Correction.Weighted>
   9.000000E+99

> <Gold.Protein.RotatedTorsions>
[ 6907 6896 6895 6894 ] final -112.81 input  -60.11 | X-H torsion
[ 7974 7965 7964 7962 ] final  146.97 input  175.53 | X-H torsion
[ 8008 7997 7996 7995 ] final  -56.98 input   59.86 | X-H torsion
[ 10167 10162 10161 10158 ] final  145.00 input  -65.29 | X-H torsion
[ 10718 10713 10712 10709 ] final  132.42 input   66.30 | X-H torsion
[ 10763 10752 10751 10750 ] final   94.69 input  -60.55 | X-H torsion
[ 11005 11000 10999 10996 ] final    8.67 input  -57.11 | X-H torsion

> <Gold.Protein.ActiveResidues>
 VAL166  LYS551  ARG553  GLY616  TRP617  ASP618  TYR619  PRO620  LYS621  CYS622 
 ASP623  PHE694  ASN695  SER759  ASP760  ASP761  ALA762  ILE779  LEU786  VAL792 
 PHE793  MET794  SER795  GLU796  ALA797  LYS798  CYS799  TRP800  GLU811  SER814 

> <Gold.Protein.RotatedAtoms>
  150.7785  133.9035  159.3348 H   0  0  0  0  0  0  0  0  0  0  0  0  # atno 6907 bound_to 6896
  151.6904  135.0945  160.0242 H   0  0  0  0  0  0  0  0  0  0  0  0  # atno 6908 bound_to 6896
  152.3828  133.6532  159.6211 H   0  0  0  0  0  0  0  0  0  0  0  0  # atno 6909 bound_to 6896
  144.8628  139.5971  143.5922 H   0  0  0  0  0  0  0  0  0  0  0  0  # atno 7974 bound_to 7965
  154.4250  140.1117  156.5724 H   0  0  0  0  0  0  0  0  0  0  0  0  # atno 8008 bound_to 7997
  155.6198  140.3495  155.4629 H   0  0  0  0  0  0  0  0  0  0  0  0  # atno 8009 bound_to 7997
  156.0033  140.1203  157.0516 H   0  0  0  0  0  0  0  0  0  0  0  0  # atno 8010 bound_to 7997
  139.4935  144.5933  151.6636 H   0  0  0  0  0  0  0  0  0  0  0  0  # atno 10167 bound_to 10162
  157.4873  131.1089  150.9603 H   0  0  0  0  0  0  0  0  0  0  0  0  # atno 10718 bound_to 10713
  153.2445  135.4280  155.0733 H   0  0  0  0  0  0  0  0  0  0  0  0  # atno 10763 bound_to 10752
  154.8355  135.3411  154.6601 H   0  0  0  0  0  0  0  0  0  0  0  0  # atno 10764 bound_to 10752
  153.7023  135.7027  153.5116 H   0  0  0  0  0  0  0  0  0  0  0  0  # atno 10765 bound_to 10752
  140.5343  134.0435  155.7883 H   0  0  0  0  0  0  0  0  0  0  0  0  # atno 11005 bound_to 11000
  146.2874  139.7041  142.9186 LP  0  0  0  0  0  0  0  0  0  0  0  0  # atno 17320 bound_to 7965
  145.4278  141.0412  143.2927 LP  0  0  0  0  0  0  0  0  0  0  0  0  # atno 17321 bound_to 7965
  140.5564  144.0340  150.6150 LP  0  0  0  0  0  0  0  0  0  0  0  0  # atno 17342 bound_to 10162
  140.3412  143.3019  152.0586 LP  0  0  0  0  0  0  0  0  0  0  0  0  # atno 17343 bound_to 10162
  157.0316  130.5713  149.5344 LP  0  0  0  0  0  0  0  0  0  0  0  0  # atno 17370 bound_to 10713
  156.0154  130.5248  150.8118 LP  0  0  0  0  0  0  0  0  0  0  0  0  # atno 17371 bound_to 10713
  141.1263  133.9377  157.2628 LP  0  0  0  0  0  0  0  0  0  0  0  0  # atno 17394 bound_to 11000
  139.9537  135.0170  156.9068 LP  0  0  0  0  0  0  0  0  0  0  0  0  # atno 17395 bound_to 11000

$$$$
