AV-unprocessed.smi:2751|AV-procd|sdf|10604|dock1
  -GOLD-   2272015 53D 1   1.00000     0.00000
 Structure written by MMmdl.
 33 34  0  0  0  0  0  0  0  0  2 V2000
  151.6633  138.7234  158.0557 O   0  0  0  0  0  0  0  0  0  0  0  0
  152.4055  139.6548  157.7349 C   0  0  0  0  0  0  0  0  0  0  0  0
  152.9851  140.4050  158.6836 N   0  0  0  0  0  0  0  0  0  0  0  0
  152.8289  140.2324  160.1241 C   0  0  0  0  0  0  0  0  0  0  0  0
  152.9375  141.5734  160.8704 C   0  0  0  0  0  0  0  0  0  0  0  0
  152.2820  142.7361  160.1087 C   0  0  1  0  0  0  0  0  0  0  0  0
  152.0574  143.9635  161.0135 C   0  0  0  0  0  0  0  0  0  0  0  0
  151.4711  145.1283  160.2076 C   0  0  0  0  0  0  0  0  0  0  0  0
  152.3505  145.4036  158.9833 C   0  0  0  0  0  0  0  0  0  0  0  0
  152.5708  144.1103  158.1825 C   0  0  0  0  0  0  0  0  0  0  0  0
  153.1318  143.1078  159.0245 O   0  0  0  0  0  0  0  0  0  0  0  0
  152.7230  140.0284  156.4745 N   0  5  0  0  0  0  0  0  0  0  0  0
  152.0529  139.5071  155.4341 C   0  0  0  0  0  0  0  0  0  0  0  0
  152.0968  138.2396  155.0200 N   0  0  0  0  0  0  0  0  0  0  0  0
  151.2461  138.1677  153.9278 C   0  0  0  0  0  0  0  0  0  0  0  0
  150.7097  139.4109  153.7313 C   0  0  0  0  0  0  0  0  0  0  0  0
  151.2085  140.2635  154.6770 O   0  0  0  0  0  0  0  0  0  0  0  0
  153.5842  141.1574  158.3771 H   0  0  0  0  0  0  0  0  0  0  0  0
  151.8515  139.7839  160.3028 H   0  0  0  0  0  0  0  0  0  0  0  0
  153.5679  139.5224  160.4992 H   0  0  0  0  0  0  0  0  0  0  0  0
  152.4610  141.4777  161.8470 H   0  0  0  0  0  0  0  0  0  0  0  0
  153.9860  141.8048  161.0628 H   0  0  0  0  0  0  0  0  0  0  0  0
  151.3217  142.3990  159.7139 H   0  0  0  0  0  0  0  0  0  0  0  0
  151.3910  143.7092  161.8383 H   0  0  0  0  0  0  0  0  0  0  0  0
  153.0045  144.2696  161.4600 H   0  0  0  0  0  0  0  0  0  0  0  0
  150.4594  144.8790  159.8850 H   0  0  0  0  0  0  0  0  0  0  0  0
  151.3924  146.0204  160.8293 H   0  0  0  0  0  0  0  0  0  0  0  0
  151.8926  146.1660  158.3526 H   0  0  0  0  0  0  0  0  0  0  0  0
  153.3140  145.8003  159.3058 H   0  0  0  0  0  0  0  0  0  0  0  0
  151.6341  143.7549  157.7506 H   0  0  0  0  0  0  0  0  0  0  0  0
  153.2533  144.2947  157.3529 H   0  0  0  0  0  0  0  0  0  0  0  0
  151.0901  137.2477  153.3844 H   0  0  0  0  0  0  0  0  0  0  0  0
  150.0121  139.8262  153.0197 H   0  0  0  0  0  0  0  0  0  0  0  0
  1  2  2  0  0  0  0
  2 12  1  0  0  0  0
  2  3  1  0  0  0  0
  3  4  1  0  0  0  0
  3 18  1  0  0  0  0
  4  5  1  0  0  0  0
  4 19  1  0  0  0  0
  4 20  1  0  0  0  0
  5  6  1  0  0  0  0
  5 21  1  0  0  0  0
  5 22  1  0  0  0  0
  6 11  1  0  0  0  0
  6  7  1  0  0  0  0
  6 23  1  0  0  0  0
  7  8  1  0  0  0  0
  7 24  1  0  0  0  0
  7 25  1  0  0  0  0
  8  9  1  0  0  0  0
  8 26  1  0  0  0  0
  8 27  1  0  0  0  0
  9 10  1  0  0  0  0
  9 28  1  0  0  0  0
  9 29  1  0  0  0  0
 10 11  1  0  0  0  0
 10 30  1  0  0  0  0
 10 31  1  0  0  0  0
 12 13  1  0  0  0  0
 13 17  1  0  0  0  0
 13 14  2  0  0  0  0
 14 15  1  0  0  0  0
 15 32  1  0  0  0  0
 15 16  2  0  0  0  0
 16 33  1  0  0  0  0
 16 17  1  0  0  0  0
M  CHG  1  12  -1
M  END
> <s_m_source_file>
AV-unprocessed.smi

> <i_m_source_file_index>
2751

> <i_lp_mmshare_version>
43012

> <i_f3d_flags>
0

> <s_epik_input>
bzFbY0hdW2NIXW5jMVtOSF1DKD1PKVtOSF1bQ0gyXVtDSDJdW0NAQEhdMltDSDJdW0NIMl1bQ0gyXVtDSDJdTzI=

> <s_epik_cmdline>
J2VwaWtfcHl0aG9uJywgJy1waCcsICc3LjAnLCAnLXRuJywgJzgnLCAnLW1hJywgJzIwMCcsICctbWV0YWxfYmluZGluZycsICctaW1hZScsICc8aW5maWxlLm1hZT4nLCAnLW9tYWUnLCAnPG91dGZpbGUubWFlPic=

> <r_lp_tautomer_probability>
0.107061

> <r_epik_Ionization_Penalty>
11.077

> <r_epik_Ionization_Penalty_Charging>
7.79122

> <r_epik_Ionization_Penalty_Neutral>
3.28583

> <r_epik_State_Penalty>
5.8984

> <r_epik_Charging_Adjusted_Penalty>
13.6896

> <i_epik_Tot_Q>
-1

> <i_epik_Tot_abs_Q>
1

> <r_epik_Metal_State_Penalty>
1.82322

> <b_epik_Metal_Only>
1

> <s_lp_Force_Field>
OPLS_2005

> <r_lp_Energy>
3.95886

> <b_lp_Chiralities_Consistent>
1

> <s_lp_Variant>
AV-unprocessed.smi:2751-10

> <Gold.Version>
5.8.1

> <Gold.Id.Protein>
6NUR|6NUR_protein|mol2

> <Gold.PLP.Fitness>
50.7457

> <Gold.PLP.PLP>
-39.3303

> <Gold.PLP.part.hbond>
-2.0000

> <Gold.PLP.part.metal>
0.0000

> <Gold.PLP.part.buried>
-5.3860

> <Gold.PLP.part.nonpolar>
-32.6548

> <Gold.PLP.part.repulsive>
0.1672

> <Gold.PLP.ligand.clash>
0.0000

> <Gold.PLP.ligand.torsion>
1.0912

> <Gold.PLP.Chemscore.Hbond>
2.5000

> <Gold.PLP.Chemscore.CHOScore>
1.9855

> <Gold.PLP.Chemscore.Metal>
0.0000

> <Gold.Chemscore.Hbonds>
donor molecule, donor type, donor heavy atom, donor atom, acceptor molecule, acceptor atom, score
      P1  H  7997  8009       L1    12  1.41
      L1  C    15    32       P1  7948  0.03
      L1  C    15    32       P1  7949  1.00
      L1  C    16    33       P1  7957  0.70

> <Gold.PLP.Chemscore.Internal.Correction>
0.1414

> <Gold.Rescore>
     Score         DG    S(hbond)    S(metal)    S(lipo)     H(rot)  DE(clash)    DE(int)     intcor
     13.01     -14.58       0.58        0.00      96.25       1.60       0.06       1.51       ----

> <Gold.Chemscore.Fitness>
13.0096

> <Gold.Chemscore.DG>
-14.5758

> <Gold.Chemscore.ZeroCoef>
-5.4800

> <Gold.Chemscore.Hbond>
0.5816

> <Gold.Chemscore.Metal>
0.0000

> <Gold.Chemscore.Lipo>
96.2503

> <Gold.Chemscore.Internal_Hbond>
0.0000

> <Gold.Chemscore.DEClash>
0.0559

> <Gold.Chemscore.DEInternal>
1.5103

> <Gold.Chemscore.Rot>
1.6048

> <Gold.Chemscore.Internal.Correction>
   9.000000E+99

> <Gold.Chemscore.Hbonds>
donor molecule, donor type, donor heavy atom, donor atom, acceptor molecule, acceptor atom, score
      P1  H  7997  8009       L1    12  0.10

> <Gold.Chemscore.Hbond.Weighted>
-1.9427

> <Gold.Chemscore.Metal.Weighted>
-0.0000

> <Gold.Chemscore.Lipo.Weighted>
-11.2613

> <Gold.Chemscore.Internal_Hbond.Weighted>
0.0000

> <Gold.Chemscore.DEClash.Weighted>
0.0559

> <Gold.Chemscore.DEInternal.Weighted>
1.5103

> <Gold.Chemscore.Rot.Weighted>
4.1082

> <Gold.Chemscore.Internal.Correction.Weighted>
   9.000000E+99

> <Gold.Protein.RotatedTorsions>
[ 6907 6896 6895 6894 ] final   34.22 input  -60.11 | X-H torsion
[ 7974 7965 7964 7962 ] final  164.79 input  175.53 | X-H torsion
[ 8008 7997 7996 7995 ] final  173.44 input   59.86 | X-H torsion
[ 10167 10162 10161 10158 ] final   -5.52 input  -65.29 | X-H torsion
[ 10718 10713 10712 10709 ] final   69.92 input   66.30 | X-H torsion
[ 10763 10752 10751 10750 ] final   42.58 input  -60.55 | X-H torsion
[ 11005 11000 10999 10996 ] final  -21.43 input  -57.11 | X-H torsion

> <Gold.Protein.ActiveResidues>
 VAL166  LYS551  ARG553  GLY616  TRP617  ASP618  TYR619  PRO620  LYS621  CYS622 
 ASP623  PHE694  ASN695  SER759  ASP760  ASP761  ALA762  ILE779  LEU786  VAL792 
 PHE793  MET794  SER795  GLU796  ALA797  LYS798  CYS799  TRP800  GLU811  SER814 

> <Gold.Protein.RotatedAtoms>
  152.0994  134.9352  160.0569 H   0  0  0  0  0  0  0  0  0  0  0  0  # atno 6907 bound_to 6896
  152.0572  133.4041  159.4410 H   0  0  0  0  0  0  0  0  0  0  0  0  # atno 6908 bound_to 6896
  150.6839  134.3161  159.4810 H   0  0  0  0  0  0  0  0  0  0  0  0  # atno 6909 bound_to 6896
  144.7530  139.8377  143.6360 H   0  0  0  0  0  0  0  0  0  0  0  0  # atno 7974 bound_to 7965
  156.1075  140.1460  156.9384 H   0  0  0  0  0  0  0  0  0  0  0  0  # atno 8008 bound_to 7997
  154.4744  140.0899  156.7269 H   0  0  0  0  0  0  0  0  0  0  0  0  # atno 8009 bound_to 7997
  155.4654  140.3440  155.4320 H   0  0  0  0  0  0  0  0  0  0  0  0  # atno 8010 bound_to 7997
  140.6966  143.6299  150.8532 H   0  0  0  0  0  0  0  0  0  0  0  0  # atno 10167 bound_to 10162
  157.6372  130.9451  150.0580 H   0  0  0  0  0  0  0  0  0  0  0  0  # atno 10718 bound_to 10713
  152.9880  135.6127  154.2973 H   0  0  0  0  0  0  0  0  0  0  0  0  # atno 10763 bound_to 10752
  154.2695  135.2780  155.2746 H   0  0  0  0  0  0  0  0  0  0  0  0  # atno 10764 bound_to 10752
  154.5135  135.5834  153.6680 H   0  0  0  0  0  0  0  0  0  0  0  0  # atno 10765 bound_to 10752
  140.8561  133.7822  156.0021 H   0  0  0  0  0  0  0  0  0  0  0  0  # atno 11005 bound_to 11000
  146.1504  139.4586  143.0052 LP  0  0  0  0  0  0  0  0  0  0  0  0  # atno 17320 bound_to 7965
  145.6878  141.0173  143.1571 LP  0  0  0  0  0  0  0  0  0  0  0  0  # atno 17321 bound_to 7965
  140.0018  143.5736  152.2873 LP  0  0  0  0  0  0  0  0  0  0  0  0  # atno 17342 bound_to 10162
  139.6428  144.7656  151.2304 LP  0  0  0  0  0  0  0  0  0  0  0  0  # atno 17343 bound_to 10162
  156.1621  130.3644  149.9284 LP  0  0  0  0  0  0  0  0  0  0  0  0  # atno 17370 bound_to 10713
  156.7279  130.9032  151.3623 LP  0  0  0  0  0  0  0  0  0  0  0  0  # atno 17371 bound_to 10713
  140.8736  134.2697  157.5179 LP  0  0  0  0  0  0  0  0  0  0  0  0  # atno 17394 bound_to 11000
  139.8705  134.9580  156.4285 LP  0  0  0  0  0  0  0  0  0  0  0  0  # atno 17395 bound_to 11000

$$$$
