AV-unprocessed.smi:1126|AV-procd|sdf|4837|dock1
  -GOLD-   22720 3403D 1   1.00000     0.00000
 Structure written by MMmdl.
 48 49  0  0  0  0  0  0  0  0  2 V2000
  144.0571  134.2388  151.6241 C   0  0  0  0  0  0  0  0  0  0  0  0
  145.3719  134.6466  151.2870 O   0  0  0  0  0  0  0  0  0  0  0  0
  145.8575  135.6731  152.1362 C   0  0  0  0  0  0  0  0  0  0  0  0
  144.9833  136.9245  151.9580 C   0  0  0  0  0  0  0  0  0  0  0  0
  145.5814  138.1348  152.5776 N   0  3  2  0  0  0  0  0  0  0  0  0
  146.6290  138.7436  151.7185 C   0  0  0  0  0  0  0  0  0  0  0  0
  147.1307  140.0731  152.3063 C   0  0  0  0  0  0  0  0  0  0  0  0
  147.6586  139.8906  153.7428 C   0  0  1  0  0  0  0  0  0  0  0  0
  148.1244  141.2149  154.3760 C   0  0  0  0  0  0  0  0  0  0  0  0
  148.6801  141.0049  155.7062 N   0  0  0  0  0  0  0  0  0  0  0  0
  149.9493  140.6483  155.9504 C   0  0  0  0  0  0  0  0  0  0  0  0
  150.7798  140.4488  155.0643 O   0  0  0  0  0  0  0  0  0  0  0  0
  150.3436  140.4936  157.4195 C   0  0  0  0  0  0  0  0  0  0  0  0
  151.2726  141.5339  157.8227 N   0  0  0  0  0  0  0  0  0  0  0  0
  151.2041  142.8879  157.5695 C   0  0  0  0  0  0  0  0  0  0  0  0
  152.2948  143.4706  158.1500 C   0  0  0  0  0  0  0  0  0  0  0  0
  152.6867  144.9202  158.1649 C   0  0  0  0  0  0  0  0  0  0  0  0
  152.9797  142.3726  158.7439 C   0  0  0  0  0  0  0  0  0  0  0  0
  152.3666  141.2163  158.5482 N   0  0  0  0  0  0  0  0  0  0  0  0
  146.5647  139.2233  154.5941 C   0  0  0  0  0  0  0  0  0  0  0  0
  146.0794  137.9092  153.9600 C   0  0  0  0  0  0  0  0  0  0  0  0
  143.7280  133.4587  150.9376 H   0  0  0  0  0  0  0  0  0  0  0  0
  143.3543  135.0696  151.5500 H   0  0  0  0  0  0  0  0  0  0  0  0
  144.0168  133.8346  152.6365 H   0  0  0  0  0  0  0  0  0  0  0  0
  145.8756  135.3396  153.1738 H   0  0  0  0  0  0  0  0  0  0  0  0
  146.8863  135.9126  151.8627 H   0  0  0  0  0  0  0  0  0  0  0  0
  144.7940  137.1101  150.8997 H   0  0  0  0  0  0  0  0  0  0  0  0
  144.0124  136.7219  152.4125 H   0  0  0  0  0  0  0  0  0  0  0  0
  147.4590  138.0445  151.6039 H   0  0  0  0  0  0  0  0  0  0  0  0
  146.2278  138.9257  150.7208 H   0  0  0  0  0  0  0  0  0  0  0  0
  147.9113  140.4773  151.6610 H   0  0  0  0  0  0  0  0  0  0  0  0
  146.3192  140.8025  152.3009 H   0  0  0  0  0  0  0  0  0  0  0  0
  148.5150  139.2148  153.7086 H   0  0  0  0  0  0  0  0  0  0  0  0
  148.8709  141.6931  153.7395 H   0  0  0  0  0  0  0  0  0  0  0  0
  147.2838  141.9061  154.4555 H   0  0  0  0  0  0  0  0  0  0  0  0
  148.0670  141.1559  156.4944 H   0  0  0  0  0  0  0  0  0  0  0  0
  149.4551  140.5285  158.0524 H   0  0  0  0  0  0  0  0  0  0  0  0
  150.8142  139.5227  157.5798 H   0  0  0  0  0  0  0  0  0  0  0  0
  150.3909  143.3193  157.0042 H   0  0  0  0  0  0  0  0  0  0  0  0
  153.7051  145.0615  158.5274 H   0  0  0  0  0  0  0  0  0  0  0  0
  152.0320  145.5063  158.8100 H   0  0  0  0  0  0  0  0  0  0  0  0
  152.6366  145.3610  157.1693 H   0  0  0  0  0  0  0  0  0  0  0  0
  153.8997  142.3822  159.3096 H   0  0  0  0  0  0  0  0  0  0  0  0
  146.9429  139.0252  155.5977 H   0  0  0  0  0  0  0  0  0  0  0  0
  145.7200  139.9038  154.7124 H   0  0  0  0  0  0  0  0  0  0  0  0
  145.2928  137.4902  154.5859 H   0  0  0  0  0  0  0  0  0  0  0  0
  146.8904  137.1791  153.9425 H   0  0  0  0  0  0  0  0  0  0  0  0
  144.8382  138.8164  152.6389 H   0  0  0  0  0  0  0  0  0  0  0  0
  1  2  1  0  0  0  0
  1 22  1  0  0  0  0
  1 23  1  0  0  0  0
  1 24  1  0  0  0  0
  2  3  1  0  0  0  0
  3  4  1  0  0  0  0
  3 25  1  0  0  0  0
  3 26  1  0  0  0  0
  4  5  1  0  0  0  0
  4 27  1  0  0  0  0
  4 28  1  0  0  0  0
  5 21  1  0  0  0  0
  5  6  1  0  0  0  0
  5 48  1  0  0  0  0
  6  7  1  0  0  0  0
  6 29  1  0  0  0  0
  6 30  1  0  0  0  0
  7  8  1  0  0  0  0
  7 31  1  0  0  0  0
  7 32  1  0  0  0  0
  8  9  1  0  0  0  0
  8 20  1  0  0  0  0
  8 33  1  0  0  0  0
  9 10  1  0  0  0  0
  9 34  1  0  0  0  0
  9 35  1  0  0  0  0
 10 11  1  0  0  0  0
 10 36  1  0  0  0  0
 11 12  2  0  0  0  0
 11 13  1  0  0  0  0
 13 14  1  0  0  0  0
 13 37  1  0  0  0  0
 13 38  1  0  0  0  0
 14 19  1  0  0  0  0
 14 15  1  0  0  0  0
 15 16  2  0  0  0  0
 15 39  1  0  0  0  0
 16 17  1  0  0  0  0
 16 18  1  0  0  0  0
 17 40  1  0  0  0  0
 17 41  1  0  0  0  0
 17 42  1  0  0  0  0
 18 19  2  0  0  0  0
 18 43  1  0  0  0  0
 20 21  1  0  0  0  0
 20 44  1  0  0  0  0
 20 45  1  0  0  0  0
 21 46  1  0  0  0  0
 21 47  1  0  0  0  0
M  CHG  1   5   1
M  END
> <s_m_source_file>
AV-unprocessed.smi

> <i_m_source_file_index>
1126

> <i_lp_mmshare_version>
43012

> <i_f3d_flags>
0

> <s_epik_input>
W0NIM11PW0NIMl1bQ0gyXU4xW0NIMl1bQ0gyXVtDSF0oW0NIMl1bQ0gyXTEpW0NIMl1bTkhdQyg9TylbQ0gyXW4yW2NIXWMoW0NIM10pW2NIXW4y

> <s_epik_cmdline>
J2VwaWtfcHl0aG9uJywgJy1waCcsICc3LjAnLCAnLXRuJywgJzgnLCAnLW1hJywgJzIwMCcsICctbWV0YWxfYmluZGluZycsICctaW1hZScsICc8aW5maWxlLm1hZT4nLCAnLW9tYWUnLCAnPG91dGZpbGUubWFlPic=

> <r_lp_tautomer_probability>
1

> <r_epik_Ionization_Penalty>
0.00992859

> <r_epik_Ionization_Penalty_Charging>
0.00990284

> <r_epik_Ionization_Penalty_Neutral>
2.57527e-05

> <r_epik_State_Penalty>
0.00754525

> <r_epik_Charging_Adjusted_Penalty>
0.0174481

> <i_epik_Tot_Q>
1

> <i_epik_Tot_abs_Q>
1

> <r_epik_Metal_State_Penalty>
0.00754529

> <b_epik_Metal_Only>
0

> <s_lp_Force_Field>
OPLS_2005

> <r_lp_Energy>
19.6202

> <b_lp_Chiralities_Consistent>
1

> <s_lp_Variant>
AV-unprocessed.smi:1126-1

> <Gold.Version>
5.8.1

> <Gold.Id.Protein>
6NUR|6NUR_protein|mol2

> <Gold.PLP.Fitness>
47.0152

> <Gold.PLP.PLP>
-36.1786

> <Gold.PLP.part.hbond>
-2.1298

> <Gold.PLP.part.metal>
0.0000

> <Gold.PLP.part.buried>
-0.1667

> <Gold.PLP.part.nonpolar>
-33.9634

> <Gold.PLP.part.repulsive>
0.2702

> <Gold.PLP.ligand.clash>
0.0000

> <Gold.PLP.ligand.torsion>
0.5998

> <Gold.PLP.Chemscore.Hbond>
3.0000

> <Gold.PLP.Chemscore.CHOScore>
1.0000

> <Gold.PLP.Chemscore.Metal>
0.0000

> <Gold.Chemscore.Hbonds>
donor molecule, donor type, donor heavy atom, donor atom, acceptor molecule, acceptor atom, score
      L1  H     5    48       P1 10175  2.00
      P1  H  7989  7998       L1    12  1.00
      L1  C    15    39       P1  8028  1.00

> <Gold.PLP.Chemscore.Internal.Correction>
0.0362

> <Gold.Rescore>
     Score         DG    S(hbond)    S(metal)    S(lipo)     H(rot)  DE(clash)    DE(int)     intcor
     16.18     -19.40       1.97        0.00     108.67       2.10       2.75       0.47       ----

> <Gold.Chemscore.Fitness>
16.1814

> <Gold.Chemscore.DG>
-19.4034

> <Gold.Chemscore.ZeroCoef>
-5.4800

> <Gold.Chemscore.Hbond>
1.9720

> <Gold.Chemscore.Metal>
0.0000

> <Gold.Chemscore.Lipo>
108.6717

> <Gold.Chemscore.Internal_Hbond>
0.0000

> <Gold.Chemscore.DEClash>
2.7522

> <Gold.Chemscore.DEInternal>
0.4698

> <Gold.Chemscore.Rot>
2.1006

> <Gold.Chemscore.Internal.Correction>
   9.000000E+99

> <Gold.Chemscore.Hbonds>
donor molecule, donor type, donor heavy atom, donor atom, acceptor molecule, acceptor atom, score
      L1  H     5    48       P1 10175  0.94
      P1  H  7989  7998       L1    12  0.96

> <Gold.Chemscore.Hbond.Weighted>
-6.5864

> <Gold.Chemscore.Metal.Weighted>
-0.0000

> <Gold.Chemscore.Lipo.Weighted>
-12.7146

> <Gold.Chemscore.Internal_Hbond.Weighted>
0.0000

> <Gold.Chemscore.DEClash.Weighted>
2.7522

> <Gold.Chemscore.DEInternal.Weighted>
0.4698

> <Gold.Chemscore.Rot.Weighted>
5.3775

> <Gold.Chemscore.Internal.Correction.Weighted>
   9.000000E+99

> <Gold.Protein.RotatedTorsions>
[ 6907 6896 6895 6894 ] final  147.84 input  -60.11 | X-H torsion
[ 7974 7965 7964 7962 ] final   29.81 input  175.53 | X-H torsion
[ 8008 7997 7996 7995 ] final  -28.07 input   59.86 | X-H torsion
[ 10167 10162 10161 10158 ] final -155.27 input  -65.29 | X-H torsion
[ 10718 10713 10712 10709 ] final -102.74 input   66.30 | X-H torsion
[ 10763 10752 10751 10750 ] final -144.30 input  -60.55 | X-H torsion
[ 11005 11000 10999 10996 ] final  -52.36 input  -57.11 | X-H torsion

> <Gold.Protein.ActiveResidues>
 VAL166  LYS551  ARG553  GLY616  TRP617  ASP618  TYR619  PRO620  LYS621  CYS622 
 ASP623  PHE694  ASN695  SER759  ASP760  ASP761  ALA762  ILE779  LEU786  VAL792 
 PHE793  MET794  SER795  GLU796  ALA797  LYS798  CYS799  TRP800  GLU811  SER814 

> <Gold.Protein.RotatedAtoms>
  152.1494  133.4512  159.4805 H   0  0  0  0  0  0  0  0  0  0  0  0  # atno 6907 bound_to 6896
  150.6894  134.2207  159.4405 H   0  0  0  0  0  0  0  0  0  0  0  0  # atno 6908 bound_to 6896
  152.0103  134.9879  160.0618 H   0  0  0  0  0  0  0  0  0  0  0  0  # atno 6909 bound_to 6896
  146.1649  139.6871  142.9008 H   0  0  0  0  0  0  0  0  0  0  0  0  # atno 7974 bound_to 7965
  154.4348  140.1855  156.1032 H   0  0  0  0  0  0  0  0  0  0  0  0  # atno 8008 bound_to 7997
  156.0276  140.3334  155.7079 H   0  0  0  0  0  0  0  0  0  0  0  0  # atno 8009 bound_to 7997
  155.5886  140.0628  157.2755 H   0  0  0  0  0  0  0  0  0  0  0  0  # atno 8010 bound_to 7997
  139.6945  143.9366  152.2400 H   0  0  0  0  0  0  0  0  0  0  0  0  # atno 10167 bound_to 10162
  156.0239  130.5434  150.7151 H   0  0  0  0  0  0  0  0  0  0  0  0  # atno 10718 bound_to 10713
  154.8434  135.3444  154.6324 H   0  0  0  0  0  0  0  0  0  0  0  0  # atno 10763 bound_to 10752
  153.6934  135.6973  153.5088 H   0  0  0  0  0  0  0  0  0  0  0  0  # atno 10764 bound_to 10752
  153.2577  135.4333  155.0818 H   0  0  0  0  0  0  0  0  0  0  0  0  # atno 10765 bound_to 10752
  141.0920  133.6631  156.4013 H   0  0  0  0  0  0  0  0  0  0  0  0  # atno 11005 bound_to 11000
  145.4493  141.0427  143.2813 LP  0  0  0  0  0  0  0  0  0  0  0  0  # atno 17320 bound_to 7965
  144.8078  139.6018  143.7043 LP  0  0  0  0  0  0  0  0  0  0  0  0  # atno 17321 bound_to 7965
  139.9191  144.6811  150.8481 LP  0  0  0  0  0  0  0  0  0  0  0  0  # atno 17342 bound_to 10162
  140.7692  143.3388  151.2252 LP  0  0  0  0  0  0  0  0  0  0  0  0  # atno 17343 bound_to 10162
  157.4780  131.0899  151.0568 LP  0  0  0  0  0  0  0  0  0  0  0  0  # atno 17370 bound_to 10713
  157.1009  130.5981  149.5460 LP  0  0  0  0  0  0  0  0  0  0  0  0  # atno 17371 bound_to 10713
  140.5229  134.6287  157.5324 LP  0  0  0  0  0  0  0  0  0  0  0  0  # atno 17394 bound_to 11000
  139.9748  134.7233  155.9971 LP  0  0  0  0  0  0  0  0  0  0  0  0  # atno 17395 bound_to 11000

$$$$
