AV-unprocessed.smi:903|AV-procd|sdf|4096|dock8
  -GOLD-   22720 1583D 1   1.00000     0.00000
 Structure written by MMmdl.
 28 29  0  0  0  0  0  0  0  0  2 V2000
  153.6325  138.3366  154.8154 O   0  0  0  0  0  0  0  0  0  0  0  0
  152.4863  138.1220  155.2655 C   0  0  0  0  0  0  0  0  0  0  0  0
  151.8176  137.1349  154.8810 O   0  5  0  0  0  0  0  0  0  0  0  0
  151.8735  139.0524  156.2912 C   0  0  0  0  0  0  0  0  0  0  0  0
  152.7499  139.5804  157.1825 N   0  0  0  0  0  0  0  0  0  0  0  0
  152.3125  140.4262  158.1441 C   0  0  0  0  0  0  0  0  0  0  0  0
  153.2239  140.9507  159.0373 O   0  0  0  0  0  0  0  0  0  0  0  0
  152.7343  141.7250  160.1284 C   0  0  0  0  0  0  0  0  0  0  0  0
  152.9024  143.2119  159.7940 C   0  0  1  0  0  0  0  0  0  0  0  0
  152.1343  143.6488  158.5489 C   0  0  0  0  0  0  0  0  0  0  0  0
  151.9942  145.1352  158.7853 C   0  0  0  0  0  0  0  0  0  0  0  0
  151.7668  145.1973  160.2937 C   0  0  0  0  0  0  0  0  0  0  0  0
  152.3685  144.0238  160.8365 O   0  0  0  0  0  0  0  0  0  0  0  0
  150.9609  140.7904  158.2666 C   0  0  0  0  0  0  0  0  0  0  0  0
  150.0388  140.2539  157.3523 C   0  0  0  0  0  0  0  0  0  0  0  0
  150.4834  139.3728  156.3460 C   0  0  0  0  0  0  0  0  0  0  0  0
  149.2873  138.7529  155.2571 Cl  0  0  0  0  0  0  0  0  0  0  0  0
  151.6758  141.5060  160.2791 H   0  0  0  0  0  0  0  0  0  0  0  0
  153.2625  141.4850  161.0528 H   0  0  0  0  0  0  0  0  0  0  0  0
  153.9581  143.4573  159.6660 H   0  0  0  0  0  0  0  0  0  0  0  0
  152.6551  143.4096  157.6216 H   0  0  0  0  0  0  0  0  0  0  0  0
  151.1492  143.1804  158.5199 H   0  0  0  0  0  0  0  0  0  0  0  0
  152.9240  145.6429  158.5247 H   0  0  0  0  0  0  0  0  0  0  0  0
  151.1850  145.5882  158.2121 H   0  0  0  0  0  0  0  0  0  0  0  0
  152.1899  146.0995  160.7357 H   0  0  0  0  0  0  0  0  0  0  0  0
  150.7010  145.1761  160.5229 H   0  0  0  0  0  0  0  0  0  0  0  0
  150.6383  141.4673  159.0437 H   0  0  0  0  0  0  0  0  0  0  0  0
  148.9939  140.5183  157.4225 H   0  0  0  0  0  0  0  0  0  0  0  0
  1  2  2  0  0  0  0
  2  3  1  0  0  0  0
  2  4  1  0  0  0  0
  4 16  1  0  0  0  0
  4  5  2  0  0  0  0
  5  6  1  0  0  0  0
  6  7  1  0  0  0  0
  6 14  2  0  0  0  0
  7  8  1  0  0  0  0
  8  9  1  0  0  0  0
  8 18  1  0  0  0  0
  8 19  1  0  0  0  0
  9 13  1  0  0  0  0
  9 10  1  0  0  0  0
  9 20  1  0  0  0  0
 10 11  1  0  0  0  0
 10 21  1  0  0  0  0
 10 22  1  0  0  0  0
 11 12  1  0  0  0  0
 11 23  1  0  0  0  0
 11 24  1  0  0  0  0
 12 13  1  0  0  0  0
 12 25  1  0  0  0  0
 12 26  1  0  0  0  0
 14 15  1  0  0  0  0
 14 27  1  0  0  0  0
 15 16  2  0  0  0  0
 15 28  1  0  0  0  0
 16 17  1  0  0  0  0
M  CHG  1   3  -1
M  END
> <s_m_source_file>
AV-unprocessed.smi

> <i_m_source_file_index>
903

> <i_lp_mmshare_version>
43012

> <i_f3d_flags>
0

> <s_epik_input>
Tz1DKFtPSF0pYzFuYyhbY0hdW2NIXWMxQ2wpT1tDSDJdW0NAQEhdMltDSDJdW0NIMl1bQ0gyXU8y

> <s_epik_cmdline>
J2VwaWtfcHl0aG9uJywgJy1waCcsICc3LjAnLCAnLXRuJywgJzgnLCAnLW1hJywgJzIwMCcsICctbWV0YWxfYmluZGluZycsICctaW1hZScsICc8aW5maWxlLm1hZT4nLCAnLW9tYWUnLCAnPG91dGZpbGUubWFlPic=

> <r_lp_tautomer_probability>
1

> <r_epik_Ionization_Penalty>
1.22588e-05

> <r_epik_Ionization_Penalty_Charging>
1.01343e-05

> <r_epik_Ionization_Penalty_Neutral>
2.12445e-06

> <r_epik_State_Penalty>
-0

> <r_epik_Charging_Adjusted_Penalty>
1.01343e-05

> <i_epik_Tot_Q>
-1

> <i_epik_Tot_abs_Q>
1

> <r_epik_Metal_State_Penalty>
-0

> <b_epik_Metal_Only>
0

> <s_lp_Force_Field>
OPLS_2005

> <r_lp_Energy>
26.0246

> <b_lp_Chiralities_Consistent>
1

> <s_lp_Variant>
AV-unprocessed.smi:903-2

> <Gold.Version>
5.8.1

> <Gold.Id.Protein>
6NUR|6NUR_protein|mol2

> <Gold.PLP.Fitness>
49.3120

> <Gold.PLP.PLP>
-40.9998

> <Gold.PLP.part.hbond>
-3.1018

> <Gold.PLP.part.metal>
0.0000

> <Gold.PLP.part.buried>
-5.4121

> <Gold.PLP.part.nonpolar>
-33.4817

> <Gold.PLP.part.repulsive>
0.2452

> <Gold.PLP.ligand.clash>
0.5160

> <Gold.PLP.ligand.torsion>
0.8224

> <Gold.PLP.Chemscore.Hbond>
3.4880

> <Gold.PLP.Chemscore.CHOScore>
0.0000

> <Gold.PLP.Chemscore.Metal>
0.0000

> <Gold.Chemscore.Hbonds>
donor molecule, donor type, donor heavy atom, donor atom, acceptor molecule, acceptor atom, score
      P1  H  7997  8009       L1     5  0.51
      P1  H  7997  8010       L1     1  0.14
      P1  H 10752 10763       L1     3  1.70

> <Gold.PLP.Chemscore.Internal.Correction>
0.0089

> <Gold.Rescore>
     Score         DG    S(hbond)    S(metal)    S(lipo)     H(rot)  DE(clash)    DE(int)     intcor
     16.83     -17.91       1.71        0.00      90.44       1.51       0.03       1.05       ----

> <Gold.Chemscore.Fitness>
16.8314

> <Gold.Chemscore.DG>
-17.9068

> <Gold.Chemscore.ZeroCoef>
-5.4800

> <Gold.Chemscore.Hbond>
1.7094

> <Gold.Chemscore.Metal>
0.0000

> <Gold.Chemscore.Lipo>
90.4392

> <Gold.Chemscore.Internal_Hbond>
0.0000

> <Gold.Chemscore.DEClash>
0.0284

> <Gold.Chemscore.DEInternal>
1.0469

> <Gold.Chemscore.Rot>
1.5094

> <Gold.Chemscore.Internal.Correction>
   9.000000E+99

> <Gold.Chemscore.Hbonds>
donor molecule, donor type, donor heavy atom, donor atom, acceptor molecule, acceptor atom, score
      P1  H  7997  8009       L1     5  0.15
      P1  H  7997  8010       L1     1  0.08
      P1  H 10752 10763       L1     3  0.68

> <Gold.Chemscore.Hbond.Weighted>
-5.7095

> <Gold.Chemscore.Metal.Weighted>
-0.0000

> <Gold.Chemscore.Lipo.Weighted>
-10.5814

> <Gold.Chemscore.Internal_Hbond.Weighted>
0.0000

> <Gold.Chemscore.DEClash.Weighted>
0.0284

> <Gold.Chemscore.DEInternal.Weighted>
1.0469

> <Gold.Chemscore.Rot.Weighted>
3.8641

> <Gold.Chemscore.Internal.Correction.Weighted>
   9.000000E+99

> <Gold.Protein.RotatedTorsions>
[ 6907 6896 6895 6894 ] final -179.08 input  -60.11 | X-H torsion
[ 7974 7965 7964 7962 ] final   77.35 input  175.53 | X-H torsion
[ 8008 7997 7996 7995 ] final  140.10 input   59.86 | X-H torsion
[ 10167 10162 10161 10158 ] final   39.46 input  -65.29 | X-H torsion
[ 10718 10713 10712 10709 ] final   34.01 input   66.30 | X-H torsion
[ 10763 10752 10751 10750 ] final   35.43 input  -60.55 | X-H torsion
[ 11005 11000 10999 10996 ] final  -77.71 input  -57.11 | X-H torsion

> <Gold.Protein.ActiveResidues>
 VAL166  LYS551  ARG553  GLY616  TRP617  ASP618  TYR619  PRO620  LYS621  CYS622 
 ASP623  PHE694  ASN695  SER759  ASP760  ASP761  ALA762  ILE779  LEU786  VAL792 
 PHE793  MET794  SER795  GLU796  ALA797  LYS798  CYS799  TRP800  GLU811  SER814 

> <Gold.Protein.RotatedAtoms>
  151.6476  133.3322  159.3144 H   0  0  0  0  0  0  0  0  0  0  0  0  # atno 6907 bound_to 6896
  150.7976  134.7051  159.6581 H   0  0  0  0  0  0  0  0  0  0  0  0  # atno 6908 bound_to 6896
  152.4065  134.6202  160.0100 H   0  0  0  0  0  0  0  0  0  0  0  0  # atno 6909 bound_to 6896
  145.6911  139.2553  143.1759 H   0  0  0  0  0  0  0  0  0  0  0  0  # atno 7974 bound_to 7965
  156.2983  140.2350  156.4346 H   0  0  0  0  0  0  0  0  0  0  0  0  # atno 8008 bound_to 7997
  154.8240  140.0436  157.1451 H   0  0  0  0  0  0  0  0  0  0  0  0  # atno 8009 bound_to 7997
  154.9283  140.3013  155.5184 H   0  0  0  0  0  0  0  0  0  0  0  0  # atno 8010 bound_to 7997
  140.3837  144.1945  150.6130 H   0  0  0  0  0  0  0  0  0  0  0  0  # atno 10167 bound_to 10162
  157.3050  130.7370  149.6690 H   0  0  0  0  0  0  0  0  0  0  0  0  # atno 10718 bound_to 10713
  153.0119  135.6333  154.1826 H   0  0  0  0  0  0  0  0  0  0  0  0  # atno 10763 bound_to 10752
  154.1568  135.2826  155.3122 H   0  0  0  0  0  0  0  0  0  0  0  0  # atno 10764 bound_to 10752
  154.6012  135.5586  153.7437 H   0  0  0  0  0  0  0  0  0  0  0  0  # atno 10765 bound_to 10752
  141.1661  133.7033  156.7862 H   0  0  0  0  0  0  0  0  0  0  0  0  # atno 11005 bound_to 11000
  146.0881  140.7688  142.9609 LP  0  0  0  0  0  0  0  0  0  0  0  0  # atno 17320 bound_to 7965
  144.6996  140.3594  143.7167 LP  0  0  0  0  0  0  0  0  0  0  0  0  # atno 17321 bound_to 7965
  140.4911  143.2347  151.8817 LP  0  0  0  0  0  0  0  0  0  0  0  0  # atno 17342 bound_to 10162
  139.4793  144.5165  151.8861 LP  0  0  0  0  0  0  0  0  0  0  0  0  # atno 17343 bound_to 10162
  155.9674  130.4268  150.4717 LP  0  0  0  0  0  0  0  0  0  0  0  0  # atno 17370 bound_to 10713
  157.2705  131.0586  151.2263 LP  0  0  0  0  0  0  0  0  0  0  0  0  # atno 17371 bound_to 10713
  140.2359  134.8651  157.3524 LP  0  0  0  0  0  0  0  0  0  0  0  0  # atno 17394 bound_to 11000
  140.1845  134.4449  155.7752 LP  0  0  0  0  0  0  0  0  0  0  0  0  # atno 17395 bound_to 11000

$$$$
