AV-unprocessed.smi:2050|AV-procd|sdf|8325|dock10
  -GOLD-   2272010593D 1   1.00000     0.00000
 Structure written by MMmdl.
 33 34  0  0  0  0  0  0  0  0  1 V2000
  144.4463  132.1083  149.9442 C   0  0  0  0  0  0  0  0  0  0  0  0
  144.7059  133.3817  150.6736 C   0  0  0  0  0  0  0  0  0  0  0  0
  145.8104  134.1778  150.7926 C   0  0  0  0  0  0  0  0  0  0  0  0
  145.3581  135.2282  151.6350 C   0  0  0  0  0  0  0  0  0  0  0  0
  146.2263  136.2852  152.0096 N   0  0  0  0  0  0  0  0  0  0  0  0
  145.8973  137.4427  152.6083 C   0  0  0  0  0  0  0  0  0  0  0  0
  144.7566  137.7748  152.9316 O   0  0  0  0  0  0  0  0  0  0  0  0
  146.9801  138.2056  152.8181 N   0  0  0  0  0  0  0  0  0  0  0  0
  146.9810  139.5250  153.4435 C   0  0  0  0  0  0  0  0  0  0  0  0
  148.4033  139.9839  153.8174 C   0  0  1  0  0  0  0  0  0  0  0  0
  148.3971  141.2591  154.6828 C   0  0  0  0  0  0  0  0  0  0  0  0
  149.8140  141.4966  155.2142 C   0  0  0  0  0  0  0  0  0  0  0  0
  150.5198  139.8300  155.4920 S   0  0  0  0  0  0  0  0  0  0  0  0
  151.8017  139.7288  154.7781 O   0  0  0  0  0  0  0  0  0  0  0  0
  150.4177  139.4851  156.9179 O   0  0  0  0  0  0  0  0  0  0  0  0
  149.2263  138.9202  154.5651 C   0  0  0  0  0  0  0  0  0  0  0  0
  144.0923  135.0868  151.9969 N   0  0  0  0  0  0  0  0  0  0  0  0
  143.6679  133.9025  151.3827 O   0  0  0  0  0  0  0  0  0  0  0  0
  145.3469  131.7567  149.4404 H   0  0  0  0  0  0  0  0  0  0  0  0
  143.6694  132.2451  149.1919 H   0  0  0  0  0  0  0  0  0  0  0  0
  144.1178  131.3292  150.6323 H   0  0  0  0  0  0  0  0  0  0  0  0
  146.7830  134.0288  150.3476 H   0  0  0  0  0  0  0  0  0  0  0  0
  147.2033  136.1438  151.7999 H   0  0  0  0  0  0  0  0  0  0  0  0
  147.8758  137.8473  152.5208 H   0  0  0  0  0  0  0  0  0  0  0  0
  146.5488  140.2254  152.7283 H   0  0  0  0  0  0  0  0  0  0  0  0
  146.3288  139.5453  154.3185 H   0  0  0  0  0  0  0  0  0  0  0  0
  148.9392  140.2255  152.8980 H   0  0  0  0  0  0  0  0  0  0  0  0
  148.0317  142.1233  154.1274 H   0  0  0  0  0  0  0  0  0  0  0  0
  147.7234  141.1157  155.5288 H   0  0  0  0  0  0  0  0  0  0  0  0
  150.4268  142.0030  154.4681 H   0  0  0  0  0  0  0  0  0  0  0  0
  149.8346  142.0762  156.1369 H   0  0  0  0  0  0  0  0  0  0  0  0
  148.6114  138.3880  155.2917 H   0  0  0  0  0  0  0  0  0  0  0  0
  149.6853  138.1890  153.8995 H   0  0  0  0  0  0  0  0  0  0  0  0
  1  2  1  0  0  0  0
  1 19  1  0  0  0  0
  1 20  1  0  0  0  0
  1 21  1  0  0  0  0
  2 18  1  0  0  0  0
  2  3  2  0  0  0  0
  3  4  1  0  0  0  0
  3 22  1  0  0  0  0
  4  5  1  0  0  0  0
  4 17  2  0  0  0  0
  5  6  1  0  0  0  0
  5 23  1  0  0  0  0
  6  7  2  0  0  0  0
  6  8  1  0  0  0  0
  8  9  1  0  0  0  0
  8 24  1  0  0  0  0
  9 10  1  0  0  0  0
  9 25  1  0  0  0  0
  9 26  1  0  0  0  0
 10 16  1  0  0  0  0
 10 11  1  0  0  0  0
 10 27  1  0  0  0  0
 11 12  1  0  0  0  0
 11 28  1  0  0  0  0
 11 29  1  0  0  0  0
 12 13  1  0  0  0  0
 12 30  1  0  0  0  0
 12 31  1  0  0  0  0
 13 14  2  0  0  0  0
 13 15  2  0  0  0  0
 13 16  1  0  0  0  0
 16 32  1  0  0  0  0
 16 33  1  0  0  0  0
 17 18  1  0  0  0  0
M  END
> <s_m_source_file>
AV-unprocessed.smi

> <i_m_source_file_index>
2050

> <i_lp_mmshare_version>
43012

> <i_f3d_flags>
0

> <s_epik_input>
W0NIM11jMVtjSF1jKG5vMSlbTkhdQyg9TylbTkhdW0NIMl1bQ0BASF0oW0NIMl0yKVtDSDJdW0NIMl1TMig9Tyk9Tw==

> <s_epik_cmdline>
J2VwaWtfcHl0aG9uJywgJy1waCcsICc3LjAnLCAnLXRuJywgJzgnLCAnLW1hJywgJzIwMCcsICctbWV0YWxfYmluZGluZycsICctaW1hZScsICc8aW5maWxlLm1hZT4nLCAnLW9tYWUnLCAnPG91dGZpbGUubWFlPic=

> <r_lp_tautomer_probability>
1

> <r_epik_Ionization_Penalty>
2.22143e-05

> <r_epik_Ionization_Penalty_Charging>
0

> <r_epik_Ionization_Penalty_Neutral>
2.22143e-05

> <r_epik_State_Penalty>
-0

> <r_epik_Charging_Adjusted_Penalty>
0

> <i_epik_Tot_Q>
0

> <i_epik_Tot_abs_Q>
0

> <r_epik_Metal_State_Penalty>
-0

> <b_epik_Metal_Only>
0

> <s_lp_Force_Field>
OPLS_2005

> <r_lp_Energy>
0.896814

> <b_lp_Chiralities_Consistent>
1

> <s_lp_Variant>
AV-unprocessed.smi:2050-2

> <Gold.Version>
5.8.1

> <Gold.Id.Protein>
6NUR|6NUR_protein|mol2

> <Gold.PLP.Fitness>
37.0261

> <Gold.PLP.PLP>
-28.4691

> <Gold.PLP.part.hbond>
-3.0000

> <Gold.PLP.part.metal>
0.0000

> <Gold.PLP.part.buried>
-3.9623

> <Gold.PLP.part.nonpolar>
-23.5341

> <Gold.PLP.part.repulsive>
1.5594

> <Gold.PLP.ligand.clash>
0.0000

> <Gold.PLP.ligand.torsion>
0.1627

> <Gold.PLP.Chemscore.Hbond>
2.9600

> <Gold.PLP.Chemscore.CHOScore>
0.0000

> <Gold.PLP.Chemscore.Metal>
0.0000

> <Gold.Chemscore.Hbonds>
donor molecule, donor type, donor heavy atom, donor atom, acceptor molecule, acceptor atom, score
      L1  H     5    23       P1  7948  1.00
      L1  H     8    24       P1  7948  0.95
      P1  H  7989  7998       L1    14  1.00

> <Gold.PLP.Chemscore.Internal.Correction>
0.0023

> <Gold.Rescore>
     Score         DG    S(hbond)    S(metal)    S(lipo)     H(rot)  DE(clash)    DE(int)     intcor
     16.68     -18.24       2.87        0.00      56.80       1.36       0.18       1.38       ----

> <Gold.Chemscore.Fitness>
16.6778

> <Gold.Chemscore.DG>
-18.2398

> <Gold.Chemscore.ZeroCoef>
-5.4800

> <Gold.Chemscore.Hbond>
2.8706

> <Gold.Chemscore.Metal>
0.0000

> <Gold.Chemscore.Lipo>
56.7955

> <Gold.Chemscore.Internal_Hbond>
0.0000

> <Gold.Chemscore.DEClash>
0.1796

> <Gold.Chemscore.DEInternal>
1.3823

> <Gold.Chemscore.Rot>
1.3567

> <Gold.Chemscore.Internal.Correction>
   9.000000E+99

> <Gold.Chemscore.Hbonds>
donor molecule, donor type, donor heavy atom, donor atom, acceptor molecule, acceptor atom, score
      L1  H     5    23       P1  7948  1.00
      L1  H     8    24       P1  7948  0.85
      P1  H  7989  7998       L1    14  0.43

> <Gold.Chemscore.Hbond.Weighted>
-9.5880

> <Gold.Chemscore.Metal.Weighted>
-0.0000

> <Gold.Chemscore.Lipo.Weighted>
-6.6451

> <Gold.Chemscore.Internal_Hbond.Weighted>
0.0000

> <Gold.Chemscore.DEClash.Weighted>
0.1796

> <Gold.Chemscore.DEInternal.Weighted>
1.3823

> <Gold.Chemscore.Rot.Weighted>
3.4732

> <Gold.Chemscore.Internal.Correction.Weighted>
   9.000000E+99

> <Gold.Protein.RotatedTorsions>
[ 6907 6896 6895 6894 ] final  -59.45 input  -60.11 | X-H torsion
[ 7974 7965 7964 7962 ] final   55.31 input  175.53 | X-H torsion
[ 8008 7997 7996 7995 ] final -130.99 input   59.86 | X-H torsion
[ 10167 10162 10161 10158 ] final   57.16 input  -65.29 | X-H torsion
[ 10718 10713 10712 10709 ] final  -55.33 input   66.30 | X-H torsion
[ 10763 10752 10751 10750 ] final   15.38 input  -60.55 | X-H torsion
[ 11005 11000 10999 10996 ] final -167.61 input  -57.11 | X-H torsion

> <Gold.Protein.ActiveResidues>
 VAL166  LYS551  ARG553  GLY616  TRP617  ASP618  TYR619  PRO620  LYS621  CYS622 
 ASP623  PHE694  ASN695  SER759  ASP760  ASP761  ALA762  ILE779  LEU786  VAL792 
 PHE793  MET794  SER795  GLU796  ALA797  LYS798  CYS799  TRP800  GLU811  SER814 

> <Gold.Protein.RotatedAtoms>
  150.7929  134.6966  159.6526 H   0  0  0  0  0  0  0  0  0  0  0  0  # atno 6907 bound_to 6896
  152.4037  134.6239  160.0068 H   0  0  0  0  0  0  0  0  0  0  0  0  # atno 6908 bound_to 6896
  151.6503  133.3284  159.3186 H   0  0  0  0  0  0  0  0  0  0  0  0  # atno 6909 bound_to 6896
  145.9518  139.3979  143.0301 H   0  0  0  0  0  0  0  0  0  0  0  0  # atno 7974 bound_to 7965
  155.3049  140.0454  157.3031 H   0  0  0  0  0  0  0  0  0  0  0  0  # atno 8008 bound_to 7997
  154.5466  140.2304  155.8520 H   0  0  0  0  0  0  0  0  0  0  0  0  # atno 8009 bound_to 7997
  156.1929  140.3046  155.9376 H   0  0  0  0  0  0  0  0  0  0  0  0  # atno 8010 bound_to 7997
  140.2009  144.3988  150.6529 H   0  0  0  0  0  0  0  0  0  0  0  0  # atno 10167 bound_to 10162
  156.1377  130.4156  150.0156 H   0  0  0  0  0  0  0  0  0  0  0  0  # atno 10718 bound_to 10713
  153.1531  135.6782  153.8852 H   0  0  0  0  0  0  0  0  0  0  0  0  # atno 10763 bound_to 10752
  153.8272  135.3122  155.3417 H   0  0  0  0  0  0  0  0  0  0  0  0  # atno 10764 bound_to 10752
  154.7877  135.4852  154.0070 H   0  0  0  0  0  0  0  0  0  0  0  0  # atno 10765 bound_to 10752
  140.5513  134.5425  157.5123 H   0  0  0  0  0  0  0  0  0  0  0  0  # atno 11005 bound_to 11000
  145.8161  140.9702  143.0923 LP  0  0  0  0  0  0  0  0  0  0  0  0  # atno 17320 bound_to 7965
  144.6797  139.9982  143.7484 LP  0  0  0  0  0  0  0  0  0  0  0  0  # atno 17321 bound_to 7965
  140.6391  143.2200  151.6331 LP  0  0  0  0  0  0  0  0  0  0  0  0  # atno 17342 bound_to 10162
  139.5217  144.3184  152.0932 LP  0  0  0  0  0  0  0  0  0  0  0  0  # atno 17343 bound_to 10162
  156.8051  130.9304  151.3645 LP  0  0  0  0  0  0  0  0  0  0  0  0  # atno 17370 bound_to 10713
  157.6548  130.8915  149.9705 LP  0  0  0  0  0  0  0  0  0  0  0  0  # atno 17371 bound_to 10713
  139.9454  134.7712  156.0576 LP  0  0  0  0  0  0  0  0  0  0  0  0  # atno 17394 bound_to 11000
  141.1170  133.6625  156.3118 LP  0  0  0  0  0  0  0  0  0  0  0  0  # atno 17395 bound_to 11000

$$$$
