AV-unprocessed.smi:594|AV-procd|sdf|3015|dock9
  -GOLD-   2262023523D 1   1.00000     0.00000
 Structure written by MMmdl.
 40 41  0  0  0  0  0  0  0  0  3 V2000
  151.8549  144.5242  157.8623 C   0  0  0  0  0  0  0  0  0  0  0  0
  152.5159  144.0105  159.1530 C   0  0  1  0  0  0  0  0  0  0  0  0
  151.5953  144.2036  160.3764 C   0  0  0  0  0  0  0  0  0  0  0  0
  152.2718  143.7362  161.6751 C   0  0  0  0  0  0  0  0  0  0  0  0
  152.7399  142.2774  161.5681 C   0  0  0  0  0  0  0  0  0  0  0  0
  153.6633  142.0787  160.3543 C   0  0  0  0  0  0  0  0  0  0  0  0
  153.0013  142.5437  159.0381 C   0  0  1  0  0  0  0  0  0  0  0  0
  151.9032  141.6525  158.6630 N   0  0  0  0  0  0  0  0  0  0  0  0
  152.0347  140.3983  158.2062 C   0  0  0  0  0  0  0  0  0  0  0  0
  153.1248  139.8569  158.0181 O   0  0  0  0  0  0  0  0  0  0  0  0
  150.7278  139.6526  157.9046 C   0  0  0  0  0  0  0  0  0  0  0  0
  150.8354  138.7493  156.7468 N   0  0  0  0  0  0  0  0  0  0  0  0
  150.6270  137.3757  156.9813 C   0  0  0  0  0  0  0  0  0  0  0  0
  150.6997  136.4616  155.9940 C   0  0  0  0  0  0  0  0  0  0  0  0
  150.4814  135.0552  156.2527 N   0  3  0  0  0  0  0  0  0  0  0  0
  150.5847  134.2627  155.3220 O   0  0  0  0  0  0  0  0  0  0  0  0
  150.2016  134.6956  157.3925 O   0  5  0  0  0  0  0  0  0  0  0  0
  151.0036  136.9355  154.6576 C   0  0  0  0  0  0  0  0  0  0  0  0
  151.2014  138.2482  154.4260 C   0  0  0  0  0  0  0  0  0  0  0  0
  151.1198  139.2413  155.5018 C   0  0  0  0  0  0  0  0  0  0  0  0
  151.2968  140.4425  155.2966 O   0  0  0  0  0  0  0  0  0  0  0  0
  150.9226  144.0008  157.6491 H   0  0  0  0  0  0  0  0  0  0  0  0
  152.5151  144.3930  157.0046 H   0  0  0  0  0  0  0  0  0  0  0  0
  151.6239  145.5869  157.9391 H   0  0  0  0  0  0  0  0  0  0  0  0
  153.4010  144.6272  159.3167 H   0  0  0  0  0  0  0  0  0  0  0  0
  151.3177  145.2541  160.4706 H   0  0  0  0  0  0  0  0  0  0  0  0
  150.6643  143.6534  160.2332 H   0  0  0  0  0  0  0  0  0  0  0  0
  153.1261  144.3784  161.8933 H   0  0  0  0  0  0  0  0  0  0  0  0
  151.5824  143.8444  162.5129 H   0  0  0  0  0  0  0  0  0  0  0  0
  153.2601  141.9870  162.4810 H   0  0  0  0  0  0  0  0  0  0  0  0
  151.8742  141.6191  161.4854 H   0  0  0  0  0  0  0  0  0  0  0  0
  154.5823  142.6450  160.5107 H   0  0  0  0  0  0  0  0  0  0  0  0
  153.9649  141.0330  160.2837 H   0  0  0  0  0  0  0  0  0  0  0  0
  153.7522  142.5037  158.2467 H   0  0  0  0  0  0  0  0  0  0  0  0
  150.9684  142.0162  158.7784 H   0  0  0  0  0  0  0  0  0  0  0  0
  150.4138  139.0902  158.7863 H   0  0  0  0  0  0  0  0  0  0  0  0
  149.9439  140.3945  157.7466 H   0  0  0  0  0  0  0  0  0  0  0  0
  150.4004  137.1250  158.0076 H   0  0  0  0  0  0  0  0  0  0  0  0
  151.0738  136.2414  153.8329 H   0  0  0  0  0  0  0  0  0  0  0  0
  151.4259  138.5792  153.4227 H   0  0  0  0  0  0  0  0  0  0  0  0
  1  2  1  0  0  0  0
  1 22  1  0  0  0  0
  1 23  1  0  0  0  0
  1 24  1  0  0  0  0
  2  7  1  0  0  0  0
  2  3  1  0  0  0  0
  2 25  1  0  0  0  0
  3  4  1  0  0  0  0
  3 26  1  0  0  0  0
  3 27  1  0  0  0  0
  4  5  1  0  0  0  0
  4 28  1  0  0  0  0
  4 29  1  0  0  0  0
  5  6  1  0  0  0  0
  5 30  1  0  0  0  0
  5 31  1  0  0  0  0
  6  7  1  0  0  0  0
  6 32  1  0  0  0  0
  6 33  1  0  0  0  0
  7  8  1  0  0  0  0
  7 34  1  0  0  0  0
  8  9  1  0  0  0  0
  8 35  1  0  0  0  0
  9 10  2  0  0  0  0
  9 11  1  0  0  0  0
 11 12  1  0  0  0  0
 11 36  1  0  0  0  0
 11 37  1  0  0  0  0
 12 20  1  0  0  0  0
 12 13  1  0  0  0  0
 13 14  2  0  0  0  0
 13 38  1  0  0  0  0
 14 15  1  0  0  0  0
 14 18  1  0  0  0  0
 15 16  2  0  0  0  0
 15 17  1  0  0  0  0
 18 19  2  0  0  0  0
 18 39  1  0  0  0  0
 19 20  1  0  0  0  0
 19 40  1  0  0  0  0
 20 21  2  0  0  0  0
M  CHG  1  15   1
M  CHG  1  17  -1
M  END
> <s_m_source_file>
AV-unprocessed.smi

> <i_m_source_file_index>
594

> <i_lp_mmshare_version>
43012

> <i_f3d_flags>
0

> <s_epik_input>
W0NIM11bQ0BASF0xW0NIMl1bQ0gyXVtDSDJdW0NIMl1bQ0BIXTFbTkhdQyg9TylbQ0gyXW4yW2NIXWMoW04rXSg9TylbTy1dKVtjSF1bY0hdYzI9Tw==

> <s_epik_cmdline>
J2VwaWtfcHl0aG9uJywgJy1waCcsICc3LjAnLCAnLXRuJywgJzgnLCAnLW1hJywgJzIwMCcsICctbWV0YWxfYmluZGluZycsICctaW1hZScsICc8aW5maWxlLm1hZT4nLCAnLW9tYWUnLCAnPG91dGZpbGUubWFlPic=

> <r_lp_tautomer_probability>
1

> <r_epik_Ionization_Penalty>
1.91305e-08

> <r_epik_Ionization_Penalty_Charging>
8.35811e-11

> <r_epik_Ionization_Penalty_Neutral>
1.90469e-08

> <r_epik_State_Penalty>
-0

> <r_epik_Charging_Adjusted_Penalty>
8.35811e-11

> <i_epik_Tot_Q>
0

> <i_epik_Tot_abs_Q>
2

> <r_epik_Metal_State_Penalty>
-0

> <b_epik_Metal_Only>
0

> <s_lp_Force_Field>
OPLS_2005

> <r_lp_Energy>
20.421

> <b_lp_Chiralities_Consistent>
1

> <s_lp_Variant>
AV-unprocessed.smi:594-2

> <Gold.Version>
5.8.1

> <Gold.Id.Protein>
6NUR|6NUR_protein|mol2

> <Gold.PLP.Fitness>
52.8716

> <Gold.PLP.PLP>
-45.6710

> <Gold.PLP.part.hbond>
-3.0000

> <Gold.PLP.part.metal>
0.0000

> <Gold.PLP.part.buried>
-6.6431

> <Gold.PLP.part.nonpolar>
-36.4924

> <Gold.PLP.part.repulsive>
0.1843

> <Gold.PLP.ligand.clash>
0.0000

> <Gold.PLP.ligand.torsion>
0.5120

> <Gold.PLP.Chemscore.Hbond>
2.7370

> <Gold.PLP.Chemscore.CHOScore>
0.0000

> <Gold.PLP.Chemscore.Metal>
0.0000

> <Gold.Chemscore.Hbonds>
donor molecule, donor type, donor heavy atom, donor atom, acceptor molecule, acceptor atom, score
      P1  H  6896  6907       L1    17  0.63
      P1  H  7989  7998       L1    21  0.93
      P1  H  7997  8009       L1    10  1.00

> <Gold.PLP.Chemscore.Internal.Correction>
0.0135

> <Gold.Rescore>
     Score         DG    S(hbond)    S(metal)    S(lipo)     H(rot)  DE(clash)    DE(int)     intcor
     23.37     -24.03       2.94        0.00     108.40       1.55       0.16       0.50       ----

> <Gold.Chemscore.Fitness>
23.3652

> <Gold.Chemscore.DG>
-24.0277

> <Gold.Chemscore.ZeroCoef>
-5.4800

> <Gold.Chemscore.Hbond>
2.9444

> <Gold.Chemscore.Metal>
0.0000

> <Gold.Chemscore.Lipo>
108.3979

> <Gold.Chemscore.Internal_Hbond>
0.0000

> <Gold.Chemscore.DEClash>
0.1629

> <Gold.Chemscore.DEInternal>
0.4996

> <Gold.Chemscore.Rot>
1.5505

> <Gold.Chemscore.Internal.Correction>
   9.000000E+99

> <Gold.Chemscore.Hbonds>
donor molecule, donor type, donor heavy atom, donor atom, acceptor molecule, acceptor atom, score
      P1  H  6896  6907       L1    17  0.60
      P1  H  7989  7998       L1    21  0.82
      P1  H  7997  8009       L1    10  0.98

> <Gold.Chemscore.Hbond.Weighted>
-9.8343

> <Gold.Chemscore.Metal.Weighted>
-0.0000

> <Gold.Chemscore.Lipo.Weighted>
-12.6826

> <Gold.Chemscore.Internal_Hbond.Weighted>
0.0000

> <Gold.Chemscore.DEClash.Weighted>
0.1629

> <Gold.Chemscore.DEInternal.Weighted>
0.4996

> <Gold.Chemscore.Rot.Weighted>
3.9692

> <Gold.Chemscore.Internal.Correction.Weighted>
   9.000000E+99

> <Gold.Protein.RotatedTorsions>
[ 6907 6896 6895 6894 ] final  -96.02 input  -60.11 | X-H torsion
[ 7974 7965 7964 7962 ] final -100.89 input  175.53 | X-H torsion
[ 8008 7997 7996 7995 ] final  168.43 input   59.86 | X-H torsion
[ 10167 10162 10161 10158 ] final   23.42 input  -65.29 | X-H torsion
[ 10718 10713 10712 10709 ] final  -92.65 input   66.30 | X-H torsion
[ 10763 10752 10751 10750 ] final -146.15 input  -60.55 | X-H torsion
[ 11005 11000 10999 10996 ] final   81.69 input  -57.11 | X-H torsion

> <Gold.Protein.ActiveResidues>
 VAL166  LYS551  ARG553  GLY616  TRP617  ASP618  TYR619  PRO620  LYS621  CYS622 
 ASP623  PHE694  ASN695  SER759  ASP760  ASP761  ALA762  ILE779  LEU786  VAL792 
 PHE793  MET794  SER795  GLU796  ALA797  LYS798  CYS799  TRP800  GLU811  SER814 

> <Gold.Protein.RotatedAtoms>
  150.6978  134.1568  159.4160 H   0  0  0  0  0  0  0  0  0  0  0  0  # atno 6907 bound_to 6896
  151.9549  135.0149  160.0553 H   0  0  0  0  0  0  0  0  0  0  0  0  # atno 6908 bound_to 6896
  152.1978  133.4784  159.5079 H   0  0  0  0  0  0  0  0  0  0  0  0  # atno 6909 bound_to 6896
  145.2887  140.9347  143.2890 H   0  0  0  0  0  0  0  0  0  0  0  0  # atno 7974 bound_to 7965
  156.1548  140.1591  156.8711 H   0  0  0  0  0  0  0  0  0  0  0  0  # atno 8008 bound_to 7997
  154.5104  140.0802  156.8015 H   0  0  0  0  0  0  0  0  0  0  0  0  # atno 8009 bound_to 7997
  155.3825  140.3406  155.4249 H   0  0  0  0  0  0  0  0  0  0  0  0  # atno 8010 bound_to 7997
  140.5270  143.9906  150.6446 H   0  0  0  0  0  0  0  0  0  0  0  0  # atno 10167 bound_to 10162
  156.0004  130.4995  150.5657 H   0  0  0  0  0  0  0  0  0  0  0  0  # atno 10718 bound_to 10713
  154.8350  135.3394  154.6616 H   0  0  0  0  0  0  0  0  0  0  0  0  # atno 10763 bound_to 10752
  153.7231  135.6957  153.5012 H   0  0  0  0  0  0  0  0  0  0  0  0  # atno 10764 bound_to 10752
  153.2366  135.4398  155.0606 H   0  0  0  0  0  0  0  0  0  0  0  0  # atno 10765 bound_to 10752
  139.9089  134.8016  156.2075 H   0  0  0  0  0  0  0  0  0  0  0  0  # atno 11005 bound_to 11000
  144.9191  139.4434  143.6550 LP  0  0  0  0  0  0  0  0  0  0  0  0  # atno 17320 bound_to 7965
  146.3192  139.8041  142.8959 LP  0  0  0  0  0  0  0  0  0  0  0  0  # atno 17321 bound_to 7965
  140.3270  143.3101  152.0726 LP  0  0  0  0  0  0  0  0  0  0  0  0  # atno 17342 bound_to 10162
  139.4941  144.6535  151.6624 LP  0  0  0  0  0  0  0  0  0  0  0  0  # atno 17343 bound_to 10162
  157.3560  131.0741  151.1675 LP  0  0  0  0  0  0  0  0  0  0  0  0  # atno 17370 bound_to 10713
  157.2476  130.6598  149.5917 LP  0  0  0  0  0  0  0  0  0  0  0  0  # atno 17371 bound_to 10713
  141.0486  133.6900  156.1729 LP  0  0  0  0  0  0  0  0  0  0  0  0  # atno 17394 bound_to 11000
  140.6845  134.4731  157.5589 LP  0  0  0  0  0  0  0  0  0  0  0  0  # atno 17395 bound_to 11000

$$$$
