AV-unprocessed.smi:645|AV-procd|sdf|3159|dock8
  -GOLD-   22720 0 83D 1   1.00000     0.00000
 Structure written by MMmdl.
 23 24  0  0  0  0  0  0  0  0  1 V2000
  153.2957  140.6239  156.0877 C   0  0  0  0  0  0  0  0  0  0  0  0
  152.6215  140.5457  157.4724 C   0  0  1  0  0  0  0  0  0  0  0  0
  152.6166  141.9000  158.1989 C   0  0  0  0  0  0  0  0  0  0  0  0
  152.0581  143.0646  157.6179 C   0  0  0  0  0  0  0  0  0  0  0  0
  152.0962  144.2736  158.3408 C   0  0  0  0  0  0  0  0  0  0  0  0
  152.6420  144.3886  159.5691 N   0  0  0  0  0  0  0  0  0  0  0  0
  153.1760  143.2810  160.1239 C   0  0  0  0  0  0  0  0  0  0  0  0
  153.1901  142.0254  159.4858 C   0  0  0  0  0  0  0  0  0  0  0  0
  151.2996  139.9451  157.3445 N   0  0  0  0  0  0  0  0  0  0  0  0
  151.1680  138.8102  158.0438 C   0  0  0  0  0  0  0  0  0  0  0  0
  150.1513  138.1253  158.1255 O   0  0  0  0  0  0  0  0  0  0  0  0
  152.3408  138.5510  158.6279 N   0  0  0  0  0  0  0  0  0  0  0  0
  153.2616  139.4723  158.3499 C   0  0  0  0  0  0  0  0  0  0  0  0
  154.4346  139.4688  158.7213 O   0  0  0  0  0  0  0  0  0  0  0  0
  154.3333  140.9517  156.1562 H   0  0  0  0  0  0  0  0  0  0  0  0
  152.7716  141.3261  155.4385 H   0  0  0  0  0  0  0  0  0  0  0  0
  153.2967  139.6543  155.5872 H   0  0  0  0  0  0  0  0  0  0  0  0
  151.6039  143.0529  156.6386 H   0  0  0  0  0  0  0  0  0  0  0  0
  151.6762  145.1746  157.9185 H   0  0  0  0  0  0  0  0  0  0  0  0
  153.6058  143.3977  161.1076 H   0  0  0  0  0  0  0  0  0  0  0  0
  153.6304  141.1750  159.9851 H   0  0  0  0  0  0  0  0  0  0  0  0
  150.5587  140.3698  156.8060 H   0  0  0  0  0  0  0  0  0  0  0  0
  152.5145  137.7392  159.2023 H   0  0  0  0  0  0  0  0  0  0  0  0
  1  2  1  0  0  0  0
  1 15  1  0  0  0  0
  1 16  1  0  0  0  0
  1 17  1  0  0  0  0
  2 13  1  0  0  0  0
  2  3  1  0  0  0  0
  2  9  1  0  0  0  0
  3  8  1  0  0  0  0
  3  4  2  0  0  0  0
  4  5  1  0  0  0  0
  4 18  1  0  0  0  0
  5  6  2  0  0  0  0
  5 19  1  0  0  0  0
  6  7  1  0  0  0  0
  7  8  2  0  0  0  0
  7 20  1  0  0  0  0
  8 21  1  0  0  0  0
  9 10  1  0  0  0  0
  9 22  1  0  0  0  0
 10 11  2  0  0  0  0
 10 12  1  0  0  0  0
 12 13  1  0  0  0  0
 12 23  1  0  0  0  0
 13 14  2  0  0  0  0
M  END
> <s_m_source_file>
AV-unprocessed.smi

> <i_m_source_file_index>
645

> <i_lp_mmshare_version>
43012

> <i_f3d_flags>
0

> <s_epik_input>
Tz1DMVtOSF1DKD1PKVtOSF1bQ0BAXTEoW0NIM10pYzJbY0hdW2NIXW5bY0hdW2NIXTI=

> <s_epik_cmdline>
J2VwaWtfcHl0aG9uJywgJy1waCcsICc3LjAnLCAnLXRuJywgJzgnLCAnLW1hJywgJzIwMCcsICctbWV0YWxfYmluZGluZycsICctaW1hZScsICc8aW5maWxlLm1hZT4nLCAnLW9tYWUnLCAnPG91dGZpbGUubWFlPic=

> <r_lp_tautomer_probability>
1

> <r_epik_Ionization_Penalty>
0.0327402

> <r_epik_Ionization_Penalty_Charging>
0

> <r_epik_Ionization_Penalty_Neutral>
0.0327402

> <r_epik_State_Penalty>
0.022996

> <r_epik_Charging_Adjusted_Penalty>
0.022996

> <i_epik_Tot_Q>
0

> <i_epik_Tot_abs_Q>
0

> <r_epik_Metal_State_Penalty>
0.426243

> <b_epik_Metal_Only>
0

> <s_lp_Force_Field>
OPLS_2005

> <r_lp_Energy>
18.0362

> <b_lp_Chiralities_Consistent>
1

> <s_lp_Variant>
AV-unprocessed.smi:645-1

> <Gold.Version>
5.8.1

> <Gold.Id.Protein>
6NUR|6NUR_protein|mol2

> <Gold.PLP.Fitness>
30.4088

> <Gold.PLP.PLP>
-24.4967

> <Gold.PLP.part.hbond>
-2.0000

> <Gold.PLP.part.metal>
0.0000

> <Gold.PLP.part.buried>
-4.3793

> <Gold.PLP.part.nonpolar>
-19.2440

> <Gold.PLP.part.repulsive>
0.2250

> <Gold.PLP.ligand.clash>
0.0000

> <Gold.PLP.ligand.torsion>
0.1033

> <Gold.PLP.Chemscore.Hbond>
1.0000

> <Gold.PLP.Chemscore.CHOScore>
1.0000

> <Gold.PLP.Chemscore.Metal>
0.0000

> <Gold.Chemscore.Hbonds>
donor molecule, donor type, donor heavy atom, donor atom, acceptor molecule, acceptor atom, score
      P1  H  7997  8008       L1    14  0.85

> <Gold.PLP.Chemscore.Internal.Correction>
0.1187

> <Gold.Rescore>
     Score         DG    S(hbond)    S(metal)    S(lipo)     H(rot)  DE(clash)    DE(int)     intcor
     12.63     -13.95       1.00        0.00      65.76       1.00       0.03       1.29       ----

> <Gold.Chemscore.Fitness>
12.6301

> <Gold.Chemscore.DG>
-13.9466

> <Gold.Chemscore.ZeroCoef>
-5.4800

> <Gold.Chemscore.Hbond>
0.9978

> <Gold.Chemscore.Metal>
0.0000

> <Gold.Chemscore.Lipo>
65.7611

> <Gold.Chemscore.Internal_Hbond>
0.0000

> <Gold.Chemscore.DEClash>
0.0276

> <Gold.Chemscore.DEInternal>
1.2889

> <Gold.Chemscore.Rot>
1.0000

> <Gold.Chemscore.Internal.Correction>
   9.000000E+99

> <Gold.Chemscore.Hbonds>
donor molecule, donor type, donor heavy atom, donor atom, acceptor molecule, acceptor atom, score
      P1  H  7997  8008       L1    14  0.15

> <Gold.Chemscore.Hbond.Weighted>
-3.3325

> <Gold.Chemscore.Metal.Weighted>
-0.0000

> <Gold.Chemscore.Lipo.Weighted>
-7.6940

> <Gold.Chemscore.Internal_Hbond.Weighted>
0.0000

> <Gold.Chemscore.DEClash.Weighted>
0.0276

> <Gold.Chemscore.DEInternal.Weighted>
1.2889

> <Gold.Chemscore.Rot.Weighted>
2.5600

> <Gold.Chemscore.Internal.Correction.Weighted>
   9.000000E+99

> <Gold.Protein.RotatedTorsions>
[ 6907 6896 6895 6894 ] final -133.27 input  -60.11 | X-H torsion
[ 7974 7965 7964 7962 ] final -113.98 input  175.53 | X-H torsion
[ 8008 7997 7996 7995 ] final -118.59 input   59.86 | X-H torsion
[ 10167 10162 10161 10158 ] final   26.53 input  -65.29 | X-H torsion
[ 10718 10713 10712 10709 ] final  -12.14 input   66.30 | X-H torsion
[ 10763 10752 10751 10750 ] final   35.58 input  -60.55 | X-H torsion
[ 11005 11000 10999 10996 ] final    3.80 input  -57.11 | X-H torsion

> <Gold.Protein.ActiveResidues>
 VAL166  LYS551  ARG553  GLY616  TRP617  ASP618  TYR619  PRO620  LYS621  CYS622 
 ASP623  PHE694  ASN695  SER759  ASP760  ASP761  ALA762  ILE779  LEU786  VAL792 
 PHE793  MET794  SER795  GLU796  ALA797  LYS798  CYS799  TRP800  GLU811  SER814 

> <Gold.Protein.RotatedAtoms>
  150.9721  133.6333  159.2736 H   0  0  0  0  0  0  0  0  0  0  0  0  # atno 6907 bound_to 6896
  151.3618  135.0904  159.9447 H   0  0  0  0  0  0  0  0  0  0  0  0  # atno 6908 bound_to 6896
  152.5186  133.9293  159.7627 H   0  0  0  0  0  0  0  0  0  0  0  0  # atno 6909 bound_to 6896
  145.1256  140.8694  143.3788 H   0  0  0  0  0  0  0  0  0  0  0  0  # atno 7974 bound_to 7965
  155.1021  140.0396  157.2700 H   0  0  0  0  0  0  0  0  0  0  0  0  # atno 8008 bound_to 7997
  154.6750  140.2620  155.6942 H   0  0  0  0  0  0  0  0  0  0  0  0  # atno 8009 bound_to 7997
  156.2673  140.2790  156.1273 H   0  0  0  0  0  0  0  0  0  0  0  0  # atno 8010 bound_to 7997
  140.5015  144.0307  150.6335 H   0  0  0  0  0  0  0  0  0  0  0  0  # atno 10167 bound_to 10162
  156.6489  130.4949  149.6069 H   0  0  0  0  0  0  0  0  0  0  0  0  # atno 10718 bound_to 10713
  153.0113  135.6329  154.1850 H   0  0  0  0  0  0  0  0  0  0  0  0  # atno 10763 bound_to 10752
  154.1592  135.2824  155.3115 H   0  0  0  0  0  0  0  0  0  0  0  0  # atno 10764 bound_to 10752
  154.5995  135.5592  153.7420 H   0  0  0  0  0  0  0  0  0  0  0  0  # atno 10765 bound_to 10752
  140.5891  133.9941  155.8081 H   0  0  0  0  0  0  0  0  0  0  0  0  # atno 11005 bound_to 11000
  145.0692  139.3045  143.5841 LP  0  0  0  0  0  0  0  0  0  0  0  0  # atno 17320 bound_to 7965
  146.3518  140.0161  142.8662 LP  0  0  0  0  0  0  0  0  0  0  0  0  # atno 17321 bound_to 7965
  140.3604  143.2911  152.0390 LP  0  0  0  0  0  0  0  0  0  0  0  0  # atno 17342 bound_to 10162
  139.4873  144.6307  151.7076 LP  0  0  0  0  0  0  0  0  0  0  0  0  # atno 17343 bound_to 10162
  156.2100  130.6673  151.1259 LP  0  0  0  0  0  0  0  0  0  0  0  0  # atno 17370 bound_to 10713
  157.7147  131.0716  150.6371 LP  0  0  0  0  0  0  0  0  0  0  0  0  # atno 17371 bound_to 10713
  141.0947  133.9863  157.3180 LP  0  0  0  0  0  0  0  0  0  0  0  0  # atno 17394 bound_to 11000
  139.9282  135.0201  156.8309 LP  0  0  0  0  0  0  0  0  0  0  0  0  # atno 17395 bound_to 11000

$$$$
