AV-unprocessed.smi:1611|AV-procd|sdf|6475|dock8
  -GOLD-   22720 7133D 1   1.00000     0.00000
 Structure written by MMmdl.
 48 49  0  0  0  0  0  0  0  0  1 V2000
  152.4223  144.0587  158.8906 C   0  0  0  0  0  0  0  0  0  0  0  0
  152.6975  142.5818  159.1145 C   0  0  0  0  0  0  0  0  0  0  0  0
  153.5872  142.2013  160.1398 C   0  0  0  0  0  0  0  0  0  0  0  0
  153.8624  140.8433  160.3764 C   0  0  0  0  0  0  0  0  0  0  0  0
  153.2572  139.8492  159.5837 C   0  0  0  0  0  0  0  0  0  0  0  0
  153.5609  138.3879  159.8564 C   0  0  0  0  0  0  0  0  0  0  0  0
  152.3765  140.2206  158.5419 C   0  0  0  0  0  0  0  0  0  0  0  0
  151.7986  139.2468  157.7684 O   0  0  0  0  0  0  0  0  0  0  0  0
  152.2112  139.2805  156.4094 C   0  0  0  0  0  0  0  0  0  0  0  0
  151.7567  137.9859  155.7147 C   0  0  1  0  0  0  0  0  0  0  0  0
  152.7296  137.6791  154.7350 O   0  0  0  0  0  0  0  0  0  0  0  0
  151.6716  136.8021  156.7033 C   0  0  0  0  0  0  0  0  0  0  0  0
  150.3183  136.6400  157.2502 N   0  0  0  0  0  0  0  0  0  0  0  0
  149.3595  136.3455  156.2999 N   0  0  0  0  0  0  0  0  0  0  0  0
  148.1235  136.1557  156.6269 C   0  0  0  0  0  0  0  0  0  0  0  0
  147.1680  135.8420  155.5071 C   0  0  0  0  0  0  0  0  0  0  0  0
  147.7225  136.2526  158.0265 C   0  0  0  0  0  0  0  0  0  0  0  0
  146.2536  136.0185  158.3520 C   0  0  0  0  0  0  0  0  0  0  0  0
  148.6725  136.5452  158.9497 C   0  0  0  0  0  0  0  0  0  0  0  0
  148.3745  136.6617  160.3408 C   0  0  0  0  0  0  0  0  0  0  0  0
  148.1363  136.7764  161.4679 N   0  0  0  0  0  0  0  0  0  0  0  0
  150.0747  136.7624  158.5864 C   0  0  0  0  0  0  0  0  0  0  0  0
  150.9590  137.0298  159.4014 O   0  0  0  0  0  0  0  0  0  0  0  0
  152.0779  141.5882  158.3154 C   0  0  0  0  0  0  0  0  0  0  0  0
  151.0999  141.9845  157.2174 C   0  0  0  0  0  0  0  0  0  0  0  0
  153.0871  144.6816  159.4898 H   0  0  0  0  0  0  0  0  0  0  0  0
  151.3960  144.3003  159.1682 H   0  0  0  0  0  0  0  0  0  0  0  0
  152.5719  144.3250  157.8439 H   0  0  0  0  0  0  0  0  0  0  0  0
  154.0615  142.9518  160.7553 H   0  0  0  0  0  0  0  0  0  0  0  0
  154.5419  140.5685  161.1698 H   0  0  0  0  0  0  0  0  0  0  0  0
  152.6545  137.7849  159.7941 H   0  0  0  0  0  0  0  0  0  0  0  0
  153.9827  138.2533  160.8531 H   0  0  0  0  0  0  0  0  0  0  0  0
  154.2787  138.0088  159.1290 H   0  0  0  0  0  0  0  0  0  0  0  0
  151.8360  140.1622  155.8857 H   0  0  0  0  0  0  0  0  0  0  0  0
  153.2997  139.3466  156.3972 H   0  0  0  0  0  0  0  0  0  0  0  0
  150.7879  138.1485  155.2400 H   0  0  0  0  0  0  0  0  0  0  0  0
  152.4245  136.9430  154.2269 H   0  0  0  0  0  0  0  0  0  0  0  0
  152.0464  135.8831  156.2484 H   0  0  0  0  0  0  0  0  0  0  0  0
  152.3430  136.9862  157.5440 H   0  0  0  0  0  0  0  0  0  0  0  0
  146.3867  136.5993  155.4423 H   0  0  0  0  0  0  0  0  0  0  0  0
  146.6900  134.8751  155.6649 H   0  0  0  0  0  0  0  0  0  0  0  0
  147.6715  135.8054  154.5400 H   0  0  0  0  0  0  0  0  0  0  0  0
  146.0508  136.0885  159.4202 H   0  0  0  0  0  0  0  0  0  0  0  0
  145.9419  135.0259  158.0257 H   0  0  0  0  0  0  0  0  0  0  0  0
  145.6286  136.7583  157.8507 H   0  0  0  0  0  0  0  0  0  0  0  0
  150.4690  141.1505  156.9109 H   0  0  0  0  0  0  0  0  0  0  0  0
  151.6432  142.3383  156.3412 H   0  0  0  0  0  0  0  0  0  0  0  0
  150.4318  142.7778  157.5518 H   0  0  0  0  0  0  0  0  0  0  0  0
  1  2  1  0  0  0  0
  1 26  1  0  0  0  0
  1 27  1  0  0  0  0
  1 28  1  0  0  0  0
  2 24  1  0  0  0  0
  2  3  2  0  0  0  0
  3  4  1  0  0  0  0
  3 29  1  0  0  0  0
  4  5  2  0  0  0  0
  4 30  1  0  0  0  0
  5  6  1  0  0  0  0
  5  7  1  0  0  0  0
  6 31  1  0  0  0  0
  6 32  1  0  0  0  0
  6 33  1  0  0  0  0
  7  8  1  0  0  0  0
  7 24  2  0  0  0  0
  8  9  1  0  0  0  0
  9 10  1  0  0  0  0
  9 34  1  0  0  0  0
  9 35  1  0  0  0  0
 10 11  1  0  0  0  0
 10 12  1  0  0  0  0
 10 36  1  0  0  0  0
 11 37  1  0  0  0  0
 12 13  1  0  0  0  0
 12 38  1  0  0  0  0
 12 39  1  0  0  0  0
 13 22  1  0  0  0  0
 13 14  1  0  0  0  0
 14 15  2  0  0  0  0
 15 16  1  0  0  0  0
 15 17  1  0  0  0  0
 16 40  1  0  0  0  0
 16 41  1  0  0  0  0
 16 42  1  0  0  0  0
 17 18  1  0  0  0  0
 17 19  2  0  0  0  0
 18 43  1  0  0  0  0
 18 44  1  0  0  0  0
 18 45  1  0  0  0  0
 19 20  1  0  0  0  0
 19 22  1  0  0  0  0
 20 21  3  0  0  0  0
 22 23  2  0  0  0  0
 24 25  1  0  0  0  0
 25 46  1  0  0  0  0
 25 47  1  0  0  0  0
 25 48  1  0  0  0  0
M  END
> <s_m_source_file>
AV-unprocessed.smi

> <i_m_source_file_index>
1611

> <i_lp_mmshare_version>
43012

> <i_f3d_flags>
0

> <s_epik_input>
W0NIM11jMVtjSF1bY0hdYyhbQ0gzXSljKGMxW0NIM10pT1tDSDJdW0NASF0oW09IXSlbQ0gyXW4ybmMoW0NIM10pYyhbQ0gzXSljKEMjTiljMj1P

> <s_epik_cmdline>
J2VwaWtfcHl0aG9uJywgJy1waCcsICc3LjAnLCAnLXRuJywgJzgnLCAnLW1hJywgJzIwMCcsICctbWV0YWxfYmluZGluZycsICctaW1hZScsICc8aW5maWxlLm1hZT4nLCAnLW9tYWUnLCAnPG91dGZpbGUubWFlPic=

> <r_lp_tautomer_probability>
1

> <r_epik_Ionization_Penalty>
1.17331e-07

> <r_epik_Ionization_Penalty_Charging>
1.57223e-10

> <r_epik_Ionization_Penalty_Neutral>
1.17174e-07

> <r_epik_State_Penalty>
-0

> <r_epik_Charging_Adjusted_Penalty>
1.57223e-10

> <i_epik_Tot_Q>
0

> <i_epik_Tot_abs_Q>
0

> <r_epik_Metal_State_Penalty>
-0

> <b_epik_Metal_Only>
0

> <s_lp_Force_Field>
OPLS_2005

> <r_lp_Energy>
37.4128

> <b_lp_Chiralities_Consistent>
1

> <s_lp_Variant>
AV-unprocessed.smi:1611-2

> <Gold.Version>
5.8.1

> <Gold.Id.Protein>
6NUR|6NUR_protein|mol2

> <Gold.PLP.Fitness>
43.4549

> <Gold.PLP.PLP>
-38.6369

> <Gold.PLP.part.hbond>
-3.5577

> <Gold.PLP.part.metal>
0.0000

> <Gold.PLP.part.buried>
-5.5890

> <Gold.PLP.part.nonpolar>
-29.6238

> <Gold.PLP.part.repulsive>
0.0358

> <Gold.PLP.ligand.clash>
0.0000

> <Gold.PLP.ligand.torsion>
0.9138

> <Gold.PLP.Chemscore.Hbond>
2.1802

> <Gold.PLP.Chemscore.CHOScore>
0.0000

> <Gold.PLP.Chemscore.Metal>
0.0000

> <Gold.Chemscore.Hbonds>
donor molecule, donor type, donor heavy atom, donor atom, acceptor molecule, acceptor atom, score
      P1  H  6896  6909       L1    23  0.55
      P1  H  6931  6943       L1    21  1.00

> <Gold.PLP.Chemscore.Internal.Correction>
0.1049

> <Gold.Rescore>
     Score         DG    S(hbond)    S(metal)    S(lipo)     H(rot)  DE(clash)    DE(int)     intcor
     13.38     -14.52       0.92        0.00     100.77       2.27       0.04       1.11       ----

> <Gold.Chemscore.Fitness>
13.3751

> <Gold.Chemscore.DG>
-14.5226

> <Gold.Chemscore.ZeroCoef>
-5.4800

> <Gold.Chemscore.Hbond>
0.9178

> <Gold.Chemscore.Metal>
0.0000

> <Gold.Chemscore.Lipo>
100.7678

> <Gold.Chemscore.Internal_Hbond>
0.0000

> <Gold.Chemscore.DEClash>
0.0402

> <Gold.Chemscore.DEInternal>
1.1072

> <Gold.Chemscore.Rot>
2.2706

> <Gold.Chemscore.Internal.Correction>
   9.000000E+99

> <Gold.Chemscore.Hbonds>
donor molecule, donor type, donor heavy atom, donor atom, acceptor molecule, acceptor atom, score
      P1  H  6896  6909       L1    23  0.03
      P1  H  6931  6943       L1    21  0.40

> <Gold.Chemscore.Hbond.Weighted>
-3.0655

> <Gold.Chemscore.Metal.Weighted>
-0.0000

> <Gold.Chemscore.Lipo.Weighted>
-11.7898

> <Gold.Chemscore.Internal_Hbond.Weighted>
0.0000

> <Gold.Chemscore.DEClash.Weighted>
0.0402

> <Gold.Chemscore.DEInternal.Weighted>
1.1072

> <Gold.Chemscore.Rot.Weighted>
5.8127

> <Gold.Chemscore.Internal.Correction.Weighted>
   9.000000E+99

> <Gold.Protein.RotatedTorsions>
[ 6907 6896 6895 6894 ] final   94.59 input  -60.11 | X-H torsion
[ 7974 7965 7964 7962 ] final  147.79 input  175.53 | X-H torsion
[ 8008 7997 7996 7995 ] final -177.61 input   59.86 | X-H torsion
[ 10167 10162 10161 10158 ] final  130.19 input  -65.29 | X-H torsion
[ 10718 10713 10712 10709 ] final   97.76 input   66.30 | X-H torsion
[ 10763 10752 10751 10750 ] final -123.72 input  -60.55 | X-H torsion
[ 11005 11000 10999 10996 ] final -102.86 input  -57.11 | X-H torsion

> <Gold.Protein.ActiveResidues>
 VAL166  LYS551  ARG553  GLY616  TRP617  ASP618  TYR619  PRO620  LYS621  CYS622 
 ASP623  PHE694  ASN695  SER759  ASP760  ASP761  ALA762  ILE779  LEU786  VAL792 
 PHE793  MET794  SER795  GLU796  ALA797  LYS798  CYS799  TRP800  GLU811  SER814 

> <Gold.Protein.RotatedAtoms>
  152.5448  134.1170  159.8382 H   0  0  0  0  0  0  0  0  0  0  0  0  # atno 6907 bound_to 6896
  151.1230  133.5083  159.2609 H   0  0  0  0  0  0  0  0  0  0  0  0  # atno 6908 bound_to 6896
  151.1758  135.0348  159.8826 H   0  0  0  0  0  0  0  0  0  0  0  0  # atno 6909 bound_to 6896
  144.8564  139.6073  143.5950 H   0  0  0  0  0  0  0  0  0  0  0  0  # atno 7974 bound_to 7965
  156.0090  140.1236  157.0473 H   0  0  0  0  0  0  0  0  0  0  0  0  # atno 8008 bound_to 7997
  154.4269  140.1091  156.5872 H   0  0  0  0  0  0  0  0  0  0  0  0  # atno 8009 bound_to 7997
  155.6107  140.3471  155.4623 H   0  0  0  0  0  0  0  0  0  0  0  0  # atno 8010 bound_to 7997
  139.5442  144.6758  151.4527 H   0  0  0  0  0  0  0  0  0  0  0  0  # atno 10167 bound_to 10162
  157.6907  131.0619  150.4692 H   0  0  0  0  0  0  0  0  0  0  0  0  # atno 10718 bound_to 10713
  154.8712  135.4088  154.2989 H   0  0  0  0  0  0  0  0  0  0  0  0  # atno 10763 bound_to 10752
  153.3852  135.7013  153.6541 H   0  0  0  0  0  0  0  0  0  0  0  0  # atno 10764 bound_to 10752
  153.5347  135.3660  155.2663 H   0  0  0  0  0  0  0  0  0  0  0  0  # atno 10765 bound_to 10752
  141.1171  133.8593  157.1413 H   0  0  0  0  0  0  0  0  0  0  0  0  # atno 11005 bound_to 11000
  146.2826  139.6918  142.9218 LP  0  0  0  0  0  0  0  0  0  0  0  0  # atno 17320 bound_to 7965
  145.4398  141.0421  143.2864 LP  0  0  0  0  0  0  0  0  0  0  0  0  # atno 17321 bound_to 7965
  140.6684  143.8348  150.6969 LP  0  0  0  0  0  0  0  0  0  0  0  0  # atno 17342 bound_to 10162
  140.1765  143.4151  152.1964 LP  0  0  0  0  0  0  0  0  0  0  0  0  # atno 17343 bound_to 10162
  156.5031  130.4122  149.6342 LP  0  0  0  0  0  0  0  0  0  0  0  0  # atno 17370 bound_to 10713
  156.3309  130.7331  151.2260 LP  0  0  0  0  0  0  0  0  0  0  0  0  # atno 17371 bound_to 10713
  140.0100  134.9992  157.0376 LP  0  0  0  0  0  0  0  0  0  0  0  0  # atno 17394 bound_to 11000
  140.4615  134.1479  155.7192 LP  0  0  0  0  0  0  0  0  0  0  0  0  # atno 17395 bound_to 11000

$$$$
