AV-unprocessed.smi:1642|AV-procd|sdf|6571|dock3
  -GOLD-   22720 7253D 1   1.00000     0.00000
 Structure written by MMmdl.
 34 35  0  0  0  0  0  0  0  0  3 V2000
  150.8339  141.3004  156.0532 C   0  0  0  0  0  0  0  0  0  0  0  0
  151.2431  139.9518  155.5692 C   0  0  0  0  0  0  0  0  0  0  0  0
  152.4862  139.6770  155.1670 N   0  0  0  0  0  0  0  0  0  0  0  0
  152.6238  138.3587  154.7579 N   0  0  0  0  0  0  0  0  0  0  0  0
  151.4842  137.6589  154.8460 C   0  0  0  0  0  0  0  0  0  0  0  0
  151.4055  136.3648  154.4944 N   0  5  0  0  0  0  0  0  0  0  0  0
  150.4423  135.5801  155.0254 C   0  0  0  0  0  0  0  0  0  0  0  0
  150.1089  135.5305  156.2114 O   0  0  0  0  0  0  0  0  0  0  0  0
  149.8383  134.7893  154.1278 N   0  0  0  0  0  0  0  0  0  0  0  0
  148.8070  133.7968  154.4195 C   0  0  0  0  0  0  0  0  0  0  0  0
  148.2346  133.1418  153.1452 C   0  0  0  0  0  0  0  0  0  0  0  0
  147.2921  134.0285  152.4221 N   0  3  0  0  0  0  0  0  0  0  0  0
  146.6205  133.3965  151.2726 C   0  0  0  0  0  0  0  0  0  0  0  0
  145.4028  134.2760  150.9747 C   0  0  0  0  0  0  0  0  0  0  0  0
  145.1392  135.0642  152.2638 C   0  0  0  0  0  0  0  0  0  0  0  0
  146.2197  134.6119  153.2502 C   0  0  0  0  0  0  0  0  0  0  0  0
  150.1312  138.5961  155.4798 S   0  0  0  0  0  0  0  0  0  0  0  0
  150.8332  142.0092  155.2250 H   0  0  0  0  0  0  0  0  0  0  0  0
  151.5274  141.6524  156.8171 H   0  0  0  0  0  0  0  0  0  0  0  0
  149.8323  141.2622  156.4822 H   0  0  0  0  0  0  0  0  0  0  0  0
  150.1293  134.8786  153.1650 H   0  0  0  0  0  0  0  0  0  0  0  0
  149.2001  133.0356  155.0953 H   0  0  0  0  0  0  0  0  0  0  0  0
  148.0091  134.3037  154.9625 H   0  0  0  0  0  0  0  0  0  0  0  0
  149.0589  132.9041  152.4716 H   0  0  0  0  0  0  0  0  0  0  0  0
  147.7551  132.1925  153.3869 H   0  0  0  0  0  0  0  0  0  0  0  0
  147.2909  133.3057  150.4174 H   0  0  0  0  0  0  0  0  0  0  0  0
  146.2897  132.3944  151.5507 H   0  0  0  0  0  0  0  0  0  0  0  0
  145.6252  134.9655  150.1594 H   0  0  0  0  0  0  0  0  0  0  0  0
  144.5416  133.6784  150.6742 H   0  0  0  0  0  0  0  0  0  0  0  0
  145.2293  136.1335  152.0682 H   0  0  0  0  0  0  0  0  0  0  0  0
  144.1382  134.8861  152.6582 H   0  0  0  0  0  0  0  0  0  0  0  0
  145.8121  133.8460  153.9121 H   0  0  0  0  0  0  0  0  0  0  0  0
  146.5870  135.4313  153.8689 H   0  0  0  0  0  0  0  0  0  0  0  0
  147.8292  134.7996  152.0500 H   0  0  0  0  0  0  0  0  0  0  0  0
  1  2  1  0  0  0  0
  1 18  1  0  0  0  0
  1 19  1  0  0  0  0
  1 20  1  0  0  0  0
  2 17  1  0  0  0  0
  2  3  2  0  0  0  0
  3  4  1  0  0  0  0
  4  5  2  0  0  0  0
  5  6  1  0  0  0  0
  5 17  1  0  0  0  0
  6  7  1  0  0  0  0
  7  8  2  0  0  0  0
  7  9  1  0  0  0  0
  9 10  1  0  0  0  0
  9 21  1  0  0  0  0
 10 11  1  0  0  0  0
 10 22  1  0  0  0  0
 10 23  1  0  0  0  0
 11 12  1  0  0  0  0
 11 24  1  0  0  0  0
 11 25  1  0  0  0  0
 12 16  1  0  0  0  0
 12 13  1  0  0  0  0
 12 34  1  0  0  0  0
 13 14  1  0  0  0  0
 13 26  1  0  0  0  0
 13 27  1  0  0  0  0
 14 15  1  0  0  0  0
 14 28  1  0  0  0  0
 14 29  1  0  0  0  0
 15 16  1  0  0  0  0
 15 30  1  0  0  0  0
 15 31  1  0  0  0  0
 16 32  1  0  0  0  0
 16 33  1  0  0  0  0
M  CHG  1   6  -1
M  CHG  1  12   1
M  END
> <s_m_source_file>
AV-unprocessed.smi

> <i_m_source_file_index>
1642

> <i_lp_mmshare_version>
43012

> <i_f3d_flags>
0

> <s_epik_input>
W0NIM11jMW5uYyhzMSlbTkhdQyg9TylbTkhdW0NIMl1bQ0gyXU4yW0NIMl1bQ0gyXVtDSDJdW0NIMl0y

> <s_epik_cmdline>
J2VwaWtfcHl0aG9uJywgJy1waCcsICc3LjAnLCAnLXRuJywgJzgnLCAnLW1hJywgJzIwMCcsICctbWV0YWxfYmluZGluZycsICctaW1hZScsICc8aW5maWxlLm1hZT4nLCAnLW9tYWUnLCAnPG91dGZpbGUubWFlPic=

> <r_lp_tautomer_probability>
1

> <r_epik_Ionization_Penalty>
3.03741

> <r_epik_Ionization_Penalty_Charging>
2.9298

> <r_epik_Ionization_Penalty_Neutral>
0.107609

> <r_epik_State_Penalty>
2.92509

> <r_epik_Charging_Adjusted_Penalty>
5.85489

> <i_epik_Tot_Q>
0

> <i_epik_Tot_abs_Q>
2

> <r_epik_Metal_State_Penalty>
0.448209

> <b_epik_Metal_Only>
1

> <s_lp_Force_Field>
OPLS_2005

> <r_lp_Energy>
24.3805

> <b_lp_Chiralities_Consistent>
1

> <s_lp_Variant>
AV-unprocessed.smi:1642-2

> <Gold.Version>
5.8.1

> <Gold.Id.Protein>
6NUR|6NUR_protein|mol2

> <Gold.PLP.Fitness>
43.2056

> <Gold.PLP.PLP>
-29.3554

> <Gold.PLP.part.hbond>
-5.5899

> <Gold.PLP.part.metal>
0.0000

> <Gold.PLP.part.buried>
-2.8919

> <Gold.PLP.part.nonpolar>
-21.9877

> <Gold.PLP.part.repulsive>
0.6671

> <Gold.PLP.ligand.clash>
0.0000

> <Gold.PLP.ligand.torsion>
0.5932

> <Gold.PLP.Chemscore.Hbond>
5.0000

> <Gold.PLP.Chemscore.CHOScore>
0.0000

> <Gold.PLP.Chemscore.Metal>
0.0000

> <Gold.Chemscore.Hbonds>
donor molecule, donor type, donor heavy atom, donor atom, acceptor molecule, acceptor atom, score
      L1  H    12    34       P1  7948  2.00
      P1  H  7997  8009       L1     3  0.70
      P1  H 10752 10764       L1     6  2.00

> <Gold.PLP.Chemscore.Internal.Correction>
0.0366

> <Gold.Rescore>
     Score         DG    S(hbond)    S(metal)    S(lipo)     H(rot)  DE(clash)    DE(int)     intcor
     14.73     -15.43       2.64        0.00      44.65       1.60       0.11       0.59       ----

> <Gold.Chemscore.Fitness>
14.7312

> <Gold.Chemscore.DG>
-15.4306

> <Gold.Chemscore.ZeroCoef>
-5.4800

> <Gold.Chemscore.Hbond>
2.6421

> <Gold.Chemscore.Metal>
0.0000

> <Gold.Chemscore.Lipo>
44.6510

> <Gold.Chemscore.Internal_Hbond>
0.0000

> <Gold.Chemscore.DEClash>
0.1103

> <Gold.Chemscore.DEInternal>
0.5890

> <Gold.Chemscore.Rot>
1.6008

> <Gold.Chemscore.Internal.Correction>
   9.000000E+99

> <Gold.Chemscore.Hbonds>
donor molecule, donor type, donor heavy atom, donor atom, acceptor molecule, acceptor atom, score
      L1  H    12    34       P1  7948  0.55
      P1  H  7997  8009       L1     3  0.32
      P1  H 10752 10764       L1     6  0.82

> <Gold.Chemscore.Hbond.Weighted>
-8.8246

> <Gold.Chemscore.Metal.Weighted>
-0.0000

> <Gold.Chemscore.Lipo.Weighted>
-5.2242

> <Gold.Chemscore.Internal_Hbond.Weighted>
0.0000

> <Gold.Chemscore.DEClash.Weighted>
0.1103

> <Gold.Chemscore.DEInternal.Weighted>
0.5890

> <Gold.Chemscore.Rot.Weighted>
4.0982

> <Gold.Chemscore.Internal.Correction.Weighted>
   9.000000E+99

> <Gold.Protein.RotatedTorsions>
[ 6907 6896 6895 6894 ] final -178.67 input  -60.11 | X-H torsion
[ 7974 7965 7964 7962 ] final   41.56 input  175.53 | X-H torsion
[ 8008 7997 7996 7995 ] final -137.14 input   59.86 | X-H torsion
[ 10167 10162 10161 10158 ] final  -68.94 input  -65.29 | X-H torsion
[ 10718 10713 10712 10709 ] final  122.88 input   66.30 | X-H torsion
[ 10763 10752 10751 10750 ] final  -82.58 input  -60.55 | X-H torsion
[ 11005 11000 10999 10996 ] final   -6.25 input  -57.11 | X-H torsion

> <Gold.Protein.ActiveResidues>
 VAL166  LYS551  ARG553  GLY616  TRP617  ASP618  TYR619  PRO620  LYS621  CYS622 
 ASP623  PHE694  ASN695  SER759  ASP760  ASP761  ALA762  ILE779  LEU786  VAL792 
 PHE793  MET794  SER795  GLU796  ALA797  LYS798  CYS799  TRP800  GLU811  SER814 

> <Gold.Protein.RotatedAtoms>
  151.6411  133.3326  159.3130 H   0  0  0  0  0  0  0  0  0  0  0  0  # atno 6907 bound_to 6896
  150.8008  134.7103  159.6610 H   0  0  0  0  0  0  0  0  0  0  0  0  # atno 6908 bound_to 6896
  152.4100  134.6146  160.0086 H   0  0  0  0  0  0  0  0  0  0  0  0  # atno 6909 bound_to 6896
  146.0813  139.5402  142.9535 H   0  0  0  0  0  0  0  0  0  0  0  0  # atno 7974 bound_to 7965
  155.4069  140.0509  157.3034 H   0  0  0  0  0  0  0  0  0  0  0  0  # atno 8008 bound_to 7997
  154.4964  140.2140  155.9398 H   0  0  0  0  0  0  0  0  0  0  0  0  # atno 8009 bound_to 7997
  156.1411  140.3154  155.8502 H   0  0  0  0  0  0  0  0  0  0  0  0  # atno 8010 bound_to 7997
  140.5469  143.2313  151.6985 H   0  0  0  0  0  0  0  0  0  0  0  0  # atno 10167 bound_to 10162
  157.5708  131.1083  150.8370 H   0  0  0  0  0  0  0  0  0  0  0  0  # atno 10718 bound_to 10713
  154.5775  135.5586  153.7153 H   0  0  0  0  0  0  0  0  0  0  0  0  # atno 10763 bound_to 10752
  153.0069  135.6312  154.2029 H   0  0  0  0  0  0  0  0  0  0  0  0  # atno 10764 bound_to 10752
  154.1969  135.2879  155.2983 H   0  0  0  0  0  0  0  0  0  0  0  0  # atno 10765 bound_to 10752
  140.7000  133.8998  155.8676 H   0  0  0  0  0  0  0  0  0  0  0  0  # atno 11005 bound_to 11000
  145.6212  141.0322  143.1914 LP  0  0  0  0  0  0  0  0  0  0  0  0  # atno 17320 bound_to 7965
  144.7295  139.7769  143.7352 LP  0  0  0  0  0  0  0  0  0  0  0  0  # atno 17321 bound_to 7965
  139.5011  144.3880  152.0309 LP  0  0  0  0  0  0  0  0  0  0  0  0  # atno 17342 bound_to 10162
  140.2994  144.3664  150.6065 LP  0  0  0  0  0  0  0  0  0  0  0  0  # atno 17343 bound_to 10162
  156.8842  130.5190  149.5289 LP  0  0  0  0  0  0  0  0  0  0  0  0  # atno 17370 bound_to 10713
  156.0754  130.5777  150.9463 LP  0  0  0  0  0  0  0  0  0  0  0  0  # atno 17371 bound_to 10713
  141.0172  134.0939  157.4160 LP  0  0  0  0  0  0  0  0  0  0  0  0  # atno 17394 bound_to 11000
  139.8899  135.0108  156.6708 LP  0  0  0  0  0  0  0  0  0  0  0  0  # atno 17395 bound_to 11000

$$$$
