AV-unprocessed.smi:2557|AV-procd|sdf|10027|dock10
  -GOLD-   2272014 73D 1   1.00000     0.00000
 Structure written by MMmdl.
 38 40  0  0  0  0  0  0  0  0  2 V2000
  152.7938  144.1315  160.2019 O   0  5  0  0  0  0  0  0  0  0  0  0
  152.7795  142.9995  159.6630 C   0  0  0  0  0  0  0  0  0  0  0  0
  152.0807  142.4928  158.5645 C   0  0  0  0  0  0  0  0  0  0  0  0
  151.1679  143.3388  157.7789 C   0  0  0  0  0  0  0  0  0  0  0  0
  150.9195  144.5238  157.9975 O   0  0  0  0  0  0  0  0  0  0  0  0
  150.5806  142.7079  156.7436 N   0  0  0  0  0  0  0  0  0  0  0  0
  150.8077  141.3678  156.4233 C   0  0  0  0  0  0  0  0  0  0  0  0
  149.9912  140.9369  155.2039 C   0  0  0  0  0  0  0  0  0  0  0  0
  148.5734  141.5528  155.2178 C   0  0  0  0  0  0  0  0  0  0  0  0
  147.7696  141.1550  153.9685 C   0  0  0  0  0  0  0  0  0  0  0  0
  147.7011  139.6285  153.8090 C   0  0  0  0  0  0  0  0  0  0  0  0
  149.1082  139.0132  153.7816 C   0  0  0  0  0  0  0  0  0  0  0  0
  149.9066  139.4010  155.0367 C   0  0  0  0  0  0  0  0  0  0  0  0
  151.5956  140.5722  157.0812 N   0  0  0  0  0  0  0  0  0  0  0  0
  152.2344  141.1494  158.1537 N   0  0  0  0  0  0  0  0  0  0  0  0
  153.6492  142.0927  160.4373 C   0  0  0  0  0  0  0  0  0  0  0  0
  153.4517  141.9037  161.8229 C   0  0  0  0  0  0  0  0  0  0  0  0
  154.3146  141.0346  162.5188 C   0  0  0  0  0  0  0  0  0  0  0  0
  155.3310  140.3689  161.9300 N   0  0  0  0  0  0  0  0  0  0  0  0
  155.5221  140.5575  160.6066 C   0  0  0  0  0  0  0  0  0  0  0  0
  154.7169  141.4045  159.8204 C   0  0  0  0  0  0  0  0  0  0  0  0
  150.5060  141.3245  154.3226 H   0  0  0  0  0  0  0  0  0  0  0  0
  148.0382  141.2270  156.1113 H   0  0  0  0  0  0  0  0  0  0  0  0
  148.6282  142.6407  155.2731 H   0  0  0  0  0  0  0  0  0  0  0  0
  146.7622  141.5679  154.0278 H   0  0  0  0  0  0  0  0  0  0  0  0
  148.2313  141.5938  153.0831 H   0  0  0  0  0  0  0  0  0  0  0  0
  147.1309  139.1992  154.6338 H   0  0  0  0  0  0  0  0  0  0  0  0
  147.1640  139.3727  152.8952 H   0  0  0  0  0  0  0  0  0  0  0  0
  149.0380  137.9276  153.7067 H   0  0  0  0  0  0  0  0  0  0  0  0
  149.6389  139.3511  152.8906 H   0  0  0  0  0  0  0  0  0  0  0  0
  150.9082  138.9731  154.9737 H   0  0  0  0  0  0  0  0  0  0  0  0
  149.4312  138.9530  155.9108 H   0  0  0  0  0  0  0  0  0  0  0  0
  152.8545  140.5342  158.6689 H   0  0  0  0  0  0  0  0  0  0  0  0
  152.6531  142.4155  162.3394 H   0  0  0  0  0  0  0  0  0  0  0  0
  154.1850  140.8700  163.5783 H   0  0  0  0  0  0  0  0  0  0  0  0
  156.3430  140.0164  160.1601 H   0  0  0  0  0  0  0  0  0  0  0  0
  154.9113  141.5230  158.7645 H   0  0  0  0  0  0  0  0  0  0  0  0
  149.9427  143.2410  156.1716 H   0  0  0  0  0  0  0  0  0  0  0  0
  1  2  1  0  0  0  0
  2  3  2  0  0  0  0
  2 16  1  0  0  0  0
  3 15  1  0  0  0  0
  3  4  1  0  0  0  0
  4  5  2  0  0  0  0
  4  6  1  0  0  0  0
  6  7  1  0  0  0  0
  6 38  1  0  0  0  0
  7  8  1  0  0  0  0
  7 14  2  0  0  0  0
  8 13  1  0  0  0  0
  8  9  1  0  0  0  0
  8 22  1  0  0  0  0
  9 10  1  0  0  0  0
  9 23  1  0  0  0  0
  9 24  1  0  0  0  0
 10 11  1  0  0  0  0
 10 25  1  0  0  0  0
 10 26  1  0  0  0  0
 11 12  1  0  0  0  0
 11 27  1  0  0  0  0
 11 28  1  0  0  0  0
 12 13  1  0  0  0  0
 12 29  1  0  0  0  0
 12 30  1  0  0  0  0
 13 31  1  0  0  0  0
 13 32  1  0  0  0  0
 14 15  1  0  0  0  0
 15 33  1  0  0  0  0
 16 21  1  0  0  0  0
 16 17  2  0  0  0  0
 17 18  1  0  0  0  0
 17 34  1  0  0  0  0
 18 19  2  0  0  0  0
 18 35  1  0  0  0  0
 19 20  1  0  0  0  0
 20 21  2  0  0  0  0
 20 36  1  0  0  0  0
 21 37  1  0  0  0  0
M  CHG  1   1  -1
M  END
> <s_m_source_file>
AV-unprocessed.smi

> <i_m_source_file_index>
2557

> <i_lp_mmshare_version>
43012

> <i_f3d_flags>
0

> <s_epik_input>
W2NIXTFbY0hdbltjSF1bY0hdYzFDKD1PKUMyPUMoW09IXSlOPUMoW05IXVtOSF0yKVtDSF0zW0NIMl1bQ0gyXVtDSDJdW0NIMl1bQ0gyXTM=

> <s_epik_cmdline>
J2VwaWtfcHl0aG9uJywgJy1waCcsICc3LjAnLCAnLXRuJywgJzgnLCAnLW1hJywgJzIwMCcsICctbWV0YWxfYmluZGluZycsICctaW1hZScsICc8aW5maWxlLm1hZT4nLCAnLW9tYWUnLCAnPG91dGZpbGUubWFlPic=

> <r_epik_Ionization_Penalty>
0.0900605

> <r_epik_Ionization_Penalty_Charging>
0.000501436

> <r_epik_Ionization_Penalty_Neutral>
0.0895591

> <r_epik_State_Penalty>
0.142021

> <r_epik_Charging_Adjusted_Penalty>
0.142522

> <i_epik_Tot_Q>
-1

> <i_epik_Tot_abs_Q>
1

> <r_epik_Metal_State_Penalty>
0.0730028

> <b_epik_Metal_Only>
0

> <s_epik_Chemistry_Notes>
This compound has an imine and may undergo hydrolysis.

> <s_lp_Force_Field>
OPLS_2005

> <r_lp_Energy>
31.0156

> <b_lp_Chiralities_Consistent>
1

> <s_lp_Variant>
AV-unprocessed.smi:2557-1

> <Gold.Version>
5.8.1

> <Gold.Id.Protein>
6NUR|6NUR_protein|mol2

> <Gold.PLP.Fitness>
39.7965

> <Gold.PLP.PLP>
-37.7006

> <Gold.PLP.part.hbond>
-1.7015

> <Gold.PLP.part.metal>
0.0000

> <Gold.PLP.part.buried>
0.1084

> <Gold.PLP.part.nonpolar>
-36.3602

> <Gold.PLP.part.repulsive>
0.6824

> <Gold.PLP.ligand.clash>
0.0000

> <Gold.PLP.ligand.torsion>
1.5206

> <Gold.PLP.Chemscore.Hbond>
1.0000

> <Gold.PLP.Chemscore.CHOScore>
0.0000

> <Gold.PLP.Chemscore.Metal>
0.0000

> <Gold.Chemscore.Hbonds>
donor molecule, donor type, donor heavy atom, donor atom, acceptor molecule, acceptor atom, score
      L1  H     6    38       P1  8028  1.00

> <Gold.PLP.Chemscore.Internal.Correction>
2.1371

> <Gold.Rescore>
     Score         DG    S(hbond)    S(metal)    S(lipo)     H(rot)  DE(clash)    DE(int)     intcor
     15.97     -18.88       1.00        0.00     107.88       1.00       1.48       1.42       ----

> <Gold.Chemscore.Fitness>
15.9730

> <Gold.Chemscore.DG>
-18.8751

> <Gold.Chemscore.ZeroCoef>
-5.4800

> <Gold.Chemscore.Hbond>
0.9978

> <Gold.Chemscore.Metal>
0.0000

> <Gold.Chemscore.Lipo>
107.8830

> <Gold.Chemscore.Internal_Hbond>
0.0000

> <Gold.Chemscore.DEClash>
1.4825

> <Gold.Chemscore.DEInternal>
1.4195

> <Gold.Chemscore.Rot>
1.0000

> <Gold.Chemscore.Internal.Correction>
   9.000000E+99

> <Gold.Chemscore.Hbonds>
donor molecule, donor type, donor heavy atom, donor atom, acceptor molecule, acceptor atom, score
      L1  H     6    38       P1  8028  0.99

> <Gold.Chemscore.Hbond.Weighted>
-3.3327

> <Gold.Chemscore.Metal.Weighted>
-0.0000

> <Gold.Chemscore.Lipo.Weighted>
-12.6223

> <Gold.Chemscore.Internal_Hbond.Weighted>
0.0000

> <Gold.Chemscore.DEClash.Weighted>
1.4825

> <Gold.Chemscore.DEInternal.Weighted>
1.4195

> <Gold.Chemscore.Rot.Weighted>
2.5600

> <Gold.Chemscore.Internal.Correction.Weighted>
   9.000000E+99

> <Gold.Protein.RotatedTorsions>
[ 6907 6896 6895 6894 ] final  -28.22 input  -60.11 | X-H torsion
[ 7974 7965 7964 7962 ] final    0.32 input  175.53 | X-H torsion
[ 8008 7997 7996 7995 ] final -134.85 input   59.86 | X-H torsion
[ 10167 10162 10161 10158 ] final  100.27 input  -65.29 | X-H torsion
[ 10718 10713 10712 10709 ] final  -14.70 input   66.30 | X-H torsion
[ 10763 10752 10751 10750 ] final  -10.14 input  -60.55 | X-H torsion
[ 11005 11000 10999 10996 ] final    1.89 input  -57.11 | X-H torsion

> <Gold.Protein.ActiveResidues>
 VAL166  LYS551  ARG553  GLY616  TRP617  ASP618  TYR619  PRO620  LYS621  CYS622 
 ASP623  PHE694  ASN695  SER759  ASP760  ASP761  ALA762  ILE779  LEU786  VAL792 
 PHE793  MET794  SER795  GLU796  ALA797  LYS798  CYS799  TRP800  GLU811  SER814 

> <Gold.Protein.RotatedAtoms>
  151.1360  135.0155  159.8603 H   0  0  0  0  0  0  0  0  0  0  0  0  # atno 6907 bound_to 6896
  152.5452  134.1554  159.8546 H   0  0  0  0  0  0  0  0  0  0  0  0  # atno 6908 bound_to 6896
  151.1625  133.4790  159.2627 H   0  0  0  0  0  0  0  0  0  0  0  0  # atno 6909 bound_to 6896
  146.2433  140.1156  142.8342 H   0  0  0  0  0  0  0  0  0  0  0  0  # atno 7974 bound_to 7965
  155.3689  140.0487  157.3045 H   0  0  0  0  0  0  0  0  0  0  0  0  # atno 8008 bound_to 7997
  154.5140  140.2201  155.9065 H   0  0  0  0  0  0  0  0  0  0  0  0  # atno 8009 bound_to 7997
  156.1615  140.3115  155.8821 H   0  0  0  0  0  0  0  0  0  0  0  0  # atno 8010 bound_to 7997
  139.7542  144.6975  151.0387 H   0  0  0  0  0  0  0  0  0  0  0  0  # atno 10167 bound_to 10162
  156.6123  130.4853  149.6197 H   0  0  0  0  0  0  0  0  0  0  0  0  # atno 10718 bound_to 10713
  153.4649  135.7016  153.6028 H   0  0  0  0  0  0  0  0  0  0  0  0  # atno 10763 bound_to 10752
  153.4307  135.3803  155.2168 H   0  0  0  0  0  0  0  0  0  0  0  0  # atno 10764 bound_to 10752
  154.8726  135.3950  154.4079 H   0  0  0  0  0  0  0  0  0  0  0  0  # atno 10765 bound_to 10752
  140.6104  133.9753  155.8175 H   0  0  0  0  0  0  0  0  0  0  0  0  # atno 11005 bound_to 11000
  145.0450  140.8974  143.5030 LP  0  0  0  0  0  0  0  0  0  0  0  0  # atno 17320 bound_to 7965
  145.1243  139.2673  143.5572 LP  0  0  0  0  0  0  0  0  0  0  0  0  # atno 17321 bound_to 7965
  140.7801  143.4773  151.0065 LP  0  0  0  0  0  0  0  0  0  0  0  0  # atno 17342 bound_to 10162
  139.8460  143.7501  152.3179 LP  0  0  0  0  0  0  0  0  0  0  0  0  # atno 17343 bound_to 10162
  156.2380  130.6834  151.1528 LP  0  0  0  0  0  0  0  0  0  0  0  0  # atno 17370 bound_to 10713
  157.7251  131.0655  150.5968 LP  0  0  0  0  0  0  0  0  0  0  0  0  # atno 17371 bound_to 10713
  141.0812  134.0060  157.3383 LP  0  0  0  0  0  0  0  0  0  0  0  0  # atno 17394 bound_to 11000
  139.9194  135.0199  156.8008 LP  0  0  0  0  0  0  0  0  0  0  0  0  # atno 17395 bound_to 11000

$$$$
