AV-unprocessed.smi:435|AV-procd|sdf|2557|dock9
  -GOLD-   2262022523D 1   1.00000     0.00000
 Structure written by MMmdl.
 44 45  0  0  0  0  0  0  0  0  1 V2000
  153.5908  142.2277  161.1597 C   0  0  0  0  0  0  0  0  0  0  0  0
  153.4590  140.7519  160.8955 C   0  0  0  0  0  0  0  0  0  0  0  0
  152.7735  140.4075  159.8553 N   0  0  0  0  0  0  0  0  0  0  0  0
  152.5858  139.0792  159.5249 N   0  0  0  0  0  0  0  0  0  0  0  0
  151.7696  138.8677  158.3205 C   0  0  0  0  0  0  0  0  0  0  0  0
  151.6503  140.1247  157.4471 C   0  0  0  0  0  0  0  0  0  0  0  0
  152.3141  140.2370  156.4155 O   0  0  0  0  0  0  0  0  0  0  0  0
  150.7761  141.0520  157.8664 N   0  0  0  0  0  0  0  0  0  0  0  0
  150.4849  142.3150  157.1905 C   0  0  2  0  0  0  0  0  0  0  0  0
  151.7702  143.1527  157.0471 C   0  0  0  0  0  0  0  0  0  0  0  0
  152.2629  143.7044  158.3970 C   0  0  0  0  0  0  0  0  0  0  0  0
  151.1652  144.5080  159.1201 C   0  0  2  0  0  0  0  0  0  0  0  0
  151.6632  145.0480  160.4681 C   0  0  0  0  0  0  0  0  0  0  0  0
  149.8945  143.6529  159.2890 C   0  0  0  0  0  0  0  0  0  0  0  0
  149.3938  143.1075  157.9396 C   0  0  0  0  0  0  0  0  0  0  0  0
  153.0903  138.0250  160.2289 C   0  0  0  0  0  0  0  0  0  0  0  0
  152.9022  136.8542  159.8942 O   0  0  0  0  0  0  0  0  0  0  0  0
  153.8667  138.4226  161.4053 C   0  0  0  0  0  0  0  0  0  0  0  0
  154.4078  137.3485  162.1740 C   0  0  0  0  0  0  0  0  0  0  0  0
  154.8279  136.4723  162.8033 N   0  0  0  0  0  0  0  0  0  0  0  0
  154.0570  139.7231  161.7409 C   0  0  0  0  0  0  0  0  0  0  0  0
  154.8544  140.1873  162.9520 C   0  0  0  0  0  0  0  0  0  0  0  0
  154.6307  142.5437  161.0762 H   0  0  0  0  0  0  0  0  0  0  0  0
  153.2408  142.4751  162.1620 H   0  0  0  0  0  0  0  0  0  0  0  0
  153.0076  142.8209  160.4533 H   0  0  0  0  0  0  0  0  0  0  0  0
  152.1975  138.0731  157.7068 H   0  0  0  0  0  0  0  0  0  0  0  0
  150.7756  138.5149  158.6029 H   0  0  0  0  0  0  0  0  0  0  0  0
  150.2708  140.8707  158.7217 H   0  0  0  0  0  0  0  0  0  0  0  0
  150.1232  142.0918  156.1851 H   0  0  0  0  0  0  0  0  0  0  0  0
  152.5562  142.5607  156.5763 H   0  0  0  0  0  0  0  0  0  0  0  0
  151.5770  143.9876  156.3726 H   0  0  0  0  0  0  0  0  0  0  0  0
  152.5955  142.8813  159.0307 H   0  0  0  0  0  0  0  0  0  0  0  0
  153.1373  144.3350  158.2327 H   0  0  0  0  0  0  0  0  0  0  0  0
  150.9115  145.3665  158.4965 H   0  0  0  0  0  0  0  0  0  0  0  0
  151.9364  144.2368  161.1437 H   0  0  0  0  0  0  0  0  0  0  0  0
  150.8958  145.6461  160.9597 H   0  0  0  0  0  0  0  0  0  0  0  0
  152.5404  145.6821  160.3367 H   0  0  0  0  0  0  0  0  0  0  0  0
  150.0948  142.8228  159.9681 H   0  0  0  0  0  0  0  0  0  0  0  0
  149.1065  144.2452  159.7555 H   0  0  0  0  0  0  0  0  0  0  0  0
  149.0708  143.9433  157.3175 H   0  0  0  0  0  0  0  0  0  0  0  0
  148.5093  142.4880  158.0918 H   0  0  0  0  0  0  0  0  0  0  0  0
  155.3343  139.3588  163.4722 H   0  0  0  0  0  0  0  0  0  0  0  0
  154.2025  140.6918  163.6660 H   0  0  0  0  0  0  0  0  0  0  0  0
  155.6411  140.8811  162.6537 H   0  0  0  0  0  0  0  0  0  0  0  0
  1  2  1  0  0  0  0
  1 23  1  0  0  0  0
  1 24  1  0  0  0  0
  1 25  1  0  0  0  0
  2 21  1  0  0  0  0
  2  3  2  0  0  0  0
  3  4  1  0  0  0  0
  4  5  1  0  0  0  0
  4 16  1  0  0  0  0
  5  6  1  0  0  0  0
  5 26  1  0  0  0  0
  5 27  1  0  0  0  0
  6  7  2  0  0  0  0
  6  8  1  0  0  0  0
  8  9  1  0  0  0  0
  8 28  1  0  0  0  0
  9 15  1  0  0  0  0
  9 10  1  0  0  0  0
  9 29  1  0  0  0  0
 10 11  1  0  0  0  0
 10 30  1  0  0  0  0
 10 31  1  0  0  0  0
 11 12  1  0  0  0  0
 11 32  1  0  0  0  0
 11 33  1  0  0  0  0
 12 13  1  0  0  0  0
 12 14  1  0  0  0  0
 12 34  1  0  0  0  0
 13 35  1  0  0  0  0
 13 36  1  0  0  0  0
 13 37  1  0  0  0  0
 14 15  1  0  0  0  0
 14 38  1  0  0  0  0
 14 39  1  0  0  0  0
 15 40  1  0  0  0  0
 15 41  1  0  0  0  0
 16 17  2  0  0  0  0
 16 18  1  0  0  0  0
 18 19  1  0  0  0  0
 18 21  2  0  0  0  0
 19 20  3  0  0  0  0
 21 22  1  0  0  0  0
 22 42  1  0  0  0  0
 22 43  1  0  0  0  0
 22 44  1  0  0  0  0
M  END
> <s_m_source_file>
AV-unprocessed.smi

> <i_m_source_file_index>
435

> <i_lp_mmshare_version>
43012

> <i_f3d_flags>
0

> <s_epik_input>
TiNDYyhjMVtDSDNdKWMoPU8pbihuYzFbQ0gzXSlbQ0gyXUMoPU8pW05IXVtDQEBIXTJbQ0gyXVtDSDJdW0NAQEhdKFtDSDNdKVtDSDJdW0NIMl0y

> <s_epik_cmdline>
J2VwaWtfcHl0aG9uJywgJy1waCcsICc3LjAnLCAnLXRuJywgJzgnLCAnLW1hJywgJzIwMCcsICctbWV0YWxfYmluZGluZycsICctaW1hZScsICc8aW5maWxlLm1hZT4nLCAnLW9tYWUnLCAnPG91dGZpbGUubWFlPic=

> <r_lp_tautomer_probability>
1

> <r_epik_Ionization_Penalty>
1.90703e-08

> <r_epik_Ionization_Penalty_Charging>
2.32563e-11

> <r_epik_Ionization_Penalty_Neutral>
1.90471e-08

> <r_epik_State_Penalty>
-0

> <r_epik_Charging_Adjusted_Penalty>
2.32563e-11

> <i_epik_Tot_Q>
0

> <i_epik_Tot_abs_Q>
0

> <r_epik_Metal_State_Penalty>
-0

> <b_epik_Metal_Only>
0

> <s_lp_Force_Field>
OPLS_2005

> <r_lp_Energy>
22.9488

> <b_lp_Chiralities_Consistent>
1

> <s_lp_Variant>
AV-unprocessed.smi:435-2

> <Gold.Version>
5.8.1

> <Gold.Id.Protein>
6NUR|6NUR_protein|mol2

> <Gold.PLP.Fitness>
40.2378

> <Gold.PLP.PLP>
-35.2121

> <Gold.PLP.part.hbond>
-2.0000

> <Gold.PLP.part.metal>
0.0000

> <Gold.PLP.part.buried>
-2.7414

> <Gold.PLP.part.nonpolar>
-30.3364

> <Gold.PLP.part.repulsive>
0.0874

> <Gold.PLP.ligand.clash>
0.0000

> <Gold.PLP.ligand.torsion>
0.4779

> <Gold.PLP.Chemscore.Hbond>
1.9913

> <Gold.PLP.Chemscore.CHOScore>
0.0000

> <Gold.PLP.Chemscore.Metal>
0.0000

> <Gold.Chemscore.Hbonds>
donor molecule, donor type, donor heavy atom, donor atom, acceptor molecule, acceptor atom, score
      P1  H  6896  6909       L1    17  1.00
      P1  H  7997  8008       L1     7  1.00

> <Gold.PLP.Chemscore.Internal.Correction>
0.0078

> <Gold.Rescore>
     Score         DG    S(hbond)    S(metal)    S(lipo)     H(rot)  DE(clash)    DE(int)     intcor
     19.10     -21.19       1.97        0.00     110.10       1.46       1.58       0.52       ----

> <Gold.Chemscore.Fitness>
19.0966

> <Gold.Chemscore.DG>
-21.1895

> <Gold.Chemscore.ZeroCoef>
-5.4800

> <Gold.Chemscore.Hbond>
1.9670

> <Gold.Chemscore.Metal>
0.0000

> <Gold.Chemscore.Lipo>
110.0953

> <Gold.Chemscore.Internal_Hbond>
0.0000

> <Gold.Chemscore.DEClash>
1.5773

> <Gold.Chemscore.DEInternal>
0.5156

> <Gold.Chemscore.Rot>
1.4615

> <Gold.Chemscore.Internal.Correction>
   9.000000E+99

> <Gold.Chemscore.Hbonds>
donor molecule, donor type, donor heavy atom, donor atom, acceptor molecule, acceptor atom, score
      P1  H  6896  6909       L1    17  0.96
      P1  H  7997  8008       L1     7  0.92

> <Gold.Chemscore.Hbond.Weighted>
-6.5697

> <Gold.Chemscore.Metal.Weighted>
-0.0000

> <Gold.Chemscore.Lipo.Weighted>
-12.8812

> <Gold.Chemscore.Internal_Hbond.Weighted>
0.0000

> <Gold.Chemscore.DEClash.Weighted>
1.5773

> <Gold.Chemscore.DEInternal.Weighted>
0.5156

> <Gold.Chemscore.Rot.Weighted>
3.7414

> <Gold.Chemscore.Internal.Correction.Weighted>
   9.000000E+99

> <Gold.Protein.RotatedTorsions>
[ 6907 6896 6895 6894 ] final  147.61 input  -60.11 | X-H torsion
[ 7974 7965 7964 7962 ] final   93.41 input  175.53 | X-H torsion
[ 8008 7997 7996 7995 ] final  -46.02 input   59.86 | X-H torsion
[ 10167 10162 10161 10158 ] final  172.92 input  -65.29 | X-H torsion
[ 10718 10713 10712 10709 ] final -152.68 input   66.30 | X-H torsion
[ 10763 10752 10751 10750 ] final   27.26 input  -60.55 | X-H torsion
[ 11005 11000 10999 10996 ] final  -37.98 input  -57.11 | X-H torsion

> <Gold.Protein.ActiveResidues>
 VAL166  LYS551  ARG553  GLY616  TRP617  ASP618  TYR619  PRO620  LYS621  CYS622 
 ASP623  PHE694  ASN695  SER759  ASP760  ASP761  ALA762  ILE779  LEU786  VAL792 
 PHE793  MET794  SER795  GLU796  ALA797  LYS798  CYS799  TRP800  GLU811  SER814 

> <Gold.Protein.RotatedAtoms>
  152.1525  133.4531  159.4820 H   0  0  0  0  0  0  0  0  0  0  0  0  # atno 6907 bound_to 6896
  150.6897  134.2171  159.4391 H   0  0  0  0  0  0  0  0  0  0  0  0  # atno 6908 bound_to 6896
  152.0069  134.9897  160.0617 H   0  0  0  0  0  0  0  0  0  0  0  0  # atno 6909 bound_to 6896
  145.4793  139.2279  143.2891 H   0  0  0  0  0  0  0  0  0  0  0  0  # atno 7974 bound_to 7965
  154.4004  140.1382  156.3943 H   0  0  0  0  0  0  0  0  0  0  0  0  # atno 8008 bound_to 7997
  155.7884  140.3479  155.5315 H   0  0  0  0  0  0  0  0  0  0  0  0  # atno 8009 bound_to 7997
  155.8604  140.0955  157.1607 H   0  0  0  0  0  0  0  0  0  0  0  0  # atno 8010 bound_to 7997
  139.5092  144.3319  152.0103 H   0  0  0  0  0  0  0  0  0  0  0  0  # atno 10167 bound_to 10162
  156.4757  130.8279  151.2508 H   0  0  0  0  0  0  0  0  0  0  0  0  # atno 10718 bound_to 10713
  153.0568  135.6541  154.0559 H   0  0  0  0  0  0  0  0  0  0  0  0  # atno 10763 bound_to 10752
  154.0235  135.2918  155.3379 H   0  0  0  0  0  0  0  0  0  0  0  0  # atno 10764 bound_to 10752
  154.6886  135.5291  153.8429 H   0  0  0  0  0  0  0  0  0  0  0  0  # atno 10765 bound_to 10752
  140.9993  133.6964  156.1992 H   0  0  0  0  0  0  0  0  0  0  0  0  # atno 11005 bound_to 11000
  146.2350  140.5578  142.8958 LP  0  0  0  0  0  0  0  0  0  0  0  0  # atno 17320 bound_to 7965
  144.7898  140.6010  143.6549 LP  0  0  0  0  0  0  0  0  0  0  0  0  # atno 17321 bound_to 7965
  140.2758  144.3914  150.6135 LP  0  0  0  0  0  0  0  0  0  0  0  0  # atno 17342 bound_to 10162
  140.6054  143.2167  151.6990 LP  0  0  0  0  0  0  0  0  0  0  0  0  # atno 17343 bound_to 10162
  157.7487  131.0061  150.3140 LP  0  0  0  0  0  0  0  0  0  0  0  0  # atno 17370 bound_to 10713
  156.3573  130.3841  149.7280 LP  0  0  0  0  0  0  0  0  0  0  0  0  # atno 17371 bound_to 10713
  140.6915  134.4661  157.5588 LP  0  0  0  0  0  0  0  0  0  0  0  0  # atno 17394 bound_to 11000
  139.9030  134.8512  156.1816 LP  0  0  0  0  0  0  0  0  0  0  0  0  # atno 17395 bound_to 11000

$$$$
