AV-unprocessed.smi:2059|AV-procd|sdf|8352|dock10
  -GOLD-   2272011 23D 1   1.00000     0.00000
 Structure written by MMmdl.
 29 30  0  0  0  0  0  0  0  0  2 V2000
  153.1749  142.6457  161.0948 C   0  0  0  0  0  0  0  0  0  0  0  0
  152.9018  141.8335  159.8755 C   0  0  0  0  0  0  0  0  0  0  0  0
  152.0309  141.9835  158.8335 C   0  0  0  0  0  0  0  0  0  0  0  0
  152.2949  140.8471  158.0219 C   0  0  0  0  0  0  0  0  0  0  0  0
  151.5652  140.6502  156.8141 N   0  0  0  0  0  0  0  0  0  0  0  0
  151.7997  139.8597  155.7444 C   0  0  0  0  0  0  0  0  0  0  0  0
  152.8286  139.1797  155.8140 O   0  0  0  0  0  0  0  0  0  0  0  0
  150.9061  139.8807  154.7130 N   0  5  0  0  0  0  0  0  0  0  0  0
  149.4766  140.1750  154.8369 C   0  0  2  0  0  0  0  0  0  0  0  0
  148.7406  139.8679  153.5179 C   0  0  0  0  0  0  0  0  0  0  0  0
  147.3460  140.5084  153.5722 C   0  0  0  0  0  0  0  0  0  0  0  0
  147.5327  142.0246  154.5886 S   0  0  0  0  0  0  0  0  0  0  0  0
  147.5651  143.2049  153.7106 O   0  0  0  0  0  0  0  0  0  0  0  0
  146.5977  141.9571  155.7228 O   0  0  0  0  0  0  0  0  0  0  0  0
  149.2363  141.6568  155.1657 C   0  0  0  0  0  0  0  0  0  0  0  0
  153.2484  140.0767  158.5273 N   0  0  0  0  0  0  0  0  0  0  0  0
  153.6409  140.7034  159.7157 O   0  0  0  0  0  0  0  0  0  0  0  0
  152.4517  143.4552  161.1941 H   0  0  0  0  0  0  0  0  0  0  0  0
  154.1713  143.0854  161.0501 H   0  0  0  0  0  0  0  0  0  0  0  0
  153.1160  142.0285  161.9916 H   0  0  0  0  0  0  0  0  0  0  0  0
  151.3176  142.7792  158.6785 H   0  0  0  0  0  0  0  0  0  0  0  0
  150.7194  141.1963  156.7472 H   0  0  0  0  0  0  0  0  0  0  0  0
  149.0037  139.5761  155.6171 H   0  0  0  0  0  0  0  0  0  0  0  0
  149.2922  140.3057  152.6841 H   0  0  0  0  0  0  0  0  0  0  0  0
  148.6783  138.7957  153.3289 H   0  0  0  0  0  0  0  0  0  0  0  0
  146.9605  140.7626  152.5850 H   0  0  0  0  0  0  0  0  0  0  0  0
  146.6277  139.8526  154.0667 H   0  0  0  0  0  0  0  0  0  0  0  0
  149.3317  141.8763  156.2291 H   0  0  0  0  0  0  0  0  0  0  0  0
  149.9207  142.3015  154.6132 H   0  0  0  0  0  0  0  0  0  0  0  0
  1  2  1  0  0  0  0
  1 18  1  0  0  0  0
  1 19  1  0  0  0  0
  1 20  1  0  0  0  0
  2 17  1  0  0  0  0
  2  3  2  0  0  0  0
  3  4  1  0  0  0  0
  3 21  1  0  0  0  0
  4  5  1  0  0  0  0
  4 16  2  0  0  0  0
  5  6  1  0  0  0  0
  5 22  1  0  0  0  0
  6  7  2  0  0  0  0
  6  8  1  0  0  0  0
  8  9  1  0  0  0  0
  9 15  1  0  0  0  0
  9 10  1  0  0  0  0
  9 23  1  0  0  0  0
 10 11  1  0  0  0  0
 10 24  1  0  0  0  0
 10 25  1  0  0  0  0
 11 12  1  0  0  0  0
 11 26  1  0  0  0  0
 11 27  1  0  0  0  0
 12 13  2  0  0  0  0
 12 14  2  0  0  0  0
 12 15  1  0  0  0  0
 15 28  1  0  0  0  0
 15 29  1  0  0  0  0
 16 17  1  0  0  0  0
M  CHG  1   8  -1
M  END
> <s_m_source_file>
AV-unprocessed.smi

> <i_m_source_file_index>
2059

> <i_lp_mmshare_version>
43012

> <i_f3d_flags>
0

> <s_epik_input>
W0NIM11jMVtjSF1jKG5vMSlbTkhdQyg9TylbTkhdW0NAQEhdKFtDSDJdMilbQ0gyXVtDSDJdUzIoPU8pPU8=

> <s_epik_cmdline>
J2VwaWtfcHl0aG9uJywgJy1waCcsICc3LjAnLCAnLXRuJywgJzgnLCAnLW1hJywgJzIwMCcsICctbWV0YWxfYmluZGluZycsICctaW1hZScsICc8aW5maWxlLm1hZT4nLCAnLW9tYWUnLCAnPG91dGZpbGUubWFlPic=

> <r_lp_tautomer_probability>
1

> <r_epik_Ionization_Penalty>
6.6071

> <r_epik_Ionization_Penalty_Charging>
6.60709

> <r_epik_Ionization_Penalty_Neutral>
5.42629e-06

> <r_epik_State_Penalty>
6.6352

> <r_epik_Charging_Adjusted_Penalty>
13.2423

> <i_epik_Tot_Q>
-1

> <i_epik_Tot_abs_Q>
1

> <r_epik_Metal_State_Penalty>
2.57602

> <b_epik_Metal_Only>
1

> <s_lp_Force_Field>
OPLS_2005

> <r_lp_Energy>
11.3724

> <b_lp_Chiralities_Consistent>
1

> <s_lp_Variant>
AV-unprocessed.smi:2059-5

> <Gold.Version>
5.8.1

> <Gold.Id.Protein>
6NUR|6NUR_protein|mol2

> <Gold.PLP.Fitness>
33.5027

> <Gold.PLP.PLP>
-26.7131

> <Gold.PLP.part.hbond>
-4.5885

> <Gold.PLP.part.metal>
0.0000

> <Gold.PLP.part.buried>
2.4526

> <Gold.PLP.part.nonpolar>
-25.5795

> <Gold.PLP.part.repulsive>
2.1535

> <Gold.PLP.ligand.clash>
0.0000

> <Gold.PLP.ligand.torsion>
0.3288

> <Gold.PLP.Chemscore.Hbond>
2.4817

> <Gold.PLP.Chemscore.CHOScore>
0.0000

> <Gold.PLP.Chemscore.Metal>
0.0000

> <Gold.Chemscore.Hbonds>
donor molecule, donor type, donor heavy atom, donor atom, acceptor molecule, acceptor atom, score
      P1  H  7989  7998       L1     8  1.00
      P1  H  7997  8009       L1    16  1.00
      P1  H  7997  8010       L1     7  0.01
      P1  H  8022  8030       L1    13  0.54

> <Gold.PLP.Chemscore.Internal.Correction>
0.0023

> <Gold.Rescore>
     Score         DG    S(hbond)    S(metal)    S(lipo)     H(rot)  DE(clash)    DE(int)     intcor
      9.03     -14.59       1.48        0.00      57.58       1.00       2.97       2.58       ----

> <Gold.Chemscore.Fitness>
9.0350

> <Gold.Chemscore.DG>
-14.5883

> <Gold.Chemscore.ZeroCoef>
-5.4800

> <Gold.Chemscore.Hbond>
1.4764

> <Gold.Chemscore.Metal>
0.0000

> <Gold.Chemscore.Lipo>
57.5818

> <Gold.Chemscore.Internal_Hbond>
0.0000

> <Gold.Chemscore.DEClash>
2.9728

> <Gold.Chemscore.DEInternal>
2.5805

> <Gold.Chemscore.Rot>
1.0000

> <Gold.Chemscore.Internal.Correction>
   9.000000E+99

> <Gold.Chemscore.Hbonds>
donor molecule, donor type, donor heavy atom, donor atom, acceptor molecule, acceptor atom, score
      P1  H  7989  7998       L1     8  0.39
      P1  H  7997  8009       L1    16  0.42
      P1  H  7997  8010       L1     7  0.02
      P1  H  8022  8030       L1    13  0.54

> <Gold.Chemscore.Hbond.Weighted>
-4.9313

> <Gold.Chemscore.Metal.Weighted>
-0.0000

> <Gold.Chemscore.Lipo.Weighted>
-6.7371

> <Gold.Chemscore.Internal_Hbond.Weighted>
0.0000

> <Gold.Chemscore.DEClash.Weighted>
2.9728

> <Gold.Chemscore.DEInternal.Weighted>
2.5805

> <Gold.Chemscore.Rot.Weighted>
2.5600

> <Gold.Chemscore.Internal.Correction.Weighted>
   9.000000E+99

> <Gold.Protein.RotatedTorsions>
[ 6907 6896 6895 6894 ] final  105.91 input  -60.11 | X-H torsion
[ 7974 7965 7964 7962 ] final   47.64 input  175.53 | X-H torsion
[ 8008 7997 7996 7995 ] final  144.42 input   59.86 | X-H torsion
[ 10167 10162 10161 10158 ] final   75.53 input  -65.29 | X-H torsion
[ 10718 10713 10712 10709 ] final -147.55 input   66.30 | X-H torsion
[ 10763 10752 10751 10750 ] final   51.76 input  -60.55 | X-H torsion
[ 11005 11000 10999 10996 ] final  168.57 input  -57.11 | X-H torsion

> <Gold.Protein.ActiveResidues>
 VAL166  LYS551  ARG553  GLY616  TRP617  ASP618  TYR619  PRO620  LYS621  CYS622 
 ASP623  PHE694  ASN695  SER759  ASP760  ASP761  ALA762  ILE779  LEU786  VAL792 
 PHE793  MET794  SER795  GLU796  ALA797  LYS798  CYS799  TRP800  GLU811  SER814 

> <Gold.Protein.RotatedAtoms>
  152.5213  133.9458  159.7648 H   0  0  0  0  0  0  0  0  0  0  0  0  # atno 6907 bound_to 6896
  150.9779  133.6268  159.2734 H   0  0  0  0  0  0  0  0  0  0  0  0  # atno 6908 bound_to 6896
  151.3456  135.0879  159.9439 H   0  0  0  0  0  0  0  0  0  0  0  0  # atno 6909 bound_to 6896
  146.0278  139.4728  142.9856 H   0  0  0  0  0  0  0  0  0  0  0  0  # atno 7974 bound_to 7965
  156.2908  140.2236  156.5050 H   0  0  0  0  0  0  0  0  0  0  0  0  # atno 8008 bound_to 7997
  154.7657  140.0470  157.1032 H   0  0  0  0  0  0  0  0  0  0  0  0  # atno 8009 bound_to 7997
  154.9936  140.3093  155.4899 H   0  0  0  0  0  0  0  0  0  0  0  0  # atno 8010 bound_to 7997
  140.0020  144.5679  150.7729 H   0  0  0  0  0  0  0  0  0  0  0  0  # atno 10167 bound_to 10162
  156.4090  130.7972  151.2188 H   0  0  0  0  0  0  0  0  0  0  0  0  # atno 10718 bound_to 10713
  152.9786  135.5835  154.4469 H   0  0  0  0  0  0  0  0  0  0  0  0  # atno 10763 bound_to 10752
  154.4063  135.2769  155.2067 H   0  0  0  0  0  0  0  0  0  0  0  0  # atno 10764 bound_to 10752
  154.3876  135.6132  153.5879 H   0  0  0  0  0  0  0  0  0  0  0  0  # atno 10765 bound_to 10752
  140.2886  134.7692  157.3819 H   0  0  0  0  0  0  0  0  0  0  0  0  # atno 11005 bound_to 11000
  145.7089  141.0112  143.1464 LP  0  0  0  0  0  0  0  0  0  0  0  0  # atno 17320 bound_to 7965
  144.7017  139.8733  143.7442 LP  0  0  0  0  0  0  0  0  0  0  0  0  # atno 17321 bound_to 7965
  140.7415  143.2819  151.3574 LP  0  0  0  0  0  0  0  0  0  0  0  0  # atno 17342 bound_to 10162
  139.6265  144.0804  152.2438 LP  0  0  0  0  0  0  0  0  0  0  0  0  # atno 17343 bound_to 10162
  157.7506  131.0263  150.3958 LP  0  0  0  0  0  0  0  0  0  0  0  0  # atno 17370 bound_to 10713
  156.4253  130.3961  149.6797 LP  0  0  0  0  0  0  0  0  0  0  0  0  # atno 17371 bound_to 10713
  140.1216  134.5212  155.8179 LP  0  0  0  0  0  0  0  0  0  0  0  0  # atno 17394 bound_to 11000
  141.2150  133.6758  156.6876 LP  0  0  0  0  0  0  0  0  0  0  0  0  # atno 17395 bound_to 11000

$$$$
