AV-unprocessed.smi:2168|AV-procd|sdf|8819|dock4
  -GOLD-   2272012 13D 1   1.00000     0.00000
 Structure written by MMmdl.
 47 48  0  0  0  0  0  0  0  0  2 V2000
  146.6484  138.8245  151.7292 C   0  0  0  0  0  0  0  0  0  0  0  0
  145.8473  137.5991  152.1930 C   0  0  0  0  0  0  0  0  0  0  0  0
  146.1453  137.2123  153.5853 N   0  0  0  0  0  0  0  0  0  0  0  0
  146.1106  135.7700  153.8988 C   0  0  0  0  0  0  0  0  0  0  0  0
  146.0568  134.8838  152.6439 C   0  0  0  0  0  0  0  0  0  0  0  0
  146.9449  138.3264  154.6526 S   0  0  0  0  0  0  0  0  0  0  0  0
  146.4442  139.6860  154.3996 O   0  0  0  0  0  0  0  0  0  0  0  0
  146.9516  137.7633  156.0118 O   0  0  0  0  0  0  0  0  0  0  0  0
  148.5448  138.2281  154.0189 N   0  0  0  0  0  0  0  0  0  0  0  0
  149.2024  139.4384  153.5331 C   0  0  0  0  0  0  0  0  0  0  0  0
  149.8603  140.2247  154.6507 C   0  0  0  0  0  0  0  0  0  0  0  0
  150.9204  139.6692  155.3965 C   0  0  0  0  0  0  0  0  0  0  0  0
  151.5290  140.4342  156.4129 C   0  0  0  0  0  0  0  0  0  0  0  0
  151.0739  141.7495  156.6755 C   0  0  0  0  0  0  0  0  0  0  0  0
  151.6521  142.5643  157.6729 N   0  0  0  0  0  0  0  0  0  0  0  0
  151.5862  142.0512  159.0389 C   0  0  0  0  0  0  0  0  0  0  0  0
  152.5168  142.8586  159.9597 C   0  0  0  0  0  0  0  0  0  0  0  0
  152.2001  144.2434  159.8690 O   0  0  0  0  0  0  0  0  0  0  0  0
  152.3904  144.7448  158.5508 C   0  0  0  0  0  0  0  0  0  0  0  0
  151.4537  144.0092  157.5779 C   0  0  0  0  0  0  0  0  0  0  0  0
  150.0513  142.2356  155.9280 N   0  3  0  0  0  0  0  0  0  0  0  0
  149.4382  141.5360  154.9493 C   0  0  0  0  0  0  0  0  0  0  0  0
  146.3616  139.1043  150.7154 H   0  0  0  0  0  0  0  0  0  0  0  0
  147.7193  138.6235  151.7164 H   0  0  0  0  0  0  0  0  0  0  0  0
  146.4716  139.6894  152.3677 H   0  0  0  0  0  0  0  0  0  0  0  0
  144.7809  137.7991  152.0918 H   0  0  0  0  0  0  0  0  0  0  0  0
  146.0575  136.7533  151.5376 H   0  0  0  0  0  0  0  0  0  0  0  0
  146.9974  135.5197  154.4815 H   0  0  0  0  0  0  0  0  0  0  0  0
  145.2560  135.5534  154.5407 H   0  0  0  0  0  0  0  0  0  0  0  0
  145.9502  133.8354  152.9227 H   0  0  0  0  0  0  0  0  0  0  0  0
  146.9700  134.9670  152.0556 H   0  0  0  0  0  0  0  0  0  0  0  0
  145.2178  135.1385  151.9976 H   0  0  0  0  0  0  0  0  0  0  0  0
  148.7028  137.4045  153.4385 H   0  0  0  0  0  0  0  0  0  0  0  0
  149.9700  139.1531  152.8134 H   0  0  0  0  0  0  0  0  0  0  0  0
  148.4789  140.0537  152.9966 H   0  0  0  0  0  0  0  0  0  0  0  0
  151.2753  138.6706  155.1865 H   0  0  0  0  0  0  0  0  0  0  0  0
  152.3538  140.0074  156.9634 H   0  0  0  0  0  0  0  0  0  0  0  0
  150.5571  142.1249  159.3926 H   0  0  0  0  0  0  0  0  0  0  0  0
  151.8659  141.0002  159.0909 H   0  0  0  0  0  0  0  0  0  0  0  0
  152.3953  142.5341  160.9931 H   0  0  0  0  0  0  0  0  0  0  0  0
  153.5630  142.6948  159.6960 H   0  0  0  0  0  0  0  0  0  0  0  0
  152.1762  145.8135  158.5424 H   0  0  0  0  0  0  0  0  0  0  0  0
  153.4333  144.6269  158.2517 H   0  0  0  0  0  0  0  0  0  0  0  0
  151.6515  144.3535  156.5621 H   0  0  0  0  0  0  0  0  0  0  0  0
  150.4143  144.2470  157.8082 H   0  0  0  0  0  0  0  0  0  0  0  0
  148.6418  142.0486  154.4294 H   0  0  0  0  0  0  0  0  0  0  0  0
  149.7261  143.1842  156.1146 H   0  0  0  0  0  0  0  0  0  0  0  0
  1  2  1  0  0  0  0
  1 23  1  0  0  0  0
  1 24  1  0  0  0  0
  1 25  1  0  0  0  0
  2  3  1  0  0  0  0
  2 26  1  0  0  0  0
  2 27  1  0  0  0  0
  3  4  1  0  0  0  0
  3  6  1  0  0  0  0
  4  5  1  0  0  0  0
  4 28  1  0  0  0  0
  4 29  1  0  0  0  0
  5 30  1  0  0  0  0
  5 31  1  0  0  0  0
  5 32  1  0  0  0  0
  6  7  2  0  0  0  0
  6  8  2  0  0  0  0
  6  9  1  0  0  0  0
  9 10  1  0  0  0  0
  9 33  1  0  0  0  0
 10 11  1  0  0  0  0
 10 34  1  0  0  0  0
 10 35  1  0  0  0  0
 11 22  1  0  0  0  0
 11 12  2  0  0  0  0
 12 13  1  0  0  0  0
 12 36  1  0  0  0  0
 13 14  2  0  0  0  0
 13 37  1  0  0  0  0
 14 15  1  0  0  0  0
 14 21  1  0  0  0  0
 15 20  1  0  0  0  0
 15 16  1  0  0  0  0
 16 17  1  0  0  0  0
 16 38  1  0  0  0  0
 16 39  1  0  0  0  0
 17 18  1  0  0  0  0
 17 40  1  0  0  0  0
 17 41  1  0  0  0  0
 18 19  1  0  0  0  0
 19 20  1  0  0  0  0
 19 42  1  0  0  0  0
 19 43  1  0  0  0  0
 20 44  1  0  0  0  0
 20 45  1  0  0  0  0
 21 22  2  0  0  0  0
 21 47  1  0  0  0  0
 22 46  1  0  0  0  0
M  CHG  1  21   1
M  END
> <s_m_source_file>
AV-unprocessed.smi

> <i_m_source_file_index>
2168

> <i_lp_mmshare_version>
43012

> <i_f3d_flags>
0

> <s_epik_input>
W0NIM11bQ0gyXU4oW0NIMl1bQ0gzXSlTKD1PKSg9TylbTkhdW0NIMl1jMVtjSF1bY0hdYyhuW2NIXTEpTjJbQ0gyXVtDSDJdT1tDSDJdW0NIMl0y

> <s_epik_cmdline>
J2VwaWtfcHl0aG9uJywgJy1waCcsICc3LjAnLCAnLXRuJywgJzgnLCAnLW1hJywgJzIwMCcsICctbWV0YWxfYmluZGluZycsICctaW1hZScsICc8aW5maWxlLm1hZT4nLCAnLW9tYWUnLCAnPG91dGZpbGUubWFlPic=

> <r_lp_tautomer_probability>
0.999994

> <r_epik_Ionization_Penalty>
2.66893

> <r_epik_Ionization_Penalty_Charging>
2.61323

> <r_epik_Ionization_Penalty_Neutral>
0.0557011

> <r_epik_State_Penalty>
2.68492

> <r_epik_Charging_Adjusted_Penalty>
5.29815

> <i_epik_Tot_Q>
1

> <i_epik_Tot_abs_Q>
1

> <r_epik_Metal_State_Penalty>
5.63236

> <b_epik_Metal_Only>
0

> <s_lp_Force_Field>
OPLS_2005

> <r_lp_Energy>
21.5493

> <b_lp_Chiralities_Consistent>
1

> <s_lp_Variant>
AV-unprocessed.smi:2168-2

> <Gold.Version>
5.8.1

> <Gold.Id.Protein>
6NUR|6NUR_protein|mol2

> <Gold.PLP.Fitness>
46.6499

> <Gold.PLP.PLP>
-38.7914

> <Gold.PLP.part.hbond>
-2.0000

> <Gold.PLP.part.metal>
0.0000

> <Gold.PLP.part.buried>
1.5963

> <Gold.PLP.part.nonpolar>
-39.6873

> <Gold.PLP.part.repulsive>
0.3111

> <Gold.PLP.ligand.clash>
0.0000

> <Gold.PLP.ligand.torsion>
1.9956

> <Gold.PLP.Chemscore.Hbond>
3.0000

> <Gold.PLP.Chemscore.CHOScore>
0.0000

> <Gold.PLP.Chemscore.Metal>
0.0000

> <Gold.Chemscore.Hbonds>
donor molecule, donor type, donor heavy atom, donor atom, acceptor molecule, acceptor atom, score
      L1  H     9    33       P1  7948  1.00
      L1  H    21    47       P1  8028  2.00

> <Gold.PLP.Chemscore.Internal.Correction>
2.8497

> <Gold.Rescore>
     Score         DG    S(hbond)    S(metal)    S(lipo)     H(rot)  DE(clash)    DE(int)     intcor
     14.09     -19.20       1.99        0.00     104.08       1.99       1.78       3.32       ----

> <Gold.Chemscore.Fitness>
14.0919

> <Gold.Chemscore.DG>
-19.1979

> <Gold.Chemscore.ZeroCoef>
-5.4800

> <Gold.Chemscore.Hbond>
1.9891

> <Gold.Chemscore.Metal>
0.0000

> <Gold.Chemscore.Lipo>
104.0758

> <Gold.Chemscore.Internal_Hbond>
0.0000

> <Gold.Chemscore.DEClash>
1.7840

> <Gold.Chemscore.DEInternal>
3.3221

> <Gold.Chemscore.Rot>
1.9932

> <Gold.Chemscore.Internal.Correction>
   9.000000E+99

> <Gold.Chemscore.Hbonds>
donor molecule, donor type, donor heavy atom, donor atom, acceptor molecule, acceptor atom, score
      L1  H     9    33       P1  7948  0.98
      L1  H    21    47       P1  8028  0.97

> <Gold.Chemscore.Hbond.Weighted>
-6.6436

> <Gold.Chemscore.Metal.Weighted>
-0.0000

> <Gold.Chemscore.Lipo.Weighted>
-12.1769

> <Gold.Chemscore.Internal_Hbond.Weighted>
0.0000

> <Gold.Chemscore.DEClash.Weighted>
1.7840

> <Gold.Chemscore.DEInternal.Weighted>
3.3221

> <Gold.Chemscore.Rot.Weighted>
5.1025

> <Gold.Chemscore.Internal.Correction.Weighted>
   9.000000E+99

> <Gold.Protein.RotatedTorsions>
[ 6907 6896 6895 6894 ] final   34.07 input  -60.11 | X-H torsion
[ 7974 7965 7964 7962 ] final  121.36 input  175.53 | X-H torsion
[ 8008 7997 7996 7995 ] final  -11.85 input   59.86 | X-H torsion
[ 10167 10162 10161 10158 ] final  110.79 input  -65.29 | X-H torsion
[ 10718 10713 10712 10709 ] final  160.06 input   66.30 | X-H torsion
[ 10763 10752 10751 10750 ] final  145.70 input  -60.55 | X-H torsion
[ 11005 11000 10999 10996 ] final  -27.80 input  -57.11 | X-H torsion

> <Gold.Protein.ActiveResidues>
 VAL166  LYS551  ARG553  GLY616  TRP617  ASP618  TYR619  PRO620  LYS621  CYS622 
 ASP623  PHE694  ASN695  SER759  ASP760  ASP761  ALA762  ILE779  LEU786  VAL792 
 PHE793  MET794  SER795  GLU796  ALA797  LYS798  CYS799  TRP800  GLU811  SER814 

> <Gold.Protein.RotatedAtoms>
  152.0973  134.9366  160.0570 H   0  0  0  0  0  0  0  0  0  0  0  0  # atno 6907 bound_to 6896
  152.0594  133.4050  159.4419 H   0  0  0  0  0  0  0  0  0  0  0  0  # atno 6908 bound_to 6896
  150.6838  134.3137  159.4801 H   0  0  0  0  0  0  0  0  0  0  0  0  # atno 6909 bound_to 6896
  145.1203  139.3393  143.4718 H   0  0  0  0  0  0  0  0  0  0  0  0  # atno 7974 bound_to 7965
  154.5428  140.2291  155.8612 H   0  0  0  0  0  0  0  0  0  0  0  0  # atno 8008 bound_to 7997
  156.1875  140.3085  155.9229 H   0  0  0  0  0  0  0  0  0  0  0  0  # atno 8009 bound_to 7997
  155.3223  140.0441  157.3030 H   0  0  0  0  0  0  0  0  0  0  0  0  # atno 8010 bound_to 7997
  139.6661  144.7127  151.1774 H   0  0  0  0  0  0  0  0  0  0  0  0  # atno 10167 bound_to 10162
  157.1556  131.0574  151.2258 H   0  0  0  0  0  0  0  0  0  0  0  0  # atno 10718 bound_to 10713
  154.0097  135.2915  155.3394 H   0  0  0  0  0  0  0  0  0  0  0  0  # atno 10763 bound_to 10752
  154.7111  135.5149  153.8670 H   0  0  0  0  0  0  0  0  0  0  0  0  # atno 10764 bound_to 10752
  153.0729  135.6653  154.0329 H   0  0  0  0  0  0  0  0  0  0  0  0  # atno 10765 bound_to 10752
  140.9151  133.7435  156.0724 H   0  0  0  0  0  0  0  0  0  0  0  0  # atno 11005 bound_to 11000
  146.3521  140.1159  142.8602 LP  0  0  0  0  0  0  0  0  0  0  0  0  # atno 17320 bound_to 7965
  145.0748  140.9180  143.4860 LP  0  0  0  0  0  0  0  0  0  0  0  0  # atno 17321 bound_to 7965
  140.7600  143.5917  150.8789 LP  0  0  0  0  0  0  0  0  0  0  0  0  # atno 17342 bound_to 10162
  139.9579  143.6198  152.3011 LP  0  0  0  0  0  0  0  0  0  0  0  0  # atno 17343 bound_to 10162
  157.4180  130.7422  149.6891 LP  0  0  0  0  0  0  0  0  0  0  0  0  # atno 17370 bound_to 10713
  155.9763  130.4078  150.3791 LP  0  0  0  0  0  0  0  0  0  0  0  0  # atno 17371 bound_to 10713
  140.8060  134.3454  157.5426 LP  0  0  0  0  0  0  0  0  0  0  0  0  # atno 17394 bound_to 11000
  139.8764  134.9226  156.3303 LP  0  0  0  0  0  0  0  0  0  0  0  0  # atno 17395 bound_to 11000

$$$$
