AV-unprocessed.smi:21|AV-procd|sdf|133|dock5
  -GOLD-   2262015323D 1   1.00000     0.00000
 Structure written by MMmdl.
 62 65  0  0  0  0  0  0  0  0  2 V2000
  147.9778  132.7770  152.9333 C   0  0  0  0  0  0  0  0  0  0  0  0
  146.9063  131.8866  153.1997 O   0  0  0  0  0  0  0  0  0  0  0  0
  145.6854  132.2759  152.5891 C   0  0  1  0  0  0  0  0  0  0  0  0
  145.4069  133.7513  152.8412 C   0  0  0  0  0  0  0  0  0  0  0  0
  144.4364  134.1082  151.7131 C   0  0  1  0  0  0  0  0  0  0  0  0
  144.3949  135.6186  151.3893 C   0  0  0  0  0  0  0  0  0  0  0  0
  143.9997  136.4528  152.5238 N   0  0  0  0  0  0  0  0  0  0  0  0
  142.6521  136.2668  153.0411 C   0  0  0  0  0  0  0  0  0  0  0  0
  144.9041  136.6601  153.5095 C   0  0  0  0  0  0  0  0  0  0  0  0
  144.7368  135.9537  154.6551 N   0  0  0  0  0  0  0  0  0  0  0  0
  145.5682  136.1377  155.6847 C   0  0  0  0  0  0  0  0  0  0  0  0
  146.6105  136.9661  155.7775 N   0  0  0  0  0  0  0  0  0  0  0  0
  146.7927  137.6652  154.6212 C   0  0  0  0  0  0  0  0  0  0  0  0
  145.9986  137.5703  153.4437 C   0  0  0  0  0  0  0  0  0  0  0  0
  146.4926  138.4339  152.4717 N   0  0  0  0  0  0  0  0  0  0  0  0
  147.5095  139.0160  153.0460 C   0  0  0  0  0  0  0  0  0  0  0  0
  147.7481  138.6269  154.3438 N   0  0  0  0  0  0  0  0  0  0  0  0
  148.7878  139.1346  155.2204 C   0  0  0  0  0  0  0  0  0  0  0  0
  149.6483  140.2584  154.5823 C   0  0  1  0  0  0  0  0  0  0  0  0
  148.8290  141.5430  154.2910 C   0  0  0  0  0  0  0  0  0  0  0  0
  148.2311  142.0682  155.4591 O   0  0  0  0  0  0  0  0  0  0  0  0
  150.8741  140.5742  155.4788 C   0  0  1  0  0  0  0  0  0  0  0  0
  150.5529  140.8064  156.9463 C   0  0  0  0  0  0  0  0  0  0  0  0
  151.9108  140.6101  157.6071 C   0  0  0  0  0  0  0  0  0  0  0  0
  152.5401  139.5791  156.8587 O   0  0  0  0  0  0  0  0  0  0  0  0
  151.9023  139.4387  155.5920 C   0  0  0  0  0  0  0  0  0  0  0  0
  144.8898  133.3111  150.5498 N   0  3  2  0  0  0  0  0  0  0  0  0
  143.7971  132.8876  149.6468 C   0  0  0  0  0  0  0  0  0  0  0  0
  145.7176  132.1904  151.0568 C   0  0  0  0  0  0  0  0  0  0  0  0
  144.8500  131.6920  152.9813 H   0  0  0  0  0  0  0  0  0  0  0  0
  143.4484  133.7418  151.9958 H   0  0  0  0  0  0  0  0  0  0  0  0
  148.8826  132.4135  153.4202 H   0  0  0  0  0  0  0  0  0  0  0  0
  147.7723  133.7781  153.3142 H   0  0  0  0  0  0  0  0  0  0  0  0
  148.1778  132.8440  151.8630 H   0  0  0  0  0  0  0  0  0  0  0  0
  144.9938  133.9401  153.8326 H   0  0  0  0  0  0  0  0  0  0  0  0
  146.3285  134.3276  152.7445 H   0  0  0  0  0  0  0  0  0  0  0  0
  145.3827  135.9389  151.0557 H   0  0  0  0  0  0  0  0  0  0  0  0
  143.7252  135.8126  150.5519 H   0  0  0  0  0  0  0  0  0  0  0  0
  142.3571  137.1007  153.6795 H   0  0  0  0  0  0  0  0  0  0  0  0
  142.5878  135.3472  153.6241 H   0  0  0  0  0  0  0  0  0  0  0  0
  141.9330  136.2035  152.2240 H   0  0  0  0  0  0  0  0  0  0  0  0
  145.3645  135.5414  156.5622 H   0  0  0  0  0  0  0  0  0  0  0  0
  148.1080  139.7615  152.5424 H   0  0  0  0  0  0  0  0  0  0  0  0
  148.3246  139.4941  156.1399 H   0  0  0  0  0  0  0  0  0  0  0  0
  149.4102  138.2857  155.5027 H   0  0  0  0  0  0  0  0  0  0  0  0
  150.0346  139.8871  153.6316 H   0  0  0  0  0  0  0  0  0  0  0  0
  149.4554  142.3050  153.8261 H   0  0  0  0  0  0  0  0  0  0  0  0
  148.0140  141.3437  153.5966 H   0  0  0  0  0  0  0  0  0  0  0  0
  148.5556  142.9463  155.5871 H   0  0  0  0  0  0  0  0  0  0  0  0
  151.3809  141.4625  155.0974 H   0  0  0  0  0  0  0  0  0  0  0  0
  150.1369  141.7941  157.1466 H   0  0  0  0  0  0  0  0  0  0  0  0
  149.8485  140.0558  157.3086 H   0  0  0  0  0  0  0  0  0  0  0  0
  152.5089  141.5185  157.5254 H   0  0  0  0  0  0  0  0  0  0  0  0
  151.8313  140.3485  158.6626 H   0  0  0  0  0  0  0  0  0  0  0  0
  151.4133  138.4639  155.5656 H   0  0  0  0  0  0  0  0  0  0  0  0
  152.6385  139.4663  154.7882 H   0  0  0  0  0  0  0  0  0  0  0  0
  143.0963  132.2266  150.1587 H   0  0  0  0  0  0  0  0  0  0  0  0
  144.2007  132.3568  148.7841 H   0  0  0  0  0  0  0  0  0  0  0  0
  143.2446  133.7525  149.2793 H   0  0  0  0  0  0  0  0  0  0  0  0
  146.7334  132.3379  150.6886 H   0  0  0  0  0  0  0  0  0  0  0  0
  145.3789  131.2157  150.7024 H   0  0  0  0  0  0  0  0  0  0  0  0
  145.5116  133.9011  150.0151 H   0  0  0  0  0  0  0  0  0  0  0  0
  1  2  1  0  0  0  0
  1 32  1  0  0  0  0
  1 33  1  0  0  0  0
  1 34  1  0  0  0  0
  2  3  1  0  0  0  0
  3 30  1  0  0  0  0
  3 29  1  0  0  0  0
  3  4  1  0  0  0  0
  4  5  1  0  0  0  0
  4 35  1  0  0  0  0
  4 36  1  0  0  0  0
  5 31  1  0  0  0  0
  5  6  1  0  0  0  0
  5 27  1  0  0  0  0
  6  7  1  0  0  0  0
  6 37  1  0  0  0  0
  6 38  1  0  0  0  0
  7  8  1  0  0  0  0
  7  9  1  0  0  0  0
  8 39  1  0  0  0  0
  8 40  1  0  0  0  0
  8 41  1  0  0  0  0
  9 14  1  0  0  0  0
  9 10  2  0  0  0  0
 10 11  1  0  0  0  0
 11 12  2  0  0  0  0
 11 42  1  0  0  0  0
 12 13  1  0  0  0  0
 13 17  1  0  0  0  0
 13 14  2  0  0  0  0
 14 15  1  0  0  0  0
 15 16  2  0  0  0  0
 16 17  1  0  0  0  0
 16 43  1  0  0  0  0
 17 18  1  0  0  0  0
 18 19  1  0  0  0  0
 18 44  1  0  0  0  0
 18 45  1  0  0  0  0
 19 20  1  0  0  0  0
 19 22  1  0  0  0  0
 19 46  1  0  0  0  0
 20 21  1  0  0  0  0
 20 47  1  0  0  0  0
 20 48  1  0  0  0  0
 21 49  1  0  0  0  0
 22 26  1  0  0  0  0
 22 23  1  0  0  0  0
 22 50  1  0  0  0  0
 23 24  1  0  0  0  0
 23 51  1  0  0  0  0
 23 52  1  0  0  0  0
 24 25  1  0  0  0  0
 24 53  1  0  0  0  0
 24 54  1  0  0  0  0
 25 26  1  0  0  0  0
 26 55  1  0  0  0  0
 26 56  1  0  0  0  0
 27 28  1  0  0  0  0
 27 29  1  0  0  0  0
 27 62  1  0  0  0  0
 28 57  1  0  0  0  0
 28 58  1  0  0  0  0
 28 59  1  0  0  0  0
 29 60  1  0  0  0  0
 29 61  1  0  0  0  0
M  CHG  1  27   1
M  END
> <s_m_source_file>
AV-unprocessed.smi

> <i_m_source_file_index>
21

> <i_lp_mmshare_version>
43012

> <i_f3d_flags>
0

> <s_epik_input>
W0NIM11PW0NASF0xW0NIMl1bQ0BIXShOKFtDSDNdKVtDSDJdMSlbQ0gyXU4oW0NIM10pYyhuW2NIXW4yKWMoYzIzKW5bY0hdbjNbQ0gyXVtDQEhdKFtDSDJdW09IXSlbQ0BASF00W0NIMl1bQ0gyXU9bQ0gyXTQ=

> <s_epik_cmdline>
J2VwaWtfcHl0aG9uJywgJy1waCcsICc3LjAnLCAnLXRuJywgJzgnLCAnLW1hJywgJzIwMCcsICctbWV0YWxfYmluZGluZycsICctaW1hZScsICc8aW5maWxlLm1hZT4nLCAnLW9tYWUnLCAnPG91dGZpbGUubWFlPic=

> <r_lp_tautomer_probability>
1

> <r_epik_Ionization_Penalty>
0.0157465

> <r_epik_Ionization_Penalty_Charging>
0.015354

> <r_epik_Ionization_Penalty_Neutral>
0.000392529

> <r_epik_State_Penalty>
0.0120612

> <r_epik_Charging_Adjusted_Penalty>
0.0274152

> <i_epik_Tot_Q>
1

> <i_epik_Tot_abs_Q>
1

> <r_epik_Metal_State_Penalty>
0.0121253

> <b_epik_Metal_Only>
0

> <s_lp_Force_Field>
OPLS_2005

> <r_lp_Energy>
58.1484

> <b_lp_Chiralities_Consistent>
1

> <s_lp_Variant>
AV-unprocessed.smi:21-13

> <Gold.Version>
5.8.1

> <Gold.Id.Protein>
6NUR|6NUR_protein|mol2

> <Gold.PLP.Fitness>
50.5340

> <Gold.PLP.PLP>
-41.0086

> <Gold.PLP.part.hbond>
-3.0000

> <Gold.PLP.part.metal>
0.0000

> <Gold.PLP.part.buried>
-1.4246

> <Gold.PLP.part.nonpolar>
-35.1431

> <Gold.PLP.part.repulsive>
0.7250

> <Gold.PLP.ligand.clash>
0.0000

> <Gold.PLP.ligand.torsion>
0.8307

> <Gold.PLP.Chemscore.Hbond>
2.4969

> <Gold.PLP.Chemscore.CHOScore>
1.0000

> <Gold.PLP.Chemscore.Metal>
0.0000

> <Gold.Chemscore.Hbonds>
donor molecule, donor type, donor heavy atom, donor atom, acceptor molecule, acceptor atom, score
      L1  H    21    49       P1  8028  1.00
      P1  H  7997  8010       L1    25  1.00
      L1  C    16    43       P1  7957  1.00

> <Gold.PLP.Chemscore.Internal.Correction>
0.6962

> <Gold.Rescore>
     Score         DG    S(hbond)    S(metal)    S(lipo)     H(rot)  DE(clash)    DE(int)     intcor
      9.86     -13.44       1.60        0.00      95.48       3.35       1.33       2.25       ----

> <Gold.Chemscore.Fitness>
9.8632

> <Gold.Chemscore.DG>
-13.4394

> <Gold.Chemscore.ZeroCoef>
-5.4800

> <Gold.Chemscore.Hbond>
1.6022

> <Gold.Chemscore.Metal>
0.0000

> <Gold.Chemscore.Lipo>
95.4836

> <Gold.Chemscore.Internal_Hbond>
0.0000

> <Gold.Chemscore.DEClash>
1.3254

> <Gold.Chemscore.DEInternal>
2.2508

> <Gold.Chemscore.Rot>
3.3452

> <Gold.Chemscore.Internal.Correction>
   9.000000E+99

> <Gold.Chemscore.Hbonds>
donor molecule, donor type, donor heavy atom, donor atom, acceptor molecule, acceptor atom, score
      L1  H    21    49       P1  8028  1.00
      P1  H  7997  8010       L1    25  0.49

> <Gold.Chemscore.Hbond.Weighted>
-5.3515

> <Gold.Chemscore.Metal.Weighted>
-0.0000

> <Gold.Chemscore.Lipo.Weighted>
-11.1716

> <Gold.Chemscore.Internal_Hbond.Weighted>
0.0000

> <Gold.Chemscore.DEClash.Weighted>
1.3254

> <Gold.Chemscore.DEInternal.Weighted>
2.2508

> <Gold.Chemscore.Rot.Weighted>
8.5636

> <Gold.Chemscore.Internal.Correction.Weighted>
   9.000000E+99

> <Gold.Protein.RotatedTorsions>
[ 6907 6896 6895 6894 ] final  138.10 input  -60.11 | X-H torsion
[ 7974 7965 7964 7962 ] final   -5.44 input  175.53 | X-H torsion
[ 8008 7997 7996 7995 ] final   50.62 input   59.86 | X-H torsion
[ 10167 10162 10161 10158 ] final -156.57 input  -65.29 | X-H torsion
[ 10718 10713 10712 10709 ] final -138.20 input   66.30 | X-H torsion
[ 10763 10752 10751 10750 ] final  100.42 input  -60.55 | X-H torsion
[ 11005 11000 10999 10996 ] final -136.03 input  -57.11 | X-H torsion

> <Gold.Protein.ActiveResidues>
 VAL166  LYS551  ARG553  GLY616  TRP617  ASP618  TYR619  PRO620  LYS621  CYS622 
 ASP623  PHE694  ASN695  SER759  ASP760  ASP761  ALA762  ILE779  LEU786  VAL792 
 PHE793  MET794  SER795  GLU796  ALA797  LYS798  CYS799  TRP800  GLU811  SER814 

> <Gold.Protein.RotatedAtoms>
  152.2705  133.5378  159.5435 H   0  0  0  0  0  0  0  0  0  0  0  0  # atno 6907 bound_to 6896
  150.7157  134.0704  159.3871 H   0  0  0  0  0  0  0  0  0  0  0  0  # atno 6908 bound_to 6896
  151.8619  135.0521  160.0521 H   0  0  0  0  0  0  0  0  0  0  0  0  # atno 6909 bound_to 6896
  146.2352  140.2022  142.8334 H   0  0  0  0  0  0  0  0  0  0  0  0  # atno 7974 bound_to 7965
  155.4218  140.3447  155.4272 H   0  0  0  0  0  0  0  0  0  0  0  0  # atno 8008 bound_to 7997
  156.1389  140.1536  156.8983 H   0  0  0  0  0  0  0  0  0  0  0  0  # atno 8009 bound_to 7997
  154.4954  140.0829  156.7666 H   0  0  0  0  0  0  0  0  0  0  0  0  # atno 8010 bound_to 7997
  139.6840  143.9533  152.2351 H   0  0  0  0  0  0  0  0  0  0  0  0  # atno 10167 bound_to 10162
  156.2967  130.7405  151.1446 H   0  0  0  0  0  0  0  0  0  0  0  0  # atno 10718 bound_to 10713
  153.3137  135.4079  155.1358 H   0  0  0  0  0  0  0  0  0  0  0  0  # atno 10763 bound_to 10752
  154.8582  135.3570  154.5689 H   0  0  0  0  0  0  0  0  0  0  0  0  # atno 10764 bound_to 10752
  153.6119  135.7067  153.5402 H   0  0  0  0  0  0  0  0  0  0  0  0  # atno 10765 bound_to 10752
  140.8843  134.1892  157.4571 H   0  0  0  0  0  0  0  0  0  0  0  0  # atno 11005 bound_to 11000
  144.9773  140.8426  143.5419 LP  0  0  0  0  0  0  0  0  0  0  0  0  # atno 17320 bound_to 7965
  145.2011  139.2252  143.5192 LP  0  0  0  0  0  0  0  0  0  0  0  0  # atno 17321 bound_to 7965
  139.9331  144.6729  150.8342 LP  0  0  0  0  0  0  0  0  0  0  0  0  # atno 17342 bound_to 10162
  140.7661  143.3295  151.2441 LP  0  0  0  0  0  0  0  0  0  0  0  0  # atno 17343 bound_to 10162
  157.7357  131.0569  150.5455 LP  0  0  0  0  0  0  0  0  0  0  0  0  # atno 17370 bound_to 10713
  156.5577  130.4248  149.6077 LP  0  0  0  0  0  0  0  0  0  0  0  0  # atno 17371 bound_to 10713
  139.8723  134.9831  156.5183 LP  0  0  0  0  0  0  0  0  0  0  0  0  # atno 17394 bound_to 11000
  140.8424  133.8195  155.9088 LP  0  0  0  0  0  0  0  0  0  0  0  0  # atno 17395 bound_to 11000

$$$$
