AV-unprocessed.smi:1768|AV-procd|sdf|7144|dock8
  -GOLD-   22720 8383D 1   1.00000     0.00000
 Structure written by MMmdl.
 33 34  0  0  0  0  0  0  0  0  1 V2000
  141.4574  145.6679  160.1573 C   0  0  0  0  0  0  0  0  0  0  0  0
  142.7892  145.0495  159.9018 C   0  0  0  0  0  0  0  0  0  0  0  0
  143.1100  143.8181  160.3173 N   0  0  0  0  0  0  0  0  0  0  0  0
  144.4018  143.4616  159.9572 N   0  0  0  0  0  0  0  0  0  0  0  0
  145.0191  144.4383  159.2785 C   0  0  0  0  0  0  0  0  0  0  0  0
  146.3459  144.3387  158.7835 N   0  0  0  0  0  0  0  0  0  0  0  0
  147.2317  143.3444  158.9682 C   0  0  0  0  0  0  0  0  0  0  0  0
  147.0337  142.3319  159.6402 O   0  0  0  0  0  0  0  0  0  0  0  0
  148.3781  143.5957  158.3199 N   0  0  0  0  0  0  0  0  0  0  0  0
  149.5633  142.7406  158.3144 C   0  0  1  0  0  0  0  0  0  0  0  0
  149.9457  142.4373  156.8574 C   0  0  0  0  0  0  0  0  0  0  0  0
  150.6972  143.4357  159.0932 C   0  0  2  0  0  0  0  0  0  0  0  0
  151.2981  144.6553  158.3914 C   0  0  0  0  0  0  0  0  0  0  0  0
  152.6793  144.7123  159.0017 C   0  0  0  0  0  0  0  0  0  0  0  0
  153.0344  143.2325  159.0962 C   0  0  0  0  0  0  0  0  0  0  0  0
  151.7984  142.5454  159.2716 O   0  0  0  0  0  0  0  0  0  0  0  0
  144.0631  145.8884  159.0251 S   0  0  0  0  0  0  0  0  0  0  0  0
  140.8210  144.9909  160.7283 H   0  0  0  0  0  0  0  0  0  0  0  0
  140.9659  145.8954  159.2114 H   0  0  0  0  0  0  0  0  0  0  0  0
  141.5785  146.5930  160.7208 H   0  0  0  0  0  0  0  0  0  0  0  0
  146.6539  145.1120  158.2127 H   0  0  0  0  0  0  0  0  0  0  0  0
  148.4445  144.4567  157.7975 H   0  0  0  0  0  0  0  0  0  0  0  0
  149.3466  141.7907  158.8062 H   0  0  0  0  0  0  0  0  0  0  0  0
  150.8008  141.7636  156.8025 H   0  0  0  0  0  0  0  0  0  0  0  0
  150.2027  143.3481  156.3155 H   0  0  0  0  0  0  0  0  0  0  0  0
  149.1211  141.9571  156.3295 H   0  0  0  0  0  0  0  0  0  0  0  0
  150.3494  143.7311  160.0848 H   0  0  0  0  0  0  0  0  0  0  0  0
  151.3741  144.4839  157.3165 H   0  0  0  0  0  0  0  0  0  0  0  0
  150.7229  145.5673  158.5537 H   0  0  0  0  0  0  0  0  0  0  0  0
  153.3909  145.2852  158.4065 H   0  0  0  0  0  0  0  0  0  0  0  0
  152.6307  145.1530  159.9983 H   0  0  0  0  0  0  0  0  0  0  0  0
  153.4909  142.8900  158.1668 H   0  0  0  0  0  0  0  0  0  0  0  0
  153.7271  143.0220  159.9114 H   0  0  0  0  0  0  0  0  0  0  0  0
  1  2  1  0  0  0  0
  1 18  1  0  0  0  0
  1 19  1  0  0  0  0
  1 20  1  0  0  0  0
  2 17  1  0  0  0  0
  2  3  2  0  0  0  0
  3  4  1  0  0  0  0
  4  5  2  0  0  0  0
  5  6  1  0  0  0  0
  5 17  1  0  0  0  0
  6  7  1  0  0  0  0
  6 21  1  0  0  0  0
  7  8  2  0  0  0  0
  7  9  1  0  0  0  0
  9 10  1  0  0  0  0
  9 22  1  0  0  0  0
 10 11  1  0  0  0  0
 10 12  1  0  0  0  0
 10 23  1  0  0  0  0
 11 24  1  0  0  0  0
 11 25  1  0  0  0  0
 11 26  1  0  0  0  0
 12 16  1  0  0  0  0
 12 13  1  0  0  0  0
 12 27  1  0  0  0  0
 13 14  1  0  0  0  0
 13 28  1  0  0  0  0
 13 29  1  0  0  0  0
 14 15  1  0  0  0  0
 14 30  1  0  0  0  0
 14 31  1  0  0  0  0
 15 16  1  0  0  0  0
 15 32  1  0  0  0  0
 15 33  1  0  0  0  0
M  END
> <s_m_source_file>
AV-unprocessed.smi

> <i_m_source_file_index>
1768

> <i_lp_mmshare_version>
43012

> <i_f3d_flags>
0

> <s_epik_input>
W0NIM11jMW5uYyhzMSlbTkhdQyg9TylbTkhdW0NASF0oW0NIM10pW0NAQEhdMltDSDJdW0NIMl1bQ0gyXU8y

> <s_epik_cmdline>
J2VwaWtfcHl0aG9uJywgJy1waCcsICc3LjAnLCAnLXRuJywgJzgnLCAnLW1hJywgJzIwMCcsICctbWV0YWxfYmluZGluZycsICctaW1hZScsICc8aW5maWxlLm1hZT4nLCAnLW9tYWUnLCAnPG91dGZpbGUubWFlPic=

> <r_lp_tautomer_probability>
1

> <r_epik_Ionization_Penalty>
0.000523083

> <r_epik_Ionization_Penalty_Charging>
0

> <r_epik_Ionization_Penalty_Neutral>
0.000523083

> <r_epik_State_Penalty>
-0

> <r_epik_Charging_Adjusted_Penalty>
0

> <i_epik_Tot_Q>
0

> <i_epik_Tot_abs_Q>
0

> <r_epik_Metal_State_Penalty>
0.223408

> <b_epik_Metal_Only>
0

> <s_lp_Force_Field>
OPLS_2005

> <r_lp_Energy>
16.97

> <b_lp_Chiralities_Consistent>
1

> <s_lp_Variant>
AV-unprocessed.smi:1768-2

> <Gold.Version>
5.8.1

> <Gold.Id.Protein>
6NUR|6NUR_protein|mol2

> <Gold.PLP.Fitness>
34.5111

> <Gold.PLP.PLP>
-25.7377

> <Gold.PLP.part.hbond>
-4.9430

> <Gold.PLP.part.metal>
0.0000

> <Gold.PLP.part.buried>
-1.1178

> <Gold.PLP.part.nonpolar>
-19.4764

> <Gold.PLP.part.repulsive>
0.2547

> <Gold.PLP.ligand.clash>
0.0000

> <Gold.PLP.ligand.torsion>
0.1450

> <Gold.PLP.Chemscore.Hbond>
3.0176

> <Gold.PLP.Chemscore.CHOScore>
0.0000

> <Gold.PLP.Chemscore.Metal>
0.0000

> <Gold.Chemscore.Hbonds>
donor molecule, donor type, donor heavy atom, donor atom, acceptor molecule, acceptor atom, score
      L1  H     6    21       P1  8029  1.00
      L1  H     9    22       P1  8029  0.60
      P1  H  6933  6944       L1     8  0.18
      P1  H  6934  6946       L1     8  0.82

> <Gold.PLP.Chemscore.Internal.Correction>
0.0107

> <Gold.Rescore>
     Score         DG    S(hbond)    S(metal)    S(lipo)     H(rot)  DE(clash)    DE(int)     intcor
     17.55     -19.06       2.56        0.00      71.31       1.29       0.16       1.35       ----

> <Gold.Chemscore.Fitness>
17.5498

> <Gold.Chemscore.DG>
-19.0585

> <Gold.Chemscore.ZeroCoef>
-5.4800

> <Gold.Chemscore.Hbond>
2.5576

> <Gold.Chemscore.Metal>
0.0000

> <Gold.Chemscore.Lipo>
71.3097

> <Gold.Chemscore.Internal_Hbond>
0.0000

> <Gold.Chemscore.DEClash>
0.1626

> <Gold.Chemscore.DEInternal>
1.3461

> <Gold.Chemscore.Rot>
1.2919

> <Gold.Chemscore.Internal.Correction>
   9.000000E+99

> <Gold.Chemscore.Hbonds>
donor molecule, donor type, donor heavy atom, donor atom, acceptor molecule, acceptor atom, score
      L1  H     6    21       P1  8029  0.95
      L1  H     9    22       P1  8029  0.04
      P1  H  6933  6944       L1     8  0.12
      P1  H  6934  6946       L1     8  0.81

> <Gold.Chemscore.Hbond.Weighted>
-8.5425

> <Gold.Chemscore.Metal.Weighted>
-0.0000

> <Gold.Chemscore.Lipo.Weighted>
-8.3432

> <Gold.Chemscore.Internal_Hbond.Weighted>
0.0000

> <Gold.Chemscore.DEClash.Weighted>
0.1626

> <Gold.Chemscore.DEInternal.Weighted>
1.3461

> <Gold.Chemscore.Rot.Weighted>
3.3072

> <Gold.Chemscore.Internal.Correction.Weighted>
   9.000000E+99

> <Gold.Protein.RotatedTorsions>
[ 6907 6896 6895 6894 ] final  -61.39 input  -60.11 | X-H torsion
[ 7974 7965 7964 7962 ] final  -74.79 input  175.53 | X-H torsion
[ 8008 7997 7996 7995 ] final  173.46 input   59.86 | X-H torsion
[ 10167 10162 10161 10158 ] final   12.33 input  -65.29 | X-H torsion
[ 10718 10713 10712 10709 ] final -173.75 input   66.30 | X-H torsion
[ 10763 10752 10751 10750 ] final  -83.08 input  -60.55 | X-H torsion
[ 11005 11000 10999 10996 ] final    8.88 input  -57.11 | X-H torsion

> <Gold.Protein.ActiveResidues>
 VAL166  LYS551  ARG553  GLY616  TRP617  ASP618  TYR619  PRO620  LYS621  CYS622 
 ASP623  PHE694  ASN695  SER759  ASP760  ASP761  ALA762  ILE779  LEU786  VAL792 
 PHE793  MET794  SER795  GLU796  ALA797  LYS798  CYS799  TRP800  GLU811  SER814 

> <Gold.Protein.RotatedAtoms>
  150.7788  134.6711  159.6391 H   0  0  0  0  0  0  0  0  0  0  0  0  # atno 6907 bound_to 6896
  152.3866  134.6504  160.0132 H   0  0  0  0  0  0  0  0  0  0  0  0  # atno 6908 bound_to 6896
  151.6817  133.3275  159.3257 H   0  0  0  0  0  0  0  0  0  0  0  0  # atno 6909 bound_to 6896
  145.6345  140.9328  143.1069 H   0  0  0  0  0  0  0  0  0  0  0  0  # atno 7974 bound_to 7965
  156.1073  140.1459  156.9386 H   0  0  0  0  0  0  0  0  0  0  0  0  # atno 8008 bound_to 7997
  154.4743  140.0899  156.7267 H   0  0  0  0  0  0  0  0  0  0  0  0  # atno 8009 bound_to 7997
  155.4656  140.3440  155.4321 H   0  0  0  0  0  0  0  0  0  0  0  0  # atno 8010 bound_to 7997
  140.6075  143.8478  150.7029 H   0  0  0  0  0  0  0  0  0  0  0  0  # atno 10167 bound_to 10162
  156.7750  130.9462  151.3120 H   0  0  0  0  0  0  0  0  0  0  0  0  # atno 10718 bound_to 10713
  154.5835  135.5568  153.7208 H   0  0  0  0  0  0  0  0  0  0  0  0  # atno 10763 bound_to 10752
  153.0090  135.6326  154.1949 H   0  0  0  0  0  0  0  0  0  0  0  0  # atno 10764 bound_to 10752
  154.1890  135.2883  155.3008 H   0  0  0  0  0  0  0  0  0  0  0  0  # atno 10765 bound_to 10752
  140.5320  134.0457  155.7876 H   0  0  0  0  0  0  0  0  0  0  0  0  # atno 11005 bound_to 11000
  144.7181  139.8126  143.7392 LP  0  0  0  0  0  0  0  0  0  0  0  0  # atno 17320 bound_to 7965
  146.1330  139.4369  143.0157 LP  0  0  0  0  0  0  0  0  0  0  0  0  # atno 17321 bound_to 7965
  140.2038  143.3938  152.1771 LP  0  0  0  0  0  0  0  0  0  0  0  0  # atno 17342 bound_to 10162
  139.5336  144.7185  151.4971 LP  0  0  0  0  0  0  0  0  0  0  0  0  # atno 17343 bound_to 10162
  157.6673  130.9019  149.9961 LP  0  0  0  0  0  0  0  0  0  0  0  0  # atno 17370 bound_to 10713
  156.1254  130.3644  149.9818 LP  0  0  0  0  0  0  0  0  0  0  0  0  # atno 17371 bound_to 10713
  141.1276  133.9357  157.2603 LP  0  0  0  0  0  0  0  0  0  0  0  0  # atno 17394 bound_to 11000
  139.9549  135.0167  156.9100 LP  0  0  0  0  0  0  0  0  0  0  0  0  # atno 17395 bound_to 11000

$$$$
