AV-unprocessed.smi:3001|AV-procd|sdf|11432|dock10
  -GOLD-   2272016363D 1   1.00000     0.00000
 Structure written by MMmdl.
 42 43  0  0  0  0  0  0  0  0  2 V2000
  144.2751  133.8215  162.4591 C   0  0  0  0  0  0  0  0  0  0  0  0
  145.4178  134.2512  162.4367 C   0  0  0  0  0  0  0  0  0  0  0  0
  146.7927  134.7777  162.4189 C   0  0  0  0  0  0  0  0  0  0  0  0
  147.3309  134.8971  161.0685 N   0  0  0  0  0  0  0  0  0  0  0  0
  147.6511  136.0479  160.4564 C   0  0  0  0  0  0  0  0  0  0  0  0
  147.5083  137.1550  160.9776 O   0  0  0  0  0  0  0  0  0  0  0  0
  148.1948  135.9207  159.0280 C   0  0  0  0  0  0  0  0  0  0  0  0
  148.2061  137.1933  158.3103 N   0  0  0  0  0  0  0  0  0  0  0  0
  149.1419  138.1440  158.4467 C   0  0  0  0  0  0  0  0  0  0  0  0
  150.1254  138.0327  159.1787 O   0  0  0  0  0  0  0  0  0  0  0  0
  148.8522  139.2263  157.7056 N   0  0  0  0  0  0  0  0  0  0  0  0
  149.5631  140.4580  157.6585 C   0  0  0  0  0  0  0  0  0  0  0  0
  150.5711  140.7531  158.6117 C   0  0  0  0  0  0  0  0  0  0  0  0
  151.3106  141.9458  158.5066 C   0  0  0  0  0  0  0  0  0  0  0  0
  151.0429  142.8193  157.4390 C   0  0  0  0  0  0  0  0  0  0  0  0
  150.0868  142.5045  156.5410 N   0  3  0  0  0  0  0  0  0  0  0  0
  149.3301  141.3797  156.5965 C   0  0  0  0  0  0  0  0  0  0  0  0
  148.3550  141.1910  155.5902 N   0  0  0  0  0  0  0  0  0  0  0  0
  148.7515  141.0632  154.1927 C   0  0  0  0  0  0  0  0  0  0  0  0
  147.4595  141.2291  153.3975 C   0  0  0  0  0  0  0  0  0  0  0  0
  146.6907  142.2504  154.2306 C   0  0  0  0  0  0  0  0  0  0  0  0
  147.0942  141.9221  155.6719 C   0  0  0  0  0  0  0  0  0  0  0  0
  143.2760  133.4479  162.4804 H   0  0  0  0  0  0  0  0  0  0  0  0
  146.8074  135.7352  162.9416 H   0  0  0  0  0  0  0  0  0  0  0  0
  147.4211  134.0931  162.9883 H   0  0  0  0  0  0  0  0  0  0  0  0
  147.4743  134.0363  160.5604 H   0  0  0  0  0  0  0  0  0  0  0  0
  149.1983  135.4911  159.0432 H   0  0  0  0  0  0  0  0  0  0  0  0
  147.5632  135.2222  158.4789 H   0  0  0  0  0  0  0  0  0  0  0  0
  147.4285  137.3705  157.6916 H   0  0  0  0  0  0  0  0  0  0  0  0
  147.9633  139.2141  157.2270 H   0  0  0  0  0  0  0  0  0  0  0  0
  150.8038  140.0686  159.4133 H   0  0  0  0  0  0  0  0  0  0  0  0
  152.0799  142.1794  159.2281 H   0  0  0  0  0  0  0  0  0  0  0  0
  151.5628  143.7520  157.2739 H   0  0  0  0  0  0  0  0  0  0  0  0
  149.4520  141.8541  153.9218 H   0  0  0  0  0  0  0  0  0  0  0  0
  149.2255  140.1007  153.9987 H   0  0  0  0  0  0  0  0  0  0  0  0
  147.6307  141.5544  152.3711 H   0  0  0  0  0  0  0  0  0  0  0  0
  146.9137  140.2850  153.3685 H   0  0  0  0  0  0  0  0  0  0  0  0
  147.0262  143.2565  153.9753 H   0  0  0  0  0  0  0  0  0  0  0  0
  145.6131  142.2057  154.0720 H   0  0  0  0  0  0  0  0  0  0  0  0
  146.3442  141.2763  156.1290 H   0  0  0  0  0  0  0  0  0  0  0  0
  147.1793  142.8265  156.2758 H   0  0  0  0  0  0  0  0  0  0  0  0
  149.9168  143.1589  155.7773 H   0  0  0  0  0  0  0  0  0  0  0  0
  1  2  3  0  0  0  0
  1 23  1  0  0  0  0
  2  3  1  0  0  0  0
  3  4  1  0  0  0  0
  3 24  1  0  0  0  0
  3 25  1  0  0  0  0
  4  5  1  0  0  0  0
  4 26  1  0  0  0  0
  5  6  2  0  0  0  0
  5  7  1  0  0  0  0
  7  8  1  0  0  0  0
  7 27  1  0  0  0  0
  7 28  1  0  0  0  0
  8  9  1  0  0  0  0
  8 29  1  0  0  0  0
  9 10  2  0  0  0  0
  9 11  1  0  0  0  0
 11 12  1  0  0  0  0
 11 30  1  0  0  0  0
 12 17  1  0  0  0  0
 12 13  2  0  0  0  0
 13 14  1  0  0  0  0
 13 31  1  0  0  0  0
 14 15  2  0  0  0  0
 14 32  1  0  0  0  0
 15 16  1  0  0  0  0
 15 33  1  0  0  0  0
 16 17  2  0  0  0  0
 16 42  1  0  0  0  0
 17 18  1  0  0  0  0
 18 22  1  0  0  0  0
 18 19  1  0  0  0  0
 19 20  1  0  0  0  0
 19 34  1  0  0  0  0
 19 35  1  0  0  0  0
 20 21  1  0  0  0  0
 20 36  1  0  0  0  0
 20 37  1  0  0  0  0
 21 22  1  0  0  0  0
 21 38  1  0  0  0  0
 21 39  1  0  0  0  0
 22 40  1  0  0  0  0
 22 41  1  0  0  0  0
M  CHG  1  16   1
M  END
> <s_m_source_file>
AV-unprocessed.smi

> <i_m_source_file_index>
3001

> <i_lp_mmshare_version>
43012

> <i_f3d_flags>
0

> <s_epik_input>
W0NIXSNDW0NIMl1bTkhdQyg9TylbQ0gyXVtOSF1DKD1PKVtOSF1jMVtjSF1bY0hdW2NIXW5jMU4yW0NIMl1bQ0gyXVtDSDJdW0NIMl0y

> <s_epik_cmdline>
J2VwaWtfcHl0aG9uJywgJy1waCcsICc3LjAnLCAnLXRuJywgJzgnLCAnLW1hJywgJzIwMCcsICctbWV0YWxfYmluZGluZycsICctaW1hZScsICc8aW5maWxlLm1hZT4nLCAnLW9tYWUnLCAnPG91dGZpbGUubWFlPic=

> <r_lp_tautomer_probability>
0.999994

> <r_epik_Ionization_Penalty>
0.644915

> <r_epik_Ionization_Penalty_Charging>
0.644896

> <r_epik_Ionization_Penalty_Neutral>
1.90142e-05

> <r_epik_State_Penalty>
0.662902

> <r_epik_Charging_Adjusted_Penalty>
1.3078

> <i_epik_Tot_Q>
1

> <i_epik_Tot_abs_Q>
1

> <r_epik_Metal_State_Penalty>
0.837036

> <b_epik_Metal_Only>
0

> <s_lp_Force_Field>
OPLS_2005

> <r_lp_Energy>
32.9475

> <b_lp_Chiralities_Consistent>
1

> <s_lp_Variant>
AV-unprocessed.smi:3001-2

> <Gold.Version>
5.8.1

> <Gold.Id.Protein>
6NUR|6NUR_protein|mol2

> <Gold.PLP.Fitness>
47.9972

> <Gold.PLP.PLP>
-39.2746

> <Gold.PLP.part.hbond>
-3.7236

> <Gold.PLP.part.metal>
0.0000

> <Gold.PLP.part.buried>
-6.3898

> <Gold.PLP.part.nonpolar>
-29.5039

> <Gold.PLP.part.repulsive>
0.4414

> <Gold.PLP.ligand.clash>
0.0000

> <Gold.PLP.ligand.torsion>
0.6141

> <Gold.PLP.Chemscore.Hbond>
3.1840

> <Gold.PLP.Chemscore.CHOScore>
0.0000

> <Gold.PLP.Chemscore.Metal>
0.0000

> <Gold.Chemscore.Hbonds>
donor molecule, donor type, donor heavy atom, donor atom, acceptor molecule, acceptor atom, score
      L1  H    16    42       P1  8028  1.31
      P1  H  6931  6943       L1     6  0.73
      P1  H  6934  6947       L1     6  1.00

> <Gold.PLP.Chemscore.Internal.Correction>
0.3988

> <Gold.Rescore>
     Score         DG    S(hbond)    S(metal)    S(lipo)     H(rot)  DE(clash)    DE(int)     intcor
     15.87     -18.11       2.59        0.00      74.69       1.85       0.10       2.14       ----

> <Gold.Chemscore.Fitness>
15.8719

> <Gold.Chemscore.DG>
-18.1145

> <Gold.Chemscore.ZeroCoef>
-5.4800

> <Gold.Chemscore.Hbond>
2.5878

> <Gold.Chemscore.Metal>
0.0000

> <Gold.Chemscore.Lipo>
74.6947

> <Gold.Chemscore.Internal_Hbond>
0.0000

> <Gold.Chemscore.DEClash>
0.1046

> <Gold.Chemscore.DEInternal>
2.1379

> <Gold.Chemscore.Rot>
1.8547

> <Gold.Chemscore.Internal.Correction>
   9.000000E+99

> <Gold.Chemscore.Hbonds>
donor molecule, donor type, donor heavy atom, donor atom, acceptor molecule, acceptor atom, score
      L1  H    16    42       P1  8028  0.66
      P1  H  6931  6943       L1     6  0.70
      P1  H  6934  6947       L1     6  0.94

> <Gold.Chemscore.Hbond.Weighted>
-8.6431

> <Gold.Chemscore.Metal.Weighted>
-0.0000

> <Gold.Chemscore.Lipo.Weighted>
-8.7393

> <Gold.Chemscore.Internal_Hbond.Weighted>
0.0000

> <Gold.Chemscore.DEClash.Weighted>
0.1046

> <Gold.Chemscore.DEInternal.Weighted>
2.1379

> <Gold.Chemscore.Rot.Weighted>
4.7479

> <Gold.Chemscore.Internal.Correction.Weighted>
   9.000000E+99

> <Gold.Protein.RotatedTorsions>
[ 6907 6896 6895 6894 ] final  -54.68 input  -60.11 | X-H torsion
[ 7974 7965 7964 7962 ] final  120.84 input  175.53 | X-H torsion
[ 8008 7997 7996 7995 ] final  -77.98 input   59.86 | X-H torsion
[ 10167 10162 10161 10158 ] final   73.14 input  -65.29 | X-H torsion
[ 10718 10713 10712 10709 ] final  131.34 input   66.30 | X-H torsion
[ 10763 10752 10751 10750 ] final  -41.17 input  -60.55 | X-H torsion
[ 11005 11000 10999 10996 ] final   14.43 input  -57.11 | X-H torsion

> <Gold.Protein.ActiveResidues>
 VAL166  LYS551  ARG553  GLY616  TRP617  ASP618  TYR619  PRO620  LYS621  CYS622 
 ASP623  PHE694  ASN695  SER759  ASP760  ASP761  ALA762  ILE779  LEU786  VAL792 
 PHE793  MET794  SER795  GLU796  ALA797  LYS798  CYS799  TRP800  GLU811  SER814 

> <Gold.Protein.RotatedAtoms>
  150.8317  134.7572  159.6858 H   0  0  0  0  0  0  0  0  0  0  0  0  # atno 6907 bound_to 6896
  152.4420  134.5568  159.9892 H   0  0  0  0  0  0  0  0  0  0  0  0  # atno 6908 bound_to 6896
  151.5727  133.3350  159.3028 H   0  0  0  0  0  0  0  0  0  0  0  0  # atno 6909 bound_to 6896
  145.1264  139.3355  143.4687 H   0  0  0  0  0  0  0  0  0  0  0  0  # atno 7974 bound_to 7965
  154.5647  140.0701  156.8873 H   0  0  0  0  0  0  0  0  0  0  0  0  # atno 8008 bound_to 7997
  155.2746  140.3367  155.4244 H   0  0  0  0  0  0  0  0  0  0  0  0  # atno 8009 bound_to 7997
  156.2071  140.1744  156.7762 H   0  0  0  0  0  0  0  0  0  0  0  0  # atno 8010 bound_to 7997
  140.0277  144.5490  150.7531 H   0  0  0  0  0  0  0  0  0  0  0  0  # atno 10167 bound_to 10162
  157.4977  131.1093  150.9470 H   0  0  0  0  0  0  0  0  0  0  0  0  # atno 10718 bound_to 10713
  153.9581  135.6743  153.4745 H   0  0  0  0  0  0  0  0  0  0  0  0  # atno 10763 bound_to 10752
  153.0851  135.4903  154.8578 H   0  0  0  0  0  0  0  0  0  0  0  0  # atno 10764 bound_to 10752
  154.7288  135.3133  154.8886 H   0  0  0  0  0  0  0  0  0  0  0  0  # atno 10765 bound_to 10752
  140.4696  134.1044  155.7730 H   0  0  0  0  0  0  0  0  0  0  0  0  # atno 11005 bound_to 11000
  146.3517  140.1245  142.8599 LP  0  0  0  0  0  0  0  0  0  0  0  0  # atno 17320 bound_to 7965
  145.0683  140.9137  143.4897 LP  0  0  0  0  0  0  0  0  0  0  0  0  # atno 17321 bound_to 7965
  140.7315  143.2695  151.3933 LP  0  0  0  0  0  0  0  0  0  0  0  0  # atno 17342 bound_to 10162
  139.6097  144.1124  152.2286 LP  0  0  0  0  0  0  0  0  0  0  0  0  # atno 17343 bound_to 10162
  157.0151  130.5652  149.5325 LP  0  0  0  0  0  0  0  0  0  0  0  0  # atno 17370 bound_to 10713
  156.0210  130.5305  150.8276 LP  0  0  0  0  0  0  0  0  0  0  0  0  # atno 17371 bound_to 10713
  141.1583  133.8841  157.1917 LP  0  0  0  0  0  0  0  0  0  0  0  0  # atno 17394 bound_to 11000
  139.9893  135.0070  156.9938 LP  0  0  0  0  0  0  0  0  0  0  0  0  # atno 17395 bound_to 11000

$$$$
