AV-unprocessed.smi:1416|AV-procd|sdf|5764|dock4
  -GOLD-   22720 5403D 1   1.00000     0.00000
 Structure written by MMmdl.
 44 45  0  0  0  0  0  0  0  0  1 V2000
  150.2724  131.8627  154.7263 C   0  0  0  0  0  0  0  0  0  0  0  0
  149.5452  132.1226  153.4043 C   0  0  0  0  0  0  0  0  0  0  0  0
  148.1639  133.2763  153.6195 S   0  0  0  0  0  0  0  0  0  0  0  0
  148.9612  134.5040  154.6947 C   0  0  0  0  0  0  0  0  0  0  0  0
  147.9495  135.4845  155.3160 C   0  0  0  0  0  0  0  0  0  0  0  0
  148.4828  136.9149  155.4571 C   0  0  0  0  0  0  0  0  0  0  0  0
  148.7303  137.3848  156.5682 O   0  0  0  0  0  0  0  0  0  0  0  0
  148.6607  137.5962  154.3163 N   0  0  0  0  0  0  0  0  0  0  0  0
  149.1583  138.9642  154.2359 C   0  0  0  0  0  0  0  0  0  0  0  0
  150.4955  139.1555  154.9327 C   0  0  0  0  0  0  0  0  0  0  0  0
  151.6049  138.3360  154.6370 C   0  0  0  0  0  0  0  0  0  0  0  0
  152.8062  138.5597  155.3343 C   0  0  0  0  0  0  0  0  0  0  0  0
  152.9509  139.5203  156.2706 N   0  0  0  0  0  0  0  0  0  0  0  0
  151.8926  140.3163  156.5634 C   0  0  0  0  0  0  0  0  0  0  0  0
  152.0603  141.3194  157.5430 N   0  0  0  0  0  0  0  0  0  0  0  0
  152.3824  140.8429  158.8861 C   0  0  0  0  0  0  0  0  0  0  0  0
  152.8355  142.0130  159.7763 C   0  0  0  0  0  0  0  0  0  0  0  0
  151.8427  143.0335  159.7754 O   0  0  0  0  0  0  0  0  0  0  0  0
  151.6282  143.5611  158.4706 C   0  0  0  0  0  0  0  0  0  0  0  0
  151.1283  142.4459  157.5369 C   0  0  0  0  0  0  0  0  0  0  0  0
  150.6435  140.1548  155.9167 C   0  0  0  0  0  0  0  0  0  0  0  0
  151.1004  131.1682  154.5837 H   0  0  0  0  0  0  0  0  0  0  0  0
  149.5990  131.4303  155.4669 H   0  0  0  0  0  0  0  0  0  0  0  0
  150.6793  132.7860  155.1394 H   0  0  0  0  0  0  0  0  0  0  0  0
  150.2394  132.5352  152.6716 H   0  0  0  0  0  0  0  0  0  0  0  0
  149.1644  131.1859  152.9964 H   0  0  0  0  0  0  0  0  0  0  0  0
  149.5349  133.9894  155.4667 H   0  0  0  0  0  0  0  0  0  0  0  0
  149.6816  135.0606  154.0949 H   0  0  0  0  0  0  0  0  0  0  0  0
  147.0607  135.5286  154.6859 H   0  0  0  0  0  0  0  0  0  0  0  0
  147.6195  135.1089  156.2860 H   0  0  0  0  0  0  0  0  0  0  0  0
  148.4354  137.1395  153.4443 H   0  0  0  0  0  0  0  0  0  0  0  0
  149.2478  139.2420  153.1847 H   0  0  0  0  0  0  0  0  0  0  0  0
  148.4409  139.6504  154.6887 H   0  0  0  0  0  0  0  0  0  0  0  0
  151.5427  137.5466  153.9025 H   0  0  0  0  0  0  0  0  0  0  0  0
  153.6746  137.9491  155.1364 H   0  0  0  0  0  0  0  0  0  0  0  0
  151.4957  140.3719  159.3130 H   0  0  0  0  0  0  0  0  0  0  0  0
  153.1658  140.0864  158.8709 H   0  0  0  0  0  0  0  0  0  0  0  0
  152.9882  141.6681  160.7992 H   0  0  0  0  0  0  0  0  0  0  0  0
  153.7888  142.4171  159.4312 H   0  0  0  0  0  0  0  0  0  0  0  0
  150.8904  144.3613  158.5278 H   0  0  0  0  0  0  0  0  0  0  0  0
  152.5497  144.0040  158.0893 H   0  0  0  0  0  0  0  0  0  0  0  0
  151.0218  142.8425  156.5263 H   0  0  0  0  0  0  0  0  0  0  0  0
  150.1441  142.1031  157.8592 H   0  0  0  0  0  0  0  0  0  0  0  0
  149.7997  140.7773  156.1745 H   0  0  0  0  0  0  0  0  0  0  0  0
  1  2  1  0  0  0  0
  1 22  1  0  0  0  0
  1 23  1  0  0  0  0
  1 24  1  0  0  0  0
  2  3  1  0  0  0  0
  2 25  1  0  0  0  0
  2 26  1  0  0  0  0
  3  4  1  0  0  0  0
  4  5  1  0  0  0  0
  4 27  1  0  0  0  0
  4 28  1  0  0  0  0
  5  6  1  0  0  0  0
  5 29  1  0  0  0  0
  5 30  1  0  0  0  0
  6  7  2  0  0  0  0
  6  8  1  0  0  0  0
  8  9  1  0  0  0  0
  8 31  1  0  0  0  0
  9 10  1  0  0  0  0
  9 32  1  0  0  0  0
  9 33  1  0  0  0  0
 10 21  1  0  0  0  0
 10 11  2  0  0  0  0
 11 12  1  0  0  0  0
 11 34  1  0  0  0  0
 12 13  2  0  0  0  0
 12 35  1  0  0  0  0
 13 14  1  0  0  0  0
 14 15  1  0  0  0  0
 14 21  2  0  0  0  0
 15 20  1  0  0  0  0
 15 16  1  0  0  0  0
 16 17  1  0  0  0  0
 16 36  1  0  0  0  0
 16 37  1  0  0  0  0
 17 18  1  0  0  0  0
 17 38  1  0  0  0  0
 17 39  1  0  0  0  0
 18 19  1  0  0  0  0
 19 20  1  0  0  0  0
 19 40  1  0  0  0  0
 19 41  1  0  0  0  0
 20 42  1  0  0  0  0
 20 43  1  0  0  0  0
 21 44  1  0  0  0  0
M  END
> <s_m_source_file>
AV-unprocessed.smi

> <i_m_source_file_index>
1416

> <i_lp_mmshare_version>
43012

> <i_f3d_flags>
0

> <s_epik_input>
W0NIM11bQ0gyXVNbQ0gyXVtDSDJdQyg9TylbTkhdW0NIMl1jMVtjSF1bY0hdbmMoW2NIXTEpTjJbQ0gyXVtDSDJdT1tDSDJdW0NIMl0y

> <s_epik_cmdline>
J2VwaWtfcHl0aG9uJywgJy1waCcsICc3LjAnLCAnLXRuJywgJzgnLCAnLW1hJywgJzIwMCcsICctbWV0YWxfYmluZGluZycsICctaW1hZScsICc8aW5maWxlLm1hZT4nLCAnLW9tYWUnLCAnPG91dGZpbGUubWFlPic=

> <r_lp_tautomer_probability>
1

> <r_epik_Ionization_Penalty>
0.00571449

> <r_epik_Ionization_Penalty_Charging>
0

> <r_epik_Ionization_Penalty_Neutral>
0.00571449

> <r_epik_State_Penalty>
0.00419227

> <r_epik_Charging_Adjusted_Penalty>
0.00419227

> <i_epik_Tot_Q>
0

> <i_epik_Tot_abs_Q>
0

> <r_epik_Metal_State_Penalty>
-0

> <b_epik_Metal_Only>
0

> <s_lp_Force_Field>
OPLS_2005

> <r_lp_Energy>
16.5768

> <b_lp_Chiralities_Consistent>
1

> <s_lp_Variant>
AV-unprocessed.smi:1416-1

> <Gold.Version>
5.8.1

> <Gold.Id.Protein>
6NUR|6NUR_protein|mol2

> <Gold.PLP.Fitness>
42.1956

> <Gold.PLP.PLP>
-37.3422

> <Gold.PLP.part.hbond>
-2.0000

> <Gold.PLP.part.metal>
0.0000

> <Gold.PLP.part.buried>
-2.2623

> <Gold.PLP.part.nonpolar>
-32.6609

> <Gold.PLP.part.repulsive>
0.0084

> <Gold.PLP.ligand.clash>
0.0000

> <Gold.PLP.ligand.torsion>
0.7984

> <Gold.PLP.Chemscore.Hbond>
2.0000

> <Gold.PLP.Chemscore.CHOScore>
0.0000

> <Gold.PLP.Chemscore.Metal>
0.0000

> <Gold.Chemscore.Hbonds>
donor molecule, donor type, donor heavy atom, donor atom, acceptor molecule, acceptor atom, score
      L1  H     8    31       P1  7948  1.00
      P1  H  7997  8010       L1    13  0.98

> <Gold.PLP.Chemscore.Internal.Correction>
0.4501

> <Gold.Rescore>
     Score         DG    S(hbond)    S(metal)    S(lipo)     H(rot)  DE(clash)    DE(int)     intcor
     17.42     -17.99       1.92        0.00      93.05       1.87       0.02       0.55       ----

> <Gold.Chemscore.Fitness>
17.4193

> <Gold.Chemscore.DG>
-17.9862

> <Gold.Chemscore.ZeroCoef>
-5.4800

> <Gold.Chemscore.Hbond>
1.9184

> <Gold.Chemscore.Metal>
0.0000

> <Gold.Chemscore.Lipo>
93.0491

> <Gold.Chemscore.Internal_Hbond>
0.0000

> <Gold.Chemscore.DEClash>
0.0174

> <Gold.Chemscore.DEInternal>
0.5495

> <Gold.Chemscore.Rot>
1.8704

> <Gold.Chemscore.Internal.Correction>
   9.000000E+99

> <Gold.Chemscore.Hbonds>
donor molecule, donor type, donor heavy atom, donor atom, acceptor molecule, acceptor atom, score
      L1  H     8    31       P1  7948  0.94
      P1  H  7997  8010       L1    13  0.82

> <Gold.Chemscore.Hbond.Weighted>
-6.4076

> <Gold.Chemscore.Metal.Weighted>
-0.0000

> <Gold.Chemscore.Lipo.Weighted>
-10.8867

> <Gold.Chemscore.Internal_Hbond.Weighted>
0.0000

> <Gold.Chemscore.DEClash.Weighted>
0.0174

> <Gold.Chemscore.DEInternal.Weighted>
0.5495

> <Gold.Chemscore.Rot.Weighted>
4.7881

> <Gold.Chemscore.Internal.Correction.Weighted>
   9.000000E+99

> <Gold.Protein.RotatedTorsions>
[ 6907 6896 6895 6894 ] final  137.39 input  -60.11 | X-H torsion
[ 7974 7965 7964 7962 ] final -179.98 input  175.53 | X-H torsion
[ 8008 7997 7996 7995 ] final   69.07 input   59.86 | X-H torsion
[ 10167 10162 10161 10158 ] final -159.69 input  -65.29 | X-H torsion
[ 10718 10713 10712 10709 ] final -112.69 input   66.30 | X-H torsion
[ 10763 10752 10751 10750 ] final  -48.69 input  -60.55 | X-H torsion
[ 11005 11000 10999 10996 ] final   11.76 input  -57.11 | X-H torsion

> <Gold.Protein.ActiveResidues>
 VAL166  LYS551  ARG553  GLY616  TRP617  ASP618  TYR619  PRO620  LYS621  CYS622 
 ASP623  PHE694  ASN695  SER759  ASP760  ASP761  ALA762  ILE779  LEU786  VAL792 
 PHE793  MET794  SER795  GLU796  ALA797  LYS798  CYS799  TRP800  GLU811  SER814 

> <Gold.Protein.RotatedAtoms>
  152.2786  133.5449  159.5483 H   0  0  0  0  0  0  0  0  0  0  0  0  # atno 6907 bound_to 6896
  150.7187  134.0596  159.3835 H   0  0  0  0  0  0  0  0  0  0  0  0  # atno 6908 bound_to 6896
  151.8508  135.0558  160.0509 H   0  0  0  0  0  0  0  0  0  0  0  0  # atno 6909 bound_to 6896
  144.7140  140.0636  143.6432 H   0  0  0  0  0  0  0  0  0  0  0  0  # atno 7974 bound_to 7965
  155.7179  140.3493  155.5003 H   0  0  0  0  0  0  0  0  0  0  0  0  # atno 8008 bound_to 7997
  155.9296  140.1082  157.1164 H   0  0  0  0  0  0  0  0  0  0  0  0  # atno 8009 bound_to 7997
  154.4083  140.1234  156.4772 H   0  0  0  0  0  0  0  0  0  0  0  0  # atno 8010 bound_to 7997
  139.6596  143.9936  152.2217 H   0  0  0  0  0  0  0  0  0  0  0  0  # atno 10167 bound_to 10162
  156.0721  130.5933  150.8542 H   0  0  0  0  0  0  0  0  0  0  0  0  # atno 10718 bound_to 10713
  154.0819  135.6590  153.4839 H   0  0  0  0  0  0  0  0  0  0  0  0  # atno 10763 bound_to 10752
  153.0353  135.5182  154.7466 H   0  0  0  0  0  0  0  0  0  0  0  0  # atno 10764 bound_to 10752
  154.6563  135.3008  154.9891 H   0  0  0  0  0  0  0  0  0  0  0  0  # atno 10765 bound_to 10752
  140.4995  134.0760  155.7790 H   0  0  0  0  0  0  0  0  0  0  0  0  # atno 11005 bound_to 11000
  145.9843  139.2965  143.1023 LP  0  0  0  0  0  0  0  0  0  0  0  0  # atno 17320 bound_to 7965
  145.8975  140.9264  143.0520 LP  0  0  0  0  0  0  0  0  0  0  0  0  # atno 17321 bound_to 7965
  139.9672  144.6518  150.8023 LP  0  0  0  0  0  0  0  0  0  0  0  0  # atno 17342 bound_to 10162
  140.7574  143.3086  151.2901 LP  0  0  0  0  0  0  0  0  0  0  0  0  # atno 17343 bound_to 10162
  157.5797  131.0946  150.9290 LP  0  0  0  0  0  0  0  0  0  0  0  0  # atno 17370 bound_to 10713
  156.9488  130.5412  149.5282 LP  0  0  0  0  0  0  0  0  0  0  0  0  # atno 17371 bound_to 10713
  141.1442  133.9084  157.2254 LP  0  0  0  0  0  0  0  0  0  0  0  0  # atno 17394 bound_to 11000
  139.9721  135.0125  156.9539 LP  0  0  0  0  0  0  0  0  0  0  0  0  # atno 17395 bound_to 11000

$$$$
