AV-unprocessed.smi:910|AV-procd|sdf|4130|dock10
  -GOLD-   22720 2 33D 1   1.00000     0.00000
 Structure written by MMmdl.
 47 48  0  0  0  0  0  0  0  0  2 V2000
  149.0960  133.1032  153.3120 C   0  0  0  0  0  0  0  0  0  0  0  0
  149.8424  133.8921  154.3415 C   0  0  0  0  0  0  0  0  0  0  0  0
  150.1040  135.2419  154.3658 N   0  3  0  0  0  0  0  0  0  0  0  0
  150.8023  135.5400  155.4585 C   0  0  0  0  0  0  0  0  0  0  0  0
  151.2197  136.8455  155.8032 N   0  0  0  0  0  0  0  0  0  0  0  0
  151.5906  137.2402  157.0300 C   0  0  0  0  0  0  0  0  0  0  0  0
  151.7720  136.4793  157.9813 O   0  0  0  0  0  0  0  0  0  0  0  0
  151.7249  138.5729  157.1045 N   0  0  0  0  0  0  0  0  0  0  0  0
  151.9662  139.3169  158.3373 C   0  0  0  0  0  0  0  0  0  0  0  0
  151.4499  140.7599  158.2226 C   0  0  0  0  0  0  0  0  0  0  0  0
  151.7465  141.4500  159.4267 O   0  0  0  0  0  0  0  0  0  0  0  0
  152.9388  142.2237  159.4041 C   0  0  2  0  0  0  0  0  0  0  0  0
  153.8973  141.6171  160.4453 C   0  0  0  0  0  0  0  0  0  0  0  0
  153.3576  141.7680  161.8781 C   0  0  0  0  0  0  0  0  0  0  0  0
  153.0477  143.2361  162.2058 C   0  0  0  0  0  0  0  0  0  0  0  0
  152.0831  143.8464  161.1770 C   0  0  0  0  0  0  0  0  0  0  0  0
  152.6226  143.7025  159.7393 C   0  0  2  0  0  0  0  0  0  0  0  0
  151.6859  144.3628  158.7163 C   0  0  0  0  0  0  0  0  0  0  0  0
  151.0287  134.4232  156.2008 O   0  0  0  0  0  0  0  0  0  0  0  0
  150.4235  133.4054  155.4931 C   0  0  0  0  0  0  0  0  0  0  0  0
  150.5074  132.0359  156.0769 C   0  0  0  0  0  0  0  0  0  0  0  0
  149.6975  132.2743  152.9385 H   0  0  0  0  0  0  0  0  0  0  0  0
  148.8229  133.7228  152.4575 H   0  0  0  0  0  0  0  0  0  0  0  0
  148.1774  132.6866  153.7256 H   0  0  0  0  0  0  0  0  0  0  0  0
  149.7936  135.8775  153.6419 H   0  0  0  0  0  0  0  0  0  0  0  0
  151.5734  139.1194  156.2692 H   0  0  0  0  0  0  0  0  0  0  0  0
  151.5157  138.8125  159.1939 H   0  0  0  0  0  0  0  0  0  0  0  0
  153.0415  139.3285  158.5155 H   0  0  0  0  0  0  0  0  0  0  0  0
  151.9336  141.2696  157.3885 H   0  0  0  0  0  0  0  0  0  0  0  0
  150.3775  140.7572  158.0238 H   0  0  0  0  0  0  0  0  0  0  0  0
  153.4202  142.1645  158.4257 H   0  0  0  0  0  0  0  0  0  0  0  0
  154.0701  140.5638  160.2229 H   0  0  0  0  0  0  0  0  0  0  0  0
  154.8683  142.1086  160.3732 H   0  0  0  0  0  0  0  0  0  0  0  0
  152.4533  141.1694  161.9958 H   0  0  0  0  0  0  0  0  0  0  0  0
  154.0820  141.3731  162.5910 H   0  0  0  0  0  0  0  0  0  0  0  0
  152.6202  143.3111  163.2060 H   0  0  0  0  0  0  0  0  0  0  0  0
  153.9749  143.8099  162.2221 H   0  0  0  0  0  0  0  0  0  0  0  0
  151.1092  143.3634  161.2598 H   0  0  0  0  0  0  0  0  0  0  0  0
  151.9227  144.8991  161.4113 H   0  0  0  0  0  0  0  0  0  0  0  0
  153.5664  144.2479  159.6928 H   0  0  0  0  0  0  0  0  0  0  0  0
  150.6944  143.9109  158.7305 H   0  0  0  0  0  0  0  0  0  0  0  0
  152.0823  144.2728  157.7046 H   0  0  0  0  0  0  0  0  0  0  0  0
  151.5647  145.4255  158.9282 H   0  0  0  0  0  0  0  0  0  0  0  0
  149.8440  131.3449  155.5566 H   0  0  0  0  0  0  0  0  0  0  0  0
  150.2232  132.0461  157.1293 H   0  0  0  0  0  0  0  0  0  0  0  0
  151.5235  131.6480  156.0040 H   0  0  0  0  0  0  0  0  0  0  0  0
  151.1542  137.5477  155.0814 H   0  0  0  0  0  0  0  0  0  0  0  0
  1 22  1  0  0  0  0
  1 23  1  0  0  0  0
  1 24  1  0  0  0  0
  1  2  1  0  0  0  0
  2  3  1  0  0  0  0
  2 20  2  0  0  0  0
  3 25  1  0  0  0  0
  3  4  2  0  0  0  0
  4 19  1  0  0  0  0
  4  5  1  0  0  0  0
  5  6  1  0  0  0  0
  5 47  1  0  0  0  0
  6  8  1  0  0  0  0
  6  7  2  0  0  0  0
  8  9  1  0  0  0  0
  8 26  1  0  0  0  0
  9 10  1  0  0  0  0
  9 27  1  0  0  0  0
  9 28  1  0  0  0  0
 10 11  1  0  0  0  0
 10 29  1  0  0  0  0
 10 30  1  0  0  0  0
 11 12  1  0  0  0  0
 12 17  1  0  0  0  0
 12 13  1  0  0  0  0
 12 31  1  0  0  0  0
 13 14  1  0  0  0  0
 13 32  1  0  0  0  0
 13 33  1  0  0  0  0
 14 15  1  0  0  0  0
 14 34  1  0  0  0  0
 14 35  1  0  0  0  0
 15 16  1  0  0  0  0
 15 36  1  0  0  0  0
 15 37  1  0  0  0  0
 16 17  1  0  0  0  0
 16 38  1  0  0  0  0
 16 39  1  0  0  0  0
 17 18  1  0  0  0  0
 17 40  1  0  0  0  0
 18 41  1  0  0  0  0
 18 42  1  0  0  0  0
 18 43  1  0  0  0  0
 19 20  1  0  0  0  0
 20 21  1  0  0  0  0
 21 44  1  0  0  0  0
 21 45  1  0  0  0  0
 21 46  1  0  0  0  0
M  CHG  1   3   1
M  END
> <s_m_source_file>
AV-unprocessed.smi

> <i_m_source_file_index>
910

> <i_lp_mmshare_version>
43012

> <i_f3d_flags>
0

> <s_epik_input>
W0NIM11jMW5jKG9jMVtDSDNdKVtOSF1DKD1PKVtOSF1bQ0gyXVtDSDJdT1tDQEBIXTJbQ0gyXVtDSDJdW0NIMl1bQ0gyXVtDQEhdMltDSDNd

> <s_epik_cmdline>
J2VwaWtfcHl0aG9uJywgJy1waCcsICc3LjAnLCAnLXRuJywgJzgnLCAnLW1hJywgJzIwMCcsICctbWV0YWxfYmluZGluZycsICctaW1hZScsICc8aW5maWxlLm1hZT4nLCAnLW9tYWUnLCAnPG91dGZpbGUubWFlPic=

> <r_epik_Ionization_Penalty>
7.32931

> <r_epik_Ionization_Penalty_Charging>
7.12214

> <r_epik_Ionization_Penalty_Neutral>
0.207166

> <r_epik_State_Penalty>
2.61278

> <r_epik_Charging_Adjusted_Penalty>
9.73492

> <i_epik_Tot_Q>
1

> <i_epik_Tot_abs_Q>
1

> <r_epik_Metal_State_Penalty>
2.64585

> <b_epik_Metal_Only>
0

> <s_lp_Force_Field>
OPLS_2005

> <r_lp_Energy>
15.8254

> <b_lp_Chiralities_Consistent>
1

> <s_lp_Variant>
AV-unprocessed.smi:910-15

> <Gold.Version>
5.8.1

> <Gold.Id.Protein>
6NUR|6NUR_protein|mol2

> <Gold.PLP.Fitness>
48.6893

> <Gold.PLP.PLP>
-45.2110

> <Gold.PLP.part.hbond>
-2.3180

> <Gold.PLP.part.metal>
0.0000

> <Gold.PLP.part.buried>
-6.0829

> <Gold.PLP.part.nonpolar>
-36.8732

> <Gold.PLP.part.repulsive>
0.1848

> <Gold.PLP.ligand.clash>
0.0000

> <Gold.PLP.ligand.torsion>
1.2464

> <Gold.PLP.Chemscore.Hbond>
1.9840

> <Gold.PLP.Chemscore.CHOScore>
0.0000

> <Gold.PLP.Chemscore.Metal>
0.0000

> <Gold.Chemscore.Hbonds>
donor molecule, donor type, donor heavy atom, donor atom, acceptor molecule, acceptor atom, score
      L1  H     3    25       P1  7948  1.60

> <Gold.PLP.Chemscore.Internal.Correction>
0.0191

> <Gold.Rescore>
     Score         DG    S(hbond)    S(metal)    S(lipo)     H(rot)  DE(clash)    DE(int)     intcor
     13.87     -16.64       0.75        0.00     111.15       1.69       0.14       2.63       ----

> <Gold.Chemscore.Fitness>
13.8706

> <Gold.Chemscore.DG>
-16.6386

> <Gold.Chemscore.ZeroCoef>
-5.4800

> <Gold.Chemscore.Hbond>
0.7466

> <Gold.Chemscore.Metal>
0.0000

> <Gold.Chemscore.Lipo>
111.1459

> <Gold.Chemscore.Internal_Hbond>
0.0000

> <Gold.Chemscore.DEClash>
0.1396

> <Gold.Chemscore.DEInternal>
2.6284

> <Gold.Chemscore.Rot>
1.6949

> <Gold.Chemscore.Internal.Correction>
   9.000000E+99

> <Gold.Chemscore.Hbonds>
donor molecule, donor type, donor heavy atom, donor atom, acceptor molecule, acceptor atom, score
      L1  H     3    25       P1  7948  0.11

> <Gold.Chemscore.Hbond.Weighted>
-2.4936

> <Gold.Chemscore.Metal.Weighted>
-0.0000

> <Gold.Chemscore.Lipo.Weighted>
-13.0041

> <Gold.Chemscore.Internal_Hbond.Weighted>
0.0000

> <Gold.Chemscore.DEClash.Weighted>
0.1396

> <Gold.Chemscore.DEInternal.Weighted>
2.6284

> <Gold.Chemscore.Rot.Weighted>
4.3390

> <Gold.Chemscore.Internal.Correction.Weighted>
   9.000000E+99

> <Gold.Protein.RotatedTorsions>
[ 6907 6896 6895 6894 ] final   31.87 input  -60.11 | X-H torsion
[ 7974 7965 7964 7962 ] final -131.04 input  175.53 | X-H torsion
[ 8008 7997 7996 7995 ] final  -49.38 input   59.86 | X-H torsion
[ 10167 10162 10161 10158 ] final  -26.34 input  -65.29 | X-H torsion
[ 10718 10713 10712 10709 ] final   29.27 input   66.30 | X-H torsion
[ 10763 10752 10751 10750 ] final   43.21 input  -60.55 | X-H torsion
[ 11005 11000 10999 10996 ] final  179.07 input  -57.11 | X-H torsion

> <Gold.Protein.ActiveResidues>
 VAL166  LYS551  ARG553  GLY616  TRP617  ASP618  TYR619  PRO620  LYS621  CYS622 
 ASP623  PHE694  ASN695  SER759  ASP760  ASP761  ALA762  ILE779  LEU786  VAL792 
 PHE793  MET794  SER795  GLU796  ALA797  LYS798  CYS799  TRP800  GLU811  SER814 

> <Gold.Protein.RotatedAtoms>
  152.0664  134.9561  160.0574 H   0  0  0  0  0  0  0  0  0  0  0  0  # atno 6907 bound_to 6896
  152.0905  133.4193  159.4550 H   0  0  0  0  0  0  0  0  0  0  0  0  # atno 6908 bound_to 6896
  150.6837  134.2797  159.4665 H   0  0  0  0  0  0  0  0  0  0  0  0  # atno 6909 bound_to 6896
  144.9417  140.7246  143.4842 H   0  0  0  0  0  0  0  0  0  0  0  0  # atno 7974 bound_to 7965
  154.4043  140.1298  156.4493 H   0  0  0  0  0  0  0  0  0  0  0  0  # atno 8008 bound_to 7997
  155.7382  140.3490  155.5071 H   0  0  0  0  0  0  0  0  0  0  0  0  # atno 8009 bound_to 7997
  155.9064  140.1028  157.1302 H   0  0  0  0  0  0  0  0  0  0  0  0  # atno 8010 bound_to 7997
  140.7283  143.4186  151.0987 H   0  0  0  0  0  0  0  0  0  0  0  0  # atno 10167 bound_to 10162
  157.2444  130.7085  149.6374 H   0  0  0  0  0  0  0  0  0  0  0  0  # atno 10718 bound_to 10713
  152.9865  135.6108  154.3075 H   0  0  0  0  0  0  0  0  0  0  0  0  # atno 10763 bound_to 10752
  154.2792  135.2777  155.2706 H   0  0  0  0  0  0  0  0  0  0  0  0  # atno 10764 bound_to 10752
  154.5053  135.5856  153.6619 H   0  0  0  0  0  0  0  0  0  0  0  0  # atno 10765 bound_to 10752
  140.4021  134.6768  157.4567 H   0  0  0  0  0  0  0  0  0  0  0  0  # atno 11005 bound_to 11000
  145.2980  139.1860  143.4705 LP  0  0  0  0  0  0  0  0  0  0  0  0  # atno 17320 bound_to 7965
  146.3288  140.2967  142.8618 LP  0  0  0  0  0  0  0  0  0  0  0  0  # atno 17321 bound_to 7965
  139.7829  143.8329  152.3140 LP  0  0  0  0  0  0  0  0  0  0  0  0  # atno 17342 bound_to 10162
  139.8286  144.7264  150.9479 LP  0  0  0  0  0  0  0  0  0  0  0  0  # atno 17343 bound_to 10162
  155.9668  130.4447  150.5474 LP  0  0  0  0  0  0  0  0  0  0  0  0  # atno 17370 bound_to 10713
  157.3344  131.0705  151.1836 LP  0  0  0  0  0  0  0  0  0  0  0  0  # atno 17371 bound_to 10713
  140.0329  134.6380  155.9083 LP  0  0  0  0  0  0  0  0  0  0  0  0  # atno 17394 bound_to 11000
  141.1853  133.6554  156.5191 LP  0  0  0  0  0  0  0  0  0  0  0  0  # atno 17395 bound_to 11000

$$$$
