AV-unprocessed.smi:65|AV-procd|sdf|613|dock3
  -GOLD-   2262016503D 1   1.00000     0.00000
 Structure written by MMmdl.
 25 26  0  0  0  0  0  0  0  0  1 V2000
  154.4257  142.8540  164.4407 N   0  0  0  0  0  0  0  0  0  0  0  0
  154.1987  142.3582  163.1802 C   0  0  0  0  0  0  0  0  0  0  0  0
  154.8479  141.2403  162.8525 N   0  0  0  0  0  0  0  0  0  0  0  0
  154.6253  140.7554  161.6124 C   0  0  0  0  0  0  0  0  0  0  0  0
  153.7510  141.3936  160.7092 C   0  0  0  0  0  0  0  0  0  0  0  0
  153.1116  142.5713  161.1650 C   0  0  0  0  0  0  0  0  0  0  0  0
  152.2245  143.2923  160.3427 N   0  0  0  0  0  0  0  0  0  0  0  0
  151.9085  144.6901  160.6076 C   0  0  0  0  0  0  0  0  0  0  0  0
  151.5553  145.2996  159.2451 C   0  0  0  0  0  0  0  0  0  0  0  0
  151.1667  144.0881  158.3964 C   0  0  1  0  0  0  0  0  0  0  0  0
  151.3413  144.3164  157.0143 O   0  0  0  0  0  0  0  0  0  0  0  0
  152.0916  142.9932  158.9255 C   0  0  0  0  0  0  0  0  0  0  0  0
  153.3521  143.0459  162.4117 N   0  0  0  0  0  0  0  0  0  0  0  0
  153.9642  143.6976  164.7486 H   0  0  0  0  0  0  0  0  0  0  0  0
  155.0736  142.3921  165.0622 H   0  0  0  0  0  0  0  0  0  0  0  0
  155.1497  139.8526  161.3368 H   0  0  0  0  0  0  0  0  0  0  0  0
  153.5945  140.9925  159.7191 H   0  0  0  0  0  0  0  0  0  0  0  0
  151.0551  144.7354  161.2848 H   0  0  0  0  0  0  0  0  0  0  0  0
  152.7411  145.2234  161.0674 H   0  0  0  0  0  0  0  0  0  0  0  0
  150.7669  146.0503  159.3061 H   0  0  0  0  0  0  0  0  0  0  0  0
  152.4420  145.7783  158.8264 H   0  0  0  0  0  0  0  0  0  0  0  0
  150.1274  143.8206  158.5934 H   0  0  0  0  0  0  0  0  0  0  0  0
  150.5067  144.5578  156.6423 H   0  0  0  0  0  0  0  0  0  0  0  0
  153.0739  143.0485  158.4537 H   0  0  0  0  0  0  0  0  0  0  0  0
  151.6803  141.9975  158.7561 H   0  0  0  0  0  0  0  0  0  0  0  0
  1  2  1  0  0  0  0
  1 14  1  0  0  0  0
  1 15  1  0  0  0  0
  2 13  1  0  0  0  0
  2  3  2  0  0  0  0
  3  4  1  0  0  0  0
  4  5  2  0  0  0  0
  4 16  1  0  0  0  0
  5  6  1  0  0  0  0
  5 17  1  0  0  0  0
  6  7  1  0  0  0  0
  6 13  2  0  0  0  0
  7 12  1  0  0  0  0
  7  8  1  0  0  0  0
  8  9  1  0  0  0  0
  8 18  1  0  0  0  0
  8 19  1  0  0  0  0
  9 10  1  0  0  0  0
  9 20  1  0  0  0  0
  9 21  1  0  0  0  0
 10 11  1  0  0  0  0
 10 12  1  0  0  0  0
 10 22  1  0  0  0  0
 11 23  1  0  0  0  0
 12 24  1  0  0  0  0
 12 25  1  0  0  0  0
M  END
> <s_m_source_file>
AV-unprocessed.smi

> <i_m_source_file_index>
65

> <i_lp_mmshare_version>
43012

> <i_f3d_flags>
0

> <s_epik_input>
W05IMl1jMW5bY0hdW2NIXWMobjEpTjJbQ0gyXVtDSDJdW0NAQEhdKFtPSF0pW0NIMl0y

> <s_epik_cmdline>
J2VwaWtfcHl0aG9uJywgJy1waCcsICc3LjAnLCAnLXRuJywgJzgnLCAnLW1hJywgJzIwMCcsICctbWV0YWxfYmluZGluZycsICctaW1hZScsICc8aW5maWxlLm1hZT4nLCAnLW9tYWUnLCAnPG91dGZpbGUubWFlPic=

> <r_lp_tautomer_probability>
1

> <r_epik_Ionization_Penalty>
0.99295

> <r_epik_Ionization_Penalty_Charging>
0

> <r_epik_Ionization_Penalty_Neutral>
0.99295

> <r_epik_State_Penalty>
0.750885

> <r_epik_Charging_Adjusted_Penalty>
0.750885

> <i_epik_Tot_Q>
0

> <i_epik_Tot_abs_Q>
0

> <r_epik_Metal_State_Penalty>
0.338511

> <b_epik_Metal_Only>
0

> <s_lp_Force_Field>
OPLS_2005

> <r_lp_Energy>
17.7727

> <b_lp_Chiralities_Consistent>
1

> <s_lp_Variant>
AV-unprocessed.smi:65-3

> <Gold.Version>
5.8.1

> <Gold.Id.Protein>
6NUR|6NUR_protein|mol2

> <Gold.PLP.Fitness>
36.8672

> <Gold.PLP.PLP>
-33.8850

> <Gold.PLP.part.hbond>
-2.0000

> <Gold.PLP.part.metal>
0.0000

> <Gold.PLP.part.buried>
-1.1640

> <Gold.PLP.part.nonpolar>
-29.4227

> <Gold.PLP.part.repulsive>
0.1806

> <Gold.PLP.ligand.clash>
0.0000

> <Gold.PLP.ligand.torsion>
0.1138

> <Gold.PLP.Chemscore.Hbond>
1.0000

> <Gold.PLP.Chemscore.CHOScore>
0.0000

> <Gold.PLP.Chemscore.Metal>
0.0000

> <Gold.Chemscore.Hbonds>
donor molecule, donor type, donor heavy atom, donor atom, acceptor molecule, acceptor atom, score
      L1  H    11    23       P1  8028  1.00

> <Gold.PLP.Chemscore.Internal.Correction>
0.2099

> <Gold.Rescore>
     Score         DG    S(hbond)    S(metal)    S(lipo)     H(rot)  DE(clash)    DE(int)     intcor
     13.57     -13.72       0.99        0.00      64.05       1.00       0.03       0.11       ----

> <Gold.Chemscore.Fitness>
13.5748

> <Gold.Chemscore.DG>
-13.7168

> <Gold.Chemscore.ZeroCoef>
-5.4800

> <Gold.Chemscore.Hbond>
0.9890

> <Gold.Chemscore.Metal>
0.0000

> <Gold.Chemscore.Lipo>
64.0477

> <Gold.Chemscore.Internal_Hbond>
0.0000

> <Gold.Chemscore.DEClash>
0.0346

> <Gold.Chemscore.DEInternal>
0.1075

> <Gold.Chemscore.Rot>
1.0000

> <Gold.Chemscore.Internal.Correction>
   9.000000E+99

> <Gold.Chemscore.Hbonds>
donor molecule, donor type, donor heavy atom, donor atom, acceptor molecule, acceptor atom, score
      L1  H    11    23       P1  8028  0.96

> <Gold.Chemscore.Hbond.Weighted>
-3.3033

> <Gold.Chemscore.Metal.Weighted>
-0.0000

> <Gold.Chemscore.Lipo.Weighted>
-7.4936

> <Gold.Chemscore.Internal_Hbond.Weighted>
0.0000

> <Gold.Chemscore.DEClash.Weighted>
0.0346

> <Gold.Chemscore.DEInternal.Weighted>
0.1075

> <Gold.Chemscore.Rot.Weighted>
2.5600

> <Gold.Chemscore.Internal.Correction.Weighted>
   9.000000E+99

> <Gold.Protein.RotatedTorsions>
[ 6907 6896 6895 6894 ] final  144.33 input  -60.11 | X-H torsion
[ 7974 7965 7964 7962 ] final -153.25 input  175.53 | X-H torsion
[ 8008 7997 7996 7995 ] final -134.68 input   59.86 | X-H torsion
[ 10167 10162 10161 10158 ] final   45.00 input  -65.29 | X-H torsion
[ 10718 10713 10712 10709 ] final    5.11 input   66.30 | X-H torsion
[ 10763 10752 10751 10750 ] final   68.16 input  -60.55 | X-H torsion
[ 11005 11000 10999 10996 ] final  118.08 input  -57.11 | X-H torsion

> <Gold.Protein.ActiveResidues>
 VAL166  LYS551  ARG553  GLY616  TRP617  ASP618  TYR619  PRO620  LYS621  CYS622 
 ASP623  PHE694  ASN695  SER759  ASP760  ASP761  ALA762  ILE779  LEU786  VAL792 
 PHE793  MET794  SER795  GLU796  ALA797  LYS798  CYS799  TRP800  GLU811  SER814 

> <Gold.Protein.RotatedAtoms>
  152.1950  133.4800  159.5027 H   0  0  0  0  0  0  0  0  0  0  0  0  # atno 6907 bound_to 6896
  150.6958  134.1663  159.4204 H   0  0  0  0  0  0  0  0  0  0  0  0  # atno 6908 bound_to 6896
  151.9579  135.0137  160.0596 H   0  0  0  0  0  0  0  0  0  0  0  0  # atno 6909 bound_to 6896
  144.7751  140.4552  143.5879 H   0  0  0  0  0  0  0  0  0  0  0  0  # atno 7974 bound_to 7965
  155.3661  140.0485  157.3046 H   0  0  0  0  0  0  0  0  0  0  0  0  # atno 8008 bound_to 7997
  154.5153  140.2206  155.9041 H   0  0  0  0  0  0  0  0  0  0  0  0  # atno 8009 bound_to 7997
  156.1629  140.3112  155.8845 H   0  0  0  0  0  0  0  0  0  0  0  0  # atno 8010 bound_to 7997
  140.3286  144.2616  150.6171 H   0  0  0  0  0  0  0  0  0  0  0  0  # atno 10167 bound_to 10162
  156.9026  130.5727  149.5648 H   0  0  0  0  0  0  0  0  0  0  0  0  # atno 10718 bound_to 10713
  153.0221  135.5257  154.7091 H   0  0  0  0  0  0  0  0  0  0  0  0  # atno 10763 bound_to 10752
  154.6179  135.2885  155.0362 H   0  0  0  0  0  0  0  0  0  0  0  0  # atno 10764 bound_to 10752
  154.1359  135.6585  153.4984 H   0  0  0  0  0  0  0  0  0  0  0  0  # atno 10765 bound_to 10752
  139.9097  134.9617  156.7449 H   0  0  0  0  0  0  0  0  0  0  0  0  # atno 11005 bound_to 11000
  145.6211  139.1524  143.3022 LP  0  0  0  0  0  0  0  0  0  0  0  0  # atno 17320 bound_to 7965
  146.1924  140.6321  142.9139 LP  0  0  0  0  0  0  0  0  0  0  0  0  # atno 17321 bound_to 7965
  140.5418  143.2222  151.8073 LP  0  0  0  0  0  0  0  0  0  0  0  0  # atno 17342 bound_to 10162
  139.4860  144.4591  151.9563 LP  0  0  0  0  0  0  0  0  0  0  0  0  # atno 17343 bound_to 10162
  156.0574  130.5633  150.9122 LP  0  0  0  0  0  0  0  0  0  0  0  0  # atno 17370 bound_to 10713
  157.6017  131.0941  150.8949 LP  0  0  0  0  0  0  0  0  0  0  0  0  # atno 17371 bound_to 10713
  140.6820  133.9466  155.7916 LP  0  0  0  0  0  0  0  0  0  0  0  0  # atno 17394 bound_to 11000
  141.0503  134.0494  157.3792 LP  0  0  0  0  0  0  0  0  0  0  0  0  # atno 17395 bound_to 11000

$$$$
