AV-unprocessed.smi:3033|AV-procd|sdf|11573|dock7
  -GOLD-   2272016543D 1   1.00000     0.00000
 Structure written by MMmdl.
 33 34  0  0  0  0  0  0  0  0  1 V2000
  154.2709  141.1277  161.6790 C   0  0  0  0  0  0  0  0  0  0  0  0
  153.3773  140.7775  160.6323 O   0  0  0  0  0  0  0  0  0  0  0  0
  152.7867  141.7962  159.9158 C   0  0  0  0  0  0  0  0  0  0  0  0
  153.1714  143.1577  160.0026 C   0  0  0  0  0  0  0  0  0  0  0  0
  152.5090  144.1345  159.2351 C   0  0  0  0  0  0  0  0  0  0  0  0
  151.4602  143.7660  158.3730 C   0  0  0  0  0  0  0  0  0  0  0  0
  151.0690  142.4145  158.2725 C   0  0  0  0  0  0  0  0  0  0  0  0
  149.9308  142.0045  157.3502 C   0  0  2  0  0  0  0  0  0  0  0  0
  148.8725  141.4177  158.0814 O   0  0  0  0  0  0  0  0  0  0  0  0
  150.4220  141.0109  156.2747 C   0  0  0  0  0  0  0  0  0  0  0  0
  149.4723  140.8171  155.2049 N   0  0  0  0  0  0  0  0  0  0  0  0
  148.4276  141.7007  154.9805 C   0  0  0  0  0  0  0  0  0  0  0  0
  147.5070  141.5308  154.0011 C   0  0  0  0  0  0  0  0  0  0  0  0
  146.2318  142.6763  153.7881 Cl  0  0  0  0  0  0  0  0  0  0  0  0
  147.5858  140.3684  153.1173 C   0  0  0  0  0  0  0  0  0  0  0  0
  146.8084  140.1182  152.1983 O   0  0  0  0  0  0  0  0  0  0  0  0
  148.6500  139.5016  153.3841 N   0  0  0  0  0  0  0  0  0  0  0  0
  149.6003  139.6666  154.3925 C   0  0  0  0  0  0  0  0  0  0  0  0
  150.4897  138.8280  154.5363 O   0  0  0  0  0  0  0  0  0  0  0  0
  151.7340  141.4410  159.0475 C   0  0  0  0  0  0  0  0  0  0  0  0
  148.7372  138.6842  152.7981 H   0  0  0  0  0  0  0  0  0  0  0  0
  154.6464  140.2197  162.1507 H   0  0  0  0  0  0  0  0  0  0  0  0
  153.7717  141.7168  162.4497 H   0  0  0  0  0  0  0  0  0  0  0  0
  155.1306  141.6820  161.3002 H   0  0  0  0  0  0  0  0  0  0  0  0
  153.9714  143.4792  160.6521 H   0  0  0  0  0  0  0  0  0  0  0  0
  152.8063  145.1701  159.3082 H   0  0  0  0  0  0  0  0  0  0  0  0
  150.9563  144.5240  157.7907 H   0  0  0  0  0  0  0  0  0  0  0  0
  149.5405  142.9022  156.8683 H   0  0  0  0  0  0  0  0  0  0  0  0
  148.9645  141.6618  158.9895 H   0  0  0  0  0  0  0  0  0  0  0  0
  151.3066  141.4104  155.7747 H   0  0  0  0  0  0  0  0  0  0  0  0
  150.7290  140.0419  156.6745 H   0  0  0  0  0  0  0  0  0  0  0  0
  148.3387  142.5674  155.6204 H   0  0  0  0  0  0  0  0  0  0  0  0
  151.4355  140.4049  158.9795 H   0  0  0  0  0  0  0  0  0  0  0  0
  1  2  1  0  0  0  0
  1 22  1  0  0  0  0
  1 23  1  0  0  0  0
  1 24  1  0  0  0  0
  2  3  1  0  0  0  0
  3 20  1  0  0  0  0
  3  4  2  0  0  0  0
  4  5  1  0  0  0  0
  4 25  1  0  0  0  0
  5  6  2  0  0  0  0
  5 26  1  0  0  0  0
  6  7  1  0  0  0  0
  6 27  1  0  0  0  0
  7  8  1  0  0  0  0
  7 20  2  0  0  0  0
  8  9  1  0  0  0  0
  8 10  1  0  0  0  0
  8 28  1  0  0  0  0
  9 29  1  0  0  0  0
 10 11  1  0  0  0  0
 10 30  1  0  0  0  0
 10 31  1  0  0  0  0
 11 18  1  0  0  0  0
 11 12  1  0  0  0  0
 12 13  2  0  0  0  0
 12 32  1  0  0  0  0
 13 14  1  0  0  0  0
 13 15  1  0  0  0  0
 15 16  2  0  0  0  0
 15 17  1  0  0  0  0
 17 21  1  0  0  0  0
 17 18  1  0  0  0  0
 18 19  2  0  0  0  0
 20 33  1  0  0  0  0
M  END
> <s_m_source_file>
AV-unprocessed.smi

> <i_m_source_file_index>
3033

> <i_lp_mmshare_version>
43012

> <i_f3d_flags>
0

> <s_epik_input>
W0NIM11PYzFbY0hdW2NIXVtjSF1jKFtjSF0xKVtDQEhdKFtPSF0pW0NIMl1uMltjSF1jKENsKWMoPU8pW25IXWMyPU8=

> <s_epik_cmdline>
J2VwaWtfcHl0aG9uJywgJy1waCcsICc3LjAnLCAnLXRuJywgJzgnLCAnLW1hJywgJzIwMCcsICctbWV0YWxfYmluZGluZycsICctaW1hZScsICc8aW5maWxlLm1hZT4nLCAnLW9tYWUnLCAnPG91dGZpbGUubWFlPic=

> <r_lp_tautomer_probability>
0.999537

> <r_epik_Ionization_Penalty>
0.0292058

> <r_epik_Ionization_Penalty_Charging>
0.0292057

> <r_epik_Ionization_Penalty_Neutral>
7.1713e-08

> <r_epik_State_Penalty>
0.0240115

> <r_epik_Charging_Adjusted_Penalty>
0.0532172

> <i_epik_Tot_Q>
0

> <i_epik_Tot_abs_Q>
0

> <r_epik_Metal_State_Penalty>
2.21956

> <b_epik_Metal_Only>
0

> <s_lp_Force_Field>
OPLS_2005

> <r_lp_Energy>
16.8707

> <b_lp_Chiralities_Consistent>
1

> <s_lp_Variant>
AV-unprocessed.smi:3033-1

> <Gold.Version>
5.8.1

> <Gold.Id.Protein>
6NUR|6NUR_protein|mol2

> <Gold.PLP.Fitness>
45.0268

> <Gold.PLP.PLP>
-42.8527

> <Gold.PLP.part.hbond>
-0.7293

> <Gold.PLP.part.metal>
0.0000

> <Gold.PLP.part.buried>
-3.2601

> <Gold.PLP.part.nonpolar>
-40.4413

> <Gold.PLP.part.repulsive>
1.6427

> <Gold.PLP.ligand.clash>
0.0000

> <Gold.PLP.ligand.torsion>
0.4209

> <Gold.PLP.Chemscore.Hbond>
0.0000

> <Gold.PLP.Chemscore.CHOScore>
1.0000

> <Gold.PLP.Chemscore.Metal>
0.0000

> <Gold.Chemscore.Hbonds>
donor molecule, donor type, donor heavy atom, donor atom, acceptor molecule, acceptor atom, score
      L1  C    12    32       P1  8028  1.00

> <Gold.PLP.Chemscore.Internal.Correction>
0.0160

> <Gold.Rescore>
     Score         DG    S(hbond)    S(metal)    S(lipo)     H(rot)  DE(clash)    DE(int)     intcor
     13.28     -14.32       0.99        0.00     102.33       2.51       0.61       0.42       ----

> <Gold.Chemscore.Fitness>
13.2834

> <Gold.Chemscore.DG>
-14.3196

> <Gold.Chemscore.ZeroCoef>
-5.4800

> <Gold.Chemscore.Hbond>
0.9863

> <Gold.Chemscore.Metal>
0.0000

> <Gold.Chemscore.Lipo>
102.3312

> <Gold.Chemscore.Internal_Hbond>
0.0000

> <Gold.Chemscore.DEClash>
0.6131

> <Gold.Chemscore.DEInternal>
0.4232

> <Gold.Chemscore.Rot>
2.5107

> <Gold.Chemscore.Internal.Correction>
   9.000000E+99

> <Gold.Chemscore.Hbond.Weighted>
-3.2943

> <Gold.Chemscore.Metal.Weighted>
-0.0000

> <Gold.Chemscore.Lipo.Weighted>
-11.9727

> <Gold.Chemscore.Internal_Hbond.Weighted>
0.0000

> <Gold.Chemscore.DEClash.Weighted>
0.6131

> <Gold.Chemscore.DEInternal.Weighted>
0.4232

> <Gold.Chemscore.Rot.Weighted>
6.4274

> <Gold.Chemscore.Internal.Correction.Weighted>
   9.000000E+99

> <Gold.Protein.RotatedTorsions>
[ 6907 6896 6895 6894 ] final  -51.24 input  -60.11 | X-H torsion
[ 7974 7965 7964 7962 ] final  -34.61 input  175.53 | X-H torsion
[ 8008 7997 7996 7995 ] final  171.99 input   59.86 | X-H torsion
[ 10167 10162 10161 10158 ] final -149.93 input  -65.29 | X-H torsion
[ 10718 10713 10712 10709 ] final  -97.98 input   66.30 | X-H torsion
[ 10763 10752 10751 10750 ] final   96.35 input  -60.55 | X-H torsion
[ 11005 11000 10999 10996 ] final  -61.51 input  -57.11 | X-H torsion

> <Gold.Protein.ActiveResidues>
 VAL166  LYS551  ARG553  GLY616  TRP617  ASP618  TYR619  PRO620  LYS621  CYS622 
 ASP623  PHE694  ASN695  SER759  ASP760  ASP761  ALA762  ILE779  LEU786  VAL792 
 PHE793  MET794  SER795  GLU796  ALA797  LYS798  CYS799  TRP800  GLU811  SER814 

> <Gold.Protein.RotatedAtoms>
  150.8631  134.7987  159.7097 H   0  0  0  0  0  0  0  0  0  0  0  0  # atno 6907 bound_to 6896
  152.4661  134.5068  159.9751 H   0  0  0  0  0  0  0  0  0  0  0  0  # atno 6908 bound_to 6896
  151.5169  133.3435  159.2930 H   0  0  0  0  0  0  0  0  0  0  0  0  # atno 6909 bound_to 6896
  146.0815  140.6059  142.8906 H   0  0  0  0  0  0  0  0  0  0  0  0  # atno 7974 bound_to 7965
  156.1218  140.1497  156.9194 H   0  0  0  0  0  0  0  0  0  0  0  0  # atno 8008 bound_to 7997
  154.4841  140.0870  156.7488 H   0  0  0  0  0  0  0  0  0  0  0  0  # atno 8009 bound_to 7997
  155.4415  140.3431  155.4292 H   0  0  0  0  0  0  0  0  0  0  0  0  # atno 8010 bound_to 7997
  139.7398  143.8679  152.2559 H   0  0  0  0  0  0  0  0  0  0  0  0  # atno 10167 bound_to 10162
  156.0096  130.5218  150.6455 H   0  0  0  0  0  0  0  0  0  0  0  0  # atno 10718 bound_to 10713
  153.2639  135.4221  155.0922 H   0  0  0  0  0  0  0  0  0  0  0  0  # atno 10763 bound_to 10752
  154.8431  135.3456  154.6338 H   0  0  0  0  0  0  0  0  0  0  0  0  # atno 10764 bound_to 10752
  153.6758  135.7041  153.5190 H   0  0  0  0  0  0  0  0  0  0  0  0  # atno 10765 bound_to 10752
  141.1327  133.6631  156.5387 H   0  0  0  0  0  0  0  0  0  0  0  0  # atno 11005 bound_to 11000
  144.7296  140.4632  143.6947 LP  0  0  0  0  0  0  0  0  0  0  0  0  # atno 17320 bound_to 7965
  145.6209  139.1524  143.3023 LP  0  0  0  0  0  0  0  0  0  0  0  0  # atno 17321 bound_to 7965
  139.8626  144.7109  150.9081 LP  0  0  0  0  0  0  0  0  0  0  0  0  # atno 17342 bound_to 10162
  140.7784  143.3805  151.1486 LP  0  0  0  0  0  0  0  0  0  0  0  0  # atno 17343 bound_to 10162
  157.4227  131.0839  151.1115 LP  0  0  0  0  0  0  0  0  0  0  0  0  # atno 17370 bound_to 10713
  157.1712  130.6268  149.5641 LP  0  0  0  0  0  0  0  0  0  0  0  0  # atno 17371 bound_to 10713
  140.4157  134.7232  157.4861 LP  0  0  0  0  0  0  0  0  0  0  0  0  # atno 17394 bound_to 11000
  140.0395  134.6288  155.8999 LP  0  0  0  0  0  0  0  0  0  0  0  0  # atno 17395 bound_to 11000

$$$$
