AV-unprocessed.smi:767|AV-procd|sdf|3672|dock6
  -GOLD-   22720 1 83D 1   1.00000     0.00000
 Structure written by MMmdl.
 48 50  0  0  0  0  0  0  0  0  2 V2000
  143.6313  132.5542  148.1195 C   0  0  0  0  0  0  0  0  0  0  0  0
  144.2460  132.7086  149.4939 C   0  0  0  0  0  0  0  0  0  0  0  0
  145.5070  132.1652  149.8176 C   0  0  0  0  0  0  0  0  0  0  0  0
  146.0324  132.3676  151.1101 C   0  0  0  0  0  0  0  0  0  0  0  0
  145.2846  133.1038  152.0555 C   0  0  0  0  0  0  0  0  0  0  0  0
  145.8431  133.3806  153.4415 C   0  0  0  0  0  0  0  0  0  0  0  0
  145.7747  134.8643  153.8582 C   0  0  0  0  0  0  0  0  0  0  0  0
  147.0872  135.5085  153.8611 N   0  0  0  0  0  0  0  0  0  0  0  0
  147.5930  136.2310  154.8716 C   0  0  0  0  0  0  0  0  0  0  0  0
  147.0112  136.4282  155.9388 O   0  0  0  0  0  0  0  0  0  0  0  0
  148.7952  136.7391  154.5732 N   0  0  0  0  0  0  0  0  0  0  0  0
  149.5383  137.6338  155.4525 C   0  0  1  0  0  0  0  0  0  0  0  0
  150.8806  138.0644  154.8638 C   0  0  2  0  0  0  0  0  0  0  0  0
  152.3039  137.8288  155.2247 C   0  0  0  0  0  0  0  0  0  0  0  0
  152.8012  139.2935  155.0960 C   0  0  0  0  0  0  0  0  0  0  0  0
  151.6103  140.1078  154.9651 O   0  0  0  0  0  0  0  0  0  0  0  0
  150.6130  139.3524  155.6209 C   0  0  1  0  0  0  0  0  0  0  0  0
  149.1173  139.1459  155.3103 C   0  0  0  0  0  0  0  0  0  0  0  0
  148.5909  139.6719  153.9595 C   0  0  0  0  0  0  0  0  0  0  0  0
  148.1414  139.6481  156.3751 C   0  0  0  0  0  0  0  0  0  0  0  0
  144.0186  133.6040  151.6814 C   0  0  0  0  0  0  0  0  0  0  0  0
  143.5546  133.3964  150.4299 N   0  3  0  0  0  0  0  0  0  0  0  0
  144.3944  132.3185  147.3768 H   0  0  0  0  0  0  0  0  0  0  0  0
  143.1363  133.4763  147.8132 H   0  0  0  0  0  0  0  0  0  0  0  0
  142.8951  131.7502  148.1229 H   0  0  0  0  0  0  0  0  0  0  0  0
  146.0729  131.6123  149.0822 H   0  0  0  0  0  0  0  0  0  0  0  0
  147.0055  131.9731  151.3642 H   0  0  0  0  0  0  0  0  0  0  0  0
  145.2959  132.7731  154.1630 H   0  0  0  0  0  0  0  0  0  0  0  0
  146.8785  133.0400  153.4845 H   0  0  0  0  0  0  0  0  0  0  0  0
  145.0873  135.4057  153.2060 H   0  0  0  0  0  0  0  0  0  0  0  0
  145.3568  134.9404  154.8620 H   0  0  0  0  0  0  0  0  0  0  0  0
  147.6457  135.4051  153.0264 H   0  0  0  0  0  0  0  0  0  0  0  0
  149.2062  136.5238  153.6766 H   0  0  0  0  0  0  0  0  0  0  0  0
  149.6178  137.2833  156.4859 H   0  0  0  0  0  0  0  0  0  0  0  0
  150.7998  138.1749  153.7800 H   0  0  0  0  0  0  0  0  0  0  0  0
  152.4100  137.4489  156.2420 H   0  0  0  0  0  0  0  0  0  0  0  0
  152.8105  137.1519  154.5361 H   0  0  0  0  0  0  0  0  0  0  0  0
  153.3705  139.5893  155.9780 H   0  0  0  0  0  0  0  0  0  0  0  0
  153.4359  139.4332  154.2204 H   0  0  0  0  0  0  0  0  0  0  0  0
  150.8214  139.2873  156.6951 H   0  0  0  0  0  0  0  0  0  0  0  0
  148.4369  140.7510  153.9901 H   0  0  0  0  0  0  0  0  0  0  0  0
  147.6348  139.2175  153.7044 H   0  0  0  0  0  0  0  0  0  0  0  0
  149.2630  139.4850  153.1242 H   0  0  0  0  0  0  0  0  0  0  0  0
  148.1145  140.7374  156.4140 H   0  0  0  0  0  0  0  0  0  0  0  0
  148.4187  139.2972  157.3696 H   0  0  0  0  0  0  0  0  0  0  0  0
  147.1269  139.2979  156.1838 H   0  0  0  0  0  0  0  0  0  0  0  0
  143.3798  134.1832  152.3323 H   0  0  0  0  0  0  0  0  0  0  0  0
  142.6447  133.7829  150.1778 H   0  0  0  0  0  0  0  0  0  0  0  0
  1  2  1  0  0  0  0
  1 23  1  0  0  0  0
  1 24  1  0  0  0  0
  1 25  1  0  0  0  0
  2 22  1  0  0  0  0
  2  3  2  0  0  0  0
  3  4  1  0  0  0  0
  3 26  1  0  0  0  0
  4  5  2  0  0  0  0
  4 27  1  0  0  0  0
  5  6  1  0  0  0  0
  5 21  1  0  0  0  0
  6  7  1  0  0  0  0
  6 28  1  0  0  0  0
  6 29  1  0  0  0  0
  7  8  1  0  0  0  0
  7 30  1  0  0  0  0
  7 31  1  0  0  0  0
  8  9  1  0  0  0  0
  8 32  1  0  0  0  0
  9 10  2  0  0  0  0
  9 11  1  0  0  0  0
 11 12  1  0  0  0  0
 11 33  1  0  0  0  0
 12 18  1  0  0  0  0
 12 13  1  0  0  0  0
 12 34  1  0  0  0  0
 13 17  1  0  0  0  0
 13 14  1  0  0  0  0
 13 35  1  0  0  0  0
 14 15  1  0  0  0  0
 14 36  1  0  0  0  0
 14 37  1  0  0  0  0
 15 16  1  0  0  0  0
 15 38  1  0  0  0  0
 15 39  1  0  0  0  0
 16 17  1  0  0  0  0
 17 18  1  0  0  0  0
 17 40  1  0  0  0  0
 18 19  1  0  0  0  0
 18 20  1  0  0  0  0
 19 41  1  0  0  0  0
 19 42  1  0  0  0  0
 19 43  1  0  0  0  0
 20 44  1  0  0  0  0
 20 45  1  0  0  0  0
 20 46  1  0  0  0  0
 21 22  2  0  0  0  0
 21 47  1  0  0  0  0
 22 48  1  0  0  0  0
M  CHG  1  22   1
M  END
> <s_m_source_file>
AV-unprocessed.smi

> <i_m_source_file_index>
767

> <i_lp_mmshare_version>
43012

> <i_f3d_flags>
0

> <s_epik_input>
W0NIM11jMVtjSF1bY0hdYyhbY0hdbjEpW0NIMl1bQ0gyXVtOSF1DKD1PKVtOSF1bQ0BIXTJDKFtDSDNdKShbQ0gzXSlbQ0BIXShbQ0BASF0yMylPW0NIMl1bQ0gyXTM=

> <s_epik_cmdline>
J2VwaWtfcHl0aG9uJywgJy1waCcsICc3LjAnLCAnLXRuJywgJzgnLCAnLW1hJywgJzIwMCcsICctbWV0YWxfYmluZGluZycsICctaW1hZScsICc8aW5maWxlLm1hZT4nLCAnLW9tYWUnLCAnPG91dGZpbGUubWFlPic=

> <r_epik_Ionization_Penalty>
1.41853

> <r_epik_Ionization_Penalty_Charging>
1.41848

> <r_epik_Ionization_Penalty_Neutral>
5.17407e-05

> <r_epik_State_Penalty>
1.50205

> <r_epik_Charging_Adjusted_Penalty>
2.92053

> <i_epik_Tot_Q>
1

> <i_epik_Tot_abs_Q>
1

> <r_epik_Metal_State_Penalty>
1.5544

> <b_epik_Metal_Only>
0

> <s_lp_Force_Field>
OPLS_2005

> <r_lp_Energy>
61.237

> <b_lp_Chiralities_Consistent>
1

> <s_lp_Variant>
AV-unprocessed.smi:767-16

> <Gold.Version>
5.8.1

> <Gold.Id.Protein>
6NUR|6NUR_protein|mol2

> <Gold.PLP.Fitness>
48.5060

> <Gold.PLP.PLP>
-34.5544

> <Gold.PLP.part.hbond>
-4.0000

> <Gold.PLP.part.metal>
0.0000

> <Gold.PLP.part.buried>
-1.7003

> <Gold.PLP.part.nonpolar>
-29.1207

> <Gold.PLP.part.repulsive>
0.0887

> <Gold.PLP.ligand.clash>
0.0000

> <Gold.PLP.ligand.torsion>
0.6494

> <Gold.PLP.Chemscore.Hbond>
4.9920

> <Gold.PLP.Chemscore.CHOScore>
0.0000

> <Gold.PLP.Chemscore.Metal>
0.0000

> <Gold.Chemscore.Hbonds>
donor molecule, donor type, donor heavy atom, donor atom, acceptor molecule, acceptor atom, score
      L1  H     8    32       P1  7948  0.94
      L1  H    11    33       P1  7948  0.99
      L1  H    22    48       P1 10186  2.00
      P1  H  7989  7998       L1    16  1.00

> <Gold.PLP.Chemscore.Internal.Correction>
0.2744

> <Gold.Rescore>
     Score         DG    S(hbond)    S(metal)    S(lipo)     H(rot)  DE(clash)    DE(int)     intcor
     24.43     -27.01       3.84        0.00     107.67       1.52       1.83       0.75       ----

> <Gold.Chemscore.Fitness>
24.4251

> <Gold.Chemscore.DG>
-27.0076

> <Gold.Chemscore.ZeroCoef>
-5.4800

> <Gold.Chemscore.Hbond>
3.8412

> <Gold.Chemscore.Metal>
0.0000

> <Gold.Chemscore.Lipo>
107.6709

> <Gold.Chemscore.Internal_Hbond>
0.0000

> <Gold.Chemscore.DEClash>
1.8325

> <Gold.Chemscore.DEInternal>
0.7500

> <Gold.Chemscore.Rot>
1.5233

> <Gold.Chemscore.Internal.Correction>
   9.000000E+99

> <Gold.Chemscore.Hbonds>
donor molecule, donor type, donor heavy atom, donor atom, acceptor molecule, acceptor atom, score
      L1  H     8    32       P1  7948  0.91
      L1  H    11    33       P1  7948  0.90
      L1  H    22    48       P1 10186  1.00
      P1  H  7989  7998       L1    16  0.62

> <Gold.Chemscore.Hbond.Weighted>
-12.8296

> <Gold.Chemscore.Metal.Weighted>
-0.0000

> <Gold.Chemscore.Lipo.Weighted>
-12.5975

> <Gold.Chemscore.Internal_Hbond.Weighted>
0.0000

> <Gold.Chemscore.DEClash.Weighted>
1.8325

> <Gold.Chemscore.DEInternal.Weighted>
0.7500

> <Gold.Chemscore.Rot.Weighted>
3.8995

> <Gold.Chemscore.Internal.Correction.Weighted>
   9.000000E+99

> <Gold.Protein.RotatedTorsions>
[ 6907 6896 6895 6894 ] final -156.24 input  -60.11 | X-H torsion
[ 7974 7965 7964 7962 ] final  -26.91 input  175.53 | X-H torsion
[ 8008 7997 7996 7995 ] final  -68.44 input   59.86 | X-H torsion
[ 10167 10162 10161 10158 ] final  -21.35 input  -65.29 | X-H torsion
[ 10718 10713 10712 10709 ] final -100.57 input   66.30 | X-H torsion
[ 10763 10752 10751 10750 ] final  158.75 input  -60.55 | X-H torsion
[ 11005 11000 10999 10996 ] final  -98.62 input  -57.11 | X-H torsion

> <Gold.Protein.ActiveResidues>
 VAL166  LYS551  ARG553  GLY616  TRP617  ASP618  TYR619  PRO620  LYS621  CYS622 
 ASP623  PHE694  ASN695  SER759  ASP760  ASP761  ALA762  ILE779  LEU786  VAL792 
 PHE793  MET794  SER795  GLU796  ALA797  LYS798  CYS799  TRP800  GLU811  SER814 

> <Gold.Protein.RotatedAtoms>
  151.2846  133.4193  159.2628 H   0  0  0  0  0  0  0  0  0  0  0  0  # atno 6907 bound_to 6896
  151.0330  134.9553  159.8131 H   0  0  0  0  0  0  0  0  0  0  0  0  # atno 6908 bound_to 6896
  152.5349  134.2807  159.9059 H   0  0  0  0  0  0  0  0  0  0  0  0  # atno 6909 bound_to 6896
  146.1394  140.5082  142.8659 H   0  0  0  0  0  0  0  0  0  0  0  0  # atno 7974 bound_to 7965
  154.4868  140.0873  156.7505 H   0  0  0  0  0  0  0  0  0  0  0  0  # atno 8008 bound_to 7997
  155.4330  140.3450  155.4264 H   0  0  0  0  0  0  0  0  0  0  0  0  # atno 8009 bound_to 7997
  156.1273  140.1491  156.9105 H   0  0  0  0  0  0  0  0  0  0  0  0  # atno 8010 bound_to 7997
  140.7281  143.4636  151.0345 H   0  0  0  0  0  0  0  0  0  0  0  0  # atno 10167 bound_to 10162
  156.0167  130.5334  150.6836 H   0  0  0  0  0  0  0  0  0  0  0  0  # atno 10718 bound_to 10713
  154.2210  135.2782  155.2924 H   0  0  0  0  0  0  0  0  0  0  0  0  # atno 10763 bound_to 10752
  154.5702  135.5621  153.7091 H   0  0  0  0  0  0  0  0  0  0  0  0  # atno 10764 bound_to 10752
  153.0042  135.6319  154.2350 H   0  0  0  0  0  0  0  0  0  0  0  0  # atno 10765 bound_to 10752
  141.1338  133.8259  157.0864 H   0  0  0  0  0  0  0  0  0  0  0  0  # atno 11005 bound_to 11000
  144.7775  140.5770  143.6628 LP  0  0  0  0  0  0  0  0  0  0  0  0  # atno 17320 bound_to 7965
  145.5082  139.1480  143.3619 LP  0  0  0  0  0  0  0  0  0  0  0  0  # atno 17321 bound_to 7965
  139.8322  143.7675  152.3180 LP  0  0  0  0  0  0  0  0  0  0  0  0  # atno 17342 bound_to 10162
  139.7795  144.7449  151.0109 LP  0  0  0  0  0  0  0  0  0  0  0  0  # atno 17343 bound_to 10162
  157.4533  131.0875  151.0823 LP  0  0  0  0  0  0  0  0  0  0  0  0  # atno 17370 bound_to 10713
  157.1332  130.6111  149.5535 LP  0  0  0  0  0  0  0  0  0  0  0  0  # atno 17371 bound_to 10713
  140.0420  134.9850  157.0978 LP  0  0  0  0  0  0  0  0  0  0  0  0  # atno 17394 bound_to 11000
  140.4121  134.1970  155.7163 LP  0  0  0  0  0  0  0  0  0  0  0  0  # atno 17395 bound_to 11000

$$$$
