AV-unprocessed.smi:3135|AV-procd|sdf|11947|dock1
  -GOLD-   2272017343D 1   1.00000     0.00000
 Structure written by MMmdl.
 37 38  0  0  0  0  0  0  0  0  1 V2000
  154.2034  141.3383  160.0495 C   0  0  0  0  0  0  0  0  0  0  0  0
  153.1673  142.4069  160.2463 C   0  0  0  0  0  0  0  0  0  0  0  0
  152.7539  143.0057  161.4701 C   0  0  0  0  0  0  0  0  0  0  0  0
  151.8144  143.9220  161.3030 N   0  0  0  0  0  0  0  0  0  0  0  0
  151.5981  143.9461  159.9704 N   0  0  0  0  0  0  0  0  0  0  0  0
  150.6078  144.8520  159.4142 C   0  0  0  0  0  0  0  0  0  0  0  0
  149.3352  144.8776  160.2642 C   0  0  0  0  0  0  0  0  0  0  0  0
  149.2759  144.2268  161.3075 O   0  0  0  0  0  0  0  0  0  0  0  0
  148.3252  145.6348  159.8081 N   0  0  0  0  0  0  0  0  0  0  0  0
  147.0367  145.7996  160.4693 C   0  0  0  0  0  0  0  0  0  0  0  0
  146.2349  144.4837  160.4704 C   0  0  0  0  0  0  0  0  0  0  0  0
  144.7940  144.7202  160.4137 N   0  0  0  0  0  0  0  0  0  0  0  0
  144.3131  144.7016  159.0370 C   0  0  0  0  0  0  0  0  0  0  0  0
  144.1208  143.6541  161.1386 C   0  0  0  0  0  0  0  0  0  0  0  0
  142.8475  144.0033  161.8755 C   0  0  0  0  0  0  0  0  0  0  0  0
  144.1149  143.7314  162.6487 C   0  0  0  0  0  0  0  0  0  0  0  0
  152.3977  143.0366  159.3094 C   0  0  0  0  0  0  0  0  0  0  0  0
  155.1001  141.5350  160.6372 H   0  0  0  0  0  0  0  0  0  0  0  0
  154.5143  141.2609  159.0075 H   0  0  0  0  0  0  0  0  0  0  0  0
  153.8308  140.3585  160.3481 H   0  0  0  0  0  0  0  0  0  0  0  0
  153.1067  142.8013  162.4701 H   0  0  0  0  0  0  0  0  0  0  0  0
  151.0495  145.8472  159.3457 H   0  0  0  0  0  0  0  0  0  0  0  0
  150.3560  144.5424  158.3985 H   0  0  0  0  0  0  0  0  0  0  0  0
  148.4604  146.1356  158.9417 H   0  0  0  0  0  0  0  0  0  0  0  0
  147.1848  146.1596  161.4889 H   0  0  0  0  0  0  0  0  0  0  0  0
  146.4993  146.5831  159.9363 H   0  0  0  0  0  0  0  0  0  0  0  0
  146.5472  143.8361  159.6495 H   0  0  0  0  0  0  0  0  0  0  0  0
  146.4603  143.9469  161.3932 H   0  0  0  0  0  0  0  0  0  0  0  0
  143.2301  144.8282  159.0117 H   0  0  0  0  0  0  0  0  0  0  0  0
  144.5545  143.7589  158.5438 H   0  0  0  0  0  0  0  0  0  0  0  0
  144.7444  145.5143  158.4538 H   0  0  0  0  0  0  0  0  0  0  0  0
  144.1561  142.6461  160.7281 H   0  0  0  0  0  0  0  0  0  0  0  0
  142.4984  145.0333  161.8323 H   0  0  0  0  0  0  0  0  0  0  0  0
  142.0656  143.2475  161.9093 H   0  0  0  0  0  0  0  0  0  0  0  0
  144.1782  142.7946  163.1985 H   0  0  0  0  0  0  0  0  0  0  0  0
  144.6084  144.5810  163.1176 H   0  0  0  0  0  0  0  0  0  0  0  0
  152.3552  142.9172  158.2367 H   0  0  0  0  0  0  0  0  0  0  0  0
  1  2  1  0  0  0  0
  1 18  1  0  0  0  0
  1 19  1  0  0  0  0
  1 20  1  0  0  0  0
  2 17  2  0  0  0  0
  2  3  1  0  0  0  0
  3  4  2  0  0  0  0
  3 21  1  0  0  0  0
  4  5  1  0  0  0  0
  5  6  1  0  0  0  0
  5 17  1  0  0  0  0
  6  7  1  0  0  0  0
  6 22  1  0  0  0  0
  6 23  1  0  0  0  0
  7  8  2  0  0  0  0
  7  9  1  0  0  0  0
  9 10  1  0  0  0  0
  9 24  1  0  0  0  0
 10 11  1  0  0  0  0
 10 25  1  0  0  0  0
 10 26  1  0  0  0  0
 11 12  1  0  0  0  0
 11 27  1  0  0  0  0
 11 28  1  0  0  0  0
 12 13  1  0  0  0  0
 12 14  1  0  0  0  0
 13 29  1  0  0  0  0
 13 30  1  0  0  0  0
 13 31  1  0  0  0  0
 14 16  1  0  0  0  0
 14 15  1  0  0  0  0
 14 32  1  0  0  0  0
 15 16  1  0  0  0  0
 15 33  1  0  0  0  0
 15 34  1  0  0  0  0
 16 35  1  0  0  0  0
 16 36  1  0  0  0  0
 17 37  1  0  0  0  0
M  END
> <s_m_source_file>
AV-unprocessed.smi

> <i_m_source_file_index>
3135

> <i_lp_mmshare_version>
43012

> <i_f3d_flags>
0

> <s_epik_input>
W0NIM11jMVtjSF1ubihbY0hdMSlbQ0gyXUMoPU8pW05IXVtDSDJdW0NIMl1OKFtDSDNdKVtDSF0yW0NIMl1bQ0gyXTI=

> <s_epik_cmdline>
J2VwaWtfcHl0aG9uJywgJy1waCcsICc3LjAnLCAnLXRuJywgJzgnLCAnLW1hJywgJzIwMCcsICctbWV0YWxfYmluZGluZycsICctaW1hZScsICc8aW5maWxlLm1hZT4nLCAnLW9tYWUnLCAnPG91dGZpbGUubWFlPic=

> <r_lp_tautomer_probability>
1

> <r_epik_Ionization_Penalty>
0.809981

> <r_epik_Ionization_Penalty_Charging>
0

> <r_epik_Ionization_Penalty_Neutral>
0.809981

> <r_epik_State_Penalty>
0.842006

> <r_epik_Charging_Adjusted_Penalty>
0.842006

> <i_epik_Tot_Q>
0

> <i_epik_Tot_abs_Q>
0

> <r_epik_Metal_State_Penalty>
0.84199

> <b_epik_Metal_Only>
0

> <s_lp_Force_Field>
OPLS_2005

> <r_lp_Energy>
14.2809

> <b_lp_Chiralities_Consistent>
1

> <s_lp_Variant>
AV-unprocessed.smi:3135-3

> <Gold.Version>
5.8.1

> <Gold.Id.Protein>
6NUR|6NUR_protein|mol2

> <Gold.PLP.Fitness>
43.6409

> <Gold.PLP.PLP>
-41.6215

> <Gold.PLP.part.hbond>
-2.0000

> <Gold.PLP.part.metal>
0.0000

> <Gold.PLP.part.buried>
-7.4378

> <Gold.PLP.part.nonpolar>
-33.0466

> <Gold.PLP.part.repulsive>
1.4405

> <Gold.PLP.ligand.clash>
0.0000

> <Gold.PLP.ligand.torsion>
1.4866

> <Gold.PLP.Chemscore.Hbond>
1.2602

> <Gold.PLP.Chemscore.CHOScore>
0.0000

> <Gold.PLP.Chemscore.Metal>
0.0000

> <Gold.Chemscore.Hbonds>
donor molecule, donor type, donor heavy atom, donor atom, acceptor molecule, acceptor atom, score
      L1  H     9    24       P1  8029  0.74
      P1  H  6933  6944       L1     8  0.45

> <Gold.PLP.Chemscore.Internal.Correction>
1.2119

> <Gold.Rescore>
     Score         DG    S(hbond)    S(metal)    S(lipo)     H(rot)  DE(clash)    DE(int)     intcor
     13.39     -16.39       1.45        0.00      92.37       1.85       0.07       2.92       ----

> <Gold.Chemscore.Fitness>
13.3933

> <Gold.Chemscore.DG>
-16.3858

> <Gold.Chemscore.ZeroCoef>
-5.4800

> <Gold.Chemscore.Hbond>
1.4465

> <Gold.Chemscore.Metal>
0.0000

> <Gold.Chemscore.Lipo>
92.3697

> <Gold.Chemscore.Internal_Hbond>
0.0000

> <Gold.Chemscore.DEClash>
0.0734

> <Gold.Chemscore.DEInternal>
2.9191

> <Gold.Chemscore.Rot>
1.8487

> <Gold.Chemscore.Internal.Correction>
   9.000000E+99

> <Gold.Chemscore.Hbonds>
donor molecule, donor type, donor heavy atom, donor atom, acceptor molecule, acceptor atom, score
      L1  H     9    24       P1  8029  0.74
      P1  H  6933  6944       L1     8  0.43

> <Gold.Chemscore.Hbond.Weighted>
-4.8312

> <Gold.Chemscore.Metal.Weighted>
-0.0000

> <Gold.Chemscore.Lipo.Weighted>
-10.8073

> <Gold.Chemscore.Internal_Hbond.Weighted>
0.0000

> <Gold.Chemscore.DEClash.Weighted>
0.0734

> <Gold.Chemscore.DEInternal.Weighted>
2.9191

> <Gold.Chemscore.Rot.Weighted>
4.7326

> <Gold.Chemscore.Internal.Correction.Weighted>
   9.000000E+99

> <Gold.Protein.RotatedTorsions>
[ 6907 6896 6895 6894 ] final  172.59 input  -60.11 | X-H torsion
[ 7974 7965 7964 7962 ] final -131.02 input  175.53 | X-H torsion
[ 8008 7997 7996 7995 ] final  175.01 input   59.86 | X-H torsion
[ 10167 10162 10161 10158 ] final  144.74 input  -65.29 | X-H torsion
[ 10718 10713 10712 10709 ] final  125.24 input   66.30 | X-H torsion
[ 10763 10752 10751 10750 ] final   50.37 input  -60.55 | X-H torsion
[ 11005 11000 10999 10996 ] final -173.53 input  -57.11 | X-H torsion

> <Gold.Protein.ActiveResidues>
 VAL166  LYS551  ARG553  GLY616  TRP617  ASP618  TYR619  PRO620  LYS621  CYS622 
 ASP623  PHE694  ASN695  SER759  ASP760  ASP761  ALA762  ILE779  LEU786  VAL792 
 PHE793  MET794  SER795  GLU796  ALA797  LYS798  CYS799  TRP800  GLU811  SER814 

> <Gold.Protein.RotatedAtoms>
  151.7818  133.3350  159.3473 H   0  0  0  0  0  0  0  0  0  0  0  0  # atno 6907 bound_to 6896
  150.7423  134.5923  159.6003 H   0  0  0  0  0  0  0  0  0  0  0  0  # atno 6908 bound_to 6896
  152.3270  134.7309  160.0350 H   0  0  0  0  0  0  0  0  0  0  0  0  # atno 6909 bound_to 6896
  144.9419  140.7248  143.4842 H   0  0  0  0  0  0  0  0  0  0  0  0  # atno 7974 bound_to 7965
  156.0915  140.1420  156.9586 H   0  0  0  0  0  0  0  0  0  0  0  0  # atno 8008 bound_to 7997
  154.4645  140.0931  156.7029 H   0  0  0  0  0  0  0  0  0  0  0  0  # atno 8009 bound_to 7997
  155.4912  140.3448  155.4357 H   0  0  0  0  0  0  0  0  0  0  0  0  # atno 8010 bound_to 7997
  139.4940  144.5951  151.6600 H   0  0  0  0  0  0  0  0  0  0  0  0  # atno 10167 bound_to 10162
  157.5519  131.1093  150.8687 H   0  0  0  0  0  0  0  0  0  0  0  0  # atno 10718 bound_to 10713
  152.9785  135.5881  154.4240 H   0  0  0  0  0  0  0  0  0  0  0  0  # atno 10763 bound_to 10752
  154.3861  135.2767  155.2184 H   0  0  0  0  0  0  0  0  0  0  0  0  # atno 10764 bound_to 10752
  154.4076  135.6089  153.5988 H   0  0  0  0  0  0  0  0  0  0  0  0  # atno 10765 bound_to 10752
  140.4847  134.6042  157.4932 H   0  0  0  0  0  0  0  0  0  0  0  0  # atno 11005 bound_to 11000
  145.2979  139.1861  143.4705 LP  0  0  0  0  0  0  0  0  0  0  0  0  # atno 17320 bound_to 7965
  146.3289  140.2965  142.8618 LP  0  0  0  0  0  0  0  0  0  0  0  0  # atno 17321 bound_to 7965
  140.5587  144.0305  150.6159 LP  0  0  0  0  0  0  0  0  0  0  0  0  # atno 17342 bound_to 10162
  140.3383  143.3035  152.0615 LP  0  0  0  0  0  0  0  0  0  0  0  0  # atno 17343 bound_to 10162
  156.9209  130.5314  149.5279 LP  0  0  0  0  0  0  0  0  0  0  0  0  # atno 17370 bound_to 10713
  156.0584  130.5642  150.9142 LP  0  0  0  0  0  0  0  0  0  0  0  0  # atno 17371 bound_to 10713
  139.9805  134.7144  155.9868 LP  0  0  0  0  0  0  0  0  0  0  0  0  # atno 17394 bound_to 11000
  141.1514  133.6548  156.4025 LP  0  0  0  0  0  0  0  0  0  0  0  0  # atno 17395 bound_to 11000

$$$$
