AV-unprocessed.smi:65|AV-procd|sdf|612|dock3
  -GOLD-   2262016503D 1   1.00000     0.00000
 Structure written by MMmdl.
 26 27  0  0  0  0  0  0  0  0  2 V2000
  146.6591  137.9711  151.9237 N   0  0  0  0  0  0  0  0  0  0  0  0
  145.5329  137.2261  152.1804 C   0  0  0  0  0  0  0  0  0  0  0  0
  144.4255  137.8586  152.5954 N   0  3  0  0  0  0  0  0  0  0  0  0
  143.3039  137.1421  152.8535 C   0  0  0  0  0  0  0  0  0  0  0  0
  143.2988  135.7451  152.6849 C   0  0  0  0  0  0  0  0  0  0  0  0
  144.4941  135.1522  152.2428 C   0  0  0  0  0  0  0  0  0  0  0  0
  144.5572  133.7613  152.0678 N   0  0  0  0  0  0  0  0  0  0  0  0
  145.8262  133.2856  151.5221 C   0  0  0  0  0  0  0  0  0  0  0  0
  145.4937  132.5473  150.2241 C   0  0  0  0  0  0  0  0  0  0  0  0
  144.0848  132.0335  150.4921 C   0  0  2  0  0  0  0  0  0  0  0  0
  143.3710  131.7644  149.3046 O   0  0  0  0  0  0  0  0  0  0  0  0
  143.4638  133.1772  151.2934 C   0  0  0  0  0  0  0  0  0  0  0  0
  145.5952  135.9018  152.0037 N   0  0  0  0  0  0  0  0  0  0  0  0
  147.5075  137.5218  151.6101 H   0  0  0  0  0  0  0  0  0  0  0  0
  146.6389  138.9777  152.0007 H   0  0  0  0  0  0  0  0  0  0  0  0
  142.4476  137.7102  153.1871 H   0  0  0  0  0  0  0  0  0  0  0  0
  142.4151  135.1572  152.8871 H   0  0  0  0  0  0  0  0  0  0  0  0
  146.5478  134.0863  151.3522 H   0  0  0  0  0  0  0  0  0  0  0  0
  146.2669  132.5974  152.2442 H   0  0  0  0  0  0  0  0  0  0  0  0
  145.4874  133.2551  149.3935 H   0  0  0  0  0  0  0  0  0  0  0  0
  146.2044  131.7540  149.9903 H   0  0  0  0  0  0  0  0  0  0  0  0
  144.1298  131.1320  151.1054 H   0  0  0  0  0  0  0  0  0  0  0  0
  142.6782  132.4018  149.2186 H   0  0  0  0  0  0  0  0  0  0  0  0
  142.6724  132.8166  151.9507 H   0  0  0  0  0  0  0  0  0  0  0  0
  143.0200  133.9118  150.6200 H   0  0  0  0  0  0  0  0  0  0  0  0
  144.4148  138.8712  152.7207 H   0  0  0  0  0  0  0  0  0  0  0  0
  1  2  1  0  0  0  0
  1 14  1  0  0  0  0
  1 15  1  0  0  0  0
  2 13  1  0  0  0  0
  2  3  2  0  0  0  0
  3  4  1  0  0  0  0
  3 26  1  0  0  0  0
  4  5  2  0  0  0  0
  4 16  1  0  0  0  0
  5  6  1  0  0  0  0
  5 17  1  0  0  0  0
  6  7  1  0  0  0  0
  6 13  2  0  0  0  0
  7 12  1  0  0  0  0
  7  8  1  0  0  0  0
  8  9  1  0  0  0  0
  8 18  1  0  0  0  0
  8 19  1  0  0  0  0
  9 10  1  0  0  0  0
  9 20  1  0  0  0  0
  9 21  1  0  0  0  0
 10 11  1  0  0  0  0
 10 12  1  0  0  0  0
 10 22  1  0  0  0  0
 11 23  1  0  0  0  0
 12 24  1  0  0  0  0
 12 25  1  0  0  0  0
M  CHG  1   3   1
M  END
> <s_m_source_file>
AV-unprocessed.smi

> <i_m_source_file_index>
65

> <i_lp_mmshare_version>
43012

> <i_f3d_flags>
0

> <s_epik_input>
W05IMl1jMW5bY0hdW2NIXWMobjEpTjJbQ0gyXVtDSDJdW0NAQEhdKFtPSF0pW0NIMl0y

> <s_epik_cmdline>
J2VwaWtfcHl0aG9uJywgJy1waCcsICc3LjAnLCAnLXRuJywgJzgnLCAnLW1hJywgJzIwMCcsICctbWV0YWxfYmluZGluZycsICctaW1hZScsICc8aW5maWxlLm1hZT4nLCAnLW9tYWUnLCAnPG91dGZpbGUubWFlPic=

> <r_lp_tautomer_probability>
0.575011

> <r_epik_Ionization_Penalty>
0.212468

> <r_epik_Ionization_Penalty_Charging>
0.212464

> <r_epik_Ionization_Penalty_Neutral>
4.40197e-06

> <r_epik_State_Penalty>
0.43682

> <r_epik_Charging_Adjusted_Penalty>
0.649284

> <i_epik_Tot_Q>
1

> <i_epik_Tot_abs_Q>
1

> <r_epik_Metal_State_Penalty>
0.733762

> <b_epik_Metal_Only>
0

> <s_lp_Force_Field>
OPLS_2005

> <r_lp_Energy>
27.6482

> <b_lp_Chiralities_Consistent>
1

> <s_lp_Variant>
AV-unprocessed.smi:65-2

> <Gold.Version>
5.8.1

> <Gold.Id.Protein>
6NUR|6NUR_protein|mol2

> <Gold.PLP.Fitness>
40.7066

> <Gold.PLP.PLP>
-25.9298

> <Gold.PLP.part.hbond>
-5.0000

> <Gold.PLP.part.metal>
0.0000

> <Gold.PLP.part.buried>
-5.8543

> <Gold.PLP.part.nonpolar>
-16.0192

> <Gold.PLP.part.repulsive>
0.3556

> <Gold.PLP.ligand.clash>
0.0000

> <Gold.PLP.ligand.torsion>
0.1374

> <Gold.PLP.Chemscore.Hbond>
5.0000

> <Gold.PLP.Chemscore.CHOScore>
0.0000

> <Gold.PLP.Chemscore.Metal>
0.0000

> <Gold.Chemscore.Hbonds>
donor molecule, donor type, donor heavy atom, donor atom, acceptor molecule, acceptor atom, score
      L1  H     1    14       P1  7948  2.00
      L1  H     3    26       P1 10175  2.00
      P1  H 10785 10796       L1    11  1.00

> <Gold.PLP.Chemscore.Internal.Correction>
0.0516

> <Gold.Rescore>
     Score         DG    S(hbond)    S(metal)    S(lipo)     H(rot)  DE(clash)    DE(int)     intcor
     15.70     -15.90       2.93        0.00      39.66       1.56       0.00       0.20       ----

> <Gold.Chemscore.Fitness>
15.7004

> <Gold.Chemscore.DG>
-15.9025

> <Gold.Chemscore.ZeroCoef>
-5.4800

> <Gold.Chemscore.Hbond>
2.9301

> <Gold.Chemscore.Metal>
0.0000

> <Gold.Chemscore.Lipo>
39.6565

> <Gold.Chemscore.Internal_Hbond>
0.0000

> <Gold.Chemscore.DEClash>
0.0000

> <Gold.Chemscore.DEInternal>
0.2022

> <Gold.Chemscore.Rot>
1.5640

> <Gold.Chemscore.Internal.Correction>
   9.000000E+99

> <Gold.Chemscore.Hbonds>
donor molecule, donor type, donor heavy atom, donor atom, acceptor molecule, acceptor atom, score
      L1  H     1    14       P1  7948  0.97
      L1  H     3    26       P1 10175  0.94
      P1  H 10785 10796       L1    11  0.93

> <Gold.Chemscore.Hbond.Weighted>
-9.7865

> <Gold.Chemscore.Metal.Weighted>
-0.0000

> <Gold.Chemscore.Lipo.Weighted>
-4.6398

> <Gold.Chemscore.Internal_Hbond.Weighted>
0.0000

> <Gold.Chemscore.DEClash.Weighted>
0.0000

> <Gold.Chemscore.DEInternal.Weighted>
0.2022

> <Gold.Chemscore.Rot.Weighted>
4.0038

> <Gold.Chemscore.Internal.Correction.Weighted>
   9.000000E+99

> <Gold.Protein.RotatedTorsions>
[ 6907 6896 6895 6894 ] final  123.41 input  -60.11 | X-H torsion
[ 7974 7965 7964 7962 ] final -152.24 input  175.53 | X-H torsion
[ 8008 7997 7996 7995 ] final  -57.29 input   59.86 | X-H torsion
[ 10167 10162 10161 10158 ] final -119.28 input  -65.29 | X-H torsion
[ 10718 10713 10712 10709 ] final -172.34 input   66.30 | X-H torsion
[ 10763 10752 10751 10750 ] final  142.89 input  -60.55 | X-H torsion
[ 11005 11000 10999 10996 ] final  124.92 input  -57.11 | X-H torsion

> <Gold.Protein.ActiveResidues>
 VAL166  LYS551  ARG553  GLY616  TRP617  ASP618  TYR619  PRO620  LYS621  CYS622 
 ASP623  PHE694  ASN695  SER759  ASP760  ASP761  ALA762  ILE779  LEU786  VAL792 
 PHE793  MET794  SER795  GLU796  ALA797  LYS798  CYS799  TRP800  GLU811  SER814 

> <Gold.Protein.RotatedAtoms>
  152.4164  133.7045  159.6442 H   0  0  0  0  0  0  0  0  0  0  0  0  # atno 6907 bound_to 6896
  150.8041  133.8532  159.3220 H   0  0  0  0  0  0  0  0  0  0  0  0  # atno 6908 bound_to 6896
  151.6261  135.1029  160.0163 H   0  0  0  0  0  0  0  0  0  0  0  0  # atno 6909 bound_to 6896
  144.7805  140.4689  143.5843 H   0  0  0  0  0  0  0  0  0  0  0  0  # atno 7974 bound_to 7965
  154.4262  140.1110  156.5774 H   0  0  0  0  0  0  0  0  0  0  0  0  # atno 8008 bound_to 7997
  155.6148  140.3494  155.4614 H   0  0  0  0  0  0  0  0  0  0  0  0  # atno 8009 bound_to 7997
  156.0071  140.1211  157.0480 H   0  0  0  0  0  0  0  0  0  0  0  0  # atno 8010 bound_to 7997
  140.0483  143.5085  152.2095 H   0  0  0  0  0  0  0  0  0  0  0  0  # atno 10167 bound_to 10162
  156.7542  130.9389  151.3116 H   0  0  0  0  0  0  0  0  0  0  0  0  # atno 10718 bound_to 10713
  153.9633  135.2958  155.3432 H   0  0  0  0  0  0  0  0  0  0  0  0  # atno 10763 bound_to 10752
  154.7363  135.5045  153.9050 H   0  0  0  0  0  0  0  0  0  0  0  0  # atno 10764 bound_to 10752
  153.0936  135.6715  153.9917 H   0  0  0  0  0  0  0  0  0  0  0  0  # atno 10765 bound_to 10752
  139.9382  134.9638  156.8481 H   0  0  0  0  0  0  0  0  0  0  0  0  # atno 11005 bound_to 11000
  145.6064  139.1509  143.3100 LP  0  0  0  0  0  0  0  0  0  0  0  0  # atno 17320 bound_to 7965
  146.2010  140.6182  142.9102 LP  0  0  0  0  0  0  0  0  0  0  0  0  # atno 17321 bound_to 7965
  139.5969  144.7570  151.3264 LP  0  0  0  0  0  0  0  0  0  0  0  0  # atno 17342 bound_to 10162
  140.7228  143.7087  150.7787 LP  0  0  0  0  0  0  0  0  0  0  0  0  # atno 17343 bound_to 10162
  157.6763  130.9098  150.0159 LP  0  0  0  0  0  0  0  0  0  0  0  0  # atno 17370 bound_to 10713
  156.1381  130.3642  149.9625 LP  0  0  0  0  0  0  0  0  0  0  0  0  # atno 17371 bound_to 10713
  140.6021  134.0162  155.7541 LP  0  0  0  0  0  0  0  0  0  0  0  0  # atno 17394 bound_to 11000
  141.1005  133.9776  157.3087 LP  0  0  0  0  0  0  0  0  0  0  0  0  # atno 17395 bound_to 11000

$$$$
