AV-unprocessed.smi:1843|AV-procd|sdf|7505|dock4
  -GOLD-   22720 9213D 1   1.00000     0.00000
 Structure written by MMmdl.
 36 38  0  0  0  0  0  0  0  0  2 V2000
  146.3609  137.7810  154.4977 O   0  0  0  0  0  0  0  0  0  0  0  0
  146.8274  138.0469  153.3875 C   0  0  0  0  0  0  0  0  0  0  0  0
  146.2581  137.7720  152.1923 N   0  5  0  0  0  0  0  0  0  0  0  0
  145.4754  136.6890  152.0543 C   0  0  0  0  0  0  0  0  0  0  0  0
  144.4296  136.4491  152.8579 N   0  0  0  0  0  0  0  0  0  0  0  0
  143.7602  135.2749  152.5445 N   0  0  0  0  0  0  0  0  0  0  0  0
  144.3163  134.6388  151.5106 C   0  0  0  0  0  0  0  0  0  0  0  0
  143.7791  133.3518  150.9801 C   0  0  0  0  0  0  0  0  0  0  0  0
  144.5639  132.0622  151.0859 C   0  0  0  0  0  0  0  0  0  0  0  0
  144.3715  132.7181  149.7423 C   0  0  0  0  0  0  0  0  0  0  0  0
  145.7271  135.4389  150.8368 S   0  0  0  0  0  0  0  0  0  0  0  0
  148.0067  138.6773  153.2896 N   0  0  0  0  0  0  0  0  0  0  0  0
  148.8414  139.1265  154.4028 C   0  0  1  0  0  0  0  0  0  0  0  0
  150.2449  138.4973  154.3059 C   0  0  0  0  0  0  0  0  0  0  0  0
  151.1420  138.9529  155.4681 C   0  0  0  0  0  0  0  0  0  0  0  0
  151.2345  140.4855  155.5344 C   0  0  0  0  0  0  0  0  0  0  0  0
  149.8389  141.1298  155.6237 C   0  0  0  0  0  0  0  0  0  0  0  0
  148.9110  140.6722  154.4815 C   0  0  1  0  0  0  0  0  0  0  0  0
  149.3749  141.2191  153.2606 O   0  0  0  0  0  0  0  0  0  0  0  0
  142.6998  133.3029  151.1115 H   0  0  0  0  0  0  0  0  0  0  0  0
  145.5617  132.0994  151.5183 H   0  0  0  0  0  0  0  0  0  0  0  0
  144.0041  131.1510  151.2854 H   0  0  0  0  0  0  0  0  0  0  0  0
  143.6850  132.2439  149.0440 H   0  0  0  0  0  0  0  0  0  0  0  0
  145.2360  133.2017  149.2915 H   0  0  0  0  0  0  0  0  0  0  0  0
  148.3496  138.8700  152.3599 H   0  0  0  0  0  0  0  0  0  0  0  0
  148.3892  138.7609  155.3269 H   0  0  0  0  0  0  0  0  0  0  0  0
  150.1659  137.4096  154.3107 H   0  0  0  0  0  0  0  0  0  0  0  0
  150.7119  138.7673  153.3575 H   0  0  0  0  0  0  0  0  0  0  0  0
  150.7441  138.5701  156.4087 H   0  0  0  0  0  0  0  0  0  0  0  0
  152.1386  138.5247  155.3569 H   0  0  0  0  0  0  0  0  0  0  0  0
  151.8354  140.7846  156.3935 H   0  0  0  0  0  0  0  0  0  0  0  0
  151.7560  140.8575  154.6516 H   0  0  0  0  0  0  0  0  0  0  0  0
  149.3853  140.8606  156.5785 H   0  0  0  0  0  0  0  0  0  0  0  0
  149.9277  142.2168  155.6261 H   0  0  0  0  0  0  0  0  0  0  0  0
  147.9136  141.0768  154.6575 H   0  0  0  0  0  0  0  0  0  0  0  0
  149.5232  140.5064  152.6573 H   0  0  0  0  0  0  0  0  0  0  0  0
  1  2  2  0  0  0  0
  2  3  1  0  0  0  0
  2 12  1  0  0  0  0
  3  4  1  0  0  0  0
  4 11  1  0  0  0  0
  4  5  2  0  0  0  0
  5  6  1  0  0  0  0
  6  7  2  0  0  0  0
  7  8  1  0  0  0  0
  7 11  1  0  0  0  0
  8 10  1  0  0  0  0
  8  9  1  0  0  0  0
  8 20  1  0  0  0  0
  9 10  1  0  0  0  0
  9 21  1  0  0  0  0
  9 22  1  0  0  0  0
 10 23  1  0  0  0  0
 10 24  1  0  0  0  0
 12 13  1  0  0  0  0
 12 25  1  0  0  0  0
 13 18  1  0  0  0  0
 13 14  1  0  0  0  0
 13 26  1  0  0  0  0
 14 15  1  0  0  0  0
 14 27  1  0  0  0  0
 14 28  1  0  0  0  0
 15 16  1  0  0  0  0
 15 29  1  0  0  0  0
 15 30  1  0  0  0  0
 16 17  1  0  0  0  0
 16 31  1  0  0  0  0
 16 32  1  0  0  0  0
 17 18  1  0  0  0  0
 17 33  1  0  0  0  0
 17 34  1  0  0  0  0
 18 19  1  0  0  0  0
 18 35  1  0  0  0  0
 19 36  1  0  0  0  0
M  CHG  1   3  -1
M  END
> <s_m_source_file>
AV-unprocessed.smi

> <i_m_source_file_index>
1843

> <i_lp_mmshare_version>
43012

> <i_f3d_flags>
0

> <s_epik_input>
W09IXVtDQEBIXTFbQ0gyXVtDSDJdW0NIMl1bQ0gyXVtDQEhdMVtOSF1DKD1PKVtOSF1jMm5uYyhzMilbQ0hdM1tDSDJdW0NIMl0z

> <s_epik_cmdline>
J2VwaWtfcHl0aG9uJywgJy1waCcsICc3LjAnLCAnLXRuJywgJzgnLCAnLW1hJywgJzIwMCcsICctbWV0YWxfYmluZGluZycsICctaW1hZScsICc8aW5maWxlLm1hZT4nLCAnLW9tYWUnLCAnPG91dGZpbGUubWFlPic=

> <r_lp_tautomer_probability>
1

> <r_epik_Ionization_Penalty>
4.7996

> <r_epik_Ionization_Penalty_Charging>
4.64516

> <r_epik_Ionization_Penalty_Neutral>
0.154442

> <r_epik_State_Penalty>
4.64493

> <r_epik_Charging_Adjusted_Penalty>
9.29009

> <i_epik_Tot_Q>
-1

> <i_epik_Tot_abs_Q>
1

> <r_epik_Metal_State_Penalty>
0.896144

> <b_epik_Metal_Only>
1

> <s_lp_Force_Field>
OPLS_2005

> <r_lp_Energy>
9.18757

> <b_lp_Chiralities_Consistent>
1

> <s_lp_Variant>
AV-unprocessed.smi:1843-6

> <Gold.Version>
5.8.1

> <Gold.Id.Protein>
6NUR|6NUR_protein|mol2

> <Gold.PLP.Fitness>
42.2598

> <Gold.PLP.PLP>
-35.1017

> <Gold.PLP.part.hbond>
-4.3831

> <Gold.PLP.part.metal>
0.0000

> <Gold.PLP.part.buried>
-2.3957

> <Gold.PLP.part.nonpolar>
-28.6290

> <Gold.PLP.part.repulsive>
0.7400

> <Gold.PLP.ligand.clash>
0.0000

> <Gold.PLP.ligand.torsion>
0.7833

> <Gold.PLP.Chemscore.Hbond>
2.8532

> <Gold.PLP.Chemscore.CHOScore>
0.0000

> <Gold.PLP.Chemscore.Metal>
0.0000

> <Gold.Chemscore.Hbonds>
donor molecule, donor type, donor heavy atom, donor atom, acceptor molecule, acceptor atom, score
      L1  H    12    25       P1  7957  0.86
      L1  H    19    36       P1  7957  0.93
      P1  H  8011  8017       L1    19  0.95

> <Gold.PLP.Chemscore.Internal.Correction>
0.1652

> <Gold.Rescore>
     Score         DG    S(hbond)    S(metal)    S(lipo)     H(rot)  DE(clash)    DE(int)     intcor
     13.80     -16.54       1.86        0.00      78.94       1.72       0.62       2.11       ----

> <Gold.Chemscore.Fitness>
13.7975

> <Gold.Chemscore.DG>
-16.5353

> <Gold.Chemscore.ZeroCoef>
-5.4800

> <Gold.Chemscore.Hbond>
1.8601

> <Gold.Chemscore.Metal>
0.0000

> <Gold.Chemscore.Lipo>
78.9365

> <Gold.Chemscore.Internal_Hbond>
0.0000

> <Gold.Chemscore.DEClash>
0.6248

> <Gold.Chemscore.DEInternal>
2.1129

> <Gold.Chemscore.Rot>
1.7160

> <Gold.Chemscore.Internal.Correction>
   9.000000E+99

> <Gold.Chemscore.Hbonds>
donor molecule, donor type, donor heavy atom, donor atom, acceptor molecule, acceptor atom, score
      L1  H    12    25       P1  7957  0.78
      L1  H    19    36       P1  7957  0.88
      P1  H  8011  8017       L1    19  0.21

> <Gold.Chemscore.Hbond.Weighted>
-6.2126

> <Gold.Chemscore.Metal.Weighted>
-0.0000

> <Gold.Chemscore.Lipo.Weighted>
-9.2356

> <Gold.Chemscore.Internal_Hbond.Weighted>
0.0000

> <Gold.Chemscore.DEClash.Weighted>
0.6248

> <Gold.Chemscore.DEInternal.Weighted>
2.1129

> <Gold.Chemscore.Rot.Weighted>
4.3930

> <Gold.Chemscore.Internal.Correction.Weighted>
   9.000000E+99

> <Gold.Protein.RotatedTorsions>
[ 6907 6896 6895 6894 ] final  178.51 input  -60.11 | X-H torsion
[ 7974 7965 7964 7962 ] final -156.47 input  175.53 | X-H torsion
[ 8008 7997 7996 7995 ] final  178.99 input   59.86 | X-H torsion
[ 10167 10162 10161 10158 ] final   36.77 input  -65.29 | X-H torsion
[ 10718 10713 10712 10709 ] final -154.46 input   66.30 | X-H torsion
[ 10763 10752 10751 10750 ] final  120.42 input  -60.55 | X-H torsion
[ 11005 11000 10999 10996 ] final  130.11 input  -57.11 | X-H torsion

> <Gold.Protein.ActiveResidues>
 VAL166  LYS551  ARG553  GLY616  TRP617  ASP618  TYR619  PRO620  LYS621  CYS622 
 ASP623  PHE694  ASN695  SER759  ASP760  ASP761  ALA762  ILE779  LEU786  VAL792 
 PHE793  MET794  SER795  GLU796  ALA797  LYS798  CYS799  TRP800  GLU811  SER814 

> <Gold.Protein.RotatedAtoms>
  151.6866  133.3311  159.3232 H   0  0  0  0  0  0  0  0  0  0  0  0  # atno 6907 bound_to 6896
  150.7798  134.6734  159.6414 H   0  0  0  0  0  0  0  0  0  0  0  0  # atno 6908 bound_to 6896
  152.3852  134.6532  160.0180 H   0  0  0  0  0  0  0  0  0  0  0  0  # atno 6909 bound_to 6896
  144.7592  140.4106  143.5989 H   0  0  0  0  0  0  0  0  0  0  0  0  # atno 7974 bound_to 7965
  156.0485  140.1320  157.0077 H   0  0  0  0  0  0  0  0  0  0  0  0  # atno 8008 bound_to 7997
  154.4423  140.1016  156.6411 H   0  0  0  0  0  0  0  0  0  0  0  0  # atno 8009 bound_to 7997
  155.5560  140.3464  155.4482 H   0  0  0  0  0  0  0  0  0  0  0  0  # atno 8010 bound_to 7997
  140.4096  144.1611  150.6138 H   0  0  0  0  0  0  0  0  0  0  0  0  # atno 10167 bound_to 10162
  156.4996  130.8385  151.2604 H   0  0  0  0  0  0  0  0  0  0  0  0  # atno 10718 bound_to 10713
  153.5982  135.3453  155.2935 H   0  0  0  0  0  0  0  0  0  0  0  0  # atno 10763 bound_to 10752
  154.8641  135.4221  154.2442 H   0  0  0  0  0  0  0  0  0  0  0  0  # atno 10764 bound_to 10752
  153.3264  135.7041  153.7057 H   0  0  0  0  0  0  0  0  0  0  0  0  # atno 10765 bound_to 10752
  139.9653  134.9592  156.9246 H   0  0  0  0  0  0  0  0  0  0  0  0  # atno 11005 bound_to 11000
  145.6677  139.1593  143.2772 LP  0  0  0  0  0  0  0  0  0  0  0  0  # atno 17320 bound_to 7965
  146.1636  140.6751  142.9266 LP  0  0  0  0  0  0  0  0  0  0  0  0  # atno 17321 bound_to 7965
  140.4652  143.2433  151.9165 LP  0  0  0  0  0  0  0  0  0  0  0  0  # atno 17342 bound_to 10162
  139.4783  144.5426  151.8505 LP  0  0  0  0  0  0  0  0  0  0  0  0  # atno 17343 bound_to 10162
  157.7464  130.9986  150.2859 LP  0  0  0  0  0  0  0  0  0  0  0  0  # atno 17370 bound_to 10713
  156.3346  130.3805  149.7461 LP  0  0  0  0  0  0  0  0  0  0  0  0  # atno 17371 bound_to 10713
  140.5409  134.0720  155.7341 LP  0  0  0  0  0  0  0  0  0  0  0  0  # atno 17394 bound_to 11000
  141.1333  133.9265  157.2489 LP  0  0  0  0  0  0  0  0  0  0  0  0  # atno 17395 bound_to 11000

$$$$
