AV-unprocessed.smi:1118|AV-procd|sdf|4816|dock1
  -GOLD-   22720 3373D 1   1.00000     0.00000
 Structure written by MMmdl.
 44 45  0  0  0  0  0  0  0  0  1 V2000
  151.0458  142.7596  157.6288 C   0  0  0  0  0  0  0  0  0  0  0  0
  150.7974  141.3745  157.7924 O   0  0  0  0  0  0  0  0  0  0  0  0
  149.4710  141.0138  157.4424 C   0  0  0  0  0  0  0  0  0  0  0  0
  149.1480  141.5573  156.0407 C   0  0  0  0  0  0  0  0  0  0  0  0
  148.1848  140.7706  155.2692 N   0  0  0  0  0  0  0  0  0  0  0  0
  148.4971  139.3393  155.2805 C   0  0  0  0  0  0  0  0  0  0  0  0
  147.4606  138.5024  154.5115 C   0  0  0  0  0  0  0  0  0  0  0  0
  147.3250  138.9863  153.0558 C   0  0  0  0  0  0  0  0  0  0  0  0
  146.2470  138.1861  152.3008 C   0  0  0  0  0  0  0  0  0  0  0  0
  146.6489  136.8000  152.1014 N   0  0  0  0  0  0  0  0  0  0  0  0
  145.8044  135.7592  152.0800 C   0  0  0  0  0  0  0  0  0  0  0  0
  144.5907  135.8662  152.2546 O   0  0  0  0  0  0  0  0  0  0  0  0
  146.4204  134.3865  151.8091 C   0  0  0  0  0  0  0  0  0  0  0  0
  145.8122  133.7680  150.6455 N   0  0  0  0  0  0  0  0  0  0  0  0
  146.2172  132.6372  149.9669 C   0  0  0  0  0  0  0  0  0  0  0  0
  145.3304  132.4348  148.9486 C   0  0  0  0  0  0  0  0  0  0  0  0
  144.4051  133.5068  149.0882 C   0  0  0  0  0  0  0  0  0  0  0  0
  144.6958  134.3035  150.1042 N   0  0  0  0  0  0  0  0  0  0  0  0
  147.0581  140.5057  153.0558 C   0  0  0  0  0  0  0  0  0  0  0  0
  148.1179  141.2467  153.8882 C   0  0  0  0  0  0  0  0  0  0  0  0
  152.0744  142.9829  157.9112 H   0  0  0  0  0  0  0  0  0  0  0  0
  150.3862  143.3557  158.2608 H   0  0  0  0  0  0  0  0  0  0  0  0
  150.9072  143.0648  156.5908 H   0  0  0  0  0  0  0  0  0  0  0  0
  149.3767  139.9269  157.4373 H   0  0  0  0  0  0  0  0  0  0  0  0
  148.7641  141.3873  158.1837 H   0  0  0  0  0  0  0  0  0  0  0  0
  148.7571  142.5677  156.1682 H   0  0  0  0  0  0  0  0  0  0  0  0
  150.0732  141.6653  155.4728 H   0  0  0  0  0  0  0  0  0  0  0  0
  149.4881  139.1728  154.8554 H   0  0  0  0  0  0  0  0  0  0  0  0
  148.5336  138.9705  156.3048 H   0  0  0  0  0  0  0  0  0  0  0  0
  147.7486  137.4510  154.5329 H   0  0  0  0  0  0  0  0  0  0  0  0
  146.4956  138.5698  155.0162 H   0  0  0  0  0  0  0  0  0  0  0  0
  148.2805  138.8130  152.5580 H   0  0  0  0  0  0  0  0  0  0  0  0
  145.3107  138.2122  152.8607 H   0  0  0  0  0  0  0  0  0  0  0  0
  146.0501  138.6419  151.3291 H   0  0  0  0  0  0  0  0  0  0  0  0
  147.6303  136.6232  151.9416 H   0  0  0  0  0  0  0  0  0  0  0  0
  147.4978  134.4715  151.6574 H   0  0  0  0  0  0  0  0  0  0  0  0
  146.2684  133.7366  152.6717 H   0  0  0  0  0  0  0  0  0  0  0  0
  147.0914  132.0766  150.2645 H   0  0  0  0  0  0  0  0  0  0  0  0
  145.3402  131.6409  148.2168 H   0  0  0  0  0  0  0  0  0  0  0  0
  143.5362  133.7276  148.4859 H   0  0  0  0  0  0  0  0  0  0  0  0
  147.0613  140.8970  152.0382 H   0  0  0  0  0  0  0  0  0  0  0  0
  146.0668  140.7089  153.4638 H   0  0  0  0  0  0  0  0  0  0  0  0
  147.8856  142.3122  153.8786 H   0  0  0  0  0  0  0  0  0  0  0  0
  149.0942  141.1407  153.4123 H   0  0  0  0  0  0  0  0  0  0  0  0
  1  2  1  0  0  0  0
  1 21  1  0  0  0  0
  1 22  1  0  0  0  0
  1 23  1  0  0  0  0
  2  3  1  0  0  0  0
  3  4  1  0  0  0  0
  3 24  1  0  0  0  0
  3 25  1  0  0  0  0
  4  5  1  0  0  0  0
  4 26  1  0  0  0  0
  4 27  1  0  0  0  0
  5 20  1  0  0  0  0
  5  6  1  0  0  0  0
  6  7  1  0  0  0  0
  6 28  1  0  0  0  0
  6 29  1  0  0  0  0
  7  8  1  0  0  0  0
  7 30  1  0  0  0  0
  7 31  1  0  0  0  0
  8  9  1  0  0  0  0
  8 19  1  0  0  0  0
  8 32  1  0  0  0  0
  9 10  1  0  0  0  0
  9 33  1  0  0  0  0
  9 34  1  0  0  0  0
 10 11  1  0  0  0  0
 10 35  1  0  0  0  0
 11 12  2  0  0  0  0
 11 13  1  0  0  0  0
 13 14  1  0  0  0  0
 13 36  1  0  0  0  0
 13 37  1  0  0  0  0
 14 18  1  0  0  0  0
 14 15  1  0  0  0  0
 15 16  2  0  0  0  0
 15 38  1  0  0  0  0
 16 17  1  0  0  0  0
 16 39  1  0  0  0  0
 17 18  2  0  0  0  0
 17 40  1  0  0  0  0
 19 20  1  0  0  0  0
 19 41  1  0  0  0  0
 19 42  1  0  0  0  0
 20 43  1  0  0  0  0
 20 44  1  0  0  0  0
M  END
> <s_m_source_file>
AV-unprocessed.smi

> <i_m_source_file_index>
1118

> <i_lp_mmshare_version>
43012

> <i_f3d_flags>
0

> <s_epik_input>
W0NIM11PW0NIMl1bQ0gyXU4xW0NIMl1bQ0gyXVtDSF0oW0NIMl1bQ0gyXTEpW0NIMl1bTkhdQyg9TylbQ0gyXW4yW2NIXVtjSF1bY0hdbjI=

> <s_epik_cmdline>
J2VwaWtfcHl0aG9uJywgJy1waCcsICc3LjAnLCAnLXRuJywgJzgnLCAnLW1hJywgJzIwMCcsICctbWV0YWxfYmluZGluZycsICctaW1hZScsICc8aW5maWxlLm1hZT4nLCAnLW9tYWUnLCAnPG91dGZpbGUubWFlPic=

> <r_lp_tautomer_probability>
1

> <r_epik_Ionization_Penalty>
2.42912

> <r_epik_Ionization_Penalty_Charging>
0

> <r_epik_Ionization_Penalty_Neutral>
2.42912

> <r_epik_State_Penalty>
2.58903

> <r_epik_Charging_Adjusted_Penalty>
2.58903

> <i_epik_Tot_Q>
0

> <i_epik_Tot_abs_Q>
0

> <r_epik_Metal_State_Penalty>
2.58902

> <b_epik_Metal_Only>
0

> <s_lp_Force_Field>
OPLS_2005

> <r_lp_Energy>
26.1618

> <b_lp_Chiralities_Consistent>
1

> <s_lp_Variant>
AV-unprocessed.smi:1118-3

> <Gold.Version>
5.8.1

> <Gold.Id.Protein>
6NUR|6NUR_protein|mol2

> <Gold.PLP.Fitness>
38.9995

> <Gold.PLP.PLP>
-31.0267

> <Gold.PLP.part.hbond>
-0.9888

> <Gold.PLP.part.metal>
0.0000

> <Gold.PLP.part.buried>
-3.3737

> <Gold.PLP.part.nonpolar>
-27.5316

> <Gold.PLP.part.repulsive>
0.4446

> <Gold.PLP.ligand.clash>
0.0000

> <Gold.PLP.ligand.torsion>
0.6044

> <Gold.PLP.Chemscore.Hbond>
0.9913

> <Gold.PLP.Chemscore.CHOScore>
2.0000

> <Gold.PLP.Chemscore.Metal>
0.0000

> <Gold.Chemscore.Hbonds>
donor molecule, donor type, donor heavy atom, donor atom, acceptor molecule, acceptor atom, score
      L1  H    10    35       P1  7948  0.59
      L1  C    15    38       P1 10747  1.00
      L1  C    17    40       P1 10186  0.25

> <Gold.PLP.Chemscore.Internal.Correction>
0.2078

> <Gold.Rescore>
     Score         DG    S(hbond)    S(metal)    S(lipo)     H(rot)  DE(clash)    DE(int)     intcor
     11.22     -13.61       0.98        0.00      88.41       2.14       0.07       2.32       ----

> <Gold.Chemscore.Fitness>
11.2176

> <Gold.Chemscore.DG>
-13.6115

> <Gold.Chemscore.ZeroCoef>
-5.4800

> <Gold.Chemscore.Hbond>
0.9784

> <Gold.Chemscore.Metal>
0.0000

> <Gold.Chemscore.Lipo>
88.4066

> <Gold.Chemscore.Internal_Hbond>
0.0000

> <Gold.Chemscore.DEClash>
0.0713

> <Gold.Chemscore.DEInternal>
2.3226

> <Gold.Chemscore.Rot>
2.1406

> <Gold.Chemscore.Internal.Correction>
   9.000000E+99

> <Gold.Chemscore.Hbonds>
donor molecule, donor type, donor heavy atom, donor atom, acceptor molecule, acceptor atom, score
      L1  H    10    35       P1  7948  0.58

> <Gold.Chemscore.Hbond.Weighted>
-3.2680

> <Gold.Chemscore.Metal.Weighted>
-0.0000

> <Gold.Chemscore.Lipo.Weighted>
-10.3436

> <Gold.Chemscore.Internal_Hbond.Weighted>
0.0000

> <Gold.Chemscore.DEClash.Weighted>
0.0713

> <Gold.Chemscore.DEInternal.Weighted>
2.3226

> <Gold.Chemscore.Rot.Weighted>
5.4800

> <Gold.Chemscore.Internal.Correction.Weighted>
   9.000000E+99

> <Gold.Protein.RotatedTorsions>
[ 6907 6896 6895 6894 ] final   46.47 input  -60.11 | X-H torsion
[ 7974 7965 7964 7962 ] final  112.52 input  175.53 | X-H torsion
[ 8008 7997 7996 7995 ] final -144.46 input   59.86 | X-H torsion
[ 10167 10162 10161 10158 ] final   80.74 input  -65.29 | X-H torsion
[ 10718 10713 10712 10709 ] final  -82.26 input   66.30 | X-H torsion
[ 10763 10752 10751 10750 ] final -145.70 input  -60.55 | X-H torsion
[ 11005 11000 10999 10996 ] final   52.70 input  -57.11 | X-H torsion

> <Gold.Protein.ActiveResidues>
 VAL166  LYS551  ARG553  GLY616  TRP617  ASP618  TYR619  PRO620  LYS621  CYS622 
 ASP623  PHE694  ASN695  SER759  ASP760  ASP761  ALA762  ILE779  LEU786  VAL792 
 PHE793  MET794  SER795  GLU796  ALA797  LYS798  CYS799  TRP800  GLU811  SER814 

> <Gold.Protein.RotatedAtoms>
  152.2567  134.8076  160.0437 H   0  0  0  0  0  0  0  0  0  0  0  0  # atno 6907 bound_to 6896
  151.8737  133.3476  159.3751 H   0  0  0  0  0  0  0  0  0  0  0  0  # atno 6908 bound_to 6896
  150.7102  134.5014  159.5607 H   0  0  0  0  0  0  0  0  0  0  0  0  # atno 6909 bound_to 6896
  145.2285  139.2830  143.4180 H   0  0  0  0  0  0  0  0  0  0  0  0  # atno 7974 bound_to 7965
  155.5273  140.0596  157.2895 H   0  0  0  0  0  0  0  0  0  0  0  0  # atno 8008 bound_to 7997
  154.4496  140.1942  156.0504 H   0  0  0  0  0  0  0  0  0  0  0  0  # atno 8009 bound_to 7997
  156.0677  140.3264  155.7541 H   0  0  0  0  0  0  0  0  0  0  0  0  # atno 8010 bound_to 7997
  139.9465  144.6054  150.8201 H   0  0  0  0  0  0  0  0  0  0  0  0  # atno 10167 bound_to 10162
  156.0036  130.4629  150.4078 H   0  0  0  0  0  0  0  0  0  0  0  0  # atno 10718 bound_to 10713
  154.8371  135.3406  154.6545 H   0  0  0  0  0  0  0  0  0  0  0  0  # atno 10763 bound_to 10752
  153.7159  135.6961  153.5030 H   0  0  0  0  0  0  0  0  0  0  0  0  # atno 10764 bound_to 10752
  153.2417  135.4382  155.0658 H   0  0  0  0  0  0  0  0  0  0  0  0  # atno 10765 bound_to 10752
  140.0827  134.5316  155.8930 H   0  0  0  0  0  0  0  0  0  0  0  0  # atno 11005 bound_to 11000
  146.3359  140.2613  142.8602 LP  0  0  0  0  0  0  0  0  0  0  0  0  # atno 17320 bound_to 7965
  144.9699  140.8358  143.5462 LP  0  0  0  0  0  0  0  0  0  0  0  0  # atno 17321 bound_to 7965
  140.7595  143.3131  151.2797 LP  0  0  0  0  0  0  0  0  0  0  0  0  # atno 17342 bound_to 10162
  139.6662  144.0101  152.2724 LP  0  0  0  0  0  0  0  0  0  0  0  0  # atno 17343 bound_to 10162
  157.2143  131.0467  151.2582 LP  0  0  0  0  0  0  0  0  0  0  0  0  # atno 17370 bound_to 10713
  157.3860  130.7256  149.6663 LP  0  0  0  0  0  0  0  0  0  0  0  0  # atno 17371 bound_to 10713
  141.2052  133.6645  156.6167 LP  0  0  0  0  0  0  0  0  0  0  0  0  # atno 17394 bound_to 11000
  140.3464  134.7805  157.4435 LP  0  0  0  0  0  0  0  0  0  0  0  0  # atno 17395 bound_to 11000

$$$$
