AV-unprocessed.smi:1982|AV-procd|sdf|8023|dock8
  -GOLD-   2272010213D 1   1.00000     0.00000
 Structure written by MMmdl.
 36 37  0  0  0  0  0  0  0  0  1 V2000
  151.9263  143.6506  160.9897 C   0  0  0  0  0  0  0  0  0  0  0  0
  153.0102  143.2655  159.9620 C   0  0  1  0  0  0  0  0  0  0  0  0
  154.0028  142.2367  160.5418 C   0  0  0  0  0  0  0  0  0  0  0  0
  153.3814  140.8370  160.6699 C   0  0  0  0  0  0  0  0  0  0  0  0
  152.8274  140.3504  159.3237 C   0  0  0  0  0  0  0  0  0  0  0  0
  151.8258  141.3547  158.7184 C   0  0  2  0  0  0  0  0  0  0  0  0
  151.3969  140.8864  157.4035 N   0  0  0  0  0  0  0  0  0  0  0  0
  150.1415  140.5610  157.0580 C   0  0  0  0  0  0  0  0  0  0  0  0
  149.1965  140.5583  157.8461 O   0  0  0  0  0  0  0  0  0  0  0  0
  149.9166  140.1896  155.5919 C   0  0  0  0  0  0  0  0  0  0  0  0
  150.8041  139.1142  155.1882 N   0  0  0  0  0  0  0  0  0  0  0  0
  150.6258  137.7918  155.1650 C   0  0  0  0  0  0  0  0  0  0  0  0
  151.6943  137.1629  154.6997 N   0  0  0  0  0  0  0  0  0  0  0  0
  152.5744  138.1969  154.4265 N   0  0  0  0  0  0  0  0  0  0  0  0
  152.0519  139.3572  154.7143 N   0  0  0  0  0  0  0  0  0  0  0  0
  152.4498  142.7693  158.6021 C   0  0  1  0  0  0  0  0  0  0  0  0
  151.5009  143.7931  157.9461 C   0  0  0  0  0  0  0  0  0  0  0  0
  151.2615  142.8187  161.2197 H   0  0  0  0  0  0  0  0  0  0  0  0
  151.3112  144.4763  160.6332 H   0  0  0  0  0  0  0  0  0  0  0  0
  152.3790  143.9758  161.9267 H   0  0  0  0  0  0  0  0  0  0  0  0
  153.5799  144.1750  159.7664 H   0  0  0  0  0  0  0  0  0  0  0  0
  154.8777  142.1778  159.8928 H   0  0  0  0  0  0  0  0  0  0  0  0
  154.3712  142.5711  161.5123 H   0  0  0  0  0  0  0  0  0  0  0  0
  154.1295  140.1335  161.0362 H   0  0  0  0  0  0  0  0  0  0  0  0
  152.5841  140.8474  161.4135 H   0  0  0  0  0  0  0  0  0  0  0  0
  153.6560  140.1949  158.6311 H   0  0  0  0  0  0  0  0  0  0  0  0
  152.3509  139.3782  159.4563 H   0  0  0  0  0  0  0  0  0  0  0  0
  150.9540  141.4172  159.3718 H   0  0  0  0  0  0  0  0  0  0  0  0
  152.1053  140.8526  156.6845 H   0  0  0  0  0  0  0  0  0  0  0  0
  148.8799  139.8850  155.4394 H   0  0  0  0  0  0  0  0  0  0  0  0
  150.0997  141.0536  154.9518 H   0  0  0  0  0  0  0  0  0  0  0  0
  149.7193  137.2959  155.4794 H   0  0  0  0  0  0  0  0  0  0  0  0
  153.3074  142.6832  157.9327 H   0  0  0  0  0  0  0  0  0  0  0  0
  150.5510  143.8577  158.4770 H   0  0  0  0  0  0  0  0  0  0  0  0
  151.2778  143.5280  156.9122 H   0  0  0  0  0  0  0  0  0  0  0  0
  151.9457  144.7882  157.9326 H   0  0  0  0  0  0  0  0  0  0  0  0
  1  2  1  0  0  0  0
  1 18  1  0  0  0  0
  1 19  1  0  0  0  0
  1 20  1  0  0  0  0
  2 16  1  0  0  0  0
  2  3  1  0  0  0  0
  2 21  1  0  0  0  0
  3  4  1  0  0  0  0
  3 22  1  0  0  0  0
  3 23  1  0  0  0  0
  4  5  1  0  0  0  0
  4 24  1  0  0  0  0
  4 25  1  0  0  0  0
  5  6  1  0  0  0  0
  5 26  1  0  0  0  0
  5 27  1  0  0  0  0
  6  7  1  0  0  0  0
  6 16  1  0  0  0  0
  6 28  1  0  0  0  0
  7  8  1  0  0  0  0
  7 29  1  0  0  0  0
  8  9  2  0  0  0  0
  8 10  1  0  0  0  0
 10 11  1  0  0  0  0
 10 30  1  0  0  0  0
 10 31  1  0  0  0  0
 11 15  1  0  0  0  0
 11 12  1  0  0  0  0
 12 13  2  0  0  0  0
 12 32  1  0  0  0  0
 13 14  1  0  0  0  0
 14 15  2  0  0  0  0
 16 17  1  0  0  0  0
 16 33  1  0  0  0  0
 17 34  1  0  0  0  0
 17 35  1  0  0  0  0
 17 36  1  0  0  0  0
M  END
> <s_m_source_file>
AV-unprocessed.smi

> <i_m_source_file_index>
1982

> <i_lp_mmshare_version>
43012

> <i_f3d_flags>
0

> <s_epik_input>
W0NIM11bQ0BASF0xW0NIMl1bQ0gyXVtDSDJdW0NASF0oW0NASF0xW0NIM10pW05IXUMoPU8pW0NIMl1uMltjSF1ubm4y

> <s_epik_cmdline>
J2VwaWtfcHl0aG9uJywgJy1waCcsICc3LjAnLCAnLXRuJywgJzgnLCAnLW1hJywgJzIwMCcsICctbWV0YWxfYmluZGluZycsICctaW1hZScsICc8aW5maWxlLm1hZT4nLCAnLW9tYWUnLCAnPG91dGZpbGUubWFlPic=

> <r_lp_tautomer_probability>
1

> <r_epik_Ionization_Penalty>
5.03816e-07

> <r_epik_Ionization_Penalty_Charging>
0

> <r_epik_Ionization_Penalty_Neutral>
5.03816e-07

> <r_epik_State_Penalty>
-0

> <r_epik_Charging_Adjusted_Penalty>
0

> <i_epik_Tot_Q>
0

> <i_epik_Tot_abs_Q>
0

> <r_epik_Metal_State_Penalty>
-0

> <b_epik_Metal_Only>
0

> <s_lp_Force_Field>
OPLS_2005

> <r_lp_Energy>
15.2513

> <b_lp_Chiralities_Consistent>
1

> <s_lp_Variant>
AV-unprocessed.smi:1982-4

> <Gold.Version>
5.8.1

> <Gold.Id.Protein>
6NUR|6NUR_protein|mol2

> <Gold.PLP.Fitness>
37.9813

> <Gold.PLP.PLP>
-33.1288

> <Gold.PLP.part.hbond>
-2.2784

> <Gold.PLP.part.metal>
0.0000

> <Gold.PLP.part.buried>
-5.4442

> <Gold.PLP.part.nonpolar>
-25.4592

> <Gold.PLP.part.repulsive>
0.3471

> <Gold.PLP.ligand.clash>
0.0000

> <Gold.PLP.ligand.torsion>
0.3964

> <Gold.PLP.Chemscore.Hbond>
1.8800

> <Gold.PLP.Chemscore.CHOScore>
0.0000

> <Gold.PLP.Chemscore.Metal>
0.0000

> <Gold.Chemscore.Hbonds>
donor molecule, donor type, donor heavy atom, donor atom, acceptor molecule, acceptor atom, score
      P1  H  7989  7998       L1    15  0.90
      P1  H 10752 10763       L1    13  0.90

> <Gold.PLP.Chemscore.Internal.Correction>
0.0053

> <Gold.Rescore>
     Score         DG    S(hbond)    S(metal)    S(lipo)     H(rot)  DE(clash)    DE(int)     intcor
     14.96     -15.48       1.50        0.00      84.33       1.91       0.11       0.41       ----

> <Gold.Chemscore.Fitness>
14.9565

> <Gold.Chemscore.DG>
-15.4822

> <Gold.Chemscore.ZeroCoef>
-5.4800

> <Gold.Chemscore.Hbond>
1.5013

> <Gold.Chemscore.Metal>
0.0000

> <Gold.Chemscore.Lipo>
84.3306

> <Gold.Chemscore.Internal_Hbond>
0.0000

> <Gold.Chemscore.DEClash>
0.1143

> <Gold.Chemscore.DEInternal>
0.4114

> <Gold.Chemscore.Rot>
1.9058

> <Gold.Chemscore.Internal.Correction>
   9.000000E+99

> <Gold.Chemscore.Hbonds>
donor molecule, donor type, donor heavy atom, donor atom, acceptor molecule, acceptor atom, score
      P1  H  7989  7998       L1    15  0.22
      P1  H 10752 10763       L1    13  0.17

> <Gold.Chemscore.Hbond.Weighted>
-5.0143

> <Gold.Chemscore.Metal.Weighted>
-0.0000

> <Gold.Chemscore.Lipo.Weighted>
-9.8667

> <Gold.Chemscore.Internal_Hbond.Weighted>
0.0000

> <Gold.Chemscore.DEClash.Weighted>
0.1143

> <Gold.Chemscore.DEInternal.Weighted>
0.4114

> <Gold.Chemscore.Rot.Weighted>
4.8788

> <Gold.Chemscore.Internal.Correction.Weighted>
   9.000000E+99

> <Gold.Protein.RotatedTorsions>
[ 6907 6896 6895 6894 ] final -125.41 input  -60.11 | X-H torsion
[ 7974 7965 7964 7962 ] final  -48.18 input  175.53 | X-H torsion
[ 8008 7997 7996 7995 ] final  -92.46 input   59.86 | X-H torsion
[ 10167 10162 10161 10158 ] final  117.32 input  -65.29 | X-H torsion
[ 10718 10713 10712 10709 ] final -121.77 input   66.30 | X-H torsion
[ 10763 10752 10751 10750 ] final   48.98 input  -60.55 | X-H torsion
[ 11005 11000 10999 10996 ] final   -9.40 input  -57.11 | X-H torsion

> <Gold.Protein.ActiveResidues>
 VAL166  LYS551  ARG553  GLY616  TRP617  ASP618  TYR619  PRO620  LYS621  CYS622 
 ASP623  PHE694  ASN695  SER759  ASP760  ASP761  ALA762  ILE779  LEU786  VAL792 
 PHE793  MET794  SER795  GLU796  ALA797  LYS798  CYS799  TRP800  GLU811  SER814 

> <Gold.Protein.RotatedAtoms>
  150.8864  133.7301  159.2916 H   0  0  0  0  0  0  0  0  0  0  0  0  # atno 6907 bound_to 6896
  151.4866  135.1054  159.9801 H   0  0  0  0  0  0  0  0  0  0  0  0  # atno 6908 bound_to 6896
  152.4793  133.8168  159.7088 H   0  0  0  0  0  0  0  0  0  0  0  0  # atno 6909 bound_to 6896
  145.9538  140.7546  142.9491 H   0  0  0  0  0  0  0  0  0  0  0  0  # atno 7974 bound_to 7965
  154.7235  140.0508  157.0661 H   0  0  0  0  0  0  0  0  0  0  0  0  # atno 8008 bound_to 7997
  155.0396  140.3167  155.4710 H   0  0  0  0  0  0  0  0  0  0  0  0  # atno 8009 bound_to 7997
  156.2823  140.2135  156.5520 H   0  0  0  0  0  0  0  0  0  0  0  0  # atno 8010 bound_to 7997
  139.6187  144.7097  151.2682 H   0  0  0  0  0  0  0  0  0  0  0  0  # atno 10167 bound_to 10162
  156.1364  130.6434  150.9703 H   0  0  0  0  0  0  0  0  0  0  0  0  # atno 10718 bound_to 10713
  152.9789  135.5926  154.4015 H   0  0  0  0  0  0  0  0  0  0  0  0  # atno 10763 bound_to 10752
  154.3660  135.2767  155.2295 H   0  0  0  0  0  0  0  0  0  0  0  0  # atno 10764 bound_to 10752
  154.4271  135.6045  153.6100 H   0  0  0  0  0  0  0  0  0  0  0  0  # atno 10765 bound_to 10752
  140.7337  133.8728  155.8913 H   0  0  0  0  0  0  0  0  0  0  0  0  # atno 11005 bound_to 11000
  144.6801  140.2478  143.7335 LP  0  0  0  0  0  0  0  0  0  0  0  0  # atno 17320 bound_to 7965
  145.8134  139.2013  143.1979 LP  0  0  0  0  0  0  0  0  0  0  0  0  # atno 17321 bound_to 7965
  140.7368  143.6697  150.8092 LP  0  0  0  0  0  0  0  0  0  0  0  0  # atno 17342 bound_to 10162
  140.0305  143.5449  152.2762 LP  0  0  0  0  0  0  0  0  0  0  0  0  # atno 17343 bound_to 10162
  157.6536  131.0893  150.7996 LP  0  0  0  0  0  0  0  0  0  0  0  0  # atno 17370 bound_to 10713
  156.8076  130.4941  149.5360 LP  0  0  0  0  0  0  0  0  0  0  0  0  # atno 17371 bound_to 10713
  140.9898  134.1294  157.4418 LP  0  0  0  0  0  0  0  0  0  0  0  0  # atno 17394 bound_to 11000
  139.8821  135.0037  156.6202 LP  0  0  0  0  0  0  0  0  0  0  0  0  # atno 17395 bound_to 11000

$$$$
