AV-unprocessed.smi:2079|AV-procd|sdf|8475|dock7
  -GOLD-   2272011183D 1   1.00000     0.00000
 Structure written by MMmdl.
 42 43  0  0  0  0  0  0  0  0  2 V2000
  153.5921  137.5134  157.0953 C   0  0  0  0  0  0  0  0  0  0  0  0
  152.7022  138.2057  156.1209 C   0  0  0  0  0  0  0  0  0  0  0  0
  151.5793  137.8163  155.4463 C   0  0  0  0  0  0  0  0  0  0  0  0
  151.2409  138.9730  154.6947 C   0  0  0  0  0  0  0  0  0  0  0  0
  150.1040  138.9850  153.8467 N   0  0  0  0  0  0  0  0  0  0  0  0
  148.8572  138.5838  154.1478 C   0  0  0  0  0  0  0  0  0  0  0  0
  148.4941  138.1551  155.2436 O   0  0  0  0  0  0  0  0  0  0  0  0
  148.0330  138.7074  153.0969 N   0  0  0  0  0  0  0  0  0  0  0  0
  146.6248  138.3268  153.0998 C   0  0  0  0  0  0  0  0  0  0  0  0
  146.4218  136.9062  153.6688 C   0  0  0  0  0  0  0  0  0  0  0  0
  146.3910  135.8429  152.6226 N   0  3  2  0  0  0  0  0  0  0  0  0
  145.2287  135.9996  151.6996 C   0  0  0  0  0  0  0  0  0  0  0  0
  145.2630  134.9852  150.5478 C   0  0  0  0  0  0  0  0  0  0  0  0
  145.3038  133.5573  151.0898 C   0  0  0  0  0  0  0  0  0  0  0  0
  146.5031  133.4093  152.0281 C   0  0  0  0  0  0  0  0  0  0  0  0
  146.4739  134.4478  153.1713 C   0  0  1  0  0  0  0  0  0  0  0  0
  147.7022  134.2154  154.0764 C   0  0  0  0  0  0  0  0  0  0  0  0
  152.0832  139.9760  154.8895 N   0  0  0  0  0  0  0  0  0  0  0  0
  153.0237  139.4897  155.8052 O   0  0  0  0  0  0  0  0  0  0  0  0
  153.3785  136.4448  157.1273 H   0  0  0  0  0  0  0  0  0  0  0  0
  153.4521  137.9168  158.0981 H   0  0  0  0  0  0  0  0  0  0  0  0
  154.6397  137.6406  156.8221 H   0  0  0  0  0  0  0  0  0  0  0  0
  151.0816  136.8587  155.4889 H   0  0  0  0  0  0  0  0  0  0  0  0
  150.2618  139.3197  152.9079 H   0  0  0  0  0  0  0  0  0  0  0  0
  148.4095  139.0687  152.2323 H   0  0  0  0  0  0  0  0  0  0  0  0
  146.1070  139.0720  153.7018 H   0  0  0  0  0  0  0  0  0  0  0  0
  146.2179  138.3987  152.0895 H   0  0  0  0  0  0  0  0  0  0  0  0
  147.2459  136.7266  154.3544 H   0  0  0  0  0  0  0  0  0  0  0  0
  145.5089  136.8610  154.2646 H   0  0  0  0  0  0  0  0  0  0  0  0
  144.3001  135.8943  152.2629 H   0  0  0  0  0  0  0  0  0  0  0  0
  145.2164  136.9930  151.2554 H   0  0  0  0  0  0  0  0  0  0  0  0
  144.3886  135.1159  149.9096 H   0  0  0  0  0  0  0  0  0  0  0  0
  146.1358  135.1687  149.9197 H   0  0  0  0  0  0  0  0  0  0  0  0
  144.3804  133.3338  151.6259 H   0  0  0  0  0  0  0  0  0  0  0  0
  145.3734  132.8428  150.2691 H   0  0  0  0  0  0  0  0  0  0  0  0
  146.5126  132.3990  152.4388 H   0  0  0  0  0  0  0  0  0  0  0  0
  147.4263  133.5160  151.4563 H   0  0  0  0  0  0  0  0  0  0  0  0
  145.5779  134.2700  153.7686 H   0  0  0  0  0  0  0  0  0  0  0  0
  147.8166  133.1570  154.3122 H   0  0  0  0  0  0  0  0  0  0  0  0
  147.6163  134.7256  155.0352 H   0  0  0  0  0  0  0  0  0  0  0  0
  148.6227  134.5440  153.5925 H   0  0  0  0  0  0  0  0  0  0  0  0
  147.2231  135.9727  152.0647 H   0  0  0  0  0  0  0  0  0  0  0  0
  1  2  1  0  0  0  0
  1 20  1  0  0  0  0
  1 21  1  0  0  0  0
  1 22  1  0  0  0  0
  2 19  1  0  0  0  0
  2  3  2  0  0  0  0
  3  4  1  0  0  0  0
  3 23  1  0  0  0  0
  4  5  1  0  0  0  0
  4 18  2  0  0  0  0
  5  6  1  0  0  0  0
  5 24  1  0  0  0  0
  6  7  2  0  0  0  0
  6  8  1  0  0  0  0
  8  9  1  0  0  0  0
  8 25  1  0  0  0  0
  9 10  1  0  0  0  0
  9 26  1  0  0  0  0
  9 27  1  0  0  0  0
 10 11  1  0  0  0  0
 10 28  1  0  0  0  0
 10 29  1  0  0  0  0
 11 16  1  0  0  0  0
 11 12  1  0  0  0  0
 11 42  1  0  0  0  0
 12 13  1  0  0  0  0
 12 30  1  0  0  0  0
 12 31  1  0  0  0  0
 13 14  1  0  0  0  0
 13 32  1  0  0  0  0
 13 33  1  0  0  0  0
 14 15  1  0  0  0  0
 14 34  1  0  0  0  0
 14 35  1  0  0  0  0
 15 16  1  0  0  0  0
 15 36  1  0  0  0  0
 15 37  1  0  0  0  0
 16 17  1  0  0  0  0
 16 38  1  0  0  0  0
 17 39  1  0  0  0  0
 17 40  1  0  0  0  0
 17 41  1  0  0  0  0
 18 19  1  0  0  0  0
M  CHG  1  11   1
M  END
> <s_m_source_file>
AV-unprocessed.smi

> <i_m_source_file_index>
2079

> <i_lp_mmshare_version>
43012

> <i_f3d_flags>
0

> <s_epik_input>
W0NIM11jMVtjSF1jKG5vMSlbTkhdQyg9TylbTkhdW0NIMl1bQ0gyXU4yW0NIMl1bQ0gyXVtDSDJdW0NIMl1bQ0BIXTJbQ0gzXQ==

> <s_epik_cmdline>
J2VwaWtfcHl0aG9uJywgJy1waCcsICc3LjAnLCAnLXRuJywgJzgnLCAnLW1hJywgJzIwMCcsICctbWV0YWxfYmluZGluZycsICctaW1hZScsICc8aW5maWxlLm1hZT4nLCAnLW9tYWUnLCAnPG91dGZpbGUubWFlPic=

> <r_epik_Ionization_Penalty>
0.00265971

> <r_epik_Ionization_Penalty_Charging>
0.00262393

> <r_epik_Ionization_Penalty_Neutral>
3.57846e-05

> <r_epik_State_Penalty>
0.00182566

> <r_epik_Charging_Adjusted_Penalty>
0.00444959

> <i_epik_Tot_Q>
1

> <i_epik_Tot_abs_Q>
1

> <r_epik_Metal_State_Penalty>
0.0216344

> <b_epik_Metal_Only>
0

> <s_lp_Force_Field>
OPLS_2005

> <r_lp_Energy>
17.1717

> <b_lp_Chiralities_Consistent>
1

> <s_lp_Variant>
AV-unprocessed.smi:2079-1

> <Gold.Version>
5.8.1

> <Gold.Id.Protein>
6NUR|6NUR_protein|mol2

> <Gold.PLP.Fitness>
45.0946

> <Gold.PLP.PLP>
-29.2761

> <Gold.PLP.part.hbond>
-5.9620

> <Gold.PLP.part.metal>
0.0000

> <Gold.PLP.part.buried>
-3.8453

> <Gold.PLP.part.nonpolar>
-20.1224

> <Gold.PLP.part.repulsive>
0.2848

> <Gold.PLP.ligand.clash>
0.0000

> <Gold.PLP.ligand.torsion>
0.7403

> <Gold.PLP.Chemscore.Hbond>
5.7600

> <Gold.PLP.Chemscore.CHOScore>
0.0000

> <Gold.PLP.Chemscore.Metal>
0.0000

> <Gold.Chemscore.Hbonds>
donor molecule, donor type, donor heavy atom, donor atom, acceptor molecule, acceptor atom, score
      L1  H     5    24       P1  7957  1.00
      L1  H     8    25       P1  7957  1.00
      L1  H    11    42       P1  7948  2.00
      P1  H  7989  7998       L1    18  0.68
      P1  H  7997  8010       L1    19  1.00

> <Gold.PLP.Chemscore.Internal.Correction>
0.0191

> <Gold.Rescore>
     Score         DG    S(hbond)    S(metal)    S(lipo)     H(rot)  DE(clash)    DE(int)     intcor
     19.38     -21.48       4.06        0.00      55.12       1.57       0.16       1.94       ----

> <Gold.Chemscore.Fitness>
19.3827

> <Gold.Chemscore.DG>
-21.4760

> <Gold.Chemscore.ZeroCoef>
-5.4800

> <Gold.Chemscore.Hbond>
4.0617

> <Gold.Chemscore.Metal>
0.0000

> <Gold.Chemscore.Lipo>
55.1155

> <Gold.Chemscore.Internal_Hbond>
0.0000

> <Gold.Chemscore.DEClash>
0.1564

> <Gold.Chemscore.DEInternal>
1.9370

> <Gold.Chemscore.Rot>
1.5697

> <Gold.Chemscore.Internal.Correction>
   9.000000E+99

> <Gold.Chemscore.Hbonds>
donor molecule, donor type, donor heavy atom, donor atom, acceptor molecule, acceptor atom, score
      L1  H     5    24       P1  7957  0.81
      L1  H     8    25       P1  7957  0.99
      L1  H    11    42       P1  7948  0.98
      P1  H  7989  7998       L1    18  0.12
      P1  H  7997  8010       L1    19  0.94

> <Gold.Chemscore.Hbond.Weighted>
-13.5660

> <Gold.Chemscore.Metal.Weighted>
-0.0000

> <Gold.Chemscore.Lipo.Weighted>
-6.4485

> <Gold.Chemscore.Internal_Hbond.Weighted>
0.0000

> <Gold.Chemscore.DEClash.Weighted>
0.1564

> <Gold.Chemscore.DEInternal.Weighted>
1.9370

> <Gold.Chemscore.Rot.Weighted>
4.0185

> <Gold.Chemscore.Internal.Correction.Weighted>
   9.000000E+99

> <Gold.Protein.RotatedTorsions>
[ 6907 6896 6895 6894 ] final -162.10 input  -60.11 | X-H torsion
[ 7974 7965 7964 7962 ] final  -54.37 input  175.53 | X-H torsion
[ 8008 7997 7996 7995 ] final  103.32 input   59.86 | X-H torsion
[ 10167 10162 10161 10158 ] final -109.35 input  -65.29 | X-H torsion
[ 10718 10713 10712 10709 ] final  153.05 input   66.30 | X-H torsion
[ 10763 10752 10751 10750 ] final  175.34 input  -60.55 | X-H torsion
[ 11005 11000 10999 10996 ] final -178.36 input  -57.11 | X-H torsion

> <Gold.Protein.ActiveResidues>
 VAL166  LYS551  ARG553  GLY616  TRP617  ASP618  TYR619  PRO620  LYS621  CYS622 
 ASP623  PHE694  ASN695  SER759  ASP760  ASP761  ALA762  ILE779  LEU786  VAL792 
 PHE793  MET794  SER795  GLU796  ALA797  LYS798  CYS799  TRP800  GLU811  SER814 

> <Gold.Protein.RotatedAtoms>
  151.3751  133.3841  159.2703 H   0  0  0  0  0  0  0  0  0  0  0  0  # atno 6907 bound_to 6896
  150.9621  134.9008  159.7747 H   0  0  0  0  0  0  0  0  0  0  0  0  # atno 6908 bound_to 6896
  152.5153  134.3710  159.9370 H   0  0  0  0  0  0  0  0  0  0  0  0  # atno 6909 bound_to 6896
  145.8863  140.8106  142.9814 H   0  0  0  0  0  0  0  0  0  0  0  0  # atno 7974 bound_to 7965
  156.1473  140.3166  155.8591 H   0  0  0  0  0  0  0  0  0  0  0  0  # atno 8008 bound_to 7997
  155.4038  140.0501  157.3052 H   0  0  0  0  0  0  0  0  0  0  0  0  # atno 8009 bound_to 7997
  154.5028  140.2135  155.9324 H   0  0  0  0  0  0  0  0  0  0  0  0  # atno 8010 bound_to 7997
  140.1563  143.4157  152.1458 H   0  0  0  0  0  0  0  0  0  0  0  0  # atno 10167 bound_to 10162
  157.2498  131.0776  151.1737 H   0  0  0  0  0  0  0  0  0  0  0  0  # atno 10718 bound_to 10713
  154.4663  135.2769  155.1676 H   0  0  0  0  0  0  0  0  0  0  0  0  # atno 10763 bound_to 10752
  154.3443  135.6163  153.5615 H   0  0  0  0  0  0  0  0  0  0  0  0  # atno 10764 bound_to 10752
  152.9859  135.5796  154.5035 H   0  0  0  0  0  0  0  0  0  0  0  0  # atno 10765 bound_to 10752
  140.4306  134.6522  157.4710 H   0  0  0  0  0  0  0  0  0  0  0  0  # atno 11005 bound_to 11000
  144.6729  140.1460  143.7433 LP  0  0  0  0  0  0  0  0  0  0  0  0  # atno 17320 bound_to 7965
  145.8963  139.2404  143.1520 LP  0  0  0  0  0  0  0  0  0  0  0  0  # atno 17321 bound_to 7965
  139.5402  144.7249  151.4759 LP  0  0  0  0  0  0  0  0  0  0  0  0  # atno 17342 bound_to 10162
  140.6671  143.8374  150.6955 LP  0  0  0  0  0  0  0  0  0  0  0  0  # atno 17343 bound_to 10162
  157.3290  130.6975  149.6313 LP  0  0  0  0  0  0  0  0  0  0  0  0  # atno 17370 bound_to 10713
  155.9666  130.4313  150.4914 LP  0  0  0  0  0  0  0  0  0  0  0  0  # atno 17371 bound_to 10713
  140.0137  134.6652  155.9342 LP  0  0  0  0  0  0  0  0  0  0  0  0  # atno 17394 bound_to 11000
  141.1747  133.6539  156.4783 LP  0  0  0  0  0  0  0  0  0  0  0  0  # atno 17395 bound_to 11000

$$$$
