AV-unprocessed.smi:3124|AV-procd|sdf|11903|dock4
  -GOLD-   2272017283D 1   1.00000     0.00000
 Structure written by MMmdl.
 24 24  0  0  0  0  0  0  0  0  2 V2000
  152.2403  141.0501  158.3432 C   0  0  0  0  0  0  0  0  0  0  0  0
  151.4696  140.8552  157.0818 C   0  0  0  0  0  0  0  0  0  0  0  0
  150.2025  141.2258  156.7287 C   0  0  0  0  0  0  0  0  0  0  0  0
  150.0539  140.7468  155.3937 C   0  0  0  0  0  0  0  0  0  0  0  0
  148.8529  140.8669  154.4945 C   0  0  0  0  0  0  0  0  0  0  0  0
  148.3127  139.5003  154.0300 C   0  0  1  0  0  0  0  0  0  0  0  0
  147.0434  139.6506  153.1805 C   0  0  0  0  0  0  0  0  0  0  0  0
  149.3390  138.7511  153.2815 N   0  3  0  0  0  0  0  0  0  0  0  0
  151.1416  140.1307  154.9542 N   0  0  0  0  0  0  0  0  0  0  0  0
  151.9971  140.2038  155.9910 N   0  0  0  0  0  0  0  0  0  0  0  0
  152.9247  139.8058  155.9427 H   0  0  0  0  0  0  0  0  0  0  0  0
  151.6029  141.4513  159.1316 H   0  0  0  0  0  0  0  0  0  0  0  0
  153.0649  141.7463  158.1897 H   0  0  0  0  0  0  0  0  0  0  0  0
  152.6554  140.1054  158.6952 H   0  0  0  0  0  0  0  0  0  0  0  0
  149.4853  141.7579  157.3361 H   0  0  0  0  0  0  0  0  0  0  0  0
  149.1039  141.4766  153.6254 H   0  0  0  0  0  0  0  0  0  0  0  0
  148.0636  141.4093  155.0172 H   0  0  0  0  0  0  0  0  0  0  0  0
  148.0593  138.9074  154.9096 H   0  0  0  0  0  0  0  0  0  0  0  0
  146.2578  140.1638  153.7361 H   0  0  0  0  0  0  0  0  0  0  0  0
  146.6508  138.6775  152.8828 H   0  0  0  0  0  0  0  0  0  0  0  0
  147.2364  140.2245  152.2733 H   0  0  0  0  0  0  0  0  0  0  0  0
  150.0910  138.4927  153.9039 H   0  0  0  0  0  0  0  0  0  0  0  0
  149.7017  139.3281  152.5361 H   0  0  0  0  0  0  0  0  0  0  0  0
  148.9251  137.9169  152.8896 H   0  0  0  0  0  0  0  0  0  0  0  0
  1 12  1  0  0  0  0
  1 13  1  0  0  0  0
  1 14  1  0  0  0  0
  1  2  1  0  0  0  0
  2 10  1  0  0  0  0
  2  3  2  0  0  0  0
  3  4  1  0  0  0  0
  3 15  1  0  0  0  0
  4  5  1  0  0  0  0
  4  9  2  0  0  0  0
  5  6  1  0  0  0  0
  5 16  1  0  0  0  0
  5 17  1  0  0  0  0
  6  7  1  0  0  0  0
  6  8  1  0  0  0  0
  6 18  1  0  0  0  0
  7 19  1  0  0  0  0
  7 20  1  0  0  0  0
  7 21  1  0  0  0  0
  8 22  1  0  0  0  0
  8 23  1  0  0  0  0
  8 24  1  0  0  0  0
  9 10  1  0  0  0  0
 10 11  1  0  0  0  0
M  CHG  1   8   1
M  END
> <s_m_source_file>
AV-unprocessed.smi

> <i_m_source_file_index>
3124

> <i_lp_mmshare_version>
43012

> <i_f3d_flags>
0

> <s_epik_input>
W0NIM11jMVtjSF1jKFtuSF1uMSlbQ0gyXVtDQEhdKFtDSDNdKVtOSDJd

> <s_epik_cmdline>
J2VwaWtfcHl0aG9uJywgJy1waCcsICc3LjAnLCAnLXRuJywgJzgnLCAnLW1hJywgJzIwMCcsICctbWV0YWxfYmluZGluZycsICctaW1hZScsICc8aW5maWxlLm1hZT4nLCAnLW9tYWUnLCAnPG91dGZpbGUubWFlPic=

> <r_lp_tautomer_probability>
0.5

> <r_epik_Ionization_Penalty>
0.00151643

> <r_epik_Ionization_Penalty_Charging>
0.00146569

> <r_epik_Ionization_Penalty_Neutral>
5.07401e-05

> <r_epik_State_Penalty>
0.379573

> <r_epik_Charging_Adjusted_Penalty>
0.381038

> <i_epik_Tot_Q>
1

> <i_epik_Tot_abs_Q>
1

> <r_epik_Metal_State_Penalty>
0.378341

> <b_epik_Metal_Only>
0

> <s_lp_Force_Field>
OPLS_2005

> <r_lp_Energy>
2.04404

> <b_lp_Chiralities_Consistent>
1

> <s_lp_Variant>
AV-unprocessed.smi:3124-2

> <Gold.Version>
5.8.1

> <Gold.Id.Protein>
6NUR|6NUR_protein|mol2

> <Gold.PLP.Fitness>
31.6156

> <Gold.PLP.PLP>
-19.6212

> <Gold.PLP.part.hbond>
-3.0000

> <Gold.PLP.part.metal>
0.0000

> <Gold.PLP.part.buried>
-2.3857

> <Gold.PLP.part.nonpolar>
-14.2564

> <Gold.PLP.part.repulsive>
0.3063

> <Gold.PLP.ligand.clash>
0.0000

> <Gold.PLP.ligand.torsion>
0.0043

> <Gold.PLP.Chemscore.Hbond>
4.0000

> <Gold.PLP.Chemscore.CHOScore>
0.0000

> <Gold.PLP.Chemscore.Metal>
0.0000

> <Gold.Chemscore.Hbonds>
donor molecule, donor type, donor heavy atom, donor atom, acceptor molecule, acceptor atom, score
      L1  H     8    23       P1  7957  1.00
      L1  H     8    24       P1  7948  2.00
      P1  H  7989  7998       L1     9  1.00

> <Gold.PLP.Chemscore.Internal.Correction>
0.0031

> <Gold.Rescore>
     Score         DG    S(hbond)    S(metal)    S(lipo)     H(rot)  DE(clash)    DE(int)     intcor
     15.39     -16.67       2.82        0.00      43.50       1.30       0.00       1.28       ----

> <Gold.Chemscore.Fitness>
15.3893

> <Gold.Chemscore.DG>
-16.6717

> <Gold.Chemscore.ZeroCoef>
-5.4800

> <Gold.Chemscore.Hbond>
2.8223

> <Gold.Chemscore.Metal>
0.0000

> <Gold.Chemscore.Lipo>
43.5016

> <Gold.Chemscore.Internal_Hbond>
0.0000

> <Gold.Chemscore.DEClash>
0.0015

> <Gold.Chemscore.DEInternal>
1.2809

> <Gold.Chemscore.Rot>
1.2987

> <Gold.Chemscore.Internal.Correction>
   9.000000E+99

> <Gold.Chemscore.Hbonds>
donor molecule, donor type, donor heavy atom, donor atom, acceptor molecule, acceptor atom, score
      L1  H     8    23       P1  7957  0.90
      L1  H     8    24       P1  7948  0.96
      P1  H  7989  7998       L1     9  0.65

> <Gold.Chemscore.Hbond.Weighted>
-9.4266

> <Gold.Chemscore.Metal.Weighted>
-0.0000

> <Gold.Chemscore.Lipo.Weighted>
-5.0897

> <Gold.Chemscore.Internal_Hbond.Weighted>
0.0000

> <Gold.Chemscore.DEClash.Weighted>
0.0015

> <Gold.Chemscore.DEInternal.Weighted>
1.2809

> <Gold.Chemscore.Rot.Weighted>
3.3246

> <Gold.Chemscore.Internal.Correction.Weighted>
   9.000000E+99

> <Gold.Protein.RotatedTorsions>
[ 6907 6896 6895 6894 ] final  126.29 input  -60.11 | X-H torsion
[ 7974 7965 7964 7962 ] final   90.27 input  175.53 | X-H torsion
[ 8008 7997 7996 7995 ] final  -15.91 input   59.86 | X-H torsion
[ 10167 10162 10161 10158 ] final  -91.00 input  -65.29 | X-H torsion
[ 10718 10713 10712 10709 ] final  120.03 input   66.30 | X-H torsion
[ 10763 10752 10751 10750 ] final  -55.82 input  -60.55 | X-H torsion
[ 11005 11000 10999 10996 ] final -178.39 input  -57.11 | X-H torsion

> <Gold.Protein.ActiveResidues>
 VAL166  LYS551  ARG553  GLY616  TRP617  ASP618  TYR619  PRO620  LYS621  CYS622 
 ASP623  PHE694  ASN695  SER759  ASP760  ASP761  ALA762  ILE779  LEU786  VAL792 
 PHE793  MET794  SER795  GLU796  ALA797  LYS798  CYS799  TRP800  GLU811  SER814 

> <Gold.Protein.RotatedAtoms>
  152.3916  133.6687  159.6242 H   0  0  0  0  0  0  0  0  0  0  0  0  # atno 6907 bound_to 6896
  150.7823  133.8944  159.3332 H   0  0  0  0  0  0  0  0  0  0  0  0  # atno 6908 bound_to 6896
  151.6730  135.0975  160.0253 H   0  0  0  0  0  0  0  0  0  0  0  0  # atno 6909 bound_to 6896
  145.5213  139.2279  143.2670 H   0  0  0  0  0  0  0  0  0  0  0  0  # atno 7974 bound_to 7965
  154.5094  140.2184  155.9187 H   0  0  0  0  0  0  0  0  0  0  0  0  # atno 8008 bound_to 7997
  156.1533  140.3157  155.8651 H   0  0  0  0  0  0  0  0  0  0  0  0  # atno 8009 bound_to 7997
  155.3895  140.0477  157.3032 H   0  0  0  0  0  0  0  0  0  0  0  0  # atno 8010 bound_to 7997
  140.3493  143.2900  151.9745 H   0  0  0  0  0  0  0  0  0  0  0  0  # atno 10167 bound_to 10162
  157.5920  131.1063  150.7979 H   0  0  0  0  0  0  0  0  0  0  0  0  # atno 10718 bound_to 10713
  154.1968  135.6418  153.5075 H   0  0  0  0  0  0  0  0  0  0  0  0  # atno 10763 bound_to 10752
  153.0021  135.5442  154.6357 H   0  0  0  0  0  0  0  0  0  0  0  0  # atno 10764 bound_to 10752
  154.5760  135.2921  155.0753 H   0  0  0  0  0  0  0  0  0  0  0  0  # atno 10765 bound_to 10752
  140.4302  134.6525  157.4708 H   0  0  0  0  0  0  0  0  0  0  0  0  # atno 11005 bound_to 11000
  146.2104  140.6025  142.9062 LP  0  0  0  0  0  0  0  0  0  0  0  0  # atno 17320 bound_to 7965
  144.7674  140.5562  143.6693 LP  0  0  0  0  0  0  0  0  0  0  0  0  # atno 17321 bound_to 7965
  139.4829  144.6090  151.7469 LP  0  0  0  0  0  0  0  0  0  0  0  0  # atno 17342 bound_to 10162
  140.5234  144.0843  150.6030 LP  0  0  0  0  0  0  0  0  0  0  0  0  # atno 17343 bound_to 10162
  156.8398  130.5044  149.5322 LP  0  0  0  0  0  0  0  0  0  0  0  0  # atno 17370 bound_to 10713
  156.0976  130.5944  150.9840 LP  0  0  0  0  0  0  0  0  0  0  0  0  # atno 17371 bound_to 10713
  140.0139  134.6648  155.9339 LP  0  0  0  0  0  0  0  0  0  0  0  0  # atno 17394 bound_to 11000
  141.1748  133.6539  156.4788 LP  0  0  0  0  0  0  0  0  0  0  0  0  # atno 17395 bound_to 11000

$$$$
