AV-unprocessed.smi:2711|AV-procd|sdf|10472|dock7
  -GOLD-   2272014513D 1   1.00000     0.00000
 Structure written by MMmdl.
 34 35  0  0  0  0  0  0  0  0  1 V2000
  153.8894  141.7286  160.5383 C   0  0  0  0  0  0  0  0  0  0  0  0
  152.9268  142.3379  159.5760 C   0  0  0  0  0  0  0  0  0  0  0  0
  152.6207  143.6688  159.4249 C   0  0  0  0  0  0  0  0  0  0  0  0
  151.6728  143.9223  158.4309 N   0  0  0  0  0  0  0  0  0  0  0  0
  151.2632  142.7995  157.8311 C   0  0  0  0  0  0  0  0  0  0  0  0
  150.3043  142.7533  156.7850 N   0  0  0  0  0  0  0  0  0  0  0  0
  149.9792  141.7105  156.0011 C   0  0  0  0  0  0  0  0  0  0  0  0
  150.4812  140.5878  156.0646 O   0  0  0  0  0  0  0  0  0  0  0  0
  149.0203  142.0424  155.1235 N   0  0  0  0  0  0  0  0  0  0  0  0
  148.4232  141.1322  154.1474 C   0  0  0  0  0  0  0  0  0  0  0  0
  147.5580  140.0304  154.7877 C   0  0  0  0  0  0  0  0  0  0  0  0
  147.4046  140.0012  156.0103 O   0  0  0  0  0  0  0  0  0  0  0  0
  146.9743  139.1265  153.9735 N   0  0  0  0  0  0  0  0  0  0  0  0
  147.0852  139.0910  152.5150 C   0  0  0  0  0  0  0  0  0  0  0  0
  146.4091  137.7905  152.0781 C   0  0  0  0  0  0  0  0  0  0  0  0
  145.4359  137.4760  153.2055 C   0  0  0  0  0  0  0  0  0  0  0  0
  146.1108  138.0485  154.4518 C   0  0  0  0  0  0  0  0  0  0  0  0
  152.0246  141.3461  158.4583 S   0  0  0  0  0  0  0  0  0  0  0  0
  154.1711  142.4404  161.3149 H   0  0  0  0  0  0  0  0  0  0  0  0
  154.7979  141.4108  160.0264 H   0  0  0  0  0  0  0  0  0  0  0  0
  153.4527  140.8564  161.0250 H   0  0  0  0  0  0  0  0  0  0  0  0
  153.0281  144.5004  159.9806 H   0  0  0  0  0  0  0  0  0  0  0  0
  149.8027  143.6132  156.6189 H   0  0  0  0  0  0  0  0  0  0  0  0
  148.6604  142.9850  155.1440 H   0  0  0  0  0  0  0  0  0  0  0  0
  147.8000  141.7213  153.4744 H   0  0  0  0  0  0  0  0  0  0  0  0
  149.2104  140.6841  153.5390 H   0  0  0  0  0  0  0  0  0  0  0  0
  146.5633  139.9519  152.0953 H   0  0  0  0  0  0  0  0  0  0  0  0
  148.1212  139.1195  152.1756 H   0  0  0  0  0  0  0  0  0  0  0  0
  145.9194  137.8733  151.1075 H   0  0  0  0  0  0  0  0  0  0  0  0
  147.1546  136.9971  152.0089 H   0  0  0  0  0  0  0  0  0  0  0  0
  144.4937  137.9968  153.0290 H   0  0  0  0  0  0  0  0  0  0  0  0
  145.2177  136.4112  153.2933 H   0  0  0  0  0  0  0  0  0  0  0  0
  146.7281  137.2910  154.9369 H   0  0  0  0  0  0  0  0  0  0  0  0
  145.3729  138.3990  155.1754 H   0  0  0  0  0  0  0  0  0  0  0  0
  1  2  1  0  0  0  0
  1 19  1  0  0  0  0
  1 20  1  0  0  0  0
  1 21  1  0  0  0  0
  2 18  1  0  0  0  0
  2  3  2  0  0  0  0
  3  4  1  0  0  0  0
  3 22  1  0  0  0  0
  4  5  2  0  0  0  0
  5  6  1  0  0  0  0
  5 18  1  0  0  0  0
  6  7  1  0  0  0  0
  6 23  1  0  0  0  0
  7  8  2  0  0  0  0
  7  9  1  0  0  0  0
  9 10  1  0  0  0  0
  9 24  1  0  0  0  0
 10 11  1  0  0  0  0
 10 25  1  0  0  0  0
 10 26  1  0  0  0  0
 11 12  2  0  0  0  0
 11 13  1  0  0  0  0
 13 17  1  0  0  0  0
 13 14  1  0  0  0  0
 14 15  1  0  0  0  0
 14 27  1  0  0  0  0
 14 28  1  0  0  0  0
 15 16  1  0  0  0  0
 15 29  1  0  0  0  0
 15 30  1  0  0  0  0
 16 17  1  0  0  0  0
 16 31  1  0  0  0  0
 16 32  1  0  0  0  0
 17 33  1  0  0  0  0
 17 34  1  0  0  0  0
M  END
> <s_m_source_file>
AV-unprocessed.smi

> <i_m_source_file_index>
2711

> <i_lp_mmshare_version>
43012

> <i_f3d_flags>
0

> <s_epik_input>
W0NIM11jMVtjSF1uYyhzMSlbTkhdQyg9TylbTkhdW0NIMl1DKD1PKU4yW0NIMl1bQ0gyXVtDSDJdW0NIMl0y

> <s_epik_cmdline>
J2VwaWtfcHl0aG9uJywgJy1waCcsICc3LjAnLCAnLXRuJywgJzgnLCAnLW1hJywgJzIwMCcsICctbWV0YWxfYmluZGluZycsICctaW1hZScsICc8aW5maWxlLm1hZT4nLCAnLW9tYWUnLCAnPG91dGZpbGUubWFlPic=

> <r_lp_tautomer_probability>
1

> <r_epik_Ionization_Penalty>
0.000145478

> <r_epik_Ionization_Penalty_Charging>
0

> <r_epik_Ionization_Penalty_Neutral>
0.000145478

> <r_epik_State_Penalty>
-0

> <r_epik_Charging_Adjusted_Penalty>
0

> <i_epik_Tot_Q>
0

> <i_epik_Tot_abs_Q>
0

> <r_epik_Metal_State_Penalty>
0.0331427

> <b_epik_Metal_Only>
0

> <s_lp_Force_Field>
OPLS_2005

> <r_lp_Energy>
22.8553

> <b_lp_Chiralities_Consistent>
1

> <s_lp_Variant>
AV-unprocessed.smi:2711-1

> <Gold.Version>
5.8.1

> <Gold.Id.Protein>
6NUR|6NUR_protein|mol2

> <Gold.PLP.Fitness>
39.1077

> <Gold.PLP.PLP>
-33.2538

> <Gold.PLP.part.hbond>
-2.0000

> <Gold.PLP.part.metal>
0.0000

> <Gold.PLP.part.buried>
-2.8907

> <Gold.PLP.part.nonpolar>
-28.8664

> <Gold.PLP.part.repulsive>
0.3777

> <Gold.PLP.ligand.clash>
0.0000

> <Gold.PLP.ligand.torsion>
0.0617

> <Gold.PLP.Chemscore.Hbond>
1.9920

> <Gold.PLP.Chemscore.CHOScore>
0.0000

> <Gold.PLP.Chemscore.Metal>
0.0000

> <Gold.Chemscore.Hbonds>
donor molecule, donor type, donor heavy atom, donor atom, acceptor molecule, acceptor atom, score
      L1  H     6    23       P1  8028  1.00
      L1  H     9    24       P1  8028  0.99

> <Gold.PLP.Chemscore.Internal.Correction>
0.0014

> <Gold.Rescore>
     Score         DG    S(hbond)    S(metal)    S(lipo)     H(rot)  DE(clash)    DE(int)     intcor
     15.58     -16.91       1.94        0.00      71.29       1.32       0.06       1.27       ----

> <Gold.Chemscore.Fitness>
15.5811

> <Gold.Chemscore.DG>
-16.9094

> <Gold.Chemscore.ZeroCoef>
-5.4800

> <Gold.Chemscore.Hbond>
1.9378

> <Gold.Chemscore.Metal>
0.0000

> <Gold.Chemscore.Lipo>
71.2940

> <Gold.Chemscore.Internal_Hbond>
0.0000

> <Gold.Chemscore.DEClash>
0.0579

> <Gold.Chemscore.DEInternal>
1.2704

> <Gold.Chemscore.Rot>
1.3219

> <Gold.Chemscore.Internal.Correction>
   9.000000E+99

> <Gold.Chemscore.Hbonds>
donor molecule, donor type, donor heavy atom, donor atom, acceptor molecule, acceptor atom, score
      L1  H     6    23       P1  8028  0.98
      L1  H     9    24       P1  8028  0.94

> <Gold.Chemscore.Hbond.Weighted>
-6.4721

> <Gold.Chemscore.Metal.Weighted>
-0.0000

> <Gold.Chemscore.Lipo.Weighted>
-8.3414

> <Gold.Chemscore.Internal_Hbond.Weighted>
0.0000

> <Gold.Chemscore.DEClash.Weighted>
0.0579

> <Gold.Chemscore.DEInternal.Weighted>
1.2704

> <Gold.Chemscore.Rot.Weighted>
3.3841

> <Gold.Chemscore.Internal.Correction.Weighted>
   9.000000E+99

> <Gold.Protein.RotatedTorsions>
[ 6907 6896 6895 6894 ] final -162.15 input  -60.11 | X-H torsion
[ 7974 7965 7964 7962 ] final  169.68 input  175.53 | X-H torsion
[ 8008 7997 7996 7995 ] final -157.03 input   59.86 | X-H torsion
[ 10167 10162 10161 10158 ] final  179.22 input  -65.29 | X-H torsion
[ 10718 10713 10712 10709 ] final   30.72 input   66.30 | X-H torsion
[ 10763 10752 10751 10750 ] final  -81.01 input  -60.55 | X-H torsion
[ 11005 11000 10999 10996 ] final  174.67 input  -57.11 | X-H torsion

> <Gold.Protein.ActiveResidues>
 VAL166  LYS551  ARG553  GLY616  TRP617  ASP618  TYR619  PRO620  LYS621  CYS622 
 ASP623  PHE694  ASN695  SER759  ASP760  ASP761  ALA762  ILE779  LEU786  VAL792 
 PHE793  MET794  SER795  GLU796  ALA797  LYS798  CYS799  TRP800  GLU811  SER814 

> <Gold.Protein.RotatedAtoms>
  151.3758  133.3838  159.2704 H   0  0  0  0  0  0  0  0  0  0  0  0  # atno 6907 bound_to 6896
  150.9615  134.9003  159.7744 H   0  0  0  0  0  0  0  0  0  0  0  0  # atno 6908 bound_to 6896
  152.5151  134.3718  159.9373 H   0  0  0  0  0  0  0  0  0  0  0  0  # atno 6909 bound_to 6896
  144.7347  139.9090  143.6414 H   0  0  0  0  0  0  0  0  0  0  0  0  # atno 7974 bound_to 7965
  155.7262  140.0796  157.2309 H   0  0  0  0  0  0  0  0  0  0  0  0  # atno 8008 bound_to 7997
  154.4038  140.1603  156.2512 H   0  0  0  0  0  0  0  0  0  0  0  0  # atno 8009 bound_to 7997
  155.9151  140.3401  155.6131 H   0  0  0  0  0  0  0  0  0  0  0  0  # atno 8010 bound_to 7997
  139.5327  144.2587  152.0725 H   0  0  0  0  0  0  0  0  0  0  0  0  # atno 10167 bound_to 10162
  157.2632  130.7171  149.6465 H   0  0  0  0  0  0  0  0  0  0  0  0  # atno 10718 bound_to 10713
  154.5583  135.5641  153.6984 H   0  0  0  0  0  0  0  0  0  0  0  0  # atno 10763 bound_to 10752
  153.0010  135.6268  154.2279 H   0  0  0  0  0  0  0  0  0  0  0  0  # atno 10764 bound_to 10752
  154.2216  135.2869  155.2902 H   0  0  0  0  0  0  0  0  0  0  0  0  # atno 10765 bound_to 10752
  140.3539  134.7171  157.4286 H   0  0  0  0  0  0  0  0  0  0  0  0  # atno 11005 bound_to 11000
  146.1015  139.4011  143.0344 LP  0  0  0  0  0  0  0  0  0  0  0  0  # atno 17320 bound_to 7965
  145.7572  140.9950  143.1219 LP  0  0  0  0  0  0  0  0  0  0  0  0  # atno 17321 bound_to 7965
  140.2053  144.4617  150.6412 LP  0  0  0  0  0  0  0  0  0  0  0  0  # atno 17342 bound_to 10162
  140.6515  143.2226  151.6066 LP  0  0  0  0  0  0  0  0  0  0  0  0  # atno 17343 bound_to 10162
  155.9664  130.4391  150.5243 LP  0  0  0  0  0  0  0  0  0  0  0  0  # atno 17370 bound_to 10713
  157.3152  131.0671  151.1972 LP  0  0  0  0  0  0  0  0  0  0  0  0  # atno 17371 bound_to 10713
  140.0681  134.5901  155.8673 LP  0  0  0  0  0  0  0  0  0  0  0  0  # atno 17394 bound_to 11000
  141.2004  133.6612  156.5895 LP  0  0  0  0  0  0  0  0  0  0  0  0  # atno 17395 bound_to 11000

$$$$
