AV-unprocessed.smi:1715|AV-procd|sdf|6911|dock5
  -GOLD-   22720 8113D 1   1.00000     0.00000
 Structure written by MMmdl.
 40 41  0  0  0  0  0  0  0  0  1 V2000
  150.0996  141.2467  155.7058 C   0  0  0  0  0  0  0  0  0  0  0  0
  149.4550  140.9428  154.3426 C   0  0  1  0  0  0  0  0  0  0  0  0
  148.7719  139.5619  154.2822 C   0  0  0  0  0  0  0  0  0  0  0  0
  147.5173  139.5163  155.0263 N   0  0  0  0  0  0  0  0  0  0  0  0
  146.9063  138.1914  154.9346 C   0  0  0  0  0  0  0  0  0  0  0  0
  145.8422  138.0406  153.8313 C   0  0  0  0  0  0  0  0  0  0  0  0
  146.0933  136.8624  153.0103 N   0  0  0  0  0  0  0  0  0  0  0  0
  145.1463  136.0626  152.5002 C   0  0  0  0  0  0  0  0  0  0  0  0
  143.9400  136.2379  152.6743 O   0  0  0  0  0  0  0  0  0  0  0  0
  145.6864  135.0608  151.7868 N   0  0  0  0  0  0  0  0  0  0  0  0
  145.0027  134.0228  151.1047 C   0  0  0  0  0  0  0  0  0  0  0  0
  145.6066  132.8187  150.6509 C   0  0  0  0  0  0  0  0  0  0  0  0
  144.7255  132.0329  150.0486 N   0  0  0  0  0  0  0  0  0  0  0  0
  143.5652  132.7242  150.1126 N   0  0  0  0  0  0  0  0  0  0  0  0
  143.6862  133.9412  150.7466 C   0  0  0  0  0  0  0  0  0  0  0  0
  146.6389  140.5761  154.5394 C   0  0  0  0  0  0  0  0  0  0  0  0
  147.2946  141.9648  154.6516 C   0  0  2  0  0  0  0  0  0  0  0  0
  146.4134  143.0684  154.0572 C   0  0  0  0  0  0  0  0  0  0  0  0
  148.5365  141.9638  153.9501 O   0  0  0  0  0  0  0  0  0  0  0  0
  142.7087  132.3565  149.7230 H   0  0  0  0  0  0  0  0  0  0  0  0
  150.8800  140.5208  155.9355 H   0  0  0  0  0  0  0  0  0  0  0  0
  149.3754  141.2127  156.5194 H   0  0  0  0  0  0  0  0  0  0  0  0
  150.5579  142.2358  155.7069 H   0  0  0  0  0  0  0  0  0  0  0  0
  150.2564  140.9523  153.6033 H   0  0  0  0  0  0  0  0  0  0  0  0
  148.5804  139.3116  153.2374 H   0  0  0  0  0  0  0  0  0  0  0  0
  149.4571  138.8010  154.6580 H   0  0  0  0  0  0  0  0  0  0  0  0
  147.6827  137.4368  154.7998 H   0  0  0  0  0  0  0  0  0  0  0  0
  146.4308  137.9626  155.8894 H   0  0  0  0  0  0  0  0  0  0  0  0
  144.8431  137.9889  154.2677 H   0  0  0  0  0  0  0  0  0  0  0  0
  145.8481  138.9029  153.1657 H   0  0  0  0  0  0  0  0  0  0  0  0
  147.0590  136.6412  152.8161 H   0  0  0  0  0  0  0  0  0  0  0  0
  146.6937  135.0368  151.7257 H   0  0  0  0  0  0  0  0  0  0  0  0
  146.6337  132.4956  150.7372 H   0  0  0  0  0  0  0  0  0  0  0  0
  142.8492  134.6108  150.8779 H   0  0  0  0  0  0  0  0  0  0  0  0
  146.3680  140.3823  153.5002 H   0  0  0  0  0  0  0  0  0  0  0  0
  145.7096  140.5877  155.1078 H   0  0  0  0  0  0  0  0  0  0  0  0
  147.4731  142.1989  155.7015 H   0  0  0  0  0  0  0  0  0  0  0  0
  145.4551  143.1268  154.5738 H   0  0  0  0  0  0  0  0  0  0  0  0
  146.2145  142.8885  153.0003 H   0  0  0  0  0  0  0  0  0  0  0  0
  146.8970  144.0416  154.1441 H   0  0  0  0  0  0  0  0  0  0  0  0
  1  2  1  0  0  0  0
  1 21  1  0  0  0  0
  1 22  1  0  0  0  0
  1 23  1  0  0  0  0
  2 19  1  0  0  0  0
  2  3  1  0  0  0  0
  2 24  1  0  0  0  0
  3  4  1  0  0  0  0
  3 25  1  0  0  0  0
  3 26  1  0  0  0  0
  4  5  1  0  0  0  0
  4 16  1  0  0  0  0
  5  6  1  0  0  0  0
  5 27  1  0  0  0  0
  5 28  1  0  0  0  0
  6  7  1  0  0  0  0
  6 29  1  0  0  0  0
  6 30  1  0  0  0  0
  7  8  1  0  0  0  0
  7 31  1  0  0  0  0
  8  9  2  0  0  0  0
  8 10  1  0  0  0  0
 10 11  1  0  0  0  0
 10 32  1  0  0  0  0
 11 15  2  0  0  0  0
 11 12  1  0  0  0  0
 12 13  2  0  0  0  0
 12 33  1  0  0  0  0
 13 14  1  0  0  0  0
 14 20  1  0  0  0  0
 14 15  1  0  0  0  0
 15 34  1  0  0  0  0
 16 17  1  0  0  0  0
 16 35  1  0  0  0  0
 16 36  1  0  0  0  0
 17 18  1  0  0  0  0
 17 19  1  0  0  0  0
 17 37  1  0  0  0  0
 18 38  1  0  0  0  0
 18 39  1  0  0  0  0
 18 40  1  0  0  0  0
M  END
> <s_m_source_file>
AV-unprocessed.smi

> <i_m_source_file_index>
1715

> <i_lp_mmshare_version>
43012

> <i_f3d_flags>
0

> <s_epik_input>
W0NIM11bQ0BASF0xW0NIMl1OKFtDSDJdW0NASF0oTzEpW0NIM10pW0NIMl1bQ0gyXVtOSF1DKD1PKVtOSF1jMltjSF1uW25IXVtjSF0y

> <s_epik_cmdline>
J2VwaWtfcHl0aG9uJywgJy1waCcsICc3LjAnLCAnLXRuJywgJzgnLCAnLW1hJywgJzIwMCcsICctbWV0YWxfYmluZGluZycsICctaW1hZScsICc8aW5maWxlLm1hZT4nLCAnLW9tYWUnLCAnPG91dGZpbGUubWFlPic=

> <r_lp_tautomer_probability>
0.5

> <r_epik_Ionization_Penalty>
0.242771

> <r_epik_Ionization_Penalty_Charging>
0

> <r_epik_Ionization_Penalty_Neutral>
0.242771

> <r_epik_State_Penalty>
0.233765

> <r_epik_Charging_Adjusted_Penalty>
0.233765

> <i_epik_Tot_Q>
0

> <i_epik_Tot_abs_Q>
0

> <r_epik_Metal_State_Penalty>
0.233764

> <b_epik_Metal_Only>
0

> <s_lp_Force_Field>
OPLS_2005

> <r_lp_Energy>
25.0708

> <b_lp_Chiralities_Consistent>
1

> <s_lp_Variant>
AV-unprocessed.smi:1715-3

> <Gold.Version>
5.8.1

> <Gold.Id.Protein>
6NUR|6NUR_protein|mol2

> <Gold.PLP.Fitness>
39.3400

> <Gold.PLP.PLP>
-29.3681

> <Gold.PLP.part.hbond>
-3.0000

> <Gold.PLP.part.metal>
0.0000

> <Gold.PLP.part.buried>
-4.1008

> <Gold.PLP.part.nonpolar>
-23.3424

> <Gold.PLP.part.repulsive>
0.8960

> <Gold.PLP.ligand.clash>
0.0000

> <Gold.PLP.ligand.torsion>
1.0353

> <Gold.PLP.Chemscore.Hbond>
2.1509

> <Gold.PLP.Chemscore.CHOScore>
1.8575

> <Gold.PLP.Chemscore.Metal>
0.0000

> <Gold.Chemscore.Hbonds>
donor molecule, donor type, donor heavy atom, donor atom, acceptor molecule, acceptor atom, score
      L1  H     7    31       P1  7948  0.68
      P1  H  8011  8017       L1    19  0.19
      L1  C    12    33       P1 10747  0.10
      L1  C    15    34       P1 10186  0.72

> <Gold.PLP.Chemscore.Internal.Correction>
0.0174

> <Gold.Rescore>
     Score         DG    S(hbond)    S(metal)    S(lipo)     H(rot)  DE(clash)    DE(int)     intcor
     13.61     -14.82       1.75        0.00      65.46       1.63       0.04       1.17       ----

> <Gold.Chemscore.Fitness>
13.6107

> <Gold.Chemscore.DG>
-14.8220

> <Gold.Chemscore.ZeroCoef>
-5.4800

> <Gold.Chemscore.Hbond>
1.7523

> <Gold.Chemscore.Metal>
0.0000

> <Gold.Chemscore.Lipo>
65.4599

> <Gold.Chemscore.Internal_Hbond>
0.0000

> <Gold.Chemscore.DEClash>
0.0369

> <Gold.Chemscore.DEInternal>
1.1744

> <Gold.Chemscore.Rot>
1.6287

> <Gold.Chemscore.Internal.Correction>
   9.000000E+99

> <Gold.Chemscore.Hbonds>
donor molecule, donor type, donor heavy atom, donor atom, acceptor molecule, acceptor atom, score
      L1  H     7    31       P1  7948  0.69
      L1  H    10    32       P1  7948  0.01
      P1  H  8011  8017       L1    19  0.01

> <Gold.Chemscore.Hbond.Weighted>
-5.8527

> <Gold.Chemscore.Metal.Weighted>
-0.0000

> <Gold.Chemscore.Lipo.Weighted>
-7.6588

> <Gold.Chemscore.Internal_Hbond.Weighted>
0.0000

> <Gold.Chemscore.DEClash.Weighted>
0.0369

> <Gold.Chemscore.DEInternal.Weighted>
1.1744

> <Gold.Chemscore.Rot.Weighted>
4.1695

> <Gold.Chemscore.Internal.Correction.Weighted>
   9.000000E+99

> <Gold.Protein.RotatedTorsions>
[ 6907 6896 6895 6894 ] final  -38.67 input  -60.11 | X-H torsion
[ 7974 7965 7964 7962 ] final   -7.88 input  175.53 | X-H torsion
[ 8008 7997 7996 7995 ] final -112.56 input   59.86 | X-H torsion
[ 10167 10162 10161 10158 ] final  145.17 input  -65.29 | X-H torsion
[ 10718 10713 10712 10709 ] final -174.00 input   66.30 | X-H torsion
[ 10763 10752 10751 10750 ] final  -95.18 input  -60.55 | X-H torsion
[ 11005 11000 10999 10996 ] final   -6.41 input  -57.11 | X-H torsion

> <Gold.Protein.ActiveResidues>
 VAL166  LYS551  ARG553  GLY616  TRP617  ASP618  TYR619  PRO620  LYS621  CYS622 
 ASP623  PHE694  ASN695  SER759  ASP760  ASP761  ALA762  ILE779  LEU786  VAL792 
 PHE793  MET794  SER795  GLU796  ALA797  LYS798  CYS799  TRP800  GLU811  SER814 

> <Gold.Protein.RotatedAtoms>
  150.9996  134.9311  159.7946 H   0  0  0  0  0  0  0  0  0  0  0  0  # atno 6907 bound_to 6896
  152.5274  134.3171  159.9145 H   0  0  0  0  0  0  0  0  0  0  0  0  # atno 6908 bound_to 6896
  151.3177  133.4012  159.2686 H   0  0  0  0  0  0  0  0  0  0  0  0  # atno 6909 bound_to 6896
  146.2295  140.2385  142.8342 H   0  0  0  0  0  0  0  0  0  0  0  0  # atno 7974 bound_to 7965
  155.0071  140.0394  157.2384 H   0  0  0  0  0  0  0  0  0  0  0  0  # atno 8008 bound_to 7997
  154.7493  140.2764  155.6283 H   0  0  0  0  0  0  0  0  0  0  0  0  # atno 8009 bound_to 7997
  156.2881  140.2650  156.2242 H   0  0  0  0  0  0  0  0  0  0  0  0  # atno 8010 bound_to 7997
  139.4931  144.5920  151.6660 H   0  0  0  0  0  0  0  0  0  0  0  0  # atno 10167 bound_to 10162
  156.7787  130.9475  151.3120 H   0  0  0  0  0  0  0  0  0  0  0  0  # atno 10718 bound_to 10713
  154.7125  135.5130  153.8687 H   0  0  0  0  0  0  0  0  0  0  0  0  # atno 10763 bound_to 10752
  153.0792  135.6626  154.0089 H   0  0  0  0  0  0  0  0  0  0  0  0  # atno 10764 bound_to 10752
  153.9929  135.3018  155.3390 H   0  0  0  0  0  0  0  0  0  0  0  0  # atno 10765 bound_to 10752
  140.7017  133.8984  155.8688 H   0  0  0  0  0  0  0  0  0  0  0  0  # atno 11005 bound_to 11000
  144.9502  140.8171  143.5576 LP  0  0  0  0  0  0  0  0  0  0  0  0  # atno 17320 bound_to 7965
  145.2345  139.2100  143.5025 LP  0  0  0  0  0  0  0  0  0  0  0  0  # atno 17321 bound_to 7965
  140.5549  144.0364  150.6143 LP  0  0  0  0  0  0  0  0  0  0  0  0  # atno 17342 bound_to 10162
  140.3430  143.3008  152.0568 LP  0  0  0  0  0  0  0  0  0  0  0  0  # atno 17343 bound_to 10162
  157.6657  130.9005  149.9926 LP  0  0  0  0  0  0  0  0  0  0  0  0  # atno 17370 bound_to 10713
  156.1232  130.3645  149.9853 LP  0  0  0  0  0  0  0  0  0  0  0  0  # atno 17371 bound_to 10713
  141.0158  134.0957  157.4173 LP  0  0  0  0  0  0  0  0  0  0  0  0  # atno 17394 bound_to 11000
  139.8895  135.0105  156.6683 LP  0  0  0  0  0  0  0  0  0  0  0  0  # atno 17395 bound_to 11000

$$$$
