AV-unprocessed.smi:2520|AV-procd|sdf|9912|dock2
  -GOLD-   2272013553D 1   1.00000     0.00000
 Structure written by MMmdl.
 41 44  0  0  0  0  0  0  0  0  1 V2000
  150.9162  137.2706  160.0345 O   0  0  0  0  0  0  0  0  0  0  0  0
  150.2491  137.4145  159.0115 C   0  0  0  0  0  0  0  0  0  0  0  0
  149.0645  136.7853  158.8570 N   0  0  0  0  0  0  0  0  0  0  0  0
  148.3511  135.8957  159.7139 C   0  0  0  0  0  0  0  0  0  0  0  0
  148.3928  136.2335  161.0836 C   0  0  0  0  0  0  0  0  0  0  0  0
  147.7188  135.4068  161.9987 C   0  0  0  0  0  0  0  0  0  0  0  0
  147.0451  134.2880  161.4805 C   0  0  0  0  0  0  0  0  0  0  0  0
  147.0321  133.9980  160.1619 N   0  0  0  0  0  0  0  0  0  0  0  0
  147.6756  134.7907  159.2989 N   0  0  0  0  0  0  0  0  0  0  0  0
  150.6376  138.1956  157.9930 N   0  0  0  0  0  0  0  0  0  0  0  0
  151.8757  138.9701  157.9211 C   0  0  1  0  0  0  0  0  0  0  0  0
  152.4943  138.9729  156.5040 C   0  0  1  0  0  0  0  0  0  0  0  0
  152.0424  138.0291  155.4159 C   0  0  0  0  0  0  0  0  0  0  0  0
  151.0370  138.8737  154.6270 C   0  0  0  0  0  0  0  0  0  0  0  0
  150.6497  139.9165  155.5198 O   0  0  0  0  0  0  0  0  0  0  0  0
  151.8001  140.3048  156.2673 C   0  0  1  0  0  0  0  0  0  0  0  0
  151.6017  140.4867  157.7869 C   0  0  0  0  0  0  0  0  0  0  0  0
  152.5980  141.4268  158.4633 C   0  0  0  0  0  0  0  0  0  0  0  0
  151.9635  142.8211  158.4877 C   0  0  0  0  0  0  0  0  0  0  0  0
  150.4581  142.5961  158.3169 C   0  0  0  0  0  0  0  0  0  0  0  0
  150.2744  141.0782  158.2637 C   0  0  0  0  0  0  0  0  0  0  0  0
  148.5950  136.9902  157.9871 H   0  0  0  0  0  0  0  0  0  0  0  0
  148.9279  137.1063  161.4285 H   0  0  0  0  0  0  0  0  0  0  0  0
  147.7184  135.6223  163.0567 H   0  0  0  0  0  0  0  0  0  0  0  0
  146.5093  133.6138  162.1321 H   0  0  0  0  0  0  0  0  0  0  0  0
  150.0253  138.2565  157.1913 H   0  0  0  0  0  0  0  0  0  0  0  0
  152.6055  138.7342  158.6976 H   0  0  0  0  0  0  0  0  0  0  0  0
  153.5770  139.0996  156.5554 H   0  0  0  0  0  0  0  0  0  0  0  0
  152.8679  137.7077  154.7805 H   0  0  0  0  0  0  0  0  0  0  0  0
  151.5753  137.1305  155.8186 H   0  0  0  0  0  0  0  0  0  0  0  0
  151.5141  139.3163  153.7516 H   0  0  0  0  0  0  0  0  0  0  0  0
  150.1755  138.2960  154.2915 H   0  0  0  0  0  0  0  0  0  0  0  0
  152.4186  141.0499  155.7651 H   0  0  0  0  0  0  0  0  0  0  0  0
  152.7804  141.0978  159.4873 H   0  0  0  0  0  0  0  0  0  0  0  0
  153.5668  141.4406  157.9627 H   0  0  0  0  0  0  0  0  0  0  0  0
  152.1946  143.3453  159.4156 H   0  0  0  0  0  0  0  0  0  0  0  0
  152.3439  143.4272  157.6649 H   0  0  0  0  0  0  0  0  0  0  0  0
  149.8788  143.0443  159.1245 H   0  0  0  0  0  0  0  0  0  0  0  0
  150.1227  143.0458  157.3814 H   0  0  0  0  0  0  0  0  0  0  0  0
  149.4339  140.8040  157.6257 H   0  0  0  0  0  0  0  0  0  0  0  0
  150.0422  140.7084  159.2634 H   0  0  0  0  0  0  0  0  0  0  0  0
  1  2  2  0  0  0  0
  2  3  1  0  0  0  0
  2 10  1  0  0  0  0
  3  4  1  0  0  0  0
  3 22  1  0  0  0  0
  4  9  1  0  0  0  0
  4  5  2  0  0  0  0
  5  6  1  0  0  0  0
  5 23  1  0  0  0  0
  6  7  2  0  0  0  0
  6 24  1  0  0  0  0
  7  8  1  0  0  0  0
  7 25  1  0  0  0  0
  8  9  2  0  0  0  0
 10 11  1  0  0  0  0
 10 26  1  0  0  0  0
 11 17  1  0  0  0  0
 11 12  1  0  0  0  0
 11 27  1  0  0  0  0
 12 16  1  0  0  0  0
 12 13  1  0  0  0  0
 12 28  1  0  0  0  0
 13 14  1  0  0  0  0
 13 29  1  0  0  0  0
 13 30  1  0  0  0  0
 14 15  1  0  0  0  0
 14 31  1  0  0  0  0
 14 32  1  0  0  0  0
 15 16  1  0  0  0  0
 16 17  1  0  0  0  0
 16 33  1  0  0  0  0
 17 21  1  0  0  0  0
 17 18  1  0  0  0  0
 18 19  1  0  0  0  0
 18 34  1  0  0  0  0
 18 35  1  0  0  0  0
 19 20  1  0  0  0  0
 19 36  1  0  0  0  0
 19 37  1  0  0  0  0
 20 21  1  0  0  0  0
 20 38  1  0  0  0  0
 20 39  1  0  0  0  0
 21 40  1  0  0  0  0
 21 41  1  0  0  0  0
M  END
> <s_m_source_file>
AV-unprocessed.smi

> <i_m_source_file_index>
2520

> <i_lp_mmshare_version>
43012

> <i_f3d_flags>
0

> <s_epik_input>
bjFuW2NIXVtjSF1bY0hdYzFbTkhdQyg9TylbTkhdW0NAQEhdMltDQEBIXShbQ0gyXVtDSDJdTzMpW0NASF0zQzI0W0NIMl1bQ0gyXVtDSDJdW0NIMl00

> <s_epik_cmdline>
J2VwaWtfcHl0aG9uJywgJy1waCcsICc3LjAnLCAnLXRuJywgJzgnLCAnLW1hJywgJzIwMCcsICctbWV0YWxfYmluZGluZycsICctaW1hZScsICc8aW5maWxlLm1hZT4nLCAnLW9tYWUnLCAnPG91dGZpbGUubWFlPic=

> <r_lp_tautomer_probability>
1

> <r_epik_Ionization_Penalty>
0.00552561

> <r_epik_Ionization_Penalty_Charging>
0

> <r_epik_Ionization_Penalty_Neutral>
0.00552561

> <r_epik_State_Penalty>
-0

> <r_epik_Charging_Adjusted_Penalty>
0

> <i_epik_Tot_Q>
0

> <i_epik_Tot_abs_Q>
0

> <r_epik_Metal_State_Penalty>
-0

> <b_epik_Metal_Only>
0

> <s_lp_Force_Field>
OPLS_2005

> <r_lp_Energy>
62.4045

> <b_lp_Chiralities_Consistent>
1

> <s_lp_Variant>
AV-unprocessed.smi:2520-6

> <Gold.Version>
5.8.1

> <Gold.Id.Protein>
6NUR|6NUR_protein|mol2

> <Gold.PLP.Fitness>
34.4400

> <Gold.PLP.PLP>
-33.0149

> <Gold.PLP.part.hbond>
-1.0676

> <Gold.PLP.part.metal>
0.0000

> <Gold.PLP.part.buried>
-6.0766

> <Gold.PLP.part.nonpolar>
-25.4691

> <Gold.PLP.part.repulsive>
0.2636

> <Gold.PLP.ligand.clash>
0.0000

> <Gold.PLP.ligand.torsion>
0.4628

> <Gold.PLP.Chemscore.Hbond>
0.7150

> <Gold.PLP.Chemscore.CHOScore>
0.0000

> <Gold.PLP.Chemscore.Metal>
0.0000

> <Gold.Chemscore.Hbonds>
donor molecule, donor type, donor heavy atom, donor atom, acceptor molecule, acceptor atom, score
      P1  H  6896  6908       L1     1  0.68

> <Gold.PLP.Chemscore.Internal.Correction>
0.2057

> <Gold.Rescore>
     Score         DG    S(hbond)    S(metal)    S(lipo)     H(rot)  DE(clash)    DE(int)     intcor
     14.75     -16.39       0.99        0.00      86.78       1.00       0.00       1.64       ----

> <Gold.Chemscore.Fitness>
14.7505

> <Gold.Chemscore.DG>
-16.3922

> <Gold.Chemscore.ZeroCoef>
-5.4800

> <Gold.Chemscore.Hbond>
0.9938

> <Gold.Chemscore.Metal>
0.0000

> <Gold.Chemscore.Lipo>
86.7765

> <Gold.Chemscore.Internal_Hbond>
0.0000

> <Gold.Chemscore.DEClash>
0.0015

> <Gold.Chemscore.DEInternal>
1.6402

> <Gold.Chemscore.Rot>
1.0000

> <Gold.Chemscore.Internal.Correction>
   9.000000E+99

> <Gold.Chemscore.Hbonds>
donor molecule, donor type, donor heavy atom, donor atom, acceptor molecule, acceptor atom, score
      P1  H  6896  6908       L1     1  0.17

> <Gold.Chemscore.Hbond.Weighted>
-3.3193

> <Gold.Chemscore.Metal.Weighted>
-0.0000

> <Gold.Chemscore.Lipo.Weighted>
-10.1528

> <Gold.Chemscore.Internal_Hbond.Weighted>
0.0000

> <Gold.Chemscore.DEClash.Weighted>
0.0015

> <Gold.Chemscore.DEInternal.Weighted>
1.6402

> <Gold.Chemscore.Rot.Weighted>
2.5600

> <Gold.Chemscore.Internal.Correction.Weighted>
   9.000000E+99

> <Gold.Protein.RotatedTorsions>
[ 6907 6896 6895 6894 ] final -136.86 input  -60.11 | X-H torsion
[ 7974 7965 7964 7962 ] final -178.58 input  175.53 | X-H torsion
[ 8008 7997 7996 7995 ] final   73.60 input   59.86 | X-H torsion
[ 10167 10162 10161 10158 ] final   88.07 input  -65.29 | X-H torsion
[ 10718 10713 10712 10709 ] final   56.30 input   66.30 | X-H torsion
[ 10763 10752 10751 10750 ] final   25.92 input  -60.55 | X-H torsion
[ 11005 11000 10999 10996 ] final  177.65 input  -57.11 | X-H torsion

> <Gold.Protein.ActiveResidues>
 VAL166  LYS551  ARG553  GLY616  TRP617  ASP618  TYR619  PRO620  LYS621  CYS622 
 ASP623  PHE694  ASN695  SER759  ASP760  ASP761  ALA762  ILE779  LEU786  VAL792 
 PHE793  MET794  SER795  GLU796  ALA797  LYS798  CYS799  TRP800  GLU811  SER814 

> <Gold.Protein.RotatedAtoms>
  151.0153  133.5927  159.2677 H   0  0  0  0  0  0  0  0  0  0  0  0  # atno 6907 bound_to 6896
  151.3063  135.0781  159.9266 H   0  0  0  0  0  0  0  0  0  0  0  0  # atno 6908 bound_to 6896
  152.5310  133.9826  159.7867 H   0  0  0  0  0  0  0  0  0  0  0  0  # atno 6909 bound_to 6896
  144.7132  140.0846  143.6424 H   0  0  0  0  0  0  0  0  0  0  0  0  # atno 7974 bound_to 7965
  155.7861  140.3480  155.5323 H   0  0  0  0  0  0  0  0  0  0  0  0  # atno 8008 bound_to 7997
  155.8680  140.0982  157.1589 H   0  0  0  0  0  0  0  0  0  0  0  0  # atno 8009 bound_to 7997
  154.4016  140.1346  156.4031 H   0  0  0  0  0  0  0  0  0  0  0  0  # atno 8010 bound_to 7997
  139.8709  144.6493  150.8950 H   0  0  0  0  0  0  0  0  0  0  0  0  # atno 10167 bound_to 10162
  157.5419  130.8703  149.8834 H   0  0  0  0  0  0  0  0  0  0  0  0  # atno 10718 bound_to 10713
  153.0658  135.6572  154.0357 H   0  0  0  0  0  0  0  0  0  0  0  0  # atno 10763 bound_to 10752
  154.0015  135.2936  155.3403 H   0  0  0  0  0  0  0  0  0  0  0  0  # atno 10764 bound_to 10752
  154.7015  135.5242  153.8603 H   0  0  0  0  0  0  0  0  0  0  0  0  # atno 10765 bound_to 10752
  140.3864  134.6901  157.4482 H   0  0  0  0  0  0  0  0  0  0  0  0  # atno 11005 bound_to 11000
  145.9672  139.2843  143.1120 LP  0  0  0  0  0  0  0  0  0  0  0  0  # atno 17320 bound_to 7965
  145.9156  140.9150  143.0431 LP  0  0  0  0  0  0  0  0  0  0  0  0  # atno 17321 bound_to 7965
  140.7761  143.3664  151.1731 LP  0  0  0  0  0  0  0  0  0  0  0  0  # atno 17342 bound_to 10162
  139.7284  143.9111  152.3011 LP  0  0  0  0  0  0  0  0  0  0  0  0  # atno 17343 bound_to 10162
  156.0504  130.3719  150.1216 LP  0  0  0  0  0  0  0  0  0  0  0  0  # atno 17370 bound_to 10713
  156.9395  130.9740  151.3518 LP  0  0  0  0  0  0  0  0  0  0  0  0  # atno 17371 bound_to 10713
  140.0439  134.6227  155.8945 LP  0  0  0  0  0  0  0  0  0  0  0  0  # atno 17394 bound_to 11000
  141.1906  133.6569  156.5418 LP  0  0  0  0  0  0  0  0  0  0  0  0  # atno 17395 bound_to 11000

$$$$
