AV-unprocessed.smi:1207|AV-procd|sdf|5052|dock5
  -GOLD-   22720 4 83D 1   1.00000     0.00000
 Structure written by MMmdl.
 52 54  0  0  0  0  0  0  0  0  2 V2000
  152.3751  144.0366  161.3353 C   0  0  0  0  0  0  0  0  0  0  0  0
  152.0752  143.2147  160.0942 C   0  0  0  0  0  0  0  0  0  0  0  0
  152.4633  141.8561  160.0591 C   0  0  0  0  0  0  0  0  0  0  0  0
  152.2034  141.0578  158.9239 C   0  0  0  0  0  0  0  0  0  0  0  0
  152.4910  139.7268  158.6751 N   0  0  0  0  0  0  0  0  0  0  0  0
  152.0006  139.5704  157.4490 C   0  0  0  0  0  0  0  0  0  0  0  0
  151.4317  140.6459  156.8707 N   0  0  0  0  0  0  0  0  0  0  0  0
  150.8337  140.7213  155.5497 C   0  0  0  0  0  0  0  0  0  0  0  0
  149.5296  139.9078  155.4536 C   0  0  1  0  0  0  0  0  0  0  0  0
  148.4212  140.7829  155.5427 O   0  0  0  0  0  0  0  0  0  0  0  0
  149.4305  139.1113  154.1382 C   0  0  0  0  0  0  0  0  0  0  0  0
  149.9796  137.7400  154.2889 N   0  3  1  0  0  0  0  0  0  0  0  0
  151.4455  137.7386  154.5002 C   0  0  0  0  0  0  0  0  0  0  0  0
  149.2551  136.9274  155.3000 C   0  0  0  0  0  0  0  0  0  0  0  0
  150.0237  135.6765  155.6328 C   0  0  0  0  0  0  0  0  0  0  0  0
  151.0772  135.5366  156.5813 C   0  0  0  0  0  0  0  0  0  0  0  0
  151.6724  136.5866  157.4763 C   0  0  0  0  0  0  0  0  0  0  0  0
  151.5360  134.2980  156.6304 N   0  0  0  0  0  0  0  0  0  0  0  0
  150.7906  133.5760  155.6937 O   0  0  0  0  0  0  0  0  0  0  0  0
  149.8991  134.4173  155.1112 C   0  0  0  0  0  0  0  0  0  0  0  0
  149.0082  133.8216  154.0737 C   0  0  0  0  0  0  0  0  0  0  0  0
  151.5377  141.6602  157.8165 C   0  0  0  0  0  0  0  0  0  0  0  0
  151.1442  143.0101  157.8403 C   0  0  0  0  0  0  0  0  0  0  0  0
  151.4150  143.7944  158.9809 C   0  0  0  0  0  0  0  0  0  0  0  0
  150.9911  145.2524  158.9948 C   0  0  0  0  0  0  0  0  0  0  0  0
  152.8541  143.4330  162.1067 H   0  0  0  0  0  0  0  0  0  0  0  0
  151.4558  144.4456  161.7552 H   0  0  0  0  0  0  0  0  0  0  0  0
  153.0440  144.8627  161.0931 H   0  0  0  0  0  0  0  0  0  0  0  0
  152.9666  141.4143  160.9069 H   0  0  0  0  0  0  0  0  0  0  0  0
  152.0623  138.6194  156.9405 H   0  0  0  0  0  0  0  0  0  0  0  0
  150.6531  141.7686  155.3021 H   0  0  0  0  0  0  0  0  0  0  0  0
  151.5635  140.3499  154.8290 H   0  0  0  0  0  0  0  0  0  0  0  0
  149.4828  139.2283  156.3038 H   0  0  0  0  0  0  0  0  0  0  0  0
  148.7297  141.6412  155.7913 H   0  0  0  0  0  0  0  0  0  0  0  0
  148.3840  139.0719  153.8307 H   0  0  0  0  0  0  0  0  0  0  0  0
  149.9626  139.6219  153.3338 H   0  0  0  0  0  0  0  0  0  0  0  0
  151.7057  138.2265  155.4405 H   0  0  0  0  0  0  0  0  0  0  0  0
  151.9530  138.2641  153.6906 H   0  0  0  0  0  0  0  0  0  0  0  0
  151.8378  136.7222  154.5220 H   0  0  0  0  0  0  0  0  0  0  0  0
  149.0606  137.5340  156.1854 H   0  0  0  0  0  0  0  0  0  0  0  0
  148.2690  136.6543  154.9247 H   0  0  0  0  0  0  0  0  0  0  0  0
  151.9974  137.4534  156.9002 H   0  0  0  0  0  0  0  0  0  0  0  0
  152.5390  136.2106  158.0217 H   0  0  0  0  0  0  0  0  0  0  0  0
  150.9440  136.9303  158.2108 H   0  0  0  0  0  0  0  0  0  0  0  0
  148.3435  134.5713  153.6450 H   0  0  0  0  0  0  0  0  0  0  0  0
  148.3914  133.0319  154.5031 H   0  0  0  0  0  0  0  0  0  0  0  0
  149.5950  133.3889  153.2633 H   0  0  0  0  0  0  0  0  0  0  0  0
  150.6397  143.4392  156.9874 H   0  0  0  0  0  0  0  0  0  0  0  0
  150.5360  145.5440  158.0478 H   0  0  0  0  0  0  0  0  0  0  0  0
  151.8516  145.9000  159.1645 H   0  0  0  0  0  0  0  0  0  0  0  0
  150.2619  145.4298  159.7858 H   0  0  0  0  0  0  0  0  0  0  0  0
  149.8254  137.2931  153.3959 H   0  0  0  0  0  0  0  0  0  0  0  0
  1  2  1  0  0  0  0
  1 26  1  0  0  0  0
  1 27  1  0  0  0  0
  1 28  1  0  0  0  0
  2 24  1  0  0  0  0
  2  3  2  0  0  0  0
  3  4  1  0  0  0  0
  3 29  1  0  0  0  0
  4 22  2  0  0  0  0
  4  5  1  0  0  0  0
  5  6  2  0  0  0  0
  6  7  1  0  0  0  0
  6 30  1  0  0  0  0
  7  8  1  0  0  0  0
  7 22  1  0  0  0  0
  8  9  1  0  0  0  0
  8 31  1  0  0  0  0
  8 32  1  0  0  0  0
  9 10  1  0  0  0  0
  9 11  1  0  0  0  0
  9 33  1  0  0  0  0
 10 34  1  0  0  0  0
 11 12  1  0  0  0  0
 11 35  1  0  0  0  0
 11 36  1  0  0  0  0
 12 13  1  0  0  0  0
 12 14  1  0  0  0  0
 12 52  1  0  0  0  0
 13 37  1  0  0  0  0
 13 38  1  0  0  0  0
 13 39  1  0  0  0  0
 14 15  1  0  0  0  0
 14 40  1  0  0  0  0
 14 41  1  0  0  0  0
 15 20  2  0  0  0  0
 15 16  1  0  0  0  0
 16 17  1  0  0  0  0
 16 18  2  0  0  0  0
 17 42  1  0  0  0  0
 17 43  1  0  0  0  0
 17 44  1  0  0  0  0
 18 19  1  0  0  0  0
 19 20  1  0  0  0  0
 20 21  1  0  0  0  0
 21 45  1  0  0  0  0
 21 46  1  0  0  0  0
 21 47  1  0  0  0  0
 22 23  1  0  0  0  0
 23 24  2  0  0  0  0
 23 48  1  0  0  0  0
 24 25  1  0  0  0  0
 25 49  1  0  0  0  0
 25 50  1  0  0  0  0
 25 51  1  0  0  0  0
M  CHG  1  12   1
M  END
> <s_m_source_file>
AV-unprocessed.smi

> <i_m_source_file_index>
1207

> <i_lp_mmshare_version>
43012

> <i_f3d_flags>
0

> <s_epik_input>
W0NIM11jKFtjSF0xKWMoW0NIM10pW2NIXWMoYzEyKW4oW2NIXW4yKVtDSDJdW0NASF0oW09IXSlbQ0gyXU4oW0NIM10pW0NIMl1jM2MoW0NIM10pbm9jM1tDSDNd

> <s_epik_cmdline>
J2VwaWtfcHl0aG9uJywgJy1waCcsICc3LjAnLCAnLXRuJywgJzgnLCAnLW1hJywgJzIwMCcsICctbWV0YWxfYmluZGluZycsICctaW1hZScsICc8aW5maWxlLm1hZT4nLCAnLW9tYWUnLCAnPG91dGZpbGUubWFlPic=

> <r_epik_Ionization_Penalty>
0.646518

> <r_epik_Ionization_Penalty_Charging>
0.559419

> <r_epik_Ionization_Penalty_Neutral>
0.0870981

> <r_epik_State_Penalty>
0.661677

> <r_epik_Charging_Adjusted_Penalty>
1.2211

> <i_epik_Tot_Q>
1

> <i_epik_Tot_abs_Q>
1

> <r_epik_Metal_State_Penalty>
0.649158

> <b_epik_Metal_Only>
0

> <s_lp_Force_Field>
OPLS_2005

> <r_lp_Energy>
8.27883

> <b_lp_Chiralities_Consistent>
1

> <s_lp_Variant>
AV-unprocessed.smi:1207-4

> <Gold.Version>
5.8.1

> <Gold.Id.Protein>
6NUR|6NUR_protein|mol2

> <Gold.PLP.Fitness>
49.3517

> <Gold.PLP.PLP>
-46.4291

> <Gold.PLP.part.hbond>
-1.3582

> <Gold.PLP.part.metal>
0.0000

> <Gold.PLP.part.buried>
-4.1576

> <Gold.PLP.part.nonpolar>
-39.7643

> <Gold.PLP.part.repulsive>
0.0431

> <Gold.PLP.ligand.clash>
0.0387

> <Gold.PLP.ligand.torsion>
1.6026

> <Gold.PLP.Chemscore.Hbond>
2.0000

> <Gold.PLP.Chemscore.CHOScore>
0.0000

> <Gold.PLP.Chemscore.Metal>
0.0000

> <Gold.Chemscore.Hbonds>
donor molecule, donor type, donor heavy atom, donor atom, acceptor molecule, acceptor atom, score
      L1  H    12    52       P1  7948  2.00

> <Gold.PLP.Chemscore.Internal.Correction>
0.1663

> <Gold.Rescore>
     Score         DG    S(hbond)    S(metal)    S(lipo)     H(rot)  DE(clash)    DE(int)     intcor
     15.93     -17.62       0.91        0.00     131.37       2.46       0.09       1.59       ----

> <Gold.Chemscore.Fitness>
15.9286

> <Gold.Chemscore.DG>
-17.6151

> <Gold.Chemscore.ZeroCoef>
-5.4800

> <Gold.Chemscore.Hbond>
0.9141

> <Gold.Chemscore.Metal>
0.0000

> <Gold.Chemscore.Lipo>
131.3728

> <Gold.Chemscore.Internal_Hbond>
0.0000

> <Gold.Chemscore.DEClash>
0.0936

> <Gold.Chemscore.DEInternal>
1.5930

> <Gold.Chemscore.Rot>
2.4565

> <Gold.Chemscore.Internal.Correction>
   9.000000E+99

> <Gold.Chemscore.Hbonds>
donor molecule, donor type, donor heavy atom, donor atom, acceptor molecule, acceptor atom, score
      L1  H    12    52       P1  7948  0.52

> <Gold.Chemscore.Hbond.Weighted>
-3.0532

> <Gold.Chemscore.Metal.Weighted>
-0.0000

> <Gold.Chemscore.Lipo.Weighted>
-15.3706

> <Gold.Chemscore.Internal_Hbond.Weighted>
0.0000

> <Gold.Chemscore.DEClash.Weighted>
0.0936

> <Gold.Chemscore.DEInternal.Weighted>
1.5930

> <Gold.Chemscore.Rot.Weighted>
6.2887

> <Gold.Chemscore.Internal.Correction.Weighted>
   9.000000E+99

> <Gold.Protein.RotatedTorsions>
[ 6907 6896 6895 6894 ] final -120.33 input  -60.11 | X-H torsion
[ 7974 7965 7964 7962 ] final -135.80 input  175.53 | X-H torsion
[ 8008 7997 7996 7995 ] final  140.07 input   59.86 | X-H torsion
[ 10167 10162 10161 10158 ] final   19.46 input  -65.29 | X-H torsion
[ 10718 10713 10712 10709 ] final -139.93 input   66.30 | X-H torsion
[ 10763 10752 10751 10750 ] final -123.26 input  -60.55 | X-H torsion
[ 11005 11000 10999 10996 ] final  -65.84 input  -57.11 | X-H torsion

> <Gold.Protein.ActiveResidues>
 VAL166  LYS551  ARG553  GLY616  TRP617  ASP618  TYR619  PRO620  LYS621  CYS622 
 ASP623  PHE694  ASN695  SER759  ASP760  ASP761  ALA762  ILE779  LEU786  VAL792 
 PHE793  MET794  SER795  GLU796  ALA797  LYS798  CYS799  TRP800  GLU811  SER814 

> <Gold.Protein.RotatedAtoms>
  150.8384  133.7976  159.3070 H   0  0  0  0  0  0  0  0  0  0  0  0  # atno 6907 bound_to 6896
  151.5685  135.1061  159.9999 H   0  0  0  0  0  0  0  0  0  0  0  0  # atno 6908 bound_to 6896
  152.4452  133.7481  159.6734 H   0  0  0  0  0  0  0  0  0  0  0  0  # atno 6909 bound_to 6896
  144.8982  140.6735  143.5102 H   0  0  0  0  0  0  0  0  0  0  0  0  # atno 7974 bound_to 7965
  156.2983  140.2351  156.4340 H   0  0  0  0  0  0  0  0  0  0  0  0  # atno 8008 bound_to 7997
  154.8244  140.0436  157.1454 H   0  0  0  0  0  0  0  0  0  0  0  0  # atno 8009 bound_to 7997
  154.9278  140.3012  155.5187 H   0  0  0  0  0  0  0  0  0  0  0  0  # atno 8010 bound_to 7997
  140.5577  143.9394  150.6621 H   0  0  0  0  0  0  0  0  0  0  0  0  # atno 10167 bound_to 10162
  156.3164  130.7510  151.1598 H   0  0  0  0  0  0  0  0  0  0  0  0  # atno 10718 bound_to 10713
  154.8704  135.4104  154.2915 H   0  0  0  0  0  0  0  0  0  0  0  0  # atno 10763 bound_to 10752
  153.3790  135.7010  153.6585 H   0  0  0  0  0  0  0  0  0  0  0  0  # atno 10764 bound_to 10752
  153.5416  135.3647  155.2692 H   0  0  0  0  0  0  0  0  0  0  0  0  # atno 10765 bound_to 10752
  141.1466  133.6688  156.6048 H   0  0  0  0  0  0  0  0  0  0  0  0  # atno 11005 bound_to 11000
  145.3662  139.1669  143.4356 LP  0  0  0  0  0  0  0  0  0  0  0  0  # atno 17320 bound_to 7965
  146.3093  140.3730  142.8676 LP  0  0  0  0  0  0  0  0  0  0  0  0  # atno 17321 bound_to 7965
  140.2837  143.3372  152.1127 LP  0  0  0  0  0  0  0  0  0  0  0  0  # atno 17342 bound_to 10162
  139.5055  144.6797  151.6040 LP  0  0  0  0  0  0  0  0  0  0  0  0  # atno 17343 bound_to 10162
  157.7402  131.0519  150.5179 LP  0  0  0  0  0  0  0  0  0  0  0  0  # atno 17370 bound_to 10713
  156.5326  130.4188  149.6194 LP  0  0  0  0  0  0  0  0  0  0  0  0  # atno 17371 bound_to 10713
  140.3660  134.7647  157.4566 LP  0  0  0  0  0  0  0  0  0  0  0  0  # atno 17394 bound_to 11000
  140.0748  134.5813  155.8603 LP  0  0  0  0  0  0  0  0  0  0  0  0  # atno 17395 bound_to 11000

$$$$
