AV-unprocessed.smi:1056|AV-procd|sdf|4643|dock5
  -GOLD-   22720 3143D 1   1.00000     0.00000
 Structure written by MMmdl.
 44 46  0  0  0  0  0  0  0  0  3 V2000
  152.8846  141.2412  159.3296 C   0  0  0  0  0  0  0  0  0  0  0  0
  151.9244  141.1738  158.1551 C   0  0  0  0  0  0  0  0  0  0  0  0
  152.0120  140.0856  157.2579 C   0  0  0  0  0  0  0  0  0  0  0  0
  151.1381  139.9852  156.1536 C   0  0  0  0  0  0  0  0  0  0  0  0
  151.0473  139.0231  155.1624 N   0  0  0  0  0  0  0  0  0  0  0  0
  150.0418  139.4882  154.4272 C   0  0  0  0  0  0  0  0  0  0  0  0
  149.4738  140.6441  154.8217 N   0  0  0  0  0  0  0  0  0  0  0  0
  148.3738  141.3451  154.1843 C   0  0  0  0  0  0  0  0  0  0  0  0
  147.0805  140.5093  154.1643 C   0  0  1  0  0  0  0  0  0  0  0  0
  145.9643  141.3775  154.1253 O   0  0  0  0  0  0  0  0  0  0  0  0
  147.0220  139.5733  152.9417 C   0  0  0  0  0  0  0  0  0  0  0  0
  145.8710  138.6385  153.0041 N   0  3  2  0  0  0  0  0  0  0  0  0
  145.5113  138.2275  154.3867 C   0  0  0  0  0  0  0  0  0  0  0  0
  144.1388  137.5286  154.3929 C   0  0  0  0  0  0  0  0  0  0  0  0
  144.0807  136.5137  153.3339 N   0  5  0  0  0  0  0  0  0  0  0  0
  144.8461  136.4783  152.1982 C   0  0  0  0  0  0  0  0  0  0  0  0
  144.6919  135.7011  151.2590 O   0  0  0  0  0  0  0  0  0  0  0  0
  146.0427  137.4637  152.1053 C   0  0  0  0  0  0  0  0  0  0  0  0
  150.1666  141.0120  155.9697 C   0  0  0  0  0  0  0  0  0  0  0  0
  150.0687  142.0995  156.8556 C   0  0  0  0  0  0  0  0  0  0  0  0
  150.9502  142.1843  157.9536 C   0  0  0  0  0  0  0  0  0  0  0  0
  150.8385  143.3631  158.9042 C   0  0  0  0  0  0  0  0  0  0  0  0
  153.5595  140.3849  159.3424 H   0  0  0  0  0  0  0  0  0  0  0  0
  152.3364  141.2484  160.2720 H   0  0  0  0  0  0  0  0  0  0  0  0
  153.4922  142.1447  159.2748 H   0  0  0  0  0  0  0  0  0  0  0  0
  152.7539  139.3156  157.4114 H   0  0  0  0  0  0  0  0  0  0  0  0
  149.7019  138.9610  153.5476 H   0  0  0  0  0  0  0  0  0  0  0  0
  148.2114  142.2912  154.7032 H   0  0  0  0  0  0  0  0  0  0  0  0
  148.6772  141.5946  153.1669 H   0  0  0  0  0  0  0  0  0  0  0  0
  147.0256  139.9321  155.0867 H   0  0  0  0  0  0  0  0  0  0  0  0
  145.3076  140.9977  153.5611 H   0  0  0  0  0  0  0  0  0  0  0  0
  146.9570  140.1832  152.0391 H   0  0  0  0  0  0  0  0  0  0  0  0
  147.9437  138.9963  152.8521 H   0  0  0  0  0  0  0  0  0  0  0  0
  146.2806  137.5598  154.7783 H   0  0  0  0  0  0  0  0  0  0  0  0
  145.4743  139.0858  155.0562 H   0  0  0  0  0  0  0  0  0  0  0  0
  143.9567  137.1010  155.3785 H   0  0  0  0  0  0  0  0  0  0  0  0
  143.3645  138.2823  154.2479 H   0  0  0  0  0  0  0  0  0  0  0  0
  146.1432  137.8052  151.0741 H   0  0  0  0  0  0  0  0  0  0  0  0
  146.9581  136.9288  152.3629 H   0  0  0  0  0  0  0  0  0  0  0  0
  149.3219  142.8620  156.6908 H   0  0  0  0  0  0  0  0  0  0  0  0
  150.0443  144.0456  158.6006 H   0  0  0  0  0  0  0  0  0  0  0  0
  151.7723  143.9253  158.9267 H   0  0  0  0  0  0  0  0  0  0  0  0
  150.6165  143.0193  159.9146 H   0  0  0  0  0  0  0  0  0  0  0  0
  145.0733  139.1418  152.6426 H   0  0  0  0  0  0  0  0  0  0  0  0
  1  2  1  0  0  0  0
  1 23  1  0  0  0  0
  1 24  1  0  0  0  0
  1 25  1  0  0  0  0
  2 21  1  0  0  0  0
  2  3  2  0  0  0  0
  3  4  1  0  0  0  0
  3 26  1  0  0  0  0
  4 19  2  0  0  0  0
  4  5  1  0  0  0  0
  5  6  2  0  0  0  0
  6  7  1  0  0  0  0
  6 27  1  0  0  0  0
  7  8  1  0  0  0  0
  7 19  1  0  0  0  0
  8  9  1  0  0  0  0
  8 28  1  0  0  0  0
  8 29  1  0  0  0  0
  9 10  1  0  0  0  0
  9 11  1  0  0  0  0
  9 30  1  0  0  0  0
 10 31  1  0  0  0  0
 11 12  1  0  0  0  0
 11 32  1  0  0  0  0
 11 33  1  0  0  0  0
 12 18  1  0  0  0  0
 12 13  1  0  0  0  0
 12 44  1  0  0  0  0
 13 14  1  0  0  0  0
 13 34  1  0  0  0  0
 13 35  1  0  0  0  0
 14 15  1  0  0  0  0
 14 36  1  0  0  0  0
 14 37  1  0  0  0  0
 15 16  1  0  0  0  0
 16 17  2  0  0  0  0
 16 18  1  0  0  0  0
 18 38  1  0  0  0  0
 18 39  1  0  0  0  0
 19 20  1  0  0  0  0
 20 21  2  0  0  0  0
 20 40  1  0  0  0  0
 21 22  1  0  0  0  0
 22 41  1  0  0  0  0
 22 42  1  0  0  0  0
 22 43  1  0  0  0  0
M  CHG  1  12   1
M  CHG  1  15  -1
M  END
> <s_m_source_file>
AV-unprocessed.smi

> <i_m_source_file_index>
1056

> <i_lp_mmshare_version>
43012

> <i_f3d_flags>
0

> <s_epik_input>
W0NIM11jKFtjSF0xKWMoW0NIM10pW2NIXWMoYzEyKW4oW2NIXW4yKVtDSDJdW0NASF0oW09IXSlbQ0gyXU4zW0NIMl1bQ0gyXVtOSF1DKD1PKVtDSDJdMw==

> <s_epik_cmdline>
J2VwaWtfcHl0aG9uJywgJy1waCcsICc3LjAnLCAnLXRuJywgJzgnLCAnLW1hJywgJzIwMCcsICctbWV0YWxfYmluZGluZycsICctaW1hZScsICc8aW5maWxlLm1hZT4nLCAnLW9tYWUnLCAnPG91dGZpbGUubWFlPic=

> <r_epik_Ionization_Penalty>
5.13411

> <r_epik_Ionization_Penalty_Charging>
5.04792

> <r_epik_Ionization_Penalty_Neutral>
0.0861879

> <r_epik_State_Penalty>
5.18224

> <r_epik_Charging_Adjusted_Penalty>
10.2302

> <i_epik_Tot_Q>
0

> <i_epik_Tot_abs_Q>
2

> <r_epik_Metal_State_Penalty>
1.33873

> <b_epik_Metal_Only>
1

> <s_lp_Force_Field>
OPLS_2005

> <r_lp_Energy>
15.7703

> <b_lp_Chiralities_Consistent>
1

> <s_lp_Variant>
AV-unprocessed.smi:1056-14

> <Gold.Version>
5.8.1

> <Gold.Id.Protein>
6NUR|6NUR_protein|mol2

> <Gold.PLP.Fitness>
46.0522

> <Gold.PLP.PLP>
-35.5971

> <Gold.PLP.part.hbond>
-2.0000

> <Gold.PLP.part.metal>
0.0000

> <Gold.PLP.part.buried>
-1.4729

> <Gold.PLP.part.nonpolar>
-32.5861

> <Gold.PLP.part.repulsive>
0.3993

> <Gold.PLP.ligand.clash>
0.0000

> <Gold.PLP.ligand.torsion>
0.5772

> <Gold.PLP.Chemscore.Hbond>
3.0000

> <Gold.PLP.Chemscore.CHOScore>
0.8499

> <Gold.PLP.Chemscore.Metal>
0.0000

> <Gold.Chemscore.Hbonds>
donor molecule, donor type, donor heavy atom, donor atom, acceptor molecule, acceptor atom, score
      L1  H    10    31       P1 10175  1.00
      L1  H    12    44       P1 10175  2.00
      L1  C     6    27       P1  7957  0.69

> <Gold.PLP.Chemscore.Internal.Correction>
0.0599

> <Gold.Rescore>
     Score         DG    S(hbond)    S(metal)    S(lipo)     H(rot)  DE(clash)    DE(int)     intcor
     15.59     -16.50       1.93        0.00      89.69       2.31       0.34       0.57       ----

> <Gold.Chemscore.Fitness>
15.5851

> <Gold.Chemscore.DG>
-16.4986

> <Gold.Chemscore.ZeroCoef>
-5.4800

> <Gold.Chemscore.Hbond>
1.9314

> <Gold.Chemscore.Metal>
0.0000

> <Gold.Chemscore.Lipo>
89.6856

> <Gold.Chemscore.Internal_Hbond>
0.0000

> <Gold.Chemscore.DEClash>
0.3435

> <Gold.Chemscore.DEInternal>
0.5701

> <Gold.Chemscore.Rot>
2.3147

> <Gold.Chemscore.Internal.Correction>
   9.000000E+99

> <Gold.Chemscore.Hbonds>
donor molecule, donor type, donor heavy atom, donor atom, acceptor molecule, acceptor atom, score
      L1  H    10    31       P1 10175  0.67
      L1  H    12    44       P1 10175  0.99

> <Gold.Chemscore.Hbond.Weighted>
-6.4510

> <Gold.Chemscore.Metal.Weighted>
-0.0000

> <Gold.Chemscore.Lipo.Weighted>
-10.4932

> <Gold.Chemscore.Internal_Hbond.Weighted>
0.0000

> <Gold.Chemscore.DEClash.Weighted>
0.3435

> <Gold.Chemscore.DEInternal.Weighted>
0.5701

> <Gold.Chemscore.Rot.Weighted>
5.9256

> <Gold.Chemscore.Internal.Correction.Weighted>
   9.000000E+99

> <Gold.Protein.RotatedTorsions>
[ 6907 6896 6895 6894 ] final   11.35 input  -60.11 | X-H torsion
[ 7974 7965 7964 7962 ] final  -41.09 input  175.53 | X-H torsion
[ 8008 7997 7996 7995 ] final -158.34 input   59.86 | X-H torsion
[ 10167 10162 10161 10158 ] final  -42.57 input  -65.29 | X-H torsion
[ 10718 10713 10712 10709 ] final -108.77 input   66.30 | X-H torsion
[ 10763 10752 10751 10750 ] final   42.61 input  -60.55 | X-H torsion
[ 11005 11000 10999 10996 ] final  -40.36 input  -57.11 | X-H torsion

> <Gold.Protein.ActiveResidues>
 VAL166  LYS551  ARG553  GLY616  TRP617  ASP618  TYR619  PRO620  LYS621  CYS622 
 ASP623  PHE694  ASN695  SER759  ASP760  ASP761  ALA762  ILE779  LEU786  VAL792 
 PHE793  MET794  SER795  GLU796  ALA797  LYS798  CYS799  TRP800  GLU811  SER814 

> <Gold.Protein.RotatedAtoms>
  151.7529  135.0828  160.0333 H   0  0  0  0  0  0  0  0  0  0  0  0  # atno 6907 bound_to 6896
  152.3405  133.6057  159.5881 H   0  0  0  0  0  0  0  0  0  0  0  0  # atno 6908 bound_to 6896
  150.7476  133.9646  159.3568 H   0  0  0  0  0  0  0  0  0  0  0  0  # atno 6909 bound_to 6896
  146.0244  140.6810  142.9163 H   0  0  0  0  0  0  0  0  0  0  0  0  # atno 7974 bound_to 7965
  155.7461  140.0820  157.2223 H   0  0  0  0  0  0  0  0  0  0  0  0  # atno 8008 bound_to 7997
  154.4017  140.1569  156.2726 H   0  0  0  0  0  0  0  0  0  0  0  0  # atno 8009 bound_to 7997
  155.8975  140.3412  155.6004 H   0  0  0  0  0  0  0  0  0  0  0  0  # atno 8010 bound_to 7997
  140.6965  143.3031  151.3227 H   0  0  0  0  0  0  0  0  0  0  0  0  # atno 10167 bound_to 10162
  156.0502  130.5730  150.8007 H   0  0  0  0  0  0  0  0  0  0  0  0  # atno 10718 bound_to 10713
  152.9879  135.6126  154.2978 H   0  0  0  0  0  0  0  0  0  0  0  0  # atno 10763 bound_to 10752
  154.2700  135.2780  155.2744 H   0  0  0  0  0  0  0  0  0  0  0  0  # atno 10764 bound_to 10752
  154.5131  135.5835  153.6677 H   0  0  0  0  0  0  0  0  0  0  0  0  # atno 10765 bound_to 10752
  141.0169  133.6881  156.2311 H   0  0  0  0  0  0  0  0  0  0  0  0  # atno 11005 bound_to 11000
  144.7003  140.3623  143.7161 LP  0  0  0  0  0  0  0  0  0  0  0  0  # atno 17320 bound_to 7965
  145.7142  139.1692  143.2521 LP  0  0  0  0  0  0  0  0  0  0  0  0  # atno 17321 bound_to 7965
  139.6426  144.0511  152.2566 LP  0  0  0  0  0  0  0  0  0  0  0  0  # atno 17342 bound_to 10162
  140.0021  144.6285  150.7720 LP  0  0  0  0  0  0  0  0  0  0  0  0  # atno 17343 bound_to 10162
  157.5421  131.0941  150.9813 LP  0  0  0  0  0  0  0  0  0  0  0  0  # atno 17370 bound_to 10713
  157.0093  130.5630  149.5319 LP  0  0  0  0  0  0  0  0  0  0  0  0  # atno 17371 bound_to 10713
  140.6640  134.4938  157.5584 LP  0  0  0  0  0  0  0  0  0  0  0  0  # atno 17394 bound_to 11000
  139.9122  134.8320  156.1488 LP  0  0  0  0  0  0  0  0  0  0  0  0  # atno 17395 bound_to 11000

$$$$
