AV-unprocessed.smi:3050|AV-procd|sdf|11632|dock10
  -GOLD-   2272017 23D 1   1.00000     0.00000
 Structure written by MMmdl.
 45 46  0  0  0  0  0  0  0  0  1 V2000
  152.4627  138.4003  154.5492 C   0  0  0  0  0  0  0  0  0  0  0  0
  151.0193  138.8395  154.8251 C   0  0  0  0  0  0  0  0  0  0  0  0
  150.9361  140.2328  155.4758 C   0  0  1  0  0  0  0  0  0  0  0  0
  149.5572  140.5816  155.5917 O   0  0  0  0  0  0  0  0  0  0  0  0
  148.8534  140.8038  154.3723 C   0  0  0  0  0  0  0  0  0  0  0  0
  147.7057  141.7851  154.5994 C   0  0  0  0  0  0  0  0  0  0  0  0
  146.7544  141.5349  153.4268 C   0  0  0  0  0  0  0  0  0  0  0  0
  146.9585  140.0664  153.0230 C   0  0  0  0  0  0  0  0  0  0  0  0
  148.1443  139.5500  153.8493 C   0  0  0  0  0  0  0  0  0  0  0  0
  151.6008  140.2402  156.8613 C   0  0  0  0  0  0  0  0  0  0  0  0
  152.7705  139.8794  156.9935 O   0  0  0  0  0  0  0  0  0  0  0  0
  150.8395  140.6583  157.8835 N   0  0  0  0  0  0  0  0  0  0  0  0
  151.2942  140.8067  159.2624 C   0  0  0  0  0  0  0  0  0  0  0  0
  152.1147  142.0935  159.4752 C   0  0  0  0  0  0  0  0  0  0  0  0
  152.8411  142.1058  160.7946 C   0  0  0  0  0  0  0  0  0  0  0  0
  153.8615  141.2182  161.2407 C   0  0  0  0  0  0  0  0  0  0  0  0
  154.2814  141.4912  162.4653 N   0  0  0  0  0  0  0  0  0  0  0  0
  153.5488  142.5596  162.8413 N   0  0  0  0  0  0  0  0  0  0  0  0
  153.7484  143.1349  164.1542 C   0  0  0  0  0  0  0  0  0  0  0  0
  152.6736  142.9542  161.8529 C   0  0  0  0  0  0  0  0  0  0  0  0
  152.4860  137.4094  154.0956 H   0  0  0  0  0  0  0  0  0  0  0  0
  153.0443  138.3582  155.4703 H   0  0  0  0  0  0  0  0  0  0  0  0
  152.9627  139.0890  153.8679 H   0  0  0  0  0  0  0  0  0  0  0  0
  150.4547  138.8286  153.8916 H   0  0  0  0  0  0  0  0  0  0  0  0
  150.5502  138.1001  155.4760 H   0  0  0  0  0  0  0  0  0  0  0  0
  151.4514  140.9420  154.8261 H   0  0  0  0  0  0  0  0  0  0  0  0
  149.5051  141.2123  153.5987 H   0  0  0  0  0  0  0  0  0  0  0  0
  147.1985  141.5494  155.5361 H   0  0  0  0  0  0  0  0  0  0  0  0
  148.0425  142.8207  154.6559 H   0  0  0  0  0  0  0  0  0  0  0  0
  145.7187  141.7521  153.6900 H   0  0  0  0  0  0  0  0  0  0  0  0
  147.0221  142.1834  152.5916 H   0  0  0  0  0  0  0  0  0  0  0  0
  146.0653  139.4707  153.2146 H   0  0  0  0  0  0  0  0  0  0  0  0
  147.1722  139.9976  151.9557 H   0  0  0  0  0  0  0  0  0  0  0  0
  148.8055  138.9062  153.2683 H   0  0  0  0  0  0  0  0  0  0  0  0
  147.7699  138.9646  154.6904 H   0  0  0  0  0  0  0  0  0  0  0  0
  149.8874  140.9299  157.6853 H   0  0  0  0  0  0  0  0  0  0  0  0
  150.4076  140.8328  159.8963 H   0  0  0  0  0  0  0  0  0  0  0  0
  151.8676  139.9311  159.5709 H   0  0  0  0  0  0  0  0  0  0  0  0
  152.8180  142.2048  158.6498 H   0  0  0  0  0  0  0  0  0  0  0  0
  151.4480  142.9537  159.4037 H   0  0  0  0  0  0  0  0  0  0  0  0
  154.3017  140.3838  160.7147 H   0  0  0  0  0  0  0  0  0  0  0  0
  153.0447  143.9520  164.3156 H   0  0  0  0  0  0  0  0  0  0  0  0
  154.7650  143.5207  164.2367 H   0  0  0  0  0  0  0  0  0  0  0  0
  153.5895  142.3744  164.9195 H   0  0  0  0  0  0  0  0  0  0  0  0
  152.0054  143.7930  161.9830 H   0  0  0  0  0  0  0  0  0  0  0  0
  1  2  1  0  0  0  0
  1 21  1  0  0  0  0
  1 22  1  0  0  0  0
  1 23  1  0  0  0  0
  2  3  1  0  0  0  0
  2 24  1  0  0  0  0
  2 25  1  0  0  0  0
  3  4  1  0  0  0  0
  3 10  1  0  0  0  0
  3 26  1  0  0  0  0
  4  5  1  0  0  0  0
  5  9  1  0  0  0  0
  5  6  1  0  0  0  0
  5 27  1  0  0  0  0
  6  7  1  0  0  0  0
  6 28  1  0  0  0  0
  6 29  1  0  0  0  0
  7  8  1  0  0  0  0
  7 30  1  0  0  0  0
  7 31  1  0  0  0  0
  8  9  1  0  0  0  0
  8 32  1  0  0  0  0
  8 33  1  0  0  0  0
  9 34  1  0  0  0  0
  9 35  1  0  0  0  0
 10 11  2  0  0  0  0
 10 12  1  0  0  0  0
 12 13  1  0  0  0  0
 12 36  1  0  0  0  0
 13 14  1  0  0  0  0
 13 37  1  0  0  0  0
 13 38  1  0  0  0  0
 14 15  1  0  0  0  0
 14 39  1  0  0  0  0
 14 40  1  0  0  0  0
 15 20  2  0  0  0  0
 15 16  1  0  0  0  0
 16 17  2  0  0  0  0
 16 41  1  0  0  0  0
 17 18  1  0  0  0  0
 18 19  1  0  0  0  0
 18 20  1  0  0  0  0
 19 42  1  0  0  0  0
 19 43  1  0  0  0  0
 19 44  1  0  0  0  0
 20 45  1  0  0  0  0
M  END
> <s_m_source_file>
AV-unprocessed.smi

> <i_m_source_file_index>
3050

> <i_lp_mmshare_version>
43012

> <i_f3d_flags>
0

> <s_epik_input>
W0NIMl0xW0NIMl1bQ0gyXVtDSDJdW0NIXTFPW0NAQEhdKFtDSDJdW0NIM10pQyg9TylbTkhdW0NIMl1bQ0gyXWMyW2NIXW5uKFtDSDNdKVtjSF0y

> <s_epik_cmdline>
J2VwaWtfcHl0aG9uJywgJy1waCcsICc3LjAnLCAnLXRuJywgJzgnLCAnLW1hJywgJzIwMCcsICctbWV0YWxfYmluZGluZycsICctaW1hZScsICc8aW5maWxlLm1hZT4nLCAnLW9tYWUnLCAnPG91dGZpbGUubWFlPic=

> <r_lp_tautomer_probability>
1

> <r_epik_Ionization_Penalty>
0.000440265

> <r_epik_Ionization_Penalty_Charging>
0

> <r_epik_Ionization_Penalty_Neutral>
0.000440265

> <r_epik_State_Penalty>
-0

> <r_epik_Charging_Adjusted_Penalty>
0

> <i_epik_Tot_Q>
0

> <i_epik_Tot_abs_Q>
0

> <r_epik_Metal_State_Penalty>
-0

> <b_epik_Metal_Only>
0

> <s_lp_Force_Field>
OPLS_2005

> <r_lp_Energy>
20.8184

> <b_lp_Chiralities_Consistent>
1

> <s_lp_Variant>
AV-unprocessed.smi:3050-2

> <Gold.Version>
5.8.1

> <Gold.Id.Protein>
6NUR|6NUR_protein|mol2

> <Gold.PLP.Fitness>
49.6268

> <Gold.PLP.PLP>
-47.6810

> <Gold.PLP.part.hbond>
-2.0000

> <Gold.PLP.part.metal>
0.0000

> <Gold.PLP.part.buried>
-1.2035

> <Gold.PLP.part.nonpolar>
-42.3178

> <Gold.PLP.part.repulsive>
0.1507

> <Gold.PLP.ligand.clash>
0.0000

> <Gold.PLP.ligand.torsion>
0.6453

> <Gold.PLP.Chemscore.Hbond>
1.0000

> <Gold.PLP.Chemscore.CHOScore>
0.0000

> <Gold.PLP.Chemscore.Metal>
0.0000

> <Gold.Chemscore.Hbonds>
donor molecule, donor type, donor heavy atom, donor atom, acceptor molecule, acceptor atom, score
      P1  H  7997  8010       L1    11  1.00

> <Gold.PLP.Chemscore.Internal.Correction>
0.2365

> <Gold.Rescore>
     Score         DG    S(hbond)    S(metal)    S(lipo)     H(rot)  DE(clash)    DE(int)     intcor
     16.03     -17.90       0.99        0.00     118.07       1.83       0.08       1.79       ----

> <Gold.Chemscore.Fitness>
16.0349

> <Gold.Chemscore.DG>
-17.9027

> <Gold.Chemscore.ZeroCoef>
-5.4800

> <Gold.Chemscore.Hbond>
0.9850

> <Gold.Chemscore.Metal>
0.0000

> <Gold.Chemscore.Lipo>
118.0666

> <Gold.Chemscore.Internal_Hbond>
0.0000

> <Gold.Chemscore.DEClash>
0.0796

> <Gold.Chemscore.DEInternal>
1.7882

> <Gold.Chemscore.Rot>
1.8286

> <Gold.Chemscore.Internal.Correction>
   9.000000E+99

> <Gold.Chemscore.Hbonds>
donor molecule, donor type, donor heavy atom, donor atom, acceptor molecule, acceptor atom, score
      P1  H  7997  8010       L1    11  0.99

> <Gold.Chemscore.Hbond.Weighted>
-3.2901

> <Gold.Chemscore.Metal.Weighted>
-0.0000

> <Gold.Chemscore.Lipo.Weighted>
-13.8138

> <Gold.Chemscore.Internal_Hbond.Weighted>
0.0000

> <Gold.Chemscore.DEClash.Weighted>
0.0796

> <Gold.Chemscore.DEInternal.Weighted>
1.7882

> <Gold.Chemscore.Rot.Weighted>
4.6811

> <Gold.Chemscore.Internal.Correction.Weighted>
   9.000000E+99

> <Gold.Protein.RotatedTorsions>
[ 6907 6896 6895 6894 ] final   61.30 input  -60.11 | X-H torsion
[ 7974 7965 7964 7962 ] final -134.89 input  175.53 | X-H torsion
[ 8008 7997 7996 7995 ] final   52.41 input   59.86 | X-H torsion
[ 10167 10162 10161 10158 ] final   80.47 input  -65.29 | X-H torsion
[ 10718 10713 10712 10709 ] final -168.73 input   66.30 | X-H torsion
[ 10763 10752 10751 10750 ] final   98.83 input  -60.55 | X-H torsion
[ 11005 11000 10999 10996 ] final -134.81 input  -57.11 | X-H torsion

> <Gold.Protein.ActiveResidues>
 VAL166  LYS551  ARG553  GLY616  TRP617  ASP618  TYR619  PRO620  LYS621  CYS622 
 ASP623  PHE694  ASN695  SER759  ASP760  ASP761  ALA762  ILE779  LEU786  VAL792 
 PHE793  MET794  SER795  GLU796  ALA797  LYS798  CYS799  TRP800  GLU811  SER814 

> <Gold.Protein.RotatedAtoms>
  152.4077  134.6179  160.0042 H   0  0  0  0  0  0  0  0  0  0  0  0  # atno 6907 bound_to 6896
  151.6365  133.3323  159.3128 H   0  0  0  0  0  0  0  0  0  0  0  0  # atno 6908 bound_to 6896
  150.7970  134.7078  159.6631 H   0  0  0  0  0  0  0  0  0  0  0  0  # atno 6909 bound_to 6896
  144.9063  140.6837  143.5053 H   0  0  0  0  0  0  0  0  0  0  0  0  # atno 7974 bound_to 7965
  155.4513  140.3458  155.4301 H   0  0  0  0  0  0  0  0  0  0  0  0  # atno 8008 bound_to 7997
  156.1218  140.1489  156.9223 H   0  0  0  0  0  0  0  0  0  0  0  0  # atno 8009 bound_to 7997
  154.4829  140.0864  156.7399 H   0  0  0  0  0  0  0  0  0  0  0  0  # atno 8010 bound_to 7997
  139.9494  144.6036  150.8175 H   0  0  0  0  0  0  0  0  0  0  0  0  # atno 10167 bound_to 10162
  156.7012  130.9197  151.3080 H   0  0  0  0  0  0  0  0  0  0  0  0  # atno 10718 bound_to 10713
  153.2938  135.4135  155.1191 H   0  0  0  0  0  0  0  0  0  0  0  0  # atno 10763 bound_to 10752
  154.8529  135.3525  154.5944 H   0  0  0  0  0  0  0  0  0  0  0  0  # atno 10764 bound_to 10752
  153.6367  135.7058  153.5314 H   0  0  0  0  0  0  0  0  0  0  0  0  # atno 10765 bound_to 10752
  140.8956  134.1756  157.4497 H   0  0  0  0  0  0  0  0  0  0  0  0  # atno 11005 bound_to 11000
  145.3531  139.1701  143.4424 LP  0  0  0  0  0  0  0  0  0  0  0  0  # atno 17320 bound_to 7965
  146.3135  140.3585  142.8662 LP  0  0  0  0  0  0  0  0  0  0  0  0  # atno 17321 bound_to 7965
  140.7587  143.3114  151.2837 LP  0  0  0  0  0  0  0  0  0  0  0  0  # atno 17342 bound_to 10162
  139.6641  144.0137  152.2711 LP  0  0  0  0  0  0  0  0  0  0  0  0  # atno 17343 bound_to 10162
  157.6972  130.9294  150.0679 LP  0  0  0  0  0  0  0  0  0  0  0  0  # atno 17370 bound_to 10713
  156.1727  130.3647  149.9142 LP  0  0  0  0  0  0  0  0  0  0  0  0  # atno 17371 bound_to 10713
  139.8735  134.9877  156.5378 LP  0  0  0  0  0  0  0  0  0  0  0  0  # atno 17394 bound_to 11000
  140.8293  133.8291  155.8969 LP  0  0  0  0  0  0  0  0  0  0  0  0  # atno 17395 bound_to 11000

$$$$
