AV-unprocessed.smi:3338|AV-procd|sdf|12871|dock8
  -GOLD-   2272019273D 1   1.00000     0.00000
 Structure written by MMmdl.
 44 45  0  0  0  0  0  0  0  0  2 V2000
  144.4582  142.4143  155.0946 C   0  0  0  0  0  0  0  0  0  0  0  0
  145.7108  141.7652  155.7091 C   0  0  2  0  0  0  0  0  0  0  0  0
  147.0207  142.3933  155.1985 C   0  0  0  0  0  0  0  0  0  0  0  0
  147.3232  141.9566  153.7582 C   0  0  0  0  0  0  0  0  0  0  0  0
  147.3041  140.4253  153.6298 C   0  0  0  0  0  0  0  0  0  0  0  0
  146.0097  139.8651  154.0966 N   0  3  1  0  0  0  0  0  0  0  0  0
  145.9014  138.4068  153.8417 C   0  0  0  0  0  0  0  0  0  0  0  0
  146.1477  138.0537  152.3621 C   0  0  0  0  0  0  0  0  0  0  0  0
  145.1576  137.1070  151.8635 N   0  0  0  0  0  0  0  0  0  0  0  0
  144.9207  135.8942  152.3888 C   0  0  0  0  0  0  0  0  0  0  0  0
  145.5130  135.4697  153.3819 O   0  0  0  0  0  0  0  0  0  0  0  0
  143.8510  135.0431  151.6839 C   0  0  2  0  0  0  0  0  0  0  0  0
  142.5807  134.8476  152.5357 C   0  0  0  0  0  0  0  0  0  0  0  0
  144.4140  133.7694  151.2506 N   0  0  0  0  0  0  0  0  0  0  0  0
  143.7871  132.7572  150.5526 C   0  0  0  0  0  0  0  0  0  0  0  0
  144.7081  131.7713  150.3430 C   0  0  0  0  0  0  0  0  0  0  0  0
  145.8899  132.2780  150.9515 C   0  0  0  0  0  0  0  0  0  0  0  0
  145.7135  133.4741  151.4877 N   0  0  0  0  0  0  0  0  0  0  0  0
  145.7316  140.2354  155.5110 C   0  0  0  0  0  0  0  0  0  0  0  0
  144.4028  142.2573  154.0174 H   0  0  0  0  0  0  0  0  0  0  0  0
  144.4469  143.4898  155.2738 H   0  0  0  0  0  0  0  0  0  0  0  0
  143.5496  142.0006  155.5332 H   0  0  0  0  0  0  0  0  0  0  0  0
  145.6579  141.9547  156.7821 H   0  0  0  0  0  0  0  0  0  0  0  0
  146.9768  143.4811  155.2638 H   0  0  0  0  0  0  0  0  0  0  0  0
  147.8431  142.0824  155.8442 H   0  0  0  0  0  0  0  0  0  0  0  0
  146.5936  142.3926  153.0750 H   0  0  0  0  0  0  0  0  0  0  0  0
  148.2957  142.3421  153.4510 H   0  0  0  0  0  0  0  0  0  0  0  0
  147.4697  140.1563  152.5857 H   0  0  0  0  0  0  0  0  0  0  0  0
  148.1216  139.9868  154.2042 H   0  0  0  0  0  0  0  0  0  0  0  0
  146.6449  137.8859  154.4463 H   0  0  0  0  0  0  0  0  0  0  0  0
  144.9277  138.0419  154.1726 H   0  0  0  0  0  0  0  0  0  0  0  0
  146.0897  138.9420  151.7342 H   0  0  0  0  0  0  0  0  0  0  0  0
  147.1507  137.6447  152.2284 H   0  0  0  0  0  0  0  0  0  0  0  0
  144.6313  137.3804  151.0462 H   0  0  0  0  0  0  0  0  0  0  0  0
  143.5545  135.5861  150.7848 H   0  0  0  0  0  0  0  0  0  0  0  0
  142.1296  135.8059  152.7955 H   0  0  0  0  0  0  0  0  0  0  0  0
  142.7888  134.3163  153.4653 H   0  0  0  0  0  0  0  0  0  0  0  0
  141.8322  134.2729  151.9896 H   0  0  0  0  0  0  0  0  0  0  0  0
  142.7479  132.8216  150.2657 H   0  0  0  0  0  0  0  0  0  0  0  0
  144.5611  130.8318  149.8312 H   0  0  0  0  0  0  0  0  0  0  0  0
  146.8646  131.8172  151.0162 H   0  0  0  0  0  0  0  0  0  0  0  0
  146.4981  139.7929  156.1495 H   0  0  0  0  0  0  0  0  0  0  0  0
  144.7801  139.8178  155.8386 H   0  0  0  0  0  0  0  0  0  0  0  0
  145.2975  140.3049  153.5313 H   0  0  0  0  0  0  0  0  0  0  0  0
  1  2  1  0  0  0  0
  1 20  1  0  0  0  0
  1 21  1  0  0  0  0
  1 22  1  0  0  0  0
  2 19  1  0  0  0  0
  2  3  1  0  0  0  0
  2 23  1  0  0  0  0
  3  4  1  0  0  0  0
  3 24  1  0  0  0  0
  3 25  1  0  0  0  0
  4  5  1  0  0  0  0
  4 26  1  0  0  0  0
  4 27  1  0  0  0  0
  5  6  1  0  0  0  0
  5 28  1  0  0  0  0
  5 29  1  0  0  0  0
  6  7  1  0  0  0  0
  6 19  1  0  0  0  0
  6 44  1  0  0  0  0
  7  8  1  0  0  0  0
  7 30  1  0  0  0  0
  7 31  1  0  0  0  0
  8  9  1  0  0  0  0
  8 32  1  0  0  0  0
  8 33  1  0  0  0  0
  9 10  1  0  0  0  0
  9 34  1  0  0  0  0
 10 11  2  0  0  0  0
 10 12  1  0  0  0  0
 12 13  1  0  0  0  0
 12 14  1  0  0  0  0
 12 35  1  0  0  0  0
 13 36  1  0  0  0  0
 13 37  1  0  0  0  0
 13 38  1  0  0  0  0
 14 18  1  0  0  0  0
 14 15  1  0  0  0  0
 15 16  2  0  0  0  0
 15 39  1  0  0  0  0
 16 17  1  0  0  0  0
 16 40  1  0  0  0  0
 17 18  2  0  0  0  0
 17 41  1  0  0  0  0
 19 42  1  0  0  0  0
 19 43  1  0  0  0  0
M  CHG  1   6   1
M  END
> <s_m_source_file>
AV-unprocessed.smi

> <i_m_source_file_index>
3338

> <i_lp_mmshare_version>
43012

> <i_f3d_flags>
0

> <s_epik_input>
W0NIM11bQ0BASF0xW0NIMl1bQ0gyXVtDSDJdTihbQ0gyXTEpW0NIMl1bQ0gyXVtOSF1DKD1PKVtDQEhdKFtDSDNdKW4yW2NIXVtjSF1bY0hdbjI=

> <s_epik_cmdline>
J2VwaWtfcHl0aG9uJywgJy1waCcsICc3LjAnLCAnLXRuJywgJzgnLCAnLW1hJywgJzIwMCcsICctbWV0YWxfYmluZGluZycsICctaW1hZScsICc8aW5maWxlLm1hZT4nLCAnLW9tYWUnLCAnPG91dGZpbGUubWFlPic=

> <r_lp_tautomer_probability>
1

> <r_epik_Ionization_Penalty>
0.00225707

> <r_epik_Ionization_Penalty_Charging>
0.00223709

> <r_epik_Ionization_Penalty_Neutral>
1.99775e-05

> <r_epik_State_Penalty>
0.00153978

> <r_epik_Charging_Adjusted_Penalty>
0.00377687

> <i_epik_Tot_Q>
1

> <i_epik_Tot_abs_Q>
1

> <r_epik_Metal_State_Penalty>
-0

> <b_epik_Metal_Only>
0

> <s_lp_Force_Field>
OPLS_2005

> <r_lp_Energy>
22.4515

> <b_lp_Chiralities_Consistent>
1

> <s_lp_Variant>
AV-unprocessed.smi:3338-3

> <Gold.Version>
5.8.1

> <Gold.Id.Protein>
6NUR|6NUR_protein|mol2

> <Gold.PLP.Fitness>
46.2256

> <Gold.PLP.PLP>
-31.9567

> <Gold.PLP.part.hbond>
-2.0000

> <Gold.PLP.part.metal>
0.0000

> <Gold.PLP.part.buried>
-5.5819

> <Gold.PLP.part.nonpolar>
-25.4966

> <Gold.PLP.part.repulsive>
0.2237

> <Gold.PLP.ligand.clash>
0.0000

> <Gold.PLP.ligand.torsion>
0.4408

> <Gold.PLP.Chemscore.Hbond>
3.0000

> <Gold.PLP.Chemscore.CHOScore>
2.0000

> <Gold.PLP.Chemscore.Metal>
0.0000

> <Gold.Chemscore.Hbonds>
donor molecule, donor type, donor heavy atom, donor atom, acceptor molecule, acceptor atom, score
      L1  H     6    44       P1 10175  2.00
      L1  H     9    34       P1 10171  1.00
      L1  C    15    39       P1 10186  1.00
      L1  C    17    41       P1 10747  1.00

> <Gold.PLP.Chemscore.Internal.Correction>
0.1506

> <Gold.Rescore>
     Score         DG    S(hbond)    S(metal)    S(lipo)     H(rot)  DE(clash)    DE(int)     intcor
     14.85     -16.72       1.96        0.00      78.41       1.76       0.03       1.84       ----

> <Gold.Chemscore.Fitness>
14.8518

> <Gold.Chemscore.DG>
-16.7162

> <Gold.Chemscore.ZeroCoef>
-5.4800

> <Gold.Chemscore.Hbond>
1.9642

> <Gold.Chemscore.Metal>
0.0000

> <Gold.Chemscore.Lipo>
78.4071

> <Gold.Chemscore.Internal_Hbond>
0.0000

> <Gold.Chemscore.DEClash>
0.0262

> <Gold.Chemscore.DEInternal>
1.8382

> <Gold.Chemscore.Rot>
1.7570

> <Gold.Chemscore.Internal.Correction>
   9.000000E+99

> <Gold.Chemscore.Hbonds>
donor molecule, donor type, donor heavy atom, donor atom, acceptor molecule, acceptor atom, score
      L1  H     6    44       P1 10175  0.99
      L1  H     9    34       P1 10171  0.98

> <Gold.Chemscore.Hbond.Weighted>
-6.5605

> <Gold.Chemscore.Metal.Weighted>
-0.0000

> <Gold.Chemscore.Lipo.Weighted>
-9.1736

> <Gold.Chemscore.Internal_Hbond.Weighted>
0.0000

> <Gold.Chemscore.DEClash.Weighted>
0.0262

> <Gold.Chemscore.DEInternal.Weighted>
1.8382

> <Gold.Chemscore.Rot.Weighted>
4.4979

> <Gold.Chemscore.Internal.Correction.Weighted>
   9.000000E+99

> <Gold.Protein.RotatedTorsions>
[ 6907 6896 6895 6894 ] final  -52.98 input  -60.11 | X-H torsion
[ 7974 7965 7964 7962 ] final  -76.46 input  175.53 | X-H torsion
[ 8008 7997 7996 7995 ] final  178.93 input   59.86 | X-H torsion
[ 10167 10162 10161 10158 ] final   23.89 input  -65.29 | X-H torsion
[ 10718 10713 10712 10709 ] final  -58.51 input   66.30 | X-H torsion
[ 10763 10752 10751 10750 ] final   85.16 input  -60.55 | X-H torsion
[ 11005 11000 10999 10996 ] final   31.92 input  -57.11 | X-H torsion

> <Gold.Protein.ActiveResidues>
 VAL166  LYS551  ARG553  GLY616  TRP617  ASP618  TYR619  PRO620  LYS621  CYS622 
 ASP623  PHE694  ASN695  SER759  ASP760  ASP761  ALA762  ILE779  LEU786  VAL792 
 PHE793  MET794  SER795  GLU796  ALA797  LYS798  CYS799  TRP800  GLU811  SER814 

> <Gold.Protein.RotatedAtoms>
  150.8468  134.7780  159.6976 H   0  0  0  0  0  0  0  0  0  0  0  0  # atno 6907 bound_to 6896
  152.4543  134.5322  159.9824 H   0  0  0  0  0  0  0  0  0  0  0  0  # atno 6908 bound_to 6896
  151.5451  133.3388  159.2978 H   0  0  0  0  0  0  0  0  0  0  0  0  # atno 6909 bound_to 6896
  145.6126  140.9383  143.1181 H   0  0  0  0  0  0  0  0  0  0  0  0  # atno 7974 bound_to 7965
  156.0491  140.1321  157.0070 H   0  0  0  0  0  0  0  0  0  0  0  0  # atno 8008 bound_to 7997
  154.4426  140.1014  156.6420 H   0  0  0  0  0  0  0  0  0  0  0  0  # atno 8009 bound_to 7997
  155.5551  140.3463  155.4480 H   0  0  0  0  0  0  0  0  0  0  0  0  # atno 8010 bound_to 7997
  140.5232  143.9967  150.6427 H   0  0  0  0  0  0  0  0  0  0  0  0  # atno 10167 bound_to 10162
  156.1129  130.4173  150.0588 H   0  0  0  0  0  0  0  0  0  0  0  0  # atno 10718 bound_to 10713
  153.1449  135.4627  154.9550 H   0  0  0  0  0  0  0  0  0  0  0  0  # atno 10763 bound_to 10752
  154.7777  135.3178  154.8058 H   0  0  0  0  0  0  0  0  0  0  0  0  # atno 10764 bound_to 10752
  153.8574  135.6916  153.4840 H   0  0  0  0  0  0  0  0  0  0  0  0  # atno 10765 bound_to 10752
  140.2788  134.2997  155.7806 H   0  0  0  0  0  0  0  0  0  0  0  0  # atno 11005 bound_to 11000
  144.7264  139.7864  143.7363 LP  0  0  0  0  0  0  0  0  0  0  0  0  # atno 17320 bound_to 7965
  146.1493  139.4571  143.0059 LP  0  0  0  0  0  0  0  0  0  0  0  0  # atno 17321 bound_to 7965
  140.3322  143.3071  152.0676 LP  0  0  0  0  0  0  0  0  0  0  0  0  # atno 17342 bound_to 10162
  139.4930  144.6501  151.6693 LP  0  0  0  0  0  0  0  0  0  0  0  0  # atno 17343 bound_to 10162
  156.8546  130.9471  151.3623 LP  0  0  0  0  0  0  0  0  0  0  0  0  # atno 17370 bound_to 10713
  157.6312  130.8730  149.9276 LP  0  0  0  0  0  0  0  0  0  0  0  0  # atno 17371 bound_to 10713
  141.2166  133.7512  156.9449 LP  0  0  0  0  0  0  0  0  0  0  0  0  # atno 17394 bound_to 11000
  140.1303  134.9360  157.2327 LP  0  0  0  0  0  0  0  0  0  0  0  0  # atno 17395 bound_to 11000

$$$$
