AV-unprocessed.smi:303|AV-procd|sdf|2274|dock3
  -GOLD-   2262022163D 1   1.00000     0.00000
 Structure written by MMmdl.
 45 46  0  0  0  0  0  0  0  0  1 V2000
  148.2363  135.7790  154.8702 C   0  0  0  0  0  0  0  0  0  0  0  0
  148.7090  137.2243  154.6733 C   0  0  0  0  0  0  0  0  0  0  0  0
  150.5160  137.4140  155.0165 S   0  0  0  0  0  0  0  0  0  0  0  0
  150.7336  137.2128  156.4574 O   0  0  0  0  0  0  0  0  0  0  0  0
  151.2718  136.6081  154.0448 O   0  0  0  0  0  0  0  0  0  0  0  0
  150.8414  139.0899  154.6719 N   0  0  0  0  0  0  0  0  0  0  0  0
  149.7444  139.9776  154.2418 C   0  0  0  0  0  0  0  0  0  0  0  0
  149.2668  140.8785  155.3942 C   0  0  0  0  0  0  0  0  0  0  0  0
  150.4349  141.6801  155.9963 C   0  0  0  0  0  0  0  0  0  0  0  0
  149.9686  142.5557  157.1656 C   0  0  0  0  0  0  0  0  0  0  0  0
  148.8363  142.4177  157.6300 O   0  0  0  0  0  0  0  0  0  0  0  0
  150.8620  143.4352  157.6463 N   0  0  0  0  0  0  0  0  0  0  0  0
  150.6646  144.2968  158.8096 C   0  0  0  0  0  0  0  0  0  0  0  0
  151.9913  144.6217  159.5244 C   0  0  0  0  0  0  0  0  0  0  0  0
  152.6195  143.4242  160.2171 C   0  0  0  0  0  0  0  0  0  0  0  0
  152.6588  143.3433  161.6261 C   0  0  0  0  0  0  0  0  0  0  0  0
  153.2898  142.2318  162.2168 C   0  0  0  0  0  0  0  0  0  0  0  0
  153.8492  141.2462  161.3810 C   0  0  0  0  0  0  0  0  0  0  0  0
  153.7507  141.4163  159.9855 C   0  0  0  0  0  0  0  0  0  0  0  0
  153.1501  142.4793  159.4088 N   0  0  0  0  0  0  0  0  0  0  0  0
  151.5335  140.7034  156.4539 C   0  0  0  0  0  0  0  0  0  0  0  0
  151.9830  139.7806  155.3077 C   0  0  0  0  0  0  0  0  0  0  0  0
  147.1756  135.6839  154.6384 H   0  0  0  0  0  0  0  0  0  0  0  0
  148.3797  135.4548  155.9012 H   0  0  0  0  0  0  0  0  0  0  0  0
  148.7810  135.0905  154.2250 H   0  0  0  0  0  0  0  0  0  0  0  0
  148.4900  137.5837  153.6712 H   0  0  0  0  0  0  0  0  0  0  0  0
  148.1747  137.8724  155.3677 H   0  0  0  0  0  0  0  0  0  0  0  0
  150.1024  140.5952  153.4173 H   0  0  0  0  0  0  0  0  0  0  0  0
  148.9147  139.3902  153.8492 H   0  0  0  0  0  0  0  0  0  0  0  0
  148.4984  141.5588  155.0249 H   0  0  0  0  0  0  0  0  0  0  0  0
  148.7896  140.2702  156.1624 H   0  0  0  0  0  0  0  0  0  0  0  0
  150.8467  142.3254  155.2182 H   0  0  0  0  0  0  0  0  0  0  0  0
  151.7652  143.4813  157.1972 H   0  0  0  0  0  0  0  0  0  0  0  0
  150.1996  145.2219  158.4687 H   0  0  0  0  0  0  0  0  0  0  0  0
  149.9612  143.8455  159.5113 H   0  0  0  0  0  0  0  0  0  0  0  0
  152.7033  145.0316  158.8067 H   0  0  0  0  0  0  0  0  0  0  0  0
  151.8251  145.4069  160.2632 H   0  0  0  0  0  0  0  0  0  0  0  0
  152.2301  144.1209  162.2409 H   0  0  0  0  0  0  0  0  0  0  0  0
  153.3469  142.1389  163.2912 H   0  0  0  0  0  0  0  0  0  0  0  0
  154.3416  140.3804  161.7985 H   0  0  0  0  0  0  0  0  0  0  0  0
  154.1673  140.6799  159.3144 H   0  0  0  0  0  0  0  0  0  0  0  0
  152.3960  141.2626  156.8186 H   0  0  0  0  0  0  0  0  0  0  0  0
  151.1902  140.1067  157.2982 H   0  0  0  0  0  0  0  0  0  0  0  0
  152.7155  139.0596  155.6685 H   0  0  0  0  0  0  0  0  0  0  0  0
  152.4894  140.3733  154.5451 H   0  0  0  0  0  0  0  0  0  0  0  0
  1  2  1  0  0  0  0
  1 23  1  0  0  0  0
  1 24  1  0  0  0  0
  1 25  1  0  0  0  0
  2  3  1  0  0  0  0
  2 26  1  0  0  0  0
  2 27  1  0  0  0  0
  3  4  2  0  0  0  0
  3  5  2  0  0  0  0
  3  6  1  0  0  0  0
  6 22  1  0  0  0  0
  6  7  1  0  0  0  0
  7  8  1  0  0  0  0
  7 28  1  0  0  0  0
  7 29  1  0  0  0  0
  8  9  1  0  0  0  0
  8 30  1  0  0  0  0
  8 31  1  0  0  0  0
  9 10  1  0  0  0  0
  9 21  1  0  0  0  0
  9 32  1  0  0  0  0
 10 11  2  0  0  0  0
 10 12  1  0  0  0  0
 12 13  1  0  0  0  0
 12 33  1  0  0  0  0
 13 14  1  0  0  0  0
 13 34  1  0  0  0  0
 13 35  1  0  0  0  0
 14 15  1  0  0  0  0
 14 36  1  0  0  0  0
 14 37  1  0  0  0  0
 15 20  1  0  0  0  0
 15 16  2  0  0  0  0
 16 17  1  0  0  0  0
 16 38  1  0  0  0  0
 17 18  2  0  0  0  0
 17 39  1  0  0  0  0
 18 19  1  0  0  0  0
 18 40  1  0  0  0  0
 19 20  2  0  0  0  0
 19 41  1  0  0  0  0
 21 22  1  0  0  0  0
 21 42  1  0  0  0  0
 21 43  1  0  0  0  0
 22 44  1  0  0  0  0
 22 45  1  0  0  0  0
M  END
> <s_m_source_file>
AV-unprocessed.smi

> <i_m_source_file_index>
303

> <i_lp_mmshare_version>
43012

> <i_f3d_flags>
0

> <s_epik_input>
W0NIM11bQ0gyXVMoPU8pKD1PKU4xW0NIMl1bQ0gyXVtDSF0oW0NIMl1bQ0gyXTEpQyg9TylbTkhdW0NIMl1bQ0gyXWMyW2NIXVtjSF1bY0hdW2NIXW4y

> <s_epik_cmdline>
J2VwaWtfcHl0aG9uJywgJy1waCcsICc3LjAnLCAnLXRuJywgJzgnLCAnLW1hJywgJzIwMCcsICctbWV0YWxfYmluZGluZycsICctaW1hZScsICc8aW5maWxlLm1hZT4nLCAnLW9tYWUnLCAnPG91dGZpbGUubWFlPic=

> <r_epik_Ionization_Penalty>
0.0277532

> <r_epik_Ionization_Penalty_Charging>
0

> <r_epik_Ionization_Penalty_Neutral>
0.0277532

> <r_epik_State_Penalty>
0.022734

> <r_epik_Charging_Adjusted_Penalty>
0.022734

> <i_epik_Tot_Q>
0

> <i_epik_Tot_abs_Q>
0

> <r_epik_Metal_State_Penalty>
0.021713

> <b_epik_Metal_Only>
0

> <s_lp_Force_Field>
OPLS_2005

> <r_lp_Energy>
1.72058

> <b_lp_Chiralities_Consistent>
1

> <s_lp_Variant>
AV-unprocessed.smi:303-1

> <Gold.Version>
5.8.1

> <Gold.Id.Protein>
6NUR|6NUR_protein|mol2

> <Gold.PLP.Fitness>
49.0084

> <Gold.PLP.PLP>
-47.2171

> <Gold.PLP.part.hbond>
-1.8161

> <Gold.PLP.part.metal>
0.0000

> <Gold.PLP.part.buried>
-3.5016

> <Gold.PLP.part.nonpolar>
-42.0009

> <Gold.PLP.part.repulsive>
1.3157

> <Gold.PLP.ligand.clash>
0.0000

> <Gold.PLP.ligand.torsion>
1.7158

> <Gold.PLP.Chemscore.Hbond>
1.0000

> <Gold.PLP.Chemscore.CHOScore>
0.0000

> <Gold.PLP.Chemscore.Metal>
0.0000

> <Gold.Chemscore.Hbonds>
donor molecule, donor type, donor heavy atom, donor atom, acceptor molecule, acceptor atom, score
      P1  H 10752 10764       L1     5  0.86

> <Gold.PLP.Chemscore.Internal.Correction>
2.2229

> <Gold.Rescore>
     Score         DG    S(hbond)    S(metal)    S(lipo)     H(rot)  DE(clash)    DE(int)     intcor
     14.71     -18.03       1.00        0.00     115.07       1.66       0.34       2.98       ----

> <Gold.Chemscore.Fitness>
14.7079

> <Gold.Chemscore.DG>
-18.0325

> <Gold.Chemscore.ZeroCoef>
-5.4800

> <Gold.Chemscore.Hbond>
0.9967

> <Gold.Chemscore.Metal>
0.0000

> <Gold.Chemscore.Lipo>
115.0747

> <Gold.Chemscore.Internal_Hbond>
0.0000

> <Gold.Chemscore.DEClash>
0.3435

> <Gold.Chemscore.DEInternal>
2.9811

> <Gold.Chemscore.Rot>
1.6563

> <Gold.Chemscore.Internal.Correction>
   9.000000E+99

> <Gold.Chemscore.Hbonds>
donor molecule, donor type, donor heavy atom, donor atom, acceptor molecule, acceptor atom, score
      P1  H 10752 10764       L1     5  0.78

> <Gold.Chemscore.Hbond.Weighted>
-3.3288

> <Gold.Chemscore.Metal.Weighted>
-0.0000

> <Gold.Chemscore.Lipo.Weighted>
-13.4637

> <Gold.Chemscore.Internal_Hbond.Weighted>
0.0000

> <Gold.Chemscore.DEClash.Weighted>
0.3435

> <Gold.Chemscore.DEInternal.Weighted>
2.9811

> <Gold.Chemscore.Rot.Weighted>
4.2401

> <Gold.Chemscore.Internal.Correction.Weighted>
   9.000000E+99

> <Gold.Protein.RotatedTorsions>
[ 6907 6896 6895 6894 ] final  139.05 input  -60.11 | X-H torsion
[ 7974 7965 7964 7962 ] final   80.22 input  175.53 | X-H torsion
[ 8008 7997 7996 7995 ] final   71.52 input   59.86 | X-H torsion
[ 10167 10162 10161 10158 ] final   64.98 input  -65.29 | X-H torsion
[ 10718 10713 10712 10709 ] final   -4.47 input   66.30 | X-H torsion
[ 10763 10752 10751 10750 ] final  -55.29 input  -60.55 | X-H torsion
[ 11005 11000 10999 10996 ] final -105.25 input  -57.11 | X-H torsion

> <Gold.Protein.ActiveResidues>
 VAL166  LYS551  ARG553  GLY616  TRP617  ASP618  TYR619  PRO620  LYS621  CYS622 
 ASP623  PHE694  ASN695  SER759  ASP760  ASP761  ALA762  ILE779  LEU786  VAL792 
 PHE793  MET794  SER795  GLU796  ALA797  LYS798  CYS799  TRP800  GLU811  SER814 

> <Gold.Protein.RotatedAtoms>
  152.2594  133.5284  159.5372 H   0  0  0  0  0  0  0  0  0  0  0  0  # atno 6907 bound_to 6896
  150.7120  134.0850  159.3920 H   0  0  0  0  0  0  0  0  0  0  0  0  # atno 6908 bound_to 6896
  151.8768  135.0468  160.0535 H   0  0  0  0  0  0  0  0  0  0  0  0  # atno 6909 bound_to 6896
  145.6541  139.2455  143.1960 H   0  0  0  0  0  0  0  0  0  0  0  0  # atno 7974 bound_to 7965
  155.7551  140.3488  155.5170 H   0  0  0  0  0  0  0  0  0  0  0  0  # atno 8008 bound_to 7997
  155.8967  140.1027  157.1400 H   0  0  0  0  0  0  0  0  0  0  0  0  # atno 8009 bound_to 7997
  154.4039  140.1294  156.4371 H   0  0  0  0  0  0  0  0  0  0  0  0  # atno 8010 bound_to 7997
  140.1163  144.4772  150.6947 H   0  0  0  0  0  0  0  0  0  0  0  0  # atno 10167 bound_to 10162
  156.7608  130.5269  149.5785 H   0  0  0  0  0  0  0  0  0  0  0  0  # atno 10718 bound_to 10713
  154.1885  135.6431  153.5053 H   0  0  0  0  0  0  0  0  0  0  0  0  # atno 10763 bound_to 10752
  153.0041  135.5423  154.6440 H   0  0  0  0  0  0  0  0  0  0  0  0  # atno 10764 bound_to 10752
  154.5823  135.2926  155.0693 H   0  0  0  0  0  0  0  0  0  0  0  0  # atno 10765 bound_to 10752
  141.1062  133.8792  157.1711 H   0  0  0  0  0  0  0  0  0  0  0  0  # atno 11005 bound_to 11000
  146.1180  140.7345  142.9471 LP  0  0  0  0  0  0  0  0  0  0  0  0  # atno 17320 bound_to 7965
  144.7112  140.4045  143.7079 LP  0  0  0  0  0  0  0  0  0  0  0  0  # atno 17321 bound_to 7965
  140.6897  143.2369  151.5163 LP  0  0  0  0  0  0  0  0  0  0  0  0  # atno 17342 bound_to 10162
  139.5592  144.2198  152.1664 LP  0  0  0  0  0  0  0  0  0  0  0  0  # atno 17343 bound_to 10162
  156.1340  130.6198  151.0374 LP  0  0  0  0  0  0  0  0  0  0  0  0  # atno 17370 bound_to 10713
  157.6735  131.0856  150.7552 LP  0  0  0  0  0  0  0  0  0  0  0  0  # atno 17371 bound_to 10713
  139.9934  135.0056  157.0026 LP  0  0  0  0  0  0  0  0  0  0  0  0  # atno 17394 bound_to 11000
  140.4895  134.1207  155.7230 LP  0  0  0  0  0  0  0  0  0  0  0  0  # atno 17395 bound_to 11000

$$$$
