AV-unprocessed.smi:1749|AV-procd|sdf|7045|dock5
  -GOLD-   22720 8263D 1   1.00000     0.00000
 Structure written by MMmdl.
 32 33  0  0  0  0  0  0  0  0  1 V2000
  152.1998  145.7960  160.3412 C   0  0  0  0  0  0  0  0  0  0  0  0
  152.3540  144.4740  159.5756 C   0  0  1  0  0  0  0  0  0  0  0  0
  152.3001  143.2632  160.5269 C   0  0  0  0  0  0  0  0  0  0  0  0
  152.4507  141.9386  159.7628 C   0  0  0  0  0  0  0  0  0  0  0  0
  151.3905  141.8092  158.6583 C   0  0  0  0  0  0  0  0  0  0  0  0
  151.4334  143.0109  157.6970 C   0  0  1  0  0  0  0  0  0  0  0  0
  150.3560  142.8954  156.7187 N   0  0  0  0  0  0  0  0  0  0  0  0
  149.9541  141.7702  156.1043 C   0  0  0  0  0  0  0  0  0  0  0  0
  150.4608  140.6714  156.3240 O   0  0  0  0  0  0  0  0  0  0  0  0
  148.9447  141.9001  155.2165 N   0  0  0  0  0  0  0  0  0  0  0  0
  148.2718  140.9486  154.3945 C   0  0  0  0  0  0  0  0  0  0  0  0
  148.6650  139.6761  154.2188 N   0  0  0  0  0  0  0  0  0  0  0  0
  147.8151  138.9774  153.3721 N   0  0  0  0  0  0  0  0  0  0  0  0
  146.8108  139.7464  152.9431 C   0  0  0  0  0  0  0  0  0  0  0  0
  146.8068  141.3995  153.5318 S   0  0  0  0  0  0  0  0  0  0  0  0
  151.2914  144.3376  158.4675 C   0  0  0  0  0  0  0  0  0  0  0  0
  151.2350  145.8512  160.8461 H   0  0  0  0  0  0  0  0  0  0  0  0
  152.2725  146.6507  159.6681 H   0  0  0  0  0  0  0  0  0  0  0  0
  152.9781  145.9051  161.0969 H   0  0  0  0  0  0  0  0  0  0  0  0
  153.3355  144.4835  159.0993 H   0  0  0  0  0  0  0  0  0  0  0  0
  153.0871  143.3428  161.2778 H   0  0  0  0  0  0  0  0  0  0  0  0
  151.3543  143.2624  161.0706 H   0  0  0  0  0  0  0  0  0  0  0  0
  153.4470  141.8814  159.3226 H   0  0  0  0  0  0  0  0  0  0  0  0
  152.3698  141.0997  160.4545 H   0  0  0  0  0  0  0  0  0  0  0  0
  151.5463  140.8817  158.1056 H   0  0  0  0  0  0  0  0  0  0  0  0
  150.4025  141.7350  159.1150 H   0  0  0  0  0  0  0  0  0  0  0  0
  152.4034  143.0092  157.1967 H   0  0  0  0  0  0  0  0  0  0  0  0
  149.8782  143.7518  156.4758 H   0  0  0  0  0  0  0  0  0  0  0  0
  148.5842  142.8398  155.1381 H   0  0  0  0  0  0  0  0  0  0  0  0
  146.0670  139.3373  152.2754 H   0  0  0  0  0  0  0  0  0  0  0  0
  150.2952  144.4011  158.9084 H   0  0  0  0  0  0  0  0  0  0  0  0
  151.3738  145.1749  157.7730 H   0  0  0  0  0  0  0  0  0  0  0  0
  1  2  1  0  0  0  0
  1 17  1  0  0  0  0
  1 18  1  0  0  0  0
  1 19  1  0  0  0  0
  2 16  1  0  0  0  0
  2  3  1  0  0  0  0
  2 20  1  0  0  0  0
  3  4  1  0  0  0  0
  3 21  1  0  0  0  0
  3 22  1  0  0  0  0
  4  5  1  0  0  0  0
  4 23  1  0  0  0  0
  4 24  1  0  0  0  0
  5  6  1  0  0  0  0
  5 25  1  0  0  0  0
  5 26  1  0  0  0  0
  6  7  1  0  0  0  0
  6 16  1  0  0  0  0
  6 27  1  0  0  0  0
  7  8  1  0  0  0  0
  7 28  1  0  0  0  0
  8  9  2  0  0  0  0
  8 10  1  0  0  0  0
 10 11  1  0  0  0  0
 10 29  1  0  0  0  0
 11 15  1  0  0  0  0
 11 12  2  0  0  0  0
 12 13  1  0  0  0  0
 13 14  2  0  0  0  0
 14 15  1  0  0  0  0
 14 30  1  0  0  0  0
 16 31  1  0  0  0  0
 16 32  1  0  0  0  0
M  END
> <s_m_source_file>
AV-unprocessed.smi

> <i_m_source_file_index>
1749

> <i_lp_mmshare_version>
43012

> <i_f3d_flags>
0

> <s_epik_input>
W0NIM11bQ0BASF0xW0NIMl1bQ0gyXVtDSDJdW0NASF0oW0NIMl0xKVtOSF1DKD1PKVtOSF1jMm5uW2NIXXMy

> <s_epik_cmdline>
J2VwaWtfcHl0aG9uJywgJy1waCcsICc3LjAnLCAnLXRuJywgJzgnLCAnLW1hJywgJzIwMCcsICctbWV0YWxfYmluZGluZycsICctaW1hZScsICc8aW5maWxlLm1hZT4nLCAnLW9tYWUnLCAnPG91dGZpbGUubWFlPic=

> <r_lp_tautomer_probability>
1

> <r_epik_Ionization_Penalty>
0.000318591

> <r_epik_Ionization_Penalty_Charging>
0

> <r_epik_Ionization_Penalty_Neutral>
0.000318591

> <r_epik_State_Penalty>
-0

> <r_epik_Charging_Adjusted_Penalty>
0

> <i_epik_Tot_Q>
0

> <i_epik_Tot_abs_Q>
0

> <r_epik_Metal_State_Penalty>
0.169791

> <b_epik_Metal_Only>
0

> <s_lp_Force_Field>
OPLS_2005

> <r_lp_Energy>
11.6735

> <b_lp_Chiralities_Consistent>
1

> <s_lp_Variant>
AV-unprocessed.smi:1749-2

> <Gold.Version>
5.8.1

> <Gold.Id.Protein>
6NUR|6NUR_protein|mol2

> <Gold.PLP.Fitness>
40.5017

> <Gold.PLP.PLP>
-33.9020

> <Gold.PLP.part.hbond>
-2.0000

> <Gold.PLP.part.metal>
0.0000

> <Gold.PLP.part.buried>
-5.8592

> <Gold.PLP.part.nonpolar>
-27.6413

> <Gold.PLP.part.repulsive>
1.3524

> <Gold.PLP.ligand.clash>
0.0000

> <Gold.PLP.ligand.torsion>
0.2750

> <Gold.PLP.Chemscore.Hbond>
1.9120

> <Gold.PLP.Chemscore.CHOScore>
0.4705

> <Gold.PLP.Chemscore.Metal>
0.0000

> <Gold.Chemscore.Hbonds>
donor molecule, donor type, donor heavy atom, donor atom, acceptor molecule, acceptor atom, score
      L1  H     7    28       P1  8028  1.00
      L1  H    10    29       P1  8028  0.91
      L1  C    14    30       P1 10175  0.50

> <Gold.PLP.Chemscore.Internal.Correction>
0.0021

> <Gold.Rescore>
     Score         DG    S(hbond)    S(metal)    S(lipo)     H(rot)  DE(clash)    DE(int)     intcor
     16.38     -19.76       1.84        0.00      91.27       1.00       0.49       2.89       ----

> <Gold.Chemscore.Fitness>
16.3752

> <Gold.Chemscore.DG>
-19.7598

> <Gold.Chemscore.ZeroCoef>
-5.4800

> <Gold.Chemscore.Hbond>
1.8447

> <Gold.Chemscore.Metal>
0.0000

> <Gold.Chemscore.Lipo>
91.2695

> <Gold.Chemscore.Internal_Hbond>
0.0000

> <Gold.Chemscore.DEClash>
0.4939

> <Gold.Chemscore.DEInternal>
2.8908

> <Gold.Chemscore.Rot>
1.0000

> <Gold.Chemscore.Internal.Correction>
   9.000000E+99

> <Gold.Chemscore.Hbonds>
donor molecule, donor type, donor heavy atom, donor atom, acceptor molecule, acceptor atom, score
      L1  H     7    28       P1  8028  0.98
      L1  H    10    29       P1  8028  0.87

> <Gold.Chemscore.Hbond.Weighted>
-6.1613

> <Gold.Chemscore.Metal.Weighted>
-0.0000

> <Gold.Chemscore.Lipo.Weighted>
-10.6785

> <Gold.Chemscore.Internal_Hbond.Weighted>
0.0000

> <Gold.Chemscore.DEClash.Weighted>
0.4939

> <Gold.Chemscore.DEInternal.Weighted>
2.8908

> <Gold.Chemscore.Rot.Weighted>
2.5600

> <Gold.Chemscore.Internal.Correction.Weighted>
   9.000000E+99

> <Gold.Protein.RotatedTorsions>
[ 6907 6896 6895 6894 ] final   17.16 input  -60.11 | X-H torsion
[ 7974 7965 7964 7962 ] final   77.88 input  175.53 | X-H torsion
[ 8008 7997 7996 7995 ] final  145.43 input   59.86 | X-H torsion
[ 10167 10162 10161 10158 ] final  168.92 input  -65.29 | X-H torsion
[ 10718 10713 10712 10709 ] final -129.58 input   66.30 | X-H torsion
[ 10763 10752 10751 10750 ] final -124.65 input  -60.55 | X-H torsion
[ 11005 11000 10999 10996 ] final  177.27 input  -57.11 | X-H torsion

> <Gold.Protein.ActiveResidues>
 VAL166  LYS551  ARG553  GLY616  TRP617  ASP618  TYR619  PRO620  LYS621  CYS622 
 ASP623  PHE694  ASN695  SER759  ASP760  ASP761  ALA762  ILE779  LEU786  VAL792 
 PHE793  MET794  SER795  GLU796  ALA797  LYS798  CYS799  TRP800  GLU811  SER814 

> <Gold.Protein.RotatedAtoms>
  151.8453  135.0576  160.0452 H   0  0  0  0  0  0  0  0  0  0  0  0  # atno 6907 bound_to 6896
  152.2778  133.5437  159.5487 H   0  0  0  0  0  0  0  0  0  0  0  0  # atno 6908 bound_to 6896
  150.7177  134.0524  159.3845 H   0  0  0  0  0  0  0  0  0  0  0  0  # atno 6909 bound_to 6896
  145.6843  139.2533  143.1796 H   0  0  0  0  0  0  0  0  0  0  0  0  # atno 7974 bound_to 7965
  156.2883  140.2209  156.5214 H   0  0  0  0  0  0  0  0  0  0  0  0  # atno 8008 bound_to 7997
  154.7525  140.0479  157.0927 H   0  0  0  0  0  0  0  0  0  0  0  0  # atno 8009 bound_to 7997
  155.0092  140.3111  155.4840 H   0  0  0  0  0  0  0  0  0  0  0  0  # atno 8010 bound_to 7997
  139.4979  144.3762  151.9671 H   0  0  0  0  0  0  0  0  0  0  0  0  # atno 10167 bound_to 10162
  156.2060  130.6888  151.0595 H   0  0  0  0  0  0  0  0  0  0  0  0  # atno 10718 bound_to 10713
  154.8726  135.4056  154.3140 H   0  0  0  0  0  0  0  0  0  0  0  0  # atno 10763 bound_to 10752
  153.3979  135.7017  153.6452 H   0  0  0  0  0  0  0  0  0  0  0  0  # atno 10764 bound_to 10752
  153.5207  135.3688  155.2601 H   0  0  0  0  0  0  0  0  0  0  0  0  # atno 10765 bound_to 10752
  140.3823  134.6935  157.4458 H   0  0  0  0  0  0  0  0  0  0  0  0  # atno 11005 bound_to 11000
  146.0937  140.7626  142.9583 LP  0  0  0  0  0  0  0  0  0  0  0  0  # atno 17320 bound_to 7965
  144.7016  140.3677  143.7151 LP  0  0  0  0  0  0  0  0  0  0  0  0  # atno 17321 bound_to 7965
  140.3198  144.3440  150.6012 LP  0  0  0  0  0  0  0  0  0  0  0  0  # atno 17342 bound_to 10162
  140.5731  143.2179  151.7563 LP  0  0  0  0  0  0  0  0  0  0  0  0  # atno 17343 bound_to 10162
  157.7012  131.0775  150.6812 LP  0  0  0  0  0  0  0  0  0  0  0  0  # atno 17370 bound_to 10713
  156.6871  130.4584  149.5610 LP  0  0  0  0  0  0  0  0  0  0  0  0  # atno 17371 bound_to 10713
  140.0469  134.6186  155.8910 LP  0  0  0  0  0  0  0  0  0  0  0  0  # atno 17394 bound_to 11000
  141.1919  133.6573  156.5478 LP  0  0  0  0  0  0  0  0  0  0  0  0  # atno 17395 bound_to 11000

$$$$
