AV-unprocessed.smi:1225|AV-procd|sdf|5139|dock2
  -GOLD-   22720 4203D 1   1.00000     0.00000
 Structure written by MMmdl.
 49 51  0  0  0  0  0  0  0  0  2 V2000
  146.4444  143.9729  160.4832 C   0  0  0  0  0  0  0  0  0  0  0  0
  146.1889  143.2414  159.2102 C   0  0  0  0  0  0  0  0  0  0  0  0
  144.9673  142.9940  158.7322 N   0  0  0  0  0  0  0  0  0  0  0  0
  144.9995  142.2927  157.5247 C   0  0  0  0  0  0  0  0  0  0  0  0
  146.2674  142.0088  157.0807 C   0  0  0  0  0  0  0  0  0  0  0  0
  146.6521  141.2753  155.8350 C   0  0  0  0  0  0  0  0  0  0  0  0
  147.2811  142.1212  154.8192 N   0  0  0  0  0  0  0  0  0  0  0  0
  146.2744  142.7421  153.9590 C   0  0  0  0  0  0  0  0  0  0  0  0
  148.2561  141.3471  154.0435 C   0  0  0  0  0  0  0  0  0  0  0  0
  149.4281  140.7121  154.8257 C   0  0  1  0  0  0  0  0  0  0  0  0
  150.2079  139.8865  153.9830 O   0  0  0  0  0  0  0  0  0  0  0  0
  150.3052  141.7260  155.5913 C   0  0  0  0  0  0  0  0  0  0  0  0
  151.0841  141.1027  156.6693 N   0  0  0  0  0  0  0  0  0  0  0  0
  151.6229  139.8560  156.7514 C   0  0  0  0  0  0  0  0  0  0  0  0
  152.2494  139.7591  157.9568 N   0  3  0  0  0  0  0  0  0  0  0  0
  152.1115  140.9628  158.6519 C   0  0  0  0  0  0  0  0  0  0  0  0
  152.5685  141.3487  159.9065 C   0  0  0  0  0  0  0  0  0  0  0  0
  152.2567  142.6602  160.3313 C   0  0  0  0  0  0  0  0  0  0  0  0
  152.7372  143.1123  161.6998 C   0  0  0  0  0  0  0  0  0  0  0  0
  151.5096  143.5380  159.5032 C   0  0  0  0  0  0  0  0  0  0  0  0
  151.1811  144.9463  159.9696 C   0  0  0  0  0  0  0  0  0  0  0  0
  151.0539  143.1264  158.2304 C   0  0  0  0  0  0  0  0  0  0  0  0
  151.3679  141.8306  157.8292 C   0  0  0  0  0  0  0  0  0  0  0  0
  147.4748  142.6130  158.1873 S   0  0  0  0  0  0  0  0  0  0  0  0
  145.5205  144.4022  160.8722 H   0  0  0  0  0  0  0  0  0  0  0  0
  147.1589  144.7785  160.3133 H   0  0  0  0  0  0  0  0  0  0  0  0
  146.8544  143.2910  161.2281 H   0  0  0  0  0  0  0  0  0  0  0  0
  144.0668  142.0366  157.0439 H   0  0  0  0  0  0  0  0  0  0  0  0
  147.3389  140.4770  156.1189 H   0  0  0  0  0  0  0  0  0  0  0  0
  145.7762  140.7802  155.4132 H   0  0  0  0  0  0  0  0  0  0  0  0
  146.7286  143.4400  153.2573 H   0  0  0  0  0  0  0  0  0  0  0  0
  145.5536  143.3153  154.5424 H   0  0  0  0  0  0  0  0  0  0  0  0
  145.7264  141.9913  153.3885 H   0  0  0  0  0  0  0  0  0  0  0  0
  147.7259  140.5171  153.5745 H   0  0  0  0  0  0  0  0  0  0  0  0
  148.6403  141.9462  153.2164 H   0  0  0  0  0  0  0  0  0  0  0  0
  148.9842  140.0310  155.5521 H   0  0  0  0  0  0  0  0  0  0  0  0
  149.7720  139.8153  153.1479 H   0  0  0  0  0  0  0  0  0  0  0  0
  151.0165  142.2063  154.9185 H   0  0  0  0  0  0  0  0  0  0  0  0
  149.6970  142.5237  156.0197 H   0  0  0  0  0  0  0  0  0  0  0  0
  151.5608  139.0828  155.9988 H   0  0  0  0  0  0  0  0  0  0  0  0
  153.1367  140.6751  160.5313 H   0  0  0  0  0  0  0  0  0  0  0  0
  151.8896  143.3594  162.3397 H   0  0  0  0  0  0  0  0  0  0  0  0
  153.3743  143.9929  161.6123 H   0  0  0  0  0  0  0  0  0  0  0  0
  153.3145  142.3324  162.1978 H   0  0  0  0  0  0  0  0  0  0  0  0
  150.5897  145.4846  159.2283 H   0  0  0  0  0  0  0  0  0  0  0  0
  152.0951  145.5150  160.1428 H   0  0  0  0  0  0  0  0  0  0  0  0
  150.6078  144.9195  160.8964 H   0  0  0  0  0  0  0  0  0  0  0  0
  150.4846  143.7932  157.5998 H   0  0  0  0  0  0  0  0  0  0  0  0
  152.7352  138.9316  158.2781 H   0  0  0  0  0  0  0  0  0  0  0  0
  1  2  1  0  0  0  0
  1 25  1  0  0  0  0
  1 26  1  0  0  0  0
  1 27  1  0  0  0  0
  2 24  1  0  0  0  0
  2  3  2  0  0  0  0
  3  4  1  0  0  0  0
  4  5  2  0  0  0  0
  4 28  1  0  0  0  0
  5  6  1  0  0  0  0
  5 24  1  0  0  0  0
  6  7  1  0  0  0  0
  6 29  1  0  0  0  0
  6 30  1  0  0  0  0
  7  8  1  0  0  0  0
  7  9  1  0  0  0  0
  8 31  1  0  0  0  0
  8 32  1  0  0  0  0
  8 33  1  0  0  0  0
  9 10  1  0  0  0  0
  9 34  1  0  0  0  0
  9 35  1  0  0  0  0
 10 11  1  0  0  0  0
 10 12  1  0  0  0  0
 10 36  1  0  0  0  0
 11 37  1  0  0  0  0
 12 13  1  0  0  0  0
 12 38  1  0  0  0  0
 12 39  1  0  0  0  0
 13 23  1  0  0  0  0
 13 14  1  0  0  0  0
 14 15  2  0  0  0  0
 14 40  1  0  0  0  0
 15 16  1  0  0  0  0
 15 49  1  0  0  0  0
 16 23  2  0  0  0  0
 16 17  1  0  0  0  0
 17 18  2  0  0  0  0
 17 41  1  0  0  0  0
 18 19  1  0  0  0  0
 18 20  1  0  0  0  0
 19 42  1  0  0  0  0
 19 43  1  0  0  0  0
 19 44  1  0  0  0  0
 20 21  1  0  0  0  0
 20 22  2  0  0  0  0
 21 45  1  0  0  0  0
 21 46  1  0  0  0  0
 21 47  1  0  0  0  0
 22 23  1  0  0  0  0
 22 48  1  0  0  0  0
M  CHG  1  15   1
M  END
> <s_m_source_file>
AV-unprocessed.smi

> <i_m_source_file_index>
1225

> <i_lp_mmshare_version>
43012

> <i_f3d_flags>
0

> <s_epik_input>
W0NIM11jMW5bY0hdYyhzMSlbQ0gyXU4oW0NIM10pW0NIMl1bQ0BIXShbT0hdKVtDSDJdbihbY0hdbjIpYyhjMjMpW2NIXWMoW0NIM10pYyhbY0hdMylbQ0gzXQ==

> <s_epik_cmdline>
J2VwaWtfcHl0aG9uJywgJy1waCcsICc3LjAnLCAnLXRuJywgJzgnLCAnLW1hJywgJzIwMCcsICctbWV0YWxfYmluZGluZycsICctaW1hZScsICc8aW5maWxlLm1hZT4nLCAnLW9tYWUnLCAnPG91dGZpbGUubWFlPic=

> <r_epik_Ionization_Penalty>
1.25968

> <r_epik_Ionization_Penalty_Charging>
1.21782

> <r_epik_Ionization_Penalty_Neutral>
0.0418565

> <r_epik_State_Penalty>
1.29962

> <r_epik_Charging_Adjusted_Penalty>
2.51745

> <i_epik_Tot_Q>
1

> <i_epik_Tot_abs_Q>
1

> <r_epik_Metal_State_Penalty>
1.36802

> <b_epik_Metal_Only>
0

> <s_lp_Force_Field>
OPLS_2005

> <r_lp_Energy>
27.2567

> <b_lp_Chiralities_Consistent>
1

> <s_lp_Variant>
AV-unprocessed.smi:1225-4

> <Gold.Version>
5.8.1

> <Gold.Id.Protein>
6NUR|6NUR_protein|mol2

> <Gold.PLP.Fitness>
54.1367

> <Gold.PLP.PLP>
-49.8965

> <Gold.PLP.part.hbond>
-2.0000

> <Gold.PLP.part.metal>
0.0000

> <Gold.PLP.part.buried>
-8.2413

> <Gold.PLP.part.nonpolar>
-39.9504

> <Gold.PLP.part.repulsive>
1.4373

> <Gold.PLP.ligand.clash>
0.0000

> <Gold.PLP.ligand.torsion>
0.9737

> <Gold.PLP.Chemscore.Hbond>
1.9760

> <Gold.PLP.Chemscore.CHOScore>
0.0000

> <Gold.PLP.Chemscore.Metal>
0.0000

> <Gold.Chemscore.Hbonds>
donor molecule, donor type, donor heavy atom, donor atom, acceptor molecule, acceptor atom, score
      L1  H    11    37       P1  7957  1.00
      P1  H  7989  7998       L1    11  0.94

> <Gold.PLP.Chemscore.Internal.Correction>
0.2595

> <Gold.Rescore>
     Score         DG    S(hbond)    S(metal)    S(lipo)     H(rot)  DE(clash)    DE(int)     intcor
     16.38     -17.29       1.10        0.00     121.30       2.36       0.11       0.80       ----

> <Gold.Chemscore.Fitness>
16.3778

> <Gold.Chemscore.DG>
-17.2891

> <Gold.Chemscore.ZeroCoef>
-5.4800

> <Gold.Chemscore.Hbond>
1.0993

> <Gold.Chemscore.Metal>
0.0000

> <Gold.Chemscore.Lipo>
121.2954

> <Gold.Chemscore.Internal_Hbond>
0.0000

> <Gold.Chemscore.DEClash>
0.1115

> <Gold.Chemscore.DEInternal>
0.7998

> <Gold.Chemscore.Rot>
2.3649

> <Gold.Chemscore.Internal.Correction>
   9.000000E+99

> <Gold.Chemscore.Hbonds>
donor molecule, donor type, donor heavy atom, donor atom, acceptor molecule, acceptor atom, score
      L1  H    11    37       P1  7957  0.94
      P1  H  7989  7998       L1    11  0.12

> <Gold.Chemscore.Hbond.Weighted>
-3.6716

> <Gold.Chemscore.Metal.Weighted>
-0.0000

> <Gold.Chemscore.Lipo.Weighted>
-14.1916

> <Gold.Chemscore.Internal_Hbond.Weighted>
0.0000

> <Gold.Chemscore.DEClash.Weighted>
0.1115

> <Gold.Chemscore.DEInternal.Weighted>
0.7998

> <Gold.Chemscore.Rot.Weighted>
6.0540

> <Gold.Chemscore.Internal.Correction.Weighted>
   9.000000E+99

> <Gold.Protein.RotatedTorsions>
[ 6907 6896 6895 6894 ] final  137.94 input  -60.11 | X-H torsion
[ 7974 7965 7964 7962 ] final  -95.45 input  175.53 | X-H torsion
[ 8008 7997 7996 7995 ] final   63.96 input   59.86 | X-H torsion
[ 10167 10162 10161 10158 ] final   21.28 input  -65.29 | X-H torsion
[ 10718 10713 10712 10709 ] final   48.13 input   66.30 | X-H torsion
[ 10763 10752 10751 10750 ] final  141.94 input  -60.55 | X-H torsion
[ 11005 11000 10999 10996 ] final  -94.25 input  -57.11 | X-H torsion

> <Gold.Protein.ActiveResidues>
 VAL166  LYS551  ARG553  GLY616  TRP617  ASP618  TYR619  PRO620  LYS621  CYS622 
 ASP623  PHE694  ASN695  SER759  ASP760  ASP761  ALA762  ILE779  LEU786  VAL792 
 PHE793  MET794  SER795  GLU796  ALA797  LYS798  CYS799  TRP800  GLU811  SER814 

> <Gold.Protein.RotatedAtoms>
  152.2723  133.5394  159.5446 H   0  0  0  0  0  0  0  0  0  0  0  0  # atno 6907 bound_to 6896
  150.7164  134.0680  159.3863 H   0  0  0  0  0  0  0  0  0  0  0  0  # atno 6908 bound_to 6896
  151.8594  135.0529  160.0518 H   0  0  0  0  0  0  0  0  0  0  0  0  # atno 6909 bound_to 6896
  145.3599  140.9490  143.2506 H   0  0  0  0  0  0  0  0  0  0  0  0  # atno 7974 bound_to 7965
  155.6384  140.3496  155.4706 H   0  0  0  0  0  0  0  0  0  0  0  0  # atno 8008 bound_to 7997
  155.9946  140.1200  157.0629 H   0  0  0  0  0  0  0  0  0  0  0  0  # atno 8009 bound_to 7997
  154.4229  140.1112  156.5598 H   0  0  0  0  0  0  0  0  0  0  0  0  # atno 8010 bound_to 7997
  140.5439  143.9629  150.6536 H   0  0  0  0  0  0  0  0  0  0  0  0  # atno 10167 bound_to 10162
  157.4655  130.8223  149.7931 H   0  0  0  0  0  0  0  0  0  0  0  0  # atno 10718 bound_to 10713
  153.9476  135.2973  155.3440 H   0  0  0  0  0  0  0  0  0  0  0  0  # atno 10763 bound_to 10752
  154.7443  135.5010  153.9180 H   0  0  0  0  0  0  0  0  0  0  0  0  # atno 10764 bound_to 10752
  153.1010  135.6734  153.9780 H   0  0  0  0  0  0  0  0  0  0  0  0  # atno 10765 bound_to 10752
  141.1475  133.7943  157.0272 H   0  0  0  0  0  0  0  0  0  0  0  0  # atno 11005 bound_to 11000
  144.8654  139.5116  143.6793 LP  0  0  0  0  0  0  0  0  0  0  0  0  # atno 17320 bound_to 7965
  146.2932  139.7199  142.9146 LP  0  0  0  0  0  0  0  0  0  0  0  0  # atno 17321 bound_to 7965
  140.3037  143.3244  152.0947 LP  0  0  0  0  0  0  0  0  0  0  0  0  # atno 17342 bound_to 10162
  139.4999  144.6681  151.6309 LP  0  0  0  0  0  0  0  0  0  0  0  0  # atno 17343 bound_to 10162
  156.0048  130.3861  150.2470 LP  0  0  0  0  0  0  0  0  0  0  0  0  # atno 17370 bound_to 10713
  157.0650  131.0101  151.3209 LP  0  0  0  0  0  0  0  0  0  0  0  0  # atno 17371 bound_to 10713
  140.0777  134.9666  157.1573 LP  0  0  0  0  0  0  0  0  0  0  0  0  # atno 17394 bound_to 11000
  140.3620  134.2483  155.7186 LP  0  0  0  0  0  0  0  0  0  0  0  0  # atno 17395 bound_to 11000

$$$$
