AV-unprocessed.smi:155|AV-procd|sdf|1269|dock3
  -GOLD-   2262018523D 1   1.00000     0.00000
 Structure written by MMmdl.
 63 66  0  0  0  0  0  0  0  0  2 V2000
  153.0407  143.7906  158.7273 C   0  0  0  0  0  0  0  0  0  0  0  0
  152.4765  142.6302  159.4083 N   0  0  0  0  0  0  0  0  0  0  0  0
  153.4701  142.1237  160.3455 C   0  0  0  0  0  0  0  0  0  0  0  0
  152.1228  141.5716  158.4635 C   0  0  0  0  0  0  0  0  0  0  0  0
  151.2575  142.0646  157.2774 C   0  0  0  0  0  0  0  0  0  0  0  0
  150.8682  141.0116  156.3012 N   0  3  2  0  0  0  0  0  0  0  0  0
  152.0038  140.1812  155.8118 C   0  0  0  0  0  0  0  0  0  0  0  0
  151.5965  139.0962  154.7922 C   0  0  0  0  0  0  0  0  0  0  0  0
  150.3748  138.2501  155.2027 C   0  0  0  0  0  0  0  0  0  0  0  0
  149.1751  139.0574  155.4379 N   0  0  0  0  0  0  0  0  0  0  0  0
  148.2591  138.6324  156.3463 C   0  0  0  0  0  0  0  0  0  0  0  0
  147.1666  139.4092  156.5686 N   0  0  0  0  0  0  0  0  0  0  0  0
  146.2416  139.0395  157.4591 C   0  0  0  0  0  0  0  0  0  0  0  0
  146.2077  137.9446  158.2198 N   0  0  0  0  0  0  0  0  0  0  0  0
  147.2922  137.1507  157.9918 C   0  0  0  0  0  0  0  0  0  0  0  0
  148.3555  137.4136  157.0810 C   0  0  0  0  0  0  0  0  0  0  0  0
  149.2668  136.3628  157.1124 N   0  0  0  0  0  0  0  0  0  0  0  0
  148.7826  135.5404  158.0024 C   0  0  0  0  0  0  0  0  0  0  0  0
  147.6000  135.9373  158.5806 N   0  0  0  0  0  0  0  0  0  0  0  0
  146.8498  135.2193  159.5959 C   0  0  0  0  0  0  0  0  0  0  0  0
  147.1034  135.7714  161.0124 C   0  0  1  0  0  0  0  0  0  0  0  0
  146.8488  137.1633  161.0258 O   0  0  0  0  0  0  0  0  0  0  0  0
  146.2161  135.0899  162.0700 C   0  0  2  0  0  0  0  0  0  0  0  0
  146.1114  133.5691  161.9287 C   0  0  0  0  0  0  0  0  0  0  0  0
  144.7523  133.2363  162.5266 C   0  0  0  0  0  0  0  0  0  0  0  0
  144.0708  134.5970  162.6865 C   0  0  0  0  0  0  0  0  0  0  0  0
  144.8633  135.4915  161.9199 O   0  0  0  0  0  0  0  0  0  0  0  0
  148.9894  140.3303  154.7378 C   0  0  0  0  0  0  0  0  0  0  0  0
  149.9134  141.4631  155.2519 C   0  0  0  0  0  0  0  0  0  0  0  0
  152.3226  144.2471  158.0476 H   0  0  0  0  0  0  0  0  0  0  0  0
  153.9305  143.5231  158.1551 H   0  0  0  0  0  0  0  0  0  0  0  0
  153.3239  144.5543  159.4525 H   0  0  0  0  0  0  0  0  0  0  0  0
  153.0742  141.2746  160.9038 H   0  0  0  0  0  0  0  0  0  0  0  0
  153.7429  142.8928  161.0690 H   0  0  0  0  0  0  0  0  0  0  0  0
  154.3767  141.8019  159.8305 H   0  0  0  0  0  0  0  0  0  0  0  0
  153.0428  141.1266  158.0806 H   0  0  0  0  0  0  0  0  0  0  0  0
  151.6045  140.7667  158.9847 H   0  0  0  0  0  0  0  0  0  0  0  0
  150.3711  142.6036  157.6096 H   0  0  0  0  0  0  0  0  0  0  0  0
  151.8406  142.8005  156.7225 H   0  0  0  0  0  0  0  0  0  0  0  0
  152.7592  140.8127  155.3475 H   0  0  0  0  0  0  0  0  0  0  0  0
  152.4767  139.7089  156.6737 H   0  0  0  0  0  0  0  0  0  0  0  0
  151.4183  139.5550  153.8193 H   0  0  0  0  0  0  0  0  0  0  0  0
  152.4464  138.4315  154.6350 H   0  0  0  0  0  0  0  0  0  0  0  0
  150.1555  137.5158  154.4270 H   0  0  0  0  0  0  0  0  0  0  0  0
  150.6261  137.6906  156.1051 H   0  0  0  0  0  0  0  0  0  0  0  0
  145.4102  139.7188  157.5797 H   0  0  0  0  0  0  0  0  0  0  0  0
  149.2774  134.6163  158.2646 H   0  0  0  0  0  0  0  0  0  0  0  0
  145.7883  135.2673  159.3496 H   0  0  0  0  0  0  0  0  0  0  0  0
  147.1328  134.1674  159.5443 H   0  0  0  0  0  0  0  0  0  0  0  0
  148.1521  135.6227  161.2734 H   0  0  0  0  0  0  0  0  0  0  0  0
  145.9134  137.2972  161.0453 H   0  0  0  0  0  0  0  0  0  0  0  0
  146.5504  135.3491  163.0766 H   0  0  0  0  0  0  0  0  0  0  0  0
  146.1246  133.2834  160.8761 H   0  0  0  0  0  0  0  0  0  0  0  0
  146.9300  133.0483  162.4260 H   0  0  0  0  0  0  0  0  0  0  0  0
  144.1888  132.5846  161.8583 H   0  0  0  0  0  0  0  0  0  0  0  0
  144.8444  132.7320  163.4890 H   0  0  0  0  0  0  0  0  0  0  0  0
  143.0356  134.5921  162.3450 H   0  0  0  0  0  0  0  0  0  0  0  0
  144.0838  134.9125  163.7307 H   0  0  0  0  0  0  0  0  0  0  0  0
  149.1878  140.1585  153.6795 H   0  0  0  0  0  0  0  0  0  0  0  0
  147.9459  140.6442  154.7754 H   0  0  0  0  0  0  0  0  0  0  0  0
  149.2774  142.2464  155.6659 H   0  0  0  0  0  0  0  0  0  0  0  0
  150.4547  141.9207  154.4231 H   0  0  0  0  0  0  0  0  0  0  0  0
  150.3197  140.3689  156.8548 H   0  0  0  0  0  0  0  0  0  0  0  0
  1  2  1  0  0  0  0
  1 30  1  0  0  0  0
  1 31  1  0  0  0  0
  1 32  1  0  0  0  0
  2  3  1  0  0  0  0
  2  4  1  0  0  0  0
  3 33  1  0  0  0  0
  3 34  1  0  0  0  0
  3 35  1  0  0  0  0
  4  5  1  0  0  0  0
  4 36  1  0  0  0  0
  4 37  1  0  0  0  0
  5  6  1  0  0  0  0
  5 38  1  0  0  0  0
  5 39  1  0  0  0  0
  6 29  1  0  0  0  0
  6  7  1  0  0  0  0
  6 63  1  0  0  0  0
  7  8  1  0  0  0  0
  7 40  1  0  0  0  0
  7 41  1  0  0  0  0
  8  9  1  0  0  0  0
  8 42  1  0  0  0  0
  8 43  1  0  0  0  0
  9 10  1  0  0  0  0
  9 44  1  0  0  0  0
  9 45  1  0  0  0  0
 10 11  1  0  0  0  0
 10 28  1  0  0  0  0
 11 16  1  0  0  0  0
 11 12  2  0  0  0  0
 12 13  1  0  0  0  0
 13 14  2  0  0  0  0
 13 46  1  0  0  0  0
 14 15  1  0  0  0  0
 15 19  1  0  0  0  0
 15 16  2  0  0  0  0
 16 17  1  0  0  0  0
 17 18  2  0  0  0  0
 18 19  1  0  0  0  0
 18 47  1  0  0  0  0
 19 20  1  0  0  0  0
 20 21  1  0  0  0  0
 20 48  1  0  0  0  0
 20 49  1  0  0  0  0
 21 22  1  0  0  0  0
 21 23  1  0  0  0  0
 21 50  1  0  0  0  0
 22 51  1  0  0  0  0
 23 27  1  0  0  0  0
 23 24  1  0  0  0  0
 23 52  1  0  0  0  0
 24 25  1  0  0  0  0
 24 53  1  0  0  0  0
 24 54  1  0  0  0  0
 25 26  1  0  0  0  0
 25 55  1  0  0  0  0
 25 56  1  0  0  0  0
 26 27  1  0  0  0  0
 26 57  1  0  0  0  0
 26 58  1  0  0  0  0
 28 29  1  0  0  0  0
 28 59  1  0  0  0  0
 28 60  1  0  0  0  0
 29 61  1  0  0  0  0
 29 62  1  0  0  0  0
M  CHG  1   6   1
M  END
> <s_m_source_file>
AV-unprocessed.smi

> <i_m_source_file_index>
155

> <i_lp_mmshare_version>
43012

> <i_f3d_flags>
0

> <s_epik_input>
W0NIM11OKFtDSDNdKVtDSDJdW0NIMl1OMVtDSDJdW0NIMl1bQ0gyXU4oW0NIMl1bQ0gyXTEpYyhuW2NIXW4yKWMoYzIzKW5bY0hdbjNbQ0gyXVtDQEhdKFtPSF0pW0NAQEhdNFtDSDJdW0NIMl1bQ0gyXU80

> <s_epik_cmdline>
J2VwaWtfcHl0aG9uJywgJy1waCcsICc3LjAnLCAnLXRuJywgJzgnLCAnLW1hJywgJzIwMCcsICctbWV0YWxfYmluZGluZycsICctaW1hZScsICc8aW5maWxlLm1hZT4nLCAnLW9tYWUnLCAnPG91dGZpbGUubWFlPic=

> <r_epik_Ionization_Penalty>
0.0619615

> <r_epik_Ionization_Penalty_Charging>
0.0161638

> <r_epik_Ionization_Penalty_Neutral>
0.0457976

> <r_epik_State_Penalty>
0.403408

> <r_epik_Charging_Adjusted_Penalty>
0.419572

> <i_epik_Tot_Q>
1

> <i_epik_Tot_abs_Q>
1

> <r_epik_Metal_State_Penalty>
0.404222

> <b_epik_Metal_Only>
0

> <s_lp_Force_Field>
OPLS_2005

> <r_lp_Energy>
55.2712

> <b_lp_Chiralities_Consistent>
1

> <s_lp_Variant>
AV-unprocessed.smi:155-3

> <Gold.Version>
5.8.1

> <Gold.Id.Protein>
6NUR|6NUR_protein|mol2

> <Gold.PLP.Fitness>
46.2166

> <Gold.PLP.PLP>
-44.0510

> <Gold.PLP.part.hbond>
-1.4214

> <Gold.PLP.part.metal>
0.0000

> <Gold.PLP.part.buried>
-3.7937

> <Gold.PLP.part.nonpolar>
-39.6587

> <Gold.PLP.part.repulsive>
0.1057

> <Gold.PLP.ligand.clash>
0.0000

> <Gold.PLP.ligand.torsion>
0.5604

> <Gold.PLP.Chemscore.Hbond>
1.0000

> <Gold.PLP.Chemscore.CHOScore>
0.0000

> <Gold.PLP.Chemscore.Metal>
0.0000

> <Gold.Chemscore.Hbonds>
donor molecule, donor type, donor heavy atom, donor atom, acceptor molecule, acceptor atom, score
      P1  H  6934  6947       L1    22  0.60

> <Gold.PLP.Chemscore.Internal.Correction>
0.2863

> <Gold.Rescore>
     Score         DG    S(hbond)    S(metal)    S(lipo)     H(rot)  DE(clash)    DE(int)     intcor
     13.13     -15.69       0.98        0.00     116.93       2.63       0.16       2.40       ----

> <Gold.Chemscore.Fitness>
13.1269

> <Gold.Chemscore.DG>
-15.6854

> <Gold.Chemscore.ZeroCoef>
-5.4800

> <Gold.Chemscore.Hbond>
0.9769

> <Gold.Chemscore.Metal>
0.0000

> <Gold.Chemscore.Lipo>
116.9340

> <Gold.Chemscore.Internal_Hbond>
0.0000

> <Gold.Chemscore.DEClash>
0.1596

> <Gold.Chemscore.DEInternal>
2.3989

> <Gold.Chemscore.Rot>
2.6324

> <Gold.Chemscore.Internal.Correction>
   9.000000E+99

> <Gold.Chemscore.Hbonds>
donor molecule, donor type, donor heavy atom, donor atom, acceptor molecule, acceptor atom, score
      P1  H  6934  6947       L1    22  0.04

> <Gold.Chemscore.Hbond.Weighted>
-3.2630

> <Gold.Chemscore.Metal.Weighted>
-0.0000

> <Gold.Chemscore.Lipo.Weighted>
-13.6813

> <Gold.Chemscore.Internal_Hbond.Weighted>
0.0000

> <Gold.Chemscore.DEClash.Weighted>
0.1596

> <Gold.Chemscore.DEInternal.Weighted>
2.3989

> <Gold.Chemscore.Rot.Weighted>
6.7389

> <Gold.Chemscore.Internal.Correction.Weighted>
   9.000000E+99

> <Gold.Protein.RotatedTorsions>
[ 6907 6896 6895 6894 ] final  -59.79 input  -60.11 | X-H torsion
[ 7974 7965 7964 7962 ] final  -62.63 input  175.53 | X-H torsion
[ 8008 7997 7996 7995 ] final -174.41 input   59.86 | X-H torsion
[ 10167 10162 10161 10158 ] final -112.91 input  -65.29 | X-H torsion
[ 10718 10713 10712 10709 ] final -173.46 input   66.30 | X-H torsion
[ 10763 10752 10751 10750 ] final  160.01 input  -60.55 | X-H torsion
[ 11005 11000 10999 10996 ] final  -21.33 input  -57.11 | X-H torsion

> <Gold.Protein.ActiveResidues>
 VAL166  LYS551  ARG553  GLY616  TRP617  ASP618  TYR619  PRO620  LYS621  CYS622 
 ASP623  PHE694  ASN695  SER759  ASP760  ASP761  ALA762  ILE779  LEU786  VAL792 
 PHE793  MET794  SER795  GLU796  ALA797  LYS798  CYS799  TRP800  GLU811  SER814 

> <Gold.Protein.RotatedAtoms>
  150.7904  134.6923  159.6503 H   0  0  0  0  0  0  0  0  0  0  0  0  # atno 6907 bound_to 6896
  152.4009  134.6285  160.0079 H   0  0  0  0  0  0  0  0  0  0  0  0  # atno 6908 bound_to 6896
  151.6557  133.3282  159.3198 H   0  0  0  0  0  0  0  0  0  0  0  0  # atno 6909 bound_to 6896
  145.7889  140.8720  143.0291 H   0  0  0  0  0  0  0  0  0  0  0  0  # atno 7974 bound_to 7965
  155.9697  140.1160  157.0823 H   0  0  0  0  0  0  0  0  0  0  0  0  # atno 8008 bound_to 7997
  154.4153  140.1165  156.5357 H   0  0  0  0  0  0  0  0  0  0  0  0  # atno 8009 bound_to 7997
  155.6613  140.3473  155.4786 H   0  0  0  0  0  0  0  0  0  0  0  0  # atno 8010 bound_to 7997
  140.1175  143.4472  152.1712 H   0  0  0  0  0  0  0  0  0  0  0  0  # atno 10167 bound_to 10162
  156.7706  130.9447  151.3120 H   0  0  0  0  0  0  0  0  0  0  0  0  # atno 10718 bound_to 10713
  154.2408  135.2775  155.2855 H   0  0  0  0  0  0  0  0  0  0  0  0  # atno 10763 bound_to 10752
  154.5547  135.5665  153.6956 H   0  0  0  0  0  0  0  0  0  0  0  0  # atno 10764 bound_to 10752
  153.0000  135.6283  154.2552 H   0  0  0  0  0  0  0  0  0  0  0  0  # atno 10765 bound_to 10752
  140.8551  133.7828  156.0010 H   0  0  0  0  0  0  0  0  0  0  0  0  # atno 11005 bound_to 11000
  144.6785  140.0095  143.7484 LP  0  0  0  0  0  0  0  0  0  0  0  0  # atno 17320 bound_to 7965
  145.9997  139.3081  143.0935 LP  0  0  0  0  0  0  0  0  0  0  0  0  # atno 17321 bound_to 7965
  139.5586  144.7390  151.4221 LP  0  0  0  0  0  0  0  0  0  0  0  0  # atno 17342 bound_to 10162
  140.6891  143.7905  150.7228 LP  0  0  0  0  0  0  0  0  0  0  0  0  # atno 17343 bound_to 10162
  157.6693  130.9036  150.0002 LP  0  0  0  0  0  0  0  0  0  0  0  0  # atno 17370 bound_to 10713
  156.1280  130.3644  149.9777 LP  0  0  0  0  0  0  0  0  0  0  0  0  # atno 17371 bound_to 10713
  140.8746  134.2685  157.5174 LP  0  0  0  0  0  0  0  0  0  0  0  0  # atno 17394 bound_to 11000
  139.8705  134.9584  156.4301 LP  0  0  0  0  0  0  0  0  0  0  0  0  # atno 17395 bound_to 11000

$$$$
