AV-unprocessed.smi:2089|AV-procd|sdf|8528|dock10
  -GOLD-   2272011243D 1   1.00000     0.00000
 Structure written by MMmdl.
 39 40  0  0  0  0  0  0  0  0  1 V2000
  145.6553  138.6201  157.2201 C   0  0  0  0  0  0  0  0  0  0  0  0
  146.9363  139.7484  157.9033 S   0  0  0  0  0  0  0  0  0  0  0  0
  146.3092  140.5836  158.9391 O   0  0  0  0  0  0  0  0  0  0  0  0
  148.1450  138.9724  158.2200 O   0  0  0  0  0  0  0  0  0  0  0  0
  147.3029  140.7732  156.5574 N   0  0  0  0  0  0  0  0  0  0  0  0
  146.2688  141.6994  156.0739 C   0  0  0  0  0  0  0  0  0  0  0  0
  146.5878  141.9454  154.6010 C   0  0  0  0  0  0  0  0  0  0  0  0
  147.2487  140.6429  154.1721 C   0  0  0  0  0  0  0  0  0  0  0  0
  148.0379  140.2010  155.4171 C   0  0  1  0  0  0  0  0  0  0  0  0
  149.5149  140.6228  155.3956 C   0  0  0  0  0  0  0  0  0  0  0  0
  150.2761  140.2229  154.5137 O   0  0  0  0  0  0  0  0  0  0  0  0
  149.9057  141.4474  156.3775 N   0  0  0  0  0  0  0  0  0  0  0  0
  151.2547  141.9739  156.5257 C   0  0  0  0  0  0  0  0  0  0  0  0
  151.7905  141.6997  157.9375 C   0  0  0  0  0  0  0  0  0  0  0  0
  151.8421  142.9567  158.7854 C   0  0  0  0  0  0  0  0  0  0  0  0
  151.6662  144.2283  158.1992 C   0  0  0  0  0  0  0  0  0  0  0  0
  151.7107  145.3632  159.0321 C   0  0  0  0  0  0  0  0  0  0  0  0
  151.9276  145.1841  160.4120 C   0  0  0  0  0  0  0  0  0  0  0  0
  152.0904  143.8719  160.8996 C   0  0  0  0  0  0  0  0  0  0  0  0
  152.0489  142.7771  160.1098 N   0  0  0  0  0  0  0  0  0  0  0  0
  145.3104  137.9473  158.0049 H   0  0  0  0  0  0  0  0  0  0  0  0
  146.0783  138.0345  156.4044 H   0  0  0  0  0  0  0  0  0  0  0  0
  144.8143  139.2060  156.8499 H   0  0  0  0  0  0  0  0  0  0  0  0
  145.2880  141.2323  156.1697 H   0  0  0  0  0  0  0  0  0  0  0  0
  146.2674  142.6189  156.6593 H   0  0  0  0  0  0  0  0  0  0  0  0
  145.7032  142.1866  154.0112 H   0  0  0  0  0  0  0  0  0  0  0  0
  147.2930  142.7719  154.5048 H   0  0  0  0  0  0  0  0  0  0  0  0
  146.4842  139.8996  153.9419 H   0  0  0  0  0  0  0  0  0  0  0  0
  147.8603  140.7628  153.2768 H   0  0  0  0  0  0  0  0  0  0  0  0
  148.0026  139.1115  155.4730 H   0  0  0  0  0  0  0  0  0  0  0  0
  149.2170  141.7432  157.0548 H   0  0  0  0  0  0  0  0  0  0  0  0
  151.9083  141.5133  155.7831 H   0  0  0  0  0  0  0  0  0  0  0  0
  151.2450  143.0471  156.3280 H   0  0  0  0  0  0  0  0  0  0  0  0
  151.1640  140.9598  158.4384 H   0  0  0  0  0  0  0  0  0  0  0  0
  152.7897  141.2659  157.8798 H   0  0  0  0  0  0  0  0  0  0  0  0
  151.4977  144.3338  157.1375 H   0  0  0  0  0  0  0  0  0  0  0  0
  151.5792  146.3529  158.6203 H   0  0  0  0  0  0  0  0  0  0  0  0
  151.9672  146.0313  161.0802 H   0  0  0  0  0  0  0  0  0  0  0  0
  152.2575  143.6972  161.9522 H   0  0  0  0  0  0  0  0  0  0  0  0
  1  2  1  0  0  0  0
  1 21  1  0  0  0  0
  1 22  1  0  0  0  0
  1 23  1  0  0  0  0
  2  3  2  0  0  0  0
  2  4  2  0  0  0  0
  2  5  1  0  0  0  0
  5  9  1  0  0  0  0
  5  6  1  0  0  0  0
  6  7  1  0  0  0  0
  6 24  1  0  0  0  0
  6 25  1  0  0  0  0
  7  8  1  0  0  0  0
  7 26  1  0  0  0  0
  7 27  1  0  0  0  0
  8  9  1  0  0  0  0
  8 28  1  0  0  0  0
  8 29  1  0  0  0  0
  9 10  1  0  0  0  0
  9 30  1  0  0  0  0
 10 11  2  0  0  0  0
 10 12  1  0  0  0  0
 12 13  1  0  0  0  0
 12 31  1  0  0  0  0
 13 14  1  0  0  0  0
 13 32  1  0  0  0  0
 13 33  1  0  0  0  0
 14 15  1  0  0  0  0
 14 34  1  0  0  0  0
 14 35  1  0  0  0  0
 15 20  1  0  0  0  0
 15 16  2  0  0  0  0
 16 17  1  0  0  0  0
 16 36  1  0  0  0  0
 17 18  2  0  0  0  0
 17 37  1  0  0  0  0
 18 19  1  0  0  0  0
 18 38  1  0  0  0  0
 19 20  2  0  0  0  0
 19 39  1  0  0  0  0
M  END
> <s_m_source_file>
AV-unprocessed.smi

> <i_m_source_file_index>
2089

> <i_lp_mmshare_version>
43012

> <i_f3d_flags>
0

> <s_epik_input>
W0NIM11TKD1PKSg9TylOMVtDSDJdW0NIMl1bQ0gyXVtDQEhdMUMoPU8pW05IXVtDSDJdW0NIMl1jMltjSF1bY0hdW2NIXVtjSF1uMg==

> <s_epik_cmdline>
J2VwaWtfcHl0aG9uJywgJy1waCcsICc3LjAnLCAnLXRuJywgJzgnLCAnLW1hJywgJzIwMCcsICctbWV0YWxfYmluZGluZycsICctaW1hZScsICc8aW5maWxlLm1hZT4nLCAnLW9tYWUnLCAnPG91dGZpbGUubWFlPic=

> <r_epik_Ionization_Penalty>
0.0244371

> <r_epik_Ionization_Penalty_Charging>
0

> <r_epik_Ionization_Penalty_Neutral>
0.0244371

> <r_epik_State_Penalty>
0.0198365

> <r_epik_Charging_Adjusted_Penalty>
0.0198365

> <i_epik_Tot_Q>
0

> <i_epik_Tot_abs_Q>
0

> <r_epik_Metal_State_Penalty>
0.0190441

> <b_epik_Metal_Only>
0

> <s_lp_Force_Field>
OPLS_2005

> <r_lp_Energy>
6.09758

> <b_lp_Chiralities_Consistent>
1

> <s_lp_Variant>
AV-unprocessed.smi:2089-1

> <Gold.Version>
5.8.1

> <Gold.Id.Protein>
6NUR|6NUR_protein|mol2

> <Gold.PLP.Fitness>
41.0069

> <Gold.PLP.PLP>
-38.9781

> <Gold.PLP.part.hbond>
-2.1556

> <Gold.PLP.part.metal>
0.0000

> <Gold.PLP.part.buried>
-7.9305

> <Gold.PLP.part.nonpolar>
-29.5807

> <Gold.PLP.part.repulsive>
0.2593

> <Gold.PLP.ligand.clash>
0.0000

> <Gold.PLP.ligand.torsion>
0.7585

> <Gold.PLP.Chemscore.Hbond>
1.0000

> <Gold.PLP.Chemscore.CHOScore>
0.0000

> <Gold.PLP.Chemscore.Metal>
0.0000

> <Gold.Chemscore.Hbonds>
donor molecule, donor type, donor heavy atom, donor atom, acceptor molecule, acceptor atom, score
      P1  H  6934  6946       L1     3  0.27
      P1  H  7989  7998       L1    11  1.00

> <Gold.PLP.Chemscore.Internal.Correction>
0.5458

> <Gold.Rescore>
     Score         DG    S(hbond)    S(metal)    S(lipo)     H(rot)  DE(clash)    DE(int)     intcor
     15.88     -16.80       1.46        0.00      96.64       1.90       0.20       0.72       ----

> <Gold.Chemscore.Fitness>
15.8769

> <Gold.Chemscore.DG>
-16.7987

> <Gold.Chemscore.ZeroCoef>
-5.4800

> <Gold.Chemscore.Hbond>
1.4590

> <Gold.Chemscore.Metal>
0.0000

> <Gold.Chemscore.Lipo>
96.6405

> <Gold.Chemscore.Internal_Hbond>
0.0000

> <Gold.Chemscore.DEClash>
0.1984

> <Gold.Chemscore.DEInternal>
0.7234

> <Gold.Chemscore.Rot>
1.8990

> <Gold.Chemscore.Internal.Correction>
   9.000000E+99

> <Gold.Chemscore.Hbonds>
donor molecule, donor type, donor heavy atom, donor atom, acceptor molecule, acceptor atom, score
      P1  H  6934  6946       L1     3  0.28
      P1  H  7989  7998       L1    11  0.98

> <Gold.Chemscore.Hbond.Weighted>
-4.8731

> <Gold.Chemscore.Metal.Weighted>
-0.0000

> <Gold.Chemscore.Lipo.Weighted>
-11.3069

> <Gold.Chemscore.Internal_Hbond.Weighted>
0.0000

> <Gold.Chemscore.DEClash.Weighted>
0.1984

> <Gold.Chemscore.DEInternal.Weighted>
0.7234

> <Gold.Chemscore.Rot.Weighted>
4.8613

> <Gold.Chemscore.Internal.Correction.Weighted>
   9.000000E+99

> <Gold.Protein.RotatedTorsions>
[ 6907 6896 6895 6894 ] final    7.83 input  -60.11 | X-H torsion
[ 7974 7965 7964 7962 ] final  119.83 input  175.53 | X-H torsion
[ 8008 7997 7996 7995 ] final -176.92 input   59.86 | X-H torsion
[ 10167 10162 10161 10158 ] final -128.43 input  -65.29 | X-H torsion
[ 10718 10713 10712 10709 ] final   81.39 input   66.30 | X-H torsion
[ 10763 10752 10751 10750 ] final  123.69 input  -60.55 | X-H torsion
[ 11005 11000 10999 10996 ] final  -18.12 input  -57.11 | X-H torsion

> <Gold.Protein.ActiveResidues>
 VAL166  LYS551  ARG553  GLY616  TRP617  ASP618  TYR619  PRO620  LYS621  CYS622 
 ASP623  PHE694  ASN695  SER759  ASP760  ASP761  ALA762  ILE779  LEU786  VAL792 
 PHE793  MET794  SER795  GLU796  ALA797  LYS798  CYS799  TRP800  GLU811  SER814 

> <Gold.Protein.RotatedAtoms>
  151.6963  135.0938  160.0242 H   0  0  0  0  0  0  0  0  0  0  0  0  # atno 6907 bound_to 6896
  152.3748  133.6462  159.6123 H   0  0  0  0  0  0  0  0  0  0  0  0  # atno 6908 bound_to 6896
  150.7701  133.9128  159.3416 H   0  0  0  0  0  0  0  0  0  0  0  0  # atno 6909 bound_to 6896
  145.1385  139.3283  143.4628 H   0  0  0  0  0  0  0  0  0  0  0  0  # atno 7974 bound_to 7965
  156.0007  140.1220  157.0550 H   0  0  0  0  0  0  0  0  0  0  0  0  # atno 8008 bound_to 7997
  154.4241  140.1107  156.5762 H   0  0  0  0  0  0  0  0  0  0  0  0  # atno 8009 bound_to 7997
  155.6216  140.3472  155.4656 H   0  0  0  0  0  0  0  0  0  0  0  0  # atno 8010 bound_to 7997
  139.9504  143.6062  152.2477 H   0  0  0  0  0  0  0  0  0  0  0  0  # atno 10167 bound_to 10162
  157.6831  131.0002  150.2220 H   0  0  0  0  0  0  0  0  0  0  0  0  # atno 10718 bound_to 10713
  153.6495  135.3365  155.3095 H   0  0  0  0  0  0  0  0  0  0  0  0  # atno 10763 bound_to 10752
  154.8541  135.4337  154.1919 H   0  0  0  0  0  0  0  0  0  0  0  0  # atno 10764 bound_to 10752
  153.2858  135.7013  153.7415 H   0  0  0  0  0  0  0  0  0  0  0  0  # atno 10765 bound_to 10752
  140.8236  133.8049  155.9685 H   0  0  0  0  0  0  0  0  0  0  0  0  # atno 11005 bound_to 11000
  146.3507  140.1412  142.8594 LP  0  0  0  0  0  0  0  0  0  0  0  0  # atno 17320 bound_to 7965
  145.0558  140.9051  143.4968 LP  0  0  0  0  0  0  0  0  0  0  0  0  # atno 17321 bound_to 7965
  139.6633  144.7662  151.1921 LP  0  0  0  0  0  0  0  0  0  0  0  0  # atno 17342 bound_to 10162
  140.7584  143.5977  150.8732 LP  0  0  0  0  0  0  0  0  0  0  0  0  # atno 17343 bound_to 10162
  156.2870  130.3740  149.7879 LP  0  0  0  0  0  0  0  0  0  0  0  0  # atno 17370 bound_to 10713
  156.5550  130.8358  151.3311 LP  0  0  0  0  0  0  0  0  0  0  0  0  # atno 17371 bound_to 10713
  140.9072  134.2305  157.5007 LP  0  0  0  0  0  0  0  0  0  0  0  0  # atno 17394 bound_to 11000
  139.8707  134.9734  156.4807 LP  0  0  0  0  0  0  0  0  0  0  0  0  # atno 17395 bound_to 11000

$$$$
