AV-unprocessed.smi:3034|AV-procd|sdf|11578|dock3
  -GOLD-   2272016543D 1   1.00000     0.00000
 Structure written by MMmdl.
 32 32  0  0  0  0  0  0  0  0  1 V2000
  147.1429  140.7097  153.0449 C   0  0  0  0  0  0  0  0  0  0  0  0
  146.4807  141.0752  154.3775 C   0  0  0  0  0  0  0  0  0  0  0  0
  147.3358  142.0370  155.2144 C   0  0  0  0  0  0  0  0  0  0  0  0
  149.0271  141.3624  155.5066 S   0  0  0  0  0  0  0  0  0  0  0  0
  148.9208  140.1003  156.2553 O   0  0  0  0  0  0  0  0  0  0  0  0
  149.7891  141.4199  154.2502 O   0  0  0  0  0  0  0  0  0  0  0  0
  149.7095  142.5382  156.5649 N   0  0  0  0  0  0  0  0  0  0  0  0
  151.0832  142.3310  157.0235 C   0  0  0  0  0  0  0  0  0  0  0  0
  151.6328  143.5993  157.6996 C   0  0  1  0  0  0  0  0  0  0  0  0
  150.6296  144.5977  157.6806 O   0  0  0  0  0  0  0  0  0  0  0  0
  152.1173  143.2976  159.1126 C   0  0  0  0  0  0  0  0  0  0  0  0
  151.6794  144.0521  160.2257 C   0  0  0  0  0  0  0  0  0  0  0  0
  152.1518  143.7016  161.5052 C   0  0  0  0  0  0  0  0  0  0  0  0
  153.0354  142.6125  161.6279 C   0  0  0  0  0  0  0  0  0  0  0  0
  153.4075  141.9183  160.4602 C   0  0  0  0  0  0  0  0  0  0  0  0
  152.9601  142.2459  159.2291 N   0  0  0  0  0  0  0  0  0  0  0  0
  146.5122  140.0296  152.4722 H   0  0  0  0  0  0  0  0  0  0  0  0
  148.1030  140.2183  153.2041 H   0  0  0  0  0  0  0  0  0  0  0  0
  147.3157  141.5963  152.4346 H   0  0  0  0  0  0  0  0  0  0  0  0
  145.5082  141.5281  154.1826 H   0  0  0  0  0  0  0  0  0  0  0  0
  146.2897  140.1632  154.9437 H   0  0  0  0  0  0  0  0  0  0  0  0
  147.4461  142.9861  154.6896 H   0  0  0  0  0  0  0  0  0  0  0  0
  146.8768  142.2479  156.1804 H   0  0  0  0  0  0  0  0  0  0  0  0
  149.5923  143.4778  156.1861 H   0  0  0  0  0  0  0  0  0  0  0  0
  151.1271  141.4735  157.6963 H   0  0  0  0  0  0  0  0  0  0  0  0
  151.6927  142.0854  156.1527 H   0  0  0  0  0  0  0  0  0  0  0  0
  152.4807  143.9798  157.1273 H   0  0  0  0  0  0  0  0  0  0  0  0
  150.2824  144.6537  156.8037 H   0  0  0  0  0  0  0  0  0  0  0  0
  150.9945  144.8791  160.1112 H   0  0  0  0  0  0  0  0  0  0  0  0
  151.8395  144.2568  162.3774 H   0  0  0  0  0  0  0  0  0  0  0  0
  153.4170  142.3150  162.5933 H   0  0  0  0  0  0  0  0  0  0  0  0
  154.0812  141.0761  160.5166 H   0  0  0  0  0  0  0  0  0  0  0  0
  1  2  1  0  0  0  0
  1 17  1  0  0  0  0
  1 18  1  0  0  0  0
  1 19  1  0  0  0  0
  2  3  1  0  0  0  0
  2 20  1  0  0  0  0
  2 21  1  0  0  0  0
  3  4  1  0  0  0  0
  3 22  1  0  0  0  0
  3 23  1  0  0  0  0
  4  5  2  0  0  0  0
  4  6  2  0  0  0  0
  4  7  1  0  0  0  0
  7  8  1  0  0  0  0
  7 24  1  0  0  0  0
  8  9  1  0  0  0  0
  8 25  1  0  0  0  0
  8 26  1  0  0  0  0
  9 10  1  0  0  0  0
  9 11  1  0  0  0  0
  9 27  1  0  0  0  0
 10 28  1  0  0  0  0
 11 16  1  0  0  0  0
 11 12  2  0  0  0  0
 12 13  1  0  0  0  0
 12 29  1  0  0  0  0
 13 14  2  0  0  0  0
 13 30  1  0  0  0  0
 14 15  1  0  0  0  0
 14 31  1  0  0  0  0
 15 16  2  0  0  0  0
 15 32  1  0  0  0  0
M  END
> <s_m_source_file>
AV-unprocessed.smi

> <i_m_source_file_index>
3034

> <i_lp_mmshare_version>
43012

> <i_f3d_flags>
0

> <s_epik_input>
W0NIM11bQ0gyXVtDSDJdUyg9TykoPU8pW05IXVtDSDJdW0NASF0oW09IXSljMVtjSF1bY0hdW2NIXVtjSF1uMQ==

> <s_epik_cmdline>
J2VwaWtfcHl0aG9uJywgJy1waCcsICc3LjAnLCAnLXRuJywgJzgnLCAnLW1hJywgJzIwMCcsICctbWV0YWxfYmluZGluZycsICctaW1hZScsICc8aW5maWxlLm1hZT4nLCAnLW9tYWUnLCAnPG91dGZpbGUubWFlPic=

> <r_epik_Ionization_Penalty>
0.00187371

> <r_epik_Ionization_Penalty_Charging>
0

> <r_epik_Ionization_Penalty_Neutral>
0.00187371

> <r_epik_State_Penalty>
0.0012608

> <r_epik_Charging_Adjusted_Penalty>
0.0012608

> <i_epik_Tot_Q>
0

> <i_epik_Tot_abs_Q>
0

> <r_epik_Metal_State_Penalty>
0.0168387

> <b_epik_Metal_Only>
0

> <s_lp_Force_Field>
OPLS_2005

> <r_lp_Energy>
4.76334

> <b_lp_Chiralities_Consistent>
1

> <s_lp_Variant>
AV-unprocessed.smi:3034-2

> <Gold.Version>
5.8.1

> <Gold.Id.Protein>
6NUR|6NUR_protein|mol2

> <Gold.PLP.Fitness>
43.5480

> <Gold.PLP.PLP>
-37.2047

> <Gold.PLP.part.hbond>
-4.9059

> <Gold.PLP.part.metal>
0.0000

> <Gold.PLP.part.buried>
-2.0040

> <Gold.PLP.part.nonpolar>
-30.1037

> <Gold.PLP.part.repulsive>
0.2050

> <Gold.PLP.ligand.clash>
0.0000

> <Gold.PLP.ligand.torsion>
1.0127

> <Gold.PLP.Chemscore.Hbond>
2.7168

> <Gold.PLP.Chemscore.CHOScore>
0.0000

> <Gold.PLP.Chemscore.Metal>
0.0000

> <Gold.Chemscore.Hbonds>
donor molecule, donor type, donor heavy atom, donor atom, acceptor molecule, acceptor atom, score
      L1  H     7    24       P1  8028  0.98
      L1  H    10    28       P1  8028  1.00
      P1  H  7989  7998       L1     6  0.32
      P1  H  8011  8017       L1     6  0.42

> <Gold.PLP.Chemscore.Internal.Correction>
0.2182

> <Gold.Rescore>
     Score         DG    S(hbond)    S(metal)    S(lipo)     H(rot)  DE(clash)    DE(int)     intcor
     16.85     -18.50       2.54        0.00      96.31       2.63       0.36       1.29       ----

> <Gold.Chemscore.Fitness>
16.8496

> <Gold.Chemscore.DG>
-18.4985

> <Gold.Chemscore.ZeroCoef>
-5.4800

> <Gold.Chemscore.Hbond>
2.5379

> <Gold.Chemscore.Metal>
0.0000

> <Gold.Chemscore.Lipo>
96.3124

> <Gold.Chemscore.Internal_Hbond>
0.0000

> <Gold.Chemscore.DEClash>
0.3626

> <Gold.Chemscore.DEInternal>
1.2863

> <Gold.Chemscore.Rot>
2.6275

> <Gold.Chemscore.Internal.Correction>
   9.000000E+99

> <Gold.Chemscore.Hbonds>
donor molecule, donor type, donor heavy atom, donor atom, acceptor molecule, acceptor atom, score
      L1  H     7    24       P1  8028  0.92
      L1  H    10    28       P1  8028  0.71
      P1  H  7989  7998       L1     6  0.30
      P1  H  8011  8017       L1     6  0.43

> <Gold.Chemscore.Hbond.Weighted>
-8.4764

> <Gold.Chemscore.Metal.Weighted>
-0.0000

> <Gold.Chemscore.Lipo.Weighted>
-11.2686

> <Gold.Chemscore.Internal_Hbond.Weighted>
0.0000

> <Gold.Chemscore.DEClash.Weighted>
0.3626

> <Gold.Chemscore.DEInternal.Weighted>
1.2863

> <Gold.Chemscore.Rot.Weighted>
6.7265

> <Gold.Chemscore.Internal.Correction.Weighted>
   9.000000E+99

> <Gold.Protein.RotatedTorsions>
[ 6907 6896 6895 6894 ] final  -50.82 input  -60.11 | X-H torsion
[ 7974 7965 7964 7962 ] final   62.31 input  175.53 | X-H torsion
[ 8008 7997 7996 7995 ] final  -48.54 input   59.86 | X-H torsion
[ 10167 10162 10161 10158 ] final   98.06 input  -65.29 | X-H torsion
[ 10718 10713 10712 10709 ] final  114.26 input   66.30 | X-H torsion
[ 10763 10752 10751 10750 ] final   35.31 input  -60.55 | X-H torsion
[ 11005 11000 10999 10996 ] final   18.65 input  -57.11 | X-H torsion

> <Gold.Protein.ActiveResidues>
 VAL166  LYS551  ARG553  GLY616  TRP617  ASP618  TYR619  PRO620  LYS621  CYS622 
 ASP623  PHE694  ASN695  SER759  ASP760  ASP761  ALA762  ILE779  LEU786  VAL792 
 PHE793  MET794  SER795  GLU796  ALA797  LYS798  CYS799  TRP800  GLU811  SER814 

> <Gold.Protein.RotatedAtoms>
  150.8671  134.8036  159.7126 H   0  0  0  0  0  0  0  0  0  0  0  0  # atno 6907 bound_to 6896
  152.4688  134.5007  159.9733 H   0  0  0  0  0  0  0  0  0  0  0  0  # atno 6908 bound_to 6896
  151.5101  133.3448  159.2919 H   0  0  0  0  0  0  0  0  0  0  0  0  # atno 6909 bound_to 6896
  145.8748  139.3402  143.0741 H   0  0  0  0  0  0  0  0  0  0  0  0  # atno 7974 bound_to 7965
  154.4030  140.1319  156.4356 H   0  0  0  0  0  0  0  0  0  0  0  0  # atno 8008 bound_to 7997
  155.7508  140.3488  155.5129 H   0  0  0  0  0  0  0  0  0  0  0  0  # atno 8009 bound_to 7997
  155.8951  140.1010  157.1381 H   0  0  0  0  0  0  0  0  0  0  0  0  # atno 8010 bound_to 7997
  139.7743  144.6911  151.0111 H   0  0  0  0  0  0  0  0  0  0  0  0  # atno 10167 bound_to 10162
  157.6291  131.0996  150.7160 H   0  0  0  0  0  0  0  0  0  0  0  0  # atno 10718 bound_to 10713
  153.0125  135.6337  154.1807 H   0  0  0  0  0  0  0  0  0  0  0  0  # atno 10763 bound_to 10752
  154.1548  135.2827  155.3127 H   0  0  0  0  0  0  0  0  0  0  0  0  # atno 10764 bound_to 10752
  154.6026  135.5582  153.7451 H   0  0  0  0  0  0  0  0  0  0  0  0  # atno 10765 bound_to 10752
  140.4225  134.1504  155.7674 H   0  0  0  0  0  0  0  0  0  0  0  0  # atno 11005 bound_to 11000
  145.9094  140.9190  143.0462 LP  0  0  0  0  0  0  0  0  0  0  0  0  # atno 17320 bound_to 7965
  144.6726  140.1140  143.7454 LP  0  0  0  0  0  0  0  0  0  0  0  0  # atno 17321 bound_to 7965
  140.7815  143.4553  151.0354 LP  0  0  0  0  0  0  0  0  0  0  0  0  # atno 17342 bound_to 10162
  139.8236  143.7786  152.3178 LP  0  0  0  0  0  0  0  0  0  0  0  0  # atno 17343 bound_to 10162
  156.7503  130.4766  149.5458 LP  0  0  0  0  0  0  0  0  0  0  0  0  # atno 17370 bound_to 10713
  156.1483  130.6292  151.0561 LP  0  0  0  0  0  0  0  0  0  0  0  0  # atno 17371 bound_to 10713
  141.1778  133.8477  157.1361 LP  0  0  0  0  0  0  0  0  0  0  0  0  # atno 17394 bound_to 11000
  140.0190  134.9954  157.0554 LP  0  0  0  0  0  0  0  0  0  0  0  0  # atno 17395 bound_to 11000

$$$$
