AV-unprocessed.smi:1019|AV-procd|sdf|4451|dock5
  -GOLD-   22720 2413D 1   1.00000     0.00000
 Structure written by MMmdl.
 43 45  0  0  0  0  0  0  0  0  1 V2000
  143.2438  137.1343  152.7579 C   0  0  0  0  0  0  0  0  0  0  0  0
  144.2482  136.1947  152.2596 N   0  0  0  0  0  0  0  0  0  0  0  0
  143.8118  134.8111  152.4543 C   0  0  0  0  0  0  0  0  0  0  0  0
  144.6332  133.7889  151.6860 C   0  0  0  0  0  0  0  0  0  0  0  0
  144.0508  133.0644  150.6243 C   0  0  0  0  0  0  0  0  0  0  0  0
  144.8123  132.1171  149.9123 C   0  0  0  0  0  0  0  0  0  0  0  0
  146.1592  131.8927  150.2575 C   0  0  0  0  0  0  0  0  0  0  0  0
  146.7444  132.6156  151.3150 C   0  0  0  0  0  0  0  0  0  0  0  0
  145.9834  133.5627  152.0276 C   0  0  0  0  0  0  0  0  0  0  0  0
  145.5530  136.4093  152.8917 C   0  0  0  0  0  0  0  0  0  0  0  0
  146.3461  137.6392  152.4024 C   0  0  2  0  0  0  0  0  0  0  0  0
  146.5619  137.5159  151.0096 O   0  0  0  0  0  0  0  0  0  0  0  0
  147.7059  137.7499  153.1182 C   0  0  0  0  0  0  0  0  0  0  0  0
  148.0037  139.1053  153.5469 N   0  0  0  0  0  0  0  0  0  0  0  0
  147.2483  140.2017  153.3433 C   0  0  0  0  0  0  0  0  0  0  0  0
  147.7032  141.3543  153.8259 N   0  0  0  0  0  0  0  0  0  0  0  0
  148.8943  140.9608  154.4114 C   0  0  0  0  0  0  0  0  0  0  0  0
  149.8675  141.7151  155.1055 C   0  0  0  0  0  0  0  0  0  0  0  0
  151.0203  141.0894  155.6241 C   0  0  0  0  0  0  0  0  0  0  0  0
  151.2181  139.7035  155.4563 C   0  0  0  0  0  0  0  0  0  0  0  0
  150.2624  138.9310  154.7687 C   0  0  0  0  0  0  0  0  0  0  0  0
  149.1125  139.5586  154.2540 C   0  0  0  0  0  0  0  0  0  0  0  0
  143.5163  138.1654  152.5393 H   0  0  0  0  0  0  0  0  0  0  0  0
  143.1129  137.0361  153.8363 H   0  0  0  0  0  0  0  0  0  0  0  0
  142.2763  136.9651  152.2851 H   0  0  0  0  0  0  0  0  0  0  0  0
  143.8911  134.5456  153.5093 H   0  0  0  0  0  0  0  0  0  0  0  0
  142.7575  134.7098  152.1920 H   0  0  0  0  0  0  0  0  0  0  0  0
  143.0178  133.2324  150.3563 H   0  0  0  0  0  0  0  0  0  0  0  0
  144.3627  131.5632  149.1014 H   0  0  0  0  0  0  0  0  0  0  0  0
  146.7433  131.1665  149.7116 H   0  0  0  0  0  0  0  0  0  0  0  0
  147.7772  132.4438  151.5805 H   0  0  0  0  0  0  0  0  0  0  0  0
  146.4390  134.1121  152.8384 H   0  0  0  0  0  0  0  0  0  0  0  0
  145.4127  136.4816  153.9714 H   0  0  0  0  0  0  0  0  0  0  0  0
  146.1791  135.5290  152.7375 H   0  0  0  0  0  0  0  0  0  0  0  0
  145.7917  138.5590  152.5834 H   0  0  0  0  0  0  0  0  0  0  0  0
  145.7814  137.7976  150.5576 H   0  0  0  0  0  0  0  0  0  0  0  0
  147.7185  137.1071  153.9994 H   0  0  0  0  0  0  0  0  0  0  0  0
  148.5106  137.4014  152.4695 H   0  0  0  0  0  0  0  0  0  0  0  0
  146.3105  140.1499  152.8095 H   0  0  0  0  0  0  0  0  0  0  0  0
  149.7266  142.7774  155.2392 H   0  0  0  0  0  0  0  0  0  0  0  0
  151.7567  141.6763  156.1531 H   0  0  0  0  0  0  0  0  0  0  0  0
  152.1047  139.2335  155.8562 H   0  0  0  0  0  0  0  0  0  0  0  0
  150.4120  137.8697  154.6380 H   0  0  0  0  0  0  0  0  0  0  0  0
  1  2  1  0  0  0  0
  1 23  1  0  0  0  0
  1 24  1  0  0  0  0
  1 25  1  0  0  0  0
  2  3  1  0  0  0  0
  2 10  1  0  0  0  0
  3  4  1  0  0  0  0
  3 26  1  0  0  0  0
  3 27  1  0  0  0  0
  4  9  1  0  0  0  0
  4  5  2  0  0  0  0
  5  6  1  0  0  0  0
  5 28  1  0  0  0  0
  6  7  2  0  0  0  0
  6 29  1  0  0  0  0
  7  8  1  0  0  0  0
  7 30  1  0  0  0  0
  8  9  2  0  0  0  0
  8 31  1  0  0  0  0
  9 32  1  0  0  0  0
 10 11  1  0  0  0  0
 10 33  1  0  0  0  0
 10 34  1  0  0  0  0
 11 12  1  0  0  0  0
 11 13  1  0  0  0  0
 11 35  1  0  0  0  0
 12 36  1  0  0  0  0
 13 14  1  0  0  0  0
 13 37  1  0  0  0  0
 13 38  1  0  0  0  0
 14 22  1  0  0  0  0
 14 15  1  0  0  0  0
 15 16  2  0  0  0  0
 15 39  1  0  0  0  0
 16 17  1  0  0  0  0
 17 22  2  0  0  0  0
 17 18  1  0  0  0  0
 18 19  2  0  0  0  0
 18 40  1  0  0  0  0
 19 20  1  0  0  0  0
 19 41  1  0  0  0  0
 20 21  2  0  0  0  0
 20 42  1  0  0  0  0
 21 22  1  0  0  0  0
 21 43  1  0  0  0  0
M  END
> <s_m_source_file>
AV-unprocessed.smi

> <i_m_source_file_index>
1019

> <i_lp_mmshare_version>
43012

> <i_f3d_flags>
0

> <s_epik_input>
W2NIXTFbY0hdW2NIXVtjSF1bY0hdYzFbQ0gyXU4oW0NIM10pW0NIMl1bQ0BIXShbT0hdKVtDSDJdbihbY0hdbjIpYyhjMjMpW2NIXVtjSF1bY0hdW2NIXTM=

> <s_epik_cmdline>
J2VwaWtfcHl0aG9uJywgJy1waCcsICc3LjAnLCAnLXRuJywgJzgnLCAnLW1hJywgJzIwMCcsICctbWV0YWxfYmluZGluZycsICctaW1hZScsICc8aW5maWxlLm1hZT4nLCAnLW9tYWUnLCAnPG91dGZpbGUubWFlPic=

> <r_epik_Ionization_Penalty>
1.56741

> <r_epik_Ionization_Penalty_Charging>
0

> <r_epik_Ionization_Penalty_Neutral>
1.56741

> <r_epik_State_Penalty>
1.62466

> <r_epik_Charging_Adjusted_Penalty>
1.62466

> <i_epik_Tot_Q>
0

> <i_epik_Tot_abs_Q>
0

> <r_epik_Metal_State_Penalty>
1.58486

> <b_epik_Metal_Only>
0

> <s_lp_Force_Field>
OPLS_2005

> <r_lp_Energy>
24.0301

> <b_lp_Chiralities_Consistent>
1

> <s_lp_Variant>
AV-unprocessed.smi:1019-9

> <Gold.Version>
5.8.1

> <Gold.Id.Protein>
6NUR|6NUR_protein|mol2

> <Gold.PLP.Fitness>
49.1101

> <Gold.PLP.PLP>
-41.7397

> <Gold.PLP.part.hbond>
-2.8262

> <Gold.PLP.part.metal>
0.0000

> <Gold.PLP.part.buried>
4.5046

> <Gold.PLP.part.nonpolar>
-43.8611

> <Gold.PLP.part.repulsive>
0.3356

> <Gold.PLP.ligand.clash>
0.0000

> <Gold.PLP.ligand.torsion>
0.8926

> <Gold.PLP.Chemscore.Hbond>
2.0000

> <Gold.PLP.Chemscore.CHOScore>
1.0000

> <Gold.PLP.Chemscore.Metal>
0.0000

> <Gold.Chemscore.Hbonds>
donor molecule, donor type, donor heavy atom, donor atom, acceptor molecule, acceptor atom, score
      L1  H    12    36       P1 10171  0.60
      P1  H  7954  7966       L1    12  1.00
      L1  C    15    39       P1 10175  0.67

> <Gold.PLP.Chemscore.Internal.Correction>
0.1556

> <Gold.Rescore>
     Score         DG    S(hbond)    S(metal)    S(lipo)     H(rot)  DE(clash)    DE(int)     intcor
     15.51     -18.46       1.59        0.00     115.02       2.27       1.87       1.08       ----

> <Gold.Chemscore.Fitness>
15.5100

> <Gold.Chemscore.DG>
-18.4568

> <Gold.Chemscore.ZeroCoef>
-5.4800

> <Gold.Chemscore.Hbond>
1.5933

> <Gold.Chemscore.Metal>
0.0000

> <Gold.Chemscore.Lipo>
115.0249

> <Gold.Chemscore.Internal_Hbond>
0.0000

> <Gold.Chemscore.DEClash>
1.8655

> <Gold.Chemscore.DEInternal>
1.0813

> <Gold.Chemscore.Rot>
2.2667

> <Gold.Chemscore.Internal.Correction>
   9.000000E+99

> <Gold.Chemscore.Hbonds>
donor molecule, donor type, donor heavy atom, donor atom, acceptor molecule, acceptor atom, score
      L1  H    12    36       P1 10171  0.60
      P1  H  7954  7966       L1    12  0.72

> <Gold.Chemscore.Hbond.Weighted>
-5.3217

> <Gold.Chemscore.Metal.Weighted>
-0.0000

> <Gold.Chemscore.Lipo.Weighted>
-13.4579

> <Gold.Chemscore.Internal_Hbond.Weighted>
0.0000

> <Gold.Chemscore.DEClash.Weighted>
1.8655

> <Gold.Chemscore.DEInternal.Weighted>
1.0813

> <Gold.Chemscore.Rot.Weighted>
5.8028

> <Gold.Chemscore.Internal.Correction.Weighted>
   9.000000E+99

> <Gold.Protein.RotatedTorsions>
[ 6907 6896 6895 6894 ] final    0.36 input  -60.11 | X-H torsion
[ 7974 7965 7964 7962 ] final  -85.11 input  175.53 | X-H torsion
[ 8008 7997 7996 7995 ] final  138.30 input   59.86 | X-H torsion
[ 10167 10162 10161 10158 ] final   40.62 input  -65.29 | X-H torsion
[ 10718 10713 10712 10709 ] final -150.41 input   66.30 | X-H torsion
[ 10763 10752 10751 10750 ] final -114.80 input  -60.55 | X-H torsion
[ 11005 11000 10999 10996 ] final  -91.78 input  -57.11 | X-H torsion

> <Gold.Protein.ActiveResidues>
 VAL166  LYS551  ARG553  GLY616  TRP617  ASP618  TYR619  PRO620  LYS621  CYS622 
 ASP623  PHE694  ASN695  SER759  ASP760  ASP761  ALA762  ILE779  LEU786  VAL792 
 PHE793  MET794  SER795  GLU796  ALA797  LYS798  CYS799  TRP800  GLU811  SER814 

> <Gold.Protein.RotatedAtoms>
  151.5752  135.1061  160.0004 H   0  0  0  0  0  0  0  0  0  0  0  0  # atno 6907 bound_to 6896
  152.4381  133.7394  159.6643 H   0  0  0  0  0  0  0  0  0  0  0  0  # atno 6908 bound_to 6896
  150.8282  133.8066  159.3133 H   0  0  0  0  0  0  0  0  0  0  0  0  # atno 6909 bound_to 6896
  145.4977  140.9549  143.1777 H   0  0  0  0  0  0  0  0  0  0  0  0  # atno 7974 bound_to 7965
  156.2998  140.2397  156.4051 H   0  0  0  0  0  0  0  0  0  0  0  0  # atno 8008 bound_to 7997
  154.8492  140.0425  157.1613 H   0  0  0  0  0  0  0  0  0  0  0  0  # atno 8009 bound_to 7997
  154.9018  140.2978  155.5317 H   0  0  0  0  0  0  0  0  0  0  0  0  # atno 8010 bound_to 7997
  140.3724  144.2088  150.6132 H   0  0  0  0  0  0  0  0  0  0  0  0  # atno 10167 bound_to 10162
  156.4457  130.8143  151.2374 H   0  0  0  0  0  0  0  0  0  0  0  0  # atno 10718 bound_to 10713
  154.8455  135.4405  154.1563 H   0  0  0  0  0  0  0  0  0  0  0  0  # atno 10763 bound_to 10752
  153.2711  135.6945  153.7486 H   0  0  0  0  0  0  0  0  0  0  0  0  # atno 10764 bound_to 10752
  153.6726  135.3416  155.3132 H   0  0  0  0  0  0  0  0  0  0  0  0  # atno 10765 bound_to 10752
  141.1537  133.7778  156.9928 H   0  0  0  0  0  0  0  0  0  0  0  0  # atno 11005 bound_to 11000
  144.7798  139.6551  143.7159 LP  0  0  0  0  0  0  0  0  0  0  0  0  # atno 17320 bound_to 7965
  146.2245  139.5697  142.9596 LP  0  0  0  0  0  0  0  0  0  0  0  0  # atno 17321 bound_to 7965
  140.5020  143.2315  151.8664 LP  0  0  0  0  0  0  0  0  0  0  0  0  # atno 17342 bound_to 10162
  139.4802  144.5048  151.9011 LP  0  0  0  0  0  0  0  0  0  0  0  0  # atno 17343 bound_to 10162
  157.7505  131.0154  150.3502 LP  0  0  0  0  0  0  0  0  0  0  0  0  # atno 17370 bound_to 10713
  156.3869  130.3891  149.7059 LP  0  0  0  0  0  0  0  0  0  0  0  0  # atno 17371 bound_to 10713
  140.0991  134.9546  157.1896 LP  0  0  0  0  0  0  0  0  0  0  0  0  # atno 17394 bound_to 11000
  140.3342  134.2776  155.7223 LP  0  0  0  0  0  0  0  0  0  0  0  0  # atno 17395 bound_to 11000

$$$$
