AV-unprocessed.smi:2299|AV-procd|sdf|9231|dock2
  -GOLD-   2272012453D 1   1.00000     0.00000
 Structure written by MMmdl.
 42 43  0  0  0  0  0  0  0  0  1 V2000
  151.0373  136.3216  155.1742 C   0  0  0  0  0  0  0  0  0  0  0  0
  149.8218  135.8882  156.0064 C   0  0  0  0  0  0  0  0  0  0  0  0
  149.7003  136.6913  157.3096 C   0  0  0  0  0  0  0  0  0  0  0  0
  149.8328  134.4055  156.2668 C   0  0  0  0  0  0  0  0  0  0  0  0
  149.9069  133.8860  157.4902 N   0  0  0  0  0  0  0  0  0  0  0  0
  149.9139  132.5100  157.3010 C   0  0  0  0  0  0  0  0  0  0  0  0
  149.8473  132.2380  155.9572 C   0  0  0  0  0  0  0  0  0  0  0  0
  149.7988  133.4613  155.2992 N   0  0  0  0  0  0  0  0  0  0  0  0
  149.7374  133.6256  153.8541 C   0  0  0  0  0  0  0  0  0  0  0  0
  148.4373  133.0488  153.2908 C   0  0  0  0  0  0  0  0  0  0  0  0
  148.1502  131.8688  153.4913 O   0  0  0  0  0  0  0  0  0  0  0  0
  147.6677  133.8881  152.5809 N   0  0  0  0  0  0  0  0  0  0  0  0
  146.4245  133.5371  151.8943 C   0  0  1  0  0  0  0  0  0  0  0  0
  146.6681  132.3760  150.9048 C   0  0  0  0  0  0  0  0  0  0  0  0
  145.6315  132.2957  149.7721 C   0  0  0  0  0  0  0  0  0  0  0  0
  144.1907  132.0270  150.2320 C   0  0  0  0  0  0  0  0  0  0  0  0
  143.5881  133.1620  151.0786 C   0  0  0  0  0  0  0  0  0  0  0  0
  144.0397  133.1274  152.4641 N   0  0  0  0  0  0  0  0  0  0  0  0
  145.2961  133.2769  152.9102 C   0  0  0  0  0  0  0  0  0  0  0  0
  145.5460  133.2002  154.1131 O   0  0  0  0  0  0  0  0  0  0  0  0
  151.0682  135.7899  154.2227 H   0  0  0  0  0  0  0  0  0  0  0  0
  151.9720  136.1217  155.6991 H   0  0  0  0  0  0  0  0  0  0  0  0
  151.0020  137.3886  154.9526 H   0  0  0  0  0  0  0  0  0  0  0  0
  148.9412  136.1365  155.4183 H   0  0  0  0  0  0  0  0  0  0  0  0
  148.7991  136.4138  157.8573 H   0  0  0  0  0  0  0  0  0  0  0  0
  149.6468  137.7613  157.1074 H   0  0  0  0  0  0  0  0  0  0  0  0
  150.5549  136.5201  157.9650 H   0  0  0  0  0  0  0  0  0  0  0  0
  149.9690  131.8290  158.1375 H   0  0  0  0  0  0  0  0  0  0  0  0
  149.8376  131.2975  155.4261 H   0  0  0  0  0  0  0  0  0  0  0  0
  149.7842  134.6896  153.6187 H   0  0  0  0  0  0  0  0  0  0  0  0
  150.6136  133.1697  153.3919 H   0  0  0  0  0  0  0  0  0  0  0  0
  147.9857  134.8399  152.4674 H   0  0  0  0  0  0  0  0  0  0  0  0
  146.1217  134.4178  151.3247 H   0  0  0  0  0  0  0  0  0  0  0  0
  147.6475  132.4927  150.4388 H   0  0  0  0  0  0  0  0  0  0  0  0
  146.7099  131.4276  151.4425 H   0  0  0  0  0  0  0  0  0  0  0  0
  145.6609  133.2159  149.1874 H   0  0  0  0  0  0  0  0  0  0  0  0
  145.9299  131.5009  149.0879 H   0  0  0  0  0  0  0  0  0  0  0  0
  143.5734  131.9004  149.3418 H   0  0  0  0  0  0  0  0  0  0  0  0
  144.1342  131.0801  150.7706 H   0  0  0  0  0  0  0  0  0  0  0  0
  143.7930  134.1372  150.6348 H   0  0  0  0  0  0  0  0  0  0  0  0
  142.5030  133.0568  151.0954 H   0  0  0  0  0  0  0  0  0  0  0  0
  143.3257  132.9612  153.1587 H   0  0  0  0  0  0  0  0  0  0  0  0
  1  2  1  0  0  0  0
  1 21  1  0  0  0  0
  1 22  1  0  0  0  0
  1 23  1  0  0  0  0
  2  3  1  0  0  0  0
  2  4  1  0  0  0  0
  2 24  1  0  0  0  0
  3 25  1  0  0  0  0
  3 26  1  0  0  0  0
  3 27  1  0  0  0  0
  4  8  1  0  0  0  0
  4  5  2  0  0  0  0
  5  6  1  0  0  0  0
  6  7  2  0  0  0  0
  6 28  1  0  0  0  0
  7  8  1  0  0  0  0
  7 29  1  0  0  0  0
  8  9  1  0  0  0  0
  9 10  1  0  0  0  0
  9 30  1  0  0  0  0
  9 31  1  0  0  0  0
 10 11  2  0  0  0  0
 10 12  1  0  0  0  0
 12 13  1  0  0  0  0
 12 32  1  0  0  0  0
 13 19  1  0  0  0  0
 13 14  1  0  0  0  0
 13 33  1  0  0  0  0
 14 15  1  0  0  0  0
 14 34  1  0  0  0  0
 14 35  1  0  0  0  0
 15 16  1  0  0  0  0
 15 36  1  0  0  0  0
 15 37  1  0  0  0  0
 16 17  1  0  0  0  0
 16 38  1  0  0  0  0
 16 39  1  0  0  0  0
 17 18  1  0  0  0  0
 17 40  1  0  0  0  0
 17 41  1  0  0  0  0
 18 19  1  0  0  0  0
 18 42  1  0  0  0  0
 19 20  2  0  0  0  0
M  END
> <s_m_source_file>
AV-unprocessed.smi

> <i_m_source_file_index>
2299

> <i_lp_mmshare_version>
43012

> <i_f3d_flags>
0

> <s_epik_input>
W0NIM11bQ0hdKFtDSDNdKWMxbltjSF1bY0hdbjFbQ0gyXUMoPU8pW05IXVtDQEBIXTJbQ0gyXVtDSDJdW0NIMl1bQ0gyXVtOSF1DMj1P

> <s_epik_cmdline>
J2VwaWtfcHl0aG9uJywgJy1waCcsICc3LjAnLCAnLXRuJywgJzgnLCAnLW1hJywgJzIwMCcsICctbWV0YWxfYmluZGluZycsICctaW1hZScsICc8aW5maWxlLm1hZT4nLCAnLW9tYWUnLCAnPG91dGZpbGUubWFlPic=

> <r_lp_tautomer_probability>
1

> <r_epik_Ionization_Penalty>
0.557868

> <r_epik_Ionization_Penalty_Charging>
0.557868

> <r_epik_Ionization_Penalty_Neutral>
1.99744e-07

> <r_epik_State_Penalty>
0.568774

> <r_epik_Charging_Adjusted_Penalty>
1.12664

> <i_epik_Tot_Q>
0

> <i_epik_Tot_abs_Q>
0

> <r_epik_Metal_State_Penalty>
0.289303

> <b_epik_Metal_Only>
0

> <s_lp_Force_Field>
OPLS_2005

> <r_lp_Energy>
10.2382

> <b_lp_Chiralities_Consistent>
1

> <s_lp_Variant>
AV-unprocessed.smi:2299-4

> <Gold.Version>
5.8.1

> <Gold.Id.Protein>
6NUR|6NUR_protein|mol2

> <Gold.PLP.Fitness>
38.4170

> <Gold.PLP.PLP>
-29.6339

> <Gold.PLP.part.hbond>
-3.0000

> <Gold.PLP.part.metal>
0.0000

> <Gold.PLP.part.buried>
-0.5554

> <Gold.PLP.part.nonpolar>
-25.2872

> <Gold.PLP.part.repulsive>
0.2509

> <Gold.PLP.ligand.clash>
0.0000

> <Gold.PLP.ligand.torsion>
0.1494

> <Gold.PLP.Chemscore.Hbond>
3.0000

> <Gold.PLP.Chemscore.CHOScore>
0.0000

> <Gold.PLP.Chemscore.Metal>
0.0000

> <Gold.Chemscore.Hbonds>
donor molecule, donor type, donor heavy atom, donor atom, acceptor molecule, acceptor atom, score
      L1  H    12    32       P1  7948  1.00
      L1  H    18    42       P1 10957  0.75
      P1  H  6896  6907       L1     5  0.60

> <Gold.PLP.Chemscore.Internal.Correction>
0.0819

> <Gold.Rescore>
     Score         DG    S(hbond)    S(metal)    S(lipo)     H(rot)  DE(clash)    DE(int)     intcor
     14.03     -16.93       2.41        0.00      66.30       1.70       0.22       2.69       ----

> <Gold.Chemscore.Fitness>
14.0279

> <Gold.Chemscore.DG>
-16.9342

> <Gold.Chemscore.ZeroCoef>
-5.4800

> <Gold.Chemscore.Hbond>
2.4102

> <Gold.Chemscore.Metal>
0.0000

> <Gold.Chemscore.Lipo>
66.2997

> <Gold.Chemscore.Internal_Hbond>
0.0000

> <Gold.Chemscore.DEClash>
0.2200

> <Gold.Chemscore.DEInternal>
2.6863

> <Gold.Chemscore.Rot>
1.7004

> <Gold.Chemscore.Internal.Correction>
   9.000000E+99

> <Gold.Chemscore.Hbonds>
donor molecule, donor type, donor heavy atom, donor atom, acceptor molecule, acceptor atom, score
      L1  H    12    32       P1  7948  0.74
      L1  H    18    42       P1 10957  0.43
      P1  H  6896  6907       L1     5  0.04

> <Gold.Chemscore.Hbond.Weighted>
-8.0502

> <Gold.Chemscore.Metal.Weighted>
-0.0000

> <Gold.Chemscore.Lipo.Weighted>
-7.7571

> <Gold.Chemscore.Internal_Hbond.Weighted>
0.0000

> <Gold.Chemscore.DEClash.Weighted>
0.2200

> <Gold.Chemscore.DEInternal.Weighted>
2.6863

> <Gold.Chemscore.Rot.Weighted>
4.3530

> <Gold.Chemscore.Internal.Correction.Weighted>
   9.000000E+99

> <Gold.Protein.RotatedTorsions>
[ 6907 6896 6895 6894 ] final -125.66 input  -60.11 | X-H torsion
[ 7974 7965 7964 7962 ] final   11.16 input  175.53 | X-H torsion
[ 8008 7997 7996 7995 ] final  140.41 input   59.86 | X-H torsion
[ 10167 10162 10161 10158 ] final  177.16 input  -65.29 | X-H torsion
[ 10718 10713 10712 10709 ] final   79.44 input   66.30 | X-H torsion
[ 10763 10752 10751 10750 ] final  127.31 input  -60.55 | X-H torsion
[ 11005 11000 10999 10996 ] final   23.31 input  -57.11 | X-H torsion

> <Gold.Protein.ActiveResidues>
 VAL166  LYS551  ARG553  GLY616  TRP617  ASP618  TYR619  PRO620  LYS621  CYS622 
 ASP623  PHE694  ASN695  SER759  ASP760  ASP761  ALA762  ILE779  LEU786  VAL792 
 PHE793  MET794  SER795  GLU796  ALA797  LYS798  CYS799  TRP800  GLU811  SER814 

> <Gold.Protein.RotatedAtoms>
  150.8890  133.7268  159.2909 H   0  0  0  0  0  0  0  0  0  0  0  0  # atno 6907 bound_to 6896
  151.4825  135.1051  159.9791 H   0  0  0  0  0  0  0  0  0  0  0  0  # atno 6908 bound_to 6896
  152.4808  133.8203  159.7105 H   0  0  0  0  0  0  0  0  0  0  0  0  # atno 6909 bound_to 6896
  146.2376  139.9526  142.8468 H   0  0  0  0  0  0  0  0  0  0  0  0  # atno 7974 bound_to 7965
  156.2979  140.2342  156.4396 H   0  0  0  0  0  0  0  0  0  0  0  0  # atno 8008 bound_to 7997
  154.8198  140.0438  157.1423 H   0  0  0  0  0  0  0  0  0  0  0  0  # atno 8009 bound_to 7997
  154.9328  140.3019  155.5162 H   0  0  0  0  0  0  0  0  0  0  0  0  # atno 8010 bound_to 7997
  139.5242  144.2831  152.0529 H   0  0  0  0  0  0  0  0  0  0  0  0  # atno 10167 bound_to 10162
  157.6776  130.9914  150.1932 H   0  0  0  0  0  0  0  0  0  0  0  0  # atno 10718 bound_to 10713
  153.7074  135.3273  155.3238 H   0  0  0  0  0  0  0  0  0  0  0  0  # atno 10763 bound_to 10752
  154.8395  135.4469  154.1348 H   0  0  0  0  0  0  0  0  0  0  0  0  # atno 10764 bound_to 10752
  153.2433  135.6973  153.7838 H   0  0  0  0  0  0  0  0  0  0  0  0  # atno 10765 bound_to 10752
  140.3710  134.2023  155.7667 H   0  0  0  0  0  0  0  0  0  0  0  0  # atno 11005 bound_to 11000
  145.1847  140.9783  143.4246 LP  0  0  0  0  0  0  0  0  0  0  0  0  # atno 17320 bound_to 7965
  144.9911  139.3689  143.6214 LP  0  0  0  0  0  0  0  0  0  0  0  0  # atno 17321 bound_to 7965
  140.2285  144.4393  150.6310 LP  0  0  0  0  0  0  0  0  0  0  0  0  # atno 17342 bound_to 10162
  140.6371  143.2197  151.6371 LP  0  0  0  0  0  0  0  0  0  0  0  0  # atno 17343 bound_to 10162
  156.2639  130.3714  149.8101 LP  0  0  0  0  0  0  0  0  0  0  0  0  # atno 17370 bound_to 10713
  156.5838  130.8477  151.3390 LP  0  0  0  0  0  0  0  0  0  0  0  0  # atno 17371 bound_to 10713
  141.1954  133.8105  157.0714 LP  0  0  0  0  0  0  0  0  0  0  0  0  # atno 17394 bound_to 11000
  140.0552  134.9784  157.1208 LP  0  0  0  0  0  0  0  0  0  0  0  0  # atno 17395 bound_to 11000

$$$$
