AV-unprocessed.smi:2445|AV-procd|sdf|9640|dock7
  -GOLD-   2272013273D 1   1.00000     0.00000
 Structure written by MMmdl.
 40 41  0  0  0  0  0  0  0  0  1 V2000
  152.3417  141.8296  158.5134 C   0  0  0  0  0  0  0  0  0  0  0  0
  151.5550  141.4677  157.2999 C   0  0  0  0  0  0  0  0  0  0  0  0
  150.6974  142.2670  156.5858 C   0  0  0  0  0  0  0  0  0  0  0  0
  150.1103  141.6285  155.4916 N   0  0  0  0  0  0  0  0  0  0  0  0
  150.5100  140.3605  155.3629 C   0  0  0  0  0  0  0  0  0  0  0  0
  150.0103  139.4433  154.2864 C   0  0  1  0  0  0  0  0  0  0  0  0
  150.8208  138.1414  154.2201 C   0  0  0  0  0  0  0  0  0  0  0  0
  148.4893  139.1824  154.3768 C   0  0  0  0  0  0  0  0  0  0  0  0
  148.0220  138.2059  153.3967 N   0  0  0  0  0  0  0  0  0  0  0  0
  146.7464  138.0477  153.0198 C   0  0  0  0  0  0  0  0  0  0  0  0
  145.8194  138.7596  153.4066 O   0  0  0  0  0  0  0  0  0  0  0  0
  146.5993  137.0018  152.1962 N   0  0  0  0  0  0  0  0  0  0  0  0
  145.3210  136.5097  151.6932 C   0  0  1  0  0  0  0  0  0  0  0  0
  145.4818  135.2166  150.9215 C   0  0  0  0  0  0  0  0  0  0  0  0
  144.0898  134.6005  151.0313 C   0  0  0  0  0  0  0  0  0  0  0  0
  143.5339  135.0844  152.2502 O   0  0  0  0  0  0  0  0  0  0  0  0
  144.3859  136.0696  152.8268 C   0  0  2  0  0  0  0  0  0  0  0  0
  143.5508  137.1999  153.4412 C   0  0  0  0  0  0  0  0  0  0  0  0
  151.6485  139.8674  156.6132 S   0  0  0  0  0  0  0  0  0  0  0  0
  152.2869  142.9002  158.7128 H   0  0  0  0  0  0  0  0  0  0  0  0
  153.3917  141.5654  158.3874 H   0  0  0  0  0  0  0  0  0  0  0  0
  151.9632  141.3032  159.3897 H   0  0  0  0  0  0  0  0  0  0  0  0
  150.4464  143.2984  156.7849 H   0  0  0  0  0  0  0  0  0  0  0  0
  150.1868  139.9551  153.3391 H   0  0  0  0  0  0  0  0  0  0  0  0
  151.8812  138.3474  154.0707 H   0  0  0  0  0  0  0  0  0  0  0  0
  150.4872  137.5136  153.3935 H   0  0  0  0  0  0  0  0  0  0  0  0
  150.7197  137.5612  155.1377 H   0  0  0  0  0  0  0  0  0  0  0  0
  148.2131  138.8643  155.3831 H   0  0  0  0  0  0  0  0  0  0  0  0
  147.9478  140.1099  154.1883 H   0  0  0  0  0  0  0  0  0  0  0  0
  148.7114  137.5709  153.0219 H   0  0  0  0  0  0  0  0  0  0  0  0
  147.4229  136.4789  151.9368 H   0  0  0  0  0  0  0  0  0  0  0  0
  144.8285  137.2456  151.0539 H   0  0  0  0  0  0  0  0  0  0  0  0
  145.8000  135.3686  149.8897 H   0  0  0  0  0  0  0  0  0  0  0  0
  146.2094  134.5664  151.4100 H   0  0  0  0  0  0  0  0  0  0  0  0
  143.4588  134.9384  150.2084 H   0  0  0  0  0  0  0  0  0  0  0  0
  144.1166  133.5108  151.0107 H   0  0  0  0  0  0  0  0  0  0  0  0
  144.9631  135.5744  153.6096 H   0  0  0  0  0  0  0  0  0  0  0  0
  144.1874  137.9440  153.9203 H   0  0  0  0  0  0  0  0  0  0  0  0
  142.8701  136.8118  154.1989 H   0  0  0  0  0  0  0  0  0  0  0  0
  142.9528  137.7066  152.6834 H   0  0  0  0  0  0  0  0  0  0  0  0
  1  2  1  0  0  0  0
  1 20  1  0  0  0  0
  1 21  1  0  0  0  0
  1 22  1  0  0  0  0
  2 19  1  0  0  0  0
  2  3  2  0  0  0  0
  3  4  1  0  0  0  0
  3 23  1  0  0  0  0
  4  5  2  0  0  0  0
  5  6  1  0  0  0  0
  5 19  1  0  0  0  0
  6  7  1  0  0  0  0
  6  8  1  0  0  0  0
  6 24  1  0  0  0  0
  7 25  1  0  0  0  0
  7 26  1  0  0  0  0
  7 27  1  0  0  0  0
  8  9  1  0  0  0  0
  8 28  1  0  0  0  0
  8 29  1  0  0  0  0
  9 10  1  0  0  0  0
  9 30  1  0  0  0  0
 10 11  2  0  0  0  0
 10 12  1  0  0  0  0
 12 13  1  0  0  0  0
 12 31  1  0  0  0  0
 13 17  1  0  0  0  0
 13 14  1  0  0  0  0
 13 32  1  0  0  0  0
 14 15  1  0  0  0  0
 14 33  1  0  0  0  0
 14 34  1  0  0  0  0
 15 16  1  0  0  0  0
 15 35  1  0  0  0  0
 15 36  1  0  0  0  0
 16 17  1  0  0  0  0
 17 18  1  0  0  0  0
 17 37  1  0  0  0  0
 18 38  1  0  0  0  0
 18 39  1  0  0  0  0
 18 40  1  0  0  0  0
M  END
> <s_m_source_file>
AV-unprocessed.smi

> <i_m_source_file_index>
2445

> <i_lp_mmshare_version>
43012

> <i_f3d_flags>
0

> <s_epik_input>
W0NIM11jMVtjSF1uYyhzMSlbQ0BIXShbQ0gzXSlbQ0gyXVtOSF1DKD1PKVtOSF1bQ0BASF0yW0NIMl1bQ0gyXU9bQ0BIXTJbQ0gzXQ==

> <s_epik_cmdline>
J2VwaWtfcHl0aG9uJywgJy1waCcsICc3LjAnLCAnLXRuJywgJzgnLCAnLW1hJywgJzIwMCcsICctbWV0YWxfYmluZGluZycsICctaW1hZScsICc8aW5maWxlLm1hZT4nLCAnLW9tYWUnLCAnPG91dGZpbGUubWFlPic=

> <r_epik_Ionization_Penalty>
0.000649483

> <r_epik_Ionization_Penalty_Charging>
0

> <r_epik_Ionization_Penalty_Neutral>
0.000649483

> <r_epik_State_Penalty>
0.000379895

> <r_epik_Charging_Adjusted_Penalty>
0.000379895

> <i_epik_Tot_Q>
0

> <i_epik_Tot_abs_Q>
0

> <r_epik_Metal_State_Penalty>
-0

> <b_epik_Metal_Only>
0

> <s_lp_Force_Field>
OPLS_2005

> <r_lp_Energy>
5.35471

> <b_lp_Chiralities_Consistent>
1

> <s_lp_Variant>
AV-unprocessed.smi:2445-8

> <Gold.Version>
5.8.1

> <Gold.Id.Protein>
6NUR|6NUR_protein|mol2

> <Gold.PLP.Fitness>
37.7957

> <Gold.PLP.PLP>
-29.7130

> <Gold.PLP.part.hbond>
-1.8403

> <Gold.PLP.part.metal>
0.0000

> <Gold.PLP.part.buried>
-3.7774

> <Gold.PLP.part.nonpolar>
-26.4864

> <Gold.PLP.part.repulsive>
1.6698

> <Gold.PLP.ligand.clash>
0.0000

> <Gold.PLP.ligand.torsion>
0.3209

> <Gold.PLP.Chemscore.Hbond>
1.8960

> <Gold.PLP.Chemscore.CHOScore>
0.9740

> <Gold.PLP.Chemscore.Metal>
0.0000

> <Gold.Chemscore.Hbonds>
donor molecule, donor type, donor heavy atom, donor atom, acceptor molecule, acceptor atom, score
      L1  H     9    30       P1  7948  0.90
      L1  H    12    31       P1  7948  1.00
      L1  C     3    23       P1  8028  1.00

> <Gold.PLP.Chemscore.Internal.Correction>
0.1145

> <Gold.Rescore>
     Score         DG    S(hbond)    S(metal)    S(lipo)     H(rot)  DE(clash)    DE(int)     intcor
     14.69     -16.96       1.92        0.00      76.97       1.53       0.65       1.61       ----

> <Gold.Chemscore.Fitness>
14.6931

> <Gold.Chemscore.DG>
-16.9598

> <Gold.Chemscore.ZeroCoef>
-5.4800

> <Gold.Chemscore.Hbond>
1.9156

> <Gold.Chemscore.Metal>
0.0000

> <Gold.Chemscore.Lipo>
76.9670

> <Gold.Chemscore.Internal_Hbond>
0.0000

> <Gold.Chemscore.DEClash>
0.6527

> <Gold.Chemscore.DEInternal>
1.6140

> <Gold.Chemscore.Rot>
1.5325

> <Gold.Chemscore.Internal.Correction>
   9.000000E+99

> <Gold.Chemscore.Hbonds>
donor molecule, donor type, donor heavy atom, donor atom, acceptor molecule, acceptor atom, score
      L1  H     9    30       P1  7948  0.87
      L1  H    12    31       P1  7948  0.92

> <Gold.Chemscore.Hbond.Weighted>
-6.3980

> <Gold.Chemscore.Metal.Weighted>
-0.0000

> <Gold.Chemscore.Lipo.Weighted>
-9.0051

> <Gold.Chemscore.Internal_Hbond.Weighted>
0.0000

> <Gold.Chemscore.DEClash.Weighted>
0.6527

> <Gold.Chemscore.DEInternal.Weighted>
1.6140

> <Gold.Chemscore.Rot.Weighted>
3.9233

> <Gold.Chemscore.Internal.Correction.Weighted>
   9.000000E+99

> <Gold.Protein.RotatedTorsions>
[ 6907 6896 6895 6894 ] final   19.19 input  -60.11 | X-H torsion
[ 7974 7965 7964 7962 ] final  148.08 input  175.53 | X-H torsion
[ 8008 7997 7996 7995 ] final -175.47 input   59.86 | X-H torsion
[ 10167 10162 10161 10158 ] final   63.86 input  -65.29 | X-H torsion
[ 10718 10713 10712 10709 ] final   76.61 input   66.30 | X-H torsion
[ 10763 10752 10751 10750 ] final  143.62 input  -60.55 | X-H torsion
[ 11005 11000 10999 10996 ] final -108.04 input  -57.11 | X-H torsion

> <Gold.Protein.ActiveResidues>
 VAL166  LYS551  ARG553  GLY616  TRP617  ASP618  TYR619  PRO620  LYS621  CYS622 
 ASP623  PHE694  ASN695  SER759  ASP760  ASP761  ALA762  ILE779  LEU786  VAL792 
 PHE793  MET794  SER795  GLU796  ALA797  LYS798  CYS799  TRP800  GLU811  SER814 

> <Gold.Protein.RotatedAtoms>
  151.8770  135.0468  160.0484 H   0  0  0  0  0  0  0  0  0  0  0  0  # atno 6907 bound_to 6896
  152.2543  133.5237  159.5352 H   0  0  0  0  0  0  0  0  0  0  0  0  # atno 6908 bound_to 6896
  150.7094  134.0833  159.3948 H   0  0  0  0  0  0  0  0  0  0  0  0  # atno 6909 bound_to 6896
  144.8541  139.6109  143.5960 H   0  0  0  0  0  0  0  0  0  0  0  0  # atno 7974 bound_to 7965
  155.9830  140.1185  157.0709 H   0  0  0  0  0  0  0  0  0  0  0  0  # atno 8008 bound_to 7997
  154.4188  140.1141  156.5529 H   0  0  0  0  0  0  0  0  0  0  0  0  # atno 8009 bound_to 7997
  155.6446  140.3473  155.4729 H   0  0  0  0  0  0  0  0  0  0  0  0  # atno 8010 bound_to 7997
  140.1284  144.4666  150.6879 H   0  0  0  0  0  0  0  0  0  0  0  0  # atno 10167 bound_to 10162
  157.6680  130.9783  150.1522 H   0  0  0  0  0  0  0  0  0  0  0  0  # atno 10718 bound_to 10713
  153.9754  135.2946  155.3424 H   0  0  0  0  0  0  0  0  0  0  0  0  # atno 10763 bound_to 10752
  154.7299  135.5072  153.8950 H   0  0  0  0  0  0  0  0  0  0  0  0  # atno 10764 bound_to 10752
  153.0880  135.6699  154.0024 H   0  0  0  0  0  0  0  0  0  0  0  0  # atno 10765 bound_to 10752
  141.0922  133.9034  157.2047 H   0  0  0  0  0  0  0  0  0  0  0  0  # atno 11005 bound_to 11000
  146.2809  139.6874  142.9230 LP  0  0  0  0  0  0  0  0  0  0  0  0  # atno 17320 bound_to 7965
  145.4441  141.0424  143.2841 LP  0  0  0  0  0  0  0  0  0  0  0  0  # atno 17321 bound_to 7965
  140.6831  143.2336  151.5331 LP  0  0  0  0  0  0  0  0  0  0  0  0  # atno 17342 bound_to 10162
  139.5532  144.2342  152.1567 LP  0  0  0  0  0  0  0  0  0  0  0  0  # atno 17343 bound_to 10162
  156.2319  130.3683  149.8435 LP  0  0  0  0  0  0  0  0  0  0  0  0  # atno 17370 bound_to 10713
  156.6260  130.8646  151.3485 LP  0  0  0  0  0  0  0  0  0  0  0  0  # atno 17371 bound_to 10713
  139.9751  135.0116  156.9610 LP  0  0  0  0  0  0  0  0  0  0  0  0  # atno 17394 bound_to 11000
  140.5224  134.0894  155.7295 LP  0  0  0  0  0  0  0  0  0  0  0  0  # atno 17395 bound_to 11000

$$$$
