AV-unprocessed.smi:2647|AV-procd|sdf|10283|dock7
  -GOLD-   2272014293D 1   1.00000     0.00000
 Structure written by MMmdl.
 32 33  0  0  0  0  0  0  0  0  1 V2000
  144.6939  137.0527  152.3828 O   0  0  0  0  0  0  0  0  0  0  0  0
  145.8780  136.7490  152.2349 C   0  0  0  0  0  0  0  0  0  0  0  0
  146.8950  137.5583  152.5637 N   0  0  0  0  0  0  0  0  0  0  0  0
  146.7519  138.8909  153.1412 C   0  0  0  0  0  0  0  0  0  0  0  0
  148.0512  139.3867  153.7998 C   0  0  0  0  0  0  0  0  0  0  0  0
  148.8154  138.2866  154.5608 C   0  0  0  0  0  0  0  0  0  0  0  0
  150.1412  138.7519  154.9794 N   0  0  0  0  0  0  0  0  0  0  0  0
  151.2561  138.0118  154.9024 C   0  0  0  0  0  0  0  0  0  0  0  0
  151.3352  136.8541  154.4924 O   0  0  0  0  0  0  0  0  0  0  0  0
  152.4672  138.7956  155.3898 C   0  0  0  0  0  0  0  0  0  0  0  0
  151.8701  140.1546  155.7693 C   0  0  0  0  0  0  0  0  0  0  0  0
  150.3907  139.9814  155.4518 C   0  0  0  0  0  0  0  0  0  0  0  0
  149.5665  140.8803  155.6170 O   0  0  0  0  0  0  0  0  0  0  0  0
  146.3264  135.5839  151.7353 N   0  0  0  0  0  0  0  0  0  0  0  0
  145.5698  134.4806  151.2596 C   0  0  0  0  0  0  0  0  0  0  0  0
  146.1147  133.3912  150.6955 N   0  0  0  0  0  0  0  0  0  0  0  0
  145.1519  132.4616  150.3241 N   0  0  0  0  0  0  0  0  0  0  0  0
  143.9205  132.8859  150.6216 C   0  0  0  0  0  0  0  0  0  0  0  0
  143.8166  134.4627  151.3855 S   0  0  0  0  0  0  0  0  0  0  0  0
  147.8365  137.2291  152.4084 H   0  0  0  0  0  0  0  0  0  0  0  0
  146.4546  139.5764  152.3472 H   0  0  0  0  0  0  0  0  0  0  0  0
  145.9385  138.8935  153.8688 H   0  0  0  0  0  0  0  0  0  0  0  0
  148.6965  139.8012  153.0246 H   0  0  0  0  0  0  0  0  0  0  0  0
  147.8261  140.2128  154.4758 H   0  0  0  0  0  0  0  0  0  0  0  0
  148.2463  137.9646  155.4344 H   0  0  0  0  0  0  0  0  0  0  0  0
  148.9126  137.3997  153.9321 H   0  0  0  0  0  0  0  0  0  0  0  0
  152.9253  138.2989  156.2457 H   0  0  0  0  0  0  0  0  0  0  0  0
  153.2092  138.8854  154.5956 H   0  0  0  0  0  0  0  0  0  0  0  0
  152.0108  140.3795  156.8270 H   0  0  0  0  0  0  0  0  0  0  0  0
  152.2956  140.9651  155.1767 H   0  0  0  0  0  0  0  0  0  0  0  0
  147.3284  135.4754  151.6833 H   0  0  0  0  0  0  0  0  0  0  0  0
  143.0671  132.2661  150.3900 H   0  0  0  0  0  0  0  0  0  0  0  0
  1  2  2  0  0  0  0
  2  3  1  0  0  0  0
  2 14  1  0  0  0  0
  3  4  1  0  0  0  0
  3 20  1  0  0  0  0
  4  5  1  0  0  0  0
  4 21  1  0  0  0  0
  4 22  1  0  0  0  0
  5  6  1  0  0  0  0
  5 23  1  0  0  0  0
  5 24  1  0  0  0  0
  6  7  1  0  0  0  0
  6 25  1  0  0  0  0
  6 26  1  0  0  0  0
  7 12  1  0  0  0  0
  7  8  1  0  0  0  0
  8  9  2  0  0  0  0
  8 10  1  0  0  0  0
 10 11  1  0  0  0  0
 10 27  1  0  0  0  0
 10 28  1  0  0  0  0
 11 12  1  0  0  0  0
 11 29  1  0  0  0  0
 11 30  1  0  0  0  0
 12 13  2  0  0  0  0
 14 15  1  0  0  0  0
 14 31  1  0  0  0  0
 15 19  1  0  0  0  0
 15 16  2  0  0  0  0
 16 17  1  0  0  0  0
 17 18  2  0  0  0  0
 18 19  1  0  0  0  0
 18 32  1  0  0  0  0
M  END
> <s_m_source_file>
AV-unprocessed.smi

> <i_m_source_file_index>
2647

> <i_lp_mmshare_version>
43012

> <i_f3d_flags>
0

> <s_epik_input>
czFbY0hdbm5jMVtOSF1DKD1PKVtOSF1bQ0gyXVtDSDJdW0NIMl1OMkMoPU8pW0NIMl1bQ0gyXUMyPU8=

> <s_epik_cmdline>
J2VwaWtfcHl0aG9uJywgJy1waCcsICc3LjAnLCAnLXRuJywgJzgnLCAnLW1hJywgJzIwMCcsICctbWV0YWxfYmluZGluZycsICctaW1hZScsICc8aW5maWxlLm1hZT4nLCAnLW9tYWUnLCAnPG91dGZpbGUubWFlPic=

> <r_lp_tautomer_probability>
1

> <r_epik_Ionization_Penalty>
0.00175263

> <r_epik_Ionization_Penalty_Charging>
0

> <r_epik_Ionization_Penalty_Neutral>
0.00175263

> <r_epik_State_Penalty>
-0

> <r_epik_Charging_Adjusted_Penalty>
0

> <i_epik_Tot_Q>
0

> <i_epik_Tot_abs_Q>
0

> <r_epik_Metal_State_Penalty>
0.330668

> <b_epik_Metal_Only>
0

> <s_lp_Force_Field>
OPLS_2005

> <r_lp_Energy>
10.1998

> <b_lp_Chiralities_Consistent>
1

> <s_lp_Variant>
AV-unprocessed.smi:2647-1

> <Gold.Version>
5.8.1

> <Gold.Id.Protein>
6NUR|6NUR_protein|mol2

> <Gold.PLP.Fitness>
38.3565

> <Gold.PLP.PLP>
-30.3719

> <Gold.PLP.part.hbond>
-3.0000

> <Gold.PLP.part.metal>
0.0000

> <Gold.PLP.part.buried>
-4.5989

> <Gold.PLP.part.nonpolar>
-24.6646

> <Gold.PLP.part.repulsive>
1.4483

> <Gold.PLP.ligand.clash>
0.0000

> <Gold.PLP.ligand.torsion>
0.5137

> <Gold.PLP.Chemscore.Hbond>
2.9920

> <Gold.PLP.Chemscore.CHOScore>
0.0000

> <Gold.PLP.Chemscore.Metal>
0.0000

> <Gold.Chemscore.Hbonds>
donor molecule, donor type, donor heavy atom, donor atom, acceptor molecule, acceptor atom, score
      L1  H     3    20       P1  7948  1.00
      L1  H    14    31       P1  7948  0.98
      P1  H 10752 10765       L1     9  0.94

> <Gold.PLP.Chemscore.Internal.Correction>
0.0360

> <Gold.Rescore>
     Score         DG    S(hbond)    S(metal)    S(lipo)     H(rot)  DE(clash)    DE(int)     intcor
     10.88     -14.02       2.92        0.00      41.31       2.36       0.13       3.00       ----

> <Gold.Chemscore.Fitness>
10.8807

> <Gold.Chemscore.DG>
-14.0182

> <Gold.Chemscore.ZeroCoef>
-5.4800

> <Gold.Chemscore.Hbond>
2.9203

> <Gold.Chemscore.Metal>
0.0000

> <Gold.Chemscore.Lipo>
41.3113

> <Gold.Chemscore.Internal_Hbond>
0.0000

> <Gold.Chemscore.DEClash>
0.1334

> <Gold.Chemscore.DEInternal>
3.0041

> <Gold.Chemscore.Rot>
2.3629

> <Gold.Chemscore.Internal.Correction>
   9.000000E+99

> <Gold.Chemscore.Hbonds>
donor molecule, donor type, donor heavy atom, donor atom, acceptor molecule, acceptor atom, score
      L1  H     3    20       P1  7948  0.96
      L1  H    14    31       P1  7948  0.92
      P1  H 10752 10765       L1     9  0.88

> <Gold.Chemscore.Hbond.Weighted>
-9.7538

> <Gold.Chemscore.Metal.Weighted>
-0.0000

> <Gold.Chemscore.Lipo.Weighted>
-4.8334

> <Gold.Chemscore.Internal_Hbond.Weighted>
0.0000

> <Gold.Chemscore.DEClash.Weighted>
0.1334

> <Gold.Chemscore.DEInternal.Weighted>
3.0041

> <Gold.Chemscore.Rot.Weighted>
6.0490

> <Gold.Chemscore.Internal.Correction.Weighted>
   9.000000E+99

> <Gold.Protein.RotatedTorsions>
[ 6907 6896 6895 6894 ] final  -11.64 input  -60.11 | X-H torsion
[ 7974 7965 7964 7962 ] final  -90.61 input  175.53 | X-H torsion
[ 8008 7997 7996 7995 ] final   72.85 input   59.86 | X-H torsion
[ 10167 10162 10161 10158 ] final   43.34 input  -65.29 | X-H torsion
[ 10718 10713 10712 10709 ] final   54.75 input   66.30 | X-H torsion
[ 10763 10752 10751 10750 ] final  149.91 input  -60.55 | X-H torsion
[ 11005 11000 10999 10996 ] final  -54.45 input  -57.11 | X-H torsion

> <Gold.Protein.ActiveResidues>
 VAL166  LYS551  ARG553  GLY616  TRP617  ASP618  TYR619  PRO620  LYS621  CYS622 
 ASP623  PHE694  ASN695  SER759  ASP760  ASP761  ALA762  ILE779  LEU786  VAL792 
 PHE793  MET794  SER795  GLU796  ALA797  LYS798  CYS799  TRP800  GLU811  SER814 

> <Gold.Protein.RotatedAtoms>
  151.3830  135.0943  159.9501 H   0  0  0  0  0  0  0  0  0  0  0  0  # atno 6907 bound_to 6896
  152.5102  133.9054  159.7472 H   0  0  0  0  0  0  0  0  0  0  0  0  # atno 6908 bound_to 6896
  150.9491  133.6514  159.2804 H   0  0  0  0  0  0  0  0  0  0  0  0  # atno 6909 bound_to 6896
  145.4242  140.9553  143.2164 H   0  0  0  0  0  0  0  0  0  0  0  0  # atno 7974 bound_to 7965
  155.7749  140.3483  155.5266 H   0  0  0  0  0  0  0  0  0  0  0  0  # atno 8008 bound_to 7997
  155.8785  140.0998  157.1522 H   0  0  0  0  0  0  0  0  0  0  0  0  # atno 8009 bound_to 7997
  154.4023  140.1327  156.4154 H   0  0  0  0  0  0  0  0  0  0  0  0  # atno 8010 bound_to 7997
  140.3453  144.2419  150.6151 H   0  0  0  0  0  0  0  0  0  0  0  0  # atno 10167 bound_to 10162
  157.5284  130.8613  149.8654 H   0  0  0  0  0  0  0  0  0  0  0  0  # atno 10718 bound_to 10713
  154.0788  135.2861  155.3294 H   0  0  0  0  0  0  0  0  0  0  0  0  # atno 10763 bound_to 10752
  154.6697  135.5304  153.8126 H   0  0  0  0  0  0  0  0  0  0  0  0  # atno 10764 bound_to 10752
  153.0457  135.6554  154.0965 H   0  0  0  0  0  0  0  0  0  0  0  0  # atno 10765 bound_to 10752
  141.1026  133.6616  156.4323 H   0  0  0  0  0  0  0  0  0  0  0  0  # atno 11005 bound_to 11000
  144.8225  139.5767  143.6980 LP  0  0  0  0  0  0  0  0  0  0  0  0  # atno 17320 bound_to 7965
  146.2641  139.6478  142.9342 LP  0  0  0  0  0  0  0  0  0  0  0  0  # atno 17321 bound_to 7965
  140.5270  143.2252  151.8299 LP  0  0  0  0  0  0  0  0  0  0  0  0  # atno 17342 bound_to 10162
  139.4834  144.4767  151.9358 LP  0  0  0  0  0  0  0  0  0  0  0  0  # atno 17343 bound_to 10162
  156.0404  130.3740  150.1450 LP  0  0  0  0  0  0  0  0  0  0  0  0  # atno 17370 bound_to 10713
  156.9636  130.9812  151.3474 LP  0  0  0  0  0  0  0  0  0  0  0  0  # atno 17371 bound_to 10713
  140.4982  134.6510  157.5238 LP  0  0  0  0  0  0  0  0  0  0  0  0  # atno 17394 bound_to 11000
  139.9884  134.7025  155.9733 LP  0  0  0  0  0  0  0  0  0  0  0  0  # atno 17395 bound_to 11000

$$$$
