AV-unprocessed.smi:591|AV-procd|sdf|3009|dock7
  -GOLD-   2262023513D 1   1.00000     0.00000
 Structure written by MMmdl.
 42 43  0  0  0  0  0  0  0  0  1 V2000
  152.5019  139.9270  155.4171 O   0  0  0  0  0  0  0  0  0  0  0  0
  151.3914  139.4133  155.5603 C   0  0  0  0  0  0  0  0  0  0  0  0
  150.6765  138.7374  154.3813 C   0  0  0  0  0  0  0  0  0  0  0  0
  149.2673  139.1428  154.2436 N   0  0  0  0  0  0  0  0  0  0  0  0
  148.2969  138.1237  154.3136 C   0  0  0  0  0  0  0  0  0  0  0  0
  146.9762  138.3597  154.1950 C   0  0  0  0  0  0  0  0  0  0  0  0
  145.9487  137.2474  154.3364 C   0  0  0  0  0  0  0  0  0  0  0  0
  146.0084  136.6894  155.5459 F   0  0  0  0  0  0  0  0  0  0  0  0
  144.7224  137.7402  154.1668 F   0  0  0  0  0  0  0  0  0  0  0  0
  146.1423  136.2933  153.4247 F   0  0  0  0  0  0  0  0  0  0  0  0
  146.5815  139.7437  154.0197 C   0  0  0  0  0  0  0  0  0  0  0  0
  147.4958  140.7318  153.9638 C   0  0  0  0  0  0  0  0  0  0  0  0
  148.9301  140.4568  154.0760 C   0  0  0  0  0  0  0  0  0  0  0  0
  149.7750  141.3509  154.0238 O   0  0  0  0  0  0  0  0  0  0  0  0
  150.7268  139.4204  156.7243 N   0  0  0  0  0  0  0  0  0  0  0  0
  151.2310  140.0134  157.9549 C   0  0  0  0  0  0  0  0  0  0  0  0
  151.8529  141.3896  157.6754 C   0  0  0  0  0  0  0  0  0  0  0  0
  152.1012  142.1924  158.9418 C   0  0  0  0  0  0  0  0  0  0  0  0
  151.7755  143.4967  159.0347 C   0  0  0  0  0  0  0  0  0  0  0  0
  151.9868  144.3430  160.2778 C   0  0  0  0  0  0  0  0  0  0  0  0
  152.2899  143.4918  161.5223 C   0  0  0  0  0  0  0  0  0  0  0  0
  153.2860  142.3716  161.1976 C   0  0  0  0  0  0  0  0  0  0  0  0
  152.7408  141.4376  160.1023 C   0  0  0  0  0  0  0  0  0  0  0  0
  151.2200  138.9492  153.4584 H   0  0  0  0  0  0  0  0  0  0  0  0
  150.7516  137.6572  154.5131 H   0  0  0  0  0  0  0  0  0  0  0  0
  148.6967  137.1342  154.4815 H   0  0  0  0  0  0  0  0  0  0  0  0
  145.5345  139.9928  153.9290 H   0  0  0  0  0  0  0  0  0  0  0  0
  147.1652  141.7518  153.8315 H   0  0  0  0  0  0  0  0  0  0  0  0
  149.8171  138.9834  156.7614 H   0  0  0  0  0  0  0  0  0  0  0  0
  150.4123  140.1111  158.6699 H   0  0  0  0  0  0  0  0  0  0  0  0
  151.9692  139.3427  158.3967 H   0  0  0  0  0  0  0  0  0  0  0  0
  152.7990  141.2743  157.1452 H   0  0  0  0  0  0  0  0  0  0  0  0
  151.1965  141.9561  157.0132 H   0  0  0  0  0  0  0  0  0  0  0  0
  151.3422  144.0046  158.1853 H   0  0  0  0  0  0  0  0  0  0  0  0
  152.8104  145.0299  160.0814 H   0  0  0  0  0  0  0  0  0  0  0  0
  151.0999  144.9524  160.4531 H   0  0  0  0  0  0  0  0  0  0  0  0
  152.6753  144.1245  162.3223 H   0  0  0  0  0  0  0  0  0  0  0  0
  151.3652  143.0500  161.8961 H   0  0  0  0  0  0  0  0  0  0  0  0
  154.2258  142.8141  160.8643 H   0  0  0  0  0  0  0  0  0  0  0  0
  153.5168  141.7971  162.0951 H   0  0  0  0  0  0  0  0  0  0  0  0
  151.9914  140.7707  160.5295 H   0  0  0  0  0  0  0  0  0  0  0  0
  153.5480  140.8072  159.7281 H   0  0  0  0  0  0  0  0  0  0  0  0
  1  2  2  0  0  0  0
  2  3  1  0  0  0  0
  2 15  1  0  0  0  0
  3  4  1  0  0  0  0
  3 24  1  0  0  0  0
  3 25  1  0  0  0  0
  4 13  1  0  0  0  0
  4  5  1  0  0  0  0
  5  6  2  0  0  0  0
  5 26  1  0  0  0  0
  6  7  1  0  0  0  0
  6 11  1  0  0  0  0
  7  8  1  0  0  0  0
  7  9  1  0  0  0  0
  7 10  1  0  0  0  0
 11 12  2  0  0  0  0
 11 27  1  0  0  0  0
 12 13  1  0  0  0  0
 12 28  1  0  0  0  0
 13 14  2  0  0  0  0
 15 16  1  0  0  0  0
 15 29  1  0  0  0  0
 16 17  1  0  0  0  0
 16 30  1  0  0  0  0
 16 31  1  0  0  0  0
 17 18  1  0  0  0  0
 17 32  1  0  0  0  0
 17 33  1  0  0  0  0
 18 23  1  0  0  0  0
 18 19  2  0  0  0  0
 19 20  1  0  0  0  0
 19 34  1  0  0  0  0
 20 21  1  0  0  0  0
 20 35  1  0  0  0  0
 20 36  1  0  0  0  0
 21 22  1  0  0  0  0
 21 37  1  0  0  0  0
 21 38  1  0  0  0  0
 22 23  1  0  0  0  0
 22 39  1  0  0  0  0
 22 40  1  0  0  0  0
 23 41  1  0  0  0  0
 23 42  1  0  0  0  0
M  END
> <s_m_source_file>
AV-unprocessed.smi

> <i_m_source_file_index>
591

> <i_lp_mmshare_version>
43012

> <i_f3d_flags>
0

> <s_epik_input>
Tz1jMVtjSF1bY0hdYyhDKEYpKEYpRilbY0hdbjFbQ0gyXUMoPU8pW05IXVtDSDJdW0NIMl1DMj1bQ0hdW0NIMl1bQ0gyXVtDSDJdW0NIMl0y

> <s_epik_cmdline>
J2VwaWtfcHl0aG9uJywgJy1waCcsICc3LjAnLCAnLXRuJywgJzgnLCAnLW1hJywgJzIwMCcsICctbWV0YWxfYmluZGluZycsICctaW1hZScsICc8aW5maWxlLm1hZT4nLCAnLW9tYWUnLCAnPG91dGZpbGUubWFlPic=

> <r_lp_tautomer_probability>
1

> <r_epik_Ionization_Penalty>
3.65086e-08

> <r_epik_Ionization_Penalty_Charging>
1.84051e-08

> <r_epik_Ionization_Penalty_Neutral>
1.81035e-08

> <r_epik_State_Penalty>
-0

> <r_epik_Charging_Adjusted_Penalty>
1.84051e-08

> <i_epik_Tot_Q>
0

> <i_epik_Tot_abs_Q>
0

> <r_epik_Metal_State_Penalty>
-0

> <b_epik_Metal_Only>
0

> <s_lp_Force_Field>
OPLS_2005

> <r_lp_Energy>
19.2896

> <b_lp_Chiralities_Consistent>
1

> <s_lp_Variant>
AV-unprocessed.smi:591-1

> <Gold.Version>
5.8.1

> <Gold.Id.Protein>
6NUR|6NUR_protein|mol2

> <Gold.PLP.Fitness>
46.8140

> <Gold.PLP.PLP>
-41.9237

> <Gold.PLP.part.hbond>
-4.0000

> <Gold.PLP.part.metal>
0.0000

> <Gold.PLP.part.buried>
-1.8490

> <Gold.PLP.part.nonpolar>
-35.4262

> <Gold.PLP.part.repulsive>
0.2337

> <Gold.PLP.ligand.clash>
0.4661

> <Gold.PLP.ligand.torsion>
0.5192

> <Gold.PLP.Chemscore.Hbond>
1.9684

> <Gold.PLP.Chemscore.CHOScore>
0.1305

> <Gold.PLP.Chemscore.Metal>
0.0000

> <Gold.Chemscore.Hbonds>
donor molecule, donor type, donor heavy atom, donor atom, acceptor molecule, acceptor atom, score
      P1  H  7989  7998       L1    14  0.29
      P1  H  7997  8010       L1     1  1.00
      P1  H  8011  8017       L1    14  0.70
      L1  C     5    26       P1  7948  0.17

> <Gold.PLP.Chemscore.Internal.Correction>
0.0981

> <Gold.Rescore>
     Score         DG    S(hbond)    S(metal)    S(lipo)     H(rot)  DE(clash)    DE(int)     intcor
     15.24     -19.44       2.09        0.00     102.17       1.94       1.19       3.01       ----

> <Gold.Chemscore.Fitness>
15.2434

> <Gold.Chemscore.DG>
-19.4388

> <Gold.Chemscore.ZeroCoef>
-5.4800

> <Gold.Chemscore.Hbond>
2.0865

> <Gold.Chemscore.Metal>
0.0000

> <Gold.Chemscore.Lipo>
102.1695

> <Gold.Chemscore.Internal_Hbond>
0.0000

> <Gold.Chemscore.DEClash>
1.1850

> <Gold.Chemscore.DEInternal>
3.0104

> <Gold.Chemscore.Rot>
1.9390

> <Gold.Chemscore.Internal.Correction>
   9.000000E+99

> <Gold.Chemscore.Hbonds>
donor molecule, donor type, donor heavy atom, donor atom, acceptor molecule, acceptor atom, score
      P1  H  7989  7998       L1    14  0.29
      P1  H  7997  8010       L1     1  0.96
      P1  H  8011  8017       L1    14  0.63

> <Gold.Chemscore.Hbond.Weighted>
-6.9689

> <Gold.Chemscore.Metal.Weighted>
-0.0000

> <Gold.Chemscore.Lipo.Weighted>
-11.9538

> <Gold.Chemscore.Internal_Hbond.Weighted>
0.0000

> <Gold.Chemscore.DEClash.Weighted>
1.1850

> <Gold.Chemscore.DEInternal.Weighted>
3.0104

> <Gold.Chemscore.Rot.Weighted>
4.9639

> <Gold.Chemscore.Internal.Correction.Weighted>
   9.000000E+99

> <Gold.Protein.RotatedTorsions>
[ 6907 6896 6895 6894 ] final   75.62 input  -60.11 | X-H torsion
[ 7974 7965 7964 7962 ] final  -63.09 input  175.53 | X-H torsion
[ 8008 7997 7996 7995 ] final   93.00 input   59.86 | X-H torsion
[ 10167 10162 10161 10158 ] final  -43.21 input  -65.29 | X-H torsion
[ 10718 10713 10712 10709 ] final  131.60 input   66.30 | X-H torsion
[ 10763 10752 10751 10750 ] final   76.24 input  -60.55 | X-H torsion
[ 11005 11000 10999 10996 ] final  178.75 input  -57.11 | X-H torsion

> <Gold.Protein.ActiveResidues>
 VAL166  LYS551  ARG553  GLY616  TRP617  ASP618  TYR619  PRO620  LYS621  CYS622 
 ASP623  PHE694  ASN695  SER759  ASP760  ASP761  ALA762  ILE779  LEU786  VAL792 
 PHE793  MET794  SER795  GLU796  ALA797  LYS798  CYS799  TRP800  GLU811  SER814 

> <Gold.Protein.RotatedAtoms>
  152.5034  134.4093  159.9443 H   0  0  0  0  0  0  0  0  0  0  0  0  # atno 6907 bound_to 6896
  151.4061  133.3736  159.2746 H   0  0  0  0  0  0  0  0  0  0  0  0  # atno 6908 bound_to 6896
  150.9326  134.8762  159.7620 H   0  0  0  0  0  0  0  0  0  0  0  0  # atno 6909 bound_to 6896
  145.7833  140.8750  143.0319 H   0  0  0  0  0  0  0  0  0  0  0  0  # atno 7974 bound_to 7965
  156.0418  140.3318  155.7252 H   0  0  0  0  0  0  0  0  0  0  0  0  # atno 8008 bound_to 7997
  155.5733  140.0630  157.2819 H   0  0  0  0  0  0  0  0  0  0  0  0  # atno 8009 bound_to 7997
  154.4396  140.1857  156.0890 H   0  0  0  0  0  0  0  0  0  0  0  0  # atno 8010 bound_to 7997
  140.6942  143.2995  151.3319 H   0  0  0  0  0  0  0  0  0  0  0  0  # atno 10167 bound_to 10162
  157.4952  131.1092  150.9503 H   0  0  0  0  0  0  0  0  0  0  0  0  # atno 10718 bound_to 10713
  153.0711  135.4958  154.8307 H   0  0  0  0  0  0  0  0  0  0  0  0  # atno 10763 bound_to 10752
  154.7024  135.3004  154.9323 H   0  0  0  0  0  0  0  0  0  0  0  0  # atno 10764 bound_to 10752
  154.0043  135.6762  153.4814 H   0  0  0  0  0  0  0  0  0  0  0  0  # atno 10765 bound_to 10752
  140.3986  134.6798  157.4549 H   0  0  0  0  0  0  0  0  0  0  0  0  # atno 11005 bound_to 11000
  144.6793  140.0020  143.7484 LP  0  0  0  0  0  0  0  0  0  0  0  0  # atno 17320 bound_to 7965
  146.0052  139.3123  143.0904 LP  0  0  0  0  0  0  0  0  0  0  0  0  # atno 17321 bound_to 7965
  139.6378  144.0597  152.2530 LP  0  0  0  0  0  0  0  0  0  0  0  0  # atno 17342 bound_to 10162
  140.0093  144.6236  150.7661 LP  0  0  0  0  0  0  0  0  0  0  0  0  # atno 17343 bound_to 10162
  157.0192  130.5667  149.5329 LP  0  0  0  0  0  0  0  0  0  0  0  0  # atno 17370 bound_to 10713
  156.0196  130.5291  150.8237 LP  0  0  0  0  0  0  0  0  0  0  0  0  # atno 17371 bound_to 10713
  140.0353  134.6346  155.9051 LP  0  0  0  0  0  0  0  0  0  0  0  0  # atno 17394 bound_to 11000
  141.1865  133.6557  156.5242 LP  0  0  0  0  0  0  0  0  0  0  0  0  # atno 17395 bound_to 11000

$$$$
