AV-unprocessed.smi:1803|AV-procd|sdf|7293|dock1
  -GOLD-   22720 8553D 1   1.00000     0.00000
 Structure written by MMmdl.
 35 37  0  0  0  0  0  0  0  0  3 V2000
  150.1821  137.9394  159.1998 O   0  0  0  0  0  0  0  0  0  0  0  0
  151.3956  137.9934  159.0047 C   0  0  0  0  0  0  0  0  0  0  0  0
  152.2563  137.0111  159.3774 N   0  5  0  0  0  0  0  0  0  0  0  0
  153.3711  136.7203  158.6815 C   0  0  0  0  0  0  0  0  0  0  0  0
  153.4308  136.8170  157.3434 N   0  0  0  0  0  0  0  0  0  0  0  0
  154.6692  136.4640  156.8256 N   0  0  0  0  0  0  0  0  0  0  0  0
  155.5205  136.1217  157.7922 C   0  0  0  0  0  0  0  0  0  0  0  0
  154.8834  136.1910  159.4218 S   0  0  0  0  0  0  0  0  0  0  0  0
  151.9084  139.0834  158.4020 N   0  0  0  0  0  0  0  0  0  0  0  0
  151.1539  140.2623  157.9895 C   0  0  2  0  0  0  0  0  0  0  0  0
  151.4133  140.6703  156.5453 C   0  0  0  0  0  0  0  0  0  0  0  0
  150.9397  142.1271  156.5092 C   0  0  0  0  0  0  0  0  0  0  0  0
  151.0745  142.6578  157.8884 N   0  3  2  0  0  0  0  0  0  0  0  0
  151.8958  143.8944  157.9845 C   0  0  0  0  0  0  0  0  0  0  0  0
  152.3347  144.1519  159.4337 C   0  0  0  0  0  0  0  0  0  0  0  0
  153.2231  143.0103  159.9630 C   0  0  0  0  0  0  0  0  0  0  0  0
  152.9705  141.6790  159.2298 C   0  0  0  0  0  0  0  0  0  0  0  0
  151.4946  141.5396  158.7794 C   0  0  2  0  0  0  0  0  0  0  0  0
  156.5290  135.8260  157.5444 H   0  0  0  0  0  0  0  0  0  0  0  0
  152.9065  139.1039  158.2511 H   0  0  0  0  0  0  0  0  0  0  0  0
  150.0859  140.0570  158.0893 H   0  0  0  0  0  0  0  0  0  0  0  0
  152.4807  140.6225  156.3241 H   0  0  0  0  0  0  0  0  0  0  0  0
  150.8924  140.0387  155.8249 H   0  0  0  0  0  0  0  0  0  0  0  0
  151.4899  142.7085  155.7681 H   0  0  0  0  0  0  0  0  0  0  0  0
  149.8848  142.1703  156.2368 H   0  0  0  0  0  0  0  0  0  0  0  0
  152.7823  143.8082  157.3537 H   0  0  0  0  0  0  0  0  0  0  0  0
  151.3165  144.7354  157.6023 H   0  0  0  0  0  0  0  0  0  0  0  0
  152.8633  145.1024  159.5110 H   0  0  0  0  0  0  0  0  0  0  0  0
  151.4476  144.2446  160.0619 H   0  0  0  0  0  0  0  0  0  0  0  0
  154.2761  143.2753  159.8599 H   0  0  0  0  0  0  0  0  0  0  0  0
  153.0451  142.8881  161.0320 H   0  0  0  0  0  0  0  0  0  0  0  0
  153.6207  141.6185  158.3560 H   0  0  0  0  0  0  0  0  0  0  0  0
  153.2651  140.8558  159.8814 H   0  0  0  0  0  0  0  0  0  0  0  0
  150.8743  141.5725  159.6764 H   0  0  0  0  0  0  0  0  0  0  0  0
  150.1421  142.9055  158.1870 H   0  0  0  0  0  0  0  0  0  0  0  0
  1  2  2  0  0  0  0
  2  3  1  0  0  0  0
  2  9  1  0  0  0  0
  3  4  1  0  0  0  0
  4  8  1  0  0  0  0
  4  5  2  0  0  0  0
  5  6  1  0  0  0  0
  6  7  2  0  0  0  0
  7  8  1  0  0  0  0
  7 19  1  0  0  0  0
  9 10  1  0  0  0  0
  9 20  1  0  0  0  0
 10 18  1  0  0  0  0
 10 11  1  0  0  0  0
 10 21  1  0  0  0  0
 11 12  1  0  0  0  0
 11 22  1  0  0  0  0
 11 23  1  0  0  0  0
 12 13  1  0  0  0  0
 12 24  1  0  0  0  0
 12 25  1  0  0  0  0
 13 18  1  0  0  0  0
 13 14  1  0  0  0  0
 13 35  1  0  0  0  0
 14 15  1  0  0  0  0
 14 26  1  0  0  0  0
 14 27  1  0  0  0  0
 15 16  1  0  0  0  0
 15 28  1  0  0  0  0
 15 29  1  0  0  0  0
 16 17  1  0  0  0  0
 16 30  1  0  0  0  0
 16 31  1  0  0  0  0
 17 18  1  0  0  0  0
 17 32  1  0  0  0  0
 17 33  1  0  0  0  0
 18 34  1  0  0  0  0
M  CHG  1   3  -1
M  CHG  1  13   1
M  END
> <s_m_source_file>
AV-unprocessed.smi

> <i_m_source_file_index>
1803

> <i_lp_mmshare_version>
43012

> <i_f3d_flags>
0

> <s_epik_input>
czFbY0hdbm5jMVtOSF1DKD1PKVtOSF1bQ0BIXShbQ0gyXVtDSDJdMilbQ0BASF0oTjIzKVtDSDJdW0NIMl1bQ0gyXVtDSDJdMw==

> <s_epik_cmdline>
J2VwaWtfcHl0aG9uJywgJy1waCcsICc3LjAnLCAnLXRuJywgJzgnLCAnLW1hJywgJzIwMCcsICctbWV0YWxfYmluZGluZycsICctaW1hZScsICc8aW5maWxlLm1hZT4nLCAnLW9tYWUnLCAnPG91dGZpbGUubWFlPic=

> <r_lp_tautomer_probability>
1

> <r_epik_Ionization_Penalty>
3.78828

> <r_epik_Ionization_Penalty_Charging>
3.7591

> <r_epik_Ionization_Penalty_Neutral>
0.0291838

> <r_epik_State_Penalty>
3.757

> <r_epik_Charging_Adjusted_Penalty>
7.51609

> <i_epik_Tot_Q>
0

> <i_epik_Tot_abs_Q>
2

> <r_epik_Metal_State_Penalty>
0.558016

> <b_epik_Metal_Only>
1

> <s_lp_Force_Field>
OPLS_2005

> <r_lp_Energy>
34.1757

> <b_lp_Chiralities_Consistent>
1

> <s_lp_Variant>
AV-unprocessed.smi:1803-15

> <Gold.Version>
5.8.1

> <Gold.Id.Protein>
6NUR|6NUR_protein|mol2

> <Gold.PLP.Fitness>
39.2318

> <Gold.PLP.PLP>
-31.2799

> <Gold.PLP.part.hbond>
-2.7016

> <Gold.PLP.part.metal>
0.0000

> <Gold.PLP.part.buried>
-5.2118

> <Gold.PLP.part.nonpolar>
-24.5099

> <Gold.PLP.part.repulsive>
0.1063

> <Gold.PLP.ligand.clash>
0.0000

> <Gold.PLP.ligand.torsion>
0.5323

> <Gold.PLP.Chemscore.Hbond>
3.0000

> <Gold.PLP.Chemscore.CHOScore>
0.0000

> <Gold.PLP.Chemscore.Metal>
0.0000

> <Gold.Chemscore.Hbonds>
donor molecule, donor type, donor heavy atom, donor atom, acceptor molecule, acceptor atom, score
      P1  H  6896  6907       L1     3  2.00
      P1  H 10752 10765       L1     6  1.00

> <Gold.PLP.Chemscore.Internal.Correction>
0.0165

> <Gold.Rescore>
     Score         DG    S(hbond)    S(metal)    S(lipo)     H(rot)  DE(clash)    DE(int)     intcor
     16.17     -16.79       1.43        0.00      77.84       1.00       0.05       0.58       ----

> <Gold.Chemscore.Fitness>
16.1685

> <Gold.Chemscore.DG>
-16.7934

> <Gold.Chemscore.ZeroCoef>
-5.4800

> <Gold.Chemscore.Hbond>
1.4271

> <Gold.Chemscore.Metal>
0.0000

> <Gold.Chemscore.Lipo>
77.8374

> <Gold.Chemscore.Internal_Hbond>
0.0000

> <Gold.Chemscore.DEClash>
0.0491

> <Gold.Chemscore.DEInternal>
0.5758

> <Gold.Chemscore.Rot>
1.0000

> <Gold.Chemscore.Internal.Correction>
   9.000000E+99

> <Gold.Chemscore.Hbonds>
donor molecule, donor type, donor heavy atom, donor atom, acceptor molecule, acceptor atom, score
      P1  H  6896  6907       L1     3  0.28
      P1  H 10752 10765       L1     6  0.38

> <Gold.Chemscore.Hbond.Weighted>
-4.7665

> <Gold.Chemscore.Metal.Weighted>
-0.0000

> <Gold.Chemscore.Lipo.Weighted>
-9.1070

> <Gold.Chemscore.Internal_Hbond.Weighted>
0.0000

> <Gold.Chemscore.DEClash.Weighted>
0.0491

> <Gold.Chemscore.DEInternal.Weighted>
0.5758

> <Gold.Chemscore.Rot.Weighted>
2.5600

> <Gold.Chemscore.Internal.Correction.Weighted>
   9.000000E+99

> <Gold.Protein.RotatedTorsions>
[ 6907 6896 6895 6894 ] final    7.77 input  -60.11 | X-H torsion
[ 7974 7965 7964 7962 ] final   28.08 input  175.53 | X-H torsion
[ 8008 7997 7996 7995 ] final  158.59 input   59.86 | X-H torsion
[ 10167 10162 10161 10158 ] final   -4.48 input  -65.29 | X-H torsion
[ 10718 10713 10712 10709 ] final -137.17 input   66.30 | X-H torsion
[ 10763 10752 10751 10750 ] final  -83.05 input  -60.55 | X-H torsion
[ 11005 11000 10999 10996 ] final  -31.78 input  -57.11 | X-H torsion

> <Gold.Protein.ActiveResidues>
 VAL166  LYS551  ARG553  GLY616  TRP617  ASP618  TYR619  PRO620  LYS621  CYS622 
 ASP623  PHE694  ASN695  SER759  ASP760  ASP761  ALA762  ILE779  LEU786  VAL792 
 PHE793  MET794  SER795  GLU796  ALA797  LYS798  CYS799  TRP800  GLU811  SER814 

> <Gold.Protein.RotatedAtoms>
  151.6952  135.0939  160.0240 H   0  0  0  0  0  0  0  0  0  0  0  0  # atno 6907 bound_to 6896
  152.3754  133.6470  159.6128 H   0  0  0  0  0  0  0  0  0  0  0  0  # atno 6908 bound_to 6896
  150.7705  133.9118  159.3413 H   0  0  0  0  0  0  0  0  0  0  0  0  # atno 6909 bound_to 6896
  146.1749  139.7105  142.8941 H   0  0  0  0  0  0  0  0  0  0  0  0  # atno 7974 bound_to 7965
  156.2293  140.1854  156.7284 H   0  0  0  0  0  0  0  0  0  0  0  0  # atno 8008 bound_to 7997
  154.5994  140.0638  156.9376 H   0  0  0  0  0  0  0  0  0  0  0  0  # atno 8009 bound_to 7997
  155.2199  140.3306  155.4319 H   0  0  0  0  0  0  0  0  0  0  0  0  # atno 8010 bound_to 7997
  140.6929  143.6419  150.8428 H   0  0  0  0  0  0  0  0  0  0  0  0  # atno 10167 bound_to 10162
  156.2851  130.7343  151.1352 H   0  0  0  0  0  0  0  0  0  0  0  0  # atno 10718 bound_to 10713
  154.5831  135.5569  153.7205 H   0  0  0  0  0  0  0  0  0  0  0  0  # atno 10763 bound_to 10752
  153.0089  135.6325  154.1954 H   0  0  0  0  0  0  0  0  0  0  0  0  # atno 10764 bound_to 10752
  154.1895  135.2883  155.3006 H   0  0  0  0  0  0  0  0  0  0  0  0  # atno 10765 bound_to 10752
  140.9497  133.7228  156.1201 H   0  0  0  0  0  0  0  0  0  0  0  0  # atno 11005 bound_to 11000
  145.4239  141.0409  143.2948 LP  0  0  0  0  0  0  0  0  0  0  0  0  # atno 17320 bound_to 7965
  144.8220  139.5775  143.6982 LP  0  0  0  0  0  0  0  0  0  0  0  0  # atno 17321 bound_to 7965
  140.0134  143.5619  152.2830 LP  0  0  0  0  0  0  0  0  0  0  0  0  # atno 17342 bound_to 10162
  139.6351  144.7649  151.2455 LP  0  0  0  0  0  0  0  0  0  0  0  0  # atno 17343 bound_to 10162
  157.7326  131.0598  150.5619 LP  0  0  0  0  0  0  0  0  0  0  0  0  # atno 17370 bound_to 10713
  156.5729  130.4284  149.6011 LP  0  0  0  0  0  0  0  0  0  0  0  0  # atno 17371 bound_to 10713
  140.7620  134.3928  157.5524 LP  0  0  0  0  0  0  0  0  0  0  0  0  # atno 17394 bound_to 11000
  139.8844  134.8967  156.2708 LP  0  0  0  0  0  0  0  0  0  0  0  0  # atno 17395 bound_to 11000

$$$$
