AV-unprocessed.smi:1261|AV-procd|sdf|5304|dock9
  -GOLD-   22720 4423D 1   1.00000     0.00000
 Structure written by MMmdl.
 49 50  0  0  0  0  0  0  0  0  3 V2000
  153.4560  142.0017  161.0036 C   0  0  0  0  0  0  0  0  0  0  0  0
  152.3633  142.5696  160.0868 C   0  0  1  0  0  0  0  0  0  0  0  0
  152.8833  143.7665  159.2703 C   0  0  0  0  0  0  0  0  0  0  0  0
  151.8161  144.3005  158.2970 C   0  0  2  0  0  0  0  0  0  0  0  0
  150.7063  145.0988  159.0032 C   0  0  0  0  0  0  0  0  0  0  0  0
  151.2519  143.1566  157.4306 C   0  0  0  0  0  0  0  0  0  0  0  0
  150.7401  142.0350  158.2611 N   0  3  1  0  0  0  0  0  0  0  0  0
  150.0624  140.9971  157.4429 C   0  0  0  0  0  0  0  0  0  0  0  0
  149.7159  139.7378  158.2555 C   0  0  0  0  0  0  0  0  0  0  0  0
  149.3027  138.5610  157.3573 C   0  0  0  0  0  0  0  0  0  0  0  0
  148.2044  137.8017  157.9407 N   0  0  0  0  0  0  0  0  0  0  0  0
  148.3232  136.6033  158.5325 C   0  0  0  0  0  0  0  0  0  0  0  0
  149.3985  136.0199  158.6717 O   0  0  0  0  0  0  0  0  0  0  0  0
  147.0287  135.9784  159.0632 C   0  0  0  0  0  0  0  0  0  0  0  0
  147.0629  135.8098  160.5212 N   0  0  0  0  0  0  0  0  0  0  0  0
  147.0752  137.0733  161.2539 N   0  5  0  0  0  0  0  0  0  0  0  0
  147.0741  137.0510  162.6131 C   0  0  0  0  0  0  0  0  0  0  0  0
  147.0703  138.0726  163.2961 O   0  0  0  0  0  0  0  0  0  0  0  0
  147.0788  135.7574  163.2761 C   0  0  0  0  0  0  0  0  0  0  0  0
  147.0793  134.6070  162.5741 C   0  0  0  0  0  0  0  0  0  0  0  0
  147.0713  134.5829  161.1164 C   0  0  0  0  0  0  0  0  0  0  0  0
  147.0688  133.5352  160.4703 O   0  0  0  0  0  0  0  0  0  0  0  0
  151.8002  141.4861  159.1477 C   0  0  0  0  0  0  0  0  0  0  0  0
  154.3048  141.6313  160.4279 H   0  0  0  0  0  0  0  0  0  0  0  0
  153.0751  141.1748  161.6035 H   0  0  0  0  0  0  0  0  0  0  0  0
  153.8268  142.7625  161.6911 H   0  0  0  0  0  0  0  0  0  0  0  0
  151.5523  142.9159  160.7287 H   0  0  0  0  0  0  0  0  0  0  0  0
  153.2198  144.5630  159.9352 H   0  0  0  0  0  0  0  0  0  0  0  0
  153.7604  143.4573  158.6997 H   0  0  0  0  0  0  0  0  0  0  0  0
  152.3139  145.0015  157.6258 H   0  0  0  0  0  0  0  0  0  0  0  0
  150.1208  144.4754  159.6786 H   0  0  0  0  0  0  0  0  0  0  0  0
  150.0180  145.5339  158.2780 H   0  0  0  0  0  0  0  0  0  0  0  0
  151.1246  145.9191  159.5872 H   0  0  0  0  0  0  0  0  0  0  0  0
  150.4569  143.5445  156.7924 H   0  0  0  0  0  0  0  0  0  0  0  0
  152.0288  142.7783  156.7642 H   0  0  0  0  0  0  0  0  0  0  0  0
  149.1313  141.4068  157.0489 H   0  0  0  0  0  0  0  0  0  0  0  0
  150.6778  140.7437  156.5782 H   0  0  0  0  0  0  0  0  0  0  0  0
  150.5688  139.4360  158.8628 H   0  0  0  0  0  0  0  0  0  0  0  0
  148.9052  139.9632  158.9495 H   0  0  0  0  0  0  0  0  0  0  0  0
  148.9773  138.9292  156.3841 H   0  0  0  0  0  0  0  0  0  0  0  0
  150.1533  137.9033  157.1709 H   0  0  0  0  0  0  0  0  0  0  0  0
  147.2771  138.1948  157.8617 H   0  0  0  0  0  0  0  0  0  0  0  0
  146.1838  136.6047  158.7717 H   0  0  0  0  0  0  0  0  0  0  0  0
  146.8587  135.0192  158.5704 H   0  0  0  0  0  0  0  0  0  0  0  0
  147.0834  135.7178  164.3553 H   0  0  0  0  0  0  0  0  0  0  0  0
  147.0837  133.6689  163.1088 H   0  0  0  0  0  0  0  0  0  0  0  0
  152.5989  141.0609  158.5376 H   0  0  0  0  0  0  0  0  0  0  0  0
  151.4013  140.6727  159.7524 H   0  0  0  0  0  0  0  0  0  0  0  0
  150.0304  142.4311  158.8608 H   0  0  0  0  0  0  0  0  0  0  0  0
  1  2  1  0  0  0  0
  1 24  1  0  0  0  0
  1 25  1  0  0  0  0
  1 26  1  0  0  0  0
  2 23  1  0  0  0  0
  2  3  1  0  0  0  0
  2 27  1  0  0  0  0
  3  4  1  0  0  0  0
  3 28  1  0  0  0  0
  3 29  1  0  0  0  0
  4  5  1  0  0  0  0
  4  6  1  0  0  0  0
  4 30  1  0  0  0  0
  5 31  1  0  0  0  0
  5 32  1  0  0  0  0
  5 33  1  0  0  0  0
  6  7  1  0  0  0  0
  6 34  1  0  0  0  0
  6 35  1  0  0  0  0
  7  8  1  0  0  0  0
  7 23  1  0  0  0  0
  7 49  1  0  0  0  0
  8  9  1  0  0  0  0
  8 36  1  0  0  0  0
  8 37  1  0  0  0  0
  9 10  1  0  0  0  0
  9 38  1  0  0  0  0
  9 39  1  0  0  0  0
 10 11  1  0  0  0  0
 10 40  1  0  0  0  0
 10 41  1  0  0  0  0
 11 12  1  0  0  0  0
 11 42  1  0  0  0  0
 12 13  2  0  0  0  0
 12 14  1  0  0  0  0
 14 43  1  0  0  0  0
 14 44  1  0  0  0  0
 14 15  1  0  0  0  0
 15 16  1  0  0  0  0
 15 21  1  0  0  0  0
 16 17  1  0  0  0  0
 17 18  2  0  0  0  0
 17 19  1  0  0  0  0
 19 45  1  0  0  0  0
 19 20  2  0  0  0  0
 20 46  1  0  0  0  0
 20 21  1  0  0  0  0
 21 22  2  0  0  0  0
 23 47  1  0  0  0  0
 23 48  1  0  0  0  0
M  CHG  1   7   1
M  CHG  1  16  -1
M  END
> <s_m_source_file>
AV-unprocessed.smi

> <i_m_source_file_index>
1261

> <i_lp_mmshare_version>
43012

> <i_f3d_flags>
0

> <s_epik_input>
W0NIM11bQ0BASF0xW0NIMl1bQ0BASF0oW0NIM10pW0NIMl1OKFtDSDJdMSlbQ0gyXVtDSDJdW0NIMl1bTkhdQyg9TylbQ0gyXW4yW25IXWMoPU8pW2NIXVtjSF1jMj1P

> <s_epik_cmdline>
J2VwaWtfcHl0aG9uJywgJy1waCcsICc3LjAnLCAnLXRuJywgJzgnLCAnLW1hJywgJzIwMCcsICctbWV0YWxfYmluZGluZycsICctaW1hZScsICc8aW5maWxlLm1hZT4nLCAnLW9tYWUnLCAnPG91dGZpbGUubWFlPic=

> <r_lp_tautomer_probability>
1

> <r_epik_Ionization_Penalty>
0.0955723

> <r_epik_Ionization_Penalty_Charging>
0.0955723

> <r_epik_Ionization_Penalty_Neutral>
2.68632e-08

> <r_epik_State_Penalty>
0.0334406

> <r_epik_Charging_Adjusted_Penalty>
0.129013

> <i_epik_Tot_Q>
0

> <i_epik_Tot_abs_Q>
2

> <r_epik_Metal_State_Penalty>
0.0334406

> <b_epik_Metal_Only>
0

> <s_lp_Force_Field>
OPLS_2005

> <r_lp_Energy>
33.6406

> <b_lp_Chiralities_Consistent>
1

> <s_lp_Variant>
AV-unprocessed.smi:1261-4

> <Gold.Version>
5.8.1

> <Gold.Id.Protein>
6NUR|6NUR_protein|mol2

> <Gold.PLP.Fitness>
56.8638

> <Gold.PLP.PLP>
-48.8573

> <Gold.PLP.part.hbond>
-4.9506

> <Gold.PLP.part.metal>
0.0000

> <Gold.PLP.part.buried>
-4.7332

> <Gold.PLP.part.nonpolar>
-40.0183

> <Gold.PLP.part.repulsive>
0.1753

> <Gold.PLP.ligand.clash>
0.0000

> <Gold.PLP.ligand.torsion>
0.5376

> <Gold.PLP.Chemscore.Hbond>
3.0000

> <Gold.PLP.Chemscore.CHOScore>
0.0000

> <Gold.PLP.Chemscore.Metal>
0.0000

> <Gold.Chemscore.Hbonds>
donor molecule, donor type, donor heavy atom, donor atom, acceptor molecule, acceptor atom, score
      P1  H  6896  6908       L1    13  0.78
      P1  H  6934  6947       L1    16  2.00

> <Gold.PLP.Chemscore.Internal.Correction>
0.0817

> <Gold.Rescore>
     Score         DG    S(hbond)    S(metal)    S(lipo)     H(rot)  DE(clash)    DE(int)     intcor
     16.55     -17.14       1.50        0.00     111.31       2.49       0.06       0.53       ----

> <Gold.Chemscore.Fitness>
16.5528

> <Gold.Chemscore.DG>
-17.1427

> <Gold.Chemscore.ZeroCoef>
-5.4800

> <Gold.Chemscore.Hbond>
1.5042

> <Gold.Chemscore.Metal>
0.0000

> <Gold.Chemscore.Lipo>
111.3051

> <Gold.Chemscore.Internal_Hbond>
0.0000

> <Gold.Chemscore.DEClash>
0.0571

> <Gold.Chemscore.DEInternal>
0.5328

> <Gold.Chemscore.Rot>
2.4938

> <Gold.Chemscore.Internal.Correction>
   9.000000E+99

> <Gold.Chemscore.Hbonds>
donor molecule, donor type, donor heavy atom, donor atom, acceptor molecule, acceptor atom, score
      P1  H  6896  6908       L1    13  0.76
      P1  H  6934  6947       L1    16  0.25

> <Gold.Chemscore.Hbond.Weighted>
-5.0240

> <Gold.Chemscore.Metal.Weighted>
-0.0000

> <Gold.Chemscore.Lipo.Weighted>
-13.0227

> <Gold.Chemscore.Internal_Hbond.Weighted>
0.0000

> <Gold.Chemscore.DEClash.Weighted>
0.0571

> <Gold.Chemscore.DEInternal.Weighted>
0.5328

> <Gold.Chemscore.Rot.Weighted>
6.3840

> <Gold.Chemscore.Internal.Correction.Weighted>
   9.000000E+99

> <Gold.Protein.RotatedTorsions>
[ 6907 6896 6895 6894 ] final  167.50 input  -60.11 | X-H torsion
[ 7974 7965 7964 7962 ] final   -0.41 input  175.53 | X-H torsion
[ 8008 7997 7996 7995 ] final   34.50 input   59.86 | X-H torsion
[ 10167 10162 10161 10158 ] final   10.13 input  -65.29 | X-H torsion
[ 10718 10713 10712 10709 ] final  146.07 input   66.30 | X-H torsion
[ 10763 10752 10751 10750 ] final  133.59 input  -60.55 | X-H torsion
[ 11005 11000 10999 10996 ] final   95.19 input  -57.11 | X-H torsion

> <Gold.Protein.ActiveResidues>
 VAL166  LYS551  ARG553  GLY616  TRP617  ASP618  TYR619  PRO620  LYS621  CYS622 
 ASP623  PHE694  ASN695  SER759  ASP760  ASP761  ALA762  ILE779  LEU786  VAL792 
 PHE793  MET794  SER795  GLU796  ALA797  LYS798  CYS799  TRP800  GLU811  SER814 

> <Gold.Protein.RotatedAtoms>
  151.8623  133.3459  159.3707 H   0  0  0  0  0  0  0  0  0  0  0  0  # atno 6907 bound_to 6896
  150.7175  134.5194  159.5655 H   0  0  0  0  0  0  0  0  0  0  0  0  # atno 6908 bound_to 6896
  152.2710  134.7933  160.0465 H   0  0  0  0  0  0  0  0  0  0  0  0  # atno 6909 bound_to 6896
  146.2427  140.1266  142.8339 H   0  0  0  0  0  0  0  0  0  0  0  0  # atno 7974 bound_to 7965
  155.1559  140.3279  155.4421 H   0  0  0  0  0  0  0  0  0  0  0  0  # atno 8008 bound_to 7997
  156.2559  140.1968  156.6619 H   0  0  0  0  0  0  0  0  0  0  0  0  # atno 8009 bound_to 7997
  154.6439  140.0567  156.9864 H   0  0  0  0  0  0  0  0  0  0  0  0  # atno 8010 bound_to 7997
  140.6213  143.8199  150.7178 H   0  0  0  0  0  0  0  0  0  0  0  0  # atno 10167 bound_to 10162
  157.3377  131.0930  151.1109 H   0  0  0  0  0  0  0  0  0  0  0  0  # atno 10718 bound_to 10713
  153.8096  135.3130  155.3399 H   0  0  0  0  0  0  0  0  0  0  0  0  # atno 10763 bound_to 10752
  154.8056  135.4699  154.0388 H   0  0  0  0  0  0  0  0  0  0  0  0  # atno 10764 bound_to 10752
  153.1762  135.6886  153.8628 H   0  0  0  0  0  0  0  0  0  0  0  0  # atno 10765 bound_to 10752
  139.8791  134.8885  156.3974 H   0  0  0  0  0  0  0  0  0  0  0  0  # atno 11005 bound_to 11000
  145.0361  140.8909  143.5080 LP  0  0  0  0  0  0  0  0  0  0  0  0  # atno 17320 bound_to 7965
  145.1338  139.2615  143.5525 LP  0  0  0  0  0  0  0  0  0  0  0  0  # atno 17321 bound_to 7965
  140.1789  143.4131  152.1947 LP  0  0  0  0  0  0  0  0  0  0  0  0  # atno 17342 bound_to 10162
  139.5441  144.7283  151.4640 LP  0  0  0  0  0  0  0  0  0  0  0  0  # atno 17343 bound_to 10162
  157.2333  130.6535  149.5859 LP  0  0  0  0  0  0  0  0  0  0  0  0  # atno 17370 bound_to 10713
  155.9703  130.4591  150.6026 LP  0  0  0  0  0  0  0  0  0  0  0  0  # atno 17371 bound_to 10713
  140.9290  133.7592  156.0001 LP  0  0  0  0  0  0  0  0  0  0  0  0  # atno 17394 bound_to 11000
  140.8352  134.3131  157.5334 LP  0  0  0  0  0  0  0  0  0  0  0  0  # atno 17395 bound_to 11000

$$$$
