AV-unprocessed.smi:235|AV-procd|sdf|1801|dock3
  -GOLD-   2262020373D 1   1.00000     0.00000
 Structure written by MMmdl.
 54 58  0  0  0  0  0  0  0  0  1 V2000
  152.6073  142.7940  161.6629 O   0  0  0  0  0  0  0  0  0  0  0  0
  152.9627  142.2740  160.6045 C   0  0  0  0  0  0  0  0  0  0  0  0
  152.9512  142.9137  159.4263 N   0  0  0  0  0  0  0  0  0  0  0  0
  152.5491  144.2668  159.2194 C   0  0  0  0  0  0  0  0  0  0  0  0
  151.2268  144.7041  159.8118 C   0  0  0  0  0  0  0  0  0  0  0  0
  151.3529  144.5134  158.3254 C   0  0  0  0  0  0  0  0  0  0  0  0
  153.4381  140.8144  160.5701 C   0  0  2  0  0  0  0  0  0  0  0  0
  154.8525  140.6553  161.1416 C   0  0  0  0  0  0  0  0  0  0  0  0
  155.3353  139.3620  160.4967 C   0  0  0  0  0  0  0  0  0  0  0  0
  154.7120  139.4168  159.1016 C   0  0  0  0  0  0  0  0  0  0  0  0
  153.5494  140.2941  159.2055 N   0  0  0  0  0  0  0  0  0  0  0  0
  152.4080  139.8163  158.6625 C   0  0  0  0  0  0  0  0  0  0  0  0
  152.1142  138.5119  158.8836 N   0  0  0  0  0  0  0  0  0  0  0  0
  151.0000  137.9826  158.3691 C   0  0  0  0  0  0  0  0  0  0  0  0
  150.0638  138.5705  157.6200 N   0  0  0  0  0  0  0  0  0  0  0  0
  150.3593  139.8835  157.3985 C   0  0  0  0  0  0  0  0  0  0  0  0
  151.5004  140.5835  157.8795 C   0  0  0  0  0  0  0  0  0  0  0  0
  151.4609  141.9067  157.4552 N   0  0  0  0  0  0  0  0  0  0  0  0
  150.3596  141.9833  156.7587 C   0  0  0  0  0  0  0  0  0  0  0  0
  149.6361  140.8147  156.6763 N   0  0  0  0  0  0  0  0  0  0  0  0
  148.3791  140.6151  155.9787 C   0  0  0  0  0  0  0  0  0  0  0  0
  147.2905  141.6130  156.4216 C   0  0  2  0  0  0  0  0  0  0  0  0
  146.7940  141.2241  157.6867 O   0  0  0  0  0  0  0  0  0  0  0  0
  146.1306  141.7838  155.4145 C   0  0  2  0  0  0  0  0  0  0  0  0
  146.5316  142.1671  153.9793 C   0  0  0  0  0  0  0  0  0  0  0  0
  145.7856  143.4665  153.7328 C   0  0  0  0  0  0  0  0  0  0  0  0
  144.6278  143.3810  154.7187 C   0  0  0  0  0  0  0  0  0  0  0  0
  145.2263  142.7907  155.8600 O   0  0  0  0  0  0  0  0  0  0  0  0
  153.2543  142.4016  158.6107 H   0  0  0  0  0  0  0  0  0  0  0  0
  153.3325  145.0230  159.1894 H   0  0  0  0  0  0  0  0  0  0  0  0
  150.6472  143.9672  160.3646 H   0  0  0  0  0  0  0  0  0  0  0  0
  151.1565  145.7246  160.1830 H   0  0  0  0  0  0  0  0  0  0  0  0
  151.3684  145.4062  157.7036 H   0  0  0  0  0  0  0  0  0  0  0  0
  150.8588  143.6489  157.8857 H   0  0  0  0  0  0  0  0  0  0  0  0
  152.7502  140.1978  161.1517 H   0  0  0  0  0  0  0  0  0  0  0  0
  155.4966  141.4818  160.8349 H   0  0  0  0  0  0  0  0  0  0  0  0
  154.8627  140.6063  162.2309 H   0  0  0  0  0  0  0  0  0  0  0  0
  156.4217  139.2730  160.4746 H   0  0  0  0  0  0  0  0  0  0  0  0
  154.9366  138.5077  161.0456 H   0  0  0  0  0  0  0  0  0  0  0  0
  155.4091  139.8701  158.3963 H   0  0  0  0  0  0  0  0  0  0  0  0
  154.4782  138.4174  158.7305 H   0  0  0  0  0  0  0  0  0  0  0  0
  150.8350  136.9381  158.5888 H   0  0  0  0  0  0  0  0  0  0  0  0
  150.0381  142.9019  156.2894 H   0  0  0  0  0  0  0  0  0  0  0  0
  148.5633  140.7032  154.9070 H   0  0  0  0  0  0  0  0  0  0  0  0
  148.0483  139.5905  156.1538 H   0  0  0  0  0  0  0  0  0  0  0  0
  147.7564  142.5891  156.5619 H   0  0  0  0  0  0  0  0  0  0  0  0
  145.8695  141.4180  157.7157 H   0  0  0  0  0  0  0  0  0  0  0  0
  145.5652  140.8519  155.3627 H   0  0  0  0  0  0  0  0  0  0  0  0
  147.6063  142.2824  153.8375 H   0  0  0  0  0  0  0  0  0  0  0  0
  146.1922  141.3990  153.2833 H   0  0  0  0  0  0  0  0  0  0  0  0
  146.4234  144.3141  153.9870 H   0  0  0  0  0  0  0  0  0  0  0  0
  145.4587  143.5841  152.6994 H   0  0  0  0  0  0  0  0  0  0  0  0
  144.1949  144.3546  154.9489 H   0  0  0  0  0  0  0  0  0  0  0  0
  143.8386  142.7298  154.3401 H   0  0  0  0  0  0  0  0  0  0  0  0
  1  2  2  0  0  0  0
  2  3  1  0  0  0  0
  2  7  1  0  0  0  0
  3  4  1  0  0  0  0
  3 29  1  0  0  0  0
  4  6  1  0  0  0  0
  4  5  1  0  0  0  0
  4 30  1  0  0  0  0
  5  6  1  0  0  0  0
  5 31  1  0  0  0  0
  5 32  1  0  0  0  0
  6 33  1  0  0  0  0
  6 34  1  0  0  0  0
  7 11  1  0  0  0  0
  7  8  1  0  0  0  0
  7 35  1  0  0  0  0
  8  9  1  0  0  0  0
  8 36  1  0  0  0  0
  8 37  1  0  0  0  0
  9 10  1  0  0  0  0
  9 38  1  0  0  0  0
  9 39  1  0  0  0  0
 10 11  1  0  0  0  0
 10 40  1  0  0  0  0
 10 41  1  0  0  0  0
 11 12  1  0  0  0  0
 12 17  1  0  0  0  0
 12 13  2  0  0  0  0
 13 14  1  0  0  0  0
 14 15  2  0  0  0  0
 14 42  1  0  0  0  0
 15 16  1  0  0  0  0
 16 20  1  0  0  0  0
 16 17  2  0  0  0  0
 17 18  1  0  0  0  0
 18 19  2  0  0  0  0
 19 20  1  0  0  0  0
 19 43  1  0  0  0  0
 20 21  1  0  0  0  0
 21 22  1  0  0  0  0
 21 44  1  0  0  0  0
 21 45  1  0  0  0  0
 22 23  1  0  0  0  0
 22 24  1  0  0  0  0
 22 46  1  0  0  0  0
 23 47  1  0  0  0  0
 24 28  1  0  0  0  0
 24 25  1  0  0  0  0
 24 48  1  0  0  0  0
 25 26  1  0  0  0  0
 25 49  1  0  0  0  0
 25 50  1  0  0  0  0
 26 27  1  0  0  0  0
 26 51  1  0  0  0  0
 26 52  1  0  0  0  0
 27 28  1  0  0  0  0
 27 53  1  0  0  0  0
 27 54  1  0  0  0  0
M  END
> <s_m_source_file>
AV-unprocessed.smi

> <i_m_source_file_index>
235

> <i_lp_mmshare_version>
43012

> <i_f3d_flags>
0

> <s_epik_input>
W0NIMl0xW0NIMl1bQ0hdMVtOSF1DKD1PKVtDQEBIXTJbQ0gyXVtDSDJdW0NIMl1OMmMobltjSF1uMyljKGMzNCluW2NIXW40W0NIMl1bQ0BIXShbT0hdKVtDQEBIXTVbQ0gyXVtDSDJdW0NIMl1PNQ==

> <s_epik_cmdline>
J2VwaWtfcHl0aG9uJywgJy1waCcsICc3LjAnLCAnLXRuJywgJzgnLCAnLW1hJywgJzIwMCcsICctbWV0YWxfYmluZGluZycsICctaW1hZScsICc8aW5maWxlLm1hZT4nLCAnLW9tYWUnLCAnPG91dGZpbGUubWFlPic=

> <r_lp_tautomer_probability>
1

> <r_epik_Ionization_Penalty>
0.000526714

> <r_epik_Ionization_Penalty_Charging>
0

> <r_epik_Ionization_Penalty_Neutral>
0.000526714

> <r_epik_State_Penalty>
0.000272704

> <r_epik_Charging_Adjusted_Penalty>
0.000272704

> <i_epik_Tot_Q>
0

> <i_epik_Tot_abs_Q>
0

> <r_epik_Metal_State_Penalty>
-0

> <b_epik_Metal_Only>
0

> <s_lp_Force_Field>
OPLS_2005

> <r_lp_Energy>
63.4887

> <b_lp_Chiralities_Consistent>
1

> <s_lp_Variant>
AV-unprocessed.smi:235-1

> <Gold.Version>
5.8.1

> <Gold.Id.Protein>
6NUR|6NUR_protein|mol2

> <Gold.PLP.Fitness>
50.1158

> <Gold.PLP.PLP>
-49.1982

> <Gold.PLP.part.hbond>
0.0000

> <Gold.PLP.part.metal>
0.0000

> <Gold.PLP.part.buried>
-7.4630

> <Gold.PLP.part.nonpolar>
-41.6236

> <Gold.PLP.part.repulsive>
0.3153

> <Gold.PLP.ligand.clash>
0.0000

> <Gold.PLP.ligand.torsion>
1.1654

> <Gold.PLP.Chemscore.Hbond>
0.0000

> <Gold.PLP.Chemscore.CHOScore>
1.0000

> <Gold.PLP.Chemscore.Metal>
0.0000

> <Gold.Chemscore.Hbonds>
donor molecule, donor type, donor heavy atom, donor atom, acceptor molecule, acceptor atom, score
      L1  C    19    43       P1  8028  1.00

> <Gold.PLP.Chemscore.Internal.Correction>
0.2484

> <Gold.Rescore>
     Score         DG    S(hbond)    S(metal)    S(lipo)     H(rot)  DE(clash)    DE(int)     intcor
      6.13      -9.45       0.00        0.00      99.56       3.00       0.02       3.31       ----

> <Gold.Chemscore.Fitness>
6.1272

> <Gold.Chemscore.DG>
-9.4511

> <Gold.Chemscore.ZeroCoef>
-5.4800

> <Gold.Chemscore.Hbond>
0.0000

> <Gold.Chemscore.Metal>
0.0000

> <Gold.Chemscore.Lipo>
99.5580

> <Gold.Chemscore.Internal_Hbond>
0.0000

> <Gold.Chemscore.DEClash>
0.0174

> <Gold.Chemscore.DEInternal>
3.3064

> <Gold.Chemscore.Rot>
2.9989

> <Gold.Chemscore.Internal.Correction>
   9.000000E+99

> <Gold.Chemscore.Hbond.Weighted>
-0.0000

> <Gold.Chemscore.Metal.Weighted>
-0.0000

> <Gold.Chemscore.Lipo.Weighted>
-11.6483

> <Gold.Chemscore.Internal_Hbond.Weighted>
0.0000

> <Gold.Chemscore.DEClash.Weighted>
0.0174

> <Gold.Chemscore.DEInternal.Weighted>
3.3064

> <Gold.Chemscore.Rot.Weighted>
7.6772

> <Gold.Chemscore.Internal.Correction.Weighted>
   9.000000E+99

> <Gold.Protein.RotatedTorsions>
[ 6907 6896 6895 6894 ] final  163.72 input  -60.11 | X-H torsion
[ 7974 7965 7964 7962 ] final  -23.64 input  175.53 | X-H torsion
[ 8008 7997 7996 7995 ] final    0.63 input   59.86 | X-H torsion
[ 10167 10162 10161 10158 ] final  176.74 input  -65.29 | X-H torsion
[ 10718 10713 10712 10709 ] final  146.41 input   66.30 | X-H torsion
[ 10763 10752 10751 10750 ] final  -30.47 input  -60.55 | X-H torsion
[ 11005 11000 10999 10996 ] final   36.06 input  -57.11 | X-H torsion

> <Gold.Protein.ActiveResidues>
 VAL166  LYS551  ARG553  GLY616  TRP617  ASP618  TYR619  PRO620  LYS621  CYS622 
 ASP623  PHE694  ASN695  SER759  ASP760  ASP761  ALA762  ILE779  LEU786  VAL792 
 PHE793  MET794  SER795  GLU796  ALA797  LYS798  CYS799  TRP800  GLU811  SER814 

> <Gold.Protein.RotatedAtoms>
  151.9209  133.3585  159.3896 H   0  0  0  0  0  0  0  0  0  0  0  0  # atno 6907 bound_to 6896
  150.7037  134.4636  159.5401 H   0  0  0  0  0  0  0  0  0  0  0  0  # atno 6908 bound_to 6896
  152.2259  134.8368  160.0531 H   0  0  0  0  0  0  0  0  0  0  0  0  # atno 6909 bound_to 6896
  146.1604  140.4644  142.8574 H   0  0  0  0  0  0  0  0  0  0  0  0  # atno 7974 bound_to 7965
  154.6703  140.2610  155.7014 H   0  0  0  0  0  0  0  0  0  0  0  0  # atno 8008 bound_to 7997
  156.2656  140.2831  156.1131 H   0  0  0  0  0  0  0  0  0  0  0  0  # atno 8009 bound_to 7997
  155.1178  140.0376  157.2732 H   0  0  0  0  0  0  0  0  0  0  0  0  # atno 8010 bound_to 7997
  139.5226  144.2880  152.0488 H   0  0  0  0  0  0  0  0  0  0  0  0  # atno 10167 bound_to 10162
  157.3335  131.0924  151.1142 H   0  0  0  0  0  0  0  0  0  0  0  0  # atno 10718 bound_to 10713
  153.7815  135.6905  153.4887 H   0  0  0  0  0  0  0  0  0  0  0  0  # atno 10763 bound_to 10752
  153.1808  135.4507  155.0024 H   0  0  0  0  0  0  0  0  0  0  0  0  # atno 10764 bound_to 10752
  154.8080  135.3365  154.7318 H   0  0  0  0  0  0  0  0  0  0  0  0  # atno 10765 bound_to 10752
  140.2364  134.3467  155.7943 H   0  0  0  0  0  0  0  0  0  0  0  0  # atno 11005 bound_to 11000
  144.8019  140.6228  143.6472 LP  0  0  0  0  0  0  0  0  0  0  0  0  # atno 17320 bound_to 7965
  145.4603  139.1513  143.3870 LP  0  0  0  0  0  0  0  0  0  0  0  0  # atno 17321 bound_to 7965
  140.2333  144.4346  150.6291 LP  0  0  0  0  0  0  0  0  0  0  0  0  # atno 17342 bound_to 10162
  140.6341  143.2192  151.6433 LP  0  0  0  0  0  0  0  0  0  0  0  0  # atno 17343 bound_to 10162
  157.2382  130.6557  149.5878 LP  0  0  0  0  0  0  0  0  0  0  0  0  # atno 17370 bound_to 10713
  155.9698  130.4577  150.5972 LP  0  0  0  0  0  0  0  0  0  0  0  0  # atno 17371 bound_to 10713
  141.2214  133.7274  156.8814 LP  0  0  0  0  0  0  0  0  0  0  0  0  # atno 17394 bound_to 11000
  140.1698  134.9108  157.2819 LP  0  0  0  0  0  0  0  0  0  0  0  0  # atno 17395 bound_to 11000

$$$$
