AV-unprocessed.smi:2124|AV-procd|sdf|8659|dock9
  -GOLD-   2272011403D 1   1.00000     0.00000
 Structure written by MMmdl.
 47 49  0  0  0  0  0  0  0  0  1 V2000
  154.2112  135.5950  164.3081 C   0  0  0  0  0  0  0  0  0  0  0  0
  154.4810  136.7665  163.3893 C   0  0  0  0  0  0  0  0  0  0  0  0
  153.7416  136.7369  162.2182 N   0  0  0  0  0  0  0  0  0  0  0  0
  153.9213  137.7680  161.3130 C   0  0  0  0  0  0  0  0  0  0  0  0
  153.0696  137.6644  160.0600 C   0  0  0  0  0  0  0  0  0  0  0  0
  154.7942  138.7769  161.5622 C   0  0  0  0  0  0  0  0  0  0  0  0
  155.0163  139.9408  160.5971 C   0  0  0  0  0  0  0  0  0  0  0  0
  153.8277  140.8829  160.3882 C   0  0  0  0  0  0  0  0  0  0  0  0
  153.0957  140.7637  159.4052 O   0  0  0  0  0  0  0  0  0  0  0  0
  153.6489  141.8189  161.3326 N   0  0  0  0  0  0  0  0  0  0  0  0
  152.5833  142.8186  161.3456 C   0  0  1  0  0  0  0  0  0  0  0  0
  152.5709  143.5314  162.7084 C   0  0  0  0  0  0  0  0  0  0  0  0
  152.7775  143.8090  160.1738 C   0  0  2  0  0  0  0  0  0  0  0  0
  152.0124  145.1438  160.3206 C   0  0  0  0  0  0  0  0  0  0  0  0
  151.2933  145.2826  158.9657 C   0  0  2  0  0  0  0  0  0  0  0  0
  150.1197  144.2872  158.9148 C   0  0  0  0  0  0  0  0  0  0  0  0
  150.8330  142.9325  158.7551 C   0  0  0  0  0  0  0  0  0  0  0  0
  152.3247  143.3270  158.7718 C   0  0  1  0  0  0  0  0  0  0  0  0
  152.2897  144.6450  158.0046 C   0  0  0  0  0  0  0  0  0  0  0  0
  155.5528  138.7567  162.8349 C   0  0  0  0  0  0  0  0  0  0  0  0
  156.3480  139.6499  163.1236 O   0  0  0  0  0  0  0  0  0  0  0  0
  155.3369  137.6861  163.7176 N   0  0  0  0  0  0  0  0  0  0  0  0
  153.0814  136.0064  161.9937 H   0  0  0  0  0  0  0  0  0  0  0  0
  154.7735  135.6907  165.2379 H   0  0  0  0  0  0  0  0  0  0  0  0
  154.5033  134.6609  163.8273 H   0  0  0  0  0  0  0  0  0  0  0  0
  153.1509  135.5418  164.5565 H   0  0  0  0  0  0  0  0  0  0  0  0
  152.4591  138.5595  159.9387 H   0  0  0  0  0  0  0  0  0  0  0  0
  152.3991  136.8050  160.0995 H   0  0  0  0  0  0  0  0  0  0  0  0
  153.7019  137.5553  159.1787 H   0  0  0  0  0  0  0  0  0  0  0  0
  155.2928  139.5412  159.6215 H   0  0  0  0  0  0  0  0  0  0  0  0
  155.8806  140.5274  160.9112 H   0  0  0  0  0  0  0  0  0  0  0  0
  154.3007  141.8412  162.1035 H   0  0  0  0  0  0  0  0  0  0  0  0
  151.6195  142.3228  161.2232 H   0  0  0  0  0  0  0  0  0  0  0  0
  151.7679  144.2663  162.7661 H   0  0  0  0  0  0  0  0  0  0  0  0
  153.5110  144.0523  162.8935 H   0  0  0  0  0  0  0  0  0  0  0  0
  152.4187  142.8214  163.5221 H   0  0  0  0  0  0  0  0  0  0  0  0
  153.8430  144.0361  160.1058 H   0  0  0  0  0  0  0  0  0  0  0  0
  151.3060  145.1444  161.1518 H   0  0  0  0  0  0  0  0  0  0  0  0
  152.7095  145.9671  160.4805 H   0  0  0  0  0  0  0  0  0  0  0  0
  151.0080  146.3070  158.7250 H   0  0  0  0  0  0  0  0  0  0  0  0
  149.5016  144.3288  159.8125 H   0  0  0  0  0  0  0  0  0  0  0  0
  149.4767  144.4854  158.0564 H   0  0  0  0  0  0  0  0  0  0  0  0
  150.5648  142.2175  159.5323 H   0  0  0  0  0  0  0  0  0  0  0  0
  150.5713  142.4806  157.7977 H   0  0  0  0  0  0  0  0  0  0  0  0
  152.9790  142.5708  158.3374 H   0  0  0  0  0  0  0  0  0  0  0  0
  151.9076  144.5457  156.9869 H   0  0  0  0  0  0  0  0  0  0  0  0
  153.2525  145.1581  157.9756 H   0  0  0  0  0  0  0  0  0  0  0  0
  1 24  1  0  0  0  0
  1 25  1  0  0  0  0
  1 26  1  0  0  0  0
  1  2  1  0  0  0  0
  2  3  1  0  0  0  0
  2 22  2  0  0  0  0
  3  4  1  0  0  0  0
  3 23  1  0  0  0  0
  4  6  2  0  0  0  0
  4  5  1  0  0  0  0
  5 27  1  0  0  0  0
  5 28  1  0  0  0  0
  5 29  1  0  0  0  0
  6 20  1  0  0  0  0
  6  7  1  0  0  0  0
  7  8  1  0  0  0  0
  7 30  1  0  0  0  0
  7 31  1  0  0  0  0
  8  9  2  0  0  0  0
  8 10  1  0  0  0  0
 10 11  1  0  0  0  0
 10 32  1  0  0  0  0
 11 12  1  0  0  0  0
 11 13  1  0  0  0  0
 11 33  1  0  0  0  0
 12 34  1  0  0  0  0
 12 35  1  0  0  0  0
 12 36  1  0  0  0  0
 13 18  1  0  0  0  0
 13 14  1  0  0  0  0
 13 37  1  0  0  0  0
 14 15  1  0  0  0  0
 14 38  1  0  0  0  0
 14 39  1  0  0  0  0
 15 19  1  0  0  0  0
 15 16  1  0  0  0  0
 15 40  1  0  0  0  0
 16 17  1  0  0  0  0
 16 41  1  0  0  0  0
 16 42  1  0  0  0  0
 17 18  1  0  0  0  0
 17 43  1  0  0  0  0
 17 44  1  0  0  0  0
 18 19  1  0  0  0  0
 18 45  1  0  0  0  0
 19 46  1  0  0  0  0
 19 47  1  0  0  0  0
 20 21  2  0  0  0  0
 20 22  1  0  0  0  0
M  END
> <s_m_source_file>
AV-unprocessed.smi

> <i_m_source_file_index>
2124

> <i_lp_mmshare_version>
43012

> <i_f3d_flags>
0

> <s_epik_input>
W0NIM11jMW5jKFtDSDNdKWMoYyg9TylbbkhdMSlbQ0gyXUMoPU8pW05IXVtDQEhdKFtDSDNdKVtDQEhdKFtDSDJdW0NASF0yMylbQ0BIXShbQ0gyXTMpW0NIMl1bQ0gyXTI=

> <s_epik_cmdline>
J2VwaWtfcHl0aG9uJywgJy1waCcsICc3LjAnLCAnLXRuJywgJzgnLCAnLW1hJywgJzIwMCcsICctbWV0YWxfYmluZGluZycsICctaW1hZScsICc8aW5maWxlLm1hZT4nLCAnLW9tYWUnLCAnPG91dGZpbGUubWFlPic=

> <r_lp_tautomer_probability>
0.156392

> <r_epik_Ionization_Penalty>
0.0139374

> <r_epik_Ionization_Penalty_Charging>
0.0138122

> <r_epik_Ionization_Penalty_Neutral>
0.000125146

> <r_epik_State_Penalty>
1.15342

> <r_epik_Charging_Adjusted_Penalty>
1.16723

> <i_epik_Tot_Q>
0

> <i_epik_Tot_abs_Q>
0

> <r_epik_Metal_State_Penalty>
1.3173

> <b_epik_Metal_Only>
0

> <s_lp_Force_Field>
OPLS_2005

> <r_lp_Energy>
55.6294

> <b_lp_Chiralities_Consistent>
1

> <s_lp_Variant>
AV-unprocessed.smi:2124-10

> <Gold.Version>
5.8.1

> <Gold.Id.Protein>
6NUR|6NUR_protein|mol2

> <Gold.PLP.Fitness>
48.8025

> <Gold.PLP.PLP>
-50.3315

> <Gold.PLP.part.hbond>
0.0000

> <Gold.PLP.part.metal>
0.0000

> <Gold.PLP.part.buried>
-4.9523

> <Gold.PLP.part.nonpolar>
-44.6738

> <Gold.PLP.part.repulsive>
0.0915

> <Gold.PLP.ligand.clash>
0.0000

> <Gold.PLP.ligand.torsion>
0.7706

> <Gold.PLP.Chemscore.Hbond>
0.0000

> <Gold.PLP.Chemscore.CHOScore>
0.0000

> <Gold.PLP.Chemscore.Metal>
0.0000

> <Gold.PLP.Chemscore.Internal.Correction>
0.0122

> <Gold.Rescore>
     Score         DG    S(hbond)    S(metal)    S(lipo)     H(rot)  DE(clash)    DE(int)     intcor
     15.14     -17.67       0.00        0.00     140.33       1.65       0.34       2.18       ----

> <Gold.Chemscore.Fitness>
15.1434

> <Gold.Chemscore.DG>
-17.6659

> <Gold.Chemscore.ZeroCoef>
-5.4800

> <Gold.Chemscore.Hbond>
0.0000

> <Gold.Chemscore.Metal>
0.0000

> <Gold.Chemscore.Lipo>
140.3289

> <Gold.Chemscore.Internal_Hbond>
0.0000

> <Gold.Chemscore.DEClash>
0.3377

> <Gold.Chemscore.DEInternal>
2.1848

> <Gold.Chemscore.Rot>
1.6534

> <Gold.Chemscore.Internal.Correction>
   9.000000E+99

> <Gold.Chemscore.Hbond.Weighted>
-0.0000

> <Gold.Chemscore.Metal.Weighted>
-0.0000

> <Gold.Chemscore.Lipo.Weighted>
-16.4185

> <Gold.Chemscore.Internal_Hbond.Weighted>
0.0000

> <Gold.Chemscore.DEClash.Weighted>
0.3377

> <Gold.Chemscore.DEInternal.Weighted>
2.1848

> <Gold.Chemscore.Rot.Weighted>
4.2326

> <Gold.Chemscore.Internal.Correction.Weighted>
   9.000000E+99

> <Gold.Protein.RotatedTorsions>
[ 6907 6896 6895 6894 ] final   14.81 input  -60.11 | X-H torsion
[ 7974 7965 7964 7962 ] final -147.30 input  175.53 | X-H torsion
[ 8008 7997 7996 7995 ] final  -90.91 input   59.86 | X-H torsion
[ 10167 10162 10161 10158 ] final   81.75 input  -65.29 | X-H torsion
[ 10718 10713 10712 10709 ] final  162.06 input   66.30 | X-H torsion
[ 10763 10752 10751 10750 ] final  172.83 input  -60.55 | X-H torsion
[ 11005 11000 10999 10996 ] final  129.62 input  -57.11 | X-H torsion

> <Gold.Protein.ActiveResidues>
 VAL166  LYS551  ARG553  GLY616  TRP617  ASP618  TYR619  PRO620  LYS621  CYS622 
 ASP623  PHE694  ASN695  SER759  ASP760  ASP761  ALA762  ILE779  LEU786  VAL792 
 PHE793  MET794  SER795  GLU796  ALA797  LYS798  CYS799  TRP800  GLU811  SER814 

> <Gold.Protein.RotatedAtoms>
  151.8081  135.0689  160.0408 H   0  0  0  0  0  0  0  0  0  0  0  0  # atno 6907 bound_to 6896
  152.3040  133.5680  159.5645 H   0  0  0  0  0  0  0  0  0  0  0  0  # atno 6908 bound_to 6896
  150.7287  134.0165  159.3729 H   0  0  0  0  0  0  0  0  0  0  0  0  # atno 6909 bound_to 6896
  144.8102  140.5345  143.5647 H   0  0  0  0  0  0  0  0  0  0  0  0  # atno 7974 bound_to 7965
  154.7043  140.0525  157.0488 H   0  0  0  0  0  0  0  0  0  0  0  0  # atno 8008 bound_to 7997
  155.0642  140.3192  155.4632 H   0  0  0  0  0  0  0  0  0  0  0  0  # atno 8009 bound_to 7997
  156.2770  140.2093  156.5769 H   0  0  0  0  0  0  0  0  0  0  0  0  # atno 8010 bound_to 7997
  139.9360  144.6121  150.8298 H   0  0  0  0  0  0  0  0  0  0  0  0  # atno 10167 bound_to 10162
  157.1279  131.0509  151.2385 H   0  0  0  0  0  0  0  0  0  0  0  0  # atno 10718 bound_to 10713
  154.4316  135.2760  155.1908 H   0  0  0  0  0  0  0  0  0  0  0  0  # atno 10763 bound_to 10752
  154.3812  135.6087  153.5795 H   0  0  0  0  0  0  0  0  0  0  0  0  # atno 10764 bound_to 10752
  152.9836  135.5881  154.4628 H   0  0  0  0  0  0  0  0  0  0  0  0  # atno 10765 bound_to 10752
  139.9626  134.9598  156.9174 H   0  0  0  0  0  0  0  0  0  0  0  0  # atno 11005 bound_to 11000
  145.5341  139.1475  143.3483 LP  0  0  0  0  0  0  0  0  0  0  0  0  # atno 17320 bound_to 7965
  146.2400  140.5482  142.8938 LP  0  0  0  0  0  0  0  0  0  0  0  0  # atno 17321 bound_to 7965
  140.7624  143.3198  151.2648 LP  0  0  0  0  0  0  0  0  0  0  0  0  # atno 17342 bound_to 10162
  139.6743  143.9964  152.2772 LP  0  0  0  0  0  0  0  0  0  0  0  0  # atno 17343 bound_to 10162
  157.4419  130.7549  149.7076 LP  0  0  0  0  0  0  0  0  0  0  0  0  # atno 17370 bound_to 10713
  155.9814  130.4019  150.3473 LP  0  0  0  0  0  0  0  0  0  0  0  0  # atno 17371 bound_to 10713
  140.5468  134.0666  155.7357 LP  0  0  0  0  0  0  0  0  0  0  0  0  # atno 17394 bound_to 11000
  141.1304  133.9312  157.2548 LP  0  0  0  0  0  0  0  0  0  0  0  0  # atno 17395 bound_to 11000

$$$$
