AV-unprocessed.smi:2827|AV-procd|sdf|10896|dock7
  -GOLD-   2272015343D 1   1.00000     0.00000
 Structure written by MMmdl.
 48 51  0  0  0  0  0  0  0  0  3 V2000
  146.0692  139.1518  154.3706 O   0  0  0  0  0  0  0  0  0  0  0  0
  146.8105  138.8695  153.4297 C   0  0  0  0  0  0  0  0  0  0  0  0
  147.9889  139.7808  153.0820 C   0  0  0  0  0  0  0  0  0  0  0  0
  148.9699  139.7471  154.1625 N   0  0  0  0  0  0  0  0  0  0  0  0
  149.4040  140.9157  154.7806 C   0  0  0  0  0  0  0  0  0  0  0  0
  150.5046  140.9973  155.5517 C   0  0  0  0  0  0  0  0  0  0  0  0
  151.3285  139.7914  155.7710 C   0  0  0  0  0  0  0  0  0  0  0  0
  152.3636  139.8505  156.4326 O   0  0  0  0  0  0  0  0  0  0  0  0
  150.8492  138.5255  155.1453 C   0  0  0  0  0  0  0  0  0  0  0  0
  151.5026  137.2390  155.2642 N   0  3  0  0  0  0  0  0  0  0  0  0
  152.6076  137.1788  155.7971 O   0  0  0  0  0  0  0  0  0  0  0  0
  150.9308  136.2450  154.8292 O   0  5  0  0  0  0  0  0  0  0  0  0
  149.7156  138.5930  154.4038 C   0  0  0  0  0  0  0  0  0  0  0  0
  146.6295  137.8092  152.6277 N   0  0  0  0  0  0  0  0  0  0  0  0
  145.4551  136.9442  152.6189 C   0  0  0  0  0  0  0  0  0  0  0  0
  145.8603  135.4603  152.4360 C   0  0  2  0  0  0  0  0  0  0  0  0
  145.9275  134.9714  150.9604 C   0  0  2  0  0  0  0  0  0  0  0  0
  144.5136  134.9004  150.3392 C   0  0  0  0  0  0  0  0  0  0  0  0
  143.6437  133.9179  151.1519 C   0  0  1  0  0  0  0  0  0  0  0  0
  144.2841  132.5136  151.1178 C   0  0  0  0  0  0  0  0  0  0  0  0
  145.6973  132.5829  151.7351 C   0  0  1  0  0  0  0  0  0  0  0  0
  146.5659  133.5651  150.9197 C   0  0  0  0  0  0  0  0  0  0  0  0
  145.5973  133.0697  153.1979 C   0  0  0  0  0  0  0  0  0  0  0  0
  144.9605  134.4783  153.2312 C   0  0  2  0  0  0  0  0  0  0  0  0
  143.5437  134.4014  152.6145 C   0  0  0  0  0  0  0  0  0  0  0  0
  148.4424  139.4489  152.1470 H   0  0  0  0  0  0  0  0  0  0  0  0
  147.6457  140.8029  152.9136 H   0  0  0  0  0  0  0  0  0  0  0  0
  148.7789  141.7769  154.5951 H   0  0  0  0  0  0  0  0  0  0  0  0
  150.8031  141.9288  156.0100 H   0  0  0  0  0  0  0  0  0  0  0  0
  149.3007  137.7174  153.9249 H   0  0  0  0  0  0  0  0  0  0  0  0
  147.3065  137.6550  151.8945 H   0  0  0  0  0  0  0  0  0  0  0  0
  144.9505  137.0679  153.5774 H   0  0  0  0  0  0  0  0  0  0  0  0
  144.7396  137.2638  151.8615 H   0  0  0  0  0  0  0  0  0  0  0  0
  146.8674  135.3819  152.8498 H   0  0  0  0  0  0  0  0  0  0  0  0
  146.5473  135.6399  150.3652 H   0  0  0  0  0  0  0  0  0  0  0  0
  144.0506  135.8867  150.3156 H   0  0  0  0  0  0  0  0  0  0  0  0
  144.5780  134.5737  149.3006 H   0  0  0  0  0  0  0  0  0  0  0  0
  142.6452  133.8713  150.7161 H   0  0  0  0  0  0  0  0  0  0  0  0
  143.6660  131.8024  151.6676 H   0  0  0  0  0  0  0  0  0  0  0  0
  144.3371  132.1468  150.0920 H   0  0  0  0  0  0  0  0  0  0  0  0
  146.1518  131.5920  151.7121 H   0  0  0  0  0  0  0  0  0  0  0  0
  146.6578  133.2226  149.8880 H   0  0  0  0  0  0  0  0  0  0  0  0
  147.5790  133.5968  151.3221 H   0  0  0  0  0  0  0  0  0  0  0  0
  145.0011  132.3717  153.7870 H   0  0  0  0  0  0  0  0  0  0  0  0
  146.5867  133.0900  153.6564 H   0  0  0  0  0  0  0  0  0  0  0  0
  144.8871  134.8082  154.2679 H   0  0  0  0  0  0  0  0  0  0  0  0
  143.0452  135.3694  152.6611 H   0  0  0  0  0  0  0  0  0  0  0  0
  142.9217  133.7168  153.1924 H   0  0  0  0  0  0  0  0  0  0  0  0
  1  2  2  0  0  0  0
  2  3  1  0  0  0  0
  2 14  1  0  0  0  0
  3  4  1  0  0  0  0
  3 26  1  0  0  0  0
  3 27  1  0  0  0  0
  4 13  1  0  0  0  0
  4  5  1  0  0  0  0
  5  6  2  0  0  0  0
  5 28  1  0  0  0  0
  6  7  1  0  0  0  0
  6 29  1  0  0  0  0
  7  8  2  0  0  0  0
  7  9  1  0  0  0  0
  9 10  1  0  0  0  0
  9 13  2  0  0  0  0
 10 11  2  0  0  0  0
 10 12  1  0  0  0  0
 13 30  1  0  0  0  0
 14 15  1  0  0  0  0
 14 31  1  0  0  0  0
 15 16  1  0  0  0  0
 15 32  1  0  0  0  0
 15 33  1  0  0  0  0
 16 24  1  0  0  0  0
 16 17  1  0  0  0  0
 16 34  1  0  0  0  0
 17 22  1  0  0  0  0
 17 18  1  0  0  0  0
 17 35  1  0  0  0  0
 18 19  1  0  0  0  0
 18 36  1  0  0  0  0
 18 37  1  0  0  0  0
 19 25  1  0  0  0  0
 19 20  1  0  0  0  0
 19 38  1  0  0  0  0
 20 21  1  0  0  0  0
 20 39  1  0  0  0  0
 20 40  1  0  0  0  0
 21 22  1  0  0  0  0
 21 23  1  0  0  0  0
 21 41  1  0  0  0  0
 22 42  1  0  0  0  0
 22 43  1  0  0  0  0
 23 24  1  0  0  0  0
 23 44  1  0  0  0  0
 23 45  1  0  0  0  0
 24 25  1  0  0  0  0
 24 46  1  0  0  0  0
 25 47  1  0  0  0  0
 25 48  1  0  0  0  0
M  CHG  1  10   1
M  CHG  1  12  -1
M  END
> <s_m_source_file>
AV-unprocessed.smi

> <i_m_source_file_index>
2827

> <i_lp_mmshare_version>
43012

> <i_f3d_flags>
0

> <s_epik_input>
Tz1bTitdKFtPLV0pYyhbY0hdMSljKD1PKVtjSF1bY0hdbjFbQ0gyXUMoPU8pW05IXVtDSDJdW0NASF0oW0NASF0yMylbQ0BASF00W0NIMl1bQ0BIXShbQ0gyXTMpW0NIMl1bQ0BIXShbQ0gyXTIpW0NIMl00

> <s_epik_cmdline>
J2VwaWtfcHl0aG9uJywgJy1waCcsICc3LjAnLCAnLXRuJywgJzgnLCAnLW1hJywgJzIwMCcsICctbWV0YWxfYmluZGluZycsICctaW1hZScsICc8aW5maWxlLm1hZT4nLCAnLW9tYWUnLCAnPG91dGZpbGUubWFlPic=

> <r_lp_tautomer_probability>
1

> <r_epik_Ionization_Penalty>
3.31423e-08

> <r_epik_Ionization_Penalty_Charging>
1.04538e-08

> <r_epik_Ionization_Penalty_Neutral>
2.26885e-08

> <r_epik_State_Penalty>
-0

> <r_epik_Charging_Adjusted_Penalty>
1.04538e-08

> <i_epik_Tot_Q>
0

> <i_epik_Tot_abs_Q>
2

> <r_epik_Metal_State_Penalty>
-0

> <b_epik_Metal_Only>
0

> <s_lp_Force_Field>
OPLS_2005

> <r_lp_Energy>
36.4142

> <b_lp_Chiralities_Consistent>
1

> <s_lp_Variant>
AV-unprocessed.smi:2827-1

> <Gold.Version>
5.8.1

> <Gold.Id.Protein>
6NUR|6NUR_protein|mol2

> <Gold.PLP.Fitness>
47.9820

> <Gold.PLP.PLP>
-40.6833

> <Gold.PLP.part.hbond>
-3.9244

> <Gold.PLP.part.metal>
0.0000

> <Gold.PLP.part.buried>
0.9896

> <Gold.PLP.part.nonpolar>
-38.3728

> <Gold.PLP.part.repulsive>
0.3295

> <Gold.PLP.ligand.clash>
0.0000

> <Gold.PLP.ligand.torsion>
0.6895

> <Gold.PLP.Chemscore.Hbond>
1.8486

> <Gold.PLP.Chemscore.CHOScore>
1.0000

> <Gold.PLP.Chemscore.Metal>
0.0000

> <Gold.Chemscore.Hbonds>
donor molecule, donor type, donor heavy atom, donor atom, acceptor molecule, acceptor atom, score
      L1  H    14    31       P1  7948  0.41
      P1  H  7997  8008       L1     8  0.86
      P1  H 10752 10763       L1    11  0.60
      L1  C    13    30       P1  7948  0.97

> <Gold.PLP.Chemscore.Internal.Correction>
0.1319

> <Gold.Rescore>
     Score         DG    S(hbond)    S(metal)    S(lipo)     H(rot)  DE(clash)    DE(int)     intcor
     15.30     -19.12       2.17        0.00      92.89       1.75       1.65       2.17       ----

> <Gold.Chemscore.Fitness>
15.3044

> <Gold.Chemscore.DG>
-19.1178

> <Gold.Chemscore.ZeroCoef>
-5.4800

> <Gold.Chemscore.Hbond>
2.1735

> <Gold.Chemscore.Metal>
0.0000

> <Gold.Chemscore.Lipo>
92.8936

> <Gold.Chemscore.Internal_Hbond>
0.0000

> <Gold.Chemscore.DEClash>
1.6483

> <Gold.Chemscore.DEInternal>
2.1650

> <Gold.Chemscore.Rot>
1.7540

> <Gold.Chemscore.Internal.Correction>
   9.000000E+99

> <Gold.Chemscore.Hbonds>
donor molecule, donor type, donor heavy atom, donor atom, acceptor molecule, acceptor atom, score
      L1  H    14    31       P1  7948  0.41
      P1  H  7997  8008       L1     8  0.79
      P1  H 10752 10763       L1    11  0.10

> <Gold.Chemscore.Hbond.Weighted>
-7.2594

> <Gold.Chemscore.Metal.Weighted>
-0.0000

> <Gold.Chemscore.Lipo.Weighted>
-10.8685

> <Gold.Chemscore.Internal_Hbond.Weighted>
0.0000

> <Gold.Chemscore.DEClash.Weighted>
1.6483

> <Gold.Chemscore.DEInternal.Weighted>
2.1650

> <Gold.Chemscore.Rot.Weighted>
4.4902

> <Gold.Chemscore.Internal.Correction.Weighted>
   9.000000E+99

> <Gold.Protein.RotatedTorsions>
[ 6907 6896 6895 6894 ] final  -13.55 input  -60.11 | X-H torsion
[ 7974 7965 7964 7962 ] final   31.73 input  175.53 | X-H torsion
[ 8008 7997 7996 7995 ] final  -25.54 input   59.86 | X-H torsion
[ 10167 10162 10161 10158 ] final  133.88 input  -65.29 | X-H torsion
[ 10718 10713 10712 10709 ] final -130.53 input   66.30 | X-H torsion
[ 10763 10752 10751 10750 ] final   88.25 input  -60.55 | X-H torsion
[ 11005 11000 10999 10996 ] final -169.56 input  -57.11 | X-H torsion

> <Gold.Protein.ActiveResidues>
 VAL166  LYS551  ARG553  GLY616  TRP617  ASP618  TYR619  PRO620  LYS621  CYS622 
 ASP623  PHE694  ASN695  SER759  ASP760  ASP761  ALA762  ILE779  LEU786  VAL792 
 PHE793  MET794  SER795  GLU796  ALA797  LYS798  CYS799  TRP800  GLU811  SER814 

> <Gold.Protein.RotatedAtoms>
  151.3532  135.0888  159.9409 H   0  0  0  0  0  0  0  0  0  0  0  0  # atno 6907 bound_to 6896
  152.5182  133.9332  159.7601 H   0  0  0  0  0  0  0  0  0  0  0  0  # atno 6908 bound_to 6896
  150.9711  133.6289  159.2767 H   0  0  0  0  0  0  0  0  0  0  0  0  # atno 6909 bound_to 6896
  146.1532  139.6619  142.9085 H   0  0  0  0  0  0  0  0  0  0  0  0  # atno 7974 bound_to 7965
  154.4470  140.1924  156.0635 H   0  0  0  0  0  0  0  0  0  0  0  0  # atno 8008 bound_to 7997
  156.0565  140.3302  155.7384 H   0  0  0  0  0  0  0  0  0  0  0  0  # atno 8009 bound_to 7997
  155.5478  140.0592  157.2847 H   0  0  0  0  0  0  0  0  0  0  0  0  # atno 8010 bound_to 7997
  139.5279  144.6594  151.5059 H   0  0  0  0  0  0  0  0  0  0  0  0  # atno 10167 bound_to 10162
  156.2153  130.6944  151.0696 H   0  0  0  0  0  0  0  0  0  0  0  0  # atno 10718 bound_to 10713
  153.1749  135.4514  154.9952 H   0  0  0  0  0  0  0  0  0  0  0  0  # atno 10763 bound_to 10752
  154.7991  135.3249  154.7596 H   0  0  0  0  0  0  0  0  0  0  0  0  # atno 10764 bound_to 10752
  153.8067  135.6958  153.4902 H   0  0  0  0  0  0  0  0  0  0  0  0  # atno 10765 bound_to 10752
  140.5294  134.5631  157.5070 H   0  0  0  0  0  0  0  0  0  0  0  0  # atno 11005 bound_to 11000
  145.4773  141.0437  143.2665 LP  0  0  0  0  0  0  0  0  0  0  0  0  # atno 17320 bound_to 7965
  144.7930  139.6291  143.7105 LP  0  0  0  0  0  0  0  0  0  0  0  0  # atno 17321 bound_to 7965
  140.6435  143.8840  150.6715 LP  0  0  0  0  0  0  0  0  0  0  0  0  # atno 17342 bound_to 10162
  140.2183  143.3829  152.1664 LP  0  0  0  0  0  0  0  0  0  0  0  0  # atno 17343 bound_to 10162
  157.7060  131.0756  150.6665 LP  0  0  0  0  0  0  0  0  0  0  0  0  # atno 17370 bound_to 10713
  156.6726  130.4544  149.5652 LP  0  0  0  0  0  0  0  0  0  0  0  0  # atno 17371 bound_to 10713
  139.9562  134.7530  156.0336 LP  0  0  0  0  0  0  0  0  0  0  0  0  # atno 17394 bound_to 11000
  141.1290  133.6591  156.3413 LP  0  0  0  0  0  0  0  0  0  0  0  0  # atno 17395 bound_to 11000

$$$$
