AV-unprocessed.smi:2321|AV-procd|sdf|9283|dock3
  -GOLD-   2272012503D 1   1.00000     0.00000
 Structure written by MMmdl.
 36 37  0  0  0  0  0  0  0  0  1 V2000
  146.2176  136.9801  153.3932 O   0  0  0  0  0  0  0  0  0  0  0  0
  145.6181  138.0345  153.1953 C   0  0  0  0  0  0  0  0  0  0  0  0
  146.1299  139.2625  153.4087 N   0  0  0  0  0  0  0  0  0  0  0  0
  147.4168  139.6264  153.8891 C   0  0  0  0  0  0  0  0  0  0  0  0
  148.4646  138.7064  154.1356 C   0  0  0  0  0  0  0  0  0  0  0  0
  149.6903  139.1972  154.6290 C   0  0  0  0  0  0  0  0  0  0  0  0
  149.9193  140.5020  154.8891 N   0  0  0  0  0  0  0  0  0  0  0  0
  148.9131  141.3739  154.6665 C   0  0  0  0  0  0  0  0  0  0  0  0
  147.6499  140.9885  154.1745 C   0  0  0  0  0  0  0  0  0  0  0  0
  146.6807  141.9148  153.9767 F   0  0  0  0  0  0  0  0  0  0  0  0
  144.3638  138.0377  152.7068 N   0  0  0  0  0  0  0  0  0  0  0  0
  143.5161  136.8934  152.3635 C   0  0  2  0  0  0  0  0  0  0  0  0
  142.6135  136.5493  153.5616 C   0  0  0  0  0  0  0  0  0  0  0  0
  141.7408  135.3202  153.2673 C   0  0  0  0  0  0  0  0  0  0  0  0
  142.5993  134.1112  152.8643 C   0  0  0  0  0  0  0  0  0  0  0  0
  143.5059  134.4341  151.6580 C   0  0  2  0  0  0  0  0  0  0  0  0
  144.3590  133.2205  151.2343 C   0  0  0  0  0  0  0  0  0  0  0  0
  143.5880  132.2383  150.7664 F   0  0  0  0  0  0  0  0  0  0  0  0
  145.2231  133.5793  150.2848 F   0  0  0  0  0  0  0  0  0  0  0  0
  145.0535  132.7644  152.2768 F   0  0  0  0  0  0  0  0  0  0  0  0
  144.3741  135.6737  151.9634 C   0  0  0  0  0  0  0  0  0  0  0  0
  145.5451  140.0355  153.1266 H   0  0  0  0  0  0  0  0  0  0  0  0
  148.3524  137.6460  153.9714 H   0  0  0  0  0  0  0  0  0  0  0  0
  150.5082  138.5203  154.8263 H   0  0  0  0  0  0  0  0  0  0  0  0
  149.1200  142.4103  154.8890 H   0  0  0  0  0  0  0  0  0  0  0  0
  143.9558  138.9458  152.5371 H   0  0  0  0  0  0  0  0  0  0  0  0
  142.8657  137.1619  151.5289 H   0  0  0  0  0  0  0  0  0  0  0  0
  143.2248  136.3555  154.4443 H   0  0  0  0  0  0  0  0  0  0  0  0
  141.9764  137.3998  153.8075 H   0  0  0  0  0  0  0  0  0  0  0  0
  141.1405  135.0737  154.1436 H   0  0  0  0  0  0  0  0  0  0  0  0
  141.0373  135.5532  152.4671 H   0  0  0  0  0  0  0  0  0  0  0  0
  143.2098  133.8018  153.7136 H   0  0  0  0  0  0  0  0  0  0  0  0
  141.9481  133.2685  152.6300 H   0  0  0  0  0  0  0  0  0  0  0  0
  142.8585  134.6844  150.8161 H   0  0  0  0  0  0  0  0  0  0  0  0
  144.9810  135.9173  151.0910 H   0  0  0  0  0  0  0  0  0  0  0  0
  145.0746  135.4407  152.7666 H   0  0  0  0  0  0  0  0  0  0  0  0
  1  2  2  0  0  0  0
  2  3  1  0  0  0  0
  2 11  1  0  0  0  0
  3  4  1  0  0  0  0
  3 22  1  0  0  0  0
  4  9  1  0  0  0  0
  4  5  2  0  0  0  0
  5  6  1  0  0  0  0
  5 23  1  0  0  0  0
  6  7  2  0  0  0  0
  6 24  1  0  0  0  0
  7  8  1  0  0  0  0
  8  9  2  0  0  0  0
  8 25  1  0  0  0  0
  9 10  1  0  0  0  0
 11 12  1  0  0  0  0
 11 26  1  0  0  0  0
 12 21  1  0  0  0  0
 12 13  1  0  0  0  0
 12 27  1  0  0  0  0
 13 14  1  0  0  0  0
 13 28  1  0  0  0  0
 13 29  1  0  0  0  0
 14 15  1  0  0  0  0
 14 30  1  0  0  0  0
 14 31  1  0  0  0  0
 15 16  1  0  0  0  0
 15 32  1  0  0  0  0
 15 33  1  0  0  0  0
 16 17  1  0  0  0  0
 16 21  1  0  0  0  0
 16 34  1  0  0  0  0
 17 18  1  0  0  0  0
 17 19  1  0  0  0  0
 17 20  1  0  0  0  0
 21 35  1  0  0  0  0
 21 36  1  0  0  0  0
M  END
> <s_m_source_file>
AV-unprocessed.smi

> <i_m_source_file_index>
2321

> <i_lp_mmshare_version>
43012

> <i_f3d_flags>
0

> <s_epik_input>
RkMoRikoRilbQ0BASF0oW0NIMl0xKVtDSDJdW0NIMl1bQ0gyXVtDQEhdMVtOSF1DKD1PKVtOSF1jMltjSF1bY0hdbltjSF1jMkY=

> <s_epik_cmdline>
J2VwaWtfcHl0aG9uJywgJy1waCcsICc3LjAnLCAnLXRuJywgJzgnLCAnLW1hJywgJzIwMCcsICctbWV0YWxfYmluZGluZycsICctaW1hZScsICc8aW5maWxlLm1hZT4nLCAnLW9tYWUnLCAnPG91dGZpbGUubWFlPic=

> <r_epik_Ionization_Penalty>
0.00319438

> <r_epik_Ionization_Penalty_Charging>
0

> <r_epik_Ionization_Penalty_Neutral>
0.00319438

> <r_epik_State_Penalty>
0.00222511

> <r_epik_Charging_Adjusted_Penalty>
0.00222511

> <i_epik_Tot_Q>
0

> <i_epik_Tot_abs_Q>
0

> <r_epik_Metal_State_Penalty>
-0

> <b_epik_Metal_Only>
0

> <s_lp_Force_Field>
OPLS_2005

> <r_lp_Energy>
26.7556

> <b_lp_Chiralities_Consistent>
1

> <s_lp_Variant>
AV-unprocessed.smi:2321-3

> <Gold.Version>
5.8.1

> <Gold.Id.Protein>
6NUR|6NUR_protein|mol2

> <Gold.PLP.Fitness>
46.0512

> <Gold.PLP.PLP>
-38.5356

> <Gold.PLP.part.hbond>
-3.9559

> <Gold.PLP.part.metal>
0.0000

> <Gold.PLP.part.buried>
-2.0304

> <Gold.PLP.part.nonpolar>
-33.3582

> <Gold.PLP.part.repulsive>
0.2711

> <Gold.PLP.ligand.clash>
2.7304

> <Gold.PLP.ligand.torsion>
0.4778

> <Gold.PLP.Chemscore.Hbond>
2.7280

> <Gold.PLP.Chemscore.CHOScore>
1.0000

> <Gold.PLP.Chemscore.Metal>
0.0000

> <Gold.Chemscore.Hbonds>
donor molecule, donor type, donor heavy atom, donor atom, acceptor molecule, acceptor atom, score
      L1  H     3    22       P1 10175  0.85
      L1  H    11    26       P1 10175  0.98
      P1  H  7989  7998       L1     7  0.46
      L1  C     8    25       P1  8028  1.00

> <Gold.PLP.Chemscore.Internal.Correction>
0.0177

> <Gold.Rescore>
     Score         DG    S(hbond)    S(metal)    S(lipo)     H(rot)  DE(clash)    DE(int)     intcor
     14.75     -19.70       2.55        0.00      70.55       1.00       1.54       3.41       ----

> <Gold.Chemscore.Fitness>
14.7489

> <Gold.Chemscore.DG>
-19.6996

> <Gold.Chemscore.ZeroCoef>
-5.4800

> <Gold.Chemscore.Hbond>
2.5526

> <Gold.Chemscore.Metal>
0.0000

> <Gold.Chemscore.Lipo>
70.5465

> <Gold.Chemscore.Internal_Hbond>
0.0000

> <Gold.Chemscore.DEClash>
1.5399

> <Gold.Chemscore.DEInternal>
3.4108

> <Gold.Chemscore.Rot>
1.0000

> <Gold.Chemscore.Internal.Correction>
   9.000000E+99

> <Gold.Chemscore.Hbonds>
donor molecule, donor type, donor heavy atom, donor atom, acceptor molecule, acceptor atom, score
      L1  H     3    22       P1 10175  0.80
      L1  H    11    26       P1 10175  0.92
      P1  H  7989  7998       L1     7  0.08

> <Gold.Chemscore.Hbond.Weighted>
-8.5257

> <Gold.Chemscore.Metal.Weighted>
-0.0000

> <Gold.Chemscore.Lipo.Weighted>
-8.2539

> <Gold.Chemscore.Internal_Hbond.Weighted>
0.0000

> <Gold.Chemscore.DEClash.Weighted>
1.5399

> <Gold.Chemscore.DEInternal.Weighted>
3.4108

> <Gold.Chemscore.Rot.Weighted>
2.5600

> <Gold.Chemscore.Internal.Correction.Weighted>
   9.000000E+99

> <Gold.Protein.RotatedTorsions>
[ 6907 6896 6895 6894 ] final  151.01 input  -60.11 | X-H torsion
[ 7974 7965 7964 7962 ] final   53.64 input  175.53 | X-H torsion
[ 8008 7997 7996 7995 ] final  120.67 input   59.86 | X-H torsion
[ 10167 10162 10161 10158 ] final  -41.39 input  -65.29 | X-H torsion
[ 10718 10713 10712 10709 ] final  128.28 input   66.30 | X-H torsion
[ 10763 10752 10751 10750 ] final   88.69 input  -60.55 | X-H torsion
[ 11005 11000 10999 10996 ] final -171.48 input  -57.11 | X-H torsion

> <Gold.Protein.ActiveResidues>
 VAL166  LYS551  ARG553  GLY616  TRP617  ASP618  TYR619  PRO620  LYS621  CYS622 
 ASP623  PHE694  ASN695  SER759  ASP760  ASP761  ALA762  ILE779  LEU786  VAL792 
 PHE793  MET794  SER795  GLU796  ALA797  LYS798  CYS799  TRP800  GLU811  SER814 

> <Gold.Protein.RotatedAtoms>
  152.1065  133.4278  159.4611 H   0  0  0  0  0  0  0  0  0  0  0  0  # atno 6907 bound_to 6896
  150.6865  134.2698  159.4593 H   0  0  0  0  0  0  0  0  0  0  0  0  # atno 6908 bound_to 6896
  152.0563  134.9622  160.0625 H   0  0  0  0  0  0  0  0  0  0  0  0  # atno 6909 bound_to 6896
  145.9691  139.4132  143.0201 H   0  0  0  0  0  0  0  0  0  0  0  0  # atno 7974 bound_to 7965
  156.2653  140.2825  156.1186 H   0  0  0  0  0  0  0  0  0  0  0  0  # atno 8008 bound_to 7997
  155.1179  140.0392  157.2759 H   0  0  0  0  0  0  0  0  0  0  0  0  # atno 8009 bound_to 7997
  154.6692  140.2584  155.7031 H   0  0  0  0  0  0  0  0  0  0  0  0  # atno 8010 bound_to 7997
  140.7004  143.3097  151.3060 H   0  0  0  0  0  0  0  0  0  0  0  0  # atno 10167 bound_to 10162
  157.5258  131.1098  150.9084 H   0  0  0  0  0  0  0  0  0  0  0  0  # atno 10718 bound_to 10713
  153.1794  135.4497  155.0008 H   0  0  0  0  0  0  0  0  0  0  0  0  # atno 10763 bound_to 10752
  154.8020  135.3259  154.7529 H   0  0  0  0  0  0  0  0  0  0  0  0  # atno 10764 bound_to 10752
  153.7995  135.6963  153.4913 H   0  0  0  0  0  0  0  0  0  0  0  0  # atno 10765 bound_to 10752
  140.5077  134.5832  157.5009 H   0  0  0  0  0  0  0  0  0  0  0  0  # atno 11005 bound_to 11000
  145.7931  140.9805  143.1038 LP  0  0  0  0  0  0  0  0  0  0  0  0  # atno 17320 bound_to 7965
  144.6832  139.9708  143.7482 LP  0  0  0  0  0  0  0  0  0  0  0  0  # atno 17321 bound_to 7965
  139.6516  144.0353  152.2630 LP  0  0  0  0  0  0  0  0  0  0  0  0  # atno 17342 bound_to 10162
  139.9891  144.6374  150.7831 LP  0  0  0  0  0  0  0  0  0  0  0  0  # atno 17343 bound_to 10162
  156.9681  130.5480  149.5289 LP  0  0  0  0  0  0  0  0  0  0  0  0  # atno 17370 bound_to 10713
  156.0386  130.5471  150.8715 LP  0  0  0  0  0  0  0  0  0  0  0  0  # atno 17371 bound_to 10713
  139.9677  134.7346  156.0105 LP  0  0  0  0  0  0  0  0  0  0  0  0  # atno 17394 bound_to 11000
  141.1402  133.6566  156.3708 LP  0  0  0  0  0  0  0  0  0  0  0  0  # atno 17395 bound_to 11000

$$$$
