AV-unprocessed.smi:2695|AV-procd|sdf|10411|dock5
  -GOLD-   2272014443D 1   1.00000     0.00000
 Structure written by MMmdl.
 42 43  0  0  0  0  0  0  0  0  1 V2000
  150.9197  137.6708  154.9226 C   0  0  0  0  0  0  0  0  0  0  0  0
  149.8823  138.7848  154.9889 C   0  0  0  0  0  0  0  0  0  0  0  0
  148.6491  138.5757  154.4720 C   0  0  0  0  0  0  0  0  0  0  0  0
  147.6330  139.6425  154.4844 C   0  0  0  0  0  0  0  0  0  0  0  0
  146.4968  139.4678  154.0492 O   0  0  0  0  0  0  0  0  0  0  0  0
  148.0644  140.9314  155.0434 C   0  0  0  0  0  0  0  0  0  0  0  0
  149.3117  141.0456  155.5390 C   0  0  0  0  0  0  0  0  0  0  0  0
  149.7595  142.2074  156.0393 O   0  0  0  0  0  0  0  0  0  0  0  0
  150.2651  140.0089  155.5818 N   0  0  0  0  0  0  0  0  0  0  0  0
  151.5815  140.1919  156.2204 C   0  0  0  0  0  0  0  0  0  0  0  0
  151.4974  140.4432  157.7325 C   0  0  0  0  0  0  0  0  0  0  0  0
  150.5901  139.9558  158.4084 O   0  0  0  0  0  0  0  0  0  0  0  0
  152.4610  141.2241  158.2444 N   0  0  0  0  0  0  0  0  0  0  0  0
  152.6136  141.5972  159.6522 C   0  0  2  0  0  0  0  0  0  0  0  0
  152.5277  143.1397  159.7946 C   0  0  0  0  0  0  0  0  0  0  0  0
  151.9523  143.6383  161.1259 C   0  0  0  0  0  0  0  0  0  0  0  0
  151.4979  145.0786  160.8650 C   0  0  0  0  0  0  0  0  0  0  0  0
  151.3057  145.2023  159.3474 C   0  0  0  0  0  0  0  0  0  0  0  0
  151.6164  143.8209  158.7641 C   0  0  0  0  0  0  0  0  0  0  0  0
  153.9328  140.9896  160.1821 C   0  0  0  0  0  0  0  0  0  0  0  0
  154.1010  141.3244  161.4624 F   0  0  0  0  0  0  0  0  0  0  0  0
  153.9081  139.6595  160.0885 F   0  0  0  0  0  0  0  0  0  0  0  0
  154.9813  141.4519  159.5026 F   0  0  0  0  0  0  0  0  0  0  0  0
  150.6206  136.9029  154.2085 H   0  0  0  0  0  0  0  0  0  0  0  0
  151.0279  137.1928  155.8965 H   0  0  0  0  0  0  0  0  0  0  0  0
  151.8928  138.0390  154.5984 H   0  0  0  0  0  0  0  0  0  0  0  0
  148.3847  137.6286  154.0240 H   0  0  0  0  0  0  0  0  0  0  0  0
  147.3753  141.7635  155.0360 H   0  0  0  0  0  0  0  0  0  0  0  0
  152.2190  139.3246  156.0443 H   0  0  0  0  0  0  0  0  0  0  0  0
  152.1317  141.0104  155.7576 H   0  0  0  0  0  0  0  0  0  0  0  0
  153.1617  141.5794  157.6101 H   0  0  0  0  0  0  0  0  0  0  0  0
  151.8016  141.1577  160.2341 H   0  0  0  0  0  0  0  0  0  0  0  0
  153.5281  143.5611  159.6821 H   0  0  0  0  0  0  0  0  0  0  0  0
  151.0902  143.0322  161.4080 H   0  0  0  0  0  0  0  0  0  0  0  0
  152.6745  143.5855  161.9409 H   0  0  0  0  0  0  0  0  0  0  0  0
  150.5830  145.3094  161.4117 H   0  0  0  0  0  0  0  0  0  0  0  0
  152.2622  145.7814  161.1987 H   0  0  0  0  0  0  0  0  0  0  0  0
  150.2981  145.5278  159.0872 H   0  0  0  0  0  0  0  0  0  0  0  0
  152.0006  145.9421  158.9480 H   0  0  0  0  0  0  0  0  0  0  0  0
  152.0730  143.8867  157.7759 H   0  0  0  0  0  0  0  0  0  0  0  0
  150.6889  143.2558  158.6600 H   0  0  0  0  0  0  0  0  0  0  0  0
  149.0906  142.8580  155.8897 H   0  0  0  0  0  0  0  0  0  0  0  0
  1  2  1  0  0  0  0
  1 24  1  0  0  0  0
  1 25  1  0  0  0  0
  1 26  1  0  0  0  0
  2  9  1  0  0  0  0
  2  3  2  0  0  0  0
  3  4  1  0  0  0  0
  3 27  1  0  0  0  0
  4  5  2  0  0  0  0
  4  6  1  0  0  0  0
  6  7  2  0  0  0  0
  6 28  1  0  0  0  0
  7  8  1  0  0  0  0
  7  9  1  0  0  0  0
  8 42  1  0  0  0  0
  9 10  1  0  0  0  0
 10 11  1  0  0  0  0
 10 29  1  0  0  0  0
 10 30  1  0  0  0  0
 11 12  2  0  0  0  0
 11 13  1  0  0  0  0
 13 14  1  0  0  0  0
 13 31  1  0  0  0  0
 14 15  1  0  0  0  0
 14 20  1  0  0  0  0
 14 32  1  0  0  0  0
 15 19  1  0  0  0  0
 15 16  1  0  0  0  0
 15 33  1  0  0  0  0
 16 17  1  0  0  0  0
 16 34  1  0  0  0  0
 16 35  1  0  0  0  0
 17 18  1  0  0  0  0
 17 36  1  0  0  0  0
 17 37  1  0  0  0  0
 18 19  1  0  0  0  0
 18 38  1  0  0  0  0
 18 39  1  0  0  0  0
 19 40  1  0  0  0  0
 19 41  1  0  0  0  0
 20 21  1  0  0  0  0
 20 22  1  0  0  0  0
 20 23  1  0  0  0  0
M  END
> <s_m_source_file>
AV-unprocessed.smi

> <i_m_source_file_index>
2695

> <i_lp_mmshare_version>
43012

> <i_f3d_flags>
0

> <s_epik_input>
W0NIM11jMVtjSF1jKFtPSF0pW2NIXWMoPU8pbjFbQ0gyXUMoPU8pW05IXVtDQEBIXShDKEYpKEYpRilbQ0hdMltDSDJdW0NIMl1bQ0gyXVtDSDJdMg==

> <s_epik_cmdline>
J2VwaWtfcHl0aG9uJywgJy1waCcsICc3LjAnLCAnLXRuJywgJzgnLCAnLW1hJywgJzIwMCcsICctbWV0YWxfYmluZGluZycsICctaW1hZScsICc8aW5maWxlLm1hZT4nLCAnLW9tYWUnLCAnPG91dGZpbGUubWFlPic=

> <r_epik_Ionization_Penalty>
1.35977e-07

> <r_epik_Ionization_Penalty_Charging>
0

> <r_epik_Ionization_Penalty_Neutral>
1.35977e-07

> <r_epik_State_Penalty>
2.53185

> <r_epik_Charging_Adjusted_Penalty>
2.53185

> <i_epik_Tot_Q>
0

> <i_epik_Tot_abs_Q>
0

> <r_epik_Metal_State_Penalty>
2.53184

> <b_epik_Metal_Only>
0

> <s_lp_Force_Field>
OPLS_2005

> <r_lp_Energy>
25.5635

> <b_lp_Chiralities_Consistent>
1

> <s_lp_Variant>
AV-unprocessed.smi:2695-5

> <Gold.Version>
5.8.1

> <Gold.Id.Protein>
6NUR|6NUR_protein|mol2

> <Gold.PLP.Fitness>
55.7410

> <Gold.PLP.PLP>
-54.6922

> <Gold.PLP.part.hbond>
-1.0000

> <Gold.PLP.part.metal>
0.0000

> <Gold.PLP.part.buried>
-1.5406

> <Gold.PLP.part.nonpolar>
-51.0098

> <Gold.PLP.part.repulsive>
0.2725

> <Gold.PLP.ligand.clash>
0.0006

> <Gold.PLP.ligand.torsion>
1.1077

> <Gold.PLP.Chemscore.Hbond>
1.0000

> <Gold.PLP.Chemscore.CHOScore>
0.0000

> <Gold.PLP.Chemscore.Metal>
0.0000

> <Gold.Chemscore.Hbonds>
donor molecule, donor type, donor heavy atom, donor atom, acceptor molecule, acceptor atom, score
      L1  H     8    42       P1  8028  0.83

> <Gold.PLP.Chemscore.Internal.Correction>
0.2648

> <Gold.Rescore>
     Score         DG    S(hbond)    S(metal)    S(lipo)     H(rot)  DE(clash)    DE(int)     intcor
     13.53     -15.75       1.00        0.00     112.98       2.45       0.13       2.10       ----

> <Gold.Chemscore.Fitness>
13.5252

> <Gold.Chemscore.DG>
-15.7482

> <Gold.Chemscore.ZeroCoef>
-5.4800

> <Gold.Chemscore.Hbond>
0.9955

> <Gold.Chemscore.Metal>
0.0000

> <Gold.Chemscore.Lipo>
112.9785

> <Gold.Chemscore.Internal_Hbond>
0.0000

> <Gold.Chemscore.DEClash>
0.1270

> <Gold.Chemscore.DEInternal>
2.0960

> <Gold.Chemscore.Rot>
2.4512

> <Gold.Chemscore.Internal.Correction>
   9.000000E+99

> <Gold.Chemscore.Hbonds>
donor molecule, donor type, donor heavy atom, donor atom, acceptor molecule, acceptor atom, score
      L1  H     8    42       P1  8028  0.81

> <Gold.Chemscore.Hbond.Weighted>
-3.3249

> <Gold.Chemscore.Metal.Weighted>
-0.0000

> <Gold.Chemscore.Lipo.Weighted>
-13.2185

> <Gold.Chemscore.Internal_Hbond.Weighted>
0.0000

> <Gold.Chemscore.DEClash.Weighted>
0.1270

> <Gold.Chemscore.DEInternal.Weighted>
2.0960

> <Gold.Chemscore.Rot.Weighted>
6.2752

> <Gold.Chemscore.Internal.Correction.Weighted>
   9.000000E+99

> <Gold.Protein.RotatedTorsions>
[ 6907 6896 6895 6894 ] final -112.52 input  -60.11 | X-H torsion
[ 7974 7965 7964 7962 ] final  -84.60 input  175.53 | X-H torsion
[ 8008 7997 7996 7995 ] final  117.18 input   59.86 | X-H torsion
[ 10167 10162 10161 10158 ] final  139.57 input  -65.29 | X-H torsion
[ 10718 10713 10712 10709 ] final -110.41 input   66.30 | X-H torsion
[ 10763 10752 10751 10750 ] final  172.87 input  -60.55 | X-H torsion
[ 11005 11000 10999 10996 ] final  -15.07 input  -57.11 | X-H torsion

> <Gold.Protein.ActiveResidues>
 VAL166  LYS551  ARG553  GLY616  TRP617  ASP618  TYR619  PRO620  LYS621  CYS622 
 ASP623  PHE694  ASN695  SER759  ASP760  ASP761  ALA762  ILE779  LEU786  VAL792 
 PHE793  MET794  SER795  GLU796  ALA797  LYS798  CYS799  TRP800  GLU811  SER814 

> <Gold.Protein.RotatedAtoms>
  150.7764  133.9078  159.3360 H   0  0  0  0  0  0  0  0  0  0  0  0  # atno 6907 bound_to 6896
  151.6951  135.0938  160.0250 H   0  0  0  0  0  0  0  0  0  0  0  0  # atno 6908 bound_to 6896
  152.3801  133.6497  159.6190 H   0  0  0  0  0  0  0  0  0  0  0  0  # atno 6909 bound_to 6896
  145.5044  140.9545  143.1741 H   0  0  0  0  0  0  0  0  0  0  0  0  # atno 7974 bound_to 7965
  156.2480  140.2901  156.0639 H   0  0  0  0  0  0  0  0  0  0  0  0  # atno 8008 bound_to 7997
  155.1745  140.0402  157.2887 H   0  0  0  0  0  0  0  0  0  0  0  0  # atno 8009 bound_to 7997
  154.6302  140.2497  155.7449 H   0  0  0  0  0  0  0  0  0  0  0  0  # atno 8010 bound_to 7997
  139.5075  144.6286  151.5874 H   0  0  0  0  0  0  0  0  0  0  0  0  # atno 10167 bound_to 10162
  156.0589  130.5814  150.8233 H   0  0  0  0  0  0  0  0  0  0  0  0  # atno 10718 bound_to 10713
  154.4321  135.2760  155.1905 H   0  0  0  0  0  0  0  0  0  0  0  0  # atno 10763 bound_to 10752
  154.3807  135.6088  153.5793 H   0  0  0  0  0  0  0  0  0  0  0  0  # atno 10764 bound_to 10752
  152.9836  135.5879  154.4634 H   0  0  0  0  0  0  0  0  0  0  0  0  # atno 10765 bound_to 10752
  140.7929  133.8274  155.9397 H   0  0  0  0  0  0  0  0  0  0  0  0  # atno 11005 bound_to 11000
  144.7762  139.6626  143.7174 LP  0  0  0  0  0  0  0  0  0  0  0  0  # atno 17320 bound_to 7965
  146.2205  139.5628  142.9621 LP  0  0  0  0  0  0  0  0  0  0  0  0  # atno 17321 bound_to 7965
  140.6012  143.9607  150.6387 LP  0  0  0  0  0  0  0  0  0  0  0  0  # atno 17342 bound_to 10162
  140.2819  143.3383  152.1143 LP  0  0  0  0  0  0  0  0  0  0  0  0  # atno 17343 bound_to 10162
  157.5582  131.0945  150.9597 LP  0  0  0  0  0  0  0  0  0  0  0  0  # atno 17370 bound_to 10713
  156.9841  130.5538  149.5298 LP  0  0  0  0  0  0  0  0  0  0  0  0  # atno 17371 bound_to 10713
  140.9371  134.1948  157.4823 LP  0  0  0  0  0  0  0  0  0  0  0  0  # atno 17394 bound_to 11000
  139.8729  134.9857  156.5292 LP  0  0  0  0  0  0  0  0  0  0  0  0  # atno 17395 bound_to 11000

$$$$
