AV-unprocessed.smi:2079|AV-procd|sdf|8485|dock10
  -GOLD-   2272011193D 1   1.00000     0.00000
 Structure written by MMmdl.
 41 42  0  0  0  0  0  0  0  0  3 V2000
  152.7322  142.5556  161.0833 C   0  0  0  0  0  0  0  0  0  0  0  0
  152.5791  141.6555  159.9056 C   0  0  0  0  0  0  0  0  0  0  0  0
  151.7428  141.6710  158.8250 C   0  0  0  0  0  0  0  0  0  0  0  0
  152.1436  140.5220  158.0921 C   0  0  0  0  0  0  0  0  0  0  0  0
  151.5022  140.1813  156.8717 N   0  0  0  0  0  0  0  0  0  0  0  0
  151.9746  139.4466  155.8481 C   0  0  0  0  0  0  0  0  0  0  0  0
  153.1076  138.9530  155.9029 O   0  0  0  0  0  0  0  0  0  0  0  0
  151.0752  139.3400  154.8307 N   0  5  0  0  0  0  0  0  0  0  0  0
  150.5662  138.0782  154.2953 C   0  0  0  0  0  0  0  0  0  0  0  0
  149.2224  137.7144  154.9598 C   0  0  0  0  0  0  0  0  0  0  0  0
  148.8000  136.3252  154.6336 N   0  3  2  0  0  0  0  0  0  0  0  0
  147.4277  135.9765  155.1033 C   0  0  0  0  0  0  0  0  0  0  0  0
  146.9754  134.6253  154.5257 C   0  0  0  0  0  0  0  0  0  0  0  0
  147.9758  133.5133  154.8653 C   0  0  0  0  0  0  0  0  0  0  0  0
  149.3874  133.9149  154.4114 C   0  0  0  0  0  0  0  0  0  0  0  0
  149.8131  135.2842  154.9817 C   0  0  2  0  0  0  0  0  0  0  0  0
  150.1303  135.2198  156.4919 C   0  0  0  0  0  0  0  0  0  0  0  0
  153.1333  139.8630  158.6765 N   0  0  0  0  0  0  0  0  0  0  0  0
  153.4179  140.5864  159.8406 O   0  0  0  0  0  0  0  0  0  0  0  0
  151.9141  143.2744  161.1334 H   0  0  0  0  0  0  0  0  0  0  0  0
  153.6681  143.1111  161.0241 H   0  0  0  0  0  0  0  0  0  0  0  0
  152.7360  141.9827  162.0105 H   0  0  0  0  0  0  0  0  0  0  0  0
  150.9713  142.3908  158.5954 H   0  0  0  0  0  0  0  0  0  0  0  0
  150.5711  140.5515  156.7507 H   0  0  0  0  0  0  0  0  0  0  0  0
  150.4191  138.1460  153.2173 H   0  0  0  0  0  0  0  0  0  0  0  0
  151.2688  137.2559  154.4387 H   0  0  0  0  0  0  0  0  0  0  0  0
  149.3469  137.8128  156.0392 H   0  0  0  0  0  0  0  0  0  0  0  0
  148.4391  138.4202  154.6785 H   0  0  0  0  0  0  0  0  0  0  0  0
  147.3963  135.9557  156.1929 H   0  0  0  0  0  0  0  0  0  0  0  0
  146.7182  136.7439  154.7930 H   0  0  0  0  0  0  0  0  0  0  0  0
  145.9874  134.3678  154.9086 H   0  0  0  0  0  0  0  0  0  0  0  0
  146.8750  134.7078  153.4426 H   0  0  0  0  0  0  0  0  0  0  0  0
  147.9658  133.3212  155.9384 H   0  0  0  0  0  0  0  0  0  0  0  0
  147.6776  132.5817  154.3836 H   0  0  0  0  0  0  0  0  0  0  0  0
  150.1059  133.1451  154.6953 H   0  0  0  0  0  0  0  0  0  0  0  0
  149.4091  133.9603  153.3215 H   0  0  0  0  0  0  0  0  0  0  0  0
  150.7384  135.5596  154.4732 H   0  0  0  0  0  0  0  0  0  0  0  0
  150.8993  134.4731  156.6905 H   0  0  0  0  0  0  0  0  0  0  0  0
  149.2599  134.9520  157.0897 H   0  0  0  0  0  0  0  0  0  0  0  0
  150.5068  136.1709  156.8680 H   0  0  0  0  0  0  0  0  0  0  0  0
  148.7542  136.3095  153.6246 H   0  0  0  0  0  0  0  0  0  0  0  0
  1  2  1  0  0  0  0
  1 20  1  0  0  0  0
  1 21  1  0  0  0  0
  1 22  1  0  0  0  0
  2 19  1  0  0  0  0
  2  3  2  0  0  0  0
  3  4  1  0  0  0  0
  3 23  1  0  0  0  0
  4  5  1  0  0  0  0
  4 18  2  0  0  0  0
  5  6  1  0  0  0  0
  5 24  1  0  0  0  0
  6  7  2  0  0  0  0
  6  8  1  0  0  0  0
  8  9  1  0  0  0  0
  9 10  1  0  0  0  0
  9 25  1  0  0  0  0
  9 26  1  0  0  0  0
 10 11  1  0  0  0  0
 10 27  1  0  0  0  0
 10 28  1  0  0  0  0
 11 16  1  0  0  0  0
 11 12  1  0  0  0  0
 11 41  1  0  0  0  0
 12 13  1  0  0  0  0
 12 29  1  0  0  0  0
 12 30  1  0  0  0  0
 13 14  1  0  0  0  0
 13 31  1  0  0  0  0
 13 32  1  0  0  0  0
 14 15  1  0  0  0  0
 14 33  1  0  0  0  0
 14 34  1  0  0  0  0
 15 16  1  0  0  0  0
 15 35  1  0  0  0  0
 15 36  1  0  0  0  0
 16 17  1  0  0  0  0
 16 37  1  0  0  0  0
 17 38  1  0  0  0  0
 17 39  1  0  0  0  0
 17 40  1  0  0  0  0
 18 19  1  0  0  0  0
M  CHG  1   8  -1
M  CHG  1  11   1
M  END
> <s_m_source_file>
AV-unprocessed.smi

> <i_m_source_file_index>
2079

> <i_lp_mmshare_version>
43012

> <i_f3d_flags>
0

> <s_epik_input>
W0NIM11jMVtjSF1jKG5vMSlbTkhdQyg9TylbTkhdW0NIMl1bQ0gyXU4yW0NIMl1bQ0gyXVtDSDJdW0NIMl1bQ0BIXTJbQ0gzXQ==

> <s_epik_cmdline>
J2VwaWtfcHl0aG9uJywgJy1waCcsICc3LjAnLCAnLXRuJywgJzgnLCAnLW1hJywgJzIwMCcsICctbWV0YWxfYmluZGluZycsICctaW1hZScsICc8aW5maWxlLm1hZT4nLCAnLW9tYWUnLCAnPG91dGZpbGUubWFlPic=

> <r_epik_Ionization_Penalty>
6.7666

> <r_epik_Ionization_Penalty_Charging>
6.7666

> <r_epik_Ionization_Penalty_Neutral>
5.77131e-06

> <r_epik_State_Penalty>
6.79217

> <r_epik_Charging_Adjusted_Penalty>
13.5588

> <i_epik_Tot_Q>
0

> <i_epik_Tot_abs_Q>
2

> <r_epik_Metal_State_Penalty>
2.72569

> <b_epik_Metal_Only>
1

> <s_lp_Force_Field>
OPLS_2005

> <r_lp_Energy>
14.7709

> <b_lp_Chiralities_Consistent>
1

> <s_lp_Variant>
AV-unprocessed.smi:2079-11

> <Gold.Version>
5.8.1

> <Gold.Id.Protein>
6NUR|6NUR_protein|mol2

> <Gold.PLP.Fitness>
42.1015

> <Gold.PLP.PLP>
-31.8096

> <Gold.PLP.part.hbond>
-3.7475

> <Gold.PLP.part.metal>
0.0000

> <Gold.PLP.part.buried>
-5.7344

> <Gold.PLP.part.nonpolar>
-23.0017

> <Gold.PLP.part.repulsive>
0.1921

> <Gold.PLP.ligand.clash>
0.0000

> <Gold.PLP.ligand.torsion>
0.8699

> <Gold.PLP.Chemscore.Hbond>
3.9760

> <Gold.PLP.Chemscore.CHOScore>
0.0000

> <Gold.PLP.Chemscore.Metal>
0.0000

> <Gold.Chemscore.Hbonds>
donor molecule, donor type, donor heavy atom, donor atom, acceptor molecule, acceptor atom, score
      L1  H    11    41       P1  7948  2.00
      P1  H  7989  7998       L1     8  0.83
      P1  H  7997  8009       L1     7  1.00

> <Gold.PLP.Chemscore.Internal.Correction>
0.1037

> <Gold.Rescore>
     Score         DG    S(hbond)    S(metal)    S(lipo)     H(rot)  DE(clash)    DE(int)     intcor
     16.42     -18.59       2.75        0.00      67.28       1.54       0.00       2.17       ----

> <Gold.Chemscore.Fitness>
16.4200

> <Gold.Chemscore.DG>
-18.5886

> <Gold.Chemscore.ZeroCoef>
-5.4800

> <Gold.Chemscore.Hbond>
2.7491

> <Gold.Chemscore.Metal>
0.0000

> <Gold.Chemscore.Lipo>
67.2763

> <Gold.Chemscore.Internal_Hbond>
0.0000

> <Gold.Chemscore.DEClash>
0.0021

> <Gold.Chemscore.DEInternal>
2.1664

> <Gold.Chemscore.Rot>
1.5409

> <Gold.Chemscore.Internal.Correction>
   9.000000E+99

> <Gold.Chemscore.Hbonds>
donor molecule, donor type, donor heavy atom, donor atom, acceptor molecule, acceptor atom, score
      L1  H    11    41       P1  7948  1.00
      P1  H  7989  7998       L1     8  0.35
      P1  H  7997  8009       L1     7  0.85

> <Gold.Chemscore.Hbond.Weighted>
-9.1819

> <Gold.Chemscore.Metal.Weighted>
-0.0000

> <Gold.Chemscore.Lipo.Weighted>
-7.8713

> <Gold.Chemscore.Internal_Hbond.Weighted>
0.0000

> <Gold.Chemscore.DEClash.Weighted>
0.0021

> <Gold.Chemscore.DEInternal.Weighted>
2.1664

> <Gold.Chemscore.Rot.Weighted>
3.9446

> <Gold.Chemscore.Internal.Correction.Weighted>
   9.000000E+99

> <Gold.Protein.RotatedTorsions>
[ 6907 6896 6895 6894 ] final   70.09 input  -60.11 | X-H torsion
[ 7974 7965 7964 7962 ] final   18.66 input  175.53 | X-H torsion
[ 8008 7997 7996 7995 ] final -170.71 input   59.86 | X-H torsion
[ 10167 10162 10161 10158 ] final  -99.00 input  -65.29 | X-H torsion
[ 10718 10713 10712 10709 ] final   33.85 input   66.30 | X-H torsion
[ 10763 10752 10751 10750 ] final    6.00 input  -60.55 | X-H torsion
[ 11005 11000 10999 10996 ] final  146.30 input  -57.11 | X-H torsion

> <Gold.Protein.ActiveResidues>
 VAL166  LYS551  ARG553  GLY616  TRP617  ASP618  TYR619  PRO620  LYS621  CYS622 
 ASP623  PHE694  ASN695  SER759  ASP760  ASP761  ALA762  ILE779  LEU786  VAL792 
 PHE793  MET794  SER795  GLU796  ALA797  LYS798  CYS799  TRP800  GLU811  SER814 

> <Gold.Protein.RotatedAtoms>
  152.4727  134.4920  159.9697 H   0  0  0  0  0  0  0  0  0  0  0  0  # atno 6907 bound_to 6896
  151.4943  133.3512  159.2866 H   0  0  0  0  0  0  0  0  0  0  0  0  # atno 6908 bound_to 6896
  150.8747  134.8155  159.7242 H   0  0  0  0  0  0  0  0  0  0  0  0  # atno 6909 bound_to 6896
  146.2177  139.8425  142.8638 H   0  0  0  0  0  0  0  0  0  0  0  0  # atno 7974 bound_to 7965
  155.9220  140.1076  157.1199 H   0  0  0  0  0  0  0  0  0  0  0  0  # atno 8008 bound_to 7997
  154.4056  140.1254  156.4757 H   0  0  0  0  0  0  0  0  0  0  0  0  # atno 8009 bound_to 7997
  155.7184  140.3470  155.5007 H   0  0  0  0  0  0  0  0  0  0  0  0  # atno 8010 bound_to 7997
  140.2670  143.3369  152.0571 H   0  0  0  0  0  0  0  0  0  0  0  0  # atno 10167 bound_to 10162
  157.3030  130.7360  149.6678 H   0  0  0  0  0  0  0  0  0  0  0  0  # atno 10718 bound_to 10713
  153.2528  135.6915  153.7661 H   0  0  0  0  0  0  0  0  0  0  0  0  # atno 10763 bound_to 10752
  153.6749  135.3338  155.3164 H   0  0  0  0  0  0  0  0  0  0  0  0  # atno 10764 bound_to 10752
  154.8401  135.4508  154.1491 H   0  0  0  0  0  0  0  0  0  0  0  0  # atno 10765 bound_to 10752
  140.0782  134.9112  157.1457 H   0  0  0  0  0  0  0  0  0  0  0  0  # atno 11005 bound_to 11000
  145.2885  141.0160  143.3677 LP  0  0  0  0  0  0  0  0  0  0  0  0  # atno 17320 bound_to 7965
  144.9096  139.4546  143.6593 LP  0  0  0  0  0  0  0  0  0  0  0  0  # atno 17321 bound_to 7965
  139.5000  144.6681  151.6308 LP  0  0  0  0  0  0  0  0  0  0  0  0  # atno 17342 bound_to 10162
  140.5920  143.9763  150.6330 LP  0  0  0  0  0  0  0  0  0  0  0  0  # atno 17343 bound_to 10162
  155.9672  130.4274  150.4743 LP  0  0  0  0  0  0  0  0  0  0  0  0  # atno 17370 bound_to 10713
  157.2727  131.0590  151.2249 LP  0  0  0  0  0  0  0  0  0  0  0  0  # atno 17371 bound_to 10713
  140.3526  134.2581  155.7196 LP  0  0  0  0  0  0  0  0  0  0  0  0  # atno 17394 bound_to 11000
  141.2037  133.7905  157.0325 LP  0  0  0  0  0  0  0  0  0  0  0  0  # atno 17395 bound_to 11000

$$$$
