AV-unprocessed.smi:69|AV-procd|sdf|645|dock3
  -GOLD-   2262016543D 1   1.00000     0.00000
 Structure written by MMmdl.
 32 34  0  0  0  0  0  0  0  0  1 V2000
  153.2850  140.2124  158.8675 N   0  0  0  0  0  0  0  0  0  0  0  0
  152.7139  139.8739  157.7032 C   0  0  0  0  0  0  0  0  0  0  0  0
  153.2428  138.8426  157.0043 N   0  0  0  0  0  0  0  0  0  0  0  0
  152.6902  138.4847  155.8410 C   0  0  0  0  0  0  0  0  0  0  0  0
  151.6347  139.0167  155.2192 N   0  0  0  0  0  0  0  0  0  0  0  0
  151.1004  140.0569  155.9238 C   0  0  0  0  0  0  0  0  0  0  0  0
  151.5833  140.5440  157.1707 C   0  0  0  0  0  0  0  0  0  0  0  0
  150.8022  141.6081  157.5980 N   0  0  0  0  0  0  0  0  0  0  0  0
  149.9061  141.7359  156.6568 C   0  0  0  0  0  0  0  0  0  0  0  0
  150.0131  140.8492  155.6066 N   0  0  0  0  0  0  0  0  0  0  0  0
  149.1142  140.7554  154.4110 C   0  0  2  0  0  0  0  0  0  0  0  0
  148.1503  141.7625  154.5098 O   0  0  0  0  0  0  0  0  0  0  0  0
  146.8411  141.2041  154.6124 C   0  0  1  0  0  0  0  0  0  0  0  0
  145.7867  142.1521  154.0136 C   0  0  0  0  0  0  0  0  0  0  0  0
  144.4939  141.7629  154.4262 O   0  0  0  0  0  0  0  0  0  0  0  0
  146.9775  139.8403  153.9236 C   0  0  1  0  0  0  0  0  0  0  0  0
  146.8565  139.9783  152.5159 O   0  0  0  0  0  0  0  0  0  0  0  0
  148.3772  139.4085  154.3493 C   0  0  1  0  0  0  0  0  0  0  0  0
  148.9443  138.4925  153.4306 O   0  0  0  0  0  0  0  0  0  0  0  0
  149.7523  140.9488  153.5474 H   0  0  0  0  0  0  0  0  0  0  0  0
  146.6115  141.0242  155.6626 H   0  0  0  0  0  0  0  0  0  0  0  0
  146.2175  139.1363  154.2643 H   0  0  0  0  0  0  0  0  0  0  0  0
  148.3360  138.9566  155.3405 H   0  0  0  0  0  0  0  0  0  0  0  0
  152.9087  140.9782  159.4078 H   0  0  0  0  0  0  0  0  0  0  0  0
  154.0862  139.6984  159.2040 H   0  0  0  0  0  0  0  0  0  0  0  0
  153.1605  137.6541  155.3357 H   0  0  0  0  0  0  0  0  0  0  0  0
  149.1333  142.4894  156.7051 H   0  0  0  0  0  0  0  0  0  0  0  0
  145.9768  143.1884  154.2946 H   0  0  0  0  0  0  0  0  0  0  0  0
  145.8098  142.0996  152.9247 H   0  0  0  0  0  0  0  0  0  0  0  0
  144.2847  140.9365  154.0184 H   0  0  0  0  0  0  0  0  0  0  0  0
  147.7097  140.1839  152.1641 H   0  0  0  0  0  0  0  0  0  0  0  0
  149.1327  138.9533  152.6274 H   0  0  0  0  0  0  0  0  0  0  0  0
  1  2  1  0  0  0  0
  1 24  1  0  0  0  0
  1 25  1  0  0  0  0
  2  7  1  0  0  0  0
  2  3  2  0  0  0  0
  3  4  1  0  0  0  0
  4  5  2  0  0  0  0
  4 26  1  0  0  0  0
  5  6  1  0  0  0  0
  6 10  1  0  0  0  0
  6  7  2  0  0  0  0
  7  8  1  0  0  0  0
  8  9  2  0  0  0  0
  9 10  1  0  0  0  0
  9 27  1  0  0  0  0
 10 11  1  0  0  0  0
 11 20  1  0  0  0  0
 11 18  1  0  0  0  0
 11 12  1  0  0  0  0
 12 13  1  0  0  0  0
 13 21  1  0  0  0  0
 13 14  1  0  0  0  0
 13 16  1  0  0  0  0
 14 15  1  0  0  0  0
 14 28  1  0  0  0  0
 14 29  1  0  0  0  0
 15 30  1  0  0  0  0
 16 22  1  0  0  0  0
 16 17  1  0  0  0  0
 16 18  1  0  0  0  0
 17 31  1  0  0  0  0
 18 23  1  0  0  0  0
 18 19  1  0  0  0  0
 19 32  1  0  0  0  0
M  END
> <s_m_source_file>
AV-unprocessed.smi

> <i_m_source_file_index>
69

> <i_lp_mmshare_version>
43012

> <i_f3d_flags>
0

> <s_epik_input>
bjFbY0hdbmMoW05IMl0pYyhjMTIpbltjSF1uMltDQEBIXTNPW0NASF0oW0NIMl1bT0hdKVtDQEBIXShbT0hdKVtDQEhdM1tPSF0=

> <s_epik_cmdline>
J2VwaWtfcHl0aG9uJywgJy1waCcsICc3LjAnLCAnLXRuJywgJzgnLCAnLW1hJywgJzIwMCcsICctbWV0YWxfYmluZGluZycsICctaW1hZScsICc8aW5maWxlLm1hZT4nLCAnLW9tYWUnLCAnPG91dGZpbGUubWFlPic=

> <r_lp_tautomer_probability>
1

> <r_epik_Ionization_Penalty>
0.000428445

> <r_epik_Ionization_Penalty_Charging>
0

> <r_epik_Ionization_Penalty_Neutral>
0.000428445

> <r_epik_State_Penalty>
-0

> <r_epik_Charging_Adjusted_Penalty>
0

> <i_epik_Tot_Q>
0

> <i_epik_Tot_abs_Q>
0

> <r_epik_Metal_State_Penalty>
-0

> <b_epik_Metal_Only>
0

> <s_epik_Chemistry_Notes>
This compound contains an acetal/aminal-like group ( X-CH(R)-Y where X, Y are N, S, or O) that may be acid/base labile, releasing an aldehyde.

> <s_lp_Force_Field>
OPLS_2005

> <r_lp_Energy>
42.3633

> <b_lp_Chiralities_Consistent>
1

> <s_lp_Variant>
AV-unprocessed.smi:69-3

> <Gold.Version>
5.8.1

> <Gold.Id.Protein>
6NUR|6NUR_protein|mol2

> <Gold.PLP.Fitness>
41.2449

> <Gold.PLP.PLP>
-29.6650

> <Gold.PLP.part.hbond>
-6.1985

> <Gold.PLP.part.metal>
0.0000

> <Gold.PLP.part.buried>
-2.4651

> <Gold.PLP.part.nonpolar>
-23.1879

> <Gold.PLP.part.repulsive>
1.2553

> <Gold.PLP.ligand.clash>
0.0000

> <Gold.PLP.ligand.torsion>
0.1388

> <Gold.PLP.Chemscore.Hbond>
2.9500

> <Gold.PLP.Chemscore.CHOScore>
1.0000

> <Gold.PLP.Chemscore.Metal>
0.0000

> <Gold.Chemscore.Hbonds>
donor molecule, donor type, donor heavy atom, donor atom, acceptor molecule, acceptor atom, score
      L1  H    15    30       P1 10175  0.66
      L1  H    17    31       P1  7957  0.75
      L1  H    19    32       P1  7957  1.00
      L1  C     9    27       P1  8028  1.00

> <Gold.PLP.Chemscore.Internal.Correction>
0.0075

> <Gold.Rescore>
     Score         DG    S(hbond)    S(metal)    S(lipo)     H(rot)  DE(clash)    DE(int)     intcor
      6.60      -6.70       2.55        0.00      25.72       4.03       0.01       0.09       ----

> <Gold.Chemscore.Fitness>
6.5965

> <Gold.Chemscore.DG>
-6.7005

> <Gold.Chemscore.ZeroCoef>
-5.4800

> <Gold.Chemscore.Hbond>
2.5516

> <Gold.Chemscore.Metal>
0.0000

> <Gold.Chemscore.Lipo>
25.7185

> <Gold.Chemscore.Internal_Hbond>
0.0000

> <Gold.Chemscore.DEClash>
0.0126

> <Gold.Chemscore.DEInternal>
0.0914

> <Gold.Chemscore.Rot>
4.0277

> <Gold.Chemscore.Internal.Correction>
   9.000000E+99

> <Gold.Chemscore.Hbonds>
donor molecule, donor type, donor heavy atom, donor atom, acceptor molecule, acceptor atom, score
      L1  H    15    30       P1 10175  0.60
      L1  H    17    31       P1  7957  0.75
      L1  H    19    32       P1  7957  0.98

> <Gold.Chemscore.Hbond.Weighted>
-8.5224

> <Gold.Chemscore.Metal.Weighted>
-0.0000

> <Gold.Chemscore.Lipo.Weighted>
-3.0091

> <Gold.Chemscore.Internal_Hbond.Weighted>
0.0000

> <Gold.Chemscore.DEClash.Weighted>
0.0126

> <Gold.Chemscore.DEInternal.Weighted>
0.0914

> <Gold.Chemscore.Rot.Weighted>
10.3110

> <Gold.Chemscore.Internal.Correction.Weighted>
   9.000000E+99

> <Gold.Protein.RotatedTorsions>
[ 6907 6896 6895 6894 ] final   81.52 input  -60.11 | X-H torsion
[ 7974 7965 7964 7962 ] final   33.67 input  175.53 | X-H torsion
[ 8008 7997 7996 7995 ] final  172.65 input   59.86 | X-H torsion
[ 10167 10162 10161 10158 ] final   39.84 input  -65.29 | X-H torsion
[ 10718 10713 10712 10709 ] final   21.43 input   66.30 | X-H torsion
[ 10763 10752 10751 10750 ] final  165.44 input  -60.55 | X-H torsion
[ 11005 11000 10999 10996 ] final    8.30 input  -57.11 | X-H torsion

> <Gold.Protein.ActiveResidues>
 VAL166  LYS551  ARG553  GLY616  TRP617  ASP618  TYR619  PRO620  LYS621  CYS622 
 ASP623  PHE694  ASN695  SER759  ASP760  ASP761  ALA762  ILE779  LEU786  VAL792 
 PHE793  MET794  SER795  GLU796  ALA797  LYS798  CYS799  TRP800  GLU811  SER814 

> <Gold.Protein.RotatedAtoms>
  152.5271  134.3191  159.9141 H   0  0  0  0  0  0  0  0  0  0  0  0  # atno 6907 bound_to 6896
  151.3140  133.4062  159.2657 H   0  0  0  0  0  0  0  0  0  0  0  0  # atno 6908 bound_to 6896
  151.0015  134.9342  159.8013 H   0  0  0  0  0  0  0  0  0  0  0  0  # atno 6909 bound_to 6896
  146.1405  139.6367  142.9166 H   0  0  0  0  0  0  0  0  0  0  0  0  # atno 7974 bound_to 7965
  156.1154  140.1480  156.9280 H   0  0  0  0  0  0  0  0  0  0  0  0  # atno 8008 bound_to 7997
  154.4796  140.0883  156.7389 H   0  0  0  0  0  0  0  0  0  0  0  0  # atno 8009 bound_to 7997
  155.4523  140.3435  155.4304 H   0  0  0  0  0  0  0  0  0  0  0  0  # atno 8010 bound_to 7997
  140.3801  144.1991  150.6131 H   0  0  0  0  0  0  0  0  0  0  0  0  # atno 10167 bound_to 10162
  157.1384  130.6621  149.5973 H   0  0  0  0  0  0  0  0  0  0  0  0  # atno 10718 bound_to 10713
  154.3240  135.2755  155.2505 H   0  0  0  0  0  0  0  0  0  0  0  0  # atno 10763 bound_to 10752
  154.4846  135.5849  153.6418 H   0  0  0  0  0  0  0  0  0  0  0  0  # atno 10764 bound_to 10752
  152.9873  135.6120  154.3427 H   0  0  0  0  0  0  0  0  0  0  0  0  # atno 10765 bound_to 10752
  140.5385  134.0397  155.7896 H   0  0  0  0  0  0  0  0  0  0  0  0  # atno 11005 bound_to 11000
  145.5058  141.0436  143.2515 LP  0  0  0  0  0  0  0  0  0  0  0  0  # atno 17320 bound_to 7965
  144.7787  139.6573  143.7164 LP  0  0  0  0  0  0  0  0  0  0  0  0  # atno 17321 bound_to 7965
  140.4946  143.2336  151.8768 LP  0  0  0  0  0  0  0  0  0  0  0  0  # atno 17342 bound_to 10162
  139.4796  144.5127  151.8910 LP  0  0  0  0  0  0  0  0  0  0  0  0  # atno 17343 bound_to 10162
  155.9793  130.4786  150.6710 LP  0  0  0  0  0  0  0  0  0  0  0  0  # atno 17370 bound_to 10713
  157.4329  131.0851  151.1020 LP  0  0  0  0  0  0  0  0  0  0  0  0  # atno 17371 bound_to 10713
  141.1241  133.9413  157.2671 LP  0  0  0  0  0  0  0  0  0  0  0  0  # atno 17394 bound_to 11000
  139.9516  135.0174  156.9011 LP  0  0  0  0  0  0  0  0  0  0  0  0  # atno 17395 bound_to 11000

$$$$
