AV-unprocessed.smi:153|AV-procd|sdf|1251|dock9
  -GOLD-   2262018483D 1   1.00000     0.00000
 Structure written by MMmdl.
 60 63  0  0  0  0  0  0  0  0  2 V2000
  151.4668  145.1605  158.9568 C   0  0  0  0  0  0  0  0  0  0  0  0
  152.1987  143.8855  158.5074 C   0  0  1  0  0  0  0  0  0  0  0  0
  153.2906  143.6319  159.3837 O   0  0  0  0  0  0  0  0  0  0  0  0
  153.5822  142.2478  159.3266 C   0  0  0  0  0  0  0  0  0  0  0  0
  152.1947  141.6250  159.3503 C   0  0  0  0  0  0  0  0  0  0  0  0
  151.3684  142.5723  158.4748 C   0  0  1  0  0  0  0  0  0  0  0  0
  150.0935  142.7292  159.0744 O   0  0  0  0  0  0  0  0  0  0  0  0
  151.1743  142.0736  157.0181 C   0  0  0  0  0  0  0  0  0  0  0  0
  150.7857  140.6747  156.9042 N   0  0  0  0  0  0  0  0  0  0  0  0
  149.7460  140.0533  157.5559 C   0  0  0  0  0  0  0  0  0  0  0  0
  149.6011  138.7856  157.2866 N   0  0  0  0  0  0  0  0  0  0  0  0
  150.6347  138.4956  156.4015 C   0  0  0  0  0  0  0  0  0  0  0  0
  151.0660  137.3225  155.7087 C   0  0  0  0  0  0  0  0  0  0  0  0
  150.4735  136.0997  155.7990 N   0  0  0  0  0  0  0  0  0  0  0  0
  149.7016  135.7547  156.9861 C   0  0  0  0  0  0  0  0  0  0  0  0
  150.3132  135.2738  154.5998 C   0  0  0  0  0  0  0  0  0  0  0  0
  149.7264  133.8810  154.9069 C   0  0  2  0  0  0  0  0  0  0  0  0
  150.7544  133.1214  155.5105 O   0  0  0  0  0  0  0  0  0  0  0  0
  149.2445  133.1346  153.6424 C   0  0  0  0  0  0  0  0  0  0  0  0
  148.0669  133.7736  153.0027 N   0  3  0  0  0  0  0  0  0  0  0  0
  147.3590  132.8872  152.0447 C   0  0  0  0  0  0  0  0  0  0  0  0
  146.1687  133.6237  151.4068 C   0  0  0  0  0  0  0  0  0  0  0  0
  145.2926  134.0883  152.4258 O   0  0  0  0  0  0  0  0  0  0  0  0
  145.9338  135.0108  153.2974 C   0  0  0  0  0  0  0  0  0  0  0  0
  147.1152  134.3202  153.9994 C   0  0  0  0  0  0  0  0  0  0  0  0
  152.1394  137.4540  154.8851 N   0  0  0  0  0  0  0  0  0  0  0  0
  152.7601  138.6286  154.7518 C   0  0  0  0  0  0  0  0  0  0  0  0
  152.4716  139.7922  155.3336 N   0  0  0  0  0  0  0  0  0  0  0  0
  151.3882  139.6802  156.1527 C   0  0  0  0  0  0  0  0  0  0  0  0
  150.6188  145.3773  158.3063 H   0  0  0  0  0  0  0  0  0  0  0  0
  152.1354  146.0208  158.9253 H   0  0  0  0  0  0  0  0  0  0  0  0
  151.0966  145.0699  159.9783 H   0  0  0  0  0  0  0  0  0  0  0  0
  152.6293  144.0684  157.5213 H   0  0  0  0  0  0  0  0  0  0  0  0
  154.1047  142.0139  158.3977 H   0  0  0  0  0  0  0  0  0  0  0  0
  154.2028  141.9316  160.1654 H   0  0  0  0  0  0  0  0  0  0  0  0
  152.1969  140.5867  159.0230 H   0  0  0  0  0  0  0  0  0  0  0  0
  151.8312  141.6371  160.3794 H   0  0  0  0  0  0  0  0  0  0  0  0
  150.0645  142.2036  159.8589 H   0  0  0  0  0  0  0  0  0  0  0  0
  150.4164  142.6768  156.5161 H   0  0  0  0  0  0  0  0  0  0  0  0
  152.0952  142.2122  156.4496 H   0  0  0  0  0  0  0  0  0  0  0  0
  149.0883  140.5750  158.2362 H   0  0  0  0  0  0  0  0  0  0  0  0
  150.2235  136.0588  157.8941 H   0  0  0  0  0  0  0  0  0  0  0  0
  149.5464  134.6769  157.0429 H   0  0  0  0  0  0  0  0  0  0  0  0
  148.7227  136.2339  156.9632 H   0  0  0  0  0  0  0  0  0  0  0  0
  149.7219  135.7721  153.8313 H   0  0  0  0  0  0  0  0  0  0  0  0
  151.3042  135.1533  154.1602 H   0  0  0  0  0  0  0  0  0  0  0  0
  148.9223  133.9898  155.6335 H   0  0  0  0  0  0  0  0  0  0  0  0
  151.1620  132.5787  154.8535 H   0  0  0  0  0  0  0  0  0  0  0  0
  150.0369  133.0705  152.8973 H   0  0  0  0  0  0  0  0  0  0  0  0
  149.0064  132.1055  153.9165 H   0  0  0  0  0  0  0  0  0  0  0  0
  148.0353  132.5519  151.2591 H   0  0  0  0  0  0  0  0  0  0  0  0
  147.0060  131.9937  152.5628 H   0  0  0  0  0  0  0  0  0  0  0  0
  146.5098  134.4596  150.7938 H   0  0  0  0  0  0  0  0  0  0  0  0
  145.6193  132.9500  150.7491 H   0  0  0  0  0  0  0  0  0  0  0  0
  146.2692  135.8861  152.7385 H   0  0  0  0  0  0  0  0  0  0  0  0
  145.2119  135.3615  154.0349 H   0  0  0  0  0  0  0  0  0  0  0  0
  146.7510  133.5143  154.6386 H   0  0  0  0  0  0  0  0  0  0  0  0
  147.6254  135.0363  154.6447 H   0  0  0  0  0  0  0  0  0  0  0  0
  153.6078  138.6374  154.0825 H   0  0  0  0  0  0  0  0  0  0  0  0
  148.4135  134.5652  152.4799 H   0  0  0  0  0  0  0  0  0  0  0  0
  1  2  1  0  0  0  0
  1 30  1  0  0  0  0
  1 31  1  0  0  0  0
  1 32  1  0  0  0  0
  2  6  1  0  0  0  0
  2  3  1  0  0  0  0
  2 33  1  0  0  0  0
  3  4  1  0  0  0  0
  4  5  1  0  0  0  0
  4 34  1  0  0  0  0
  4 35  1  0  0  0  0
  5  6  1  0  0  0  0
  5 36  1  0  0  0  0
  5 37  1  0  0  0  0
  6  7  1  0  0  0  0
  6  8  1  0  0  0  0
  7 38  1  0  0  0  0
  8  9  1  0  0  0  0
  8 39  1  0  0  0  0
  8 40  1  0  0  0  0
  9 29  1  0  0  0  0
  9 10  1  0  0  0  0
 10 11  2  0  0  0  0
 10 41  1  0  0  0  0
 11 12  1  0  0  0  0
 12 29  2  0  0  0  0
 12 13  1  0  0  0  0
 13 14  1  0  0  0  0
 13 26  2  0  0  0  0
 14 15  1  0  0  0  0
 14 16  1  0  0  0  0
 15 42  1  0  0  0  0
 15 43  1  0  0  0  0
 15 44  1  0  0  0  0
 16 17  1  0  0  0  0
 16 45  1  0  0  0  0
 16 46  1  0  0  0  0
 17 18  1  0  0  0  0
 17 19  1  0  0  0  0
 17 47  1  0  0  0  0
 18 48  1  0  0  0  0
 19 20  1  0  0  0  0
 19 49  1  0  0  0  0
 19 50  1  0  0  0  0
 20 25  1  0  0  0  0
 20 21  1  0  0  0  0
 20 60  1  0  0  0  0
 21 22  1  0  0  0  0
 21 51  1  0  0  0  0
 21 52  1  0  0  0  0
 22 23  1  0  0  0  0
 22 53  1  0  0  0  0
 22 54  1  0  0  0  0
 23 24  1  0  0  0  0
 24 25  1  0  0  0  0
 24 55  1  0  0  0  0
 24 56  1  0  0  0  0
 25 57  1  0  0  0  0
 25 58  1  0  0  0  0
 26 27  1  0  0  0  0
 27 28  2  0  0  0  0
 27 59  1  0  0  0  0
 28 29  1  0  0  0  0
M  CHG  1  20   1
M  END
> <s_m_source_file>
AV-unprocessed.smi

> <i_m_source_file_index>
153

> <i_lp_mmshare_version>
43012

> <i_f3d_flags>
0

> <s_epik_input>
W0NIMl0xW0NIMl1PW0NAQEhdKFtDSDNdKVtDQEBdMShbT0hdKVtDSDJdbihbY0hdbjIpYyhjMjMpbltjSF1uYzNOKFtDSDNdKVtDSDJdW0NASF0oW09IXSlbQ0gyXU40W0NIMl1bQ0gyXU9bQ0gyXVtDSDJdNA==

> <s_epik_cmdline>
J2VwaWtfcHl0aG9uJywgJy1waCcsICc3LjAnLCAnLXRuJywgJzgnLCAnLW1hJywgJzIwMCcsICctbWV0YWxfYmluZGluZycsICctaW1hZScsICc8aW5maWxlLm1hZT4nLCAnLW9tYWUnLCAnPG91dGZpbGUubWFlPic=

> <r_lp_tautomer_probability>
1

> <r_epik_Ionization_Penalty>
0.403509

> <r_epik_Ionization_Penalty_Charging>
0.40072

> <r_epik_Ionization_Penalty_Neutral>
0.00278876

> <r_epik_State_Penalty>
0.400058

> <r_epik_Charging_Adjusted_Penalty>
0.800778

> <i_epik_Tot_Q>
1

> <i_epik_Tot_abs_Q>
1

> <r_epik_Metal_State_Penalty>
0.400321

> <b_epik_Metal_Only>
0

> <s_lp_Force_Field>
OPLS_2005

> <r_lp_Energy>
45.7554

> <b_lp_Chiralities_Consistent>
1

> <s_lp_Variant>
AV-unprocessed.smi:153-2

> <Gold.Version>
5.8.1

> <Gold.Id.Protein>
6NUR|6NUR_protein|mol2

> <Gold.PLP.Fitness>
57.8809

> <Gold.PLP.PLP>
-48.1041

> <Gold.PLP.part.hbond>
-3.4589

> <Gold.PLP.part.metal>
0.0000

> <Gold.PLP.part.buried>
-7.6728

> <Gold.PLP.part.nonpolar>
-37.3673

> <Gold.PLP.part.repulsive>
0.1689

> <Gold.PLP.ligand.clash>
0.0000

> <Gold.PLP.ligand.torsion>
1.1188

> <Gold.PLP.Chemscore.Hbond>
3.8800

> <Gold.PLP.Chemscore.CHOScore>
0.0000

> <Gold.PLP.Chemscore.Metal>
0.0000

> <Gold.Chemscore.Hbonds>
donor molecule, donor type, donor heavy atom, donor atom, acceptor molecule, acceptor atom, score
      L1  H    20    60       P1  7948  1.60
      P1  H  7989  7998       L1    28  0.25
      P1  H  7997  8010       L1    28  0.72
      P1  H 10752 10763       L1    26  0.76

> <Gold.PLP.Chemscore.Internal.Correction>
0.3745

> <Gold.Rescore>
     Score         DG    S(hbond)    S(metal)    S(lipo)     H(rot)  DE(clash)    DE(int)     intcor
     13.11     -14.76       2.10        0.00      98.47       3.62       0.41       1.25       ----

> <Gold.Chemscore.Fitness>
13.1108

> <Gold.Chemscore.DG>
-14.7641

> <Gold.Chemscore.ZeroCoef>
-5.4800

> <Gold.Chemscore.Hbond>
2.1036

> <Gold.Chemscore.Metal>
0.0000

> <Gold.Chemscore.Lipo>
98.4669

> <Gold.Chemscore.Internal_Hbond>
0.0000

> <Gold.Chemscore.DEClash>
0.4057

> <Gold.Chemscore.DEInternal>
1.2475

> <Gold.Chemscore.Rot>
3.6182

> <Gold.Chemscore.Internal.Correction>
   9.000000E+99

> <Gold.Chemscore.Hbonds>
donor molecule, donor type, donor heavy atom, donor atom, acceptor molecule, acceptor atom, score
      L1  H    20    60       P1  7948  0.12
      P1  H  7989  7998       L1    28  0.02
      P1  H  7997  8010       L1    28  0.10
      P1  H 10752 10763       L1    26  0.49

> <Gold.Chemscore.Hbond.Weighted>
-7.0259

> <Gold.Chemscore.Metal.Weighted>
-0.0000

> <Gold.Chemscore.Lipo.Weighted>
-11.5206

> <Gold.Chemscore.Internal_Hbond.Weighted>
0.0000

> <Gold.Chemscore.DEClash.Weighted>
0.4057

> <Gold.Chemscore.DEInternal.Weighted>
1.2475

> <Gold.Chemscore.Rot.Weighted>
9.2625

> <Gold.Chemscore.Internal.Correction.Weighted>
   9.000000E+99

> <Gold.Protein.RotatedTorsions>
[ 6907 6896 6895 6894 ] final   88.64 input  -60.11 | X-H torsion
[ 7974 7965 7964 7962 ] final   64.16 input  175.53 | X-H torsion
[ 8008 7997 7996 7995 ] final   94.65 input   59.86 | X-H torsion
[ 10167 10162 10161 10158 ] final  168.65 input  -65.29 | X-H torsion
[ 10718 10713 10712 10709 ] final  133.33 input   66.30 | X-H torsion
[ 10763 10752 10751 10750 ] final   60.10 input  -60.55 | X-H torsion
[ 11005 11000 10999 10996 ] final   -8.36 input  -57.11 | X-H torsion

> <Gold.Protein.ActiveResidues>
 VAL166  LYS551  ARG553  GLY616  TRP617  ASP618  TYR619  PRO620  LYS621  CYS622 
 ASP623  PHE694  ASN695  SER759  ASP760  ASP761  ALA762  ILE779  LEU786  VAL792 
 PHE793  MET794  SER795  GLU796  ALA797  LYS798  CYS799  TRP800  GLU811  SER814 

> <Gold.Protein.RotatedAtoms>
  152.5427  134.2089  159.8741 H   0  0  0  0  0  0  0  0  0  0  0  0  # atno 6907 bound_to 6896
  151.2073  133.4569  159.2605 H   0  0  0  0  0  0  0  0  0  0  0  0  # atno 6908 bound_to 6896
  151.0931  134.9940  159.8468 H   0  0  0  0  0  0  0  0  0  0  0  0  # atno 6909 bound_to 6896
  145.8535  139.3269  143.0861 H   0  0  0  0  0  0  0  0  0  0  0  0  # atno 7974 bound_to 7965
  156.0602  140.3297  155.7453 H   0  0  0  0  0  0  0  0  0  0  0  0  # atno 8008 bound_to 7997
  155.5466  140.0606  157.2876 H   0  0  0  0  0  0  0  0  0  0  0  0  # atno 8009 bound_to 7997
  154.4478  140.1901  156.0632 H   0  0  0  0  0  0  0  0  0  0  0  0  # atno 8010 bound_to 7997
  139.4973  144.3792  151.9641 H   0  0  0  0  0  0  0  0  0  0  0  0  # atno 10167 bound_to 10162
  157.4783  131.1084  150.9714 H   0  0  0  0  0  0  0  0  0  0  0  0  # atno 10718 bound_to 10713
  152.9912  135.5548  154.5819 H   0  0  0  0  0  0  0  0  0  0  0  0  # atno 10763 bound_to 10752
  154.5199  135.2807  155.1274 H   0  0  0  0  0  0  0  0  0  0  0  0  # atno 10764 bound_to 10752
  154.2631  135.6377  153.5335 H   0  0  0  0  0  0  0  0  0  0  0  0  # atno 10765 bound_to 10752
  140.7227  133.8815  155.8833 H   0  0  0  0  0  0  0  0  0  0  0  0  # atno 11005 bound_to 11000
  145.9330  140.9034  143.0346 LP  0  0  0  0  0  0  0  0  0  0  0  0  # atno 17320 bound_to 7965
  144.6728  140.1445  143.7434 LP  0  0  0  0  0  0  0  0  0  0  0  0  # atno 17321 bound_to 7965
  140.3228  144.3407  150.6005 LP  0  0  0  0  0  0  0  0  0  0  0  0  # atno 17342 bound_to 10162
  140.5708  143.2181  151.7602 LP  0  0  0  0  0  0  0  0  0  0  0  0  # atno 17343 bound_to 10162
  157.0456  130.5766  149.5362 LP  0  0  0  0  0  0  0  0  0  0  0  0  # atno 17370 bound_to 10713
  156.0108  130.5199  150.7982 LP  0  0  0  0  0  0  0  0  0  0  0  0  # atno 17371 bound_to 10713
  140.9990  134.1176  157.4336 LP  0  0  0  0  0  0  0  0  0  0  0  0  # atno 17394 bound_to 11000
  139.8844  135.0063  156.6368 LP  0  0  0  0  0  0  0  0  0  0  0  0  # atno 17395 bound_to 11000

$$$$
