AV-unprocessed.smi:1681|AV-procd|sdf|6741|dock1
  -GOLD-   22720 7493D 1   1.00000     0.00000
 Structure written by MMmdl.
 40 41  0  0  0  0  0  0  0  0  1 V2000
  143.8269  134.2429  162.9826 C   0  0  0  0  0  0  0  0  0  0  0  0
  144.8039  133.8197  161.8832 C   0  0  0  0  0  0  0  0  0  0  0  0
  144.3716  133.1286  160.9605 O   0  0  0  0  0  0  0  0  0  0  0  0
  146.0975  134.2161  161.9568 N   0  0  0  0  0  0  0  0  0  0  0  0
  146.6554  135.1069  162.9825 C   0  0  0  0  0  0  0  0  0  0  0  0
  146.9776  136.4649  162.3339 C   0  0  0  0  0  0  0  0  0  0  0  0
  147.9290  136.2902  161.1345 C   0  0  0  0  0  0  0  0  0  0  0  0
  147.4143  135.2170  160.1463 C   0  0  1  0  0  0  0  0  0  0  0  0
  148.4335  134.9567  159.0287 C   0  0  0  0  0  0  0  0  0  0  0  0
  148.8969  133.8266  158.8744 O   0  0  0  0  0  0  0  0  0  0  0  0
  148.7575  136.0188  158.2707 N   0  0  0  0  0  0  0  0  0  0  0  0
  149.6681  136.0579  157.1858 C   0  0  0  0  0  0  0  0  0  0  0  0
  150.5265  135.0366  156.6889 C   0  0  0  0  0  0  0  0  0  0  0  0
  151.2323  135.4705  155.6553 N   0  0  0  0  0  0  0  0  0  0  0  0
  150.8425  136.7576  155.4759 N   0  0  0  0  0  0  0  0  0  0  0  0
  151.4328  137.5469  154.4094 C   0  0  0  0  0  0  0  0  0  0  0  0
  150.6410  138.8334  154.1679 C   0  0  0  0  0  0  0  0  0  0  0  0
  149.4810  138.7228  153.5150 N   0  0  0  0  0  0  0  0  0  0  0  0
  151.0708  139.9132  154.5676 O   0  0  0  0  0  0  0  0  0  0  0  0
  149.8852  137.1446  156.3934 C   0  0  0  0  0  0  0  0  0  0  0  0
  147.0804  133.9142  160.9081 C   0  0  0  0  0  0  0  0  0  0  0  0
  143.7711  135.3296  163.0547 H   0  0  0  0  0  0  0  0  0  0  0  0
  144.1319  133.8373  163.9476 H   0  0  0  0  0  0  0  0  0  0  0  0
  142.8238  133.8723  162.7687 H   0  0  0  0  0  0  0  0  0  0  0  0
  146.0008  135.2518  163.8407 H   0  0  0  0  0  0  0  0  0  0  0  0
  147.5664  134.6614  163.3849 H   0  0  0  0  0  0  0  0  0  0  0  0
  146.0527  136.9386  162.0019 H   0  0  0  0  0  0  0  0  0  0  0  0
  147.4230  137.1363  163.0684 H   0  0  0  0  0  0  0  0  0  0  0  0
  148.0577  137.2453  160.6239 H   0  0  0  0  0  0  0  0  0  0  0  0
  148.9139  136.0077  161.5098 H   0  0  0  0  0  0  0  0  0  0  0  0
  146.4927  135.5875  159.6930 H   0  0  0  0  0  0  0  0  0  0  0  0
  148.3067  136.8929  158.4997 H   0  0  0  0  0  0  0  0  0  0  0  0
  150.6659  134.0207  157.0269 H   0  0  0  0  0  0  0  0  0  0  0  0
  152.4688  137.7852  154.6564 H   0  0  0  0  0  0  0  0  0  0  0  0
  151.4507  136.9447  153.5000 H   0  0  0  0  0  0  0  0  0  0  0  0
  148.9219  139.5456  153.3395 H   0  0  0  0  0  0  0  0  0  0  0  0
  149.1638  137.8156  153.2051 H   0  0  0  0  0  0  0  0  0  0  0  0
  149.4581  138.1367  156.4026 H   0  0  0  0  0  0  0  0  0  0  0  0
  147.9768  133.4982  161.3716 H   0  0  0  0  0  0  0  0  0  0  0  0
  146.7277  133.1497  160.2136 H   0  0  0  0  0  0  0  0  0  0  0  0
  1  2  1  0  0  0  0
  1 22  1  0  0  0  0
  1 23  1  0  0  0  0
  1 24  1  0  0  0  0
  2  3  2  0  0  0  0
  2  4  1  0  0  0  0
  4 21  1  0  0  0  0
  4  5  1  0  0  0  0
  5  6  1  0  0  0  0
  5 25  1  0  0  0  0
  5 26  1  0  0  0  0
  6  7  1  0  0  0  0
  6 27  1  0  0  0  0
  6 28  1  0  0  0  0
  7  8  1  0  0  0  0
  7 29  1  0  0  0  0
  7 30  1  0  0  0  0
  8  9  1  0  0  0  0
  8 21  1  0  0  0  0
  8 31  1  0  0  0  0
  9 10  2  0  0  0  0
  9 11  1  0  0  0  0
 11 12  1  0  0  0  0
 11 32  1  0  0  0  0
 12 20  2  0  0  0  0
 12 13  1  0  0  0  0
 13 14  2  0  0  0  0
 13 33  1  0  0  0  0
 14 15  1  0  0  0  0
 15 16  1  0  0  0  0
 15 20  1  0  0  0  0
 16 17  1  0  0  0  0
 16 34  1  0  0  0  0
 16 35  1  0  0  0  0
 17 18  1  0  0  0  0
 17 19  2  0  0  0  0
 18 36  1  0  0  0  0
 18 37  1  0  0  0  0
 20 38  1  0  0  0  0
 21 39  1  0  0  0  0
 21 40  1  0  0  0  0
M  END
> <s_m_source_file>
AV-unprocessed.smi

> <i_m_source_file_index>
1681

> <i_lp_mmshare_version>
43012

> <i_f3d_flags>
0

> <s_epik_input>
W0NIM11DKD1PKU4xW0NIMl1bQ0gyXVtDSDJdW0NASF0oW0NIMl0xKUMoPU8pW05IXWMyW2NIXW5uKFtjSF0yKVtDSDJdQyg9TylbTkgyXQ==

> <s_epik_cmdline>
J2VwaWtfcHl0aG9uJywgJy1waCcsICc3LjAnLCAnLXRuJywgJzgnLCAnLW1hJywgJzIwMCcsICctbWV0YWxfYmluZGluZycsICctaW1hZScsICc8aW5maWxlLm1hZT4nLCAnLW9tYWUnLCAnPG91dGZpbGUubWFlPic=

> <r_lp_tautomer_probability>
1

> <r_epik_Ionization_Penalty>
6.05275e-06

> <r_epik_Ionization_Penalty_Charging>
0

> <r_epik_Ionization_Penalty_Neutral>
6.05275e-06

> <r_epik_State_Penalty>
-0

> <r_epik_Charging_Adjusted_Penalty>
0

> <i_epik_Tot_Q>
0

> <i_epik_Tot_abs_Q>
0

> <r_epik_Metal_State_Penalty>
-0

> <b_epik_Metal_Only>
0

> <s_lp_Force_Field>
OPLS_2005

> <r_lp_Energy>
29.0931

> <b_lp_Chiralities_Consistent>
1

> <s_lp_Variant>
AV-unprocessed.smi:1681-1

> <Gold.Version>
5.8.1

> <Gold.Id.Protein>
6NUR|6NUR_protein|mol2

> <Gold.PLP.Fitness>
47.7587

> <Gold.PLP.PLP>
-36.4789

> <Gold.PLP.part.hbond>
-5.0000

> <Gold.PLP.part.metal>
0.0000

> <Gold.PLP.part.buried>
-4.7188

> <Gold.PLP.part.nonpolar>
-28.4866

> <Gold.PLP.part.repulsive>
0.3725

> <Gold.PLP.ligand.clash>
0.0000

> <Gold.PLP.ligand.torsion>
0.3770

> <Gold.PLP.Chemscore.Hbond>
4.0000

> <Gold.PLP.Chemscore.CHOScore>
0.0000

> <Gold.PLP.Chemscore.Metal>
0.0000

> <Gold.Chemscore.Hbonds>
donor molecule, donor type, donor heavy atom, donor atom, acceptor molecule, acceptor atom, score
      L1  H    18    37       P1  7948  0.93
      P1  H  6896  6909       L1    10  1.00
      P1  H  7989  7998       L1    19  1.00
      P1  H 10752 10765       L1    14  1.00

> <Gold.PLP.Chemscore.Internal.Correction>
0.0338

> <Gold.Rescore>
     Score         DG    S(hbond)    S(metal)    S(lipo)     H(rot)  DE(clash)    DE(int)     intcor
     18.20     -19.99       3.75        0.00      59.77       1.96       0.11       1.68       ----

> <Gold.Chemscore.Fitness>
18.1974

> <Gold.Chemscore.DG>
-19.9864

> <Gold.Chemscore.ZeroCoef>
-5.4800

> <Gold.Chemscore.Hbond>
3.7530

> <Gold.Chemscore.Metal>
0.0000

> <Gold.Chemscore.Lipo>
59.7737

> <Gold.Chemscore.Internal_Hbond>
0.0000

> <Gold.Chemscore.DEClash>
0.1062

> <Gold.Chemscore.DEInternal>
1.6828

> <Gold.Chemscore.Rot>
1.9617

> <Gold.Chemscore.Internal.Correction>
   9.000000E+99

> <Gold.Chemscore.Hbonds>
donor molecule, donor type, donor heavy atom, donor atom, acceptor molecule, acceptor atom, score
      L1  H    18    36       P1  7957  0.01
      L1  H    18    37       P1  7948  0.86
      P1  H  6896  6909       L1    10  0.62
      P1  H  7989  7998       L1    19  0.88
      P1  H 10752 10765       L1    14  0.38

> <Gold.Chemscore.Hbond.Weighted>
-12.5349

> <Gold.Chemscore.Metal.Weighted>
-0.0000

> <Gold.Chemscore.Lipo.Weighted>
-6.9935

> <Gold.Chemscore.Internal_Hbond.Weighted>
0.0000

> <Gold.Chemscore.DEClash.Weighted>
0.1062

> <Gold.Chemscore.DEInternal.Weighted>
1.6828

> <Gold.Chemscore.Rot.Weighted>
5.0220

> <Gold.Chemscore.Internal.Correction.Weighted>
   9.000000E+99

> <Gold.Protein.RotatedTorsions>
[ 6907 6896 6895 6894 ] final    5.23 input  -60.11 | X-H torsion
[ 7974 7965 7964 7962 ] final  -82.18 input  175.53 | X-H torsion
[ 8008 7997 7996 7995 ] final   75.58 input   59.86 | X-H torsion
[ 10167 10162 10161 10158 ] final  113.76 input  -65.29 | X-H torsion
[ 10718 10713 10712 10709 ] final -135.21 input   66.30 | X-H torsion
[ 10763 10752 10751 10750 ] final -156.39 input  -60.55 | X-H torsion
[ 11005 11000 10999 10996 ] final   43.03 input  -57.11 | X-H torsion

> <Gold.Protein.ActiveResidues>
 VAL166  LYS551  ARG553  GLY616  TRP617  ASP618  TYR619  PRO620  LYS621  CYS622 
 ASP623  PHE694  ASN695  SER759  ASP760  ASP761  ALA762  ILE779  LEU786  VAL792 
 PHE793  MET794  SER795  GLU796  ALA797  LYS798  CYS799  TRP800  GLU811  SER814 

> <Gold.Protein.RotatedAtoms>
  151.6541  135.0998  160.0166 H   0  0  0  0  0  0  0  0  0  0  0  0  # atno 6907 bound_to 6896
  152.3984  133.6777  159.6304 H   0  0  0  0  0  0  0  0  0  0  0  0  # atno 6908 bound_to 6896
  150.7888  133.8750  159.3310 H   0  0  0  0  0  0  0  0  0  0  0  0  # atno 6909 bound_to 6896
  145.5367  140.9515  143.1573 H   0  0  0  0  0  0  0  0  0  0  0  0  # atno 7974 bound_to 7965
  155.8150  140.3472  155.5480 H   0  0  0  0  0  0  0  0  0  0  0  0  # atno 8008 bound_to 7997
  155.8401  140.0940  157.1759 H   0  0  0  0  0  0  0  0  0  0  0  0  # atno 8009 bound_to 7997
  154.4005  140.1396  156.3706 H   0  0  0  0  0  0  0  0  0  0  0  0  # atno 8010 bound_to 7997
  139.6437  144.7125  151.2184 H   0  0  0  0  0  0  0  0  0  0  0  0  # atno 10167 bound_to 10162
  156.2637  130.7225  151.1168 H   0  0  0  0  0  0  0  0  0  0  0  0  # atno 10718 bound_to 10713
  154.7716  135.3147  154.8177 H   0  0  0  0  0  0  0  0  0  0  0  0  # atno 10763 bound_to 10752
  153.8911  135.6825  153.4765 H   0  0  0  0  0  0  0  0  0  0  0  0  # atno 10764 bound_to 10752
  153.1331  135.4771  154.9315 H   0  0  0  0  0  0  0  0  0  0  0  0  # atno 10765 bound_to 10752
  140.1683  134.4254  155.8273 H   0  0  0  0  0  0  0  0  0  0  0  0  # atno 11005 bound_to 11000
  144.7598  139.6985  143.7239 LP  0  0  0  0  0  0  0  0  0  0  0  0  # atno 17320 bound_to 7965
  146.2008  139.5302  142.9744 LP  0  0  0  0  0  0  0  0  0  0  0  0  # atno 17321 bound_to 7965
  140.7504  143.6267  150.8462 LP  0  0  0  0  0  0  0  0  0  0  0  0  # atno 17342 bound_to 10162
  139.9907  143.5850  152.2911 LP  0  0  0  0  0  0  0  0  0  0  0  0  # atno 17343 bound_to 10162
  157.7259  131.0649  150.5930 LP  0  0  0  0  0  0  0  0  0  0  0  0  # atno 17370 bound_to 10713
  156.6020  130.4357  149.5893 LP  0  0  0  0  0  0  0  0  0  0  0  0  # atno 17371 bound_to 10713
  141.2215  133.6944  156.7718 LP  0  0  0  0  0  0  0  0  0  0  0  0  # atno 17394 bound_to 11000
  140.2407  134.8616  157.3570 LP  0  0  0  0  0  0  0  0  0  0  0  0  # atno 17395 bound_to 11000

$$$$
