AV-unprocessed.smi:3085|AV-procd|sdf|11750|dock7
  -GOLD-   2272017143D 1   1.00000     0.00000
 Structure written by MMmdl.
 28 29  0  0  0  0  0  0  0  0  2 V2000
  152.2701  144.3827  158.1147 C   0  0  0  0  0  0  0  0  0  0  0  0
  151.1631  143.4044  158.5223 C   0  0  0  0  0  0  0  0  0  0  0  0
  150.8618  142.4041  157.4551 C   0  0  0  0  0  0  0  0  0  0  0  0
  151.5284  141.2718  157.2567 N   0  0  0  0  0  0  0  0  0  0  0  0
  150.8535  140.7770  156.1751 C   0  0  0  0  0  0  0  0  0  0  0  0
  151.2537  139.5001  155.5024 C   0  0  2  0  0  0  0  0  0  0  0  0
  150.2937  139.1181  154.3599 C   0  0  0  0  0  0  0  0  0  0  0  0
  150.6822  137.8117  153.7942 N   0  3  0  0  0  0  0  0  0  0  0  0
  150.7537  136.7702  154.8383 C   0  0  0  0  0  0  0  0  0  0  0  0
  151.6869  137.2225  155.9760 C   0  0  0  0  0  0  0  0  0  0  0  0
  151.2466  138.4741  156.4936 O   0  0  0  0  0  0  0  0  0  0  0  0
  149.8661  141.5412  155.7065 N   0  0  0  0  0  0  0  0  0  0  0  0
  149.8868  142.5848  156.5621 N   0  0  0  0  0  0  0  0  0  0  0  0
  149.2516  143.3677  156.4946 H   0  0  0  0  0  0  0  0  0  0  0  0
  152.4690  145.0992  158.9119 H   0  0  0  0  0  0  0  0  0  0  0  0
  151.9891  144.9449  157.2235 H   0  0  0  0  0  0  0  0  0  0  0  0
  153.2010  143.8567  157.9000 H   0  0  0  0  0  0  0  0  0  0  0  0
  151.4546  142.8715  159.4281 H   0  0  0  0  0  0  0  0  0  0  0  0
  150.2524  143.9538  158.7644 H   0  0  0  0  0  0  0  0  0  0  0  0
  152.2681  139.6167  155.1158 H   0  0  0  0  0  0  0  0  0  0  0  0
  149.2682  139.0562  154.7273 H   0  0  0  0  0  0  0  0  0  0  0  0
  150.3099  139.8727  153.5732 H   0  0  0  0  0  0  0  0  0  0  0  0
  150.0129  137.5374  153.0890 H   0  0  0  0  0  0  0  0  0  0  0  0
  149.7515  136.5811  155.2257 H   0  0  0  0  0  0  0  0  0  0  0  0
  151.1091  135.8389  154.3968 H   0  0  0  0  0  0  0  0  0  0  0  0
  151.6845  136.4860  156.7797 H   0  0  0  0  0  0  0  0  0  0  0  0
  152.7165  137.3052  155.6240 H   0  0  0  0  0  0  0  0  0  0  0  0
  151.5929  137.9033  153.3664 H   0  0  0  0  0  0  0  0  0  0  0  0
  1  2  1  0  0  0  0
  1 15  1  0  0  0  0
  1 16  1  0  0  0  0
  1 17  1  0  0  0  0
  2  3  1  0  0  0  0
  2 18  1  0  0  0  0
  2 19  1  0  0  0  0
  3 13  1  0  0  0  0
  3  4  2  0  0  0  0
  4  5  1  0  0  0  0
  5  6  1  0  0  0  0
  5 12  2  0  0  0  0
  6 11  1  0  0  0  0
  6  7  1  0  0  0  0
  6 20  1  0  0  0  0
  7  8  1  0  0  0  0
  7 21  1  0  0  0  0
  7 22  1  0  0  0  0
  8  9  1  0  0  0  0
  8 23  1  0  0  0  0
  8 28  1  0  0  0  0
  9 10  1  0  0  0  0
  9 24  1  0  0  0  0
  9 25  1  0  0  0  0
 10 11  1  0  0  0  0
 10 26  1  0  0  0  0
 10 27  1  0  0  0  0
 12 13  1  0  0  0  0
 13 14  1  0  0  0  0
M  CHG  1   8   1
M  END
> <s_m_source_file>
AV-unprocessed.smi

> <i_m_source_file_index>
3085

> <i_lp_mmshare_version>
43012

> <i_f3d_flags>
0

> <s_epik_input>
W0NIM11bQ0gyXWMxbmMobltuSF0xKVtDQEBIXTJbQ0gyXVtOSF1bQ0gyXVtDSDJdTzI=

> <s_epik_cmdline>
J2VwaWtfcHl0aG9uJywgJy1waCcsICc3LjAnLCAnLXRuJywgJzgnLCAnLW1hJywgJzIwMCcsICctbWV0YWxfYmluZGluZycsICctaW1hZScsICc8aW5maWxlLm1hZT4nLCAnLW9tYWUnLCAnPG91dGZpbGUubWFlPic=

> <r_lp_tautomer_probability>
0.948284

> <r_epik_Ionization_Penalty>
0.107151

> <r_epik_Ionization_Penalty_Charging>
0.100865

> <r_epik_Ionization_Penalty_Neutral>
0.00628602

> <r_epik_State_Penalty>
0.429695

> <r_epik_Charging_Adjusted_Penalty>
0.530559

> <i_epik_Tot_Q>
1

> <i_epik_Tot_abs_Q>
1

> <r_epik_Metal_State_Penalty>
0.651827

> <b_epik_Metal_Only>
0

> <s_lp_Force_Field>
OPLS_2005

> <r_lp_Energy>
10.1089

> <b_lp_Chiralities_Consistent>
1

> <s_lp_Variant>
AV-unprocessed.smi:3085-1

> <Gold.Version>
5.8.1

> <Gold.Id.Protein>
6NUR|6NUR_protein|mol2

> <Gold.PLP.Fitness>
34.0393

> <Gold.PLP.PLP>
-25.8424

> <Gold.PLP.part.hbond>
-2.8503

> <Gold.PLP.part.metal>
0.0000

> <Gold.PLP.part.buried>
-3.9795

> <Gold.PLP.part.nonpolar>
-20.2815

> <Gold.PLP.part.repulsive>
0.2853

> <Gold.PLP.ligand.clash>
0.0000

> <Gold.PLP.ligand.torsion>
0.4109

> <Gold.PLP.Chemscore.Hbond>
3.0000

> <Gold.PLP.Chemscore.CHOScore>
0.0000

> <Gold.PLP.Chemscore.Metal>
0.0000

> <Gold.Chemscore.Hbonds>
donor molecule, donor type, donor heavy atom, donor atom, acceptor molecule, acceptor atom, score
      L1  H     8    23       P1  7948  1.98
      L1  H    13    14       P1  8028  0.91

> <Gold.PLP.Chemscore.Internal.Correction>
0.0188

> <Gold.Rescore>
     Score         DG    S(hbond)    S(metal)    S(lipo)     H(rot)  DE(clash)    DE(int)     intcor
     13.09     -13.43       1.64        0.00      49.62       1.30       0.00       0.34       ----

> <Gold.Chemscore.Fitness>
13.0851

> <Gold.Chemscore.DG>
-13.4261

> <Gold.Chemscore.ZeroCoef>
-5.4800

> <Gold.Chemscore.Hbond>
1.6380

> <Gold.Chemscore.Metal>
0.0000

> <Gold.Chemscore.Lipo>
49.6237

> <Gold.Chemscore.Internal_Hbond>
0.0000

> <Gold.Chemscore.DEClash>
0.0048

> <Gold.Chemscore.DEInternal>
0.3362

> <Gold.Chemscore.Rot>
1.3011

> <Gold.Chemscore.Internal.Correction>
   9.000000E+99

> <Gold.Chemscore.Hbonds>
donor molecule, donor type, donor heavy atom, donor atom, acceptor molecule, acceptor atom, score
      L1  H     8    23       P1  7948  0.23
      L1  H    13    14       P1  8028  0.87

> <Gold.Chemscore.Hbond.Weighted>
-5.4710

> <Gold.Chemscore.Metal.Weighted>
-0.0000

> <Gold.Chemscore.Lipo.Weighted>
-5.8060

> <Gold.Chemscore.Internal_Hbond.Weighted>
0.0000

> <Gold.Chemscore.DEClash.Weighted>
0.0048

> <Gold.Chemscore.DEInternal.Weighted>
0.3362

> <Gold.Chemscore.Rot.Weighted>
3.3308

> <Gold.Chemscore.Internal.Correction.Weighted>
   9.000000E+99

> <Gold.Protein.RotatedTorsions>
[ 6907 6896 6895 6894 ] final   62.90 input  -60.11 | X-H torsion
[ 7974 7965 7964 7962 ] final  109.67 input  175.53 | X-H torsion
[ 8008 7997 7996 7995 ] final -122.00 input   59.86 | X-H torsion
[ 10167 10162 10161 10158 ] final  163.26 input  -65.29 | X-H torsion
[ 10718 10713 10712 10709 ] final -158.98 input   66.30 | X-H torsion
[ 10763 10752 10751 10750 ] final   64.03 input  -60.55 | X-H torsion
[ 11005 11000 10999 10996 ] final -117.30 input  -57.11 | X-H torsion

> <Gold.Protein.ActiveResidues>
 VAL166  LYS551  ARG553  GLY616  TRP617  ASP618  TYR619  PRO620  LYS621  CYS622 
 ASP623  PHE694  ASN695  SER759  ASP760  ASP761  ALA762  ILE779  LEU786  VAL792 
 PHE793  MET794  SER795  GLU796  ALA797  LYS798  CYS799  TRP800  GLU811  SER814 

> <Gold.Protein.RotatedAtoms>
  152.4209  134.5956  159.9985 H   0  0  0  0  0  0  0  0  0  0  0  0  # atno 6907 bound_to 6896
  151.6106  133.3342  159.3074 H   0  0  0  0  0  0  0  0  0  0  0  0  # atno 6908 bound_to 6896
  150.8098  134.7283  159.6743 H   0  0  0  0  0  0  0  0  0  0  0  0  # atno 6909 bound_to 6896
  145.2648  139.2689  143.3998 H   0  0  0  0  0  0  0  0  0  0  0  0  # atno 7974 bound_to 7965
  155.1572  140.0405  157.2834 H   0  0  0  0  0  0  0  0  0  0  0  0  # atno 8008 bound_to 7997
  154.6362  140.2536  155.7348 H   0  0  0  0  0  0  0  0  0  0  0  0  # atno 8009 bound_to 7997
  156.2510  140.2865  156.0736 H   0  0  0  0  0  0  0  0  0  0  0  0  # atno 8010 bound_to 7997
  139.4871  144.4355  151.9017 H   0  0  0  0  0  0  0  0  0  0  0  0  # atno 10167 bound_to 10162
  156.5617  130.8650  151.2811 H   0  0  0  0  0  0  0  0  0  0  0  0  # atno 10718 bound_to 10713
  153.0040  135.5408  154.6446 H   0  0  0  0  0  0  0  0  0  0  0  0  # atno 10763 bound_to 10752
  154.5693  135.2840  155.0845 H   0  0  0  0  0  0  0  0  0  0  0  0  # atno 10764 bound_to 10752
  154.2017  135.6482  153.5141 H   0  0  0  0  0  0  0  0  0  0  0  0  # atno 10765 bound_to 10752
  141.0364  133.9903  157.3064 H   0  0  0  0  0  0  0  0  0  0  0  0  # atno 11005 bound_to 11000
  146.3264  140.3074  142.8624 LP  0  0  0  0  0  0  0  0  0  0  0  0  # atno 17320 bound_to 7965
  144.9387  140.8055  143.5644 LP  0  0  0  0  0  0  0  0  0  0  0  0  # atno 17321 bound_to 7965
  140.3805  144.2742  150.5909 LP  0  0  0  0  0  0  0  0  0  0  0  0  # atno 17342 bound_to 10162
  140.5238  143.2259  151.8347 LP  0  0  0  0  0  0  0  0  0  0  0  0  # atno 17343 bound_to 10162
  157.7367  130.9783  150.2152 LP  0  0  0  0  0  0  0  0  0  0  0  0  # atno 17370 bound_to 10713
  156.2793  130.3731  149.7951 LP  0  0  0  0  0  0  0  0  0  0  0  0  # atno 17371 bound_to 10713
  139.9243  135.0201  156.8180 LP  0  0  0  0  0  0  0  0  0  0  0  0  # atno 17394 bound_to 11000
  140.6315  133.9902  155.7664 LP  0  0  0  0  0  0  0  0  0  0  0  0  # atno 17395 bound_to 11000

$$$$
