AV-unprocessed.smi:2468|AV-procd|sdf|9731|dock8
  -GOLD-   2272013373D 1   1.00000     0.00000
 Structure written by MMmdl.
 32 33  0  0  0  0  0  0  0  0  1 V2000
  151.9843  145.4618  159.7313 C   0  0  0  0  0  0  0  0  0  0  0  0
  152.1548  143.9582  159.6181 C   0  0  0  0  0  0  0  0  0  0  0  0
  152.5748  143.3318  160.7389 N   0  0  0  0  0  0  0  0  0  0  0  0
  152.7333  141.9932  160.6959 C   0  0  0  0  0  0  0  0  0  0  0  0
  152.4899  141.2205  159.5446 C   0  0  0  0  0  0  0  0  0  0  0  0
  152.0657  141.8750  158.3630 C   0  0  0  0  0  0  0  0  0  0  0  0
  151.7756  141.1943  157.1476 N   0  0  0  0  0  0  0  0  0  0  0  0
  152.1986  139.9878  156.7279 C   0  0  0  0  0  0  0  0  0  0  0  0
  152.9234  139.2343  157.3780 O   0  0  0  0  0  0  0  0  0  0  0  0
  151.7152  139.5679  155.3294 C   0  0  2  0  0  0  0  0  0  0  0  0
  150.8604  140.6037  154.8410 O   0  0  0  0  0  0  0  0  0  0  0  0
  149.5475  140.1059  154.5965 C   0  0  0  0  0  0  0  0  0  0  0  0
  149.4457  138.8174  155.4039 C   0  0  0  0  0  0  0  0  0  0  0  0
  150.8581  138.2835  155.2781 C   0  0  2  0  0  0  0  0  0  0  0  0
  151.2078  137.1587  156.2697 C   0  0  0  0  0  0  0  0  0  0  0  0
  151.8818  143.2772  158.4083 C   0  0  0  0  0  0  0  0  0  0  0  0
  151.3389  144.1447  157.0106 Cl  0  0  0  0  0  0  0  0  0  0  0  0
  152.5858  145.9713  158.9781 H   0  0  0  0  0  0  0  0  0  0  0  0
  152.2928  145.8282  160.7113 H   0  0  0  0  0  0  0  0  0  0  0  0
  150.9396  145.7360  159.5823 H   0  0  0  0  0  0  0  0  0  0  0  0
  153.0582  141.5209  161.6112 H   0  0  0  0  0  0  0  0  0  0  0  0
  152.6206  140.1510  159.5972 H   0  0  0  0  0  0  0  0  0  0  0  0
  151.2398  141.7264  156.4771 H   0  0  0  0  0  0  0  0  0  0  0  0
  152.5722  139.4678  154.6611 H   0  0  0  0  0  0  0  0  0  0  0  0
  148.7856  140.8354  154.8720 H   0  0  0  0  0  0  0  0  0  0  0  0
  149.4463  139.8954  153.5311 H   0  0  0  0  0  0  0  0  0  0  0  0
  149.2033  139.0379  156.4441 H   0  0  0  0  0  0  0  0  0  0  0  0
  148.6921  138.1324  155.0142 H   0  0  0  0  0  0  0  0  0  0  0  0
  150.9647  137.8694  154.2740 H   0  0  0  0  0  0  0  0  0  0  0  0
  151.0424  137.4569  157.3051 H   0  0  0  0  0  0  0  0  0  0  0  0
  152.2511  136.8590  156.1681 H   0  0  0  0  0  0  0  0  0  0  0  0
  150.5921  136.2783  156.0849 H   0  0  0  0  0  0  0  0  0  0  0  0
  1  2  1  0  0  0  0
  1 18  1  0  0  0  0
  1 19  1  0  0  0  0
  1 20  1  0  0  0  0
  2 16  1  0  0  0  0
  2  3  2  0  0  0  0
  3  4  1  0  0  0  0
  4  5  2  0  0  0  0
  4 21  1  0  0  0  0
  5  6  1  0  0  0  0
  5 22  1  0  0  0  0
  6  7  1  0  0  0  0
  6 16  2  0  0  0  0
  7  8  1  0  0  0  0
  7 23  1  0  0  0  0
  8  9  2  0  0  0  0
  8 10  1  0  0  0  0
 10 14  1  0  0  0  0
 10 11  1  0  0  0  0
 10 24  1  0  0  0  0
 11 12  1  0  0  0  0
 12 13  1  0  0  0  0
 12 25  1  0  0  0  0
 12 26  1  0  0  0  0
 13 14  1  0  0  0  0
 13 27  1  0  0  0  0
 13 28  1  0  0  0  0
 14 15  1  0  0  0  0
 14 29  1  0  0  0  0
 15 30  1  0  0  0  0
 15 31  1  0  0  0  0
 15 32  1  0  0  0  0
 16 17  1  0  0  0  0
M  END
> <s_m_source_file>
AV-unprocessed.smi

> <i_m_source_file_index>
2468

> <i_lp_mmshare_version>
43012

> <i_f3d_flags>
0

> <s_epik_input>
W0NIM11jMW5bY0hdW2NIXWMoYzFDbClbTkhdQyg9TylbQ0BASF0yT1tDSDJdW0NIMl1bQ0BIXTJbQ0gzXQ==

> <s_epik_cmdline>
J2VwaWtfcHl0aG9uJywgJy1waCcsICc3LjAnLCAnLXRuJywgJzgnLCAnLW1hJywgJzIwMCcsICctbWV0YWxfYmluZGluZycsICctaW1hZScsICc8aW5maWxlLm1hZT4nLCAnLW9tYWUnLCAnPG91dGZpbGUubWFlPic=

> <r_epik_Ionization_Penalty>
0.000361027

> <r_epik_Ionization_Penalty_Charging>
0

> <r_epik_Ionization_Penalty_Neutral>
0.000361027

> <r_epik_State_Penalty>
0.000217849

> <r_epik_Charging_Adjusted_Penalty>
0.000217849

> <i_epik_Tot_Q>
0

> <i_epik_Tot_abs_Q>
0

> <r_epik_Metal_State_Penalty>
-0

> <b_epik_Metal_Only>
0

> <s_lp_Force_Field>
OPLS_2005

> <r_lp_Energy>
25.639

> <b_lp_Chiralities_Consistent>
1

> <s_lp_Variant>
AV-unprocessed.smi:2468-3

> <Gold.Version>
5.8.1

> <Gold.Id.Protein>
6NUR|6NUR_protein|mol2

> <Gold.PLP.Fitness>
38.8028

> <Gold.PLP.PLP>
-33.0042

> <Gold.PLP.part.hbond>
-2.0000

> <Gold.PLP.part.metal>
0.0000

> <Gold.PLP.part.buried>
0.4042

> <Gold.PLP.part.nonpolar>
-30.9886

> <Gold.PLP.part.repulsive>
0.2336

> <Gold.PLP.ligand.clash>
0.0000

> <Gold.PLP.ligand.torsion>
0.1061

> <Gold.PLP.Chemscore.Hbond>
2.0000

> <Gold.PLP.Chemscore.CHOScore>
0.0000

> <Gold.PLP.Chemscore.Metal>
0.0000

> <Gold.Chemscore.Hbonds>
donor molecule, donor type, donor heavy atom, donor atom, acceptor molecule, acceptor atom, score
      P1  H  7989  7998       L1    11  0.84
      P1  H  7997  8008       L1     9  1.00

> <Gold.PLP.Chemscore.Internal.Correction>
0.0109

> <Gold.Rescore>
     Score         DG    S(hbond)    S(metal)    S(lipo)     H(rot)  DE(clash)    DE(int)     intcor
     15.75     -19.51       1.29        0.00     105.01       1.00       1.49       2.27       ----

> <Gold.Chemscore.Fitness>
15.7528

> <Gold.Chemscore.DG>
-19.5140

> <Gold.Chemscore.ZeroCoef>
-5.4800

> <Gold.Chemscore.Hbond>
1.2896

> <Gold.Chemscore.Metal>
0.0000

> <Gold.Chemscore.Lipo>
105.0133

> <Gold.Chemscore.Internal_Hbond>
0.0000

> <Gold.Chemscore.DEClash>
1.4939

> <Gold.Chemscore.DEInternal>
2.2673

> <Gold.Chemscore.Rot>
1.0000

> <Gold.Chemscore.Internal.Correction>
   9.000000E+99

> <Gold.Chemscore.Hbonds>
donor molecule, donor type, donor heavy atom, donor atom, acceptor molecule, acceptor atom, score
      P1  H  7989  7998       L1    11  0.11
      P1  H  7997  8008       L1     9  0.24

> <Gold.Chemscore.Hbond.Weighted>
-4.3074

> <Gold.Chemscore.Metal.Weighted>
-0.0000

> <Gold.Chemscore.Lipo.Weighted>
-12.2866

> <Gold.Chemscore.Internal_Hbond.Weighted>
0.0000

> <Gold.Chemscore.DEClash.Weighted>
1.4939

> <Gold.Chemscore.DEInternal.Weighted>
2.2673

> <Gold.Chemscore.Rot.Weighted>
2.5600

> <Gold.Chemscore.Internal.Correction.Weighted>
   9.000000E+99

> <Gold.Protein.RotatedTorsions>
[ 6907 6896 6895 6894 ] final -134.11 input  -60.11 | X-H torsion
[ 7974 7965 7964 7962 ] final  -82.73 input  175.53 | X-H torsion
[ 8008 7997 7996 7995 ] final  -89.48 input   59.86 | X-H torsion
[ 10167 10162 10161 10158 ] final  167.07 input  -65.29 | X-H torsion
[ 10718 10713 10712 10709 ] final  -12.91 input   66.30 | X-H torsion
[ 10763 10752 10751 10750 ] final  125.39 input  -60.55 | X-H torsion
[ 11005 11000 10999 10996 ] final  106.69 input  -57.11 | X-H torsion

> <Gold.Protein.ActiveResidues>
 VAL166  LYS551  ARG553  GLY616  TRP617  ASP618  TYR619  PRO620  LYS621  CYS622 
 ASP623  PHE694  ASN695  SER759  ASP760  ASP761  ALA762  ILE779  LEU786  VAL792 
 PHE793  MET794  SER795  GLU796  ALA797  LYS798  CYS799  TRP800  GLU811  SER814 

> <Gold.Protein.RotatedAtoms>
  150.9820  133.6236  159.2720 H   0  0  0  0  0  0  0  0  0  0  0  0  # atno 6907 bound_to 6896
  151.3487  135.0878  159.9405 H   0  0  0  0  0  0  0  0  0  0  0  0  # atno 6908 bound_to 6896
  152.5218  133.9417  159.7684 H   0  0  0  0  0  0  0  0  0  0  0  0  # atno 6909 bound_to 6896
  145.5295  140.9523  143.1611 H   0  0  0  0  0  0  0  0  0  0  0  0  # atno 7974 bound_to 7965
  154.6871  140.0541  157.0325 H   0  0  0  0  0  0  0  0  0  0  0  0  # atno 8008 bound_to 7997
  155.0870  140.3215  155.4566 H   0  0  0  0  0  0  0  0  0  0  0  0  # atno 8009 bound_to 7997
  156.2715  140.2055  156.5997 H   0  0  0  0  0  0  0  0  0  0  0  0  # atno 8010 bound_to 7997
  139.4937  144.3961  151.9463 H   0  0  0  0  0  0  0  0  0  0  0  0  # atno 10167 bound_to 10162
  156.6378  130.4919  149.6106 H   0  0  0  0  0  0  0  0  0  0  0  0  # atno 10718 bound_to 10713
  153.6765  135.3321  155.3167 H   0  0  0  0  0  0  0  0  0  0  0  0  # atno 10763 bound_to 10752
  154.8477  135.4399  154.1650 H   0  0  0  0  0  0  0  0  0  0  0  0  # atno 10764 bound_to 10752
  153.2655  135.6995  153.7610 H   0  0  0  0  0  0  0  0  0  0  0  0  # atno 10765 bound_to 10752
  139.8817  134.9377  156.5705 H   0  0  0  0  0  0  0  0  0  0  0  0  # atno 11005 bound_to 11000
  144.7633  139.6904  143.7225 LP  0  0  0  0  0  0  0  0  0  0  0  0  # atno 17320 bound_to 7965
  146.2054  139.5374  142.9716 LP  0  0  0  0  0  0  0  0  0  0  0  0  # atno 17321 bound_to 7965
  140.3399  144.3216  150.5969 LP  0  0  0  0  0  0  0  0  0  0  0  0  # atno 17342 bound_to 10162
  140.5575  143.2197  151.7823 LP  0  0  0  0  0  0  0  0  0  0  0  0  # atno 17343 bound_to 10162
  156.2183  130.6721  151.1342 LP  0  0  0  0  0  0  0  0  0  0  0  0  # atno 17370 bound_to 10713
  157.7180  131.0698  150.6249 LP  0  0  0  0  0  0  0  0  0  0  0  0  # atno 17371 bound_to 10713
  140.8101  133.8435  155.8803 LP  0  0  0  0  0  0  0  0  0  0  0  0  # atno 17394 bound_to 11000
  140.9514  134.1774  157.4725 LP  0  0  0  0  0  0  0  0  0  0  0  0  # atno 17395 bound_to 11000

$$$$
