AV-unprocessed.smi:2052|AV-procd|sdf|8328|dock5
  -GOLD-   2272010593D 1   1.00000     0.00000
 Structure written by MMmdl.
 41 42  0  0  0  0  0  0  0  0  1 V2000
  146.7423  132.4302  152.2403 C   0  0  0  0  0  0  0  0  0  0  0  0
  145.7095  133.8834  151.9084 S   0  0  0  0  0  0  0  0  0  0  0  0
  146.2770  135.0119  153.2152 C   0  0  2  0  0  0  0  0  0  0  0  0
  145.8515  134.4872  154.5958 C   0  0  0  0  0  0  0  0  0  0  0  0
  145.7769  136.4443  152.9930 C   0  0  0  0  0  0  0  0  0  0  0  0
  144.5747  136.7021  153.0608 O   0  0  0  0  0  0  0  0  0  0  0  0
  146.7123  137.3711  152.7332 N   0  0  0  0  0  0  0  0  0  0  0  0
  146.4480  138.7945  152.5469 C   0  0  0  0  0  0  0  0  0  0  0  0
  147.3833  139.7165  153.3188 C   0  0  0  0  0  0  0  0  0  0  0  0
  147.1263  141.1007  153.3573 C   0  0  0  0  0  0  0  0  0  0  0  0
  148.0107  141.9281  154.0736 C   0  0  0  0  0  0  0  0  0  0  0  0
  149.0943  141.4621  154.7286 N   0  0  0  0  0  0  0  0  0  0  0  0
  149.3535  140.1314  154.7018 C   0  0  0  0  0  0  0  0  0  0  0  0
  150.4830  139.6527  155.4000 N   0  0  0  0  0  0  0  0  0  0  0  0
  151.3979  138.7583  154.6932 C   0  0  0  0  0  0  0  0  0  0  0  0
  152.3914  138.1213  155.6794 C   0  0  0  0  0  0  0  0  0  0  0  0
  153.0710  139.1425  156.4020 O   0  0  0  0  0  0  0  0  0  0  0  0
  152.1721  139.9360  157.1698 C   0  0  0  0  0  0  0  0  0  0  0  0
  151.1673  140.6348  156.2379 C   0  0  0  0  0  0  0  0  0  0  0  0
  148.5247  139.2288  153.9942 C   0  0  0  0  0  0  0  0  0  0  0  0
  146.4879  131.6257  151.5502 H   0  0  0  0  0  0  0  0  0  0  0  0
  146.5841  132.0742  153.2582 H   0  0  0  0  0  0  0  0  0  0  0  0
  147.7982  132.6687  152.1132 H   0  0  0  0  0  0  0  0  0  0  0  0
  147.3678  135.0139  153.1884 H   0  0  0  0  0  0  0  0  0  0  0  0
  146.1730  135.1595  155.3924 H   0  0  0  0  0  0  0  0  0  0  0  0
  146.2950  133.5111  154.7936 H   0  0  0  0  0  0  0  0  0  0  0  0
  144.7687  134.3772  154.6680 H   0  0  0  0  0  0  0  0  0  0  0  0
  147.6768  137.0759  152.6902 H   0  0  0  0  0  0  0  0  0  0  0  0
  146.5454  139.0215  151.4851 H   0  0  0  0  0  0  0  0  0  0  0  0
  145.4128  139.0121  152.8157 H   0  0  0  0  0  0  0  0  0  0  0  0
  146.2706  141.5223  152.8506 H   0  0  0  0  0  0  0  0  0  0  0  0
  147.8433  142.9938  154.1228 H   0  0  0  0  0  0  0  0  0  0  0  0
  150.8392  137.9719  154.1839 H   0  0  0  0  0  0  0  0  0  0  0  0
  151.9382  139.3219  153.9314 H   0  0  0  0  0  0  0  0  0  0  0  0
  151.8782  137.4512  156.3711 H   0  0  0  0  0  0  0  0  0  0  0  0
  153.1233  137.5210  155.1391 H   0  0  0  0  0  0  0  0  0  0  0  0
  151.6548  139.3141  157.9023 H   0  0  0  0  0  0  0  0  0  0  0  0
  152.7427  140.6774  157.7289 H   0  0  0  0  0  0  0  0  0  0  0  0
  151.6883  141.3437  155.5932 H   0  0  0  0  0  0  0  0  0  0  0  0
  150.4677  141.2120  156.8409 H   0  0  0  0  0  0  0  0  0  0  0  0
  148.7655  138.1770  153.9614 H   0  0  0  0  0  0  0  0  0  0  0  0
  1  2  1  0  0  0  0
  1 21  1  0  0  0  0
  1 22  1  0  0  0  0
  1 23  1  0  0  0  0
  2  3  1  0  0  0  0
  3  4  1  0  0  0  0
  3  5  1  0  0  0  0
  3 24  1  0  0  0  0
  4 25  1  0  0  0  0
  4 26  1  0  0  0  0
  4 27  1  0  0  0  0
  5  6  2  0  0  0  0
  5  7  1  0  0  0  0
  7  8  1  0  0  0  0
  7 28  1  0  0  0  0
  8  9  1  0  0  0  0
  8 29  1  0  0  0  0
  8 30  1  0  0  0  0
  9 20  1  0  0  0  0
  9 10  2  0  0  0  0
 10 11  1  0  0  0  0
 10 31  1  0  0  0  0
 11 12  2  0  0  0  0
 11 32  1  0  0  0  0
 12 13  1  0  0  0  0
 13 14  1  0  0  0  0
 13 20  2  0  0  0  0
 14 19  1  0  0  0  0
 14 15  1  0  0  0  0
 15 16  1  0  0  0  0
 15 33  1  0  0  0  0
 15 34  1  0  0  0  0
 16 17  1  0  0  0  0
 16 35  1  0  0  0  0
 16 36  1  0  0  0  0
 17 18  1  0  0  0  0
 18 19  1  0  0  0  0
 18 37  1  0  0  0  0
 18 38  1  0  0  0  0
 19 39  1  0  0  0  0
 19 40  1  0  0  0  0
 20 41  1  0  0  0  0
M  END
> <s_m_source_file>
AV-unprocessed.smi

> <i_m_source_file_index>
2052

> <i_lp_mmshare_version>
43012

> <i_f3d_flags>
0

> <s_epik_input>
W0NIM11TW0NASF0oW0NIM10pQyg9TylbTkhdW0NIMl1jMVtjSF1bY0hdbmMoW2NIXTEpTjJbQ0gyXVtDSDJdT1tDSDJdW0NIMl0y

> <s_epik_cmdline>
J2VwaWtfcHl0aG9uJywgJy1waCcsICc3LjAnLCAnLXRuJywgJzgnLCAnLW1hJywgJzIwMCcsICctbWV0YWxfYmluZGluZycsICctaW1hZScsICc8aW5maWxlLm1hZT4nLCAnLW9tYWUnLCAnPG91dGZpbGUubWFlPic=

> <r_lp_tautomer_probability>
1

> <r_epik_Ionization_Penalty>
0.00463955

> <r_epik_Ionization_Penalty_Charging>
0

> <r_epik_Ionization_Penalty_Neutral>
0.00463955

> <r_epik_State_Penalty>
0.00335544

> <r_epik_Charging_Adjusted_Penalty>
0.00335544

> <i_epik_Tot_Q>
0

> <i_epik_Tot_abs_Q>
0

> <r_epik_Metal_State_Penalty>
-0

> <b_epik_Metal_Only>
0

> <s_lp_Force_Field>
OPLS_2005

> <r_lp_Energy>
14.3355

> <b_lp_Chiralities_Consistent>
1

> <s_lp_Variant>
AV-unprocessed.smi:2052-1

> <Gold.Version>
5.8.1

> <Gold.Id.Protein>
6NUR|6NUR_protein|mol2

> <Gold.PLP.Fitness>
40.9203

> <Gold.PLP.PLP>
-32.3470

> <Gold.PLP.part.hbond>
-2.0000

> <Gold.PLP.part.metal>
0.0000

> <Gold.PLP.part.buried>
-1.0453

> <Gold.PLP.part.nonpolar>
-28.8072

> <Gold.PLP.part.repulsive>
0.3649

> <Gold.PLP.ligand.clash>
0.0000

> <Gold.PLP.ligand.torsion>
0.4035

> <Gold.PLP.Chemscore.Hbond>
2.0000

> <Gold.PLP.Chemscore.CHOScore>
1.0000

> <Gold.PLP.Chemscore.Metal>
0.0000

> <Gold.Chemscore.Hbonds>
donor molecule, donor type, donor heavy atom, donor atom, acceptor molecule, acceptor atom, score
      L1  H     7    28       P1  7948  0.98
      P1  H  7997  8008       L1    17  1.00
      L1  C    11    32       P1  8028  1.00

> <Gold.PLP.Chemscore.Internal.Correction>
0.3804

> <Gold.Rescore>
     Score         DG    S(hbond)    S(metal)    S(lipo)     H(rot)  DE(clash)    DE(int)     intcor
     16.51     -16.87       1.96        0.00      77.82       1.67       0.05       0.31       ----

> <Gold.Chemscore.Fitness>
16.5122

> <Gold.Chemscore.DG>
-16.8692

> <Gold.Chemscore.ZeroCoef>
-5.4800

> <Gold.Chemscore.Hbond>
1.9626

> <Gold.Chemscore.Metal>
0.0000

> <Gold.Chemscore.Lipo>
77.8185

> <Gold.Chemscore.Internal_Hbond>
0.0000

> <Gold.Chemscore.DEClash>
0.0510

> <Gold.Chemscore.DEInternal>
0.3060

> <Gold.Chemscore.Rot>
1.6682

> <Gold.Chemscore.Internal.Correction>
   9.000000E+99

> <Gold.Chemscore.Hbonds>
donor molecule, donor type, donor heavy atom, donor atom, acceptor molecule, acceptor atom, score
      L1  H     7    28       P1  7948  0.93
      P1  H  7997  8008       L1    17  0.30

> <Gold.Chemscore.Hbond.Weighted>
-6.5552

> <Gold.Chemscore.Metal.Weighted>
-0.0000

> <Gold.Chemscore.Lipo.Weighted>
-9.1048

> <Gold.Chemscore.Internal_Hbond.Weighted>
0.0000

> <Gold.Chemscore.DEClash.Weighted>
0.0510

> <Gold.Chemscore.DEInternal.Weighted>
0.3060

> <Gold.Chemscore.Rot.Weighted>
4.2707

> <Gold.Chemscore.Internal.Correction.Weighted>
   9.000000E+99

> <Gold.Protein.RotatedTorsions>
[ 6907 6896 6895 6894 ] final  -42.05 input  -60.11 | X-H torsion
[ 7974 7965 7964 7962 ] final -179.24 input  175.53 | X-H torsion
[ 8008 7997 7996 7995 ] final  -40.56 input   59.86 | X-H torsion
[ 10167 10162 10161 10158 ] final    8.68 input  -65.29 | X-H torsion
[ 10718 10713 10712 10709 ] final  -70.93 input   66.30 | X-H torsion
[ 10763 10752 10751 10750 ] final  111.01 input  -60.55 | X-H torsion
[ 11005 11000 10999 10996 ] final  148.54 input  -57.11 | X-H torsion

> <Gold.Protein.ActiveResidues>
 VAL166  LYS551  ARG553  GLY616  TRP617  ASP618  TYR619  PRO620  LYS621  CYS622 
 ASP623  PHE694  ASN695  SER759  ASP760  ASP761  ALA762  ILE779  LEU786  VAL792 
 PHE793  MET794  SER795  GLU796  ALA797  LYS798  CYS799  TRP800  GLU811  SER814 

> <Gold.Protein.RotatedAtoms>
  150.9596  134.8986  159.7722 H   0  0  0  0  0  0  0  0  0  0  0  0  # atno 6907 bound_to 6896
  152.5151  134.3691  159.9322 H   0  0  0  0  0  0  0  0  0  0  0  0  # atno 6908 bound_to 6896
  151.3704  133.3816  159.2734 H   0  0  0  0  0  0  0  0  0  0  0  0  # atno 6909 bound_to 6896
  144.7135  140.0747  143.6428 H   0  0  0  0  0  0  0  0  0  0  0  0  # atno 7974 bound_to 7965
  154.4011  140.1522  156.3047 H   0  0  0  0  0  0  0  0  0  0  0  0  # atno 8008 bound_to 7997
  155.8669  140.3450  155.5773 H   0  0  0  0  0  0  0  0  0  0  0  0  # atno 8009 bound_to 7997
  155.7817  140.0844  157.2046 H   0  0  0  0  0  0  0  0  0  0  0  0  # atno 8010 bound_to 7997
  140.6300  143.8015  150.7283 H   0  0  0  0  0  0  0  0  0  0  0  0  # atno 10167 bound_to 10162
  156.0386  130.4341  150.2368 H   0  0  0  0  0  0  0  0  0  0  0  0  # atno 10718 bound_to 10713
  153.4572  135.3730  155.2318 H   0  0  0  0  0  0  0  0  0  0  0  0  # atno 10763 bound_to 10752
  154.8757  135.3900  154.3967 H   0  0  0  0  0  0  0  0  0  0  0  0  # atno 10764 bound_to 10752
  153.4535  135.7086  153.6158 H   0  0  0  0  0  0  0  0  0  0  0  0  # atno 10765 bound_to 10752
  140.0968  134.9007  157.1735 H   0  0  0  0  0  0  0  0  0  0  0  0  # atno 11005 bound_to 11000
  145.9753  139.2900  143.1074 LP  0  0  0  0  0  0  0  0  0  0  0  0  # atno 17320 bound_to 7965
  145.9071  140.9205  143.0473 LP  0  0  0  0  0  0  0  0  0  0  0  0  # atno 17321 bound_to 7965
  140.1624  143.4264  152.2058 LP  0  0  0  0  0  0  0  0  0  0  0  0  # atno 17342 bound_to 10162
  139.5515  144.7341  151.4420 LP  0  0  0  0  0  0  0  0  0  0  0  0  # atno 17343 bound_to 10162
  157.0465  131.0050  151.3267 LP  0  0  0  0  0  0  0  0  0  0  0  0  # atno 17370 bound_to 10713
  157.5172  130.7975  149.7769 LP  0  0  0  0  0  0  0  0  0  0  0  0  # atno 17371 bound_to 10713
  140.3275  134.2847  155.7234 LP  0  0  0  0  0  0  0  0  0  0  0  0  # atno 17394 bound_to 11000
  141.2094  133.7749  156.9997 LP  0  0  0  0  0  0  0  0  0  0  0  0  # atno 17395 bound_to 11000

$$$$
