AV-unprocessed.smi:1399|AV-procd|sdf|5681|dock6
  -GOLD-   22720 5303D 1   1.00000     0.00000
 Structure written by MMmdl.
 37 38  0  0  0  0  0  0  0  0  1 V2000
  142.8063  133.1426  148.2399 N   0  0  0  0  0  0  0  0  0  0  0  0
  143.8652  132.7104  148.9293 C   0  0  0  0  0  0  0  0  0  0  0  0
  144.7823  132.0839  148.4032 O   0  0  0  0  0  0  0  0  0  0  0  0
  143.8943  133.0202  150.4305 C   0  0  0  0  0  0  0  0  0  0  0  0
  144.2128  134.4273  150.7673 N   0  0  0  0  0  0  0  0  0  0  0  0
  145.6361  134.6206  151.0834 C   0  0  0  0  0  0  0  0  0  0  0  0
  145.9337  136.1052  151.3599 C   0  0  0  0  0  0  0  0  0  0  0  0
  145.0641  136.6447  152.5074 C   0  0  0  0  0  0  0  0  0  0  0  0
  145.2544  138.0821  152.6776 N   0  0  0  0  0  0  0  0  0  0  0  0
  146.3586  138.6620  153.1692 C   0  0  0  0  0  0  0  0  0  0  0  0
  147.3535  138.0347  153.5329 O   0  0  0  0  0  0  0  0  0  0  0  0
  146.2315  139.9985  153.2081 N   0  0  0  0  0  0  0  0  0  0  0  0
  147.1859  140.9412  153.6666 C   0  0  0  0  0  0  0  0  0  0  0  0
  146.9536  142.3390  153.7788 C   0  0  0  0  0  0  0  0  0  0  0  0
  148.0244  142.9721  154.2361 N   0  0  0  0  0  0  0  0  0  0  0  0
  148.9384  141.9920  154.4162 N   0  0  0  0  0  0  0  0  0  0  0  0
  148.4722  140.7395  154.0828 C   0  0  0  0  0  0  0  0  0  0  0  0
  143.5910  136.3453  152.1972 C   0  0  0  0  0  0  0  0  0  0  0  0
  143.3811  134.8505  151.8989 C   0  0  0  0  0  0  0  0  0  0  0  0
  149.8658  142.1910  154.7638 H   0  0  0  0  0  0  0  0  0  0  0  0
  142.7476  132.9675  147.2473 H   0  0  0  0  0  0  0  0  0  0  0  0
  142.0722  133.6488  148.7135 H   0  0  0  0  0  0  0  0  0  0  0  0
  142.9127  132.7631  150.8313 H   0  0  0  0  0  0  0  0  0  0  0  0
  144.6101  132.3542  150.9165 H   0  0  0  0  0  0  0  0  0  0  0  0
  145.9164  134.0123  151.9451 H   0  0  0  0  0  0  0  0  0  0  0  0
  146.2668  134.3003  150.2542 H   0  0  0  0  0  0  0  0  0  0  0  0
  146.9905  136.2270  151.5999 H   0  0  0  0  0  0  0  0  0  0  0  0
  145.7550  136.6846  150.4526 H   0  0  0  0  0  0  0  0  0  0  0  0
  145.3327  136.1318  153.4332 H   0  0  0  0  0  0  0  0  0  0  0  0
  144.4870  138.6774  152.4024 H   0  0  0  0  0  0  0  0  0  0  0  0
  145.3588  140.3828  152.8766 H   0  0  0  0  0  0  0  0  0  0  0  0
  146.0617  142.9033  153.5490 H   0  0  0  0  0  0  0  0  0  0  0  0
  149.0824  139.8529  154.1715 H   0  0  0  0  0  0  0  0  0  0  0  0
  142.9641  136.6445  153.0380 H   0  0  0  0  0  0  0  0  0  0  0  0
  143.2612  136.9349  151.3402 H   0  0  0  0  0  0  0  0  0  0  0  0
  142.3283  134.6844  151.6663 H   0  0  0  0  0  0  0  0  0  0  0  0
  143.6083  134.2527  152.7835 H   0  0  0  0  0  0  0  0  0  0  0  0
  1  2  1  0  0  0  0
  1 21  1  0  0  0  0
  1 22  1  0  0  0  0
  2  3  2  0  0  0  0
  2  4  1  0  0  0  0
  4  5  1  0  0  0  0
  4 23  1  0  0  0  0
  4 24  1  0  0  0  0
  5 19  1  0  0  0  0
  5  6  1  0  0  0  0
  6  7  1  0  0  0  0
  6 25  1  0  0  0  0
  6 26  1  0  0  0  0
  7  8  1  0  0  0  0
  7 27  1  0  0  0  0
  7 28  1  0  0  0  0
  8  9  1  0  0  0  0
  8 18  1  0  0  0  0
  8 29  1  0  0  0  0
  9 10  1  0  0  0  0
  9 30  1  0  0  0  0
 10 11  2  0  0  0  0
 10 12  1  0  0  0  0
 12 13  1  0  0  0  0
 12 31  1  0  0  0  0
 13 17  2  0  0  0  0
 13 14  1  0  0  0  0
 14 15  2  0  0  0  0
 14 32  1  0  0  0  0
 15 16  1  0  0  0  0
 16 20  1  0  0  0  0
 16 17  1  0  0  0  0
 17 33  1  0  0  0  0
 18 19  1  0  0  0  0
 18 34  1  0  0  0  0
 18 35  1  0  0  0  0
 19 36  1  0  0  0  0
 19 37  1  0  0  0  0
M  END
> <s_m_source_file>
AV-unprocessed.smi

> <i_m_source_file_index>
1399

> <i_lp_mmshare_version>
43012

> <i_f3d_flags>
0

> <s_epik_input>
W05IMl1DKD1PKVtDSDJdTjFbQ0gyXVtDSDJdW0NIXShbQ0gyXVtDSDJdMSlbTkhdQyg9TylbTkhdYzJbY0hdbltuSF1bY0hdMg==

> <s_epik_cmdline>
J2VwaWtfcHl0aG9uJywgJy1waCcsICc3LjAnLCAnLXRuJywgJzgnLCAnLW1hJywgJzIwMCcsICctbWV0YWxfYmluZGluZycsICctaW1hZScsICc8aW5maWxlLm1hZT4nLCAnLW9tYWUnLCAnPG91dGZpbGUubWFlPic=

> <r_lp_tautomer_probability>
0.5

> <r_epik_Ionization_Penalty>
0.164786

> <r_epik_Ionization_Penalty_Charging>
0

> <r_epik_Ionization_Penalty_Neutral>
0.164786

> <r_epik_State_Penalty>
0.154069

> <r_epik_Charging_Adjusted_Penalty>
0.154069

> <i_epik_Tot_Q>
0

> <i_epik_Tot_abs_Q>
0

> <r_epik_Metal_State_Penalty>
0.171367

> <b_epik_Metal_Only>
0

> <s_lp_Force_Field>
OPLS_2005

> <r_lp_Energy>
13.9175

> <b_lp_Chiralities_Consistent>
1

> <s_lp_Variant>
AV-unprocessed.smi:1399-1

> <Gold.Version>
5.8.1

> <Gold.Id.Protein>
6NUR|6NUR_protein|mol2

> <Gold.PLP.Fitness>
43.3956

> <Gold.PLP.PLP>
-30.2609

> <Gold.PLP.part.hbond>
-9.3123

> <Gold.PLP.part.metal>
0.0000

> <Gold.PLP.part.buried>
-5.8753

> <Gold.PLP.part.nonpolar>
-23.6436

> <Gold.PLP.part.repulsive>
8.6540

> <Gold.PLP.ligand.clash>
0.0000

> <Gold.PLP.ligand.torsion>
0.8295

> <Gold.PLP.Chemscore.Hbond>
4.9280

> <Gold.PLP.Chemscore.CHOScore>
0.0000

> <Gold.PLP.Chemscore.Metal>
0.0000

> <Gold.Chemscore.Hbonds>
donor molecule, donor type, donor heavy atom, donor atom, acceptor molecule, acceptor atom, score
      L1  H     1    21       P1 10195  0.98
      L1  H     1    22       P1 10186  1.00
      L1  H     9    30       P1 10175  0.98
      L1  H    12    31       P1 10175  1.00
      P1  H  8022  8030       L1    15  0.96

> <Gold.PLP.Chemscore.Internal.Correction>
0.0097

> <Gold.Rescore>
     Score         DG    S(hbond)    S(metal)    S(lipo)     H(rot)  DE(clash)    DE(int)     intcor
     16.99     -21.46       4.47        0.00      54.13       2.06       2.60       1.87       ----

> <Gold.Chemscore.Fitness>
16.9915

> <Gold.Chemscore.DG>
-21.4553

> <Gold.Chemscore.ZeroCoef>
-5.4800

> <Gold.Chemscore.Hbond>
4.4672

> <Gold.Chemscore.Metal>
0.0000

> <Gold.Chemscore.Lipo>
54.1337

> <Gold.Chemscore.Internal_Hbond>
0.0000

> <Gold.Chemscore.DEClash>
2.5964

> <Gold.Chemscore.DEInternal>
1.8674

> <Gold.Chemscore.Rot>
2.0620

> <Gold.Chemscore.Internal.Correction>
   9.000000E+99

> <Gold.Chemscore.Hbonds>
donor molecule, donor type, donor heavy atom, donor atom, acceptor molecule, acceptor atom, score
      L1  H     1    21       P1 10195  0.92
      L1  H     1    22       P1 10186  0.94
      L1  H     9    30       P1 10175  0.91
      L1  H    12    31       P1 10175  0.90
      P1  H  8022  8030       L1    15  0.89

> <Gold.Chemscore.Hbond.Weighted>
-14.9205

> <Gold.Chemscore.Metal.Weighted>
-0.0000

> <Gold.Chemscore.Lipo.Weighted>
-6.3336

> <Gold.Chemscore.Internal_Hbond.Weighted>
0.0000

> <Gold.Chemscore.DEClash.Weighted>
2.5964

> <Gold.Chemscore.DEInternal.Weighted>
1.8674

> <Gold.Chemscore.Rot.Weighted>
5.2788

> <Gold.Chemscore.Internal.Correction.Weighted>
   9.000000E+99

> <Gold.Protein.RotatedTorsions>
[ 6907 6896 6895 6894 ] final  120.58 input  -60.11 | X-H torsion
[ 7974 7965 7964 7962 ] final  -51.57 input  175.53 | X-H torsion
[ 8008 7997 7996 7995 ] final -143.22 input   59.86 | X-H torsion
[ 10167 10162 10161 10158 ] final   -1.16 input  -65.29 | X-H torsion
[ 10718 10713 10712 10709 ] final   65.40 input   66.30 | X-H torsion
[ 10763 10752 10751 10750 ] final -140.77 input  -60.55 | X-H torsion
[ 11005 11000 10999 10996 ] final  -64.63 input  -57.11 | X-H torsion

> <Gold.Protein.ActiveResidues>
 VAL166  LYS551  ARG553  GLY616  TRP617  ASP618  TYR619  PRO620  LYS621  CYS622 
 ASP623  PHE694  ASN695  SER759  ASP760  ASP761  ALA762  ILE779  LEU786  VAL792 
 PHE793  MET794  SER795  GLU796  ALA797  LYS798  CYS799  TRP800  GLU811  SER814 

> <Gold.Protein.RotatedAtoms>
  152.4387  133.7408  159.6639 H   0  0  0  0  0  0  0  0  0  0  0  0  # atno 6907 bound_to 6896
  150.8274  133.8138  159.3119 H   0  0  0  0  0  0  0  0  0  0  0  0  # atno 6908 bound_to 6896
  151.5802  135.1061  160.0067 H   0  0  0  0  0  0  0  0  0  0  0  0  # atno 6909 bound_to 6896
  145.9175  140.7862  142.9664 H   0  0  0  0  0  0  0  0  0  0  0  0  # atno 7974 bound_to 7965
  155.5070  140.0580  157.2930 H   0  0  0  0  0  0  0  0  0  0  0  0  # atno 8008 bound_to 7997
  154.4566  140.1976  156.0312 H   0  0  0  0  0  0  0  0  0  0  0  0  # atno 8009 bound_to 7997
  156.0810  140.3247  155.7698 H   0  0  0  0  0  0  0  0  0  0  0  0  # atno 8010 bound_to 7997
  140.6798  143.6809  150.8107 H   0  0  0  0  0  0  0  0  0  0  0  0  # atno 10167 bound_to 10162
  157.6103  130.9212  149.9972 H   0  0  0  0  0  0  0  0  0  0  0  0  # atno 10718 bound_to 10713
  154.8568  135.3543  154.5761 H   0  0  0  0  0  0  0  0  0  0  0  0  # atno 10763 bound_to 10752
  153.6373  135.7000  153.5259 H   0  0  0  0  0  0  0  0  0  0  0  0  # atno 10764 bound_to 10752
  153.3000  135.4209  155.1203 H   0  0  0  0  0  0  0  0  0  0  0  0  # atno 10765 bound_to 10752
  141.1430  133.6669  156.5863 H   0  0  0  0  0  0  0  0  0  0  0  0  # atno 11005 bound_to 11000
  144.6749  140.1923  143.7395 LP  0  0  0  0  0  0  0  0  0  0  0  0  # atno 17320 bound_to 7965
  145.8592  139.2214  143.1726 LP  0  0  0  0  0  0  0  0  0  0  0  0  # atno 17321 bound_to 7965
  140.0507  143.5252  152.2675 LP  0  0  0  0  0  0  0  0  0  0  0  0  # atno 17342 bound_to 10162
  139.6113  144.7609  151.2945 LP  0  0  0  0  0  0  0  0  0  0  0  0  # atno 17343 bound_to 10162
  156.1203  130.3646  149.9898 LP  0  0  0  0  0  0  0  0  0  0  0  0  # atno 17370 bound_to 10713
  156.7979  130.9280  151.3646 LP  0  0  0  0  0  0  0  0  0  0  0  0  # atno 17371 bound_to 10713
  140.3798  134.7533  157.4654 LP  0  0  0  0  0  0  0  0  0  0  0  0  # atno 17394 bound_to 11000
  140.0646  134.5947  155.8709 LP  0  0  0  0  0  0  0  0  0  0  0  0  # atno 17395 bound_to 11000

$$$$
