AV-unprocessed.smi:2908|AV-procd|sdf|11167|dock2
  -GOLD-   2272016 53D 1   1.00000     0.00000
 Structure written by MMmdl.
 43 44  0  0  0  0  0  0  0  0  1 V2000
  150.9919  140.0347  155.0524 O   0  0  0  0  0  0  0  0  0  0  0  0
  151.5771  139.3518  155.8943 C   0  0  0  0  0  0  0  0  0  0  0  0
  151.9683  139.8597  157.0743 N   0  0  0  0  0  0  0  0  0  0  0  0
  151.7343  141.2326  157.5003 C   0  0  0  0  0  0  0  0  0  0  0  0
  152.3513  141.4871  158.8826 C   0  0  0  0  0  0  0  0  0  0  0  0
  152.2055  142.9336  159.3171 C   0  0  0  0  0  0  0  0  0  0  0  0
  152.2225  143.9773  158.3673 C   0  0  0  0  0  0  0  0  0  0  0  0
  152.0699  145.3011  158.8229 C   0  0  0  0  0  0  0  0  0  0  0  0
  151.9066  145.5293  160.2028 C   0  0  0  0  0  0  0  0  0  0  0  0
  151.9040  144.4187  161.0697 C   0  0  0  0  0  0  0  0  0  0  0  0
  152.0500  143.1455  160.6436 N   0  0  0  0  0  0  0  0  0  0  0  0
  151.9060  138.0498  155.6981 N   0  0  0  0  0  0  0  0  0  0  0  0
  152.4129  137.1145  156.7142 C   0  0  0  0  0  0  0  0  0  0  0  0
  151.2836  136.1413  157.0946 C   0  0  0  0  0  0  0  0  0  0  0  0
  150.7410  135.3725  155.8618 C   0  0  0  0  0  0  0  0  0  0  0  0
  149.5434  134.4609  156.2459 C   0  0  2  0  0  0  0  0  0  0  0  0
  149.8335  133.8388  157.4846 O   0  0  0  0  0  0  0  0  0  0  0  0
  149.1992  133.3411  155.2360 C   0  0  0  0  0  0  0  0  0  0  0  0
  148.1087  132.6888  155.6421 F   0  0  0  0  0  0  0  0  0  0  0  0
  148.9215  133.8556  154.0385 F   0  0  0  0  0  0  0  0  0  0  0  0
  150.2086  132.4787  155.1138 F   0  0  0  0  0  0  0  0  0  0  0  0
  150.4151  136.3691  154.7216 C   0  0  0  0  0  0  0  0  0  0  0  0
  151.5781  137.3427  154.4561 C   0  0  0  0  0  0  0  0  0  0  0  0
  152.4536  139.2521  157.7181 H   0  0  0  0  0  0  0  0  0  0  0  0
  152.1638  141.9187  156.7684 H   0  0  0  0  0  0  0  0  0  0  0  0
  150.6597  141.4207  157.5281 H   0  0  0  0  0  0  0  0  0  0  0  0
  151.8797  140.8451  159.6280 H   0  0  0  0  0  0  0  0  0  0  0  0
  153.4091  141.2208  158.8732 H   0  0  0  0  0  0  0  0  0  0  0  0
  152.3461  143.7706  157.3144 H   0  0  0  0  0  0  0  0  0  0  0  0
  152.0766  146.1262  158.1260 H   0  0  0  0  0  0  0  0  0  0  0  0
  151.7858  146.5312  160.5875 H   0  0  0  0  0  0  0  0  0  0  0  0
  151.7805  144.5564  162.1337 H   0  0  0  0  0  0  0  0  0  0  0  0
  153.2580  136.5607  156.3028 H   0  0  0  0  0  0  0  0  0  0  0  0
  152.7978  137.6001  157.6108 H   0  0  0  0  0  0  0  0  0  0  0  0
  151.6553  135.4431  157.8451 H   0  0  0  0  0  0  0  0  0  0  0  0
  150.4737  136.6982  157.5682 H   0  0  0  0  0  0  0  0  0  0  0  0
  151.5460  134.7303  155.5011 H   0  0  0  0  0  0  0  0  0  0  0  0
  148.6556  135.0770  156.3944 H   0  0  0  0  0  0  0  0  0  0  0  0
  149.0727  133.3494  157.7583 H   0  0  0  0  0  0  0  0  0  0  0  0
  150.2048  135.8317  153.7976 H   0  0  0  0  0  0  0  0  0  0  0  0
  149.5162  136.9354  154.9691 H   0  0  0  0  0  0  0  0  0  0  0  0
  151.3170  138.0210  153.6424 H   0  0  0  0  0  0  0  0  0  0  0  0
  152.4547  136.7938  154.1092 H   0  0  0  0  0  0  0  0  0  0  0  0
  1  2  2  0  0  0  0
  2  3  1  0  0  0  0
  2 12  1  0  0  0  0
  3  4  1  0  0  0  0
  3 24  1  0  0  0  0
  4  5  1  0  0  0  0
  4 25  1  0  0  0  0
  4 26  1  0  0  0  0
  5  6  1  0  0  0  0
  5 27  1  0  0  0  0
  5 28  1  0  0  0  0
  6 11  1  0  0  0  0
  6  7  2  0  0  0  0
  7  8  1  0  0  0  0
  7 29  1  0  0  0  0
  8  9  2  0  0  0  0
  8 30  1  0  0  0  0
  9 10  1  0  0  0  0
  9 31  1  0  0  0  0
 10 11  2  0  0  0  0
 10 32  1  0  0  0  0
 12 23  1  0  0  0  0
 12 13  1  0  0  0  0
 13 14  1  0  0  0  0
 13 33  1  0  0  0  0
 13 34  1  0  0  0  0
 14 15  1  0  0  0  0
 14 35  1  0  0  0  0
 14 36  1  0  0  0  0
 15 16  1  0  0  0  0
 15 22  1  0  0  0  0
 15 37  1  0  0  0  0
 16 17  1  0  0  0  0
 16 18  1  0  0  0  0
 16 38  1  0  0  0  0
 17 39  1  0  0  0  0
 18 19  1  0  0  0  0
 18 20  1  0  0  0  0
 18 21  1  0  0  0  0
 22 23  1  0  0  0  0
 22 40  1  0  0  0  0
 22 41  1  0  0  0  0
 23 42  1  0  0  0  0
 23 43  1  0  0  0  0
M  END
> <s_m_source_file>
AV-unprocessed.smi

> <i_m_source_file_index>
2908

> <i_lp_mmshare_version>
43012

> <i_f3d_flags>
0

> <s_epik_input>
RkMoRikoRilbQ0BASF0oW09IXSlbQ0hdKFtDSDJdW0NIMl0xKVtDSDJdW0NIMl1OMUMoPU8pW05IXVtDSDJdW0NIMl1jMltjSF1bY0hdW2NIXVtjSF1uMg==

> <s_epik_cmdline>
J2VwaWtfcHl0aG9uJywgJy1waCcsICc3LjAnLCAnLXRuJywgJzgnLCAnLW1hJywgJzIwMCcsICctbWV0YWxfYmluZGluZycsICctaW1hZScsICc8aW5maWxlLm1hZT4nLCAnLW9tYWUnLCAnPG91dGZpbGUubWFlPic=

> <r_epik_Ionization_Penalty>
0.0451198

> <r_epik_Ionization_Penalty_Charging>
0

> <r_epik_Ionization_Penalty_Neutral>
0.0451198

> <r_epik_State_Penalty>
0.0381178

> <r_epik_Charging_Adjusted_Penalty>
0.0381178

> <i_epik_Tot_Q>
0

> <i_epik_Tot_abs_Q>
0

> <r_epik_Metal_State_Penalty>
0.0354176

> <b_epik_Metal_Only>
0

> <s_lp_Force_Field>
OPLS_2005

> <r_lp_Energy>
35.4637

> <b_lp_Chiralities_Consistent>
1

> <s_lp_Variant>
AV-unprocessed.smi:2908-1

> <Gold.Version>
5.8.1

> <Gold.Id.Protein>
6NUR|6NUR_protein|mol2

> <Gold.PLP.Fitness>
49.0197

> <Gold.PLP.PLP>
-44.2525

> <Gold.PLP.part.hbond>
-2.0000

> <Gold.PLP.part.metal>
0.0000

> <Gold.PLP.part.buried>
-4.1338

> <Gold.PLP.part.nonpolar>
-39.3712

> <Gold.PLP.part.repulsive>
0.2139

> <Gold.PLP.ligand.clash>
0.0442

> <Gold.PLP.ligand.torsion>
0.6605

> <Gold.PLP.Chemscore.Hbond>
1.9000

> <Gold.PLP.Chemscore.CHOScore>
0.0000

> <Gold.PLP.Chemscore.Metal>
0.0000

> <Gold.Chemscore.Hbonds>
donor molecule, donor type, donor heavy atom, donor atom, acceptor molecule, acceptor atom, score
      P1  H  6896  6907       L1    17  0.85
      P1  H  7989  7998       L1     1  1.00

> <Gold.PLP.Chemscore.Internal.Correction>
0.4325

> <Gold.Rescore>
     Score         DG    S(hbond)    S(metal)    S(lipo)     H(rot)  DE(clash)    DE(int)     intcor
     16.47     -18.61       1.83        0.00     110.53       2.30       1.19       0.95       ----

> <Gold.Chemscore.Fitness>
16.4719

> <Gold.Chemscore.DG>
-18.6082

> <Gold.Chemscore.ZeroCoef>
-5.4800

> <Gold.Chemscore.Hbond>
1.8253

> <Gold.Chemscore.Metal>
0.0000

> <Gold.Chemscore.Lipo>
110.5299

> <Gold.Chemscore.Internal_Hbond>
0.0000

> <Gold.Chemscore.DEClash>
1.1868

> <Gold.Chemscore.DEInternal>
0.9495

> <Gold.Chemscore.Rot>
2.3048

> <Gold.Chemscore.Internal.Correction>
   9.000000E+99

> <Gold.Chemscore.Hbonds>
donor molecule, donor type, donor heavy atom, donor atom, acceptor molecule, acceptor atom, score
      P1  H  6896  6907       L1    17  0.13
      P1  H  7989  7998       L1     1  1.00

> <Gold.Chemscore.Hbond.Weighted>
-6.0966

> <Gold.Chemscore.Metal.Weighted>
-0.0000

> <Gold.Chemscore.Lipo.Weighted>
-12.9320

> <Gold.Chemscore.Internal_Hbond.Weighted>
0.0000

> <Gold.Chemscore.DEClash.Weighted>
1.1868

> <Gold.Chemscore.DEInternal.Weighted>
0.9495

> <Gold.Chemscore.Rot.Weighted>
5.9004

> <Gold.Chemscore.Internal.Correction.Weighted>
   9.000000E+99

> <Gold.Protein.RotatedTorsions>
[ 6907 6896 6895 6894 ] final -126.29 input  -60.11 | X-H torsion
[ 7974 7965 7964 7962 ] final  -21.51 input  175.53 | X-H torsion
[ 8008 7997 7996 7995 ] final  -96.29 input   59.86 | X-H torsion
[ 10167 10162 10161 10158 ] final   73.77 input  -65.29 | X-H torsion
[ 10718 10713 10712 10709 ] final  -88.44 input   66.30 | X-H torsion
[ 10763 10752 10751 10750 ] final  136.48 input  -60.55 | X-H torsion
[ 11005 11000 10999 10996 ] final  160.37 input  -57.11 | X-H torsion

> <Gold.Protein.ActiveResidues>
 VAL166  LYS551  ARG553  GLY616  TRP617  ASP618  TYR619  PRO620  LYS621  CYS622 
 ASP623  PHE694  ASN695  SER759  ASP760  ASP761  ALA762  ILE779  LEU786  VAL792 
 PHE793  MET794  SER795  GLU796  ALA797  LYS798  CYS799  TRP800  GLU811  SER814 

> <Gold.Protein.RotatedAtoms>
  150.8954  133.7188  159.2893 H   0  0  0  0  0  0  0  0  0  0  0  0  # atno 6907 bound_to 6896
  151.4724  135.1045  159.9765 H   0  0  0  0  0  0  0  0  0  0  0  0  # atno 6908 bound_to 6896
  152.4845  133.8290  159.7149 H   0  0  0  0  0  0  0  0  0  0  0  0  # atno 6909 bound_to 6896
  146.1729  140.4351  142.8525 H   0  0  0  0  0  0  0  0  0  0  0  0  # atno 7974 bound_to 7965
  154.7726  140.0472  157.1063 H   0  0  0  0  0  0  0  0  0  0  0  0  # atno 8008 bound_to 7997
  154.9802  140.3100  155.4930 H   0  0  0  0  0  0  0  0  0  0  0  0  # atno 8009 bound_to 7997
  156.2923  140.2237  156.4901 H   0  0  0  0  0  0  0  0  0  0  0  0  # atno 8010 bound_to 7997
  140.0209  144.5541  150.7582 H   0  0  0  0  0  0  0  0  0  0  0  0  # atno 10167 bound_to 10162
  155.9983  130.4836  150.5019 H   0  0  0  0  0  0  0  0  0  0  0  0  # atno 10718 bound_to 10713
  153.8572  135.3072  155.3436 H   0  0  0  0  0  0  0  0  0  0  0  0  # atno 10763 bound_to 10752
  154.7865  135.4807  153.9960 H   0  0  0  0  0  0  0  0  0  0  0  0  # atno 10764 bound_to 10752
  153.1483  135.6838  153.9015 H   0  0  0  0  0  0  0  0  0  0  0  0  # atno 10765 bound_to 10752
  140.2053  134.8308  157.3062 H   0  0  0  0  0  0  0  0  0  0  0  0  # atno 11005 bound_to 11000
  144.8190  140.6517  143.6365 LP  0  0  0  0  0  0  0  0  0  0  0  0  # atno 17320 bound_to 7965
  145.4292  139.1551  143.4031 LP  0  0  0  0  0  0  0  0  0  0  0  0  # atno 17321 bound_to 7965
  140.7343  143.2727  151.3838 LP  0  0  0  0  0  0  0  0  0  0  0  0  # atno 17342 bound_to 10162
  139.6140  144.1040  152.2327 LP  0  0  0  0  0  0  0  0  0  0  0  0  # atno 17343 bound_to 10162
  157.3003  131.0644  151.2073 LP  0  0  0  0  0  0  0  0  0  0  0  0  # atno 17370 bound_to 10713
  157.3055  130.6864  149.6187 LP  0  0  0  0  0  0  0  0  0  0  0  0  # atno 17371 bound_to 10713
  140.2010  134.4255  155.7663 LP  0  0  0  0  0  0  0  0  0  0  0  0  # atno 17394 bound_to 11000
  141.2227  133.7072  156.8183 LP  0  0  0  0  0  0  0  0  0  0  0  0  # atno 17395 bound_to 11000

$$$$
