AV-unprocessed.smi:345|AV-procd|sdf|2391|dock8
  -GOLD-   2262022323D 1   1.00000     0.00000
 Structure written by MMmdl.
 34 36  0  0  0  0  0  0  0  0  1 V2000
  155.3850  135.5154  163.4400 C   0  0  0  0  0  0  0  0  0  0  0  0
  154.5810  136.1262  162.3439 C   0  0  0  0  0  0  0  0  0  0  0  0
  153.9107  137.3118  162.2304 C   0  0  0  0  0  0  0  0  0  0  0  0
  153.3746  137.2517  160.9166 C   0  0  0  0  0  0  0  0  0  0  0  0
  152.6017  138.3211  160.3968 N   0  0  0  0  0  0  0  0  0  0  0  0
  152.9756  139.2345  159.4846 C   0  0  0  0  0  0  0  0  0  0  0  0
  154.0701  139.2657  158.9214 O   0  0  0  0  0  0  0  0  0  0  0  0
  151.9970  140.1238  159.2588 N   0  0  0  0  0  0  0  0  0  0  0  0
  152.0736  141.2611  158.3475 C   0  0  0  0  0  0  0  0  0  0  0  0
  152.1488  142.5916  159.0803 C   0  0  0  0  0  0  0  0  0  0  0  0
  152.8599  143.7812  158.4787 C   0  0  0  0  0  0  0  0  0  0  0  0
  153.4393  143.0876  159.6896 C   0  0  0  0  0  0  0  0  0  0  0  0
  150.9123  141.2671  157.3695 C   0  0  0  0  0  0  0  0  0  0  0  0
  151.0655  140.7172  155.9716 C   0  0  0  0  0  0  0  0  0  0  0  0
  150.8832  142.2031  156.1841 C   0  0  0  0  0  0  0  0  0  0  0  0
  153.6836  136.1284  160.2874 N   0  0  0  0  0  0  0  0  0  0  0  0
  154.4586  135.4014  161.1988 O   0  0  0  0  0  0  0  0  0  0  0  0
  155.3601  136.1372  164.3351 H   0  0  0  0  0  0  0  0  0  0  0  0
  156.4260  135.4020  163.1372 H   0  0  0  0  0  0  0  0  0  0  0  0
  154.9988  134.5299  163.7009 H   0  0  0  0  0  0  0  0  0  0  0  0
  153.8237  138.0954  162.9684 H   0  0  0  0  0  0  0  0  0  0  0  0
  151.6698  138.4111  160.7733 H   0  0  0  0  0  0  0  0  0  0  0  0
  151.1307  140.0119  159.7648 H   0  0  0  0  0  0  0  0  0  0  0  0
  152.9855  141.1585  157.7552 H   0  0  0  0  0  0  0  0  0  0  0  0
  151.2450  142.8257  159.6402 H   0  0  0  0  0  0  0  0  0  0  0  0
  153.3779  143.6431  157.5321 H   0  0  0  0  0  0  0  0  0  0  0  0
  152.4111  144.7612  158.6261 H   0  0  0  0  0  0  0  0  0  0  0  0
  153.3758  143.6037  160.6452 H   0  0  0  0  0  0  0  0  0  0  0  0
  154.3376  142.4920  159.5406 H   0  0  0  0  0  0  0  0  0  0  0  0
  149.9491  141.0837  157.8427 H   0  0  0  0  0  0  0  0  0  0  0  0
  152.0514  140.3720  155.6664 H   0  0  0  0  0  0  0  0  0  0  0  0
  150.2273  140.1624  155.5552 H   0  0  0  0  0  0  0  0  0  0  0  0
  149.9233  142.6376  155.9129 H   0  0  0  0  0  0  0  0  0  0  0  0
  151.7485  142.8397  156.0118 H   0  0  0  0  0  0  0  0  0  0  0  0
  1  2  1  0  0  0  0
  1 18  1  0  0  0  0
  1 19  1  0  0  0  0
  1 20  1  0  0  0  0
  2 17  1  0  0  0  0
  2  3  2  0  0  0  0
  3  4  1  0  0  0  0
  3 21  1  0  0  0  0
  4  5  1  0  0  0  0
  4 16  2  0  0  0  0
  5  6  1  0  0  0  0
  5 22  1  0  0  0  0
  6  7  2  0  0  0  0
  6  8  1  0  0  0  0
  8  9  1  0  0  0  0
  8 23  1  0  0  0  0
  9 10  1  0  0  0  0
  9 13  1  0  0  0  0
  9 24  1  0  0  0  0
 10 12  1  0  0  0  0
 10 11  1  0  0  0  0
 10 25  1  0  0  0  0
 11 12  1  0  0  0  0
 11 26  1  0  0  0  0
 11 27  1  0  0  0  0
 12 28  1  0  0  0  0
 12 29  1  0  0  0  0
 13 15  1  0  0  0  0
 13 14  1  0  0  0  0
 13 30  1  0  0  0  0
 14 15  1  0  0  0  0
 14 31  1  0  0  0  0
 14 32  1  0  0  0  0
 15 33  1  0  0  0  0
 15 34  1  0  0  0  0
 16 17  1  0  0  0  0
M  END
> <s_m_source_file>
AV-unprocessed.smi

> <i_m_source_file_index>
345

> <i_lp_mmshare_version>
43012

> <i_f3d_flags>
0

> <s_epik_input>
W0NIM11jMVtjSF1jKG5vMSlbTkhdQyg9TylbTkhdW0NIXShbQ0hdMltDSDJdW0NIMl0yKVtDSF0zW0NIMl1bQ0gyXTM=

> <s_epik_cmdline>
J2VwaWtfcHl0aG9uJywgJy1waCcsICc3LjAnLCAnLXRuJywgJzgnLCAnLW1hJywgJzIwMCcsICctbWV0YWxfYmluZGluZycsICctaW1hZScsICc8aW5maWxlLm1hZT4nLCAnLW9tYWUnLCAnPG91dGZpbGUubWFlPic=

> <r_lp_tautomer_probability>
1

> <r_epik_Ionization_Penalty>
2.39082e-05

> <r_epik_Ionization_Penalty_Charging>
0

> <r_epik_Ionization_Penalty_Neutral>
2.39082e-05

> <r_epik_State_Penalty>
-0

> <r_epik_Charging_Adjusted_Penalty>
0

> <i_epik_Tot_Q>
0

> <i_epik_Tot_abs_Q>
0

> <r_epik_Metal_State_Penalty>
-0

> <b_epik_Metal_Only>
0

> <s_lp_Force_Field>
OPLS_2005

> <r_lp_Energy>
21.3823

> <b_lp_Chiralities_Consistent>
1

> <s_lp_Variant>
AV-unprocessed.smi:345-1

> <Gold.Version>
5.8.1

> <Gold.Id.Protein>
6NUR|6NUR_protein|mol2

> <Gold.PLP.Fitness>
34.7363

> <Gold.PLP.PLP>
-30.4482

> <Gold.PLP.part.hbond>
-2.0000

> <Gold.PLP.part.metal>
0.0000

> <Gold.PLP.part.buried>
-2.9470

> <Gold.PLP.part.nonpolar>
-24.6418

> <Gold.PLP.part.repulsive>
0.2479

> <Gold.PLP.ligand.clash>
0.0000

> <Gold.PLP.ligand.torsion>
1.9113

> <Gold.PLP.Chemscore.Hbond>
2.0000

> <Gold.PLP.Chemscore.CHOScore>
0.0000

> <Gold.PLP.Chemscore.Metal>
0.0000

> <Gold.Chemscore.Hbonds>
donor molecule, donor type, donor heavy atom, donor atom, acceptor molecule, acceptor atom, score
      P1  H  6896  6907       L1    16  0.90
      P1  H  7997  8009       L1     7  0.88

> <Gold.PLP.Chemscore.Internal.Correction>
2.1107

> <Gold.Rescore>
     Score         DG    S(hbond)    S(metal)    S(lipo)     H(rot)  DE(clash)    DE(int)     intcor
     15.10     -17.00       1.92        0.00      74.64       1.42       0.04       1.86       ----

> <Gold.Chemscore.Fitness>
15.1046

> <Gold.Chemscore.DG>
-17.0014

> <Gold.Chemscore.ZeroCoef>
-5.4800

> <Gold.Chemscore.Hbond>
1.9218

> <Gold.Chemscore.Metal>
0.0000

> <Gold.Chemscore.Lipo>
74.6435

> <Gold.Chemscore.Internal_Hbond>
0.0000

> <Gold.Chemscore.DEClash>
0.0361

> <Gold.Chemscore.DEInternal>
1.8607

> <Gold.Chemscore.Rot>
1.4183

> <Gold.Chemscore.Internal.Correction>
   9.000000E+99

> <Gold.Chemscore.Hbonds>
donor molecule, donor type, donor heavy atom, donor atom, acceptor molecule, acceptor atom, score
      P1  H  6896  6907       L1    16  0.17
      P1  H  7997  8009       L1     7  0.82

> <Gold.Chemscore.Hbond.Weighted>
-6.4189

> <Gold.Chemscore.Metal.Weighted>
-0.0000

> <Gold.Chemscore.Lipo.Weighted>
-8.7333

> <Gold.Chemscore.Internal_Hbond.Weighted>
0.0000

> <Gold.Chemscore.DEClash.Weighted>
0.0361

> <Gold.Chemscore.DEInternal.Weighted>
1.8607

> <Gold.Chemscore.Rot.Weighted>
3.6308

> <Gold.Chemscore.Internal.Correction.Weighted>
   9.000000E+99

> <Gold.Protein.RotatedTorsions>
[ 6907 6896 6895 6894 ] final   44.70 input  -60.11 | X-H torsion
[ 7974 7965 7964 7962 ] final  -37.41 input  175.53 | X-H torsion
[ 8008 7997 7996 7995 ] final  112.64 input   59.86 | X-H torsion
[ 10167 10162 10161 10158 ] final   84.53 input  -65.29 | X-H torsion
[ 10718 10713 10712 10709 ] final  173.48 input   66.30 | X-H torsion
[ 10763 10752 10751 10750 ] final  -66.47 input  -60.55 | X-H torsion
[ 11005 11000 10999 10996 ] final  162.90 input  -57.11 | X-H torsion

> <Gold.Protein.ActiveResidues>
 VAL166  LYS551  ARG553  GLY616  TRP617  ASP618  TYR619  PRO620  LYS621  CYS622 
 ASP623  PHE694  ASN695  SER759  ASP760  ASP761  ALA762  ILE779  LEU786  VAL792 
 PHE793  MET794  SER795  GLU796  ALA797  LYS798  CYS799  TRP800  GLU811  SER814 

> <Gold.Protein.RotatedAtoms>
  152.2356  134.8279  160.0467 H   0  0  0  0  0  0  0  0  0  0  0  0  # atno 6907 bound_to 6896
  151.9012  133.3533  159.3839 H   0  0  0  0  0  0  0  0  0  0  0  0  # atno 6908 bound_to 6896
  150.7038  134.4752  159.5488 H   0  0  0  0  0  0  0  0  0  0  0  0  # atno 6909 bound_to 6896
  146.0577  140.6392  142.9012 H   0  0  0  0  0  0  0  0  0  0  0  0  # atno 7974 bound_to 7965
  156.2206  140.2995  155.9942 H   0  0  0  0  0  0  0  0  0  0  0  0  # atno 8008 bound_to 7997
  155.2492  140.0425  157.3001 H   0  0  0  0  0  0  0  0  0  0  0  0  # atno 8009 bound_to 7997
  154.5834  140.2381  155.8029 H   0  0  0  0  0  0  0  0  0  0  0  0  # atno 8010 bound_to 7997
  139.9071  144.6295  150.8576 H   0  0  0  0  0  0  0  0  0  0  0  0  # atno 10167 bound_to 10162
  156.9636  131.0068  151.2921 H   0  0  0  0  0  0  0  0  0  0  0  0  # atno 10718 bound_to 10713
  154.3603  135.6117  153.5687 H   0  0  0  0  0  0  0  0  0  0  0  0  # atno 10763 bound_to 10752
  152.9794  135.5813  154.4641 H   0  0  0  0  0  0  0  0  0  0  0  0  # atno 10764 bound_to 10752
  154.4377  135.2849  155.1846 H   0  0  0  0  0  0  0  0  0  0  0  0  # atno 10765 bound_to 10752
  140.2304  134.8128  157.3311 H   0  0  0  0  0  0  0  0  0  0  0  0  # atno 11005 bound_to 11000
  144.7157  140.4202  143.7046 LP  0  0  0  0  0  0  0  0  0  0  0  0  # atno 17320 bound_to 7965
  145.6614  139.1582  143.2806 LP  0  0  0  0  0  0  0  0  0  0  0  0  # atno 17321 bound_to 7965
  140.7694  143.3393  151.2241 LP  0  0  0  0  0  0  0  0  0  0  0  0  # atno 17342 bound_to 10162
  139.6975  143.9588  152.2889 LP  0  0  0  0  0  0  0  0  0  0  0  0  # atno 17343 bound_to 10162
  157.5641  130.8265  149.8304 LP  0  0  0  0  0  0  0  0  0  0  0  0  # atno 17370 bound_to 10713
  156.0312  130.3764  150.1684 LP  0  0  0  0  0  0  0  0  0  0  0  0  # atno 17371 bound_to 10713
  140.1757  134.4553  155.7803 LP  0  0  0  0  0  0  0  0  0  0  0  0  # atno 17394 bound_to 11000
  141.2218  133.6961  156.7783 LP  0  0  0  0  0  0  0  0  0  0  0  0  # atno 17395 bound_to 11000

$$$$
