AV-unprocessed.smi:1291|AV-procd|sdf|5391|dock10
  -GOLD-   22720 4543D 1   1.00000     0.00000
 Structure written by MMmdl.
 43 45  0  0  0  0  0  0  0  0  1 V2000
  145.8294  128.8601  154.6950 O   0  0  0  0  0  0  0  0  0  0  0  0
  146.7487  129.3954  153.7683 C   0  0  0  0  0  0  0  0  0  0  0  0
  146.1505  130.4814  152.9279 C   0  0  0  0  0  0  0  0  0  0  0  0
  145.4106  130.2074  151.8528 N   0  0  0  0  0  0  0  0  0  0  0  0
  145.0944  131.4628  151.3721 C   0  0  0  0  0  0  0  0  0  0  0  0
  144.3326  131.8501  150.2464 C   0  0  0  0  0  0  0  0  0  0  0  0
  144.1466  133.2154  149.9460 C   0  0  0  0  0  0  0  0  0  0  0  0
  144.7186  134.2109  150.7644 C   0  0  0  0  0  0  0  0  0  0  0  0
  145.4803  133.8466  151.8913 C   0  0  0  0  0  0  0  0  0  0  0  0
  145.6614  132.4821  152.1882 C   0  0  0  0  0  0  0  0  0  0  0  0
  146.3352  131.7994  153.1962 N   0  0  0  0  0  0  0  0  0  0  0  0
  147.0821  132.4097  154.2867 C   0  0  0  0  0  0  0  0  0  0  0  0
  146.4711  132.0830  155.6691 C   0  0  2  0  0  0  0  0  0  0  0  0
  145.2393  132.7679  155.7828 O   0  0  0  0  0  0  0  0  0  0  0  0
  147.3797  132.5185  156.8301 C   0  0  0  0  0  0  0  0  0  0  0  0
  146.5893  132.7155  157.9940 O   0  0  0  0  0  0  0  0  0  0  0  0
  147.2484  132.3591  159.2016 C   0  0  0  0  0  0  0  0  0  0  0  0
  147.1830  133.4468  160.2624 C   0  0  0  0  0  0  0  0  0  0  0  0
  146.7325  133.1257  161.5603 C   0  0  0  0  0  0  0  0  0  0  0  0
  146.6691  134.1195  162.5563 C   0  0  0  0  0  0  0  0  0  0  0  0
  147.0596  135.4393  162.2596 C   0  0  0  0  0  0  0  0  0  0  0  0
  147.5159  135.7634  160.9676 C   0  0  0  0  0  0  0  0  0  0  0  0
  147.5800  134.7709  159.9697 C   0  0  0  0  0  0  0  0  0  0  0  0
  148.0191  135.1005  158.7312 F   0  0  0  0  0  0  0  0  0  0  0  0
  144.9561  129.0968  154.4234 H   0  0  0  0  0  0  0  0  0  0  0  0
  147.5995  129.7980  154.3195 H   0  0  0  0  0  0  0  0  0  0  0  0
  147.1396  128.5978  153.1377 H   0  0  0  0  0  0  0  0  0  0  0  0
  143.8920  131.0950  149.6122 H   0  0  0  0  0  0  0  0  0  0  0  0
  143.5631  133.5002  149.0828 H   0  0  0  0  0  0  0  0  0  0  0  0
  144.5725  135.2544  150.5264 H   0  0  0  0  0  0  0  0  0  0  0  0
  145.9203  134.6079  152.5179 H   0  0  0  0  0  0  0  0  0  0  0  0
  148.1121  132.0568  154.2274 H   0  0  0  0  0  0  0  0  0  0  0  0
  147.1502  133.4841  154.1147 H   0  0  0  0  0  0  0  0  0  0  0  0
  146.2771  131.0119  155.7477 H   0  0  0  0  0  0  0  0  0  0  0  0
  144.5619  132.2329  155.3987 H   0  0  0  0  0  0  0  0  0  0  0  0
  148.1004  131.7274  157.0434 H   0  0  0  0  0  0  0  0  0  0  0  0
  147.9485  133.4119  156.5674 H   0  0  0  0  0  0  0  0  0  0  0  0
  146.7558  131.4730  159.6022 H   0  0  0  0  0  0  0  0  0  0  0  0
  148.2778  132.0660  158.9919 H   0  0  0  0  0  0  0  0  0  0  0  0
  146.4312  132.1147  161.7928 H   0  0  0  0  0  0  0  0  0  0  0  0
  146.3208  133.8691  163.5475 H   0  0  0  0  0  0  0  0  0  0  0  0
  147.0101  136.2023  163.0224 H   0  0  0  0  0  0  0  0  0  0  0  0
  147.8171  136.7754  160.7406 H   0  0  0  0  0  0  0  0  0  0  0  0
  1  2  1  0  0  0  0
  1 25  1  0  0  0  0
  2  3  1  0  0  0  0
  2 26  1  0  0  0  0
  2 27  1  0  0  0  0
  3 11  1  0  0  0  0
  3  4  2  0  0  0  0
  4  5  1  0  0  0  0
  5 10  2  0  0  0  0
  5  6  1  0  0  0  0
  6  7  2  0  0  0  0
  6 28  1  0  0  0  0
  7  8  1  0  0  0  0
  7 29  1  0  0  0  0
  8  9  2  0  0  0  0
  8 30  1  0  0  0  0
  9 10  1  0  0  0  0
  9 31  1  0  0  0  0
 10 11  1  0  0  0  0
 11 12  1  0  0  0  0
 12 13  1  0  0  0  0
 12 32  1  0  0  0  0
 12 33  1  0  0  0  0
 13 14  1  0  0  0  0
 13 15  1  0  0  0  0
 13 34  1  0  0  0  0
 14 35  1  0  0  0  0
 15 16  1  0  0  0  0
 15 36  1  0  0  0  0
 15 37  1  0  0  0  0
 16 17  1  0  0  0  0
 17 18  1  0  0  0  0
 17 38  1  0  0  0  0
 17 39  1  0  0  0  0
 18 23  1  0  0  0  0
 18 19  2  0  0  0  0
 19 20  1  0  0  0  0
 19 40  1  0  0  0  0
 20 21  2  0  0  0  0
 20 41  1  0  0  0  0
 21 22  1  0  0  0  0
 21 42  1  0  0  0  0
 22 23  2  0  0  0  0
 22 43  1  0  0  0  0
 23 24  1  0  0  0  0
M  END
> <s_m_source_file>
AV-unprocessed.smi

> <i_m_source_file_index>
1291

> <i_lp_mmshare_version>
43012

> <i_f3d_flags>
0

> <s_epik_input>
W2NIXTFbY0hdW2NIXVtjSF1jKGMxMiluKGMobjIpW0NIMl1bT0hdKVtDSDJdW0NASF0oW09IXSlbQ0gyXU9bQ0gyXWMzW2NIXVtjSF1bY0hdW2NIXWMzRg==

> <s_epik_cmdline>
J2VwaWtfcHl0aG9uJywgJy1waCcsICc3LjAnLCAnLXRuJywgJzgnLCAnLW1hJywgJzIwMCcsICctbWV0YWxfYmluZGluZycsICctaW1hZScsICc8aW5maWxlLm1hZT4nLCAnLW9tYWUnLCAnPG91dGZpbGUubWFlPic=

> <r_epik_Ionization_Penalty>
0.0649918

> <r_epik_Ionization_Penalty_Charging>
0

> <r_epik_Ionization_Penalty_Neutral>
0.0649918

> <r_epik_State_Penalty>
0.0565791

> <r_epik_Charging_Adjusted_Penalty>
0.0565791

> <i_epik_Tot_Q>
0

> <i_epik_Tot_abs_Q>
0

> <r_epik_Metal_State_Penalty>
5.93658e-05

> <b_epik_Metal_Only>
0

> <s_lp_Force_Field>
OPLS_2005

> <r_lp_Energy>
20.1032

> <b_lp_Chiralities_Consistent>
1

> <s_lp_Variant>
AV-unprocessed.smi:1291-1

> <Gold.Version>
5.8.1

> <Gold.Id.Protein>
6NUR|6NUR_protein|mol2

> <Gold.PLP.Fitness>
42.3077

> <Gold.PLP.PLP>
-39.2172

> <Gold.PLP.part.hbond>
-2.0000

> <Gold.PLP.part.metal>
0.0000

> <Gold.PLP.part.buried>
-6.5309

> <Gold.PLP.part.nonpolar>
-31.9455

> <Gold.PLP.part.repulsive>
0.1555

> <Gold.PLP.ligand.clash>
0.0000

> <Gold.PLP.ligand.torsion>
1.2687

> <Gold.PLP.Chemscore.Hbond>
1.8450

> <Gold.PLP.Chemscore.CHOScore>
0.0000

> <Gold.PLP.Chemscore.Metal>
0.0000

> <Gold.Chemscore.Hbonds>
donor molecule, donor type, donor heavy atom, donor atom, acceptor molecule, acceptor atom, score
      L1  H     1    25       P1 10956  1.00
      L1  H    14    35       P1 10957  1.00

> <Gold.PLP.Chemscore.Internal.Correction>
0.0929

> <Gold.Rescore>
     Score         DG    S(hbond)    S(metal)    S(lipo)     H(rot)  DE(clash)    DE(int)     intcor
     12.00     -14.18       1.80        0.00      96.01       3.33       0.02       2.16       ----

> <Gold.Chemscore.Fitness>
12.0045

> <Gold.Chemscore.DG>
-14.1801

> <Gold.Chemscore.ZeroCoef>
-5.4800

> <Gold.Chemscore.Hbond>
1.7951

> <Gold.Chemscore.Metal>
0.0000

> <Gold.Chemscore.Lipo>
96.0095

> <Gold.Chemscore.Internal_Hbond>
0.0000

> <Gold.Chemscore.DEClash>
0.0202

> <Gold.Chemscore.DEInternal>
2.1554

> <Gold.Chemscore.Rot>
3.3316

> <Gold.Chemscore.Internal.Correction>
   9.000000E+99

> <Gold.Chemscore.Hbonds>
donor molecule, donor type, donor heavy atom, donor atom, acceptor molecule, acceptor atom, score
      L1  H     1    25       P1 10956  0.96
      L1  H    14    35       P1 10957  0.80

> <Gold.Chemscore.Hbond.Weighted>
-5.9958

> <Gold.Chemscore.Metal.Weighted>
-0.0000

> <Gold.Chemscore.Lipo.Weighted>
-11.2331

> <Gold.Chemscore.Internal_Hbond.Weighted>
0.0000

> <Gold.Chemscore.DEClash.Weighted>
0.0202

> <Gold.Chemscore.DEInternal.Weighted>
2.1554

> <Gold.Chemscore.Rot.Weighted>
8.5288

> <Gold.Chemscore.Internal.Correction.Weighted>
   9.000000E+99

> <Gold.Protein.RotatedTorsions>
[ 6907 6896 6895 6894 ] final  -87.42 input  -60.11 | X-H torsion
[ 7974 7965 7964 7962 ] final -122.62 input  175.53 | X-H torsion
[ 8008 7997 7996 7995 ] final  -48.48 input   59.86 | X-H torsion
[ 10167 10162 10161 10158 ] final  -30.23 input  -65.29 | X-H torsion
[ 10718 10713 10712 10709 ] final -166.05 input   66.30 | X-H torsion
[ 10763 10752 10751 10750 ] final  143.54 input  -60.55 | X-H torsion
[ 11005 11000 10999 10996 ] final  -80.29 input  -57.11 | X-H torsion

> <Gold.Protein.ActiveResidues>
 VAL166  LYS551  ARG553  GLY616  TRP617  ASP618  TYR619  PRO620  LYS621  CYS622 
 ASP623  PHE694  ASN695  SER759  ASP760  ASP761  ALA762  ILE779  LEU786  VAL792 
 PHE793  MET794  SER795  GLU796  ALA797  LYS798  CYS799  TRP800  GLU811  SER814 

> <Gold.Protein.RotatedAtoms>
  150.6866  134.2899  159.4661 H   0  0  0  0  0  0  0  0  0  0  0  0  # atno 6907 bound_to 6896
  152.0805  134.9472  160.0583 H   0  0  0  0  0  0  0  0  0  0  0  0  # atno 6908 bound_to 6896
  152.0826  133.4126  159.4545 H   0  0  0  0  0  0  0  0  0  0  0  0  # atno 6909 bound_to 6896
  145.0275  140.8040  143.4344 H   0  0  0  0  0  0  0  0  0  0  0  0  # atno 7974 bound_to 7965
  154.4029  140.1320  156.4346 H   0  0  0  0  0  0  0  0  0  0  0  0  # atno 8008 bound_to 7997
  155.7517  140.3488  155.5134 H   0  0  0  0  0  0  0  0  0  0  0  0  # atno 8009 bound_to 7997
  155.8943  140.1008  157.1386 H   0  0  0  0  0  0  0  0  0  0  0  0  # atno 8010 bound_to 7997
  140.7252  143.3865  151.1506 H   0  0  0  0  0  0  0  0  0  0  0  0  # atno 10167 bound_to 10162
  156.6623  130.9051  151.3031 H   0  0  0  0  0  0  0  0  0  0  0  0  # atno 10718 bound_to 10713
  153.9740  135.2948  155.3425 H   0  0  0  0  0  0  0  0  0  0  0  0  # atno 10763 bound_to 10752
  154.7306  135.5069  153.8961 H   0  0  0  0  0  0  0  0  0  0  0  0  # atno 10764 bound_to 10752
  153.0886  135.6701  154.0012 H   0  0  0  0  0  0  0  0  0  0  0  0  # atno 10765 bound_to 10752
  141.1668  133.7144  156.8251 H   0  0  0  0  0  0  0  0  0  0  0  0  # atno 11005 bound_to 11000
  145.1814  139.2349  143.5290 LP  0  0  0  0  0  0  0  0  0  0  0  0  # atno 17320 bound_to 7965
  146.3494  140.1589  142.8591 LP  0  0  0  0  0  0  0  0  0  0  0  0  # atno 17321 bound_to 7965
  139.7463  143.8847  152.3064 LP  0  0  0  0  0  0  0  0  0  0  0  0  # atno 17342 bound_to 10162
  139.8685  144.7080  150.9015 LP  0  0  0  0  0  0  0  0  0  0  0  0  # atno 17343 bound_to 10162
  157.7105  130.9435  150.1074 LP  0  0  0  0  0  0  0  0  0  0  0  0  # atno 17370 bound_to 10713
  156.2001  130.3660  149.8799 LP  0  0  0  0  0  0  0  0  0  0  0  0  # atno 17371 bound_to 10713
  140.2091  134.8840  157.3255 LP  0  0  0  0  0  0  0  0  0  0  0  0  # atno 17394 bound_to 11000
  140.2105  134.4144  155.7615 LP  0  0  0  0  0  0  0  0  0  0  0  0  # atno 17395 bound_to 11000

$$$$
