AV-unprocessed.smi:765|AV-procd|sdf|3647|dock3
  -GOLD-   22720 1 53D 1   1.00000     0.00000
 Structure written by MMmdl.
 39 40  0  0  0  0  0  0  0  0  1 V2000
  147.7105  141.2402  156.3044 C   0  0  0  0  0  0  0  0  0  0  0  0
  149.1419  140.8664  156.7145 C   0  0  2  0  0  0  0  0  0  0  0  0
  150.0685  140.7658  155.4893 C   0  0  0  0  0  0  0  0  0  0  0  0
  151.4959  140.3642  155.8879 C   0  0  0  0  0  0  0  0  0  0  0  0
  151.4961  139.0518  156.6909 C   0  0  0  0  0  0  0  0  0  0  0  0
  150.5945  139.1276  157.9483 C   0  0  1  0  0  0  0  0  0  0  0  0
  150.5174  137.8025  158.5919 C   0  0  0  0  0  0  0  0  0  0  0  0
  150.4555  136.7626  159.0956 N   0  0  0  0  0  0  0  0  0  0  0  0
  151.1027  140.1297  158.8894 N   0  0  0  0  0  0  0  0  0  0  0  0
  152.3834  140.4793  159.0961 C   0  0  0  0  0  0  0  0  0  0  0  0
  153.3348  139.9080  158.5634 O   0  0  0  0  0  0  0  0  0  0  0  0
  152.6042  141.6776  160.0330 C   0  0  1  0  0  0  0  0  0  0  0  0
  153.9948  141.6754  160.7009 C   0  0  0  0  0  0  0  0  0  0  0  0
  152.3385  142.9220  159.3183 N   0  0  0  0  0  0  0  0  0  0  0  0
  152.4892  144.2147  159.7791 C   0  0  0  0  0  0  0  0  0  0  0  0
  152.0664  145.0559  158.7903 C   0  0  0  0  0  0  0  0  0  0  0  0
  151.6573  144.1762  157.7505 C   0  0  0  0  0  0  0  0  0  0  0  0
  151.8117  142.9025  158.0714 N   0  0  0  0  0  0  0  0  0  0  0  0
  149.1701  139.5491  157.5207 C   0  0  0  0  0  0  0  0  0  0  0  0
  147.2745  140.4840  155.6507 H   0  0  0  0  0  0  0  0  0  0  0  0
  147.6903  142.1916  155.7720 H   0  0  0  0  0  0  0  0  0  0  0  0
  147.0643  141.3376  157.1771 H   0  0  0  0  0  0  0  0  0  0  0  0
  149.5141  141.6696  157.3519 H   0  0  0  0  0  0  0  0  0  0  0  0
  149.6707  140.0324  154.7865 H   0  0  0  0  0  0  0  0  0  0  0  0
  150.0922  141.7186  154.9593 H   0  0  0  0  0  0  0  0  0  0  0  0
  152.1103  140.2505  154.9943 H   0  0  0  0  0  0  0  0  0  0  0  0
  151.9545  141.1614  156.4740 H   0  0  0  0  0  0  0  0  0  0  0  0
  151.1447  138.2448  156.0461 H   0  0  0  0  0  0  0  0  0  0  0  0
  152.5186  138.7870  156.9610 H   0  0  0  0  0  0  0  0  0  0  0  0
  150.4006  140.6558  159.3886 H   0  0  0  0  0  0  0  0  0  0  0  0
  151.8633  141.6004  160.8305 H   0  0  0  0  0  0  0  0  0  0  0  0
  154.1477  140.7688  161.2874 H   0  0  0  0  0  0  0  0  0  0  0  0
  154.1008  142.5230  161.3787 H   0  0  0  0  0  0  0  0  0  0  0  0
  154.8018  141.7354  159.9693 H   0  0  0  0  0  0  0  0  0  0  0  0
  152.8768  144.4268  160.7645 H   0  0  0  0  0  0  0  0  0  0  0  0
  152.0464  146.1354  158.8090 H   0  0  0  0  0  0  0  0  0  0  0  0
  151.2497  144.4227  156.7812 H   0  0  0  0  0  0  0  0  0  0  0  0
  148.5338  139.6421  158.4023 H   0  0  0  0  0  0  0  0  0  0  0  0
  148.7291  138.7538  156.9173 H   0  0  0  0  0  0  0  0  0  0  0  0
  1  2  1  0  0  0  0
  1 20  1  0  0  0  0
  1 21  1  0  0  0  0
  1 22  1  0  0  0  0
  2 19  1  0  0  0  0
  2  3  1  0  0  0  0
  2 23  1  0  0  0  0
  3  4  1  0  0  0  0
  3 24  1  0  0  0  0
  3 25  1  0  0  0  0
  4  5  1  0  0  0  0
  4 26  1  0  0  0  0
  4 27  1  0  0  0  0
  5  6  1  0  0  0  0
  5 28  1  0  0  0  0
  5 29  1  0  0  0  0
  6  7  1  0  0  0  0
  6  9  1  0  0  0  0
  6 19  1  0  0  0  0
  7  8  3  0  0  0  0
  9 10  1  0  0  0  0
  9 30  1  0  0  0  0
 10 11  2  0  0  0  0
 10 12  1  0  0  0  0
 12 13  1  0  0  0  0
 12 14  1  0  0  0  0
 12 31  1  0  0  0  0
 13 32  1  0  0  0  0
 13 33  1  0  0  0  0
 13 34  1  0  0  0  0
 14 18  1  0  0  0  0
 14 15  1  0  0  0  0
 15 16  2  0  0  0  0
 15 35  1  0  0  0  0
 16 17  1  0  0  0  0
 16 36  1  0  0  0  0
 17 18  2  0  0  0  0
 17 37  1  0  0  0  0
 19 38  1  0  0  0  0
 19 39  1  0  0  0  0
M  END
> <s_m_source_file>
AV-unprocessed.smi

> <i_m_source_file_index>
765

> <i_lp_mmshare_version>
43012

> <i_f3d_flags>
0

> <s_epik_input>
W0NIM11bQ0BASF0oW0NIMl0xKVtDSDJdW0NIMl1bQ0gyXVtDQEBdMShDI04pW05IXUMoPU8pW0NASF0oW0NIM10pbjJbY0hdW2NIXVtjSF1uMg==

> <s_epik_cmdline>
J2VwaWtfcHl0aG9uJywgJy1waCcsICc3LjAnLCAnLXRuJywgJzgnLCAnLW1hJywgJzIwMCcsICctbWV0YWxfYmluZGluZycsICctaW1hZScsICc8aW5maWxlLm1hZT4nLCAnLW9tYWUnLCAnPG91dGZpbGUubWFlPic=

> <r_lp_tautomer_probability>
1

> <r_epik_Ionization_Penalty>
2.71142e-05

> <r_epik_Ionization_Penalty_Charging>
0

> <r_epik_Ionization_Penalty_Neutral>
2.71142e-05

> <r_epik_State_Penalty>
-0

> <r_epik_Charging_Adjusted_Penalty>
0

> <i_epik_Tot_Q>
0

> <i_epik_Tot_abs_Q>
0

> <r_epik_Metal_State_Penalty>
-0

> <b_epik_Metal_Only>
0

> <s_lp_Force_Field>
OPLS_2005

> <r_lp_Energy>
11.2171

> <b_lp_Chiralities_Consistent>
1

> <s_lp_Variant>
AV-unprocessed.smi:765-5

> <Gold.Version>
5.8.1

> <Gold.Id.Protein>
6NUR|6NUR_protein|mol2

> <Gold.PLP.Fitness>
45.7522

> <Gold.PLP.PLP>
-39.3241

> <Gold.PLP.part.hbond>
-2.0000

> <Gold.PLP.part.metal>
0.0000

> <Gold.PLP.part.buried>
-4.8772

> <Gold.PLP.part.nonpolar>
-33.2898

> <Gold.PLP.part.repulsive>
0.2290

> <Gold.PLP.ligand.clash>
0.0000

> <Gold.PLP.ligand.torsion>
1.3405

> <Gold.PLP.Chemscore.Hbond>
2.0000

> <Gold.PLP.Chemscore.CHOScore>
0.9985

> <Gold.PLP.Chemscore.Metal>
0.0000

> <Gold.Chemscore.Hbonds>
donor molecule, donor type, donor heavy atom, donor atom, acceptor molecule, acceptor atom, score
      P1  H  6896  6907       L1     8  1.00
      P1  H  7997  8009       L1    11  1.00
      L1  C    17    37       P1  8028  0.83

> <Gold.PLP.Chemscore.Internal.Correction>
0.1135

> <Gold.Rescore>
     Score         DG    S(hbond)    S(metal)    S(lipo)     H(rot)  DE(clash)    DE(int)     intcor
     15.89     -18.89       1.97        0.00      89.48       1.42       0.20       2.80       ----

> <Gold.Chemscore.Fitness>
15.8878

> <Gold.Chemscore.DG>
-18.8883

> <Gold.Chemscore.ZeroCoef>
-5.4800

> <Gold.Chemscore.Hbond>
1.9672

> <Gold.Chemscore.Metal>
0.0000

> <Gold.Chemscore.Lipo>
89.4759

> <Gold.Chemscore.Internal_Hbond>
0.0000

> <Gold.Chemscore.DEClash>
0.1961

> <Gold.Chemscore.DEInternal>
2.8044

> <Gold.Chemscore.Rot>
1.4183

> <Gold.Chemscore.Internal.Correction>
   9.000000E+99

> <Gold.Chemscore.Hbonds>
donor molecule, donor type, donor heavy atom, donor atom, acceptor molecule, acceptor atom, score
      P1  H  6896  6907       L1     8  0.98
      P1  H  7997  8009       L1    11  0.93

> <Gold.Chemscore.Hbond.Weighted>
-6.5705

> <Gold.Chemscore.Metal.Weighted>
-0.0000

> <Gold.Chemscore.Lipo.Weighted>
-10.4687

> <Gold.Chemscore.Internal_Hbond.Weighted>
0.0000

> <Gold.Chemscore.DEClash.Weighted>
0.1961

> <Gold.Chemscore.DEInternal.Weighted>
2.8044

> <Gold.Chemscore.Rot.Weighted>
3.6309

> <Gold.Chemscore.Internal.Correction.Weighted>
   9.000000E+99

> <Gold.Protein.RotatedTorsions>
[ 6907 6896 6895 6894 ] final  -24.88 input  -60.11 | X-H torsion
[ 7974 7965 7964 7962 ] final  -14.51 input  175.53 | X-H torsion
[ 8008 7997 7996 7995 ] final  158.41 input   59.86 | X-H torsion
[ 10167 10162 10161 10158 ] final   37.94 input  -65.29 | X-H torsion
[ 10718 10713 10712 10709 ] final  -15.76 input   66.30 | X-H torsion
[ 10763 10752 10751 10750 ] final    7.00 input  -60.55 | X-H torsion
[ 11005 11000 10999 10996 ] final   33.56 input  -57.11 | X-H torsion

> <Gold.Protein.ActiveResidues>
 VAL166  LYS551  ARG553  GLY616  TRP617  ASP618  TYR619  PRO620  LYS621  CYS622 
 ASP623  PHE694  ASN695  SER759  ASP760  ASP761  ALA762  ILE779  LEU786  VAL792 
 PHE793  MET794  SER795  GLU796  ALA797  LYS798  CYS799  TRP800  GLU811  SER814 

> <Gold.Protein.RotatedAtoms>
  151.1832  135.0370  159.8800 H   0  0  0  0  0  0  0  0  0  0  0  0  # atno 6907 bound_to 6896
  152.5443  134.1039  159.8340 H   0  0  0  0  0  0  0  0  0  0  0  0  # atno 6908 bound_to 6896
  151.1159  133.5092  159.2636 H   0  0  0  0  0  0  0  0  0  0  0  0  # atno 6909 bound_to 6896
  146.2071  140.3358  142.8403 H   0  0  0  0  0  0  0  0  0  0  0  0  # atno 7974 bound_to 7965
  156.2304  140.1859  156.7257 H   0  0  0  0  0  0  0  0  0  0  0  0  # atno 8008 bound_to 7997
  154.6013  140.0635  156.9399 H   0  0  0  0  0  0  0  0  0  0  0  0  # atno 8009 bound_to 7997
  155.2170  140.3304  155.4323 H   0  0  0  0  0  0  0  0  0  0  0  0  # atno 8010 bound_to 7997
  140.3985  144.1756  150.6133 H   0  0  0  0  0  0  0  0  0  0  0  0  # atno 10167 bound_to 10162
  156.5971  130.4814  149.6255 H   0  0  0  0  0  0  0  0  0  0  0  0  # atno 10718 bound_to 10713
  153.2413  135.6904  153.7780 H   0  0  0  0  0  0  0  0  0  0  0  0  # atno 10763 bound_to 10752
  153.6908  135.3313  155.3202 H   0  0  0  0  0  0  0  0  0  0  0  0  # atno 10764 bound_to 10752
  154.8356  135.4545  154.1336 H   0  0  0  0  0  0  0  0  0  0  0  0  # atno 10765 bound_to 10752
  140.2618  134.3183  155.7855 H   0  0  0  0  0  0  0  0  0  0  0  0  # atno 11005 bound_to 11000
  144.8820  140.7413  143.5980 LP  0  0  0  0  0  0  0  0  0  0  0  0  # atno 17320 bound_to 7965
  145.3279  139.1768  143.4553 LP  0  0  0  0  0  0  0  0  0  0  0  0  # atno 17321 bound_to 7965
  140.4765  143.2394  151.9015 LP  0  0  0  0  0  0  0  0  0  0  0  0  # atno 17342 bound_to 10162
  139.4785  144.5315  151.8660 LP  0  0  0  0  0  0  0  0  0  0  0  0  # atno 17343 bound_to 10162
  156.2500  130.6901  151.1636 LP  0  0  0  0  0  0  0  0  0  0  0  0  # atno 17370 bound_to 10713
  157.7289  131.0628  150.5799 LP  0  0  0  0  0  0  0  0  0  0  0  0  # atno 17371 bound_to 10713
  141.2189  133.7414  156.9199 LP  0  0  0  0  0  0  0  0  0  0  0  0  # atno 17394 bound_to 11000
  140.1457  134.9264  157.2526 LP  0  0  0  0  0  0  0  0  0  0  0  0  # atno 17395 bound_to 11000

$$$$
