AV-unprocessed.smi:3149|AV-procd|sdf|11999|dock7
  -GOLD-   2272017403D 1   1.00000     0.00000
 Structure written by MMmdl.
 38 39  0  0  0  0  0  0  0  0  2 V2000
  147.6281  142.0067  155.4704 C   0  0  0  0  0  0  0  0  0  0  0  0
  148.9007  141.1550  155.6082 C   0  0  2  0  0  0  0  0  0  0  0  0
  150.0417  142.0546  155.8964 N   0  3  0  0  0  0  0  0  0  0  0  0
  150.8342  141.6961  157.0896 C   0  0  0  0  0  0  0  0  0  0  0  0
  151.5229  142.9282  157.6805 C   0  0  0  0  0  0  0  0  0  0  0  0
  151.2359  144.0540  157.2739 O   0  0  0  0  0  0  0  0  0  0  0  0
  152.4141  142.7292  158.7373 N   0  0  0  0  0  0  0  0  0  0  0  0
  152.1608  141.7345  159.7693 C   0  0  0  0  0  0  0  0  0  0  0  0
  152.9329  142.6682  160.7069 C   0  0  0  0  0  0  0  0  0  0  0  0
  152.6967  143.7910  159.6917 C   0  0  0  0  0  0  0  0  0  0  0  0
  149.1917  140.2999  154.3449 C   0  0  2  0  0  0  0  0  0  0  0  0
  147.9765  139.4771  153.8752 C   0  0  0  0  0  0  0  0  0  0  0  0
  150.3384  139.4208  154.5472 N   0  0  0  0  0  0  0  0  0  0  0  0
  150.3900  138.0466  154.4307 C   0  0  0  0  0  0  0  0  0  0  0  0
  151.6744  137.6624  154.6887 C   0  0  0  0  0  0  0  0  0  0  0  0
  152.3458  138.8863  154.9619 C   0  0  0  0  0  0  0  0  0  0  0  0
  151.5449  139.9360  154.8757 N   0  0  0  0  0  0  0  0  0  0  0  0
  146.7368  141.3883  155.3667 H   0  0  0  0  0  0  0  0  0  0  0  0
  147.6817  142.6659  154.6033 H   0  0  0  0  0  0  0  0  0  0  0  0
  147.4796  142.6308  156.3524 H   0  0  0  0  0  0  0  0  0  0  0  0
  148.7529  140.4838  156.4563 H   0  0  0  0  0  0  0  0  0  0  0  0
  150.6588  142.0473  155.0968 H   0  0  0  0  0  0  0  0  0  0  0  0
  150.1845  141.2509  157.8438 H   0  0  0  0  0  0  0  0  0  0  0  0
  151.5756  140.9471  156.8110 H   0  0  0  0  0  0  0  0  0  0  0  0
  151.1057  141.6362  160.0325 H   0  0  0  0  0  0  0  0  0  0  0  0
  152.6433  140.7733  159.5893 H   0  0  0  0  0  0  0  0  0  0  0  0
  152.4532  142.8303  161.6726 H   0  0  0  0  0  0  0  0  0  0  0  0
  153.9849  142.3985  160.8167 H   0  0  0  0  0  0  0  0  0  0  0  0
  153.5819  144.3802  159.4502 H   0  0  0  0  0  0  0  0  0  0  0  0
  151.8296  144.4100  159.9313 H   0  0  0  0  0  0  0  0  0  0  0  0
  149.4573  140.9784  153.5326 H   0  0  0  0  0  0  0  0  0  0  0  0
  147.1590  140.1172  153.5449 H   0  0  0  0  0  0  0  0  0  0  0  0
  147.5965  138.8341  154.6698 H   0  0  0  0  0  0  0  0  0  0  0  0
  148.2404  138.8391  153.0310 H   0  0  0  0  0  0  0  0  0  0  0  0
  149.5192  137.4618  154.1729 H   0  0  0  0  0  0  0  0  0  0  0  0
  152.0736  136.6589  154.6849 H   0  0  0  0  0  0  0  0  0  0  0  0
  153.3837  139.0423  155.2166 H   0  0  0  0  0  0  0  0  0  0  0  0
  149.6929  142.9944  156.0202 H   0  0  0  0  0  0  0  0  0  0  0  0
  1  2  1  0  0  0  0
  1 18  1  0  0  0  0
  1 19  1  0  0  0  0
  1 20  1  0  0  0  0
  2  3  1  0  0  0  0
  2 11  1  0  0  0  0
  2 21  1  0  0  0  0
  3  4  1  0  0  0  0
  3 22  1  0  0  0  0
  3 38  1  0  0  0  0
  4  5  1  0  0  0  0
  4 23  1  0  0  0  0
  4 24  1  0  0  0  0
  5  6  2  0  0  0  0
  5  7  1  0  0  0  0
  7 10  1  0  0  0  0
  7  8  1  0  0  0  0
  8  9  1  0  0  0  0
  8 25  1  0  0  0  0
  8 26  1  0  0  0  0
  9 10  1  0  0  0  0
  9 27  1  0  0  0  0
  9 28  1  0  0  0  0
 10 29  1  0  0  0  0
 10 30  1  0  0  0  0
 11 12  1  0  0  0  0
 11 13  1  0  0  0  0
 11 31  1  0  0  0  0
 12 32  1  0  0  0  0
 12 33  1  0  0  0  0
 12 34  1  0  0  0  0
 13 17  1  0  0  0  0
 13 14  1  0  0  0  0
 14 15  2  0  0  0  0
 14 35  1  0  0  0  0
 15 16  1  0  0  0  0
 15 36  1  0  0  0  0
 16 17  2  0  0  0  0
 16 37  1  0  0  0  0
M  CHG  1   3   1
M  END
> <s_m_source_file>
AV-unprocessed.smi

> <i_m_source_file_index>
3149

> <i_lp_mmshare_version>
43012

> <i_f3d_flags>
0

> <s_epik_input>
bjFbY0hdW2NIXVtjSF1uMVtDQEBIXShbQ0gzXSlbQ0BIXShbQ0gzXSlbTkhdW0NIMl1DKD1PKU4yW0NIMl1bQ0gyXVtDSDJdMg==

> <s_epik_cmdline>
J2VwaWtfcHl0aG9uJywgJy1waCcsICc3LjAnLCAnLXRuJywgJzgnLCAnLW1hJywgJzIwMCcsICctbWV0YWxfYmluZGluZycsICctaW1hZScsICc8aW5maWxlLm1hZT4nLCAnLW9tYWUnLCAnPG91dGZpbGUubWFlPic=

> <r_lp_tautomer_probability>
1

> <r_epik_Ionization_Penalty>
0.141739

> <r_epik_Ionization_Penalty_Charging>
0.141731

> <r_epik_Ionization_Penalty_Neutral>
8.82171e-06

> <r_epik_State_Penalty>
0.131043

> <r_epik_Charging_Adjusted_Penalty>
0.272773

> <i_epik_Tot_Q>
1

> <i_epik_Tot_abs_Q>
1

> <r_epik_Metal_State_Penalty>
0.131384

> <b_epik_Metal_Only>
0

> <s_lp_Force_Field>
OPLS_2005

> <r_lp_Energy>
21.2317

> <b_lp_Chiralities_Consistent>
1

> <s_lp_Variant>
AV-unprocessed.smi:3149-1

> <Gold.Version>
5.8.1

> <Gold.Id.Protein>
6NUR|6NUR_protein|mol2

> <Gold.PLP.Fitness>
47.5633

> <Gold.PLP.PLP>
-38.0597

> <Gold.PLP.part.hbond>
-1.8963

> <Gold.PLP.part.metal>
0.0000

> <Gold.PLP.part.buried>
-1.5348

> <Gold.PLP.part.nonpolar>
-34.9975

> <Gold.PLP.part.repulsive>
1.0631

> <Gold.PLP.ligand.clash>
0.0000

> <Gold.PLP.ligand.torsion>
1.4055

> <Gold.PLP.Chemscore.Hbond>
2.8000

> <Gold.PLP.Chemscore.CHOScore>
0.9974

> <Gold.PLP.Chemscore.Metal>
0.0000

> <Gold.Chemscore.Hbonds>
donor molecule, donor type, donor heavy atom, donor atom, acceptor molecule, acceptor atom, score
      L1  H     3    38       P1  8028  2.00
      P1  H  7989  7998       L1    17  0.70
      L1  C    14    35       P1  7948  0.66

> <Gold.PLP.Chemscore.Internal.Correction>
0.9223

> <Gold.Rescore>
     Score         DG    S(hbond)    S(metal)    S(lipo)     H(rot)  DE(clash)    DE(int)     intcor
     12.12     -16.58       1.74        0.00      85.86       1.85       1.51       2.94       ----

> <Gold.Chemscore.Fitness>
12.1226

> <Gold.Chemscore.DG>
-16.5781

> <Gold.Chemscore.ZeroCoef>
-5.4800

> <Gold.Chemscore.Hbond>
1.7363

> <Gold.Chemscore.Metal>
0.0000

> <Gold.Chemscore.Lipo>
85.8634

> <Gold.Chemscore.Internal_Hbond>
0.0000

> <Gold.Chemscore.DEClash>
1.5145

> <Gold.Chemscore.DEInternal>
2.9409

> <Gold.Chemscore.Rot>
1.8544

> <Gold.Chemscore.Internal.Correction>
   9.000000E+99

> <Gold.Chemscore.Hbonds>
donor molecule, donor type, donor heavy atom, donor atom, acceptor molecule, acceptor atom, score
      L1  H     3    38       P1  8028  0.99
      P1  H  7989  7998       L1    17  0.07

> <Gold.Chemscore.Hbond.Weighted>
-5.7992

> <Gold.Chemscore.Metal.Weighted>
-0.0000

> <Gold.Chemscore.Lipo.Weighted>
-10.0460

> <Gold.Chemscore.Internal_Hbond.Weighted>
0.0000

> <Gold.Chemscore.DEClash.Weighted>
1.5145

> <Gold.Chemscore.DEInternal.Weighted>
2.9409

> <Gold.Chemscore.Rot.Weighted>
4.7472

> <Gold.Chemscore.Internal.Correction.Weighted>
   9.000000E+99

> <Gold.Protein.RotatedTorsions>
[ 6907 6896 6895 6894 ] final -127.63 input  -60.11 | X-H torsion
[ 7974 7965 7964 7962 ] final  109.66 input  175.53 | X-H torsion
[ 8008 7997 7996 7995 ] final   83.50 input   59.86 | X-H torsion
[ 10167 10162 10161 10158 ] final  134.09 input  -65.29 | X-H torsion
[ 10718 10713 10712 10709 ] final  -95.80 input   66.30 | X-H torsion
[ 10763 10752 10751 10750 ] final  -24.62 input  -60.55 | X-H torsion
[ 11005 11000 10999 10996 ] final  107.87 input  -57.11 | X-H torsion

> <Gold.Protein.ActiveResidues>
 VAL166  LYS551  ARG553  GLY616  TRP617  ASP618  TYR619  PRO620  LYS621  CYS622 
 ASP623  PHE694  ASN695  SER759  ASP760  ASP761  ALA762  ILE779  LEU786  VAL792 
 PHE793  MET794  SER795  GLU796  ALA797  LYS798  CYS799  TRP800  GLU811  SER814 

> <Gold.Protein.RotatedAtoms>
  150.9093  133.7018  159.2858 H   0  0  0  0  0  0  0  0  0  0  0  0  # atno 6907 bound_to 6896
  151.4510  135.1028  159.9707 H   0  0  0  0  0  0  0  0  0  0  0  0  # atno 6908 bound_to 6896
  152.4921  133.8479  159.7241 H   0  0  0  0  0  0  0  0  0  0  0  0  # atno 6909 bound_to 6896
  145.2649  139.2688  143.3997 H   0  0  0  0  0  0  0  0  0  0  0  0  # atno 7974 bound_to 7965
  155.9247  140.3419  155.6201 H   0  0  0  0  0  0  0  0  0  0  0  0  # atno 8008 bound_to 7997
  155.7230  140.0786  157.2341 H   0  0  0  0  0  0  0  0  0  0  0  0  # atno 8009 bound_to 7997
  154.4075  140.1602  156.2411 H   0  0  0  0  0  0  0  0  0  0  0  0  # atno 8010 bound_to 7997
  139.5270  144.6584  151.5089 H   0  0  0  0  0  0  0  0  0  0  0  0  # atno 10167 bound_to 10162
  156.0050  130.5124  150.6131 H   0  0  0  0  0  0  0  0  0  0  0  0  # atno 10718 bound_to 10713
  153.6867  135.6964  153.5102 H   0  0  0  0  0  0  0  0  0  0  0  0  # atno 10763 bound_to 10752
  153.2444  135.4295  155.0731 H   0  0  0  0  0  0  0  0  0  0  0  0  # atno 10764 bound_to 10752
  154.8384  135.3516  154.6409 H   0  0  0  0  0  0  0  0  0  0  0  0  # atno 10765 bound_to 10752
  139.8835  134.9414  156.5886 H   0  0  0  0  0  0  0  0  0  0  0  0  # atno 11005 bound_to 11000
  146.3264  140.3076  142.8624 LP  0  0  0  0  0  0  0  0  0  0  0  0  # atno 17320 bound_to 7965
  144.9386  140.8053  143.5645 LP  0  0  0  0  0  0  0  0  0  0  0  0  # atno 17321 bound_to 7965
  140.6421  143.8868  150.6701 LP  0  0  0  0  0  0  0  0  0  0  0  0  # atno 17342 bound_to 10162
  140.2206  143.3812  152.1646 LP  0  0  0  0  0  0  0  0  0  0  0  0  # atno 17343 bound_to 10162
  157.3959  131.0803  151.1352 LP  0  0  0  0  0  0  0  0  0  0  0  0  # atno 17370 bound_to 10713
  157.2028  130.6402  149.5745 LP  0  0  0  0  0  0  0  0  0  0  0  0  # atno 17371 bound_to 10713
  140.7973  133.8534  155.8696 LP  0  0  0  0  0  0  0  0  0  0  0  0  # atno 17394 bound_to 11000
  140.9624  134.1638  157.4643 LP  0  0  0  0  0  0  0  0  0  0  0  0  # atno 17395 bound_to 11000

$$$$
