AV-unprocessed.smi:1673|AV-procd|sdf|6712|dock1
  -GOLD-   22720 7453D 1   1.00000     0.00000
 Structure written by MMmdl.
 39 40  0  0  0  0  0  0  0  0  1 V2000
  150.3130  132.1932  155.9105 C   0  0  0  0  0  0  0  0  0  0  0  0
  150.6806  133.6506  155.8716 C   0  0  0  0  0  0  0  0  0  0  0  0
  151.6521  134.0904  156.6578 N   0  0  0  0  0  0  0  0  0  0  0  0
  151.8260  135.4513  156.3622 O   0  0  0  0  0  0  0  0  0  0  0  0
  150.9432  135.8069  155.3926 C   0  0  0  0  0  0  0  0  0  0  0  0
  150.9857  137.2217  154.9228 C   0  0  0  0  0  0  0  0  0  0  0  0
  150.1823  134.7215  155.0725 C   0  0  0  0  0  0  0  0  0  0  0  0
  149.1715  134.7090  154.0790 N   0  0  0  0  0  0  0  0  0  0  0  0
  148.1081  133.8929  154.0259 C   0  0  0  0  0  0  0  0  0  0  0  0
  147.8290  133.0479  154.8759 O   0  0  0  0  0  0  0  0  0  0  0  0
  147.3696  134.1251  152.9309 N   0  0  0  0  0  0  0  0  0  0  0  0
  146.1386  133.4261  152.5640 C   0  0  1  0  0  0  0  0  0  0  0  0
  145.3707  134.2836  151.5389 C   0  0  0  0  0  0  0  0  0  0  0  0
  144.0891  133.5868  151.0601 C   0  0  0  0  0  0  0  0  0  0  0  0
  144.4013  132.1990  150.4847 C   0  0  0  0  0  0  0  0  0  0  0  0
  145.1519  131.3345  151.5088 C   0  0  0  0  0  0  0  0  0  0  0  0
  146.4467  132.0149  151.9985 C   0  0  2  0  0  0  0  0  0  0  0  0
  147.1783  131.1117  153.0079 C   0  0  0  0  0  0  0  0  0  0  0  0
  149.9979  131.8391  154.9289 H   0  0  0  0  0  0  0  0  0  0  0  0
  149.4981  132.0135  156.6117 H   0  0  0  0  0  0  0  0  0  0  0  0
  151.1573  131.5769  156.2210 H   0  0  0  0  0  0  0  0  0  0  0  0
  150.3141  137.3757  154.0783 H   0  0  0  0  0  0  0  0  0  0  0  0
  151.9929  137.4929  154.6064 H   0  0  0  0  0  0  0  0  0  0  0  0
  150.6864  137.9017  155.7205 H   0  0  0  0  0  0  0  0  0  0  0  0
  149.2177  135.4444  153.3891 H   0  0  0  0  0  0  0  0  0  0  0  0
  147.6833  134.8443  152.2959 H   0  0  0  0  0  0  0  0  0  0  0  0
  145.4987  133.3114  153.4413 H   0  0  0  0  0  0  0  0  0  0  0  0
  145.1178  135.2502  151.9764 H   0  0  0  0  0  0  0  0  0  0  0  0
  146.0088  134.4924  150.6787 H   0  0  0  0  0  0  0  0  0  0  0  0
  143.3908  133.4907  151.8926 H   0  0  0  0  0  0  0  0  0  0  0  0
  143.5915  134.1986  150.3070 H   0  0  0  0  0  0  0  0  0  0  0  0
  143.4768  131.7041  150.1859 H   0  0  0  0  0  0  0  0  0  0  0  0
  145.0030  132.3031  149.5809 H   0  0  0  0  0  0  0  0  0  0  0  0
  144.4988  131.1325  152.3593 H   0  0  0  0  0  0  0  0  0  0  0  0
  145.3843  130.3663  151.0638 H   0  0  0  0  0  0  0  0  0  0  0  0
  147.1019  132.1333  151.1339 H   0  0  0  0  0  0  0  0  0  0  0  0
  146.5953  130.9875  153.9211 H   0  0  0  0  0  0  0  0  0  0  0  0
  148.1497  131.5208  153.2858 H   0  0  0  0  0  0  0  0  0  0  0  0
  147.3559  130.1207  152.5895 H   0  0  0  0  0  0  0  0  0  0  0  0
  1  2  1  0  0  0  0
  1 19  1  0  0  0  0
  1 20  1  0  0  0  0
  1 21  1  0  0  0  0
  2  7  1  0  0  0  0
  2  3  2  0  0  0  0
  3  4  1  0  0  0  0
  4  5  1  0  0  0  0
  5  6  1  0  0  0  0
  5  7  2  0  0  0  0
  6 22  1  0  0  0  0
  6 23  1  0  0  0  0
  6 24  1  0  0  0  0
  7  8  1  0  0  0  0
  8  9  1  0  0  0  0
  8 25  1  0  0  0  0
  9 10  2  0  0  0  0
  9 11  1  0  0  0  0
 11 12  1  0  0  0  0
 11 26  1  0  0  0  0
 12 17  1  0  0  0  0
 12 13  1  0  0  0  0
 12 27  1  0  0  0  0
 13 14  1  0  0  0  0
 13 28  1  0  0  0  0
 13 29  1  0  0  0  0
 14 15  1  0  0  0  0
 14 30  1  0  0  0  0
 14 31  1  0  0  0  0
 15 16  1  0  0  0  0
 15 32  1  0  0  0  0
 15 33  1  0  0  0  0
 16 17  1  0  0  0  0
 16 34  1  0  0  0  0
 16 35  1  0  0  0  0
 17 18  1  0  0  0  0
 17 36  1  0  0  0  0
 18 37  1  0  0  0  0
 18 38  1  0  0  0  0
 18 39  1  0  0  0  0
M  END
> <s_m_source_file>
AV-unprocessed.smi

> <i_m_source_file_index>
1673

> <i_lp_mmshare_version>
43012

> <i_f3d_flags>
0

> <s_epik_input>
W0NIM11jMW5vYyhbQ0gzXSljMVtOSF1DKD1PKVtOSF1bQ0BASF0yW0NIMl1bQ0gyXVtDSDJdW0NIMl1bQ0BIXTJbQ0gzXQ==

> <s_epik_cmdline>
J2VwaWtfcHl0aG9uJywgJy1waCcsICc3LjAnLCAnLXRuJywgJzgnLCAnLW1hJywgJzIwMCcsICctbWV0YWxfYmluZGluZycsICctaW1hZScsICc8aW5maWxlLm1hZT4nLCAnLW9tYWUnLCAnPG91dGZpbGUubWFlPic=

> <r_lp_tautomer_probability>
1

> <r_epik_Ionization_Penalty>
4.01865e-05

> <r_epik_Ionization_Penalty_Charging>
0

> <r_epik_Ionization_Penalty_Neutral>
4.01865e-05

> <r_epik_State_Penalty>
-0

> <r_epik_Charging_Adjusted_Penalty>
0

> <i_epik_Tot_Q>
0

> <i_epik_Tot_abs_Q>
0

> <r_epik_Metal_State_Penalty>
-0

> <b_epik_Metal_Only>
0

> <s_lp_Force_Field>
OPLS_2005

> <r_lp_Energy>
12.0286

> <b_lp_Chiralities_Consistent>
1

> <s_lp_Variant>
AV-unprocessed.smi:1673-4

> <Gold.Version>
5.8.1

> <Gold.Id.Protein>
6NUR|6NUR_protein|mol2

> <Gold.PLP.Fitness>
37.6094

> <Gold.PLP.PLP>
-29.5887

> <Gold.PLP.part.hbond>
-3.5210

> <Gold.PLP.part.metal>
0.0000

> <Gold.PLP.part.buried>
-3.2795

> <Gold.PLP.part.nonpolar>
-22.2245

> <Gold.PLP.part.repulsive>
0.0365

> <Gold.PLP.ligand.clash>
0.0000

> <Gold.PLP.ligand.torsion>
0.3991

> <Gold.PLP.Chemscore.Hbond>
2.8512

> <Gold.PLP.Chemscore.CHOScore>
0.0000

> <Gold.PLP.Chemscore.Metal>
0.0000

> <Gold.Chemscore.Hbonds>
donor molecule, donor type, donor heavy atom, donor atom, acceptor molecule, acceptor atom, score
      L1  H     8    25       P1  7948  1.00
      L1  H    11    26       P1  7948  0.99
      P1  H 10752 10764       L1     4  0.88

> <Gold.PLP.Chemscore.Internal.Correction>
0.2653

> <Gold.Rescore>
     Score         DG    S(hbond)    S(metal)    S(lipo)     H(rot)  DE(clash)    DE(int)     intcor
     12.87     -16.82       1.66        0.00      71.24       1.00       0.16       3.78       ----

> <Gold.Chemscore.Fitness>
12.8670

> <Gold.Chemscore.DG>
-16.8153

> <Gold.Chemscore.ZeroCoef>
-5.4800

> <Gold.Chemscore.Hbond>
1.6646

> <Gold.Chemscore.Metal>
0.0000

> <Gold.Chemscore.Lipo>
71.2440

> <Gold.Chemscore.Internal_Hbond>
0.0000

> <Gold.Chemscore.DEClash>
0.1644

> <Gold.Chemscore.DEInternal>
3.7838

> <Gold.Chemscore.Rot>
1.0000

> <Gold.Chemscore.Internal.Correction>
   9.000000E+99

> <Gold.Chemscore.Hbonds>
donor molecule, donor type, donor heavy atom, donor atom, acceptor molecule, acceptor atom, score
      L1  H     8    25       P1  7948  0.34
      L1  H    11    26       P1  7948  0.81
      P1  H 10752 10764       L1     4  0.06

> <Gold.Chemscore.Hbond.Weighted>
-5.5597

> <Gold.Chemscore.Metal.Weighted>
-0.0000

> <Gold.Chemscore.Lipo.Weighted>
-8.3355

> <Gold.Chemscore.Internal_Hbond.Weighted>
0.0000

> <Gold.Chemscore.DEClash.Weighted>
0.1644

> <Gold.Chemscore.DEInternal.Weighted>
3.7838

> <Gold.Chemscore.Rot.Weighted>
2.5600

> <Gold.Chemscore.Internal.Correction.Weighted>
   9.000000E+99

> <Gold.Protein.RotatedTorsions>
[ 6907 6896 6895 6894 ] final  -19.85 input  -60.11 | X-H torsion
[ 7974 7965 7964 7962 ] final   81.63 input  175.53 | X-H torsion
[ 8008 7997 7996 7995 ] final -150.65 input   59.86 | X-H torsion
[ 10167 10162 10161 10158 ] final   10.26 input  -65.29 | X-H torsion
[ 10718 10713 10712 10709 ] final   83.31 input   66.30 | X-H torsion
[ 10763 10752 10751 10750 ] final   -3.84 input  -60.55 | X-H torsion
[ 11005 11000 10999 10996 ] final  -36.70 input  -57.11 | X-H torsion

> <Gold.Protein.ActiveResidues>
 VAL166  LYS551  ARG553  GLY616  TRP617  ASP618  TYR619  PRO620  LYS621  CYS622 
 ASP623  PHE694  ASN695  SER759  ASP760  ASP761  ALA762  ILE779  LEU786  VAL792 
 PHE793  MET794  SER795  GLU796  ALA797  LYS798  CYS799  TRP800  GLU811  SER814 

> <Gold.Protein.RotatedAtoms>
  151.2569  135.0641  159.9083 H   0  0  0  0  0  0  0  0  0  0  0  0  # atno 6907 bound_to 6896
  152.5372  134.0272  159.8019 H   0  0  0  0  0  0  0  0  0  0  0  0  # atno 6908 bound_to 6896
  151.0489  133.5592  159.2675 H   0  0  0  0  0  0  0  0  0  0  0  0  # atno 6909 bound_to 6896
  145.6357  139.2414  143.2059 H   0  0  0  0  0  0  0  0  0  0  0  0  # atno 7974 bound_to 7965
  155.6270  140.0687  157.2661 H   0  0  0  0  0  0  0  0  0  0  0  0  # atno 8008 bound_to 7997
  154.4215  140.1774  156.1480 H   0  0  0  0  0  0  0  0  0  0  0  0  # atno 8009 bound_to 7997
  155.9964  140.3340  155.6806 H   0  0  0  0  0  0  0  0  0  0  0  0  # atno 8010 bound_to 7997
  140.6205  143.8214  150.7169 H   0  0  0  0  0  0  0  0  0  0  0  0  # atno 10167 bound_to 10162
  157.6876  131.0085  150.2505 H   0  0  0  0  0  0  0  0  0  0  0  0  # atno 10718 bound_to 10713
  153.3768  135.6997  153.6595 H   0  0  0  0  0  0  0  0  0  0  0  0  # atno 10763 bound_to 10752
  153.5223  135.3609  155.2638 H   0  0  0  0  0  0  0  0  0  0  0  0  # atno 10764 bound_to 10752
  154.8688  135.4161  154.3058 H   0  0  0  0  0  0  0  0  0  0  0  0  # atno 10765 bound_to 10752
  140.9895  133.7013  156.1824 H   0  0  0  0  0  0  0  0  0  0  0  0  # atno 11005 bound_to 11000
  146.1321  140.7171  142.9407 LP  0  0  0  0  0  0  0  0  0  0  0  0  # atno 17320 bound_to 7965
  144.7176  140.4265  143.7032 LP  0  0  0  0  0  0  0  0  0  0  0  0  # atno 17321 bound_to 7965
  140.1803  143.4120  152.1937 LP  0  0  0  0  0  0  0  0  0  0  0  0  # atno 17342 bound_to 10162
  139.5435  144.7277  151.4658 LP  0  0  0  0  0  0  0  0  0  0  0  0  # atno 17343 bound_to 10162
  156.3102  130.3771  149.7668 LP  0  0  0  0  0  0  0  0  0  0  0  0  # atno 17370 bound_to 10713
  156.5271  130.8241  151.3224 LP  0  0  0  0  0  0  0  0  0  0  0  0  # atno 17371 bound_to 10713
  140.7063  134.4510  157.5584 LP  0  0  0  0  0  0  0  0  0  0  0  0  # atno 17394 bound_to 11000
  139.8985  134.8611  156.1997 LP  0  0  0  0  0  0  0  0  0  0  0  0  # atno 17395 bound_to 11000

$$$$
