AV-unprocessed.smi:3030|AV-procd|sdf|11540|dock7
  -GOLD-   2272016483D 1   1.00000     0.00000
 Structure written by MMmdl.
 52 53  0  0  0  0  0  0  0  0  1 V2000
  151.2483  145.0848  160.3018 C   0  0  0  0  0  0  0  0  0  0  0  0
  151.9977  144.1359  161.2435 C   0  0  0  0  0  0  0  0  0  0  0  0
  152.4091  142.9157  160.5645 N   0  0  0  0  0  0  0  0  0  0  0  0
  153.6086  142.2848  160.8770 C   0  0  0  0  0  0  0  0  0  0  0  0
  154.0727  141.1903  160.2438 C   0  0  0  0  0  0  0  0  0  0  0  0
  153.2839  140.6028  159.1418 C   0  0  0  0  0  0  0  0  0  0  0  0
  153.6785  139.6027  158.5421 O   0  0  0  0  0  0  0  0  0  0  0  0
  152.0039  141.2802  158.8038 C   0  0  0  0  0  0  0  0  0  0  0  0
  151.2575  140.7093  157.7595 N   0  0  0  0  0  0  0  0  0  0  0  0
  150.0864  141.1060  157.2287 C   0  0  0  0  0  0  0  0  0  0  0  0
  149.4394  142.0978  157.5633 O   0  0  0  0  0  0  0  0  0  0  0  0
  149.6987  140.2687  156.2564 N   0  0  0  0  0  0  0  0  0  0  0  0
  148.4706  140.3865  155.4720 C   0  0  1  0  0  0  0  0  0  0  0  0
  148.6018  141.5851  154.5068 C   0  0  0  0  0  0  0  0  0  0  0  0
  147.3811  141.7513  153.5825 C   0  0  2  0  0  0  0  0  0  0  0  0
  146.1485  142.3020  154.3213 C   0  0  0  0  0  0  0  0  0  0  0  0
  147.0912  140.4350  152.8388 C   0  0  0  0  0  0  0  0  0  0  0  0
  146.9409  139.2415  153.7959 C   0  0  0  0  0  0  0  0  0  0  0  0
  148.1808  139.0672  154.7047 C   0  0  2  0  0  0  0  0  0  0  0  0
  148.0983  137.8093  155.6216 C   0  0  0  0  0  0  0  0  0  0  0  0
  148.0851  136.4972  154.8182 C   0  0  0  0  0  0  0  0  0  0  0  0
  146.9349  137.8401  156.6300 C   0  0  0  0  0  0  0  0  0  0  0  0
  151.6533  142.3753  159.5261 C   0  0  0  0  0  0  0  0  0  0  0  0
  150.9545  145.9955  160.8237 H   0  0  0  0  0  0  0  0  0  0  0  0
  150.3438  144.6183  159.9105 H   0  0  0  0  0  0  0  0  0  0  0  0
  151.8713  145.3729  159.4547 H   0  0  0  0  0  0  0  0  0  0  0  0
  152.8752  144.6374  161.6535 H   0  0  0  0  0  0  0  0  0  0  0  0
  151.3649  143.8835  162.0952 H   0  0  0  0  0  0  0  0  0  0  0  0
  154.1539  142.7424  161.6898 H   0  0  0  0  0  0  0  0  0  0  0  0
  155.0093  140.7311  160.5241 H   0  0  0  0  0  0  0  0  0  0  0  0
  151.6770  139.8867  157.3506 H   0  0  0  0  0  0  0  0  0  0  0  0
  150.2940  139.4812  156.0456 H   0  0  0  0  0  0  0  0  0  0  0  0
  147.6353  140.5817  156.1455 H   0  0  0  0  0  0  0  0  0  0  0  0
  148.7649  142.5058  155.0690 H   0  0  0  0  0  0  0  0  0  0  0  0
  149.4915  141.4498  153.8898 H   0  0  0  0  0  0  0  0  0  0  0  0
  147.6437  142.4969  152.8308 H   0  0  0  0  0  0  0  0  0  0  0  0
  145.8025  141.6283  155.1047 H   0  0  0  0  0  0  0  0  0  0  0  0
  145.3182  142.4589  153.6323 H   0  0  0  0  0  0  0  0  0  0  0  0
  146.3708  143.2618  154.7883 H   0  0  0  0  0  0  0  0  0  0  0  0
  146.1946  140.5371  152.2267 H   0  0  0  0  0  0  0  0  0  0  0  0
  147.9077  140.2302  152.1454 H   0  0  0  0  0  0  0  0  0  0  0  0
  146.0441  139.3749  154.4004 H   0  0  0  0  0  0  0  0  0  0  0  0
  146.7753  138.3442  153.2011 H   0  0  0  0  0  0  0  0  0  0  0  0
  149.0323  138.9061  154.0410 H   0  0  0  0  0  0  0  0  0  0  0  0
  149.0150  137.7709  156.2098 H   0  0  0  0  0  0  0  0  0  0  0  0
  147.1551  136.3673  154.2652 H   0  0  0  0  0  0  0  0  0  0  0  0
  148.1906  135.6365  155.4791 H   0  0  0  0  0  0  0  0  0  0  0  0
  148.9088  136.4618  154.1046 H   0  0  0  0  0  0  0  0  0  0  0  0
  145.9658  137.8276  156.1318 H   0  0  0  0  0  0  0  0  0  0  0  0
  146.9742  138.7221  157.2685 H   0  0  0  0  0  0  0  0  0  0  0  0
  146.9713  136.9709  157.2872 H   0  0  0  0  0  0  0  0  0  0  0  0
  150.7376  142.9199  159.3625 H   0  0  0  0  0  0  0  0  0  0  0  0
  1  2  1  0  0  0  0
  1 24  1  0  0  0  0
  1 25  1  0  0  0  0
  1 26  1  0  0  0  0
  2  3  1  0  0  0  0
  2 27  1  0  0  0  0
  2 28  1  0  0  0  0
  3 23  1  0  0  0  0
  3  4  1  0  0  0  0
  4  5  2  0  0  0  0
  4 29  1  0  0  0  0
  5  6  1  0  0  0  0
  5 30  1  0  0  0  0
  6  7  2  0  0  0  0
  6  8  1  0  0  0  0
  8  9  1  0  0  0  0
  8 23  2  0  0  0  0
  9 10  1  0  0  0  0
  9 31  1  0  0  0  0
 10 11  2  0  0  0  0
 10 12  1  0  0  0  0
 12 13  1  0  0  0  0
 12 32  1  0  0  0  0
 13 19  1  0  0  0  0
 13 14  1  0  0  0  0
 13 33  1  0  0  0  0
 14 15  1  0  0  0  0
 14 34  1  0  0  0  0
 14 35  1  0  0  0  0
 15 16  1  0  0  0  0
 15 17  1  0  0  0  0
 15 36  1  0  0  0  0
 16 37  1  0  0  0  0
 16 38  1  0  0  0  0
 16 39  1  0  0  0  0
 17 18  1  0  0  0  0
 17 40  1  0  0  0  0
 17 41  1  0  0  0  0
 18 19  1  0  0  0  0
 18 42  1  0  0  0  0
 18 43  1  0  0  0  0
 19 20  1  0  0  0  0
 19 44  1  0  0  0  0
 20 21  1  0  0  0  0
 20 22  1  0  0  0  0
 20 45  1  0  0  0  0
 21 46  1  0  0  0  0
 21 47  1  0  0  0  0
 21 48  1  0  0  0  0
 22 49  1  0  0  0  0
 22 50  1  0  0  0  0
 22 51  1  0  0  0  0
 23 52  1  0  0  0  0
M  END
> <s_m_source_file>
AV-unprocessed.smi

> <i_m_source_file_index>
3030

> <i_lp_mmshare_version>
43012

> <i_f3d_flags>
0

> <s_epik_input>
W0NIM11bQ0gyXW4xW2NIXVtjSF1jKD1PKWMoW2NIXTEpW05IXUMoPU8pW05IXVtDQEBIXTJbQ0gyXVtDQEBIXShbQ0gzXSlbQ0gyXVtDSDJdW0NASF0yW0NIXShbQ0gzXSlbQ0gzXQ==

> <s_epik_cmdline>
J2VwaWtfcHl0aG9uJywgJy1waCcsICc3LjAnLCAnLXRuJywgJzgnLCAnLW1hJywgJzIwMCcsICctbWV0YWxfYmluZGluZycsICctaW1hZScsICc8aW5maWxlLm1hZT4nLCAnLW9tYWUnLCAnPG91dGZpbGUubWFlPic=

> <r_lp_tautomer_probability>
1

> <r_epik_Ionization_Penalty>
0.00147933

> <r_epik_Ionization_Penalty_Charging>
0.00145753

> <r_epik_Ionization_Penalty_Neutral>
2.17987e-05

> <r_epik_State_Penalty>
0.00097457

> <r_epik_Charging_Adjusted_Penalty>
0.0024321

> <i_epik_Tot_Q>
0

> <i_epik_Tot_abs_Q>
0

> <r_epik_Metal_State_Penalty>
-0

> <b_epik_Metal_Only>
0

> <s_lp_Force_Field>
OPLS_2005

> <r_lp_Energy>
11.4945

> <b_lp_Chiralities_Consistent>
1

> <s_lp_Variant>
AV-unprocessed.smi:3030-8

> <Gold.Version>
5.8.1

> <Gold.Id.Protein>
6NUR|6NUR_protein|mol2

> <Gold.PLP.Fitness>
43.5015

> <Gold.PLP.PLP>
-41.5204

> <Gold.PLP.part.hbond>
-1.0000

> <Gold.PLP.part.metal>
0.0000

> <Gold.PLP.part.buried>
-5.2335

> <Gold.PLP.part.nonpolar>
-34.6716

> <Gold.PLP.part.repulsive>
0.2452

> <Gold.PLP.ligand.clash>
0.0000

> <Gold.PLP.ligand.torsion>
0.5480

> <Gold.PLP.Chemscore.Hbond>
1.0000

> <Gold.PLP.Chemscore.CHOScore>
0.0000

> <Gold.PLP.Chemscore.Metal>
0.0000

> <Gold.Chemscore.Hbonds>
donor molecule, donor type, donor heavy atom, donor atom, acceptor molecule, acceptor atom, score
      P1  H  7997  8008       L1     7  1.00

> <Gold.PLP.Chemscore.Internal.Correction>
0.0771

> <Gold.Rescore>
     Score         DG    S(hbond)    S(metal)    S(lipo)     H(rot)  DE(clash)    DE(int)     intcor
     15.05     -17.98       0.97        0.00     106.81       1.27       1.46       1.47       ----

> <Gold.Chemscore.Fitness>
15.0495

> <Gold.Chemscore.DG>
-17.9790

> <Gold.Chemscore.ZeroCoef>
-5.4800

> <Gold.Chemscore.Hbond>
0.9729

> <Gold.Chemscore.Metal>
0.0000

> <Gold.Chemscore.Lipo>
106.8128

> <Gold.Chemscore.Internal_Hbond>
0.0000

> <Gold.Chemscore.DEClash>
1.4552

> <Gold.Chemscore.DEInternal>
1.4743

> <Gold.Chemscore.Rot>
1.2685

> <Gold.Chemscore.Internal.Correction>
   9.000000E+99

> <Gold.Chemscore.Hbonds>
donor molecule, donor type, donor heavy atom, donor atom, acceptor molecule, acceptor atom, score
      P1  H  7997  8008       L1     7  0.82

> <Gold.Chemscore.Hbond.Weighted>
-3.2494

> <Gold.Chemscore.Metal.Weighted>
-0.0000

> <Gold.Chemscore.Lipo.Weighted>
-12.4971

> <Gold.Chemscore.Internal_Hbond.Weighted>
0.0000

> <Gold.Chemscore.DEClash.Weighted>
1.4552

> <Gold.Chemscore.DEInternal.Weighted>
1.4743

> <Gold.Chemscore.Rot.Weighted>
3.2474

> <Gold.Chemscore.Internal.Correction.Weighted>
   9.000000E+99

> <Gold.Protein.RotatedTorsions>
[ 6907 6896 6895 6894 ] final  147.48 input  -60.11 | X-H torsion
[ 7974 7965 7964 7962 ] final -131.31 input  175.53 | X-H torsion
[ 8008 7997 7996 7995 ] final  -94.91 input   59.86 | X-H torsion
[ 10167 10162 10161 10158 ] final  118.42 input  -65.29 | X-H torsion
[ 10718 10713 10712 10709 ] final  -67.81 input   66.30 | X-H torsion
[ 10763 10752 10751 10750 ] final  138.61 input  -60.55 | X-H torsion
[ 11005 11000 10999 10996 ] final  -96.83 input  -57.11 | X-H torsion

> <Gold.Protein.ActiveResidues>
 VAL166  LYS551  ARG553  GLY616  TRP617  ASP618  TYR619  PRO620  LYS621  CYS622 
 ASP623  PHE694  ASN695  SER759  ASP760  ASP761  ALA762  ILE779  LEU786  VAL792 
 PHE793  MET794  SER795  GLU796  ALA797  LYS798  CYS799  TRP800  GLU811  SER814 

> <Gold.Protein.RotatedAtoms>
  152.1543  133.4541  159.4828 H   0  0  0  0  0  0  0  0  0  0  0  0  # atno 6907 bound_to 6896
  150.6899  134.2151  159.4383 H   0  0  0  0  0  0  0  0  0  0  0  0  # atno 6908 bound_to 6896
  152.0049  134.9907  160.0617 H   0  0  0  0  0  0  0  0  0  0  0  0  # atno 6909 bound_to 6896
  144.9391  140.7218  143.4858 H   0  0  0  0  0  0  0  0  0  0  0  0  # atno 7974 bound_to 7965
  154.7544  140.0485  157.0921 H   0  0  0  0  0  0  0  0  0  0  0  0  # atno 8008 bound_to 7997
  155.0016  140.3125  155.4846 H   0  0  0  0  0  0  0  0  0  0  0  0  # atno 8009 bound_to 7997
  156.2892  140.2200  156.5126 H   0  0  0  0  0  0  0  0  0  0  0  0  # atno 8010 bound_to 7997
  139.6112  144.7082  151.2839 H   0  0  0  0  0  0  0  0  0  0  0  0  # atno 10167 bound_to 10162
  156.0538  130.4284  150.1909 H   0  0  0  0  0  0  0  0  0  0  0  0  # atno 10718 bound_to 10713
  153.8924  135.3031  155.3447 H   0  0  0  0  0  0  0  0  0  0  0  0  # atno 10763 bound_to 10752
  154.7710  135.4886  153.9652 H   0  0  0  0  0  0  0  0  0  0  0  0  # atno 10764 bound_to 10752
  153.1290  135.6799  153.9308 H   0  0  0  0  0  0  0  0  0  0  0  0  # atno 10765 bound_to 10752
  141.1399  133.8126  157.0623 H   0  0  0  0  0  0  0  0  0  0  0  0  # atno 11005 bound_to 11000
  145.3020  139.1847  143.4685 LP  0  0  0  0  0  0  0  0  0  0  0  0  # atno 17320 bound_to 7965
  146.3278  140.3012  142.8621 LP  0  0  0  0  0  0  0  0  0  0  0  0  # atno 17321 bound_to 7965
  140.7320  143.6834  150.7981 LP  0  0  0  0  0  0  0  0  0  0  0  0  # atno 17342 bound_to 10162
  140.0429  143.5327  152.2709 LP  0  0  0  0  0  0  0  0  0  0  0  0  # atno 17343 bound_to 10162
  156.9988  130.9916  151.3396 LP  0  0  0  0  0  0  0  0  0  0  0  0  # atno 17370 bound_to 10713
  157.5489  130.8169  149.8120 LP  0  0  0  0  0  0  0  0  0  0  0  0  # atno 17371 bound_to 10713
  140.0563  134.9779  157.1226 LP  0  0  0  0  0  0  0  0  0  0  0  0  # atno 17394 bound_to 11000
  140.3914  134.2180  155.7166 LP  0  0  0  0  0  0  0  0  0  0  0  0  # atno 17395 bound_to 11000

$$$$
