AV-unprocessed.smi:3288|AV-procd|sdf|12606|dock2
  -GOLD-   2272018533D 1   1.00000     0.00000
 Structure written by MMmdl.
 38 39  0  0  0  0  0  0  0  0  1 V2000
  144.8524  142.1229  155.4983 C   0  0  0  0  0  0  0  0  0  0  0  0
  145.7242  143.1566  155.0695 O   0  0  0  0  0  0  0  0  0  0  0  0
  146.3231  142.9190  153.8033 C   0  0  0  0  0  0  0  0  0  0  0  0
  147.1942  141.6544  153.8068 C   0  0  0  0  0  0  0  0  0  0  0  0
  148.3340  141.8960  154.6258 O   0  0  0  0  0  0  0  0  0  0  0  0
  149.2996  140.9128  154.7310 C   0  0  0  0  0  0  0  0  0  0  0  0
  149.1552  139.7847  153.9908 N   0  0  0  0  0  0  0  0  0  0  0  0
  150.0959  138.8239  154.0934 C   0  0  0  0  0  0  0  0  0  0  0  0
  151.2207  138.9342  154.9308 C   0  0  0  0  0  0  0  0  0  0  0  0
  151.3721  140.1042  155.6974 C   0  0  0  0  0  0  0  0  0  0  0  0
  150.3947  141.1233  155.6030 C   0  0  0  0  0  0  0  0  0  0  0  0
  150.4658  142.3267  156.3239 N   0  0  0  0  0  0  0  0  0  0  0  0
  151.5288  142.6151  157.2788 C   0  0  0  0  0  0  0  0  0  0  0  0
  151.3540  141.8284  158.5898 C   0  0  0  0  0  0  0  0  0  0  0  0
  152.4312  142.2357  159.6087 C   0  0  0  0  0  0  0  0  0  0  0  0
  152.3774  143.6396  159.8413 O   0  0  0  0  0  0  0  0  0  0  0  0
  152.6353  144.4083  158.6708 C   0  0  0  0  0  0  0  0  0  0  0  0
  151.5674  144.1149  157.6046 C   0  0  0  0  0  0  0  0  0  0  0  0
  144.3925  142.4071  156.4447 H   0  0  0  0  0  0  0  0  0  0  0  0
  145.3833  141.1846  155.6584 H   0  0  0  0  0  0  0  0  0  0  0  0
  144.0524  141.9551  154.7760 H   0  0  0  0  0  0  0  0  0  0  0  0
  145.5715  142.8790  153.0134 H   0  0  0  0  0  0  0  0  0  0  0  0
  146.9557  143.7794  153.5838 H   0  0  0  0  0  0  0  0  0  0  0  0
  146.6183  140.8173  154.2048 H   0  0  0  0  0  0  0  0  0  0  0  0
  147.5062  141.4018  152.7929 H   0  0  0  0  0  0  0  0  0  0  0  0
  149.9481  137.9407  153.4899 H   0  0  0  0  0  0  0  0  0  0  0  0
  151.9509  138.1405  154.9832 H   0  0  0  0  0  0  0  0  0  0  0  0
  152.2328  140.1973  156.3417 H   0  0  0  0  0  0  0  0  0  0  0  0
  149.7135  142.9948  156.2315 H   0  0  0  0  0  0  0  0  0  0  0  0
  152.4867  142.3558  156.8276 H   0  0  0  0  0  0  0  0  0  0  0  0
  150.3672  142.0238  159.0119 H   0  0  0  0  0  0  0  0  0  0  0  0
  151.4067  140.7548  158.4096 H   0  0  0  0  0  0  0  0  0  0  0  0
  152.2676  141.7170  160.5533 H   0  0  0  0  0  0  0  0  0  0  0  0
  153.4248  141.9524  159.2581 H   0  0  0  0  0  0  0  0  0  0  0  0
  152.6202  145.4660  158.9342 H   0  0  0  0  0  0  0  0  0  0  0  0
  153.6345  144.1892  158.2914 H   0  0  0  0  0  0  0  0  0  0  0  0
  151.7754  144.6918  156.7028 H   0  0  0  0  0  0  0  0  0  0  0  0
  150.5935  144.4443  157.9701 H   0  0  0  0  0  0  0  0  0  0  0  0
  1  2  1  0  0  0  0
  1 19  1  0  0  0  0
  1 20  1  0  0  0  0
  1 21  1  0  0  0  0
  2  3  1  0  0  0  0
  3  4  1  0  0  0  0
  3 22  1  0  0  0  0
  3 23  1  0  0  0  0
  4  5  1  0  0  0  0
  4 24  1  0  0  0  0
  4 25  1  0  0  0  0
  5  6  1  0  0  0  0
  6 11  1  0  0  0  0
  6  7  2  0  0  0  0
  7  8  1  0  0  0  0
  8  9  2  0  0  0  0
  8 26  1  0  0  0  0
  9 10  1  0  0  0  0
  9 27  1  0  0  0  0
 10 11  2  0  0  0  0
 10 28  1  0  0  0  0
 11 12  1  0  0  0  0
 12 13  1  0  0  0  0
 12 29  1  0  0  0  0
 13 18  1  0  0  0  0
 13 14  1  0  0  0  0
 13 30  1  0  0  0  0
 14 15  1  0  0  0  0
 14 31  1  0  0  0  0
 14 32  1  0  0  0  0
 15 16  1  0  0  0  0
 15 33  1  0  0  0  0
 15 34  1  0  0  0  0
 16 17  1  0  0  0  0
 17 18  1  0  0  0  0
 17 35  1  0  0  0  0
 17 36  1  0  0  0  0
 18 37  1  0  0  0  0
 18 38  1  0  0  0  0
M  END
> <s_m_source_file>
AV-unprocessed.smi

> <i_m_source_file_index>
3288

> <i_lp_mmshare_version>
43012

> <i_f3d_flags>
0

> <s_epik_input>
W0NIM11PW0NIMl1bQ0gyXU9jMW5bY0hdW2NIXVtjSF1jMVtOSF1bQ0hdMltDSDJdW0NIMl1PW0NIMl1bQ0gyXTI=

> <s_epik_cmdline>
J2VwaWtfcHl0aG9uJywgJy1waCcsICc3LjAnLCAnLXRuJywgJzgnLCAnLW1hJywgJzIwMCcsICctbWV0YWxfYmluZGluZycsICctaW1hZScsICc8aW5maWxlLm1hZT4nLCAnLW9tYWUnLCAnPG91dGZpbGUubWFlPic=

> <r_lp_tautomer_probability>
1

> <r_epik_Ionization_Penalty>
0.000236303

> <r_epik_Ionization_Penalty_Charging>
0

> <r_epik_Ionization_Penalty_Neutral>
0.000236303

> <r_epik_State_Penalty>
-0

> <r_epik_Charging_Adjusted_Penalty>
0

> <i_epik_Tot_Q>
0

> <i_epik_Tot_abs_Q>
0

> <r_epik_Metal_State_Penalty>
-0

> <b_epik_Metal_Only>
0

> <s_lp_Force_Field>
OPLS_2005

> <r_lp_Energy>
13.3054

> <b_lp_Chiralities_Consistent>
1

> <s_lp_Variant>
AV-unprocessed.smi:3288-1

> <Gold.Version>
5.8.1

> <Gold.Id.Protein>
6NUR|6NUR_protein|mol2

> <Gold.PLP.Fitness>
46.2629

> <Gold.PLP.PLP>
-40.6666

> <Gold.PLP.part.hbond>
-1.0000

> <Gold.PLP.part.metal>
0.0000

> <Gold.PLP.part.buried>
-6.7965

> <Gold.PLP.part.nonpolar>
-34.3545

> <Gold.PLP.part.repulsive>
2.5515

> <Gold.PLP.ligand.clash>
0.0000

> <Gold.PLP.ligand.torsion>
0.2249

> <Gold.PLP.Chemscore.Hbond>
1.0000

> <Gold.PLP.Chemscore.CHOScore>
1.0000

> <Gold.PLP.Chemscore.Metal>
0.0000

> <Gold.Chemscore.Hbonds>
donor molecule, donor type, donor heavy atom, donor atom, acceptor molecule, acceptor atom, score
      L1  H    12    29       P1  8028  1.00
      L1  C     8    26       P1  7948  1.00

> <Gold.PLP.Chemscore.Internal.Correction>
0.0461

> <Gold.Rescore>
     Score         DG    S(hbond)    S(metal)    S(lipo)     H(rot)  DE(clash)    DE(int)     intcor
     16.24     -16.42       0.98        0.00     102.36       1.68       0.04       0.14       ----

> <Gold.Chemscore.Fitness>
16.2391

> <Gold.Chemscore.DG>
-16.4158

> <Gold.Chemscore.ZeroCoef>
-5.4800

> <Gold.Chemscore.Hbond>
0.9783

> <Gold.Chemscore.Metal>
0.0000

> <Gold.Chemscore.Lipo>
102.3570

> <Gold.Chemscore.Internal_Hbond>
0.0000

> <Gold.Chemscore.DEClash>
0.0383

> <Gold.Chemscore.DEInternal>
0.1383

> <Gold.Chemscore.Rot>
1.6826

> <Gold.Chemscore.Internal.Correction>
   9.000000E+99

> <Gold.Chemscore.Hbonds>
donor molecule, donor type, donor heavy atom, donor atom, acceptor molecule, acceptor atom, score
      L1  H    12    29       P1  8028  0.95

> <Gold.Chemscore.Hbond.Weighted>
-3.2674

> <Gold.Chemscore.Metal.Weighted>
-0.0000

> <Gold.Chemscore.Lipo.Weighted>
-11.9758

> <Gold.Chemscore.Internal_Hbond.Weighted>
0.0000

> <Gold.Chemscore.DEClash.Weighted>
0.0383

> <Gold.Chemscore.DEInternal.Weighted>
0.1383

> <Gold.Chemscore.Rot.Weighted>
4.3074

> <Gold.Chemscore.Internal.Correction.Weighted>
   9.000000E+99

> <Gold.Protein.RotatedTorsions>
[ 6907 6896 6895 6894 ] final  -99.00 input  -60.11 | X-H torsion
[ 7974 7965 7964 7962 ] final  175.04 input  175.53 | X-H torsion
[ 8008 7997 7996 7995 ] final  157.68 input   59.86 | X-H torsion
[ 10167 10162 10161 10158 ] final  -70.81 input  -65.29 | X-H torsion
[ 10718 10713 10712 10709 ] final   -7.15 input   66.30 | X-H torsion
[ 10763 10752 10751 10750 ] final  -91.41 input  -60.55 | X-H torsion
[ 11005 11000 10999 10996 ] final  143.25 input  -57.11 | X-H torsion

> <Gold.Protein.ActiveResidues>
 VAL166  LYS551  ARG553  GLY616  TRP617  ASP618  TYR619  PRO620  LYS621  CYS622 
 ASP623  PHE694  ASN695  SER759  ASP760  ASP761  ALA762  ILE779  LEU786  VAL792 
 PHE793  MET794  SER795  GLU796  ALA797  LYS798  CYS799  TRP800  GLU811  SER814 

> <Gold.Protein.RotatedAtoms>
  150.7065  134.1108  159.3999 H   0  0  0  0  0  0  0  0  0  0  0  0  # atno 6907 bound_to 6896
  151.9094  135.0343  160.0522 H   0  0  0  0  0  0  0  0  0  0  0  0  # atno 6908 bound_to 6896
  152.2348  133.5052  159.5273 H   0  0  0  0  0  0  0  0  0  0  0  0  # atno 6909 bound_to 6896
  144.7209  139.9886  143.6439 H   0  0  0  0  0  0  0  0  0  0  0  0  # atno 7974 bound_to 7965
  156.2349  140.1879  156.7145 H   0  0  0  0  0  0  0  0  0  0  0  0  # atno 8008 bound_to 7997
  154.6089  140.0625  156.9495 H   0  0  0  0  0  0  0  0  0  0  0  0  # atno 8009 bound_to 7997
  155.2049  140.3295  155.4340 H   0  0  0  0  0  0  0  0  0  0  0  0  # atno 8010 bound_to 7997
  140.5323  143.2320  151.7240 H   0  0  0  0  0  0  0  0  0  0  0  0  # atno 10167 bound_to 10162
  156.7214  130.5152  149.5867 H   0  0  0  0  0  0  0  0  0  0  0  0  # atno 10718 bound_to 10713
  154.6757  135.5269  153.8197 H   0  0  0  0  0  0  0  0  0  0  0  0  # atno 10763 bound_to 10752
  153.0531  135.6540  154.0654 H   0  0  0  0  0  0  0  0  0  0  0  0  # atno 10764 bound_to 10752
  154.0548  135.2966  155.3314 H   0  0  0  0  0  0  0  0  0  0  0  0  # atno 10765 bound_to 10752
  140.0539  134.9241  157.1066 H   0  0  0  0  0  0  0  0  0  0  0  0  # atno 11005 bound_to 11000
  146.0430  139.3439  143.0686 LP  0  0  0  0  0  0  0  0  0  0  0  0  # atno 17320 bound_to 7965
  145.8311  140.9630  143.0848 LP  0  0  0  0  0  0  0  0  0  0  0  0  # atno 17321 bound_to 7965
  139.4958  144.4096  152.0095 LP  0  0  0  0  0  0  0  0  0  0  0  0  # atno 17342 bound_to 10162
  140.3199  144.3440  150.6012 LP  0  0  0  0  0  0  0  0  0  0  0  0  # atno 17343 bound_to 10162
  156.1592  130.6362  151.0696 LP  0  0  0  0  0  0  0  0  0  0  0  0  # atno 17370 bound_to 10713
  157.6896  131.0814  150.7145 LP  0  0  0  0  0  0  0  0  0  0  0  0  # atno 17371 bound_to 10713
  140.3874  134.2221  155.7167 LP  0  0  0  0  0  0  0  0  0  0  0  0  # atno 17394 bound_to 11000
  141.1943  133.8131  157.0763 LP  0  0  0  0  0  0  0  0  0  0  0  0  # atno 17395 bound_to 11000

$$$$
