AV-unprocessed.smi:3148|AV-procd|sdf|11994|dock2
  -GOLD-   2272017403D 1   1.00000     0.00000
 Structure written by MMmdl.
 34 36  0  0  0  0  0  0  0  0  1 V2000
  154.6107  141.2727  160.3536 C   0  0  0  0  0  0  0  0  0  0  0  0
  153.7110  141.0348  159.2766 O   0  0  0  0  0  0  0  0  0  0  0  0
  152.8432  142.0464  158.9206 C   0  0  0  0  0  0  0  0  0  0  0  0
  152.8733  143.2667  159.6256 C   0  0  0  0  0  0  0  0  0  0  0  0
  151.9588  144.2559  159.2072 C   0  0  0  0  0  0  0  0  0  0  0  0
  151.8878  145.6069  159.8869 C   0  0  0  0  0  0  0  0  0  0  0  0
  151.0996  144.0457  158.1855 N   0  0  0  0  0  0  0  0  0  0  0  0
  151.1509  142.8539  157.5862 C   0  0  0  0  0  0  0  0  0  0  0  0
  150.2523  142.6679  156.5518 N   0  0  0  0  0  0  0  0  0  0  0  0
  149.7198  141.3726  156.1474 C   0  0  1  0  0  0  0  0  0  0  0  0
  148.2610  141.4454  155.6790 C   0  0  0  0  0  0  0  0  0  0  0  0
  148.3500  140.8402  154.2725 C   0  0  2  0  0  0  0  0  0  0  0  0
  148.6578  139.3370  154.3041 C   0  0  0  0  0  0  0  0  0  0  0  0
  150.1312  139.3287  154.7105 C   0  0  0  0  0  0  0  0  0  0  0  0
  150.4184  140.8257  154.8914 C   0  0  1  0  0  0  0  0  0  0  0  0
  149.6027  141.3563  153.8592 O   0  0  0  0  0  0  0  0  0  0  0  0
  151.9750  141.8474  157.8981 N   0  0  0  0  0  0  0  0  0  0  0  0
  155.2214  140.3851  160.5169 H   0  0  0  0  0  0  0  0  0  0  0  0
  154.0764  141.4823  161.2815 H   0  0  0  0  0  0  0  0  0  0  0  0
  155.2843  142.1025  160.1339 H   0  0  0  0  0  0  0  0  0  0  0  0
  153.5605  143.4305  160.4424 H   0  0  0  0  0  0  0  0  0  0  0  0
  152.6884  145.7224  160.6181 H   0  0  0  0  0  0  0  0  0  0  0  0
  150.9344  145.7197  160.4035 H   0  0  0  0  0  0  0  0  0  0  0  0
  151.9787  146.4084  159.1532 H   0  0  0  0  0  0  0  0  0  0  0  0
  149.8301  143.4957  156.1567 H   0  0  0  0  0  0  0  0  0  0  0  0
  149.8381  140.6703  156.9737 H   0  0  0  0  0  0  0  0  0  0  0  0
  147.5831  140.8925  156.3300 H   0  0  0  0  0  0  0  0  0  0  0  0
  147.9069  142.4759  155.6224 H   0  0  0  0  0  0  0  0  0  0  0  0
  147.5171  141.1094  153.6226 H   0  0  0  0  0  0  0  0  0  0  0  0
  148.0203  138.7996  155.0071 H   0  0  0  0  0  0  0  0  0  0  0  0
  148.5310  138.8921  153.3165 H   0  0  0  0  0  0  0  0  0  0  0  0
  150.3177  138.7544  155.6185 H   0  0  0  0  0  0  0  0  0  0  0  0
  150.7452  138.9122  153.9111 H   0  0  0  0  0  0  0  0  0  0  0  0
  151.4763  141.0792  154.8129 H   0  0  0  0  0  0  0  0  0  0  0  0
  1  2  1  0  0  0  0
  1 18  1  0  0  0  0
  1 19  1  0  0  0  0
  1 20  1  0  0  0  0
  2  3  1  0  0  0  0
  3 17  1  0  0  0  0
  3  4  2  0  0  0  0
  4  5  1  0  0  0  0
  4 21  1  0  0  0  0
  5  6  1  0  0  0  0
  5  7  2  0  0  0  0
  6 22  1  0  0  0  0
  6 23  1  0  0  0  0
  6 24  1  0  0  0  0
  7  8  1  0  0  0  0
  8  9  1  0  0  0  0
  8 17  2  0  0  0  0
  9 10  1  0  0  0  0
  9 25  1  0  0  0  0
 10 15  1  0  0  0  0
 10 11  1  0  0  0  0
 10 26  1  0  0  0  0
 11 12  1  0  0  0  0
 11 27  1  0  0  0  0
 11 28  1  0  0  0  0
 12 16  1  0  0  0  0
 12 13  1  0  0  0  0
 12 29  1  0  0  0  0
 13 14  1  0  0  0  0
 13 30  1  0  0  0  0
 13 31  1  0  0  0  0
 14 15  1  0  0  0  0
 14 32  1  0  0  0  0
 14 33  1  0  0  0  0
 15 16  1  0  0  0  0
 15 34  1  0  0  0  0
M  END
> <s_m_source_file>
AV-unprocessed.smi

> <i_m_source_file_index>
3148

> <i_lp_mmshare_version>
43012

> <i_f3d_flags>
0

> <s_epik_input>
W0NIM11PYzFbY0hdYyhbQ0gzXSluYyhuMSlbTkhdW0NASF0oW0NIMl1bQ0BASF0yMylbQ0BASF0oTzMpW0NIMl1bQ0gyXTI=

> <s_epik_cmdline>
J2VwaWtfcHl0aG9uJywgJy1waCcsICc3LjAnLCAnLXRuJywgJzgnLCAnLW1hJywgJzIwMCcsICctbWV0YWxfYmluZGluZycsICctaW1hZScsICc8aW5maWxlLm1hZT4nLCAnLW9tYWUnLCAnPG91dGZpbGUubWFlPic=

> <r_lp_tautomer_probability>
1

> <r_epik_Ionization_Penalty>
0.101645

> <r_epik_Ionization_Penalty_Charging>
0

> <r_epik_Ionization_Penalty_Neutral>
0.101645

> <r_epik_State_Penalty>
0.0916212

> <r_epik_Charging_Adjusted_Penalty>
0.0916212

> <i_epik_Tot_Q>
0

> <i_epik_Tot_abs_Q>
0

> <r_epik_Metal_State_Penalty>
0.0781

> <b_epik_Metal_Only>
0

> <s_lp_Force_Field>
OPLS_2005

> <r_lp_Energy>
31.271

> <b_lp_Chiralities_Consistent>
1

> <s_lp_Variant>
AV-unprocessed.smi:3148-4

> <Gold.Version>
5.8.1

> <Gold.Id.Protein>
6NUR|6NUR_protein|mol2

> <Gold.PLP.Fitness>
39.9109

> <Gold.PLP.PLP>
-35.6569

> <Gold.PLP.part.hbond>
-3.0000

> <Gold.PLP.part.metal>
0.0000

> <Gold.PLP.part.buried>
-3.6443

> <Gold.PLP.part.nonpolar>
-30.4963

> <Gold.PLP.part.repulsive>
0.9120

> <Gold.PLP.ligand.clash>
0.2500

> <Gold.PLP.ligand.torsion>
0.4594

> <Gold.PLP.Chemscore.Hbond>
1.8000

> <Gold.PLP.Chemscore.CHOScore>
0.0000

> <Gold.PLP.Chemscore.Metal>
0.0000

> <Gold.Chemscore.Hbonds>
donor molecule, donor type, donor heavy atom, donor atom, acceptor molecule, acceptor atom, score
      L1  H     9    25       P1  8028  1.00
      P1  H  8011  8017       L1    16  0.78

> <Gold.PLP.Chemscore.Internal.Correction>
0.0228

> <Gold.Rescore>
     Score         DG    S(hbond)    S(metal)    S(lipo)     H(rot)  DE(clash)    DE(int)     intcor
     16.31     -17.89       1.81        0.00      81.25       1.22       1.13       0.45       ----

> <Gold.Chemscore.Fitness>
16.3071

> <Gold.Chemscore.DG>
-17.8877

> <Gold.Chemscore.ZeroCoef>
-5.4800

> <Gold.Chemscore.Hbond>
1.8063

> <Gold.Chemscore.Metal>
0.0000

> <Gold.Chemscore.Lipo>
81.2474

> <Gold.Chemscore.Internal_Hbond>
0.0000

> <Gold.Chemscore.DEClash>
1.1268

> <Gold.Chemscore.DEInternal>
0.4538

> <Gold.Chemscore.Rot>
1.2232

> <Gold.Chemscore.Internal.Correction>
   9.000000E+99

> <Gold.Chemscore.Hbonds>
donor molecule, donor type, donor heavy atom, donor atom, acceptor molecule, acceptor atom, score
      L1  H     9    25       P1  8028  0.99
      P1  H  8011  8017       L1    16  0.77

> <Gold.Chemscore.Hbond.Weighted>
-6.0331

> <Gold.Chemscore.Metal.Weighted>
-0.0000

> <Gold.Chemscore.Lipo.Weighted>
-9.5059

> <Gold.Chemscore.Internal_Hbond.Weighted>
0.0000

> <Gold.Chemscore.DEClash.Weighted>
1.1268

> <Gold.Chemscore.DEInternal.Weighted>
0.4538

> <Gold.Chemscore.Rot.Weighted>
3.1314

> <Gold.Chemscore.Internal.Correction.Weighted>
   9.000000E+99

> <Gold.Protein.RotatedTorsions>
[ 6907 6896 6895 6894 ] final   -9.58 input  -60.11 | X-H torsion
[ 7974 7965 7964 7962 ] final -114.57 input  175.53 | X-H torsion
[ 8008 7997 7996 7995 ] final   15.74 input   59.86 | X-H torsion
[ 10167 10162 10161 10158 ] final -140.84 input  -65.29 | X-H torsion
[ 10718 10713 10712 10709 ] final  -88.21 input   66.30 | X-H torsion
[ 10763 10752 10751 10750 ] final  -12.81 input  -60.55 | X-H torsion
[ 11005 11000 10999 10996 ] final  121.14 input  -57.11 | X-H torsion

> <Gold.Protein.ActiveResidues>
 VAL166  LYS551  ARG553  GLY616  TRP617  ASP618  TYR619  PRO620  LYS621  CYS622 
 ASP623  PHE694  ASN695  SER759  ASP760  ASP761  ALA762  ILE779  LEU786  VAL792 
 PHE793  MET794  SER795  GLU796  ALA797  LYS798  CYS799  TRP800  GLU811  SER814 

> <Gold.Protein.RotatedAtoms>
  151.4156  135.0991  159.9597 H   0  0  0  0  0  0  0  0  0  0  0  0  # atno 6907 bound_to 6896
  152.5005  133.8756  159.7331 H   0  0  0  0  0  0  0  0  0  0  0  0  # atno 6908 bound_to 6896
  150.9260  133.6765  159.2849 H   0  0  0  0  0  0  0  0  0  0  0  0  # atno 6909 bound_to 6896
  145.1186  140.8655  143.3827 H   0  0  0  0  0  0  0  0  0  0  0  0  # atno 7974 bound_to 7965
  154.8670  140.2953  155.5504 H   0  0  0  0  0  0  0  0  0  0  0  0  # atno 8008 bound_to 7997
  156.3021  140.2467  156.3586 H   0  0  0  0  0  0  0  0  0  0  0  0  # atno 8009 bound_to 7997
  154.8857  140.0396  157.1798 H   0  0  0  0  0  0  0  0  0  0  0  0  # atno 8010 bound_to 7997
  139.8242  143.7533  152.2666 H   0  0  0  0  0  0  0  0  0  0  0  0  # atno 10167 bound_to 10162
  155.9984  130.4827  150.4984 H   0  0  0  0  0  0  0  0  0  0  0  0  # atno 10718 bound_to 10713
  153.5039  135.7017  153.5817 H   0  0  0  0  0  0  0  0  0  0  0  0  # atno 10763 bound_to 10752
  153.3936  135.3889  155.1940 H   0  0  0  0  0  0  0  0  0  0  0  0  # atno 10764 bound_to 10752
  154.8708  135.3864  154.4513 H   0  0  0  0  0  0  0  0  0  0  0  0  # atno 10765 bound_to 10752
  139.9214  134.9638  156.7914 H   0  0  0  0  0  0  0  0  0  0  0  0  # atno 11005 bound_to 11000
  145.0766  139.2991  143.5805 LP  0  0  0  0  0  0  0  0  0  0  0  0  # atno 17320 bound_to 7965
  146.3522  140.0258  142.8654 LP  0  0  0  0  0  0  0  0  0  0  0  0  # atno 17321 bound_to 7965
  139.7720  144.7473  151.0210 LP  0  0  0  0  0  0  0  0  0  0  0  0  # atno 17342 bound_to 10162
  140.7811  143.4634  151.0246 LP  0  0  0  0  0  0  0  0  0  0  0  0  # atno 17343 bound_to 10162
  157.2972  131.0638  151.2093 LP  0  0  0  0  0  0  0  0  0  0  0  0  # atno 17370 bound_to 10713
  157.3086  130.6878  149.6203 LP  0  0  0  0  0  0  0  0  0  0  0  0  # atno 17371 bound_to 10713
  140.6464  133.9771  155.7733 LP  0  0  0  0  0  0  0  0  0  0  0  0  # atno 17394 bound_to 11000
  141.0737  134.0167  157.3489 LP  0  0  0  0  0  0  0  0  0  0  0  0  # atno 17395 bound_to 11000

$$$$
