AV-unprocessed.smi:837|AV-procd|sdf|3900|dock4
  -GOLD-   22720 1363D 1   1.00000     0.00000
 Structure written by MMmdl.
 48 50  0  0  0  0  0  0  0  0  2 V2000
  150.9009  141.9294  156.3903 C   0  0  0  0  0  0  0  0  0  0  0  0
  151.3857  141.1975  157.6610 C   0  0  2  0  0  0  0  0  0  0  0  0
  152.4502  142.0337  158.4038 C   0  0  0  0  0  0  0  0  0  0  0  0
  152.8626  141.3823  159.7323 C   0  0  0  0  0  0  0  0  0  0  0  0
  153.3681  139.9501  159.5150 C   0  0  0  0  0  0  0  0  0  0  0  0
  152.3230  139.0943  158.7778 C   0  0  0  0  0  0  0  0  0  0  0  0
  151.8706  139.7277  157.4362 C   0  0  2  0  0  0  0  0  0  0  0  0
  152.9470  139.6573  156.4602 N   0  5  0  0  0  0  0  0  0  0  0  0
  152.5522  138.8800  155.4256 C   0  0  0  0  0  0  0  0  0  0  0  0
  153.2056  138.6098  154.4183 O   0  0  0  0  0  0  0  0  0  0  0  0
  151.3048  138.4112  155.6202 N   0  0  0  0  0  0  0  0  0  0  0  0
  150.5726  137.5609  154.6723 C   0  0  0  0  0  0  0  0  0  0  0  0
  150.6550  136.0701  155.0258 C   0  0  0  0  0  0  0  0  0  0  0  0
  151.4844  135.6606  155.8392 O   0  0  0  0  0  0  0  0  0  0  0  0
  149.7998  135.2629  154.3805 N   0  0  0  0  0  0  0  0  0  0  0  0
  149.7204  133.8161  154.5546 C   0  0  0  0  0  0  0  0  0  0  0  0
  149.4281  133.0800  153.2339 C   0  0  0  0  0  0  0  0  0  0  0  0
  147.9443  132.9441  152.9388 C   0  0  0  0  0  0  0  0  0  0  0  0
  147.3972  133.4206  151.7294 C   0  0  0  0  0  0  0  0  0  0  0  0
  146.0140  133.2764  151.5080 C   0  0  0  0  0  0  0  0  0  0  0  0
  145.2351  132.6611  152.5083 C   0  0  0  0  0  0  0  0  0  0  0  0
  145.7482  132.2018  153.6700 N   0  0  0  0  0  0  0  0  0  0  0  0
  147.0756  132.3420  153.8736 C   0  0  0  0  0  0  0  0  0  0  0  0
  150.8080  138.8572  156.7793 C   0  0  0  0  0  0  0  0  0  0  0  0
  149.6944  138.6315  157.2556 O   0  0  0  0  0  0  0  0  0  0  0  0
  151.7012  142.0365  155.6578 H   0  0  0  0  0  0  0  0  0  0  0  0
  150.5443  142.9307  156.6322 H   0  0  0  0  0  0  0  0  0  0  0  0
  150.0759  141.4057  155.9078 H   0  0  0  0  0  0  0  0  0  0  0  0
  150.5208  141.1468  158.3248 H   0  0  0  0  0  0  0  0  0  0  0  0
  153.3293  142.1627  157.7709 H   0  0  0  0  0  0  0  0  0  0  0  0
  152.0665  143.0353  158.5995 H   0  0  0  0  0  0  0  0  0  0  0  0
  153.6373  141.9799  160.2132 H   0  0  0  0  0  0  0  0  0  0  0  0
  152.0116  141.3710  160.4142 H   0  0  0  0  0  0  0  0  0  0  0  0
  154.2967  139.9722  158.9435 H   0  0  0  0  0  0  0  0  0  0  0  0
  153.6101  139.4928  160.4745 H   0  0  0  0  0  0  0  0  0  0  0  0
  152.7217  138.0911  158.6164 H   0  0  0  0  0  0  0  0  0  0  0  0
  151.4579  138.9696  159.4314 H   0  0  0  0  0  0  0  0  0  0  0  0
  149.5286  137.8764  154.6298 H   0  0  0  0  0  0  0  0  0  0  0  0
  150.9620  137.6939  153.6618 H   0  0  0  0  0  0  0  0  0  0  0  0
  149.1570  135.6812  153.7239 H   0  0  0  0  0  0  0  0  0  0  0  0
  150.6396  133.4378  155.0045 H   0  0  0  0  0  0  0  0  0  0  0  0
  148.9236  133.6132  155.2706 H   0  0  0  0  0  0  0  0  0  0  0  0
  149.9108  133.6010  152.4058 H   0  0  0  0  0  0  0  0  0  0  0  0
  149.8725  132.0846  153.2633 H   0  0  0  0  0  0  0  0  0  0  0  0
  148.0236  133.8917  150.9859 H   0  0  0  0  0  0  0  0  0  0  0  0
  145.5602  133.6304  150.5941 H   0  0  0  0  0  0  0  0  0  0  0  0
  144.1711  132.5359  152.3721 H   0  0  0  0  0  0  0  0  0  0  0  0
  147.4552  131.9671  154.8127 H   0  0  0  0  0  0  0  0  0  0  0  0
  1  2  1  0  0  0  0
  1 26  1  0  0  0  0
  1 27  1  0  0  0  0
  1 28  1  0  0  0  0
  2  7  1  0  0  0  0
  2  3  1  0  0  0  0
  2 29  1  0  0  0  0
  3  4  1  0  0  0  0
  3 30  1  0  0  0  0
  3 31  1  0  0  0  0
  4  5  1  0  0  0  0
  4 32  1  0  0  0  0
  4 33  1  0  0  0  0
  5  6  1  0  0  0  0
  5 34  1  0  0  0  0
  5 35  1  0  0  0  0
  6  7  1  0  0  0  0
  6 36  1  0  0  0  0
  6 37  1  0  0  0  0
  7 24  1  0  0  0  0
  7  8  1  0  0  0  0
  8  9  1  0  0  0  0
  9 10  2  0  0  0  0
  9 11  1  0  0  0  0
 11 12  1  0  0  0  0
 11 24  1  0  0  0  0
 12 13  1  0  0  0  0
 12 38  1  0  0  0  0
 12 39  1  0  0  0  0
 13 14  2  0  0  0  0
 13 15  1  0  0  0  0
 15 16  1  0  0  0  0
 15 40  1  0  0  0  0
 16 17  1  0  0  0  0
 16 41  1  0  0  0  0
 16 42  1  0  0  0  0
 17 18  1  0  0  0  0
 17 43  1  0  0  0  0
 17 44  1  0  0  0  0
 18 23  1  0  0  0  0
 18 19  2  0  0  0  0
 19 20  1  0  0  0  0
 19 45  1  0  0  0  0
 20 21  2  0  0  0  0
 20 46  1  0  0  0  0
 21 22  1  0  0  0  0
 21 47  1  0  0  0  0
 22 23  2  0  0  0  0
 23 48  1  0  0  0  0
 24 25  2  0  0  0  0
M  CHG  1   8  -1
M  END
> <s_m_source_file>
AV-unprocessed.smi

> <i_m_source_file_index>
837

> <i_lp_mmshare_version>
43012

> <i_f3d_flags>
0

> <s_epik_input>
W0NIMl0xW0NIMl1bQ0gyXVtDSDJdW0NAQEhdKFtDSDNdKVtDQEBdMTJbTkhdQyg9TylOKEMyPU8pW0NIMl1DKD1PKVtOSF1bQ0gyXVtDSDJdYzNbY0hdW2NIXVtjSF1uW2NIXTM=

> <s_epik_cmdline>
J2VwaWtfcHl0aG9uJywgJy1waCcsICc3LjAnLCAnLXRuJywgJzgnLCAnLW1hJywgJzIwMCcsICctbWV0YWxfYmluZGluZycsICctaW1hZScsICc8aW5maWxlLm1hZT4nLCAnLW9tYWUnLCAnPG91dGZpbGUubWFlPic=

> <r_lp_tautomer_probability>
1

> <r_epik_Ionization_Penalty>
6.03002

> <r_epik_Ionization_Penalty_Charging>
6.01728

> <r_epik_Ionization_Penalty_Neutral>
0.0127382

> <r_epik_State_Penalty>
6.02713

> <r_epik_Charging_Adjusted_Penalty>
12.0444

> <i_epik_Tot_Q>
-1

> <i_epik_Tot_abs_Q>
1

> <r_epik_Metal_State_Penalty>
1.99078

> <b_epik_Metal_Only>
1

> <s_lp_Force_Field>
OPLS_2005

> <r_lp_Energy>
20.4671

> <b_lp_Chiralities_Consistent>
1

> <s_lp_Variant>
AV-unprocessed.smi:837-9

> <Gold.Version>
5.8.1

> <Gold.Id.Protein>
6NUR|6NUR_protein|mol2

> <Gold.PLP.Fitness>
49.9656

> <Gold.PLP.PLP>
-39.9192

> <Gold.PLP.part.hbond>
-3.0317

> <Gold.PLP.part.metal>
0.0000

> <Gold.PLP.part.buried>
-6.3496

> <Gold.PLP.part.nonpolar>
-29.8473

> <Gold.PLP.part.repulsive>
0.2822

> <Gold.PLP.ligand.clash>
0.0000

> <Gold.PLP.ligand.torsion>
0.8441

> <Gold.PLP.Chemscore.Hbond>
3.9033

> <Gold.PLP.Chemscore.CHOScore>
0.0000

> <Gold.PLP.Chemscore.Metal>
0.0000

> <Gold.Chemscore.Hbonds>
donor molecule, donor type, donor heavy atom, donor atom, acceptor molecule, acceptor atom, score
      L1  H    15    40       P1  7948  0.83
      P1  H  7997  8010       L1     8  1.69
      P1  H 10752 10763       L1    14  1.00
      L1  C    21    47       P1 10957  0.01

> <Gold.PLP.Chemscore.Internal.Correction>
0.0249

> <Gold.Rescore>
     Score         DG    S(hbond)    S(metal)    S(lipo)     H(rot)  DE(clash)    DE(int)     intcor
     19.16     -20.26       2.46        0.00      95.69       1.81       0.25       0.86       ----

> <Gold.Chemscore.Fitness>
19.1582

> <Gold.Chemscore.DG>
-20.2636

> <Gold.Chemscore.ZeroCoef>
-5.4800

> <Gold.Chemscore.Hbond>
2.4607

> <Gold.Chemscore.Metal>
0.0000

> <Gold.Chemscore.Lipo>
95.6926

> <Gold.Chemscore.Internal_Hbond>
0.0000

> <Gold.Chemscore.DEClash>
0.2491

> <Gold.Chemscore.DEInternal>
0.8563

> <Gold.Chemscore.Rot>
1.8090

> <Gold.Chemscore.Internal.Correction>
   9.000000E+99

> <Gold.Chemscore.Hbonds>
donor molecule, donor type, donor heavy atom, donor atom, acceptor molecule, acceptor atom, score
      L1  H    15    40       P1  7948  0.62
      P1  H  7997  8010       L1     8  0.79
      P1  H 10752 10763       L1    14  0.50

> <Gold.Chemscore.Hbond.Weighted>
-8.2186

> <Gold.Chemscore.Metal.Weighted>
-0.0000

> <Gold.Chemscore.Lipo.Weighted>
-11.1960

> <Gold.Chemscore.Internal_Hbond.Weighted>
0.0000

> <Gold.Chemscore.DEClash.Weighted>
0.2491

> <Gold.Chemscore.DEInternal.Weighted>
0.8563

> <Gold.Chemscore.Rot.Weighted>
4.6310

> <Gold.Chemscore.Internal.Correction.Weighted>
   9.000000E+99

> <Gold.Protein.RotatedTorsions>
[ 6907 6896 6895 6894 ] final  -21.63 input  -60.11 | X-H torsion
[ 7974 7965 7964 7962 ] final  129.46 input  175.53 | X-H torsion
[ 8008 7997 7996 7995 ] final   67.35 input   59.86 | X-H torsion
[ 10167 10162 10161 10158 ] final   63.99 input  -65.29 | X-H torsion
[ 10718 10713 10712 10709 ] final   11.55 input   66.30 | X-H torsion
[ 10763 10752 10751 10750 ] final   78.23 input  -60.55 | X-H torsion
[ 11005 11000 10999 10996 ] final -168.83 input  -57.11 | X-H torsion

> <Gold.Protein.ActiveResidues>
 VAL166  LYS551  ARG553  GLY616  TRP617  ASP618  TYR619  PRO620  LYS621  CYS622 
 ASP623  PHE694  ASN695  SER759  ASP760  ASP761  ALA762  ILE779  LEU786  VAL792 
 PHE793  MET794  SER795  GLU796  ALA797  LYS798  CYS799  TRP800  GLU811  SER814 

> <Gold.Protein.RotatedAtoms>
  151.2305  135.0552  159.8985 H   0  0  0  0  0  0  0  0  0  0  0  0  # atno 6907 bound_to 6896
  152.5405  134.0542  159.8134 H   0  0  0  0  0  0  0  0  0  0  0  0  # atno 6908 bound_to 6896
  151.0721  133.5409  159.2658 H   0  0  0  0  0  0  0  0  0  0  0  0  # atno 6909 bound_to 6896
  145.0284  139.4068  143.5162 H   0  0  0  0  0  0  0  0  0  0  0  0  # atno 7974 bound_to 7965
  155.6915  140.3496  155.4895 H   0  0  0  0  0  0  0  0  0  0  0  0  # atno 8008 bound_to 7997
  155.9520  140.1121  157.0991 H   0  0  0  0  0  0  0  0  0  0  0  0  # atno 8009 bound_to 7997
  154.4124  140.1192  156.5051 H   0  0  0  0  0  0  0  0  0  0  0  0  # atno 8010 bound_to 7997
  140.1271  144.4678  150.6886 H   0  0  0  0  0  0  0  0  0  0  0  0  # atno 10167 bound_to 10162
  156.9972  130.6065  149.5692 H   0  0  0  0  0  0  0  0  0  0  0  0  # atno 10718 bound_to 10713
  153.0859  135.4884  154.8595 H   0  0  0  0  0  0  0  0  0  0  0  0  # atno 10763 bound_to 10752
  154.7209  135.3039  154.9051 H   0  0  0  0  0  0  0  0  0  0  0  0  # atno 10764 bound_to 10752
  153.9715  135.6800  153.4800 H   0  0  0  0  0  0  0  0  0  0  0  0  # atno 10765 bound_to 10752
  140.5376  134.5554  157.5091 H   0  0  0  0  0  0  0  0  0  0  0  0  # atno 11005 bound_to 11000
  146.3495  139.9821  142.8694 LP  0  0  0  0  0  0  0  0  0  0  0  0  # atno 17320 bound_to 7965
  145.1802  140.9763  143.4270 LP  0  0  0  0  0  0  0  0  0  0  0  0  # atno 17321 bound_to 7965
  140.6839  143.2340  151.5313 LP  0  0  0  0  0  0  0  0  0  0  0  0  # atno 17342 bound_to 10162
  139.5539  144.2326  152.1578 LP  0  0  0  0  0  0  0  0  0  0  0  0  # atno 17343 bound_to 10162
  156.0184  130.5279  150.8205 LP  0  0  0  0  0  0  0  0  0  0  0  0  # atno 17370 bound_to 10713
  157.5416  131.0941  150.9820 LP  0  0  0  0  0  0  0  0  0  0  0  0  # atno 17371 bound_to 10713
  139.9521  134.7599  156.0425 LP  0  0  0  0  0  0  0  0  0  0  0  0  # atno 17394 bound_to 11000
  141.1246  133.6603  156.3302 LP  0  0  0  0  0  0  0  0  0  0  0  0  # atno 17395 bound_to 11000

$$$$
