AV-unprocessed.smi:3287|AV-procd|sdf|12598|dock3
  -GOLD-   2272018523D 1   1.00000     0.00000
 Structure written by MMmdl.
 43 44  0  0  0  0  0  0  0  0  2 V2000
  152.8836  142.7416  161.0399 C   0  0  0  0  0  0  0  0  0  0  0  0
  151.9633  142.5433  159.8243 C   0  0  2  0  0  0  0  0  0  0  0  0
  152.4173  141.3594  158.9482 C   0  0  0  0  0  0  0  0  0  0  0  0
  151.4447  141.1116  157.7841 C   0  0  0  0  0  0  0  0  0  0  0  0
  151.2441  142.3789  156.9275 C   0  0  1  0  0  0  0  0  0  0  0  0
  150.2477  142.1588  155.8561 N   0  3  0  0  0  0  0  0  0  0  0  0
  149.6443  140.8089  155.8162 C   0  0  0  0  0  0  0  0  0  0  0  0
  148.7051  140.6507  154.6076 C   0  0  2  0  0  0  0  0  0  0  0  0
  149.4188  140.9790  153.4313 O   0  0  0  0  0  0  0  0  0  0  0  0
  147.4570  141.5049  154.7642 C   0  0  0  0  0  0  0  0  0  0  0  0
  146.6477  141.3861  155.9135 C   0  0  0  0  0  0  0  0  0  0  0  0
  145.5027  142.2010  156.0190 C   0  0  0  0  0  0  0  0  0  0  0  0
  145.1401  143.0960  155.0757 N   0  0  0  0  0  0  0  0  0  0  0  0
  145.9189  143.2080  153.9786 C   0  0  0  0  0  0  0  0  0  0  0  0
  147.0829  142.4401  153.7748 C   0  0  0  0  0  0  0  0  0  0  0  0
  150.7966  143.5577  157.8151 C   0  0  0  0  0  0  0  0  0  0  0  0
  151.7675  143.8308  158.9836 C   0  0  2  0  0  0  0  0  0  0  0  0
  153.0815  144.4744  158.4961 C   0  0  0  0  0  0  0  0  0  0  0  0
  153.9161  142.9239  160.7415 H   0  0  0  0  0  0  0  0  0  0  0  0
  152.8812  141.8567  161.6771 H   0  0  0  0  0  0  0  0  0  0  0  0
  152.5554  143.5841  161.6493 H   0  0  0  0  0  0  0  0  0  0  0  0
  150.9836  142.2805  160.2268 H   0  0  0  0  0  0  0  0  0  0  0  0
  153.4194  141.5410  158.5586 H   0  0  0  0  0  0  0  0  0  0  0  0
  152.4885  140.4564  159.5557 H   0  0  0  0  0  0  0  0  0  0  0  0
  151.8261  140.2914  157.1762 H   0  0  0  0  0  0  0  0  0  0  0  0
  150.4843  140.7798  158.1813 H   0  0  0  0  0  0  0  0  0  0  0  0
  152.1902  142.6445  156.4542 H   0  0  0  0  0  0  0  0  0  0  0  0
  149.5107  142.8438  155.9479 H   0  0  0  0  0  0  0  0  0  0  0  0
  150.4464  140.0721  155.7530 H   0  0  0  0  0  0  0  0  0  0  0  0
  149.1001  140.6110  156.7399 H   0  0  0  0  0  0  0  0  0  0  0  0
  148.4005  139.6064  154.5225 H   0  0  0  0  0  0  0  0  0  0  0  0
  149.2216  140.3315  152.7708 H   0  0  0  0  0  0  0  0  0  0  0  0
  146.8929  140.6880  156.7002 H   0  0  0  0  0  0  0  0  0  0  0  0
  144.8616  142.1322  156.8854 H   0  0  0  0  0  0  0  0  0  0  0  0
  145.6063  143.9323  153.2410 H   0  0  0  0  0  0  0  0  0  0  0  0
  147.6715  142.5710  152.8783 H   0  0  0  0  0  0  0  0  0  0  0  0
  150.6819  144.4589  157.2112 H   0  0  0  0  0  0  0  0  0  0  0  0
  149.8074  143.3440  158.2232 H   0  0  0  0  0  0  0  0  0  0  0  0
  151.2874  144.5697  159.6268 H   0  0  0  0  0  0  0  0  0  0  0  0
  153.6777  143.7909  157.8923 H   0  0  0  0  0  0  0  0  0  0  0  0
  153.6999  144.8011  159.3319 H   0  0  0  0  0  0  0  0  0  0  0  0
  152.8800  145.3575  157.8891 H   0  0  0  0  0  0  0  0  0  0  0  0
  150.7107  142.3065  154.9709 H   0  0  0  0  0  0  0  0  0  0  0  0
  1  2  1  0  0  0  0
  1 19  1  0  0  0  0
  1 20  1  0  0  0  0
  1 21  1  0  0  0  0
  2 17  1  0  0  0  0
  2  3  1  0  0  0  0
  2 22  1  0  0  0  0
  3  4  1  0  0  0  0
  3 23  1  0  0  0  0
  3 24  1  0  0  0  0
  4  5  1  0  0  0  0
  4 25  1  0  0  0  0
  4 26  1  0  0  0  0
  5  6  1  0  0  0  0
  5 16  1  0  0  0  0
  5 27  1  0  0  0  0
  6  7  1  0  0  0  0
  6 28  1  0  0  0  0
  6 43  1  0  0  0  0
  7  8  1  0  0  0  0
  7 29  1  0  0  0  0
  7 30  1  0  0  0  0
  8  9  1  0  0  0  0
  8 10  1  0  0  0  0
  8 31  1  0  0  0  0
  9 32  1  0  0  0  0
 10 15  1  0  0  0  0
 10 11  2  0  0  0  0
 11 12  1  0  0  0  0
 11 33  1  0  0  0  0
 12 13  2  0  0  0  0
 12 34  1  0  0  0  0
 13 14  1  0  0  0  0
 14 15  2  0  0  0  0
 14 35  1  0  0  0  0
 15 36  1  0  0  0  0
 16 17  1  0  0  0  0
 16 37  1  0  0  0  0
 16 38  1  0  0  0  0
 17 18  1  0  0  0  0
 17 39  1  0  0  0  0
 18 40  1  0  0  0  0
 18 41  1  0  0  0  0
 18 42  1  0  0  0  0
M  CHG  1   6   1
M  END
> <s_m_source_file>
AV-unprocessed.smi

> <i_m_source_file_index>
3287

> <i_lp_mmshare_version>
43012

> <i_f3d_flags>
0

> <s_epik_input>
W0NIM11bQ0BASF0xW0NIMl1bQ0gyXVtDQEhdKFtDSDJdW0NASF0xW0NIM10pW05IXVtDSDJdW0NASF0oW09IXSljMltjSF1bY0hdbltjSF1bY0hdMg==

> <s_epik_cmdline>
J2VwaWtfcHl0aG9uJywgJy1waCcsICc3LjAnLCAnLXRuJywgJzgnLCAnLW1hJywgJzIwMCcsICctbWV0YWxfYmluZGluZycsICctaW1hZScsICc8aW5maWxlLm1hZT4nLCAnLW9tYWUnLCAnPG91dGZpbGUubWFlPic=

> <r_lp_tautomer_probability>
1

> <r_epik_Ionization_Penalty>
0.00537262

> <r_epik_Ionization_Penalty_Charging>
0.00321624

> <r_epik_Ionization_Penalty_Neutral>
0.00215638

> <r_epik_State_Penalty>
-0

> <r_epik_Charging_Adjusted_Penalty>
0.00321624

> <i_epik_Tot_Q>
1

> <i_epik_Tot_abs_Q>
1

> <r_epik_Metal_State_Penalty>
-0

> <b_epik_Metal_Only>
0

> <s_lp_Force_Field>
OPLS_2005

> <r_lp_Energy>
18.5341

> <b_lp_Chiralities_Consistent>
1

> <s_lp_Variant>
AV-unprocessed.smi:3287-9

> <Gold.Version>
5.8.1

> <Gold.Id.Protein>
6NUR|6NUR_protein|mol2

> <Gold.PLP.Fitness>
47.8433

> <Gold.PLP.PLP>
-40.0499

> <Gold.PLP.part.hbond>
-3.6813

> <Gold.PLP.part.metal>
0.0000

> <Gold.PLP.part.buried>
-5.3278

> <Gold.PLP.part.nonpolar>
-30.9838

> <Gold.PLP.part.repulsive>
0.3338

> <Gold.PLP.ligand.clash>
2.3605

> <Gold.PLP.ligand.torsion>
0.8186

> <Gold.PLP.Chemscore.Hbond>
3.9232

> <Gold.PLP.Chemscore.CHOScore>
0.0000

> <Gold.PLP.Chemscore.Metal>
0.0000

> <Gold.Chemscore.Hbonds>
donor molecule, donor type, donor heavy atom, donor atom, acceptor molecule, acceptor atom, score
      L1  H     6    28       P1  8028  1.92
      L1  H     9    32       P1  7957  0.75
      P1  H  7989  7998       L1     9  0.16
      P1  H  8011  8017       L1     9  0.95

> <Gold.PLP.Chemscore.Internal.Correction>
0.0216

> <Gold.Rescore>
     Score         DG    S(hbond)    S(metal)    S(lipo)     H(rot)  DE(clash)    DE(int)     intcor
     19.88     -22.45       2.21        0.00     123.70       1.90       1.79       0.79       ----

> <Gold.Chemscore.Fitness>
19.8763

> <Gold.Chemscore.DG>
-22.4515

> <Gold.Chemscore.ZeroCoef>
-5.4800

> <Gold.Chemscore.Hbond>
2.2069

> <Gold.Chemscore.Metal>
0.0000

> <Gold.Chemscore.Lipo>
123.7036

> <Gold.Chemscore.Internal_Hbond>
0.0000

> <Gold.Chemscore.DEClash>
1.7889

> <Gold.Chemscore.DEInternal>
0.7863

> <Gold.Chemscore.Rot>
1.9035

> <Gold.Chemscore.Internal.Correction>
   9.000000E+99

> <Gold.Chemscore.Hbonds>
donor molecule, donor type, donor heavy atom, donor atom, acceptor molecule, acceptor atom, score
      L1  H     6    28       P1  8028  0.89
      L1  H     9    32       P1  7957  0.74
      P1  H  7989  7998       L1     9  0.04
      P1  H  8011  8017       L1     9  0.21

> <Gold.Chemscore.Hbond.Weighted>
-7.3711

> <Gold.Chemscore.Metal.Weighted>
-0.0000

> <Gold.Chemscore.Lipo.Weighted>
-14.4733

> <Gold.Chemscore.Internal_Hbond.Weighted>
0.0000

> <Gold.Chemscore.DEClash.Weighted>
1.7889

> <Gold.Chemscore.DEInternal.Weighted>
0.7863

> <Gold.Chemscore.Rot.Weighted>
4.8729

> <Gold.Chemscore.Internal.Correction.Weighted>
   9.000000E+99

> <Gold.Protein.RotatedTorsions>
[ 6907 6896 6895 6894 ] final -179.54 input  -60.11 | X-H torsion
[ 7974 7965 7964 7962 ] final  -27.27 input  175.53 | X-H torsion
[ 8008 7997 7996 7995 ] final   65.74 input   59.86 | X-H torsion
[ 10167 10162 10161 10158 ] final   95.45 input  -65.29 | X-H torsion
[ 10718 10713 10712 10709 ] final  -29.91 input   66.30 | X-H torsion
[ 10763 10752 10751 10750 ] final   21.97 input  -60.55 | X-H torsion
[ 11005 11000 10999 10996 ] final   55.39 input  -57.11 | X-H torsion

> <Gold.Protein.ActiveResidues>
 VAL166  LYS551  ARG553  GLY616  TRP617  ASP618  TYR619  PRO620  LYS621  CYS622 
 ASP623  PHE694  ASN695  SER759  ASP760  ASP761  ALA762  ILE779  LEU786  VAL792 
 PHE793  MET794  SER795  GLU796  ALA797  LYS798  CYS799  TRP800  GLU811  SER814 

> <Gold.Protein.RotatedAtoms>
  151.6551  133.3319  159.3160 H   0  0  0  0  0  0  0  0  0  0  0  0  # atno 6907 bound_to 6896
  150.7941  134.6991  159.6549 H   0  0  0  0  0  0  0  0  0  0  0  0  # atno 6908 bound_to 6896
  152.4025  134.6266  160.0116 H   0  0  0  0  0  0  0  0  0  0  0  0  # atno 6909 bound_to 6896
  146.1369  140.5130  142.8669 H   0  0  0  0  0  0  0  0  0  0  0  0  # atno 7974 bound_to 7965
  155.6665  140.3497  155.4802 H   0  0  0  0  0  0  0  0  0  0  0  0  # atno 8008 bound_to 7997
  155.9724  140.1158  157.0823 H   0  0  0  0  0  0  0  0  0  0  0  0  # atno 8009 bound_to 7997
  154.4170  140.1154  156.5311 H   0  0  0  0  0  0  0  0  0  0  0  0  # atno 8010 bound_to 7997
  139.7987  144.6822  150.9794 H   0  0  0  0  0  0  0  0  0  0  0  0  # atno 10167 bound_to 10162
  156.4064  130.4400  149.7284 H   0  0  0  0  0  0  0  0  0  0  0  0  # atno 10718 bound_to 10713
  153.0952  135.6658  153.9776 H   0  0  0  0  0  0  0  0  0  0  0  0  # atno 10763 bound_to 10752
  153.9362  135.2999  155.3445 H   0  0  0  0  0  0  0  0  0  0  0  0  # atno 10764 bound_to 10752
  154.7370  135.5097  153.9133 H   0  0  0  0  0  0  0  0  0  0  0  0  # atno 10765 bound_to 10752
  140.0611  134.5601  155.9151 H   0  0  0  0  0  0  0  0  0  0  0  0  # atno 11005 bound_to 11000
  144.7749  140.5718  143.6645 LP  0  0  0  0  0  0  0  0  0  0  0  0  # atno 17320 bound_to 7965
  145.5136  139.1478  143.3591 LP  0  0  0  0  0  0  0  0  0  0  0  0  # atno 17321 bound_to 7965
  140.7820  143.4304  151.0703 LP  0  0  0  0  0  0  0  0  0  0  0  0  # atno 17342 bound_to 10162
  139.7977  143.8128  152.3159 LP  0  0  0  0  0  0  0  0  0  0  0  0  # atno 17343 bound_to 10162
  156.4280  130.7801  151.2820 LP  0  0  0  0  0  0  0  0  0  0  0  0  # atno 17370 bound_to 10713
  157.7506  131.0162  150.3537 LP  0  0  0  0  0  0  0  0  0  0  0  0  # atno 17371 bound_to 10713
  141.1973  133.6596  156.5736 LP  0  0  0  0  0  0  0  0  0  0  0  0  # atno 17394 bound_to 11000
  140.3769  134.7557  157.4636 LP  0  0  0  0  0  0  0  0  0  0  0  0  # atno 17395 bound_to 11000

$$$$
