AV-unprocessed.smi:3306|AV-procd|sdf|12704|dock3
  -GOLD-   2272019 33D 1   1.00000     0.00000
 Structure written by MMmdl.
 44 45  0  0  0  0  0  0  0  0  2 V2000
  146.6698  139.0146  151.3357 C   0  0  0  0  0  0  0  0  0  0  0  0
  147.1664  138.6226  152.7439 C   0  0  0  0  0  0  0  0  0  0  0  0
  145.9353  138.3335  153.6286 C   0  0  0  0  0  0  0  0  0  0  0  0
  148.0685  139.6510  153.3601 N   0  3  2  0  0  0  0  0  0  0  0  0
  148.8319  139.1609  154.5454 C   0  0  0  0  0  0  0  0  0  0  0  0
  149.8173  140.2171  155.0720 C   0  0  0  0  0  0  0  0  0  0  0  0
  149.1008  141.5249  155.4302 C   0  0  1  0  0  0  0  0  0  0  0  0
  150.1055  142.5015  155.8293 N   0  0  0  0  0  0  0  0  0  0  0  0
  150.5935  142.2673  157.1822 C   0  0  0  0  0  0  0  0  0  0  0  0
  151.2779  143.5244  157.7466 C   0  0  0  0  0  0  0  0  0  0  0  0
  151.7382  143.3652  159.1865 C   0  0  0  0  0  0  0  0  0  0  0  0
  152.5992  142.3072  159.5491 C   0  0  0  0  0  0  0  0  0  0  0  0
  152.9863  142.1884  160.8981 C   0  0  0  0  0  0  0  0  0  0  0  0
  152.4995  143.1265  161.8285 C   0  0  0  0  0  0  0  0  0  0  0  0
  151.6437  144.1461  161.3665 C   0  0  0  0  0  0  0  0  0  0  0  0
  151.2660  144.2684  160.0757 N   0  0  0  0  0  0  0  0  0  0  0  0
  148.3196  142.0088  154.1974 C   0  0  0  0  0  0  0  0  0  0  0  0
  147.3593  140.9230  153.6855 C   0  0  0  0  0  0  0  0  0  0  0  0
  145.9257  138.3058  150.9705 H   0  0  0  0  0  0  0  0  0  0  0  0
  147.4728  139.0094  150.5987 H   0  0  0  0  0  0  0  0  0  0  0  0
  146.2076  140.0025  151.3352 H   0  0  0  0  0  0  0  0  0  0  0  0
  147.7338  137.6960  152.6418 H   0  0  0  0  0  0  0  0  0  0  0  0
  145.2342  137.6713  153.1198 H   0  0  0  0  0  0  0  0  0  0  0  0
  145.3988  139.2507  153.8742 H   0  0  0  0  0  0  0  0  0  0  0  0
  146.1950  137.8320  154.5597 H   0  0  0  0  0  0  0  0  0  0  0  0
  148.1365  138.8656  155.3325 H   0  0  0  0  0  0  0  0  0  0  0  0
  149.4236  138.2828  154.2928 H   0  0  0  0  0  0  0  0  0  0  0  0
  150.3388  139.8251  155.9462 H   0  0  0  0  0  0  0  0  0  0  0  0
  150.5816  140.4036  154.3152 H   0  0  0  0  0  0  0  0  0  0  0  0
  148.4191  141.3368  156.2613 H   0  0  0  0  0  0  0  0  0  0  0  0
  150.8880  142.4662  155.1910 H   0  0  0  0  0  0  0  0  0  0  0  0
  149.7792  141.9708  157.8426 H   0  0  0  0  0  0  0  0  0  0  0  0
  151.3086  141.4441  157.1613 H   0  0  0  0  0  0  0  0  0  0  0  0
  152.1454  143.7673  157.1320 H   0  0  0  0  0  0  0  0  0  0  0  0
  150.6090  144.3832  157.6710 H   0  0  0  0  0  0  0  0  0  0  0  0
  152.9530  141.6009  158.8126 H   0  0  0  0  0  0  0  0  0  0  0  0
  153.6434  141.3915  161.2135 H   0  0  0  0  0  0  0  0  0  0  0  0
  152.7751  143.0663  162.8710 H   0  0  0  0  0  0  0  0  0  0  0  0
  151.2509  144.8822  162.0522 H   0  0  0  0  0  0  0  0  0  0  0  0
  147.7458  142.9056  154.4294 H   0  0  0  0  0  0  0  0  0  0  0  0
  149.0130  142.2845  153.4010 H   0  0  0  0  0  0  0  0  0  0  0  0
  146.8583  141.3269  152.8084 H   0  0  0  0  0  0  0  0  0  0  0  0
  146.5856  140.7283  154.4299 H   0  0  0  0  0  0  0  0  0  0  0  0
  148.7587  139.8778  152.6583 H   0  0  0  0  0  0  0  0  0  0  0  0
  1  2  1  0  0  0  0
  1 19  1  0  0  0  0
  1 20  1  0  0  0  0
  1 21  1  0  0  0  0
  2  3  1  0  0  0  0
  2  4  1  0  0  0  0
  2 22  1  0  0  0  0
  3 23  1  0  0  0  0
  3 24  1  0  0  0  0
  3 25  1  0  0  0  0
  4 18  1  0  0  0  0
  4  5  1  0  0  0  0
  4 44  1  0  0  0  0
  5  6  1  0  0  0  0
  5 26  1  0  0  0  0
  5 27  1  0  0  0  0
  6  7  1  0  0  0  0
  6 28  1  0  0  0  0
  6 29  1  0  0  0  0
  7  8  1  0  0  0  0
  7 17  1  0  0  0  0
  7 30  1  0  0  0  0
  8  9  1  0  0  0  0
  8 31  1  0  0  0  0
  9 10  1  0  0  0  0
  9 32  1  0  0  0  0
  9 33  1  0  0  0  0
 10 11  1  0  0  0  0
 10 34  1  0  0  0  0
 10 35  1  0  0  0  0
 11 16  1  0  0  0  0
 11 12  2  0  0  0  0
 12 13  1  0  0  0  0
 12 36  1  0  0  0  0
 13 14  2  0  0  0  0
 13 37  1  0  0  0  0
 14 15  1  0  0  0  0
 14 38  1  0  0  0  0
 15 16  2  0  0  0  0
 15 39  1  0  0  0  0
 17 18  1  0  0  0  0
 17 40  1  0  0  0  0
 17 41  1  0  0  0  0
 18 42  1  0  0  0  0
 18 43  1  0  0  0  0
M  CHG  1   4   1
M  END
> <s_m_source_file>
AV-unprocessed.smi

> <i_m_source_file_index>
3306

> <i_lp_mmshare_version>
43012

> <i_f3d_flags>
0

> <s_epik_input>
W0NIM11bQ0hdKFtDSDNdKU4xW0NIMl1bQ0gyXVtDSF0oW0NIMl1bQ0gyXTEpW05IXVtDSDJdW0NIMl1jMltjSF1bY0hdW2NIXVtjSF1uMg==

> <s_epik_cmdline>
J2VwaWtfcHl0aG9uJywgJy1waCcsICc3LjAnLCAnLXRuJywgJzgnLCAnLW1hJywgJzIwMCcsICctbWV0YWxfYmluZGluZycsICctaW1hZScsICc8aW5maWxlLm1hZT4nLCAnLW9tYWUnLCAnPG91dGZpbGUubWFlPic=

> <r_epik_Ionization_Penalty>
2.29993

> <r_epik_Ionization_Penalty_Charging>
0.000386008

> <r_epik_Ionization_Penalty_Neutral>
2.29954

> <r_epik_State_Penalty>
2.40593

> <r_epik_Charging_Adjusted_Penalty>
2.40631

> <i_epik_Tot_Q>
1

> <i_epik_Tot_abs_Q>
1

> <r_epik_Metal_State_Penalty>
2.31593

> <b_epik_Metal_Only>
0

> <s_lp_Force_Field>
OPLS_2005

> <r_lp_Energy>
25.7367

> <b_lp_Chiralities_Consistent>
1

> <s_lp_Variant>
AV-unprocessed.smi:3306-4

> <Gold.Version>
5.8.1

> <Gold.Id.Protein>
6NUR|6NUR_protein|mol2

> <Gold.PLP.Fitness>
45.8236

> <Gold.PLP.PLP>
-43.4288

> <Gold.PLP.part.hbond>
-2.0000

> <Gold.PLP.part.metal>
0.0000

> <Gold.PLP.part.buried>
1.5506

> <Gold.PLP.part.nonpolar>
-42.8498

> <Gold.PLP.part.repulsive>
0.1455

> <Gold.PLP.ligand.clash>
0.0000

> <Gold.PLP.ligand.torsion>
0.3459

> <Gold.PLP.Chemscore.Hbond>
1.0000

> <Gold.PLP.Chemscore.CHOScore>
0.0000

> <Gold.PLP.Chemscore.Metal>
0.0000

> <Gold.Chemscore.Hbonds>
donor molecule, donor type, donor heavy atom, donor atom, acceptor molecule, acceptor atom, score
      L1  H     4    44       P1  7957  1.00

> <Gold.PLP.Chemscore.Internal.Correction>
0.0866

> <Gold.Rescore>
     Score         DG    S(hbond)    S(metal)    S(lipo)     H(rot)  DE(clash)    DE(int)     intcor
     19.87     -20.87       1.00        0.00     133.87       1.41       0.65       0.35       ----

> <Gold.Chemscore.Fitness>
19.8711

> <Gold.Chemscore.DG>
-20.8733

> <Gold.Chemscore.ZeroCoef>
-5.4800

> <Gold.Chemscore.Hbond>
0.9983

> <Gold.Chemscore.Metal>
0.0000

> <Gold.Chemscore.Lipo>
133.8730

> <Gold.Chemscore.Internal_Hbond>
0.0000

> <Gold.Chemscore.DEClash>
0.6478

> <Gold.Chemscore.DEInternal>
0.3544

> <Gold.Chemscore.Rot>
1.4078

> <Gold.Chemscore.Internal.Correction>
   9.000000E+99

> <Gold.Chemscore.Hbonds>
donor molecule, donor type, donor heavy atom, donor atom, acceptor molecule, acceptor atom, score
      L1  H     4    44       P1  7957  1.00

> <Gold.Chemscore.Hbond.Weighted>
-3.3342

> <Gold.Chemscore.Metal.Weighted>
-0.0000

> <Gold.Chemscore.Lipo.Weighted>
-15.6631

> <Gold.Chemscore.Internal_Hbond.Weighted>
0.0000

> <Gold.Chemscore.DEClash.Weighted>
0.6478

> <Gold.Chemscore.DEInternal.Weighted>
0.3544

> <Gold.Chemscore.Rot.Weighted>
3.6041

> <Gold.Chemscore.Internal.Correction.Weighted>
   9.000000E+99

> <Gold.Protein.RotatedTorsions>
[ 6907 6896 6895 6894 ] final  126.03 input  -60.11 | X-H torsion
[ 7974 7965 7964 7962 ] final   99.24 input  175.53 | X-H torsion
[ 8008 7997 7996 7995 ] final  127.75 input   59.86 | X-H torsion
[ 10167 10162 10161 10158 ] final   56.34 input  -65.29 | X-H torsion
[ 10718 10713 10712 10709 ] final   71.70 input   66.30 | X-H torsion
[ 10763 10752 10751 10750 ] final  -70.77 input  -60.55 | X-H torsion
[ 11005 11000 10999 10996 ] final   70.81 input  -57.11 | X-H torsion

> <Gold.Protein.ActiveResidues>
 VAL166  LYS551  ARG553  GLY616  TRP617  ASP618  TYR619  PRO620  LYS621  CYS622 
 ASP623  PHE694  ASN695  SER759  ASP760  ASP761  ALA762  ILE779  LEU786  VAL792 
 PHE793  MET794  SER795  GLU796  ALA797  LYS798  CYS799  TRP800  GLU811  SER814 

> <Gold.Protein.RotatedAtoms>
  152.3939  133.6719  159.6260 H   0  0  0  0  0  0  0  0  0  0  0  0  # atno 6907 bound_to 6896
  150.7842  133.8907  159.3321 H   0  0  0  0  0  0  0  0  0  0  0  0  # atno 6908 bound_to 6896
  151.6687  135.0980  160.0245 H   0  0  0  0  0  0  0  0  0  0  0  0  # atno 6909 bound_to 6896
  145.4014  139.2347  143.3298 H   0  0  0  0  0  0  0  0  0  0  0  0  # atno 7974 bound_to 7965
  156.2898  140.2661  156.2323 H   0  0  0  0  0  0  0  0  0  0  0  0  # atno 8008 bound_to 7997
  155.0060  140.0387  157.2398 H   0  0  0  0  0  0  0  0  0  0  0  0  # atno 8009 bound_to 7997
  154.7560  140.2752  155.6258 H   0  0  0  0  0  0  0  0  0  0  0  0  # atno 8010 bound_to 7997
  140.2098  144.3901  150.6493 H   0  0  0  0  0  0  0  0  0  0  0  0  # atno 10167 bound_to 10162
  157.6465  130.9541  150.0826 H   0  0  0  0  0  0  0  0  0  0  0  0  # atno 10718 bound_to 10713
  154.4223  135.5983  153.6017 H   0  0  0  0  0  0  0  0  0  0  0  0  # atno 10763 bound_to 10752
  152.9794  135.5955  154.3940 H   0  0  0  0  0  0  0  0  0  0  0  0  # atno 10764 bound_to 10752
  154.3767  135.2841  155.2213 H   0  0  0  0  0  0  0  0  0  0  0  0  # atno 10765 bound_to 10752
  139.9577  134.7115  156.0715 H   0  0  0  0  0  0  0  0  0  0  0  0  # atno 11005 bound_to 11000
  146.2750  140.4712  142.8799 LP  0  0  0  0  0  0  0  0  0  0  0  0  # atno 17320 bound_to 7965
  144.8371  140.6799  143.6253 LP  0  0  0  0  0  0  0  0  0  0  0  0  # atno 17321 bound_to 7965
  140.6331  143.2190  151.6452 LP  0  0  0  0  0  0  0  0  0  0  0  0  # atno 17342 bound_to 10162
  139.5184  144.3284  152.0848 LP  0  0  0  0  0  0  0  0  0  0  0  0  # atno 17343 bound_to 10162
  156.1798  130.3649  149.9051 LP  0  0  0  0  0  0  0  0  0  0  0  0  # atno 17370 bound_to 10713
  156.7006  130.8931  151.3599 LP  0  0  0  0  0  0  0  0  0  0  0  0  # atno 17371 bound_to 10713
  141.1251  133.6601  156.3315 LP  0  0  0  0  0  0  0  0  0  0  0  0  # atno 17394 bound_to 11000
  140.5570  134.5971  157.5423 LP  0  0  0  0  0  0  0  0  0  0  0  0  # atno 17395 bound_to 11000

$$$$
