AV-unprocessed.smi:69|AV-procd|sdf|653|dock6
  -GOLD-   2262016553D 1   1.00000     0.00000
 Structure written by MMmdl.
 32 34  0  0  0  0  0  0  0  0  1 V2000
  151.9967  143.2695  162.1472 N   0  0  0  0  0  0  0  0  0  0  0  0
  152.0402  142.2725  161.2528 C   0  0  0  0  0  0  0  0  0  0  0  0
  152.5435  141.0789  161.6452 N   0  0  0  0  0  0  0  0  0  0  0  0
  152.5977  140.0691  160.7710 C   0  0  0  0  0  0  0  0  0  0  0  0
  152.2107  140.0493  159.4931 N   0  0  0  0  0  0  0  0  0  0  0  0
  151.7030  141.2533  159.0975 C   0  0  0  0  0  0  0  0  0  0  0  0
  151.5855  142.4105  159.9169 C   0  0  0  0  0  0  0  0  0  0  0  0
  151.0302  143.4529  159.1881 N   0  0  0  0  0  0  0  0  0  0  0  0
  150.8329  142.9371  158.0048 C   0  0  0  0  0  0  0  0  0  0  0  0
  151.2123  141.6202  157.8587 N   0  0  0  0  0  0  0  0  0  0  0  0
  151.1053  140.7804  156.6198 C   0  0  2  0  0  0  0  0  0  0  0  0
  150.4109  141.4869  155.6351 O   0  0  0  0  0  0  0  0  0  0  0  0
  149.2274  140.7882  155.2526 C   0  0  1  0  0  0  0  0  0  0  0  0
  148.8706  141.0723  153.7829 C   0  0  0  0  0  0  0  0  0  0  0  0
  147.5092  140.7819  153.5489 O   0  0  0  0  0  0  0  0  0  0  0  0
  149.5333  139.3218  155.5898 C   0  0  1  0  0  0  0  0  0  0  0  0
  150.2732  138.6972  154.5558 O   0  0  0  0  0  0  0  0  0  0  0  0
  150.3793  139.4387  156.8476 C   0  0  2  0  0  0  0  0  0  0  0  0
  149.5615  139.4130  158.0044 O   0  0  0  0  0  0  0  0  0  0  0  0
  152.1353  140.6473  156.2859 H   0  0  0  0  0  0  0  0  0  0  0  0
  148.4082  141.1085  155.8975 H   0  0  0  0  0  0  0  0  0  0  0  0
  148.6231  138.7419  155.7498 H   0  0  0  0  0  0  0  0  0  0  0  0
  151.1114  138.6349  156.9361 H   0  0  0  0  0  0  0  0  0  0  0  0
  151.6265  144.1698  161.8783 H   0  0  0  0  0  0  0  0  0  0  0  0
  152.3308  143.1171  163.0877 H   0  0  0  0  0  0  0  0  0  0  0  0
  153.0106  139.1452  161.1480 H   0  0  0  0  0  0  0  0  0  0  0  0
  150.4027  143.5101  157.1964 H   0  0  0  0  0  0  0  0  0  0  0  0
  149.0878  142.1062  153.5127 H   0  0  0  0  0  0  0  0  0  0  0  0
  149.4571  140.4316  153.1237 H   0  0  0  0  0  0  0  0  0  0  0  0
  147.2220  141.2724  152.7940 H   0  0  0  0  0  0  0  0  0  0  0  0
  149.6681  138.3816  153.9022 H   0  0  0  0  0  0  0  0  0  0  0  0
  149.0531  140.2093  158.0288 H   0  0  0  0  0  0  0  0  0  0  0  0
  1  2  1  0  0  0  0
  1 24  1  0  0  0  0
  1 25  1  0  0  0  0
  2  7  1  0  0  0  0
  2  3  2  0  0  0  0
  3  4  1  0  0  0  0
  4  5  2  0  0  0  0
  4 26  1  0  0  0  0
  5  6  1  0  0  0  0
  6 10  1  0  0  0  0
  6  7  2  0  0  0  0
  7  8  1  0  0  0  0
  8  9  2  0  0  0  0
  9 10  1  0  0  0  0
  9 27  1  0  0  0  0
 10 11  1  0  0  0  0
 11 20  1  0  0  0  0
 11 18  1  0  0  0  0
 11 12  1  0  0  0  0
 12 13  1  0  0  0  0
 13 21  1  0  0  0  0
 13 14  1  0  0  0  0
 13 16  1  0  0  0  0
 14 15  1  0  0  0  0
 14 28  1  0  0  0  0
 14 29  1  0  0  0  0
 15 30  1  0  0  0  0
 16 22  1  0  0  0  0
 16 17  1  0  0  0  0
 16 18  1  0  0  0  0
 17 31  1  0  0  0  0
 18 23  1  0  0  0  0
 18 19  1  0  0  0  0
 19 32  1  0  0  0  0
M  END
> <s_m_source_file>
AV-unprocessed.smi

> <i_m_source_file_index>
69

> <i_lp_mmshare_version>
43012

> <i_f3d_flags>
0

> <s_epik_input>
bjFbY0hdbmMoW05IMl0pYyhjMTIpbltjSF1uMltDQEBIXTNPW0NASF0oW0NIMl1bT0hdKVtDQEBIXShbT0hdKVtDQEhdM1tPSF0=

> <s_epik_cmdline>
J2VwaWtfcHl0aG9uJywgJy1waCcsICc3LjAnLCAnLXRuJywgJzgnLCAnLW1hJywgJzIwMCcsICctbWV0YWxfYmluZGluZycsICctaW1hZScsICc8aW5maWxlLm1hZT4nLCAnLW9tYWUnLCAnPG91dGZpbGUubWFlPic=

> <r_lp_tautomer_probability>
1

> <r_epik_Ionization_Penalty>
0.000428445

> <r_epik_Ionization_Penalty_Charging>
0

> <r_epik_Ionization_Penalty_Neutral>
0.000428445

> <r_epik_State_Penalty>
-0

> <r_epik_Charging_Adjusted_Penalty>
0

> <i_epik_Tot_Q>
0

> <i_epik_Tot_abs_Q>
0

> <r_epik_Metal_State_Penalty>
-0

> <b_epik_Metal_Only>
0

> <s_epik_Chemistry_Notes>
This compound contains an acetal/aminal-like group ( X-CH(R)-Y where X, Y are N, S, or O) that may be acid/base labile, releasing an aldehyde.

> <s_lp_Force_Field>
OPLS_2005

> <r_lp_Energy>
40.109

> <b_lp_Chiralities_Consistent>
1

> <s_lp_Variant>
AV-unprocessed.smi:69-11

> <Gold.Version>
5.8.1

> <Gold.Id.Protein>
6NUR|6NUR_protein|mol2

> <Gold.PLP.Fitness>
39.2388

> <Gold.PLP.PLP>
-30.7866

> <Gold.PLP.part.hbond>
-3.0000

> <Gold.PLP.part.metal>
0.0000

> <Gold.PLP.part.buried>
-4.4728

> <Gold.PLP.part.nonpolar>
-22.7560

> <Gold.PLP.part.repulsive>
1.3017

> <Gold.PLP.ligand.clash>
0.0000

> <Gold.PLP.ligand.torsion>
0.3075

> <Gold.PLP.Chemscore.Hbond>
2.0253

> <Gold.PLP.Chemscore.CHOScore>
0.9965

> <Gold.PLP.Chemscore.Metal>
0.0000

> <Gold.Chemscore.Hbonds>
donor molecule, donor type, donor heavy atom, donor atom, acceptor molecule, acceptor atom, score
      L1  C     9    27       P1  8028  1.00

> <Gold.PLP.Chemscore.Internal.Correction>
0.0019

> <Gold.Rescore>
     Score         DG    S(hbond)    S(metal)    S(lipo)     H(rot)  DE(clash)    DE(int)     intcor
      3.27      -4.75       1.70        0.00      33.42       4.03       0.02       1.45       ----

> <Gold.Chemscore.Fitness>
3.2676

> <Gold.Chemscore.DG>
-4.7454

> <Gold.Chemscore.ZeroCoef>
-5.4800

> <Gold.Chemscore.Hbond>
1.6965

> <Gold.Chemscore.Metal>
0.0000

> <Gold.Chemscore.Lipo>
33.4186

> <Gold.Chemscore.Internal_Hbond>
0.0000

> <Gold.Chemscore.DEClash>
0.0234

> <Gold.Chemscore.DEInternal>
1.4543

> <Gold.Chemscore.Rot>
4.0277

> <Gold.Chemscore.Internal.Correction>
   9.000000E+99

> <Gold.Chemscore.Hbond.Weighted>
-5.6664

> <Gold.Chemscore.Metal.Weighted>
-0.0000

> <Gold.Chemscore.Lipo.Weighted>
-3.9100

> <Gold.Chemscore.Internal_Hbond.Weighted>
0.0000

> <Gold.Chemscore.DEClash.Weighted>
0.0234

> <Gold.Chemscore.DEInternal.Weighted>
1.4543

> <Gold.Chemscore.Rot.Weighted>
10.3110

> <Gold.Chemscore.Internal.Correction.Weighted>
   9.000000E+99

> <Gold.Protein.RotatedTorsions>
[ 6907 6896 6895 6894 ] final  -82.85 input  -60.11 | X-H torsion
[ 7974 7965 7964 7962 ] final  -38.21 input  175.53 | X-H torsion
[ 8008 7997 7996 7995 ] final  159.32 input   59.86 | X-H torsion
[ 10167 10162 10161 10158 ] final  -86.96 input  -65.29 | X-H torsion
[ 10718 10713 10712 10709 ] final  -98.66 input   66.30 | X-H torsion
[ 10763 10752 10751 10750 ] final  -76.59 input  -60.55 | X-H torsion
[ 11005 11000 10999 10996 ] final -109.21 input  -57.11 | X-H torsion

> <Gold.Protein.ActiveResidues>
 VAL166  LYS551  ARG553  GLY616  TRP617  ASP618  TYR619  PRO620  LYS621  CYS622 
 ASP623  PHE694  ASN695  SER759  ASP760  ASP761  ALA762  ILE779  LEU786  VAL792 
 PHE793  MET794  SER795  GLU796  ALA797  LYS798  CYS799  TRP800  GLU811  SER814 

> <Gold.Protein.RotatedAtoms>
  150.6892  134.3601  159.4946 H   0  0  0  0  0  0  0  0  0  0  0  0  # atno 6907 bound_to 6896
  152.1431  134.9044  160.0562 H   0  0  0  0  0  0  0  0  0  0  0  0  # atno 6908 bound_to 6896
  152.0170  133.3849  159.4280 H   0  0  0  0  0  0  0  0  0  0  0  0  # atno 6909 bound_to 6896
  146.0507  140.6485  142.9043 H   0  0  0  0  0  0  0  0  0  0  0  0  # atno 7974 bound_to 7965
  156.2246  140.1834  156.7394 H   0  0  0  0  0  0  0  0  0  0  0  0  # atno 8008 bound_to 7997
  154.5920  140.0649  156.9280 H   0  0  0  0  0  0  0  0  0  0  0  0  # atno 8009 bound_to 7997
  155.2320  140.3315  155.4305 H   0  0  0  0  0  0  0  0  0  0  0  0  # atno 8010 bound_to 7997
  140.3891  143.2713  151.9287 H   0  0  0  0  0  0  0  0  0  0  0  0  # atno 10167 bound_to 10162
  156.0113  130.5248  150.6555 H   0  0  0  0  0  0  0  0  0  0  0  0  # atno 10718 bound_to 10713
  154.5018  135.5792  153.6537 H   0  0  0  0  0  0  0  0  0  0  0  0  # atno 10763 bound_to 10752
  152.9880  135.6137  154.2993 H   0  0  0  0  0  0  0  0  0  0  0  0  # atno 10764 bound_to 10752
  154.2901  135.2849  155.2638 H   0  0  0  0  0  0  0  0  0  0  0  0  # atno 10765 bound_to 10752
  141.0860  133.9139  157.2185 H   0  0  0  0  0  0  0  0  0  0  0  0  # atno 11005 bound_to 11000
  144.7121  140.4077  143.7072 LP  0  0  0  0  0  0  0  0  0  0  0  0  # atno 17320 bound_to 7965
  145.6729  139.1603  143.2744 LP  0  0  0  0  0  0  0  0  0  0  0  0  # atno 17321 bound_to 7965
  139.4790  144.5745  151.8035 LP  0  0  0  0  0  0  0  0  0  0  0  0  # atno 17342 bound_to 10162
  140.4858  144.1383  150.5941 LP  0  0  0  0  0  0  0  0  0  0  0  0  # atno 17343 bound_to 10162
  157.4308  131.0849  151.1040 LP  0  0  0  0  0  0  0  0  0  0  0  0  # atno 17370 bound_to 10713
  157.1614  130.6227  149.5612 LP  0  0  0  0  0  0  0  0  0  0  0  0  # atno 17371 bound_to 10713
  139.9678  135.0137  156.9433 LP  0  0  0  0  0  0  0  0  0  0  0  0  # atno 17394 bound_to 11000
  140.5362  134.0764  155.7329 LP  0  0  0  0  0  0  0  0  0  0  0  0  # atno 17395 bound_to 11000

$$$$
