AV-unprocessed.smi:2908|AV-procd|sdf|11170|dock8
  -GOLD-   2272016 63D 1   1.00000     0.00000
 Structure written by MMmdl.
 44 45  0  0  0  0  0  0  0  0  2 V2000
  149.6332  140.9713  153.8240 O   0  0  0  0  0  0  0  0  0  0  0  0
  148.6078  140.7587  154.4732 C   0  0  0  0  0  0  0  0  0  0  0  0
  148.6249  140.6268  155.8113 N   0  0  0  0  0  0  0  0  0  0  0  0
  149.8062  140.7211  156.6661 C   0  0  0  0  0  0  0  0  0  0  0  0
  150.7711  141.8370  156.2186 C   0  0  0  0  0  0  0  0  0  0  0  0
  151.4025  142.5975  157.3716 C   0  0  0  0  0  0  0  0  0  0  0  0
  152.1589  141.9524  158.3747 C   0  0  0  0  0  0  0  0  0  0  0  0
  152.7408  142.7245  159.4016 C   0  0  0  0  0  0  0  0  0  0  0  0
  152.5526  144.1221  159.4061 C   0  0  0  0  0  0  0  0  0  0  0  0
  151.7851  144.7135  158.3822 C   0  0  0  0  0  0  0  0  0  0  0  0
  151.2438  143.9402  157.4155 N   0  3  0  0  0  0  0  0  0  0  0  0
  147.3897  140.5852  153.9013 N   0  0  0  0  0  0  0  0  0  0  0  0
  147.1124  140.4593  152.4613 C   0  0  0  0  0  0  0  0  0  0  0  0
  146.7989  138.9861  152.1468 C   0  0  0  0  0  0  0  0  0  0  0  0
  145.6161  138.4612  152.9963 C   0  0  0  0  0  0  0  0  0  0  0  0
  145.3260  136.9658  152.7008 C   0  0  1  0  0  0  0  0  0  0  0  0
  146.3805  136.1559  153.1857 O   0  0  0  0  0  0  0  0  0  0  0  0
  143.9820  136.4289  153.2406 C   0  0  0  0  0  0  0  0  0  0  0  0
  144.0180  136.3964  154.5728 F   0  0  0  0  0  0  0  0  0  0  0  0
  142.9522  137.1810  152.8538 F   0  0  0  0  0  0  0  0  0  0  0  0
  143.7889  135.1832  152.8074 F   0  0  0  0  0  0  0  0  0  0  0  0
  145.8261  138.7950  154.4951 C   0  0  0  0  0  0  0  0  0  0  0  0
  146.1954  140.2763  154.6955 C   0  0  0  0  0  0  0  0  0  0  0  0
  147.7455  140.4445  156.2731 H   0  0  0  0  0  0  0  0  0  0  0  0
  149.5163  140.8674  157.7081 H   0  0  0  0  0  0  0  0  0  0  0  0
  150.3219  139.7614  156.6297 H   0  0  0  0  0  0  0  0  0  0  0  0
  151.5655  141.4087  155.6062 H   0  0  0  0  0  0  0  0  0  0  0  0
  150.2425  142.5421  155.5756 H   0  0  0  0  0  0  0  0  0  0  0  0
  152.3015  140.8818  158.3528 H   0  0  0  0  0  0  0  0  0  0  0  0
  153.3272  142.2503  160.1750 H   0  0  0  0  0  0  0  0  0  0  0  0
  152.9920  144.7316  160.1822 H   0  0  0  0  0  0  0  0  0  0  0  0
  151.5922  145.7735  158.3054 H   0  0  0  0  0  0  0  0  0  0  0  0
  146.2558  141.0847  152.2046 H   0  0  0  0  0  0  0  0  0  0  0  0
  147.9233  140.8067  151.8211 H   0  0  0  0  0  0  0  0  0  0  0  0
  146.5719  138.8791  151.0856 H   0  0  0  0  0  0  0  0  0  0  0  0
  147.6900  138.3849  152.3329 H   0  0  0  0  0  0  0  0  0  0  0  0
  144.7402  139.0240  152.6709 H   0  0  0  0  0  0  0  0  0  0  0  0
  145.3088  136.8422  151.6169 H   0  0  0  0  0  0  0  0  0  0  0  0
  147.0492  136.1060  152.5197 H   0  0  0  0  0  0  0  0  0  0  0  0
  144.9226  138.5831  155.0648 H   0  0  0  0  0  0  0  0  0  0  0  0
  146.6150  138.1698  154.9151 H   0  0  0  0  0  0  0  0  0  0  0  0
  146.3300  140.4868  155.7574 H   0  0  0  0  0  0  0  0  0  0  0  0
  145.3713  140.9144  154.3728 H   0  0  0  0  0  0  0  0  0  0  0  0
  150.6984  144.3906  156.6803 H   0  0  0  0  0  0  0  0  0  0  0  0
  1  2  2  0  0  0  0
  2  3  1  0  0  0  0
  2 12  1  0  0  0  0
  3  4  1  0  0  0  0
  3 24  1  0  0  0  0
  4  5  1  0  0  0  0
  4 25  1  0  0  0  0
  4 26  1  0  0  0  0
  5  6  1  0  0  0  0
  5 27  1  0  0  0  0
  5 28  1  0  0  0  0
  6 11  1  0  0  0  0
  6  7  2  0  0  0  0
  7  8  1  0  0  0  0
  7 29  1  0  0  0  0
  8  9  2  0  0  0  0
  8 30  1  0  0  0  0
  9 10  1  0  0  0  0
  9 31  1  0  0  0  0
 10 11  2  0  0  0  0
 10 32  1  0  0  0  0
 11 44  1  0  0  0  0
 12 23  1  0  0  0  0
 12 13  1  0  0  0  0
 13 14  1  0  0  0  0
 13 33  1  0  0  0  0
 13 34  1  0  0  0  0
 14 15  1  0  0  0  0
 14 35  1  0  0  0  0
 14 36  1  0  0  0  0
 15 16  1  0  0  0  0
 15 22  1  0  0  0  0
 15 37  1  0  0  0  0
 16 17  1  0  0  0  0
 16 18  1  0  0  0  0
 16 38  1  0  0  0  0
 17 39  1  0  0  0  0
 18 19  1  0  0  0  0
 18 20  1  0  0  0  0
 18 21  1  0  0  0  0
 22 23  1  0  0  0  0
 22 40  1  0  0  0  0
 22 41  1  0  0  0  0
 23 42  1  0  0  0  0
 23 43  1  0  0  0  0
M  CHG  1  11   1
M  END
> <s_m_source_file>
AV-unprocessed.smi

> <i_m_source_file_index>
2908

> <i_lp_mmshare_version>
43012

> <i_f3d_flags>
0

> <s_epik_input>
RkMoRikoRilbQ0BASF0oW09IXSlbQ0hdKFtDSDJdW0NIMl0xKVtDSDJdW0NIMl1OMUMoPU8pW05IXVtDSDJdW0NIMl1jMltjSF1bY0hdW2NIXVtjSF1uMg==

> <s_epik_cmdline>
J2VwaWtfcHl0aG9uJywgJy1waCcsICc3LjAnLCAnLXRuJywgJzgnLCAnLW1hJywgJzIwMCcsICctbWV0YWxfYmluZGluZycsICctaW1hZScsICc8aW5maWxlLm1hZT4nLCAnLW9tYWUnLCAnPG91dGZpbGUubWFlPic=

> <r_epik_Ionization_Penalty>
1.55054

> <r_epik_Ionization_Penalty_Charging>
1.55036

> <r_epik_Ionization_Penalty_Neutral>
0.00017404

> <r_epik_State_Penalty>
1.64453

> <r_epik_Charging_Adjusted_Penalty>
3.19489

> <i_epik_Tot_Q>
1

> <i_epik_Tot_abs_Q>
1

> <r_epik_Metal_State_Penalty>
1.68672

> <b_epik_Metal_Only>
0

> <s_lp_Force_Field>
OPLS_2005

> <r_lp_Energy>
43.524

> <b_lp_Chiralities_Consistent>
1

> <s_lp_Variant>
AV-unprocessed.smi:2908-4

> <Gold.Version>
5.8.1

> <Gold.Id.Protein>
6NUR|6NUR_protein|mol2

> <Gold.PLP.Fitness>
50.3674

> <Gold.PLP.PLP>
-40.4196

> <Gold.PLP.part.hbond>
-4.0000

> <Gold.PLP.part.metal>
0.0000

> <Gold.PLP.part.buried>
-1.1808

> <Gold.PLP.part.nonpolar>
-36.2457

> <Gold.PLP.part.repulsive>
2.0232

> <Gold.PLP.ligand.clash>
1.9319

> <Gold.PLP.ligand.torsion>
0.5660

> <Gold.PLP.Chemscore.Hbond>
4.2727

> <Gold.PLP.Chemscore.CHOScore>
0.0000

> <Gold.PLP.Chemscore.Metal>
0.0000

> <Gold.Chemscore.Hbonds>
donor molecule, donor type, donor heavy atom, donor atom, acceptor molecule, acceptor atom, score
      L1  H    11    44       P1  8028  1.79
      L1  H    17    39       P1  7948  1.00
      P1  H  7989  7998       L1     1  0.40
      P1  H  8011  8017       L1     1  0.83

> <Gold.PLP.Chemscore.Internal.Correction>
0.1936

> <Gold.Rescore>
     Score         DG    S(hbond)    S(metal)    S(lipo)     H(rot)  DE(clash)    DE(int)     intcor
     17.34     -22.06       3.05        0.00     107.12       2.40       2.65       2.08       ----

> <Gold.Chemscore.Fitness>
17.3383

> <Gold.Chemscore.DG>
-22.0643

> <Gold.Chemscore.ZeroCoef>
-5.4800

> <Gold.Chemscore.Hbond>
3.0546

> <Gold.Chemscore.Metal>
0.0000

> <Gold.Chemscore.Lipo>
107.1172

> <Gold.Chemscore.Internal_Hbond>
0.0000

> <Gold.Chemscore.DEClash>
2.6451

> <Gold.Chemscore.DEInternal>
2.0809

> <Gold.Chemscore.Rot>
2.4026

> <Gold.Chemscore.Internal.Correction>
   9.000000E+99

> <Gold.Chemscore.Hbonds>
donor molecule, donor type, donor heavy atom, donor atom, acceptor molecule, acceptor atom, score
      L1  H    11    44       P1  8028  0.82
      L1  H    17    39       P1  7948  0.93
      P1  H  7989  7998       L1     1  0.39
      P1  H  8011  8017       L1     1  0.78

> <Gold.Chemscore.Hbond.Weighted>
-10.2024

> <Gold.Chemscore.Metal.Weighted>
-0.0000

> <Gold.Chemscore.Lipo.Weighted>
-12.5327

> <Gold.Chemscore.Internal_Hbond.Weighted>
0.0000

> <Gold.Chemscore.DEClash.Weighted>
2.6451

> <Gold.Chemscore.DEInternal.Weighted>
2.0809

> <Gold.Chemscore.Rot.Weighted>
6.1508

> <Gold.Chemscore.Internal.Correction.Weighted>
   9.000000E+99

> <Gold.Protein.RotatedTorsions>
[ 6907 6896 6895 6894 ] final  -44.49 input  -60.11 | X-H torsion
[ 7974 7965 7964 7962 ] final    0.32 input  175.53 | X-H torsion
[ 8008 7997 7996 7995 ] final  -17.85 input   59.86 | X-H torsion
[ 10167 10162 10161 10158 ] final   75.74 input  -65.29 | X-H torsion
[ 10718 10713 10712 10709 ] final  136.24 input   66.30 | X-H torsion
[ 10763 10752 10751 10750 ] final  -69.07 input  -60.55 | X-H torsion
[ 11005 11000 10999 10996 ] final   20.54 input  -57.11 | X-H torsion

> <Gold.Protein.ActiveResidues>
 VAL166  LYS551  ARG553  GLY616  TRP617  ASP618  TYR619  PRO620  LYS621  CYS622 
 ASP623  PHE694  ASN695  SER759  ASP760  ASP761  ALA762  ILE779  LEU786  VAL792 
 PHE793  MET794  SER795  GLU796  ALA797  LYS798  CYS799  TRP800  GLU811  SER814 

> <Gold.Protein.RotatedAtoms>
  150.9322  134.8736  159.7558 H   0  0  0  0  0  0  0  0  0  0  0  0  # atno 6907 bound_to 6896
  152.5043  134.4062  159.9443 H   0  0  0  0  0  0  0  0  0  0  0  0  # atno 6908 bound_to 6896
  151.4089  133.3694  159.2776 H   0  0  0  0  0  0  0  0  0  0  0  0  # atno 6909 bound_to 6896
  146.2433  140.1155  142.8342 H   0  0  0  0  0  0  0  0  0  0  0  0  # atno 7974 bound_to 7965
  154.4948  140.2131  155.9471 H   0  0  0  0  0  0  0  0  0  0  0  0  # atno 8008 bound_to 7997
  156.1355  140.3189  155.8382 H   0  0  0  0  0  0  0  0  0  0  0  0  # atno 8009 bound_to 7997
  155.4218  140.0497  157.3016 H   0  0  0  0  0  0  0  0  0  0  0  0  # atno 8010 bound_to 7997
  139.9997  144.5695  150.7747 H   0  0  0  0  0  0  0  0  0  0  0  0  # atno 10167 bound_to 10162
  157.4487  131.1064  151.0058 H   0  0  0  0  0  0  0  0  0  0  0  0  # atno 10718 bound_to 10713
  154.3982  135.6037  153.5882 H   0  0  0  0  0  0  0  0  0  0  0  0  # atno 10763 bound_to 10752
  152.9788  135.5900  154.4216 H   0  0  0  0  0  0  0  0  0  0  0  0  # atno 10764 bound_to 10752
  154.4010  135.2843  155.2074 H   0  0  0  0  0  0  0  0  0  0  0  0  # atno 10765 bound_to 10752
  140.4015  134.1713  155.7664 H   0  0  0  0  0  0  0  0  0  0  0  0  # atno 11005 bound_to 11000
  145.0450  140.8975  143.5029 LP  0  0  0  0  0  0  0  0  0  0  0  0  # atno 17320 bound_to 7965
  145.1243  139.2673  143.5572 LP  0  0  0  0  0  0  0  0  0  0  0  0  # atno 17321 bound_to 7965
  140.7423  143.2830  151.3543 LP  0  0  0  0  0  0  0  0  0  0  0  0  # atno 17342 bound_to 10162
  139.6280  144.0776  152.2451 LP  0  0  0  0  0  0  0  0  0  0  0  0  # atno 17343 bound_to 10162
  157.0896  130.5936  149.5437 LP  0  0  0  0  0  0  0  0  0  0  0  0  # atno 17370 bound_to 10713
  155.9978  130.5051  150.7548 LP  0  0  0  0  0  0  0  0  0  0  0  0  # atno 17371 bound_to 10713
  141.1855  133.8322  157.1102 LP  0  0  0  0  0  0  0  0  0  0  0  0  # atno 17394 bound_to 11000
  140.0333  134.9890  157.0822 LP  0  0  0  0  0  0  0  0  0  0  0  0  # atno 17395 bound_to 11000

$$$$
