AV-unprocessed.smi:2536|AV-procd|sdf|9978|dock6
  -GOLD-   2272014 23D 1   1.00000     0.00000
 Structure written by MMmdl.
 32 33  0  0  0  0  0  0  0  0  1 V2000
  151.5513  145.1165  159.4735 C   0  0  0  0  0  0  0  0  0  0  0  0
  151.7753  143.6831  159.0306 C   0  0  0  0  0  0  0  0  0  0  0  0
  151.3312  143.2386  157.7668 C   0  0  0  0  0  0  0  0  0  0  0  0
  151.5218  141.9691  157.3474 N   0  0  0  0  0  0  0  0  0  0  0  0
  152.1538  141.1425  158.1830 C   0  0  0  0  0  0  0  0  0  0  0  0
  152.3348  139.8526  157.7167 N   0  0  0  0  0  0  0  0  0  0  0  0
  152.1255  139.4212  156.3401 C   0  0  2  0  0  0  0  0  0  0  0  0
  150.6864  139.6962  155.8706 C   0  0  0  0  0  0  0  0  0  0  0  0
  150.4868  139.1411  154.4564 C   0  0  0  0  0  0  0  0  0  0  0  0
  150.8956  137.6608  154.4003 C   0  0  0  0  0  0  0  0  0  0  0  0
  152.2427  137.5130  154.8373 O   0  0  0  0  0  0  0  0  0  0  0  0
  152.4406  137.9214  156.1873 C   0  0  0  0  0  0  0  0  0  0  0  0
  152.6138  141.4507  159.4008 N   0  0  0  0  0  0  0  0  0  0  0  0
  152.4301  142.7175  159.8340 C   0  0  0  0  0  0  0  0  0  0  0  0
  152.9753  143.0168  161.2188 C   0  0  0  0  0  0  0  0  0  0  0  0
  151.0465  145.6933  158.6981 H   0  0  0  0  0  0  0  0  0  0  0  0
  152.5037  145.6019  159.6881 H   0  0  0  0  0  0  0  0  0  0  0  0
  150.9334  145.1464  160.3712 H   0  0  0  0  0  0  0  0  0  0  0  0
  150.8219  143.9031  157.0846 H   0  0  0  0  0  0  0  0  0  0  0  0
  152.5512  139.1454  158.4039 H   0  0  0  0  0  0  0  0  0  0  0  0
  152.8160  139.9723  155.7002 H   0  0  0  0  0  0  0  0  0  0  0  0
  149.9759  139.2236  156.5505 H   0  0  0  0  0  0  0  0  0  0  0  0
  150.4690  140.7645  155.8837 H   0  0  0  0  0  0  0  0  0  0  0  0
  149.4476  139.2581  154.1486 H   0  0  0  0  0  0  0  0  0  0  0  0
  151.0897  139.7130  153.7501 H   0  0  0  0  0  0  0  0  0  0  0  0
  150.2331  137.0508  155.0163 H   0  0  0  0  0  0  0  0  0  0  0  0
  150.8137  137.2879  153.3792 H   0  0  0  0  0  0  0  0  0  0  0  0
  153.4787  137.7259  156.4576 H   0  0  0  0  0  0  0  0  0  0  0  0
  151.8200  137.3181  156.8524 H   0  0  0  0  0  0  0  0  0  0  0  0
  152.7365  144.0231  161.5591 H   0  0  0  0  0  0  0  0  0  0  0  0
  154.0602  142.9091  161.2229 H   0  0  0  0  0  0  0  0  0  0  0  0
  152.5623  142.3147  161.9436 H   0  0  0  0  0  0  0  0  0  0  0  0
  1  2  1  0  0  0  0
  1 16  1  0  0  0  0
  1 17  1  0  0  0  0
  1 18  1  0  0  0  0
  2 14  1  0  0  0  0
  2  3  2  0  0  0  0
  3  4  1  0  0  0  0
  3 19  1  0  0  0  0
  4  5  2  0  0  0  0
  5  6  1  0  0  0  0
  5 13  1  0  0  0  0
  6  7  1  0  0  0  0
  6 20  1  0  0  0  0
  7 12  1  0  0  0  0
  7  8  1  0  0  0  0
  7 21  1  0  0  0  0
  8  9  1  0  0  0  0
  8 22  1  0  0  0  0
  8 23  1  0  0  0  0
  9 10  1  0  0  0  0
  9 24  1  0  0  0  0
  9 25  1  0  0  0  0
 10 11  1  0  0  0  0
 10 26  1  0  0  0  0
 10 27  1  0  0  0  0
 11 12  1  0  0  0  0
 12 28  1  0  0  0  0
 12 29  1  0  0  0  0
 13 14  2  0  0  0  0
 14 15  1  0  0  0  0
 15 30  1  0  0  0  0
 15 31  1  0  0  0  0
 15 32  1  0  0  0  0
M  END
> <s_m_source_file>
AV-unprocessed.smi

> <i_m_source_file_index>
2536

> <i_lp_mmshare_version>
43012

> <i_f3d_flags>
0

> <s_epik_input>
W0NIM11jMVtjSF1uYyhuYzFbQ0gzXSlbTkhdW0NAQEhdMltDSDJdW0NIMl1bQ0gyXU9bQ0gyXTI=

> <s_epik_cmdline>
J2VwaWtfcHl0aG9uJywgJy1waCcsICc3LjAnLCAnLXRuJywgJzgnLCAnLW1hJywgJzIwMCcsICctbWV0YWxfYmluZGluZycsICctaW1hZScsICc8aW5maWxlLm1hZT4nLCAnLW9tYWUnLCAnPG91dGZpbGUubWFlPic=

> <r_lp_tautomer_probability>
1

> <r_epik_Ionization_Penalty>
0.00982357

> <r_epik_Ionization_Penalty_Charging>
0

> <r_epik_Ionization_Penalty_Neutral>
0.00982357

> <r_epik_State_Penalty>
0.0064698

> <r_epik_Charging_Adjusted_Penalty>
0.0064698

> <i_epik_Tot_Q>
0

> <i_epik_Tot_abs_Q>
0

> <r_epik_Metal_State_Penalty>
-0

> <b_epik_Metal_Only>
0

> <s_lp_Force_Field>
OPLS_2005

> <r_lp_Energy>
1.83983

> <b_lp_Chiralities_Consistent>
1

> <s_lp_Variant>
AV-unprocessed.smi:2536-1

> <Gold.Version>
5.8.1

> <Gold.Id.Protein>
6NUR|6NUR_protein|mol2

> <Gold.PLP.Fitness>
37.3007

> <Gold.PLP.PLP>
-32.2081

> <Gold.PLP.part.hbond>
-1.0000

> <Gold.PLP.part.metal>
0.0000

> <Gold.PLP.part.buried>
-3.5554

> <Gold.PLP.part.nonpolar>
-28.2342

> <Gold.PLP.part.repulsive>
0.2158

> <Gold.PLP.ligand.clash>
0.0000

> <Gold.PLP.ligand.torsion>
0.0352

> <Gold.PLP.Chemscore.Hbond>
0.7200

> <Gold.PLP.Chemscore.CHOScore>
1.0000

> <Gold.PLP.Chemscore.Metal>
0.0000

> <Gold.Chemscore.Hbonds>
donor molecule, donor type, donor heavy atom, donor atom, acceptor molecule, acceptor atom, score
      P1  H 10752 10765       L1    11  0.74
      L1  C     3    19       P1  8028  1.00

> <Gold.PLP.Chemscore.Internal.Correction>
0.0031

> <Gold.Rescore>
     Score         DG    S(hbond)    S(metal)    S(lipo)     H(rot)  DE(clash)    DE(int)     intcor
     14.72     -16.16       0.83        0.00      89.39       1.00       0.01       1.43       ----

> <Gold.Chemscore.Fitness>
14.7214

> <Gold.Chemscore.DG>
-16.1637

> <Gold.Chemscore.ZeroCoef>
-5.4800

> <Gold.Chemscore.Hbond>
0.8337

> <Gold.Chemscore.Metal>
0.0000

> <Gold.Chemscore.Lipo>
89.3932

> <Gold.Chemscore.Internal_Hbond>
0.0000

> <Gold.Chemscore.DEClash>
0.0149

> <Gold.Chemscore.DEInternal>
1.4275

> <Gold.Chemscore.Rot>
1.0000

> <Gold.Chemscore.Internal.Correction>
   9.000000E+99

> <Gold.Chemscore.Hbonds>
donor molecule, donor type, donor heavy atom, donor atom, acceptor molecule, acceptor atom, score
      P1  H 10752 10765       L1    11  0.47

> <Gold.Chemscore.Hbond.Weighted>
-2.7847

> <Gold.Chemscore.Metal.Weighted>
-0.0000

> <Gold.Chemscore.Lipo.Weighted>
-10.4590

> <Gold.Chemscore.Internal_Hbond.Weighted>
0.0000

> <Gold.Chemscore.DEClash.Weighted>
0.0149

> <Gold.Chemscore.DEInternal.Weighted>
1.4275

> <Gold.Chemscore.Rot.Weighted>
2.5600

> <Gold.Chemscore.Internal.Correction.Weighted>
   9.000000E+99

> <Gold.Protein.RotatedTorsions>
[ 6907 6896 6895 6894 ] final  -77.58 input  -60.11 | X-H torsion
[ 7974 7965 7964 7962 ] final  -34.02 input  175.53 | X-H torsion
[ 8008 7997 7996 7995 ] final  -18.75 input   59.86 | X-H torsion
[ 10167 10162 10161 10158 ] final -158.01 input  -65.29 | X-H torsion
[ 10718 10713 10712 10709 ] final  104.31 input   66.30 | X-H torsion
[ 10763 10752 10751 10750 ] final  169.08 input  -60.55 | X-H torsion
[ 11005 11000 10999 10996 ] final  -73.19 input  -57.11 | X-H torsion

> <Gold.Protein.ActiveResidues>
 VAL166  LYS551  ARG553  GLY616  TRP617  ASP618  TYR619  PRO620  LYS621  CYS622 
 ASP623  PHE694  ASN695  SER759  ASP760  ASP761  ALA762  ILE779  LEU786  VAL792 
 PHE793  MET794  SER795  GLU796  ALA797  LYS798  CYS799  TRP800  GLU811  SER814 

> <Gold.Protein.RotatedAtoms>
  150.6995  134.4401  159.5287 H   0  0  0  0  0  0  0  0  0  0  0  0  # atno 6907 bound_to 6896
  152.2112  134.8497  160.0506 H   0  0  0  0  0  0  0  0  0  0  0  0  # atno 6908 bound_to 6896
  151.9381  133.3595  159.3992 H   0  0  0  0  0  0  0  0  0  0  0  0  # atno 6909 bound_to 6896
  146.0863  140.5988  142.8885 H   0  0  0  0  0  0  0  0  0  0  0  0  # atno 7974 bound_to 7965
  154.4884  140.2107  155.9603 H   0  0  0  0  0  0  0  0  0  0  0  0  # atno 8008 bound_to 7997
  156.1270  140.3203  155.8261 H   0  0  0  0  0  0  0  0  0  0  0  0  # atno 8009 bound_to 7997
  155.4365  140.0507  157.3005 H   0  0  0  0  0  0  0  0  0  0  0  0  # atno 8010 bound_to 7997
  139.6726  143.9719  152.2292 H   0  0  0  0  0  0  0  0  0  0  0  0  # atno 10167 bound_to 10162
  157.6744  131.0800  150.5687 H   0  0  0  0  0  0  0  0  0  0  0  0  # atno 10718 bound_to 10713
  154.3779  135.2753  155.2228 H   0  0  0  0  0  0  0  0  0  0  0  0  # atno 10763 bound_to 10752
  154.4347  135.5969  153.6094 H   0  0  0  0  0  0  0  0  0  0  0  0  # atno 10764 bound_to 10752
  152.9835  135.6004  154.4019 H   0  0  0  0  0  0  0  0  0  0  0  0  # atno 10765 bound_to 10752
  141.1619  133.6870  156.7173 H   0  0  0  0  0  0  0  0  0  0  0  0  # atno 11005 bound_to 11000
  144.7328  140.4722  143.6925 LP  0  0  0  0  0  0  0  0  0  0  0  0  # atno 17320 bound_to 7965
  145.6123  139.1514  143.3069 LP  0  0  0  0  0  0  0  0  0  0  0  0  # atno 17321 bound_to 7965
  139.9487  144.6634  150.8193 LP  0  0  0  0  0  0  0  0  0  0  0  0  # atno 17342 bound_to 10162
  140.7623  143.3196  151.2653 LP  0  0  0  0  0  0  0  0  0  0  0  0  # atno 17343 bound_to 10162
  156.5989  130.4349  149.5905 LP  0  0  0  0  0  0  0  0  0  0  0  0  # atno 17370 bound_to 10713
  156.2522  130.6914  151.1655 LP  0  0  0  0  0  0  0  0  0  0  0  0  # atno 17371 bound_to 10713
  140.2842  134.8292  157.3960 LP  0  0  0  0  0  0  0  0  0  0  0  0  # atno 17394 bound_to 11000
  140.1405  134.4977  155.8035 LP  0  0  0  0  0  0  0  0  0  0  0  0  # atno 17395 bound_to 11000

$$$$
