AV-unprocessed.smi:193|AV-procd|sdf|1509|dock6
  -GOLD-   2262019343D 1   1.00000     0.00000
 Structure written by MMmdl.
 62 66  0  0  0  0  0  0  0  0  2 V2000
  150.6826  132.8653  155.0238 C   0  0  0  0  0  0  0  0  0  0  0  0
  149.7461  134.0827  155.0679 C   0  0  1  0  0  0  0  0  0  0  0  0
  150.4939  135.3601  154.6380 C   0  0  0  0  0  0  0  0  0  0  0  0
  149.9379  136.5590  155.2701 N   0  0  0  0  0  0  0  0  0  0  0  0
  150.8057  137.5720  155.5121 C   0  0  0  0  0  0  0  0  0  0  0  0
  151.5099  138.1237  154.4881 N   0  0  0  0  0  0  0  0  0  0  0  0
  152.3506  139.1367  154.7203 C   0  0  0  0  0  0  0  0  0  0  0  0
  152.6286  139.7424  155.8768 N   0  0  0  0  0  0  0  0  0  0  0  0
  151.9231  139.1922  156.9062 C   0  0  0  0  0  0  0  0  0  0  0  0
  150.9999  138.1136  156.8122 C   0  0  0  0  0  0  0  0  0  0  0  0
  150.4807  137.8196  158.0670 N   0  0  0  0  0  0  0  0  0  0  0  0
  151.0590  138.6820  158.8582 C   0  0  0  0  0  0  0  0  0  0  0  0
  151.9326  139.5504  158.2429 N   0  0  0  0  0  0  0  0  0  0  0  0
  152.6999  140.6087  158.8816 C   0  0  0  0  0  0  0  0  0  0  0  0
  151.9200  141.9371  159.0413 C   0  0  0  0  0  0  0  0  0  0  0  0
  150.5956  141.6155  159.4313 O   0  0  0  0  0  0  0  0  0  0  0  0
  152.5536  142.8044  160.1472 C   0  0  0  0  0  0  0  0  0  0  0  0
  151.9136  144.2018  160.2260 C   0  0  0  0  0  0  0  0  0  0  0  0
  151.9921  144.8446  158.9596 O   0  0  0  0  0  0  0  0  0  0  0  0
  151.2677  144.1563  157.9472 C   0  0  0  0  0  0  0  0  0  0  0  0
  151.8597  142.7522  157.7306 C   0  0  0  0  0  0  0  0  0  0  0  0
  148.6087  137.0323  154.8873 C   0  0  0  0  0  0  0  0  0  0  0  0
  147.5114  135.9647  155.0114 C   0  0  0  0  0  0  0  0  0  0  0  0
  147.6298  134.9707  153.9186 N   0  3  2  0  0  0  0  0  0  0  0  0
  146.3139  134.5655  153.3755 C   0  0  1  0  0  0  0  0  0  0  0  0
  145.6994  135.5967  152.4578 C   0  0  0  0  0  0  0  0  0  0  0  0
  146.3116  134.3386  151.8799 C   0  0  2  0  0  0  0  0  0  0  0  0
  145.4290  133.2765  151.2625 C   0  0  0  0  0  0  0  0  0  0  0  0
  148.4765  133.7909  154.2342 C   0  0  0  0  0  0  0  0  0  0  0  0
  151.0589  132.6886  154.0156 H   0  0  0  0  0  0  0  0  0  0  0  0
  150.1690  131.9609  155.3515 H   0  0  0  0  0  0  0  0  0  0  0  0
  151.5427  133.0064  155.6790 H   0  0  0  0  0  0  0  0  0  0  0  0
  149.4558  134.2004  156.1133 H   0  0  0  0  0  0  0  0  0  0  0  0
  151.5385  135.2633  154.9387 H   0  0  0  0  0  0  0  0  0  0  0  0
  150.4929  135.4671  153.5524 H   0  0  0  0  0  0  0  0  0  0  0  0
  152.8731  139.5191  153.8556 H   0  0  0  0  0  0  0  0  0  0  0  0
  150.8590  138.7138  159.9195 H   0  0  0  0  0  0  0  0  0  0  0  0
  153.0331  140.2458  159.8549 H   0  0  0  0  0  0  0  0  0  0  0  0
  153.6045  140.7734  158.2948 H   0  0  0  0  0  0  0  0  0  0  0  0
  150.6105  141.3243  160.3303 H   0  0  0  0  0  0  0  0  0  0  0  0
  152.4813  142.3048  161.1139 H   0  0  0  0  0  0  0  0  0  0  0  0
  153.6188  142.9246  159.9454 H   0  0  0  0  0  0  0  0  0  0  0  0
  150.8745  144.1420  160.5532 H   0  0  0  0  0  0  0  0  0  0  0  0
  152.4397  144.8110  160.9611 H   0  0  0  0  0  0  0  0  0  0  0  0
  150.2113  144.1008  158.2142 H   0  0  0  0  0  0  0  0  0  0  0  0
  151.3282  144.7309  157.0227 H   0  0  0  0  0  0  0  0  0  0  0  0
  152.8680  142.8606  157.3292 H   0  0  0  0  0  0  0  0  0  0  0  0
  151.2821  142.2257  156.9699 H   0  0  0  0  0  0  0  0  0  0  0  0
  148.3261  137.8770  155.5161 H   0  0  0  0  0  0  0  0  0  0  0  0
  148.6449  137.4159  153.8666 H   0  0  0  0  0  0  0  0  0  0  0  0
  147.4997  135.4919  155.9942 H   0  0  0  0  0  0  0  0  0  0  0  0
  146.5539  136.4795  154.9206 H   0  0  0  0  0  0  0  0  0  0  0  0
  145.6843  133.9658  154.0309 H   0  0  0  0  0  0  0  0  0  0  0  0
  144.6142  135.6782  152.4531 H   0  0  0  0  0  0  0  0  0  0  0  0
  146.2344  136.5317  152.3011 H   0  0  0  0  0  0  0  0  0  0  0  0
  147.2607  134.4684  151.3621 H   0  0  0  0  0  0  0  0  0  0  0  0
  144.4856  133.1933  151.8029 H   0  0  0  0  0  0  0  0  0  0  0  0
  145.9320  132.3099  151.2906 H   0  0  0  0  0  0  0  0  0  0  0  0
  145.2133  133.5270  150.2237 H   0  0  0  0  0  0  0  0  0  0  0  0
  148.7573  133.3312  153.2858 H   0  0  0  0  0  0  0  0  0  0  0  0
  147.8756  133.0510  154.7654 H   0  0  0  0  0  0  0  0  0  0  0  0
  148.0966  135.4591  153.1675 H   0  0  0  0  0  0  0  0  0  0  0  0
  1  2  1  0  0  0  0
  1 30  1  0  0  0  0
  1 31  1  0  0  0  0
  1 32  1  0  0  0  0
  2 29  1  0  0  0  0
  2  3  1  0  0  0  0
  2 33  1  0  0  0  0
  3  4  1  0  0  0  0
  3 34  1  0  0  0  0
  3 35  1  0  0  0  0
  4  5  1  0  0  0  0
  4 22  1  0  0  0  0
  5 10  1  0  0  0  0
  5  6  2  0  0  0  0
  6  7  1  0  0  0  0
  7  8  2  0  0  0  0
  7 36  1  0  0  0  0
  8  9  1  0  0  0  0
  9 13  1  0  0  0  0
  9 10  2  0  0  0  0
 10 11  1  0  0  0  0
 11 12  2  0  0  0  0
 12 13  1  0  0  0  0
 12 37  1  0  0  0  0
 13 14  1  0  0  0  0
 14 15  1  0  0  0  0
 14 38  1  0  0  0  0
 14 39  1  0  0  0  0
 15 21  1  0  0  0  0
 15 16  1  0  0  0  0
 15 17  1  0  0  0  0
 16 40  1  0  0  0  0
 17 18  1  0  0  0  0
 17 41  1  0  0  0  0
 17 42  1  0  0  0  0
 18 19  1  0  0  0  0
 18 43  1  0  0  0  0
 18 44  1  0  0  0  0
 19 20  1  0  0  0  0
 20 21  1  0  0  0  0
 20 45  1  0  0  0  0
 20 46  1  0  0  0  0
 21 47  1  0  0  0  0
 21 48  1  0  0  0  0
 22 23  1  0  0  0  0
 22 49  1  0  0  0  0
 22 50  1  0  0  0  0
 23 24  1  0  0  0  0
 23 51  1  0  0  0  0
 23 52  1  0  0  0  0
 24 25  1  0  0  0  0
 24 29  1  0  0  0  0
 24 62  1  0  0  0  0
 25 27  1  0  0  0  0
 25 26  1  0  0  0  0
 25 53  1  0  0  0  0
 26 27  1  0  0  0  0
 26 54  1  0  0  0  0
 26 55  1  0  0  0  0
 27 28  1  0  0  0  0
 27 56  1  0  0  0  0
 28 57  1  0  0  0  0
 28 58  1  0  0  0  0
 28 59  1  0  0  0  0
 29 60  1  0  0  0  0
 29 61  1  0  0  0  0
M  CHG  1  24   1
M  END
> <s_m_source_file>
AV-unprocessed.smi

> <i_m_source_file_index>
193

> <i_lp_mmshare_version>
43012

> <i_f3d_flags>
0

> <s_epik_input>
W0NIM11bQ0BASF0xW0NIMl1bQ0BIXTFOKFtDSDJdMilbQ0gyXVtDSDJdTihbQ0gyXVtDQEhdMltDSDNdKWMobltjSF1uMyljKGMzNCluW2NIXW40W0NIMl1DNShbT0hdKVtDSDJdW0NIMl1PW0NIMl1bQ0gyXTU=

> <s_epik_cmdline>
J2VwaWtfcHl0aG9uJywgJy1waCcsICc3LjAnLCAnLXRuJywgJzgnLCAnLW1hJywgJzIwMCcsICctbWV0YWxfYmluZGluZycsICctaW1hZScsICc8aW5maWxlLm1hZT4nLCAnLW9tYWUnLCAnPG91dGZpbGUubWFlPic=

> <r_lp_tautomer_probability>
1

> <r_epik_Ionization_Penalty>
0.0540825

> <r_epik_Ionization_Penalty_Charging>
0.0538476

> <r_epik_Ionization_Penalty_Neutral>
0.000234891

> <r_epik_State_Penalty>
0.0200719

> <r_epik_Charging_Adjusted_Penalty>
0.0739194

> <i_epik_Tot_Q>
1

> <i_epik_Tot_abs_Q>
1

> <r_epik_Metal_State_Penalty>
0.0199414

> <b_epik_Metal_Only>
0

> <s_lp_Force_Field>
OPLS_2005

> <r_lp_Energy>
55.1026

> <b_lp_Chiralities_Consistent>
1

> <s_lp_Variant>
AV-unprocessed.smi:193-14

> <Gold.Version>
5.8.1

> <Gold.Id.Protein>
6NUR|6NUR_protein|mol2

> <Gold.PLP.Fitness>
50.2693

> <Gold.PLP.PLP>
-42.7187

> <Gold.PLP.part.hbond>
-3.0000

> <Gold.PLP.part.metal>
0.0000

> <Gold.PLP.part.buried>
-6.8448

> <Gold.PLP.part.nonpolar>
-33.5303

> <Gold.PLP.part.repulsive>
0.2986

> <Gold.PLP.ligand.clash>
0.0000

> <Gold.PLP.ligand.torsion>
1.6298

> <Gold.PLP.Chemscore.Hbond>
3.0000

> <Gold.PLP.Chemscore.CHOScore>
0.0000

> <Gold.PLP.Chemscore.Metal>
0.0000

> <Gold.Chemscore.Hbonds>
donor molecule, donor type, donor heavy atom, donor atom, acceptor molecule, acceptor atom, score
      L1  H    24    62       P1  7948  2.00
      P1  H  7997  8010       L1     8  1.00

> <Gold.PLP.Chemscore.Internal.Correction>
1.8101

> <Gold.Rescore>
     Score         DG    S(hbond)    S(metal)    S(lipo)     H(rot)  DE(clash)    DE(int)     intcor
     14.52     -18.86       1.93        0.00     107.55       2.20       1.36       2.99       ----

> <Gold.Chemscore.Fitness>
14.5172

> <Gold.Chemscore.DG>
-18.8642

> <Gold.Chemscore.ZeroCoef>
-5.4800

> <Gold.Chemscore.Hbond>
1.9274

> <Gold.Chemscore.Metal>
0.0000

> <Gold.Chemscore.Lipo>
107.5500

> <Gold.Chemscore.Internal_Hbond>
0.0000

> <Gold.Chemscore.DEClash>
1.3587

> <Gold.Chemscore.DEInternal>
2.9883

> <Gold.Chemscore.Rot>
2.2018

> <Gold.Chemscore.Internal.Correction>
   9.000000E+99

> <Gold.Chemscore.Hbonds>
donor molecule, donor type, donor heavy atom, donor atom, acceptor molecule, acceptor atom, score
      L1  H    24    62       P1  7948  1.00
      P1  H  7997  8010       L1     8  0.72

> <Gold.Chemscore.Hbond.Weighted>
-6.4374

> <Gold.Chemscore.Metal.Weighted>
-0.0000

> <Gold.Chemscore.Lipo.Weighted>
-12.5833

> <Gold.Chemscore.Internal_Hbond.Weighted>
0.0000

> <Gold.Chemscore.DEClash.Weighted>
1.3587

> <Gold.Chemscore.DEInternal.Weighted>
2.9883

> <Gold.Chemscore.Rot.Weighted>
5.6366

> <Gold.Chemscore.Internal.Correction.Weighted>
   9.000000E+99

> <Gold.Protein.RotatedTorsions>
[ 6907 6896 6895 6894 ] final   13.47 input  -60.11 | X-H torsion
[ 7974 7965 7964 7962 ] final -106.50 input  175.53 | X-H torsion
[ 8008 7997 7996 7995 ] final  102.70 input   59.86 | X-H torsion
[ 10167 10162 10161 10158 ] final  148.69 input  -65.29 | X-H torsion
[ 10718 10713 10712 10709 ] final  174.78 input   66.30 | X-H torsion
[ 10763 10752 10751 10750 ] final -168.18 input  -60.55 | X-H torsion
[ 11005 11000 10999 10996 ] final  -64.87 input  -57.11 | X-H torsion

> <Gold.Protein.ActiveResidues>
 VAL166  LYS551  ARG553  GLY616  TRP617  ASP618  TYR619  PRO620  LYS621  CYS622 
 ASP623  PHE694  ASN695  SER759  ASP760  ASP761  ALA762  ILE779  LEU786  VAL792 
 PHE793  MET794  SER795  GLU796  ALA797  LYS798  CYS799  TRP800  GLU811  SER814 

> <Gold.Protein.RotatedAtoms>
  151.7868  135.0747  160.0381 H   0  0  0  0  0  0  0  0  0  0  0  0  # atno 6907 bound_to 6896
  152.3185  133.5823  159.5736 H   0  0  0  0  0  0  0  0  0  0  0  0  # atno 6908 bound_to 6896
  150.7357  133.9963  159.3665 H   0  0  0  0  0  0  0  0  0  0  0  0  # atno 6909 bound_to 6896
  145.2171  140.9119  143.3281 H   0  0  0  0  0  0  0  0  0  0  0  0  # atno 7974 bound_to 7965
  156.1417  140.3177  155.8506 H   0  0  0  0  0  0  0  0  0  0  0  0  # atno 8008 bound_to 7997
  155.4142  140.0508  157.3047 H   0  0  0  0  0  0  0  0  0  0  0  0  # atno 8009 bound_to 7997
  154.4982  140.2119  155.9415 H   0  0  0  0  0  0  0  0  0  0  0  0  # atno 8010 bound_to 7997
  139.4871  144.5660  151.7144 H   0  0  0  0  0  0  0  0  0  0  0  0  # atno 10167 bound_to 10162
  156.9445  131.0012  151.2961 H   0  0  0  0  0  0  0  0  0  0  0  0  # atno 10718 bound_to 10713
  154.6655  135.2931  154.9811 H   0  0  0  0  0  0  0  0  0  0  0  0  # atno 10763 bound_to 10752
  154.0856  135.6598  153.4848 H   0  0  0  0  0  0  0  0  0  0  0  0  # atno 10764 bound_to 10752
  153.0455  135.5208  154.7626 H   0  0  0  0  0  0  0  0  0  0  0  0  # atno 10765 bound_to 10752
  141.1437  133.6672  156.5899 H   0  0  0  0  0  0  0  0  0  0  0  0  # atno 11005 bound_to 11000
  144.9801  139.3792  143.6266 LP  0  0  0  0  0  0  0  0  0  0  0  0  # atno 17320 bound_to 7965
  146.3384  139.8938  142.8805 LP  0  0  0  0  0  0  0  0  0  0  0  0  # atno 17321 bound_to 7965
  140.5238  144.0838  150.6031 LP  0  0  0  0  0  0  0  0  0  0  0  0  # atno 17342 bound_to 10162
  140.3805  143.2805  152.0176 LP  0  0  0  0  0  0  0  0  0  0  0  0  # atno 17343 bound_to 10162
  157.5763  130.8345  149.8460 LP  0  0  0  0  0  0  0  0  0  0  0  0  # atno 17370 bound_to 10713
  156.0390  130.3744  150.1485 LP  0  0  0  0  0  0  0  0  0  0  0  0  # atno 17371 bound_to 10713
  140.3771  134.7555  157.4637 LP  0  0  0  0  0  0  0  0  0  0  0  0  # atno 17394 bound_to 11000
  140.0666  134.5921  155.8689 LP  0  0  0  0  0  0  0  0  0  0  0  0  # atno 17395 bound_to 11000

$$$$
