AV-unprocessed.smi:1696|AV-procd|sdf|6800|dock8
  -GOLD-   22720 7563D 1   1.00000     0.00000
 Structure written by MMmdl.
 39 40  0  0  0  0  0  0  0  0  2 V2000
  145.5439  143.2470  154.1078 C   0  0  0  0  0  0  0  0  0  0  0  0
  146.6776  142.3962  154.7000 C   0  0  0  0  0  0  0  0  0  0  0  0
  147.3351  141.4096  153.6970 C   0  0  1  0  0  0  0  0  0  0  0  0
  148.7697  140.9951  154.1316 C   0  0  0  0  0  0  0  0  0  0  0  0
  149.4103  141.9617  155.0230 N   0  0  0  0  0  0  0  0  0  0  0  0
  150.2157  141.6612  156.0518 C   0  0  0  0  0  0  0  0  0  0  0  0
  150.5288  140.5110  156.3550 O   0  0  0  0  0  0  0  0  0  0  0  0
  150.6238  142.7705  156.6888 N   0  0  0  0  0  0  0  0  0  0  0  0
  151.4903  142.8594  157.8062 C   0  0  0  0  0  0  0  0  0  0  0  0
  151.8437  141.7385  158.4376 N   0  0  0  0  0  0  0  0  0  0  0  0
  152.7005  141.9900  159.5133 C   0  0  0  0  0  0  0  0  0  0  0  0
  152.9890  143.3207  159.6894 C   0  0  0  0  0  0  0  0  0  0  0  0
  152.1913  144.3210  158.5056 S   0  0  0  0  0  0  0  0  0  0  0  0
  146.4795  140.2053  153.4664 N   0  3  0  0  0  0  0  0  0  0  0  0
  146.8685  139.3311  152.3378 C   0  0  0  0  0  0  0  0  0  0  0  0
  146.1894  137.9960  152.6181 C   0  0  0  0  0  0  0  0  0  0  0  0
  146.2852  137.8719  154.1337 C   0  0  0  0  0  0  0  0  0  0  0  0
  146.3093  139.3184  154.6465 C   0  0  0  0  0  0  0  0  0  0  0  0
  145.0519  143.8248  154.8904 H   0  0  0  0  0  0  0  0  0  0  0  0
  144.7865  142.6214  153.6352 H   0  0  0  0  0  0  0  0  0  0  0  0
  145.9052  143.9584  153.3665 H   0  0  0  0  0  0  0  0  0  0  0  0
  147.4319  143.0459  155.1439 H   0  0  0  0  0  0  0  0  0  0  0  0
  146.2351  141.8465  155.5294 H   0  0  0  0  0  0  0  0  0  0  0  0
  147.4173  141.9324  152.7427 H   0  0  0  0  0  0  0  0  0  0  0  0
  148.7279  140.0515  154.6753 H   0  0  0  0  0  0  0  0  0  0  0  0
  149.4039  140.7813  153.2716 H   0  0  0  0  0  0  0  0  0  0  0  0
  149.2010  142.9360  154.8603 H   0  0  0  0  0  0  0  0  0  0  0  0
  150.2767  143.6512  156.3389 H   0  0  0  0  0  0  0  0  0  0  0  0
  153.0604  141.1595  160.1024 H   0  0  0  0  0  0  0  0  0  0  0  0
  153.6207  143.7712  160.4406 H   0  0  0  0  0  0  0  0  0  0  0  0
  146.5624  139.7427  151.3757 H   0  0  0  0  0  0  0  0  0  0  0  0
  147.9521  139.1999  152.3282 H   0  0  0  0  0  0  0  0  0  0  0  0
  145.1423  138.0420  152.3154 H   0  0  0  0  0  0  0  0  0  0  0  0
  146.6565  137.1625  152.0926 H   0  0  0  0  0  0  0  0  0  0  0  0
  145.4643  137.2911  154.5552 H   0  0  0  0  0  0  0  0  0  0  0  0
  147.2165  137.3714  154.4027 H   0  0  0  0  0  0  0  0  0  0  0  0
  147.1256  139.4361  155.3606 H   0  0  0  0  0  0  0  0  0  0  0  0
  145.3812  139.5738  155.1585 H   0  0  0  0  0  0  0  0  0  0  0  0
  145.5556  140.5444  153.2388 H   0  0  0  0  0  0  0  0  0  0  0  0
  1  2  1  0  0  0  0
  1 19  1  0  0  0  0
  1 20  1  0  0  0  0
  1 21  1  0  0  0  0
  2  3  1  0  0  0  0
  2 22  1  0  0  0  0
  2 23  1  0  0  0  0
  3  4  1  0  0  0  0
  3 14  1  0  0  0  0
  3 24  1  0  0  0  0
  4  5  1  0  0  0  0
  4 25  1  0  0  0  0
  4 26  1  0  0  0  0
  5  6  1  0  0  0  0
  5 27  1  0  0  0  0
  6  7  2  0  0  0  0
  6  8  1  0  0  0  0
  8  9  1  0  0  0  0
  8 28  1  0  0  0  0
  9 13  1  0  0  0  0
  9 10  2  0  0  0  0
 10 11  1  0  0  0  0
 11 12  2  0  0  0  0
 11 29  1  0  0  0  0
 12 13  1  0  0  0  0
 12 30  1  0  0  0  0
 14 18  1  0  0  0  0
 14 15  1  0  0  0  0
 14 39  1  0  0  0  0
 15 16  1  0  0  0  0
 15 31  1  0  0  0  0
 15 32  1  0  0  0  0
 16 17  1  0  0  0  0
 16 33  1  0  0  0  0
 16 34  1  0  0  0  0
 17 18  1  0  0  0  0
 17 35  1  0  0  0  0
 17 36  1  0  0  0  0
 18 37  1  0  0  0  0
 18 38  1  0  0  0  0
M  CHG  1  14   1
M  END
> <s_m_source_file>
AV-unprocessed.smi

> <i_m_source_file_index>
1696

> <i_lp_mmshare_version>
43012

> <i_f3d_flags>
0

> <s_epik_input>
W0NIMl0xW0NIMl1bQ0gyXVtDSDJdTjFbQ0BIXShbQ0gyXVtDSDNdKVtDSDJdW05IXUMoPU8pW05IXWMybltjSF1bY0hdczI=

> <s_epik_cmdline>
J2VwaWtfcHl0aG9uJywgJy1waCcsICc3LjAnLCAnLXRuJywgJzgnLCAnLW1hJywgJzIwMCcsICctbWV0YWxfYmluZGluZycsICctaW1hZScsICc8aW5maWxlLm1hZT4nLCAnLW9tYWUnLCAnPG91dGZpbGUubWFlPic=

> <r_lp_tautomer_probability>
1

> <r_epik_Ionization_Penalty>
0.0013883

> <r_epik_Ionization_Penalty_Charging>
0.00115997

> <r_epik_Ionization_Penalty_Neutral>
0.000228323

> <r_epik_State_Penalty>
-0

> <r_epik_Charging_Adjusted_Penalty>
0.00115997

> <i_epik_Tot_Q>
1

> <i_epik_Tot_abs_Q>
1

> <r_epik_Metal_State_Penalty>
0.0131845

> <b_epik_Metal_Only>
0

> <s_lp_Force_Field>
OPLS_2005

> <r_lp_Energy>
36.9264

> <b_lp_Chiralities_Consistent>
1

> <s_lp_Variant>
AV-unprocessed.smi:1696-2

> <Gold.Version>
5.8.1

> <Gold.Id.Protein>
6NUR|6NUR_protein|mol2

> <Gold.PLP.Fitness>
50.4755

> <Gold.PLP.PLP>
-40.1417

> <Gold.PLP.part.hbond>
-3.0000

> <Gold.PLP.part.metal>
0.0000

> <Gold.PLP.part.buried>
-4.6166

> <Gold.PLP.part.nonpolar>
-33.5185

> <Gold.PLP.part.repulsive>
0.3027

> <Gold.PLP.ligand.clash>
0.0000

> <Gold.PLP.ligand.torsion>
0.8663

> <Gold.PLP.Chemscore.Hbond>
3.9920

> <Gold.PLP.Chemscore.CHOScore>
0.0000

> <Gold.PLP.Chemscore.Metal>
0.0000

> <Gold.Chemscore.Hbonds>
donor molecule, donor type, donor heavy atom, donor atom, acceptor molecule, acceptor atom, score
      L1  H     5    27       P1  8028  0.96
      L1  H     8    28       P1  8028  1.00
      L1  H    14    39       P1 10175  2.00

> <Gold.PLP.Chemscore.Internal.Correction>
0.0904

> <Gold.Rescore>
     Score         DG    S(hbond)    S(metal)    S(lipo)     H(rot)  DE(clash)    DE(int)     intcor
     18.03     -20.37       2.89        0.00      83.62       1.77       0.14       2.20       ----

> <Gold.Chemscore.Fitness>
18.0265

> <Gold.Chemscore.DG>
-20.3730

> <Gold.Chemscore.ZeroCoef>
-5.4800

> <Gold.Chemscore.Hbond>
2.8870

> <Gold.Chemscore.Metal>
0.0000

> <Gold.Chemscore.Lipo>
83.6152

> <Gold.Chemscore.Internal_Hbond>
0.0000

> <Gold.Chemscore.DEClash>
0.1434

> <Gold.Chemscore.DEInternal>
2.2032

> <Gold.Chemscore.Rot>
1.7705

> <Gold.Chemscore.Internal.Correction>
   9.000000E+99

> <Gold.Chemscore.Hbonds>
donor molecule, donor type, donor heavy atom, donor atom, acceptor molecule, acceptor atom, score
      L1  H     5    27       P1  8028  0.91
      L1  H     8    28       P1  8028  0.96
      L1  H    14    39       P1 10175  0.85

> <Gold.Chemscore.Hbond.Weighted>
-9.6425

> <Gold.Chemscore.Metal.Weighted>
-0.0000

> <Gold.Chemscore.Lipo.Weighted>
-9.7830

> <Gold.Chemscore.Internal_Hbond.Weighted>
0.0000

> <Gold.Chemscore.DEClash.Weighted>
0.1434

> <Gold.Chemscore.DEInternal.Weighted>
2.2032

> <Gold.Chemscore.Rot.Weighted>
4.5324

> <Gold.Chemscore.Internal.Correction.Weighted>
   9.000000E+99

> <Gold.Protein.RotatedTorsions>
[ 6907 6896 6895 6894 ] final  117.35 input  -60.11 | X-H torsion
[ 7974 7965 7964 7962 ] final  -21.57 input  175.53 | X-H torsion
[ 8008 7997 7996 7995 ] final   31.38 input   59.86 | X-H torsion
[ 10167 10162 10161 10158 ] final -121.12 input  -65.29 | X-H torsion
[ 10718 10713 10712 10709 ] final  119.58 input   66.30 | X-H torsion
[ 10763 10752 10751 10750 ] final  162.23 input  -60.55 | X-H torsion
[ 11005 11000 10999 10996 ] final   51.35 input  -57.11 | X-H torsion

> <Gold.Protein.ActiveResidues>
 VAL166  LYS551  ARG553  GLY616  TRP617  ASP618  TYR619  PRO620  LYS621  CYS622 
 ASP623  PHE694  ASN695  SER759  ASP760  ASP761  ALA762  ILE779  LEU786  VAL792 
 PHE793  MET794  SER795  GLU796  ALA797  LYS798  CYS799  TRP800  GLU811  SER814 

> <Gold.Protein.RotatedAtoms>
  152.4618  133.7837  159.6864 H   0  0  0  0  0  0  0  0  0  0  0  0  # atno 6907 bound_to 6896
  150.8565  133.7698  159.3013 H   0  0  0  0  0  0  0  0  0  0  0  0  # atno 6908 bound_to 6896
  151.5277  135.1071  159.9946 H   0  0  0  0  0  0  0  0  0  0  0  0  # atno 6909 bound_to 6896
  146.1725  140.4359  142.8526 H   0  0  0  0  0  0  0  0  0  0  0  0  # atno 7974 bound_to 7965
  155.1054  140.3234  155.4536 H   0  0  0  0  0  0  0  0  0  0  0  0  # atno 8008 bound_to 7997
  156.2705  140.2053  156.6127 H   0  0  0  0  0  0  0  0  0  0  0  0  # atno 8009 bound_to 7997
  154.6797  140.0527  157.0239 H   0  0  0  0  0  0  0  0  0  0  0  0  # atno 8010 bound_to 7997
  140.0284  143.5273  152.2188 H   0  0  0  0  0  0  0  0  0  0  0  0  # atno 10167 bound_to 10162
  157.5952  131.1059  150.7916 H   0  0  0  0  0  0  0  0  0  0  0  0  # atno 10718 bound_to 10713
  154.2751  135.2764  155.2721 H   0  0  0  0  0  0  0  0  0  0  0  0  # atno 10763 bound_to 10752
  154.5267  135.5741  153.6729 H   0  0  0  0  0  0  0  0  0  0  0  0  # atno 10764 bound_to 10752
  152.9938  135.6218  154.2908 H   0  0  0  0  0  0  0  0  0  0  0  0  # atno 10765 bound_to 10752
  140.0940  134.5170  155.8824 H   0  0  0  0  0  0  0  0  0  0  0  0  # atno 11005 bound_to 11000
  144.8185  140.6510  143.6368 LP  0  0  0  0  0  0  0  0  0  0  0  0  # atno 17320 bound_to 7965
  145.4300  139.1550  143.4027 LP  0  0  0  0  0  0  0  0  0  0  0  0  # atno 17321 bound_to 7965
  139.6092  144.7604  151.2991 LP  0  0  0  0  0  0  0  0  0  0  0  0  # atno 17342 bound_to 10162
  140.7312  143.6857  150.7963 LP  0  0  0  0  0  0  0  0  0  0  0  0  # atno 17343 bound_to 10162
  156.8328  130.5021  149.5329 LP  0  0  0  0  0  0  0  0  0  0  0  0  # atno 17370 bound_to 10713
  156.1013  130.5971  150.9898 LP  0  0  0  0  0  0  0  0  0  0  0  0  # atno 17371 bound_to 10713
  141.2086  133.6676  156.6385 LP  0  0  0  0  0  0  0  0  0  0  0  0  # atno 17394 bound_to 11000
  140.3312  134.7927  157.4327 LP  0  0  0  0  0  0  0  0  0  0  0  0  # atno 17395 bound_to 11000

$$$$
