AV-unprocessed.smi:249|AV-procd|sdf|1904|dock1
  -GOLD-   2262020583D 1   1.00000     0.00000
 Structure written by MMmdl.
 64 67  0  0  0  0  0  0  0  0  2 V2000
  144.8513  135.3139  151.4904 C   0  0  0  0  0  0  0  0  0  0  0  0
  143.9497  134.3304  152.2548 C   0  0  0  0  0  0  0  0  0  0  0  0
  144.5875  133.7614  153.4776 N   0  3  2  0  0  0  0  0  0  0  0  0
  144.7083  134.7775  154.5628 C   0  0  0  0  0  0  0  0  0  0  0  0
  145.2922  134.1839  155.8548 C   0  0  0  0  0  0  0  0  0  0  0  0
  146.6779  133.5519  155.6118 C   0  0  2  0  0  0  0  0  0  0  0  0
  147.7223  134.5300  155.2652 N   0  0  0  0  0  0  0  0  0  0  0  0
  148.8813  134.0406  154.5253 C   0  0  0  0  0  0  0  0  0  0  0  0
  148.1167  135.3438  156.2700 C   0  0  0  0  0  0  0  0  0  0  0  0
  147.7636  134.9897  157.5301 N   0  0  0  0  0  0  0  0  0  0  0  0
  148.1347  135.7507  158.5646 C   0  0  0  0  0  0  0  0  0  0  0  0
  148.8457  136.8808  158.5577 N   0  0  0  0  0  0  0  0  0  0  0  0
  149.1936  137.2407  157.2889 C   0  0  0  0  0  0  0  0  0  0  0  0
  148.8710  136.5376  156.0952 C   0  0  0  0  0  0  0  0  0  0  0  0
  149.3908  137.2063  154.9936 N   0  0  0  0  0  0  0  0  0  0  0  0
  149.9917  138.2452  155.5075 C   0  0  0  0  0  0  0  0  0  0  0  0
  149.9284  138.3385  156.8796 N   0  0  0  0  0  0  0  0  0  0  0  0
  150.5093  139.3778  157.7102 C   0  0  0  0  0  0  0  0  0  0  0  0
  150.5976  140.7500  156.9972 C   0  0  1  0  0  0  0  0  0  0  0  0
  149.3148  141.0957  156.2024 C   0  0  0  0  0  0  0  0  0  0  0  0
  149.5766  142.0359  155.1805 O   0  0  0  0  0  0  0  0  0  0  0  0
  151.0062  141.8751  157.9810 C   0  0  2  0  0  0  0  0  0  0  0  0
  151.3290  143.2088  157.3305 C   0  0  0  0  0  0  0  0  0  0  0  0
  152.1213  143.9159  158.4243 C   0  0  0  0  0  0  0  0  0  0  0  0
  152.8286  142.8885  159.1086 O   0  0  0  0  0  0  0  0  0  0  0  0
  152.3116  141.6132  158.7410 C   0  0  0  0  0  0  0  0  0  0  0  0
  146.4841  132.4881  154.5158 C   0  0  0  0  0  0  0  0  0  0  0  0
  145.8929  133.0721  153.2114 C   0  0  1  0  0  0  0  0  0  0  0  0
  145.7770  131.9360  152.1738 C   0  0  0  0  0  0  0  0  0  0  0  0
  144.2824  135.8224  150.7116 H   0  0  0  0  0  0  0  0  0  0  0  0
  145.6835  134.8148  150.9950 H   0  0  0  0  0  0  0  0  0  0  0  0
  145.2558  136.0788  152.1538 H   0  0  0  0  0  0  0  0  0  0  0  0
  143.0582  134.8929  152.5216 H   0  0  0  0  0  0  0  0  0  0  0  0
  143.6238  133.5241  151.5962 H   0  0  0  0  0  0  0  0  0  0  0  0
  145.3226  135.6095  154.2156 H   0  0  0  0  0  0  0  0  0  0  0  0
  143.7319  135.1915  154.8080 H   0  0  0  0  0  0  0  0  0  0  0  0
  145.3290  134.9449  156.6343 H   0  0  0  0  0  0  0  0  0  0  0  0
  144.6116  133.4198  156.2330 H   0  0  0  0  0  0  0  0  0  0  0  0
  146.9921  133.0424  156.5230 H   0  0  0  0  0  0  0  0  0  0  0  0
  149.7145  134.7451  154.5540 H   0  0  0  0  0  0  0  0  0  0  0  0
  148.6223  133.8894  153.4773 H   0  0  0  0  0  0  0  0  0  0  0  0
  149.2273  133.0902  154.9338 H   0  0  0  0  0  0  0  0  0  0  0  0
  147.8183  135.4044  159.5375 H   0  0  0  0  0  0  0  0  0  0  0  0
  150.5081  138.9722  154.8973 H   0  0  0  0  0  0  0  0  0  0  0  0
  149.9164  139.4633  158.6217 H   0  0  0  0  0  0  0  0  0  0  0  0
  151.4989  139.0388  158.0174 H   0  0  0  0  0  0  0  0  0  0  0  0
  151.3970  140.6694  156.2590 H   0  0  0  0  0  0  0  0  0  0  0  0
  148.8830  140.2017  155.7533 H   0  0  0  0  0  0  0  0  0  0  0  0
  148.5440  141.4988  156.8594 H   0  0  0  0  0  0  0  0  0  0  0  0
  149.1892  142.8623  155.4259 H   0  0  0  0  0  0  0  0  0  0  0  0
  150.2092  142.0313  158.7102 H   0  0  0  0  0  0  0  0  0  0  0  0
  151.9558  143.0633  156.4492 H   0  0  0  0  0  0  0  0  0  0  0  0
  150.4429  143.7695  157.0319 H   0  0  0  0  0  0  0  0  0  0  0  0
  152.7988  144.6721  158.0278 H   0  0  0  0  0  0  0  0  0  0  0  0
  151.4458  144.4010  159.1298 H   0  0  0  0  0  0  0  0  0  0  0  0
  152.1626  140.9851  159.6196 H   0  0  0  0  0  0  0  0  0  0  0  0
  153.0432  141.1230  158.0973 H   0  0  0  0  0  0  0  0  0  0  0  0
  147.4247  131.9763  154.3126 H   0  0  0  0  0  0  0  0  0  0  0  0
  145.8146  131.7132  154.8928 H   0  0  0  0  0  0  0  0  0  0  0  0
  146.5904  133.8135  152.8183 H   0  0  0  0  0  0  0  0  0  0  0  0
  146.7005  131.3581  152.1250 H   0  0  0  0  0  0  0  0  0  0  0  0
  145.6051  132.3090  151.1650 H   0  0  0  0  0  0  0  0  0  0  0  0
  144.9722  131.2450  152.4269 H   0  0  0  0  0  0  0  0  0  0  0  0
  143.9602  133.0481  153.8207 H   0  0  0  0  0  0  0  0  0  0  0  0
  1  2  1  0  0  0  0
  1 30  1  0  0  0  0
  1 31  1  0  0  0  0
  1 32  1  0  0  0  0
  2  3  1  0  0  0  0
  2 33  1  0  0  0  0
  2 34  1  0  0  0  0
  3 28  1  0  0  0  0
  3  4  1  0  0  0  0
  3 64  1  0  0  0  0
  4  5  1  0  0  0  0
  4 35  1  0  0  0  0
  4 36  1  0  0  0  0
  5  6  1  0  0  0  0
  5 37  1  0  0  0  0
  5 38  1  0  0  0  0
  6  7  1  0  0  0  0
  6 27  1  0  0  0  0
  6 39  1  0  0  0  0
  7  8  1  0  0  0  0
  7  9  1  0  0  0  0
  8 40  1  0  0  0  0
  8 41  1  0  0  0  0
  8 42  1  0  0  0  0
  9 14  1  0  0  0  0
  9 10  2  0  0  0  0
 10 11  1  0  0  0  0
 11 12  2  0  0  0  0
 11 43  1  0  0  0  0
 12 13  1  0  0  0  0
 13 17  1  0  0  0  0
 13 14  2  0  0  0  0
 14 15  1  0  0  0  0
 15 16  2  0  0  0  0
 16 17  1  0  0  0  0
 16 44  1  0  0  0  0
 17 18  1  0  0  0  0
 18 19  1  0  0  0  0
 18 45  1  0  0  0  0
 18 46  1  0  0  0  0
 19 20  1  0  0  0  0
 19 22  1  0  0  0  0
 19 47  1  0  0  0  0
 20 21  1  0  0  0  0
 20 48  1  0  0  0  0
 20 49  1  0  0  0  0
 21 50  1  0  0  0  0
 22 26  1  0  0  0  0
 22 23  1  0  0  0  0
 22 51  1  0  0  0  0
 23 24  1  0  0  0  0
 23 52  1  0  0  0  0
 23 53  1  0  0  0  0
 24 25  1  0  0  0  0
 24 54  1  0  0  0  0
 24 55  1  0  0  0  0
 25 26  1  0  0  0  0
 26 56  1  0  0  0  0
 26 57  1  0  0  0  0
 27 28  1  0  0  0  0
 27 58  1  0  0  0  0
 27 59  1  0  0  0  0
 28 29  1  0  0  0  0
 28 60  1  0  0  0  0
 29 61  1  0  0  0  0
 29 62  1  0  0  0  0
 29 63  1  0  0  0  0
M  CHG  1   3   1
M  END
> <s_m_source_file>
AV-unprocessed.smi

> <i_m_source_file_index>
249

> <i_lp_mmshare_version>
43012

> <i_f3d_flags>
0

> <s_epik_input>
W0NIM11bQ0gyXU4xW0NIMl1bQ0gyXVtDQEhdKFtDSDJdW0NASF0xW0NIM10pTihbQ0gzXSljKG5bY0hdbjIpYyhjMjMpbltjSF1uM1tDSDJdW0NASF0oW0NIMl1bT0hdKVtDQEBIXTRbQ0gyXVtDSDJdT1tDSDJdNA==

> <s_epik_cmdline>
J2VwaWtfcHl0aG9uJywgJy1waCcsICc3LjAnLCAnLXRuJywgJzgnLCAnLW1hJywgJzIwMCcsICctbWV0YWxfYmluZGluZycsICctaW1hZScsICc8aW5maWxlLm1hZT4nLCAnLW9tYWUnLCAnPG91dGZpbGUubWFlPic=

> <r_lp_tautomer_probability>
1

> <r_epik_Ionization_Penalty>
0.00294688

> <r_epik_Ionization_Penalty_Charging>
0.00169971

> <r_epik_Ionization_Penalty_Neutral>
0.00124717

> <r_epik_State_Penalty>
-0

> <r_epik_Charging_Adjusted_Penalty>
0.00169971

> <i_epik_Tot_Q>
1

> <i_epik_Tot_abs_Q>
1

> <r_epik_Metal_State_Penalty>
-0

> <b_epik_Metal_Only>
0

> <s_lp_Force_Field>
OPLS_2005

> <r_lp_Energy>
56.7452

> <b_lp_Chiralities_Consistent>
1

> <s_lp_Variant>
AV-unprocessed.smi:249-7

> <Gold.Version>
5.8.1

> <Gold.Id.Protein>
6NUR|6NUR_protein|mol2

> <Gold.PLP.Fitness>
39.7732

> <Gold.PLP.PLP>
-31.9667

> <Gold.PLP.part.hbond>
-1.9972

> <Gold.PLP.part.metal>
0.0000

> <Gold.PLP.part.buried>
-7.7398

> <Gold.PLP.part.nonpolar>
-23.6166

> <Gold.PLP.part.repulsive>
0.2025

> <Gold.PLP.ligand.clash>
0.0000

> <Gold.PLP.ligand.torsion>
1.2144

> <Gold.PLP.Chemscore.Hbond>
3.0000

> <Gold.PLP.Chemscore.CHOScore>
0.0000

> <Gold.PLP.Chemscore.Metal>
0.0000

> <Gold.Chemscore.Hbonds>
donor molecule, donor type, donor heavy atom, donor atom, acceptor molecule, acceptor atom, score
      L1  H     3    64       P1 10957  1.85
      L1  H    21    50       P1  8028  1.00

> <Gold.PLP.Chemscore.Internal.Correction>
1.2353

> <Gold.Rescore>
     Score         DG    S(hbond)    S(metal)    S(lipo)     H(rot)  DE(clash)    DE(int)     intcor
     13.10     -14.39       1.94        0.00      84.17       2.90       0.00       1.29       ----

> <Gold.Chemscore.Fitness>
13.0956

> <Gold.Chemscore.DG>
-14.3915

> <Gold.Chemscore.ZeroCoef>
-5.4800

> <Gold.Chemscore.Hbond>
1.9429

> <Gold.Chemscore.Metal>
0.0000

> <Gold.Chemscore.Lipo>
84.1699

> <Gold.Chemscore.Internal_Hbond>
0.0000

> <Gold.Chemscore.DEClash>
0.0024

> <Gold.Chemscore.DEInternal>
1.2935

> <Gold.Chemscore.Rot>
2.9006

> <Gold.Chemscore.Internal.Correction>
   9.000000E+99

> <Gold.Chemscore.Hbonds>
donor molecule, donor type, donor heavy atom, donor atom, acceptor molecule, acceptor atom, score
      L1  H     3    64       P1 10957  0.85
      L1  H    21    50       P1  8028  1.00

> <Gold.Chemscore.Hbond.Weighted>
-6.4893

> <Gold.Chemscore.Metal.Weighted>
-0.0000

> <Gold.Chemscore.Lipo.Weighted>
-9.8479

> <Gold.Chemscore.Internal_Hbond.Weighted>
0.0000

> <Gold.Chemscore.DEClash.Weighted>
0.0024

> <Gold.Chemscore.DEInternal.Weighted>
1.2935

> <Gold.Chemscore.Rot.Weighted>
7.4256

> <Gold.Chemscore.Internal.Correction.Weighted>
   9.000000E+99

> <Gold.Protein.RotatedTorsions>
[ 6907 6896 6895 6894 ] final   60.22 input  -60.11 | X-H torsion
[ 7974 7965 7964 7962 ] final  130.22 input  175.53 | X-H torsion
[ 8008 7997 7996 7995 ] final  105.81 input   59.86 | X-H torsion
[ 10167 10162 10161 10158 ] final  -23.38 input  -65.29 | X-H torsion
[ 10718 10713 10712 10709 ] final   63.36 input   66.30 | X-H torsion
[ 10763 10752 10751 10750 ] final -107.67 input  -60.55 | X-H torsion
[ 11005 11000 10999 10996 ] final -110.70 input  -57.11 | X-H torsion

> <Gold.Protein.ActiveResidues>
 VAL166  LYS551  ARG553  GLY616  TRP617  ASP618  TYR619  PRO620  LYS621  CYS622 
 ASP623  PHE694  ASN695  SER759  ASP760  ASP761  ALA762  ILE779  LEU786  VAL792 
 PHE793  MET794  SER795  GLU796  ALA797  LYS798  CYS799  TRP800  GLU811  SER814 

> <Gold.Protein.RotatedAtoms>
  152.3983  134.6328  160.0079 H   0  0  0  0  0  0  0  0  0  0  0  0  # atno 6907 bound_to 6896
  151.6541  133.3314  159.3166 H   0  0  0  0  0  0  0  0  0  0  0  0  # atno 6908 bound_to 6896
  150.7887  134.6937  159.6556 H   0  0  0  0  0  0  0  0  0  0  0  0  # atno 6909 bound_to 6896
  145.0202  139.4139  143.5201 H   0  0  0  0  0  0  0  0  0  0  0  0  # atno 7974 bound_to 7965
  156.1690  140.3124  155.8940 H   0  0  0  0  0  0  0  0  0  0  0  0  # atno 8008 bound_to 7997
  155.3626  140.0477  157.3063 H   0  0  0  0  0  0  0  0  0  0  0  0  # atno 8009 bound_to 7997
  154.5222  140.2202  155.8966 H   0  0  0  0  0  0  0  0  0  0  0  0  # atno 8010 bound_to 7997
  140.7288  143.4448  151.0603 H   0  0  0  0  0  0  0  0  0  0  0  0  # atno 10167 bound_to 10162
  157.5966  130.9101  149.9706 H   0  0  0  0  0  0  0  0  0  0  0  0  # atno 10718 bound_to 10713
  154.8089  135.4666  154.0465 H   0  0  0  0  0  0  0  0  0  0  0  0  # atno 10763 bound_to 10752
  153.1912  135.6855  153.8357 H   0  0  0  0  0  0  0  0  0  0  0  0  # atno 10764 bound_to 10752
  153.7875  135.3248  155.3351 H   0  0  0  0  0  0  0  0  0  0  0  0  # atno 10765 bound_to 10752
  141.0777  133.9274  157.2356 H   0  0  0  0  0  0  0  0  0  0  0  0  # atno 11005 bound_to 11000
  146.3484  139.9695  142.8708 LP  0  0  0  0  0  0  0  0  0  0  0  0  # atno 17320 bound_to 7965
  145.1906  140.9810  143.4213 LP  0  0  0  0  0  0  0  0  0  0  0  0  # atno 17321 bound_to 7965
  139.8119  143.7939  152.3172 LP  0  0  0  0  0  0  0  0  0  0  0  0  # atno 17342 bound_to 10162
  139.7992  144.7381  150.9848 LP  0  0  0  0  0  0  0  0  0  0  0  0  # atno 17343 bound_to 10162
  156.1030  130.3654  150.0184 LP  0  0  0  0  0  0  0  0  0  0  0  0  # atno 17370 bound_to 10713
  156.8296  130.9388  151.3637 LP  0  0  0  0  0  0  0  0  0  0  0  0  # atno 17371 bound_to 10713
  139.9589  135.0159  156.9206 LP  0  0  0  0  0  0  0  0  0  0  0  0  # atno 17394 bound_to 11000
  140.5538  134.0601  155.7377 LP  0  0  0  0  0  0  0  0  0  0  0  0  # atno 17395 bound_to 11000

$$$$
