AV-unprocessed.smi:1786|AV-procd|sdf|7203|dock5
  -GOLD-   22720 8443D 1   1.00000     0.00000
 Structure written by MMmdl.
 44 45  0  0  0  0  0  0  0  0  2 V2000
  143.2571  145.8038  159.1330 C   0  0  0  0  0  0  0  0  0  0  0  0
  144.5266  145.7404  158.2564 C   0  0  1  0  0  0  0  0  0  0  0  0
  144.1991  145.7350  156.7482 C   0  0  0  0  0  0  0  0  0  0  0  0
  143.7310  147.1115  156.2538 C   0  0  0  0  0  0  0  0  0  0  0  0
  144.7650  148.1821  156.6230 C   0  0  0  0  0  0  0  0  0  0  0  0
  145.0714  148.1640  158.1295 C   0  0  0  0  0  0  0  0  0  0  0  0
  145.5179  146.8136  158.5689 N   0  3  1  0  0  0  0  0  0  0  0  0
  146.0173  146.7766  159.9675 C   0  0  0  0  0  0  0  0  0  0  0  0
  146.7962  145.4832  160.2729 C   0  0  0  0  0  0  0  0  0  0  0  0
  148.1980  145.5977  159.8886 N   0  0  0  0  0  0  0  0  0  0  0  0
  149.2206  145.0122  160.5303 C   0  0  0  0  0  0  0  0  0  0  0  0
  149.0733  144.3271  161.5432 O   0  0  0  0  0  0  0  0  0  0  0  0
  150.6177  145.2631  159.9450 C   0  0  0  0  0  0  0  0  0  0  0  0
  151.5921  144.2163  160.2952 N   0  0  0  0  0  0  0  0  0  0  0  0
  151.9469  144.0969  161.6538 C   0  0  0  0  0  0  0  0  0  0  0  0
  152.8258  143.1761  162.0796 C   0  0  0  0  0  0  0  0  0  0  0  0
  153.4149  142.2915  161.1025 C   0  0  0  0  0  0  0  0  0  0  0  0
  153.0797  142.3943  159.8011 C   0  0  0  0  0  0  0  0  0  0  0  0
  152.1171  143.3975  159.3317 C   0  0  0  0  0  0  0  0  0  0  0  0
  151.8010  143.4962  158.1457 O   0  0  0  0  0  0  0  0  0  0  0  0
  142.5780  144.9883  158.8832 H   0  0  0  0  0  0  0  0  0  0  0  0
  142.7061  146.7341  159.0012 H   0  0  0  0  0  0  0  0  0  0  0  0
  143.4917  145.7058  160.1927 H   0  0  0  0  0  0  0  0  0  0  0  0
  145.0124  144.7874  158.4716 H   0  0  0  0  0  0  0  0  0  0  0  0
  145.0897  145.4426  156.1901 H   0  0  0  0  0  0  0  0  0  0  0  0
  143.4436  144.9804  156.5263 H   0  0  0  0  0  0  0  0  0  0  0  0
  143.5819  147.0913  155.1738 H   0  0  0  0  0  0  0  0  0  0  0  0
  142.7649  147.3607  156.6933 H   0  0  0  0  0  0  0  0  0  0  0  0
  145.6845  148.0108  156.0616 H   0  0  0  0  0  0  0  0  0  0  0  0
  144.4025  149.1673  156.3281 H   0  0  0  0  0  0  0  0  0  0  0  0
  145.8466  148.9018  158.3341 H   0  0  0  0  0  0  0  0  0  0  0  0
  144.1950  148.4745  158.6991 H   0  0  0  0  0  0  0  0  0  0  0  0
  146.6332  147.6546  160.1675 H   0  0  0  0  0  0  0  0  0  0  0  0
  145.1670  146.8338  160.6485 H   0  0  0  0  0  0  0  0  0  0  0  0
  146.7211  145.2331  161.3328 H   0  0  0  0  0  0  0  0  0  0  0  0
  146.3783  144.6394  159.7253 H   0  0  0  0  0  0  0  0  0  0  0  0
  148.4054  146.1472  159.0668 H   0  0  0  0  0  0  0  0  0  0  0  0
  150.5469  145.3573  158.8596 H   0  0  0  0  0  0  0  0  0  0  0  0
  150.9607  146.2381  160.2935 H   0  0  0  0  0  0  0  0  0  0  0  0
  151.4575  144.7914  162.3211 H   0  0  0  0  0  0  0  0  0  0  0  0
  153.0829  143.0967  163.1258 H   0  0  0  0  0  0  0  0  0  0  0  0
  154.1271  141.5428  161.4168 H   0  0  0  0  0  0  0  0  0  0  0  0
  153.5298  141.7230  159.0846 H   0  0  0  0  0  0  0  0  0  0  0  0
  146.3209  146.5924  157.9972 H   0  0  0  0  0  0  0  0  0  0  0  0
  1  2  1  0  0  0  0
  1 21  1  0  0  0  0
  1 22  1  0  0  0  0
  1 23  1  0  0  0  0
  2  7  1  0  0  0  0
  2  3  1  0  0  0  0
  2 24  1  0  0  0  0
  3  4  1  0  0  0  0
  3 25  1  0  0  0  0
  3 26  1  0  0  0  0
  4  5  1  0  0  0  0
  4 27  1  0  0  0  0
  4 28  1  0  0  0  0
  5  6  1  0  0  0  0
  5 29  1  0  0  0  0
  5 30  1  0  0  0  0
  6  7  1  0  0  0  0
  6 31  1  0  0  0  0
  6 32  1  0  0  0  0
  7  8  1  0  0  0  0
  7 44  1  0  0  0  0
  8  9  1  0  0  0  0
  8 33  1  0  0  0  0
  8 34  1  0  0  0  0
  9 10  1  0  0  0  0
  9 35  1  0  0  0  0
  9 36  1  0  0  0  0
 10 11  1  0  0  0  0
 10 37  1  0  0  0  0
 11 12  2  0  0  0  0
 11 13  1  0  0  0  0
 13 14  1  0  0  0  0
 13 38  1  0  0  0  0
 13 39  1  0  0  0  0
 14 19  1  0  0  0  0
 14 15  1  0  0  0  0
 15 16  2  0  0  0  0
 15 40  1  0  0  0  0
 16 17  1  0  0  0  0
 16 41  1  0  0  0  0
 17 18  2  0  0  0  0
 17 42  1  0  0  0  0
 18 19  1  0  0  0  0
 18 43  1  0  0  0  0
 19 20  2  0  0  0  0
M  CHG  1   7   1
M  END
> <s_m_source_file>
AV-unprocessed.smi

> <i_m_source_file_index>
1786

> <i_lp_mmshare_version>
43012

> <i_f3d_flags>
0

> <s_epik_input>
W0NIM11bQ0BASF0xW0NIMl1bQ0gyXVtDSDJdW0NIMl1OMVtDSDJdW0NIMl1bTkhdQyg9TylbQ0gyXW4yW2NIXVtjSF1bY0hdW2NIXWMyPU8=

> <s_epik_cmdline>
J2VwaWtfcHl0aG9uJywgJy1waCcsICc3LjAnLCAnLXRuJywgJzgnLCAnLW1hJywgJzIwMCcsICctbWV0YWxfYmluZGluZycsICctaW1hZScsICc8aW5maWxlLm1hZT4nLCAnLW9tYWUnLCAnPG91dGZpbGUubWFlPic=

> <r_lp_tautomer_probability>
1

> <r_epik_Ionization_Penalty>
0.00237247

> <r_epik_Ionization_Penalty_Charging>
0.00237238

> <r_epik_Ionization_Penalty_Neutral>
8.2065e-08

> <r_epik_State_Penalty>
0.00163922

> <r_epik_Charging_Adjusted_Penalty>
0.0040116

> <i_epik_Tot_Q>
1

> <i_epik_Tot_abs_Q>
1

> <r_epik_Metal_State_Penalty>
-0

> <b_epik_Metal_Only>
0

> <s_lp_Force_Field>
OPLS_2005

> <r_lp_Energy>
28.482

> <b_lp_Chiralities_Consistent>
1

> <s_lp_Variant>
AV-unprocessed.smi:1786-2

> <Gold.Version>
5.8.1

> <Gold.Id.Protein>
6NUR|6NUR_protein|mol2

> <Gold.PLP.Fitness>
57.4206

> <Gold.PLP.PLP>
-49.9405

> <Gold.PLP.part.hbond>
-3.0000

> <Gold.PLP.part.metal>
0.0000

> <Gold.PLP.part.buried>
-6.9605

> <Gold.PLP.part.nonpolar>
-41.7002

> <Gold.PLP.part.repulsive>
1.2287

> <Gold.PLP.ligand.clash>
0.0000

> <Gold.PLP.ligand.torsion>
0.7629

> <Gold.PLP.Chemscore.Hbond>
2.9760

> <Gold.PLP.Chemscore.CHOScore>
0.0000

> <Gold.PLP.Chemscore.Metal>
0.0000

> <Gold.Chemscore.Hbonds>
donor molecule, donor type, donor heavy atom, donor atom, acceptor molecule, acceptor atom, score
      L1  H     7    44       P1  8029  2.00
      L1  H    10    37       P1  8029  0.66
      P1  H  6933  6944       L1    12  0.51

> <Gold.PLP.Chemscore.Internal.Correction>
0.0779

> <Gold.Rescore>
     Score         DG    S(hbond)    S(metal)    S(lipo)     H(rot)  DE(clash)    DE(int)     intcor
     17.68     -19.74       2.22        0.00      99.28       1.86       0.11       1.95       ----

> <Gold.Chemscore.Fitness>
17.6804

> <Gold.Chemscore.DG>
-19.7400

> <Gold.Chemscore.ZeroCoef>
-5.4800

> <Gold.Chemscore.Hbond>
2.2164

> <Gold.Chemscore.Metal>
0.0000

> <Gold.Chemscore.Lipo>
99.2773

> <Gold.Chemscore.Internal_Hbond>
0.0000

> <Gold.Chemscore.DEClash>
0.1078

> <Gold.Chemscore.DEInternal>
1.9519

> <Gold.Chemscore.Rot>
1.8586

> <Gold.Chemscore.Internal.Correction>
   9.000000E+99

> <Gold.Chemscore.Hbonds>
donor molecule, donor type, donor heavy atom, donor atom, acceptor molecule, acceptor atom, score
      L1  H     7    44       P1  8029  1.00
      L1  H    10    37       P1  8029  0.66
      P1  H  6933  6944       L1    12  0.49

> <Gold.Chemscore.Hbond.Weighted>
-7.4026

> <Gold.Chemscore.Metal.Weighted>
-0.0000

> <Gold.Chemscore.Lipo.Weighted>
-11.6154

> <Gold.Chemscore.Internal_Hbond.Weighted>
0.0000

> <Gold.Chemscore.DEClash.Weighted>
0.1078

> <Gold.Chemscore.DEInternal.Weighted>
1.9519

> <Gold.Chemscore.Rot.Weighted>
4.7581

> <Gold.Chemscore.Internal.Correction.Weighted>
   9.000000E+99

> <Gold.Protein.RotatedTorsions>
[ 6907 6896 6895 6894 ] final -166.81 input  -60.11 | X-H torsion
[ 7974 7965 7964 7962 ] final  -29.29 input  175.53 | X-H torsion
[ 8008 7997 7996 7995 ] final  170.64 input   59.86 | X-H torsion
[ 10167 10162 10161 10158 ] final   54.60 input  -65.29 | X-H torsion
[ 10718 10713 10712 10709 ] final  -19.14 input   66.30 | X-H torsion
[ 10763 10752 10751 10750 ] final   72.62 input  -60.55 | X-H torsion
[ 11005 11000 10999 10996 ] final   22.95 input  -57.11 | X-H torsion

> <Gold.Protein.ActiveResidues>
 VAL166  LYS551  ARG553  GLY616  TRP617  ASP618  TYR619  PRO620  LYS621  CYS622 
 ASP623  PHE694  ASN695  SER759  ASP760  ASP761  ALA762  ILE779  LEU786  VAL792 
 PHE793  MET794  SER795  GLU796  ALA797  LYS798  CYS799  TRP800  GLU811  SER814 

> <Gold.Protein.RotatedAtoms>
  151.4496  133.3621  159.2793 H   0  0  0  0  0  0  0  0  0  0  0  0  # atno 6907 bound_to 6896
  150.9100  134.8518  159.7430 H   0  0  0  0  0  0  0  0  0  0  0  0  # atno 6908 bound_to 6896
  152.4927  134.4424  159.9600 H   0  0  0  0  0  0  0  0  0  0  0  0  # atno 6909 bound_to 6896
  146.1227  140.5393  142.8728 H   0  0  0  0  0  0  0  0  0  0  0  0  # atno 7974 bound_to 7965
  156.1346  140.1532  156.9013 H   0  0  0  0  0  0  0  0  0  0  0  0  # atno 8008 bound_to 7997
  154.4937  140.0844  156.7689 H   0  0  0  0  0  0  0  0  0  0  0  0  # atno 8009 bound_to 7997
  155.4192  140.3422  155.4272 H   0  0  0  0  0  0  0  0  0  0  0  0  # atno 8010 bound_to 7997
  140.2283  144.3714  150.6424 H   0  0  0  0  0  0  0  0  0  0  0  0  # atno 10167 bound_to 10162
  156.5499  130.4699  149.6457 H   0  0  0  0  0  0  0  0  0  0  0  0  # atno 10718 bound_to 10713
  153.0470  135.5093  154.7772 H   0  0  0  0  0  0  0  0  0  0  0  0  # atno 10763 bound_to 10752
  154.6664  135.2946  154.9802 H   0  0  0  0  0  0  0  0  0  0  0  0  # atno 10764 bound_to 10752
  154.0636  135.6687  153.4867 H   0  0  0  0  0  0  0  0  0  0  0  0  # atno 10765 bound_to 10752
  140.3750  134.1982  155.7665 H   0  0  0  0  0  0  0  0  0  0  0  0  # atno 11005 bound_to 11000
  144.7613  140.5427  143.6734 LP  0  0  0  0  0  0  0  0  0  0  0  0  # atno 17320 bound_to 7965
  145.5431  139.1475  143.3436 LP  0  0  0  0  0  0  0  0  0  0  0  0  # atno 17321 bound_to 7965
  140.6204  143.2176  151.6706 LP  0  0  0  0  0  0  0  0  0  0  0  0  # atno 17342 bound_to 10162
  139.5119  144.3494  152.0666 LP  0  0  0  0  0  0  0  0  0  0  0  0  # atno 17343 bound_to 10162
  156.2894  130.7116  151.1961 LP  0  0  0  0  0  0  0  0  0  0  0  0  # atno 17370 bound_to 10713
  157.7389  131.0535  150.5262 LP  0  0  0  0  0  0  0  0  0  0  0  0  # atno 17371 bound_to 10713
  141.1942  133.8133  157.0766 LP  0  0  0  0  0  0  0  0  0  0  0  0  # atno 17394 bound_to 11000
  140.0522  134.9799  157.1157 LP  0  0  0  0  0  0  0  0  0  0  0  0  # atno 17395 bound_to 11000

$$$$
