AV-unprocessed.smi:54|AV-procd|sdf|537|dock4
  -GOLD-   2262016423D 1   1.00000     0.00000
 Structure written by MMmdl.
 44 46  0  0  0  0  0  0  0  0  1 V2000
  152.8058  143.7655  159.6907 C   0  0  0  0  0  0  0  0  0  0  0  0
  152.4624  142.4666  160.4379 C   0  0  0  0  0  0  0  0  0  0  0  0
  153.3396  142.2929  161.6883 C   0  0  0  0  0  0  0  0  0  0  0  0
  152.6035  141.2607  159.5030 C   0  0  0  0  0  0  0  0  0  0  0  0
  153.4190  140.3622  159.7118 O   0  0  0  0  0  0  0  0  0  0  0  0
  151.7046  141.2403  158.3660 N   0  0  0  0  0  0  0  0  0  0  0  0
  151.6719  140.3035  157.3932 C   0  0  0  0  0  0  0  0  0  0  0  0
  150.6091  140.1149  156.6246 N   0  0  0  0  0  0  0  0  0  0  0  0
  150.7415  139.1082  155.7071 C   0  0  0  0  0  0  0  0  0  0  0  0
  151.8495  138.3039  155.5300 C   0  0  0  0  0  0  0  0  0  0  0  0
  151.6245  137.3922  154.5051 N   0  0  0  0  0  0  0  0  0  0  0  0
  150.4113  137.6562  154.1091 C   0  0  0  0  0  0  0  0  0  0  0  0
  149.7996  138.6804  154.7898 N   0  0  0  0  0  0  0  0  0  0  0  0
  148.4109  139.2014  154.5883 C   0  0  2  0  0  0  0  0  0  0  0  0
  147.7955  138.5113  153.5502 O   0  0  0  0  0  0  0  0  0  0  0  0
  146.8056  139.3461  152.9555 C   0  0  2  0  0  0  0  0  0  0  0  0
  146.8378  139.1642  151.4267 C   0  0  0  0  0  0  0  0  0  0  0  0
  146.9358  137.8040  151.0555 O   0  0  0  0  0  0  0  0  0  0  0  0
  147.0504  140.7830  153.4636 C   0  0  1  0  0  0  0  0  0  0  0  0
  146.0136  141.1499  154.3547 O   0  0  0  0  0  0  0  0  0  0  0  0
  148.3727  140.6891  154.2149 C   0  0  2  0  0  0  0  0  0  0  0  0
  149.4535  141.0885  153.3926 O   0  0  0  0  0  0  0  0  0  0  0  0
  153.0021  138.4900  156.3637 C   0  0  0  0  0  0  0  0  0  0  0  0
  154.0616  137.8673  156.3483 O   0  0  0  0  0  0  0  0  0  0  0  0
  152.8235  139.5252  157.2896 N   0  0  0  0  0  0  0  0  0  0  0  0
  147.8882  138.9901  155.5224 H   0  0  0  0  0  0  0  0  0  0  0  0
  145.8407  138.9818  153.3126 H   0  0  0  0  0  0  0  0  0  0  0  0
  147.0778  141.5245  152.6639 H   0  0  0  0  0  0  0  0  0  0  0  0
  148.3935  141.2987  155.1193 H   0  0  0  0  0  0  0  0  0  0  0  0
  152.1911  143.8840  158.7974 H   0  0  0  0  0  0  0  0  0  0  0  0
  153.8514  143.7846  159.3803 H   0  0  0  0  0  0  0  0  0  0  0  0
  152.6335  144.6365  160.3234 H   0  0  0  0  0  0  0  0  0  0  0  0
  151.4221  142.5273  160.7612 H   0  0  0  0  0  0  0  0  0  0  0  0
  153.1032  141.3671  162.2142 H   0  0  0  0  0  0  0  0  0  0  0  0
  153.1852  143.1141  162.3887 H   0  0  0  0  0  0  0  0  0  0  0  0
  154.4005  142.2710  161.4352 H   0  0  0  0  0  0  0  0  0  0  0  0
  151.0060  141.9677  158.3308 H   0  0  0  0  0  0  0  0  0  0  0  0
  149.9269  137.1051  153.3162 H   0  0  0  0  0  0  0  0  0  0  0  0
  145.9538  139.6085  150.9693 H   0  0  0  0  0  0  0  0  0  0  0  0
  147.7032  139.6828  151.0140 H   0  0  0  0  0  0  0  0  0  0  0  0
  147.3853  137.3383  151.7439 H   0  0  0  0  0  0  0  0  0  0  0  0
  145.1855  140.9021  153.9732 H   0  0  0  0  0  0  0  0  0  0  0  0
  149.4661  140.5299  152.6293 H   0  0  0  0  0  0  0  0  0  0  0  0
  153.5949  139.7126  157.9129 H   0  0  0  0  0  0  0  0  0  0  0  0
  1  2  1  0  0  0  0
  1 30  1  0  0  0  0
  1 31  1  0  0  0  0
  1 32  1  0  0  0  0
  2  3  1  0  0  0  0
  2  4  1  0  0  0  0
  2 33  1  0  0  0  0
  3 34  1  0  0  0  0
  3 35  1  0  0  0  0
  3 36  1  0  0  0  0
  4  5  2  0  0  0  0
  4  6  1  0  0  0  0
  6 37  1  0  0  0  0
  6  7  1  0  0  0  0
  7 25  1  0  0  0  0
  7  8  2  0  0  0  0
  8  9  1  0  0  0  0
  9 13  1  0  0  0  0
  9 10  2  0  0  0  0
 10 11  1  0  0  0  0
 10 23  1  0  0  0  0
 11 12  2  0  0  0  0
 12 13  1  0  0  0  0
 12 38  1  0  0  0  0
 13 14  1  0  0  0  0
 14 26  1  0  0  0  0
 14 21  1  0  0  0  0
 14 15  1  0  0  0  0
 15 16  1  0  0  0  0
 16 27  1  0  0  0  0
 16 17  1  0  0  0  0
 16 19  1  0  0  0  0
 17 18  1  0  0  0  0
 17 39  1  0  0  0  0
 17 40  1  0  0  0  0
 18 41  1  0  0  0  0
 19 28  1  0  0  0  0
 19 20  1  0  0  0  0
 19 21  1  0  0  0  0
 20 42  1  0  0  0  0
 21 29  1  0  0  0  0
 21 22  1  0  0  0  0
 22 43  1  0  0  0  0
 23 24  2  0  0  0  0
 23 25  1  0  0  0  0
 25 44  1  0  0  0  0
M  END
> <s_m_source_file>
AV-unprocessed.smi

> <i_m_source_file_index>
54

> <i_lp_mmshare_version>
43012

> <i_f3d_flags>
0

> <s_epik_input>
W0NIM11bQ0hdKFtDSDNdKUMoPU8pW05IXWMobjEpW25IXWMoPU8pYyhjMTIpbltjSF1uMltDQEBIXTNPW0NASF0oW0NIMl1bT0hdKVtDQEBIXShbT0hdKVtDQEhdM1tPSF0=

> <s_epik_cmdline>
J2VwaWtfcHl0aG9uJywgJy1waCcsICc3LjAnLCAnLXRuJywgJzgnLCAnLW1hJywgJzIwMCcsICctbWV0YWxfYmluZGluZycsICctaW1hZScsICc8aW5maWxlLm1hZT4nLCAnLW9tYWUnLCAnPG91dGZpbGUubWFlPic=

> <r_lp_tautomer_probability>
0.85571

> <r_epik_Ionization_Penalty>
0.0316551

> <r_epik_Ionization_Penalty_Charging>
0.0316043

> <r_epik_Ionization_Penalty_Neutral>
5.07097e-05

> <r_epik_State_Penalty>
3.15494e-07

> <r_epik_Charging_Adjusted_Penalty>
0.0316047

> <i_epik_Tot_Q>
0

> <i_epik_Tot_abs_Q>
0

> <r_epik_Metal_State_Penalty>
0.421206

> <b_epik_Metal_Only>
0

> <s_epik_Chemistry_Notes>
This compound contains an acetal/aminal-like group ( X-CH(R)-Y where X, Y are N, S, or O) that may be acid/base labile, releasing an aldehyde.

> <s_lp_Force_Field>
OPLS_2005

> <r_lp_Energy>
42.9464

> <b_lp_Chiralities_Consistent>
1

> <s_lp_Variant>
AV-unprocessed.smi:54-9

> <Gold.Version>
5.8.1

> <Gold.Id.Protein>
6NUR|6NUR_protein|mol2

> <Gold.PLP.Fitness>
57.6255

> <Gold.PLP.PLP>
-42.4559

> <Gold.PLP.part.hbond>
-7.5968

> <Gold.PLP.part.metal>
0.0000

> <Gold.PLP.part.buried>
-2.0139

> <Gold.PLP.part.nonpolar>
-35.9786

> <Gold.PLP.part.repulsive>
3.2241

> <Gold.PLP.ligand.clash>
0.0000

> <Gold.PLP.ligand.torsion>
0.2508

> <Gold.PLP.Chemscore.Hbond>
4.5415

> <Gold.PLP.Chemscore.CHOScore>
0.6708

> <Gold.PLP.Chemscore.Metal>
0.0000

> <Gold.Chemscore.Hbonds>
donor molecule, donor type, donor heavy atom, donor atom, acceptor molecule, acceptor atom, score
      L1  H    18    41       P1  7948  0.69
      L1  H    20    42       P1 10175  0.70
      L1  H    22    43       P1  7957  1.00
      P1  H  7954  7966       L1    18  1.00
      P1  H  7989  7998       L1    22  0.05
      P1  H  8011  8017       L1    22  0.35
      P1  H 10752 10764       L1    11  0.56
      L1  C    12    38       P1  7948  0.71

> <Gold.PLP.Chemscore.Internal.Correction>
0.0341

> <Gold.Rescore>
     Score         DG    S(hbond)    S(metal)    S(lipo)     H(rot)  DE(clash)    DE(int)     intcor
     10.86     -14.78       3.34        0.00      72.87       4.05       3.60       0.32       ----

> <Gold.Chemscore.Fitness>
10.8647

> <Gold.Chemscore.DG>
-14.7788

> <Gold.Chemscore.ZeroCoef>
-5.4800

> <Gold.Chemscore.Hbond>
3.3351

> <Gold.Chemscore.Metal>
0.0000

> <Gold.Chemscore.Lipo>
72.8683

> <Gold.Chemscore.Internal_Hbond>
0.0000

> <Gold.Chemscore.DEClash>
3.5958

> <Gold.Chemscore.DEInternal>
0.3182

> <Gold.Chemscore.Rot>
4.0493

> <Gold.Chemscore.Internal.Correction>
   9.000000E+99

> <Gold.Chemscore.Hbonds>
donor molecule, donor type, donor heavy atom, donor atom, acceptor molecule, acceptor atom, score
      L1  H    18    41       P1  7948  0.68
      L1  H    20    42       P1 10175  0.62
      L1  H    22    43       P1  7957  0.95
      P1  H  7954  7966       L1    18  0.08
      P1  H  8011  8017       L1    22  0.01
      P1  H 10752 10764       L1    11  0.52

> <Gold.Chemscore.Hbond.Weighted>
-11.1394

> <Gold.Chemscore.Metal.Weighted>
-0.0000

> <Gold.Chemscore.Lipo.Weighted>
-8.5256

> <Gold.Chemscore.Internal_Hbond.Weighted>
0.0000

> <Gold.Chemscore.DEClash.Weighted>
3.5958

> <Gold.Chemscore.DEInternal.Weighted>
0.3182

> <Gold.Chemscore.Rot.Weighted>
10.3662

> <Gold.Chemscore.Internal.Correction.Weighted>
   9.000000E+99

> <Gold.Protein.RotatedTorsions>
[ 6907 6896 6895 6894 ] final -163.95 input  -60.11 | X-H torsion
[ 7974 7965 7964 7962 ] final  160.69 input  175.53 | X-H torsion
[ 8008 7997 7996 7995 ] final  113.35 input   59.86 | X-H torsion
[ 10167 10162 10161 10158 ] final   96.81 input  -65.29 | X-H torsion
[ 10718 10713 10712 10709 ] final    5.43 input   66.30 | X-H torsion
[ 10763 10752 10751 10750 ] final  -86.72 input  -60.55 | X-H torsion
[ 11005 11000 10999 10996 ] final    7.27 input  -57.11 | X-H torsion

> <Gold.Protein.ActiveResidues>
 VAL166  LYS551  ARG553  GLY616  TRP617  ASP618  TYR619  PRO620  LYS621  CYS622 
 ASP623  PHE694  ASN695  SER759  ASP760  ASP761  ALA762  ILE779  LEU786  VAL792 
 PHE793  MET794  SER795  GLU796  ALA797  LYS798  CYS799  TRP800  GLU811  SER814 

> <Gold.Protein.RotatedAtoms>
  151.4041  133.3748  159.2735 H   0  0  0  0  0  0  0  0  0  0  0  0  # atno 6907 bound_to 6896
  150.9412  134.8822  159.7624 H   0  0  0  0  0  0  0  0  0  0  0  0  # atno 6908 bound_to 6896
  152.5072  134.3991  159.9462 H   0  0  0  0  0  0  0  0  0  0  0  0  # atno 6909 bound_to 6896
  144.7724  139.7793  143.6292 H   0  0  0  0  0  0  0  0  0  0  0  0  # atno 7974 bound_to 7965
  156.2252  140.2981  156.0050 H   0  0  0  0  0  0  0  0  0  0  0  0  # atno 8008 bound_to 7997
  155.2375  140.0421  157.2987 H   0  0  0  0  0  0  0  0  0  0  0  0  # atno 8009 bound_to 7997
  154.5904  140.2400  155.7936 H   0  0  0  0  0  0  0  0  0  0  0  0  # atno 8010 bound_to 7997
  139.7859  144.6871  150.9958 H   0  0  0  0  0  0  0  0  0  0  0  0  # atno 10167 bound_to 10162
  156.9073  130.5743  149.5647 H   0  0  0  0  0  0  0  0  0  0  0  0  # atno 10718 bound_to 10713
  154.6257  135.5439  153.7624 H   0  0  0  0  0  0  0  0  0  0  0  0  # atno 10763 bound_to 10752
  153.0259  135.6423  154.1375 H   0  0  0  0  0  0  0  0  0  0  0  0  # atno 10764 bound_to 10752
  154.1308  135.2914  155.3165 H   0  0  0  0  0  0  0  0  0  0  0  0  # atno 10765 bound_to 10752
  140.5501  134.0291  155.7934 H   0  0  0  0  0  0  0  0  0  0  0  0  # atno 11005 bound_to 11000
  146.1880  139.5105  142.9824 LP  0  0  0  0  0  0  0  0  0  0  0  0  # atno 17320 bound_to 7965
  145.6285  141.0309  143.1876 LP  0  0  0  0  0  0  0  0  0  0  0  0  # atno 17321 bound_to 7965
  140.7819  143.4433  151.0520 LP  0  0  0  0  0  0  0  0  0  0  0  0  # atno 17342 bound_to 10162
  139.8111  143.7949  152.3171 LP  0  0  0  0  0  0  0  0  0  0  0  0  # atno 17343 bound_to 10162
  156.0553  130.5615  150.9078 LP  0  0  0  0  0  0  0  0  0  0  0  0  # atno 17370 bound_to 10713
  157.5989  131.0942  150.8993 LP  0  0  0  0  0  0  0  0  0  0  0  0  # atno 17371 bound_to 10713
  141.1177  133.9513  157.2791 LP  0  0  0  0  0  0  0  0  0  0  0  0  # atno 17394 bound_to 11000
  139.9460  135.0184  156.8852 LP  0  0  0  0  0  0  0  0  0  0  0  0  # atno 17395 bound_to 11000

$$$$
