AV-unprocessed.smi:54|AV-procd|sdf|548|dock10
  -GOLD-   2262016443D 1   1.00000     0.00000
 Structure written by MMmdl.
 43 45  0  0  0  0  0  0  0  0  2 V2000
  145.0739  135.6419  162.2071 C   0  0  0  0  0  0  0  0  0  0  0  0
  146.5170  135.3273  161.7790 C   0  0  0  0  0  0  0  0  0  0  0  0
  147.4702  135.3295  162.9857 C   0  0  0  0  0  0  0  0  0  0  0  0
  146.9932  136.3175  160.7066 C   0  0  0  0  0  0  0  0  0  0  0  0
  146.2508  137.2441  160.3725 O   0  0  0  0  0  0  0  0  0  0  0  0
  148.2253  136.0777  160.2044 N   0  0  0  0  0  0  0  0  0  0  0  0
  148.9332  136.7832  159.2243 C   0  0  0  0  0  0  0  0  0  0  0  0
  148.2960  137.3712  158.2362 N   0  0  0  0  0  0  0  0  0  0  0  0
  149.1538  138.0118  157.3635 C   0  0  0  0  0  0  0  0  0  0  0  0
  150.5174  138.0879  157.4332 C   0  0  0  0  0  0  0  0  0  0  0  0
  151.0403  138.8170  156.3727 N   0  0  0  0  0  0  0  0  0  0  0  0
  149.9415  139.1537  155.6990 C   0  0  0  0  0  0  0  0  0  0  0  0
  148.7793  138.7057  156.2188 N   0  0  0  0  0  0  0  0  0  0  0  0
  147.3862  138.9146  155.7024 C   0  0  1  0  0  0  0  0  0  0  0  0
  147.3026  140.2257  155.2245 O   0  0  0  0  0  0  0  0  0  0  0  0
  147.0462  140.2490  153.8190 C   0  0  1  0  0  0  0  0  0  0  0  0
  147.7845  141.4162  153.1397 C   0  0  0  0  0  0  0  0  0  0  0  0
  149.1800  141.2281  153.2344 O   0  0  0  0  0  0  0  0  0  0  0  0
  147.4152  138.8453  153.3149 C   0  0  1  0  0  0  0  0  0  0  0  0
  148.7860  138.7547  152.9636 O   0  0  0  0  0  0  0  0  0  0  0  0
  147.0619  137.9856  154.5193 C   0  0  1  0  0  0  0  0  0  0  0  0
  147.7137  136.7277  154.5234 O   0  0  0  0  0  0  0  0  0  0  0  0
  151.1670  137.4074  158.5782 C   0  0  0  0  0  0  0  0  0  0  0  0
  152.3911  137.4508  158.6843 O   0  0  0  0  0  0  0  0  0  0  0  0
  150.3197  136.7706  159.4420 N   0  5  0  0  0  0  0  0  0  0  0  0
  146.7464  138.7621  156.5723 H   0  0  0  0  0  0  0  0  0  0  0  0
  145.9690  140.3676  153.6884 H   0  0  0  0  0  0  0  0  0  0  0  0
  146.8268  138.5684  152.4395 H   0  0  0  0  0  0  0  0  0  0  0  0
  145.9841  137.8186  154.5277 H   0  0  0  0  0  0  0  0  0  0  0  0
  144.4002  135.6542  161.3495 H   0  0  0  0  0  0  0  0  0  0  0  0
  145.0033  136.6120  162.7011 H   0  0  0  0  0  0  0  0  0  0  0  0
  144.7017  134.8899  162.9033 H   0  0  0  0  0  0  0  0  0  0  0  0
  146.5257  134.3238  161.3498 H   0  0  0  0  0  0  0  0  0  0  0  0
  148.4950  135.1110  162.6820 H   0  0  0  0  0  0  0  0  0  0  0  0
  147.1773  134.5725  163.7135 H   0  0  0  0  0  0  0  0  0  0  0  0
  147.4715  136.2939  163.4955 H   0  0  0  0  0  0  0  0  0  0  0  0
  148.6919  135.2685  160.5870 H   0  0  0  0  0  0  0  0  0  0  0  0
  149.9879  139.7436  154.7961 H   0  0  0  0  0  0  0  0  0  0  0  0
  147.4889  141.5228  152.0960 H   0  0  0  0  0  0  0  0  0  0  0  0
  147.5488  142.3544  153.6430 H   0  0  0  0  0  0  0  0  0  0  0  0
  149.4205  140.4906  152.6948 H   0  0  0  0  0  0  0  0  0  0  0  0
  148.8792  138.0852  152.3029 H   0  0  0  0  0  0  0  0  0  0  0  0
  148.1017  136.5890  153.6727 H   0  0  0  0  0  0  0  0  0  0  0  0
  1  2  1  0  0  0  0
  1 30  1  0  0  0  0
  1 31  1  0  0  0  0
  1 32  1  0  0  0  0
  2  3  1  0  0  0  0
  2  4  1  0  0  0  0
  2 33  1  0  0  0  0
  3 34  1  0  0  0  0
  3 35  1  0  0  0  0
  3 36  1  0  0  0  0
  4  5  2  0  0  0  0
  4  6  1  0  0  0  0
  6 37  1  0  0  0  0
  6  7  1  0  0  0  0
  7 25  1  0  0  0  0
  7  8  2  0  0  0  0
  8  9  1  0  0  0  0
  9 13  1  0  0  0  0
  9 10  2  0  0  0  0
 10 11  1  0  0  0  0
 10 23  1  0  0  0  0
 11 12  2  0  0  0  0
 12 13  1  0  0  0  0
 12 38  1  0  0  0  0
 13 14  1  0  0  0  0
 14 26  1  0  0  0  0
 14 21  1  0  0  0  0
 14 15  1  0  0  0  0
 15 16  1  0  0  0  0
 16 27  1  0  0  0  0
 16 17  1  0  0  0  0
 16 19  1  0  0  0  0
 17 18  1  0  0  0  0
 17 39  1  0  0  0  0
 17 40  1  0  0  0  0
 18 41  1  0  0  0  0
 19 28  1  0  0  0  0
 19 20  1  0  0  0  0
 19 21  1  0  0  0  0
 20 42  1  0  0  0  0
 21 29  1  0  0  0  0
 21 22  1  0  0  0  0
 22 43  1  0  0  0  0
 23 24  2  0  0  0  0
 23 25  1  0  0  0  0
M  CHG  1  25  -1
M  END
> <s_m_source_file>
AV-unprocessed.smi

> <i_m_source_file_index>
54

> <i_lp_mmshare_version>
43012

> <i_f3d_flags>
0

> <s_epik_input>
W0NIM11bQ0hdKFtDSDNdKUMoPU8pW05IXWMobjEpW25IXWMoPU8pYyhjMTIpbltjSF1uMltDQEBIXTNPW0NASF0oW0NIMl1bT0hdKVtDQEBIXShbT0hdKVtDQEhdM1tPSF0=

> <s_epik_cmdline>
J2VwaWtfcHl0aG9uJywgJy1waCcsICc3LjAnLCAnLXRuJywgJzgnLCAnLW1hJywgJzIwMCcsICctbWV0YWxfYmluZGluZycsICctaW1hZScsICc8aW5maWxlLm1hZT4nLCAnLW9tYWUnLCAnPG91dGZpbGUubWFlPic=

> <r_lp_tautomer_probability>
0.85571

> <r_epik_Ionization_Penalty>
1.75936

> <r_epik_Ionization_Penalty_Charging>
4.55893e-11

> <r_epik_Ionization_Penalty_Neutral>
1.75936

> <r_epik_State_Penalty>
1.72072

> <r_epik_Charging_Adjusted_Penalty>
1.72072

> <i_epik_Tot_Q>
-1

> <i_epik_Tot_abs_Q>
1

> <r_epik_Metal_State_Penalty>
0.400338

> <b_epik_Metal_Only>
1

> <s_epik_Chemistry_Notes>
This compound contains an acetal/aminal-like group ( X-CH(R)-Y where X, Y are N, S, or O) that may be acid/base labile, releasing an aldehyde.

> <s_lp_Force_Field>
OPLS_2005

> <r_lp_Energy>
61.5499

> <b_lp_Chiralities_Consistent>
1

> <s_lp_Variant>
AV-unprocessed.smi:54-20

> <Gold.Version>
5.8.1

> <Gold.Id.Protein>
6NUR|6NUR_protein|mol2

> <Gold.PLP.Fitness>
47.1645

> <Gold.PLP.PLP>
-28.0346

> <Gold.PLP.part.hbond>
-7.0308

> <Gold.PLP.part.metal>
0.0000

> <Gold.PLP.part.buried>
-2.9981

> <Gold.PLP.part.nonpolar>
-16.5629

> <Gold.PLP.part.repulsive>
0.2362

> <Gold.PLP.ligand.clash>
0.1304

> <Gold.PLP.ligand.torsion>
0.7757

> <Gold.PLP.Chemscore.Hbond>
6.7748

> <Gold.PLP.Chemscore.CHOScore>
0.0000

> <Gold.PLP.Chemscore.Metal>
0.0000

> <Gold.Chemscore.Hbonds>
donor molecule, donor type, donor heavy atom, donor atom, acceptor molecule, acceptor atom, score
      L1  H    18    41       P1  7957  0.83
      L1  H    20    42       P1  7948  1.00
      L1  H    22    43       P1  7948  0.99
      P1  H  6896  6907       L1    25  2.00
      P1  H  6934  6947       L1     5  0.89
      P1  H  8011  8017       L1    18  0.95

> <Gold.PLP.Chemscore.Internal.Correction>
0.4875

> <Gold.Rescore>
     Score         DG    S(hbond)    S(metal)    S(lipo)     H(rot)  DE(clash)    DE(int)     intcor
     11.41     -15.75       4.37        0.00      50.97       4.02       1.42       2.93       ----

> <Gold.Chemscore.Fitness>
11.4127

> <Gold.Chemscore.DG>
-15.7540

> <Gold.Chemscore.ZeroCoef>
-5.4800

> <Gold.Chemscore.Hbond>
4.3711

> <Gold.Chemscore.Metal>
0.0000

> <Gold.Chemscore.Lipo>
50.9726

> <Gold.Chemscore.Internal_Hbond>
0.0000

> <Gold.Chemscore.DEClash>
1.4152

> <Gold.Chemscore.DEInternal>
2.9262

> <Gold.Chemscore.Rot>
4.0192

> <Gold.Chemscore.Internal.Correction>
   9.000000E+99

> <Gold.Chemscore.Hbonds>
donor molecule, donor type, donor heavy atom, donor atom, acceptor molecule, acceptor atom, score
      L1  H    18    41       P1  7957  0.82
      L1  H    20    42       P1  7948  0.93
      L1  H    22    43       P1  7948  0.93
      P1  H  6896  6907       L1    25  0.56
      P1  H  6934  6947       L1     5  0.57
      P1  H  8011  8017       L1    18  0.09

> <Gold.Chemscore.Hbond.Weighted>
-14.5995

> <Gold.Chemscore.Metal.Weighted>
-0.0000

> <Gold.Chemscore.Lipo.Weighted>
-5.9638

> <Gold.Chemscore.Internal_Hbond.Weighted>
0.0000

> <Gold.Chemscore.DEClash.Weighted>
1.4152

> <Gold.Chemscore.DEInternal.Weighted>
2.9262

> <Gold.Chemscore.Rot.Weighted>
10.2893

> <Gold.Chemscore.Internal.Correction.Weighted>
   9.000000E+99

> <Gold.Protein.RotatedTorsions>
[ 6907 6896 6895 6894 ] final  -28.59 input  -60.11 | X-H torsion
[ 7974 7965 7964 7962 ] final   80.27 input  175.53 | X-H torsion
[ 8008 7997 7996 7995 ] final  -41.89 input   59.86 | X-H torsion
[ 10167 10162 10161 10158 ] final  130.85 input  -65.29 | X-H torsion
[ 10718 10713 10712 10709 ] final    5.28 input   66.30 | X-H torsion
[ 10763 10752 10751 10750 ] final   92.65 input  -60.55 | X-H torsion
[ 11005 11000 10999 10996 ] final   45.05 input  -57.11 | X-H torsion

> <Gold.Protein.ActiveResidues>
 VAL166  LYS551  ARG553  GLY616  TRP617  ASP618  TYR619  PRO620  LYS621  CYS622 
 ASP623  PHE694  ASN695  SER759  ASP760  ASP761  ALA762  ILE779  LEU786  VAL792 
 PHE793  MET794  SER795  GLU796  ALA797  LYS798  CYS799  TRP800  GLU811  SER814 

> <Gold.Protein.RotatedAtoms>
  151.1309  135.0129  159.8581 H   0  0  0  0  0  0  0  0  0  0  0  0  # atno 6907 bound_to 6896
  152.5451  134.1612  159.8568 H   0  0  0  0  0  0  0  0  0  0  0  0  # atno 6908 bound_to 6896
  151.1678  133.4758  159.2627 H   0  0  0  0  0  0  0  0  0  0  0  0  # atno 6909 bound_to 6896
  145.6534  139.2453  143.1964 H   0  0  0  0  0  0  0  0  0  0  0  0  # atno 7974 bound_to 7965
  154.4001  140.1487  156.3266 H   0  0  0  0  0  0  0  0  0  0  0  0  # atno 8008 bound_to 7997
  155.8481  140.3459  155.5654 H   0  0  0  0  0  0  0  0  0  0  0  0  # atno 8009 bound_to 7997
  155.8014  140.0870  157.1946 H   0  0  0  0  0  0  0  0  0  0  0  0  # atno 8010 bound_to 7997
  139.5411  144.6731  151.4622 H   0  0  0  0  0  0  0  0  0  0  0  0  # atno 10167 bound_to 10162
  156.9051  130.5736  149.5647 H   0  0  0  0  0  0  0  0  0  0  0  0  # atno 10718 bound_to 10713
  153.2215  135.4354  155.0494 H   0  0  0  0  0  0  0  0  0  0  0  0  # atno 10763 bound_to 10752
  154.8252  135.3357  154.6920 H   0  0  0  0  0  0  0  0  0  0  0  0  # atno 10764 bound_to 10752
  153.7352  135.7008  153.5036 H   0  0  0  0  0  0  0  0  0  0  0  0  # atno 10765 bound_to 10752
  140.1495  134.4480  155.8392 H   0  0  0  0  0  0  0  0  0  0  0  0  # atno 11005 bound_to 11000
  146.1185  140.7339  142.9469 LP  0  0  0  0  0  0  0  0  0  0  0  0  # atno 17320 bound_to 7965
  144.7114  140.4054  143.7077 LP  0  0  0  0  0  0  0  0  0  0  0  0  # atno 17321 bound_to 7965
  140.6641  143.8436  150.6921 LP  0  0  0  0  0  0  0  0  0  0  0  0  # atno 17342 bound_to 10162
  140.1839  143.4091  152.1912 LP  0  0  0  0  0  0  0  0  0  0  0  0  # atno 17343 bound_to 10162
  156.0563  130.5624  150.9098 LP  0  0  0  0  0  0  0  0  0  0  0  0  # atno 17370 bound_to 10713
  157.6002  131.0941  150.8973 LP  0  0  0  0  0  0  0  0  0  0  0  0  # atno 17371 bound_to 10713
  141.2197  133.6866  156.7396 LP  0  0  0  0  0  0  0  0  0  0  0  0  # atno 17394 bound_to 11000
  140.2622  134.8458  157.3769 LP  0  0  0  0  0  0  0  0  0  0  0  0  # atno 17395 bound_to 11000

$$$$
