AV-unprocessed.smi:1610|AV-procd|sdf|6473|dock5
  -GOLD-   22720 7133D 1   1.00000     0.00000
 Structure written by MMmdl.
 44 45  0  0  0  0  0  0  0  0  3 V2000
  151.9635  139.4310  157.1274 C   0  0  0  0  0  0  0  0  0  0  0  0
  152.1987  138.7644  155.4329 S   0  0  0  0  0  0  0  0  0  0  0  0
  151.0183  139.1960  154.6670 O   0  0  0  0  0  0  0  0  0  0  0  0
  153.5118  139.2566  154.9870 O   0  0  0  0  0  0  0  0  0  0  0  0
  152.1834  137.1706  155.7372 N   0  5  0  0  0  0  0  0  0  0  0  0
  150.9839  136.5031  156.2362 C   0  0  0  0  0  0  0  0  0  0  0  0
  151.2246  134.9826  156.4882 C   0  0  0  0  0  0  0  0  0  0  0  0
  149.9233  134.1510  156.6524 C   0  0  0  0  0  0  0  0  0  0  0  0
  149.0562  134.3414  155.4736 N   0  0  0  0  0  0  0  0  0  0  0  0
  148.9997  133.5433  154.3785 C   0  0  0  0  0  0  0  0  0  0  0  0
  149.6535  132.5049  154.2701 O   0  0  0  0  0  0  0  0  0  0  0  0
  148.1208  133.9414  153.4413 N   0  0  0  0  0  0  0  0  0  0  0  0
  147.6835  133.1472  152.2944 C   0  0  0  0  0  0  0  0  0  0  0  0
  146.2395  132.6304  152.4684 C   0  0  0  0  0  0  0  0  0  0  0  0
  145.3798  132.7466  151.2180 C   0  0  0  0  0  0  0  0  0  0  0  0
  145.7991  132.1741  149.9962 C   0  0  0  0  0  0  0  0  0  0  0  0
  144.9546  132.2512  148.8689 C   0  0  0  0  0  0  0  0  0  0  0  0
  143.7108  132.9043  148.9858 C   0  0  0  0  0  0  0  0  0  0  0  0
  143.3511  133.4553  150.1648 N   0  3  0  0  0  0  0  0  0  0  0  0
  144.1319  133.4057  151.2656 C   0  0  0  0  0  0  0  0  0  0  0  0
  148.6152  135.7450  155.4345 C   0  0  0  0  0  0  0  0  0  0  0  0
  149.8422  136.6690  155.1903 C   0  0  0  0  0  0  0  0  0  0  0  0
  151.9353  140.5194  157.0858 H   0  0  0  0  0  0  0  0  0  0  0  0
  152.7924  139.1148  157.7602 H   0  0  0  0  0  0  0  0  0  0  0  0
  151.0266  139.0589  157.5402 H   0  0  0  0  0  0  0  0  0  0  0  0
  150.6438  136.9447  157.1732 H   0  0  0  0  0  0  0  0  0  0  0  0
  151.7879  134.5593  155.6600 H   0  0  0  0  0  0  0  0  0  0  0  0
  151.8459  134.8487  157.3744 H   0  0  0  0  0  0  0  0  0  0  0  0
  150.1705  133.1039  156.8286 H   0  0  0  0  0  0  0  0  0  0  0  0
  149.3838  134.4583  157.5509 H   0  0  0  0  0  0  0  0  0  0  0  0
  147.6355  134.8126  153.5991 H   0  0  0  0  0  0  0  0  0  0  0  0
  147.7495  133.7631  151.3972 H   0  0  0  0  0  0  0  0  0  0  0  0
  148.3564  132.3046  152.1284 H   0  0  0  0  0  0  0  0  0  0  0  0
  146.2710  131.5842  152.7752 H   0  0  0  0  0  0  0  0  0  0  0  0
  145.7509  133.1685  153.2813 H   0  0  0  0  0  0  0  0  0  0  0  0
  146.7475  131.6614  149.9284 H   0  0  0  0  0  0  0  0  0  0  0  0
  145.2522  131.8053  147.9313 H   0  0  0  0  0  0  0  0  0  0  0  0
  142.9952  132.9976  148.1821 H   0  0  0  0  0  0  0  0  0  0  0  0
  143.7189  133.8653  152.1518 H   0  0  0  0  0  0  0  0  0  0  0  0
  147.8674  135.9144  154.6585 H   0  0  0  0  0  0  0  0  0  0  0  0
  148.1142  136.0014  156.3705 H   0  0  0  0  0  0  0  0  0  0  0  0
  149.5160  137.7093  155.1670 H   0  0  0  0  0  0  0  0  0  0  0  0
  150.2298  136.4546  154.1926 H   0  0  0  0  0  0  0  0  0  0  0  0
  142.4406  133.9123  150.2345 H   0  0  0  0  0  0  0  0  0  0  0  0
  1  2  1  0  0  0  0
  1 23  1  0  0  0  0
  1 24  1  0  0  0  0
  1 25  1  0  0  0  0
  2  3  2  0  0  0  0
  2  4  2  0  0  0  0
  2  5  1  0  0  0  0
  5  6  1  0  0  0  0
  6 22  1  0  0  0  0
  6  7  1  0  0  0  0
  6 26  1  0  0  0  0
  7  8  1  0  0  0  0
  7 27  1  0  0  0  0
  7 28  1  0  0  0  0
  8  9  1  0  0  0  0
  8 29  1  0  0  0  0
  8 30  1  0  0  0  0
  9 10  1  0  0  0  0
  9 21  1  0  0  0  0
 10 11  2  0  0  0  0
 10 12  1  0  0  0  0
 12 13  1  0  0  0  0
 12 31  1  0  0  0  0
 13 14  1  0  0  0  0
 13 32  1  0  0  0  0
 13 33  1  0  0  0  0
 14 15  1  0  0  0  0
 14 34  1  0  0  0  0
 14 35  1  0  0  0  0
 15 20  1  0  0  0  0
 15 16  2  0  0  0  0
 16 17  1  0  0  0  0
 16 36  1  0  0  0  0
 17 18  2  0  0  0  0
 17 37  1  0  0  0  0
 18 19  1  0  0  0  0
 18 38  1  0  0  0  0
 19 20  2  0  0  0  0
 19 44  1  0  0  0  0
 20 39  1  0  0  0  0
 21 22  1  0  0  0  0
 21 40  1  0  0  0  0
 21 41  1  0  0  0  0
 22 42  1  0  0  0  0
 22 43  1  0  0  0  0
M  CHG  1   5  -1
M  CHG  1  19   1
M  END
> <s_m_source_file>
AV-unprocessed.smi

> <i_m_source_file_index>
1610

> <i_lp_mmshare_version>
43012

> <i_f3d_flags>
0

> <s_epik_input>
W0NIM11TKD1PKSg9TylbTkhdW0NIXTFbQ0gyXVtDSDJdTihbQ0gyXVtDSDJdMSlDKD1PKVtOSF1bQ0gyXVtDSDJdYzJbY0hdW2NIXVtjSF1uW2NIXTI=

> <s_epik_cmdline>
J2VwaWtfcHl0aG9uJywgJy1waCcsICc3LjAnLCAnLXRuJywgJzgnLCAnLW1hJywgJzIwMCcsICctbWV0YWxfYmluZGluZycsICctaW1hZScsICc8aW5maWxlLm1hZT4nLCAnLW9tYWUnLCAnPG91dGZpbGUubWFlPic=

> <r_epik_Ionization_Penalty>
8.91489

> <r_epik_Ionization_Penalty_Charging>
8.91482

> <r_epik_Ionization_Penalty_Neutral>
6.17235e-05

> <r_epik_State_Penalty>
9.05939

> <r_epik_Charging_Adjusted_Penalty>
17.9742

> <i_epik_Tot_Q>
0

> <i_epik_Tot_abs_Q>
2

> <r_epik_Metal_State_Penalty>
4.99481

> <b_epik_Metal_Only>
1

> <s_lp_Force_Field>
OPLS_2005

> <r_lp_Energy>
23.4301

> <b_lp_Chiralities_Consistent>
1

> <s_lp_Variant>
AV-unprocessed.smi:1610-4

> <Gold.Version>
5.8.1

> <Gold.Id.Protein>
6NUR|6NUR_protein|mol2

> <Gold.PLP.Fitness>
53.9854

> <Gold.PLP.PLP>
-38.3161

> <Gold.PLP.part.hbond>
-5.0000

> <Gold.PLP.part.metal>
0.0000

> <Gold.PLP.part.buried>
-4.5237

> <Gold.PLP.part.nonpolar>
-29.6935

> <Gold.PLP.part.repulsive>
0.2981

> <Gold.PLP.ligand.clash>
0.6083

> <Gold.PLP.ligand.torsion>
1.0213

> <Gold.PLP.Chemscore.Hbond>
5.7280

> <Gold.PLP.Chemscore.CHOScore>
0.0000

> <Gold.PLP.Chemscore.Metal>
0.0000

> <Gold.Chemscore.Hbonds>
donor molecule, donor type, donor heavy atom, donor atom, acceptor molecule, acceptor atom, score
      L1  H    19    44       P1 10186  2.00
      P1  H  7989  7998       L1     3  0.76
      P1  H  7997  8009       L1     4  1.00
      P1  H 10752 10764       L1     5  1.52

> <Gold.PLP.Chemscore.Internal.Correction>
1.1362

> <Gold.Rescore>
     Score         DG    S(hbond)    S(metal)    S(lipo)     H(rot)  DE(clash)    DE(int)     intcor
     19.02     -21.68       3.01        0.00      91.08       1.77       0.34       2.32       ----

> <Gold.Chemscore.Fitness>
19.0240

> <Gold.Chemscore.DG>
-21.6793

> <Gold.Chemscore.ZeroCoef>
-5.4800

> <Gold.Chemscore.Hbond>
3.0131

> <Gold.Chemscore.Metal>
0.0000

> <Gold.Chemscore.Lipo>
91.0832

> <Gold.Chemscore.Internal_Hbond>
0.0000

> <Gold.Chemscore.DEClash>
0.3363

> <Gold.Chemscore.DEInternal>
2.3190

> <Gold.Chemscore.Rot>
1.7661

> <Gold.Chemscore.Internal.Correction>
   9.000000E+99

> <Gold.Chemscore.Hbonds>
donor molecule, donor type, donor heavy atom, donor atom, acceptor molecule, acceptor atom, score
      L1  H    19    44       P1 10186  0.94
      P1  H  7989  7998       L1     3  0.41
      P1  H  7997  8009       L1     4  0.98
      P1  H 10752 10764       L1     5  0.14

> <Gold.Chemscore.Hbond.Weighted>
-10.0637

> <Gold.Chemscore.Metal.Weighted>
-0.0000

> <Gold.Chemscore.Lipo.Weighted>
-10.6567

> <Gold.Chemscore.Internal_Hbond.Weighted>
0.0000

> <Gold.Chemscore.DEClash.Weighted>
0.3363

> <Gold.Chemscore.DEInternal.Weighted>
2.3190

> <Gold.Chemscore.Rot.Weighted>
4.5211

> <Gold.Chemscore.Internal.Correction.Weighted>
   9.000000E+99

> <Gold.Protein.RotatedTorsions>
[ 6907 6896 6895 6894 ] final -143.12 input  -60.11 | X-H torsion
[ 7974 7965 7964 7962 ] final  154.34 input  175.53 | X-H torsion
[ 8008 7997 7996 7995 ] final -124.65 input   59.86 | X-H torsion
[ 10167 10162 10161 10158 ] final   91.29 input  -65.29 | X-H torsion
[ 10718 10713 10712 10709 ] final  -42.84 input   66.30 | X-H torsion
[ 10763 10752 10751 10750 ] final  -50.52 input  -60.55 | X-H torsion
[ 11005 11000 10999 10996 ] final  -31.37 input  -57.11 | X-H torsion

> <Gold.Protein.ActiveResidues>
 VAL166  LYS551  ARG553  GLY616  TRP617  ASP618  TYR619  PRO620  LYS621  CYS622 
 ASP623  PHE694  ASN695  SER759  ASP760  ASP761  ALA762  ILE779  LEU786  VAL792 
 PHE793  MET794  SER795  GLU796  ALA797  LYS798  CYS799  TRP800  GLU811  SER814 

> <Gold.Protein.RotatedAtoms>
  151.0962  133.5278  159.2612 H   0  0  0  0  0  0  0  0  0  0  0  0  # atno 6907 bound_to 6896
  151.2126  135.0486  159.8927 H   0  0  0  0  0  0  0  0  0  0  0  0  # atno 6908 bound_to 6896
  152.5439  134.0776  159.8275 H   0  0  0  0  0  0  0  0  0  0  0  0  # atno 6909 bound_to 6896
  144.8095  139.6920  143.6147 H   0  0  0  0  0  0  0  0  0  0  0  0  # atno 7974 bound_to 7965
  155.2003  140.0416  157.2916 H   0  0  0  0  0  0  0  0  0  0  0  0  # atno 8008 bound_to 7997
  154.6079  140.2469  155.7679 H   0  0  0  0  0  0  0  0  0  0  0  0  # atno 8009 bound_to 7997
  156.2361  140.2921  156.0326 H   0  0  0  0  0  0  0  0  0  0  0  0  # atno 8010 bound_to 7997
  139.8389  144.6651  150.9308 H   0  0  0  0  0  0  0  0  0  0  0  0  # atno 10167 bound_to 10162
  156.2553  130.4192  149.8603 H   0  0  0  0  0  0  0  0  0  0  0  0  # atno 10718 bound_to 10713
  154.1116  135.6548  153.4886 H   0  0  0  0  0  0  0  0  0  0  0  0  # atno 10763 bound_to 10752
  153.0254  135.5249  154.7186 H   0  0  0  0  0  0  0  0  0  0  0  0  # atno 10764 bound_to 10752
  154.6367  135.2983  155.0121 H   0  0  0  0  0  0  0  0  0  0  0  0  # atno 10765 bound_to 10752
  140.9462  133.7248  156.1151 H   0  0  0  0  0  0  0  0  0  0  0  0  # atno 11005 bound_to 11000
  146.2392  139.5966  142.9503 LP  0  0  0  0  0  0  0  0  0  0  0  0  # atno 17320 bound_to 7965
  145.5357  141.0424  143.2358 LP  0  0  0  0  0  0  0  0  0  0  0  0  # atno 17321 bound_to 7965
  140.7800  143.3931  151.1276 LP  0  0  0  0  0  0  0  0  0  0  0  0  # atno 17342 bound_to 10162
  139.7579  143.8680  152.3093 LP  0  0  0  0  0  0  0  0  0  0  0  0  # atno 17343 bound_to 10162
  156.6137  130.8597  151.3460 LP  0  0  0  0  0  0  0  0  0  0  0  0  # atno 17370 bound_to 10713
  157.7230  130.9584  150.1517 LP  0  0  0  0  0  0  0  0  0  0  0  0  # atno 17371 bound_to 10713
  140.7665  134.3880  157.5516 LP  0  0  0  0  0  0  0  0  0  0  0  0  # atno 17394 bound_to 11000
  139.8834  134.8995  156.2768 LP  0  0  0  0  0  0  0  0  0  0  0  0  # atno 17395 bound_to 11000

$$$$
