AV-unprocessed.smi:745|AV-procd|sdf|3573|dock4
  -GOLD-   22720 0563D 1   1.00000     0.00000
 Structure written by MMmdl.
 42 43  0  0  0  0  0  0  0  0  2 V2000
  149.5192  131.5680  153.6639 C   0  0  0  0  0  0  0  0  0  0  0  0
  148.4214  132.6441  153.6007 C   0  0  1  0  0  0  0  0  0  0  0  0
  149.0747  133.9512  153.6863 N   0  0  0  0  0  0  0  0  0  0  0  0
  149.9825  134.3197  154.6036 C   0  0  0  0  0  0  0  0  0  0  0  0
  150.3489  133.5934  155.5280 O   0  0  0  0  0  0  0  0  0  0  0  0
  150.4193  135.5712  154.3780 N   0  0  0  0  0  0  0  0  0  0  0  0
  151.3686  136.3179  155.1257 C   0  0  0  0  0  0  0  0  0  0  0  0
  151.3251  137.7156  154.9218 C   0  0  0  0  0  0  0  0  0  0  0  0
  152.2258  138.5456  155.6172 C   0  0  0  0  0  0  0  0  0  0  0  0
  153.1478  137.9558  156.5001 C   0  0  0  0  0  0  0  0  0  0  0  0
  153.1238  136.5565  156.6459 C   0  0  0  0  0  0  0  0  0  0  0  0
  152.2612  135.7592  155.9809 N   0  0  0  0  0  0  0  0  0  0  0  0
  147.5322  132.5461  152.3295 C   0  0  2  0  0  0  0  0  0  0  0  0
  146.5984  133.7683  152.1624 C   0  0  0  0  0  0  0  0  0  0  0  0
  145.6857  133.6393  150.9323 C   0  0  0  0  0  0  0  0  0  0  0  0
  144.8871  132.3928  150.9927 N   0  3  1  0  0  0  0  0  0  0  0  0
  143.9044  132.2971  149.8921 C   0  0  0  0  0  0  0  0  0  0  0  0
  145.7538  131.1945  151.0839 C   0  0  0  0  0  0  0  0  0  0  0  0
  146.6657  131.2669  152.3197 C   0  0  0  0  0  0  0  0  0  0  0  0
  149.1020  130.5663  153.7602 H   0  0  0  0  0  0  0  0  0  0  0  0
  150.1653  131.7210  154.5294 H   0  0  0  0  0  0  0  0  0  0  0  0
  150.1488  131.5871  152.7738 H   0  0  0  0  0  0  0  0  0  0  0  0
  147.7829  132.5000  154.4743 H   0  0  0  0  0  0  0  0  0  0  0  0
  148.8339  134.6207  152.9701 H   0  0  0  0  0  0  0  0  0  0  0  0
  150.0303  136.0449  153.5763 H   0  0  0  0  0  0  0  0  0  0  0  0
  150.6102  138.1523  154.2395 H   0  0  0  0  0  0  0  0  0  0  0  0
  152.2086  139.6160  155.4746 H   0  0  0  0  0  0  0  0  0  0  0  0
  153.8540  138.5592  157.0510 H   0  0  0  0  0  0  0  0  0  0  0  0
  153.8145  136.0639  157.3142 H   0  0  0  0  0  0  0  0  0  0  0  0
  148.1910  132.5106  151.4600 H   0  0  0  0  0  0  0  0  0  0  0  0
  145.9868  133.8888  153.0578 H   0  0  0  0  0  0  0  0  0  0  0  0
  147.1788  134.6853  152.0615 H   0  0  0  0  0  0  0  0  0  0  0  0
  145.0167  134.4996  150.8858 H   0  0  0  0  0  0  0  0  0  0  0  0
  146.2816  133.6500  150.0181 H   0  0  0  0  0  0  0  0  0  0  0  0
  144.4045  132.2519  148.9237 H   0  0  0  0  0  0  0  0  0  0  0  0
  143.2389  133.1608  149.8945 H   0  0  0  0  0  0  0  0  0  0  0  0
  143.2894  131.4033  150.0022 H   0  0  0  0  0  0  0  0  0  0  0  0
  145.1339  130.2990  151.1426 H   0  0  0  0  0  0  0  0  0  0  0  0
  146.3544  131.1057  150.1769 H   0  0  0  0  0  0  0  0  0  0  0  0
  147.2942  130.3768  152.3317 H   0  0  0  0  0  0  0  0  0  0  0  0
  146.0564  131.2274  153.2239 H   0  0  0  0  0  0  0  0  0  0  0  0
  144.3549  132.4316  151.8504 H   0  0  0  0  0  0  0  0  0  0  0  0
  1  2  1  0  0  0  0
  1 20  1  0  0  0  0
  1 21  1  0  0  0  0
  1 22  1  0  0  0  0
  2  3  1  0  0  0  0
  2 13  1  0  0  0  0
  2 23  1  0  0  0  0
  3  4  1  0  0  0  0
  3 24  1  0  0  0  0
  4  5  2  0  0  0  0
  4  6  1  0  0  0  0
  6  7  1  0  0  0  0
  6 25  1  0  0  0  0
  7 12  1  0  0  0  0
  7  8  2  0  0  0  0
  8  9  1  0  0  0  0
  8 26  1  0  0  0  0
  9 10  2  0  0  0  0
  9 27  1  0  0  0  0
 10 11  1  0  0  0  0
 10 28  1  0  0  0  0
 11 12  2  0  0  0  0
 11 29  1  0  0  0  0
 13 19  1  0  0  0  0
 13 14  1  0  0  0  0
 13 30  1  0  0  0  0
 14 15  1  0  0  0  0
 14 31  1  0  0  0  0
 14 32  1  0  0  0  0
 15 16  1  0  0  0  0
 15 33  1  0  0  0  0
 15 34  1  0  0  0  0
 16 17  1  0  0  0  0
 16 18  1  0  0  0  0
 16 42  1  0  0  0  0
 17 35  1  0  0  0  0
 17 36  1  0  0  0  0
 17 37  1  0  0  0  0
 18 19  1  0  0  0  0
 18 38  1  0  0  0  0
 18 39  1  0  0  0  0
 19 40  1  0  0  0  0
 19 41  1  0  0  0  0
M  CHG  1  16   1
M  END
> <s_m_source_file>
AV-unprocessed.smi

> <i_m_source_file_index>
745

> <i_lp_mmshare_version>
43012

> <i_f3d_flags>
0

> <s_epik_input>
W0NIMl0xW0NIMl1OKFtDSDNdKVtDSDJdW0NIMl1bQ0hdMVtDQEhdKFtDSDNdKVtOSF1DKD1PKVtOSF1jMltjSF1bY0hdW2NIXVtjSF1uMg==

> <s_epik_cmdline>
J2VwaWtfcHl0aG9uJywgJy1waCcsICc3LjAnLCAnLXRuJywgJzgnLCAnLW1hJywgJzIwMCcsICctbWV0YWxfYmluZGluZycsICctaW1hZScsICc8aW5maWxlLm1hZT4nLCAnLW9tYWUnLCAnPG91dGZpbGUubWFlPic=

> <r_epik_Ionization_Penalty>
0.0011087

> <r_epik_Ionization_Penalty_Charging>
0.00106265

> <r_epik_Ionization_Penalty_Neutral>
4.60506e-05

> <r_epik_State_Penalty>
0.000695551

> <r_epik_Charging_Adjusted_Penalty>
0.0017582

> <i_epik_Tot_Q>
1

> <i_epik_Tot_abs_Q>
1

> <r_epik_Metal_State_Penalty>
-0

> <b_epik_Metal_Only>
0

> <s_lp_Force_Field>
OPLS_2005

> <r_lp_Energy>
20.1287

> <b_lp_Chiralities_Consistent>
1

> <s_lp_Variant>
AV-unprocessed.smi:745-2

> <Gold.Version>
5.8.1

> <Gold.Id.Protein>
6NUR|6NUR_protein|mol2

> <Gold.PLP.Fitness>
42.3801

> <Gold.PLP.PLP>
-33.9383

> <Gold.PLP.part.hbond>
-3.8462

> <Gold.PLP.part.metal>
0.0000

> <Gold.PLP.part.buried>
-2.2395

> <Gold.PLP.part.nonpolar>
-28.4736

> <Gold.PLP.part.repulsive>
0.1508

> <Gold.PLP.ligand.clash>
0.0000

> <Gold.PLP.ligand.torsion>
0.2281

> <Gold.PLP.Chemscore.Hbond>
2.9600

> <Gold.PLP.Chemscore.CHOScore>
0.0000

> <Gold.PLP.Chemscore.Metal>
0.0000

> <Gold.Chemscore.Hbonds>
donor molecule, donor type, donor heavy atom, donor atom, acceptor molecule, acceptor atom, score
      L1  H     3    24       P1  7948  0.70
      L1  H     6    25       P1  7948  0.55
      P1  H 10752 10764       L1    12  0.20

> <Gold.PLP.Chemscore.Internal.Correction>
0.0180

> <Gold.Rescore>
     Score         DG    S(hbond)    S(metal)    S(lipo)     H(rot)  DE(clash)    DE(int)     intcor
     15.45     -18.24       2.05        0.00      78.15       1.26       0.15       2.64       ----

> <Gold.Chemscore.Fitness>
15.4486

> <Gold.Chemscore.DG>
-18.2364

> <Gold.Chemscore.ZeroCoef>
-5.4800

> <Gold.Chemscore.Hbond>
2.0475

> <Gold.Chemscore.Metal>
0.0000

> <Gold.Chemscore.Lipo>
78.1519

> <Gold.Chemscore.Internal_Hbond>
0.0000

> <Gold.Chemscore.DEClash>
0.1528

> <Gold.Chemscore.DEInternal>
2.6351

> <Gold.Chemscore.Rot>
1.2601

> <Gold.Chemscore.Internal.Correction>
   9.000000E+99

> <Gold.Chemscore.Hbonds>
donor molecule, donor type, donor heavy atom, donor atom, acceptor molecule, acceptor atom, score
      L1  H     3    24       P1  7948  0.07
      L1  H     6    25       P1  7948  0.03

> <Gold.Chemscore.Hbond.Weighted>
-6.8386

> <Gold.Chemscore.Metal.Weighted>
-0.0000

> <Gold.Chemscore.Lipo.Weighted>
-9.1438

> <Gold.Chemscore.Internal_Hbond.Weighted>
0.0000

> <Gold.Chemscore.DEClash.Weighted>
0.1528

> <Gold.Chemscore.DEInternal.Weighted>
2.6351

> <Gold.Chemscore.Rot.Weighted>
3.2260

> <Gold.Chemscore.Internal.Correction.Weighted>
   9.000000E+99

> <Gold.Protein.RotatedTorsions>
[ 6907 6896 6895 6894 ] final  135.04 input  -60.11 | X-H torsion
[ 7974 7965 7964 7962 ] final  -30.64 input  175.53 | X-H torsion
[ 8008 7997 7996 7995 ] final  109.70 input   59.86 | X-H torsion
[ 10167 10162 10161 10158 ] final   34.78 input  -65.29 | X-H torsion
[ 10718 10713 10712 10709 ] final  120.78 input   66.30 | X-H torsion
[ 10763 10752 10751 10750 ] final  -38.88 input  -60.55 | X-H torsion
[ 11005 11000 10999 10996 ] final   21.50 input  -57.11 | X-H torsion

> <Gold.Protein.ActiveResidues>
 VAL166  LYS551  ARG553  GLY616  TRP617  ASP618  TYR619  PRO620  LYS621  CYS622 
 ASP623  PHE694  ASN695  SER759  ASP760  ASP761  ALA762  ILE779  LEU786  VAL792 
 PHE793  MET794  SER795  GLU796  ALA797  LYS798  CYS799  TRP800  GLU811  SER814 

> <Gold.Protein.RotatedAtoms>
  152.3048  133.5691  159.5641 H   0  0  0  0  0  0  0  0  0  0  0  0  # atno 6907 bound_to 6896
  150.7294  134.0239  159.3719 H   0  0  0  0  0  0  0  0  0  0  0  0  # atno 6908 bound_to 6896
  151.8136  135.0673  160.0467 H   0  0  0  0  0  0  0  0  0  0  0  0  # atno 6909 bound_to 6896
  146.1128  140.5566  142.8770 H   0  0  0  0  0  0  0  0  0  0  0  0  # atno 7974 bound_to 7965
  156.1999  140.3052  155.9504 H   0  0  0  0  0  0  0  0  0  0  0  0  # atno 8008 bound_to 7997
  155.2979  140.0445  157.3044 H   0  0  0  0  0  0  0  0  0  0  0  0  # atno 8009 bound_to 7997
  154.5557  140.2305  155.8423 H   0  0  0  0  0  0  0  0  0  0  0  0  # atno 8010 bound_to 7997
  140.4283  144.1361  150.6156 H   0  0  0  0  0  0  0  0  0  0  0  0  # atno 10167 bound_to 10162
  157.5866  131.1069  150.8083 H   0  0  0  0  0  0  0  0  0  0  0  0  # atno 10718 bound_to 10713
  153.9201  135.6783  153.4748 H   0  0  0  0  0  0  0  0  0  0  0  0  # atno 10763 bound_to 10752
  153.1033  135.4817  154.8903 H   0  0  0  0  0  0  0  0  0  0  0  0  # atno 10764 bound_to 10752
  154.7482  135.3178  154.8562 H   0  0  0  0  0  0  0  0  0  0  0  0  # atno 10765 bound_to 10752
  140.3909  134.1820  155.7662 H   0  0  0  0  0  0  0  0  0  0  0  0  # atno 11005 bound_to 11000
  144.7526  140.5229  143.6791 LP  0  0  0  0  0  0  0  0  0  0  0  0  # atno 17320 bound_to 7965
  145.5629  139.1480  143.3331 LP  0  0  0  0  0  0  0  0  0  0  0  0  # atno 17321 bound_to 7965
  140.4456  143.2508  151.9416 LP  0  0  0  0  0  0  0  0  0  0  0  0  # atno 17342 bound_to 10162
  139.4784  144.5612  151.8236 LP  0  0  0  0  0  0  0  0  0  0  0  0  # atno 17343 bound_to 10162
  156.8515  130.5082  149.5311 LP  0  0  0  0  0  0  0  0  0  0  0  0  # atno 17370 bound_to 10713
  156.0915  130.5900  150.9741 LP  0  0  0  0  0  0  0  0  0  0  0  0  # atno 17371 bound_to 10713
  141.1891  133.8246  157.0969 LP  0  0  0  0  0  0  0  0  0  0  0  0  # atno 17394 bound_to 11000
  140.0407  134.9855  157.0957 LP  0  0  0  0  0  0  0  0  0  0  0  0  # atno 17395 bound_to 11000

$$$$
