AV-unprocessed.smi:560|AV-procd|sdf|2927|dock2
  -GOLD-   2262023423D 1   1.00000     0.00000
 Structure written by MMmdl.
 41 42  0  0  0  0  0  0  0  0  1 V2000
  153.6894  141.5544  160.9816 C   0  0  0  0  0  0  0  0  0  0  0  0
  153.4737  142.2225  159.6080 C   0  0  1  0  0  0  0  0  0  0  0  0
  152.7948  141.2903  158.5915 C   0  0  0  0  0  0  0  0  0  0  0  0
  153.3289  140.2347  158.2487 O   0  0  0  0  0  0  0  0  0  0  0  0
  151.6106  141.7018  158.1109 N   0  0  0  0  0  0  0  0  0  0  0  0
  150.7972  140.9791  157.1386 C   0  0  0  0  0  0  0  0  0  0  0  0
  150.8353  141.6744  155.7681 C   0  0  0  0  0  0  0  0  0  0  0  0
  149.8681  141.0022  154.7784 C   0  0  0  0  0  0  0  0  0  0  0  0
  148.4979  141.0184  155.3009 N   0  0  0  0  0  0  0  0  0  0  0  0
  147.5770  140.4846  154.2715 C   0  0  0  0  0  0  0  0  0  0  0  0
  147.8870  139.0518  153.8208 C   0  0  0  0  0  0  0  0  0  0  0  0
  148.4766  138.9000  152.6324 N   0  0  0  0  0  0  0  0  0  0  0  0
  147.6023  138.0958  154.5390 O   0  0  0  0  0  0  0  0  0  0  0  0
  148.4275  140.2709  156.5652 C   0  0  0  0  0  0  0  0  0  0  0  0
  149.3423  140.9129  157.6234 C   0  0  0  0  0  0  0  0  0  0  0  0
  152.7416  143.4797  159.7124 N   0  0  0  0  0  0  0  0  0  0  0  0
  152.2192  144.0641  160.8488 C   0  0  0  0  0  0  0  0  0  0  0  0
  151.6526  145.2498  160.4785 C   0  0  0  0  0  0  0  0  0  0  0  0
  151.8926  145.3157  159.0781 C   0  0  0  0  0  0  0  0  0  0  0  0
  152.5510  144.2620  158.6243 N   0  0  0  0  0  0  0  0  0  0  0  0
  154.2927  140.6506  160.8878 H   0  0  0  0  0  0  0  0  0  0  0  0
  152.7478  141.2739  161.4556 H   0  0  0  0  0  0  0  0  0  0  0  0
  154.2137  142.2260  161.6620 H   0  0  0  0  0  0  0  0  0  0  0  0
  154.4624  142.4616  159.2125 H   0  0  0  0  0  0  0  0  0  0  0  0
  151.2446  142.5816  158.4448 H   0  0  0  0  0  0  0  0  0  0  0  0
  151.1732  139.9593  157.0363 H   0  0  0  0  0  0  0  0  0  0  0  0
  150.5690  142.7271  155.8758 H   0  0  0  0  0  0  0  0  0  0  0  0
  151.8475  141.6522  155.3627 H   0  0  0  0  0  0  0  0  0  0  0  0
  149.9089  141.5396  153.8300 H   0  0  0  0  0  0  0  0  0  0  0  0
  150.1864  139.9779  154.5762 H   0  0  0  0  0  0  0  0  0  0  0  0
  146.5600  140.4777  154.6659 H   0  0  0  0  0  0  0  0  0  0  0  0
  147.5680  141.1506  153.4064 H   0  0  0  0  0  0  0  0  0  0  0  0
  148.6995  137.9754  152.2937 H   0  0  0  0  0  0  0  0  0  0  0  0
  148.6971  139.7132  152.0762 H   0  0  0  0  0  0  0  0  0  0  0  0
  147.4112  140.2651  156.9589 H   0  0  0  0  0  0  0  0  0  0  0  0
  148.7087  139.2290  156.4026 H   0  0  0  0  0  0  0  0  0  0  0  0
  149.2844  140.3448  158.5526 H   0  0  0  0  0  0  0  0  0  0  0  0
  148.9786  141.9162  157.8517 H   0  0  0  0  0  0  0  0  0  0  0  0
  152.2932  143.5916  161.8172 H   0  0  0  0  0  0  0  0  0  0  0  0
  151.1480  145.9639  161.1122 H   0  0  0  0  0  0  0  0  0  0  0  0
  151.6140  146.0941  158.3832 H   0  0  0  0  0  0  0  0  0  0  0  0
  1  2  1  0  0  0  0
  1 21  1  0  0  0  0
  1 22  1  0  0  0  0
  1 23  1  0  0  0  0
  2  3  1  0  0  0  0
  2 16  1  0  0  0  0
  2 24  1  0  0  0  0
  3  4  2  0  0  0  0
  3  5  1  0  0  0  0
  5  6  1  0  0  0  0
  5 25  1  0  0  0  0
  6 15  1  0  0  0  0
  6  7  1  0  0  0  0
  6 26  1  0  0  0  0
  7  8  1  0  0  0  0
  7 27  1  0  0  0  0
  7 28  1  0  0  0  0
  8  9  1  0  0  0  0
  8 29  1  0  0  0  0
  8 30  1  0  0  0  0
  9 10  1  0  0  0  0
  9 14  1  0  0  0  0
 10 11  1  0  0  0  0
 10 31  1  0  0  0  0
 10 32  1  0  0  0  0
 11 12  1  0  0  0  0
 11 13  2  0  0  0  0
 12 33  1  0  0  0  0
 12 34  1  0  0  0  0
 14 15  1  0  0  0  0
 14 35  1  0  0  0  0
 14 36  1  0  0  0  0
 15 37  1  0  0  0  0
 15 38  1  0  0  0  0
 16 20  1  0  0  0  0
 16 17  1  0  0  0  0
 17 18  2  0  0  0  0
 17 39  1  0  0  0  0
 18 19  1  0  0  0  0
 18 40  1  0  0  0  0
 19 20  2  0  0  0  0
 19 41  1  0  0  0  0
M  END
> <s_m_source_file>
AV-unprocessed.smi

> <i_m_source_file_index>
560

> <i_lp_mmshare_version>
43012

> <i_f3d_flags>
0

> <s_epik_input>
bjFbY0hdW2NIXVtjSF1uMVtDQEhdKFtDSDNdKUMoPU8pW05IXVtDSF0yW0NIMl1bQ0gyXU4oW0NIMl1bQ0gyXTIpW0NIMl1DKD1PKVtOSDJd

> <s_epik_cmdline>
J2VwaWtfcHl0aG9uJywgJy1waCcsICc3LjAnLCAnLXRuJywgJzgnLCAnLW1hJywgJzIwMCcsICctbWV0YWxfYmluZGluZycsICctaW1hZScsICc8aW5maWxlLm1hZT4nLCAnLW9tYWUnLCAnPG91dGZpbGUubWFlPic=

> <r_lp_tautomer_probability>
1

> <r_epik_Ionization_Penalty>
0.114724

> <r_epik_Ionization_Penalty_Charging>
0

> <r_epik_Ionization_Penalty_Neutral>
0.114724

> <r_epik_State_Penalty>
0.104339

> <r_epik_Charging_Adjusted_Penalty>
0.104339

> <i_epik_Tot_Q>
0

> <i_epik_Tot_abs_Q>
0

> <r_epik_Metal_State_Penalty>
0.117437

> <b_epik_Metal_Only>
0

> <s_lp_Force_Field>
OPLS_2005

> <r_lp_Energy>
15.5431

> <b_lp_Chiralities_Consistent>
1

> <s_lp_Variant>
AV-unprocessed.smi:560-2

> <Gold.Version>
5.8.1

> <Gold.Id.Protein>
6NUR|6NUR_protein|mol2

> <Gold.PLP.Fitness>
49.8812

> <Gold.PLP.PLP>
-41.6289

> <Gold.PLP.part.hbond>
-3.0000

> <Gold.PLP.part.metal>
0.0000

> <Gold.PLP.part.buried>
-6.5323

> <Gold.PLP.part.nonpolar>
-32.2850

> <Gold.PLP.part.repulsive>
0.3127

> <Gold.PLP.ligand.clash>
0.0000

> <Gold.PLP.ligand.torsion>
0.4265

> <Gold.PLP.Chemscore.Hbond>
2.9913

> <Gold.PLP.Chemscore.CHOScore>
0.0000

> <Gold.PLP.Chemscore.Metal>
0.0000

> <Gold.Chemscore.Hbonds>
donor molecule, donor type, donor heavy atom, donor atom, acceptor molecule, acceptor atom, score
      L1  H    12    33       P1  7948  1.00
      L1  H    12    34       P1  7957  0.35
      P1  H  7997  8010       L1     4  0.91

> <Gold.PLP.Chemscore.Internal.Correction>
0.1315

> <Gold.Rescore>
     Score         DG    S(hbond)    S(metal)    S(lipo)     H(rot)  DE(clash)    DE(int)     intcor
     16.63     -18.90       2.87        0.00      86.93       2.48       0.04       2.24       ----

> <Gold.Chemscore.Fitness>
16.6252

> <Gold.Chemscore.DG>
-18.9044

> <Gold.Chemscore.ZeroCoef>
-5.4800

> <Gold.Chemscore.Hbond>
2.8726

> <Gold.Chemscore.Metal>
0.0000

> <Gold.Chemscore.Lipo>
86.9267

> <Gold.Chemscore.Internal_Hbond>
0.0000

> <Gold.Chemscore.DEClash>
0.0370

> <Gold.Chemscore.DEInternal>
2.2422

> <Gold.Chemscore.Rot>
2.4768

> <Gold.Chemscore.Internal.Correction>
   9.000000E+99

> <Gold.Chemscore.Hbonds>
donor molecule, donor type, donor heavy atom, donor atom, acceptor molecule, acceptor atom, score
      L1  H    12    33       P1  7948  1.00
      L1  H    12    34       P1  7957  0.34
      P1  H  7997  8010       L1     4  0.89

> <Gold.Chemscore.Hbond.Weighted>
-9.5946

> <Gold.Chemscore.Metal.Weighted>
-0.0000

> <Gold.Chemscore.Lipo.Weighted>
-10.1704

> <Gold.Chemscore.Internal_Hbond.Weighted>
0.0000

> <Gold.Chemscore.DEClash.Weighted>
0.0370

> <Gold.Chemscore.DEInternal.Weighted>
2.2422

> <Gold.Chemscore.Rot.Weighted>
6.3406

> <Gold.Chemscore.Internal.Correction.Weighted>
   9.000000E+99

> <Gold.Protein.RotatedTorsions>
[ 6907 6896 6895 6894 ] final  128.39 input  -60.11 | X-H torsion
[ 7974 7965 7964 7962 ] final  -60.40 input  175.53 | X-H torsion
[ 8008 7997 7996 7995 ] final   28.12 input   59.86 | X-H torsion
[ 10167 10162 10161 10158 ] final   47.30 input  -65.29 | X-H torsion
[ 10718 10713 10712 10709 ] final  -45.14 input   66.30 | X-H torsion
[ 10763 10752 10751 10750 ] final   76.67 input  -60.55 | X-H torsion
[ 11005 11000 10999 10996 ] final  -24.15 input  -57.11 | X-H torsion

> <Gold.Protein.ActiveResidues>
 VAL166  LYS551  ARG553  GLY616  TRP617  ASP618  TYR619  PRO620  LYS621  CYS622 
 ASP623  PHE694  ASN695  SER759  ASP760  ASP761  ALA762  ILE779  LEU786  VAL792 
 PHE793  MET794  SER795  GLU796  ALA797  LYS798  CYS799  TRP800  GLU811  SER814 

> <Gold.Protein.RotatedAtoms>
  152.3724  133.6436  159.6096 H   0  0  0  0  0  0  0  0  0  0  0  0  # atno 6907 bound_to 6896
  150.7678  133.9249  159.3418 H   0  0  0  0  0  0  0  0  0  0  0  0  # atno 6908 bound_to 6896
  151.7069  135.0921  160.0312 H   0  0  0  0  0  0  0  0  0  0  0  0  # atno 6909 bound_to 6896
  145.8160  140.8569  143.0157 H   0  0  0  0  0  0  0  0  0  0  0  0  # atno 7974 bound_to 7965
  155.0537  140.3182  155.4683 H   0  0  0  0  0  0  0  0  0  0  0  0  # atno 8008 bound_to 7997
  156.2829  140.2141  156.5607 H   0  0  0  0  0  0  0  0  0  0  0  0  # atno 8009 bound_to 7997
  154.7189  140.0491  157.0609 H   0  0  0  0  0  0  0  0  0  0  0  0  # atno 8010 bound_to 7997
  140.3050  144.2888  150.6211 H   0  0  0  0  0  0  0  0  0  0  0  0  # atno 10167 bound_to 10162
  156.2314  130.4173  149.8871 H   0  0  0  0  0  0  0  0  0  0  0  0  # atno 10718 bound_to 10713
  153.0742  135.4942  154.8370 H   0  0  0  0  0  0  0  0  0  0  0  0  # atno 10763 bound_to 10752
  154.7065  135.3011  154.9265 H   0  0  0  0  0  0  0  0  0  0  0  0  # atno 10764 bound_to 10752
  153.9972  135.6771  153.4810 H   0  0  0  0  0  0  0  0  0  0  0  0  # atno 10765 bound_to 10752
  140.8818  133.7649  156.0311 H   0  0  0  0  0  0  0  0  0  0  0  0  # atno 11005 bound_to 11000
  144.6752  140.0464  143.7480 LP  0  0  0  0  0  0  0  0  0  0  0  0  # atno 17320 bound_to 7965
  145.9726  139.2881  143.1090 LP  0  0  0  0  0  0  0  0  0  0  0  0  # atno 17321 bound_to 7965
  140.5618  143.2191  151.7752 LP  0  0  0  0  0  0  0  0  0  0  0  0  # atno 17342 bound_to 10162
  139.4906  144.4338  151.9842 LP  0  0  0  0  0  0  0  0  0  0  0  0  # atno 17343 bound_to 10162
  156.6484  130.8733  151.3527 LP  0  0  0  0  0  0  0  0  0  0  0  0  # atno 17370 bound_to 10713
  157.7134  130.9468  150.1170 LP  0  0  0  0  0  0  0  0  0  0  0  0  # atno 17371 bound_to 10713
  140.8452  134.3019  157.5297 LP  0  0  0  0  0  0  0  0  0  0  0  0  # atno 17394 bound_to 11000
  139.8720  134.9438  156.3863 LP  0  0  0  0  0  0  0  0  0  0  0  0  # atno 17395 bound_to 11000

$$$$
