AV-unprocessed.smi:2906|AV-procd|sdf|11162|dock9
  -GOLD-   2272016 53D 1   1.00000     0.00000
 Structure written by MMmdl.
 40 41  0  0  0  0  0  0  0  0  1 V2000
  152.4041  141.8202  159.2649 C   0  0  0  0  0  0  0  0  0  0  0  0
  152.0555  140.3903  158.8213 C   0  0  0  0  0  0  0  0  0  0  0  0
  150.9330  140.3229  157.7717 C   0  0  0  0  0  0  0  0  0  0  0  0
  149.8437  140.8489  158.0050 O   0  0  0  0  0  0  0  0  0  0  0  0
  151.1831  139.6818  156.6105 N   0  0  0  0  0  0  0  0  0  0  0  0
  152.4545  139.0314  156.3119 C   0  0  0  0  0  0  0  0  0  0  0  0
  152.4411  138.7170  154.8170 C   0  0  0  0  0  0  0  0  0  0  0  0
  150.9777  138.7902  154.3806 C   0  0  1  0  0  0  0  0  0  0  0  0
  150.4300  137.4629  154.1128 N   0  0  0  0  0  0  0  0  0  0  0  0
  150.6833  136.3649  154.8394 C   0  0  0  0  0  0  0  0  0  0  0  0
  151.4254  136.3589  155.8222 O   0  0  0  0  0  0  0  0  0  0  0  0
  150.0266  135.2972  154.3530 N   0  0  0  0  0  0  0  0  0  0  0  0
  150.0486  133.9618  154.8332 C   0  0  0  0  0  0  0  0  0  0  0  0
  149.6612  132.8985  154.1201 N   0  0  0  0  0  0  0  0  0  0  0  0
  149.7867  131.7052  154.8380 C   0  0  0  0  0  0  0  0  0  0  0  0
  149.4041  130.4058  154.1971 C   0  0  0  0  0  0  0  0  0  0  0  0
  150.5543  129.3927  154.2047 C   0  0  0  0  0  0  0  0  0  0  0  0
  150.2745  131.8862  156.1095 C   0  0  0  0  0  0  0  0  0  0  0  0
  150.5959  133.5646  156.4543 S   0  0  0  0  0  0  0  0  0  0  0  0
  150.2295  139.5056  155.5179 C   0  0  0  0  0  0  0  0  0  0  0  0
  153.2012  141.8084  160.0083 H   0  0  0  0  0  0  0  0  0  0  0  0
  151.5447  142.3199  159.7134 H   0  0  0  0  0  0  0  0  0  0  0  0
  152.7476  142.4253  158.4250 H   0  0  0  0  0  0  0  0  0  0  0  0
  152.9501  139.9183  158.4143 H   0  0  0  0  0  0  0  0  0  0  0  0
  151.7574  139.8097  159.6949 H   0  0  0  0  0  0  0  0  0  0  0  0
  153.3083  139.6585  156.5732 H   0  0  0  0  0  0  0  0  0  0  0  0
  152.5228  138.1111  156.8938 H   0  0  0  0  0  0  0  0  0  0  0  0
  153.0097  139.4827  154.2874 H   0  0  0  0  0  0  0  0  0  0  0  0
  152.9124  137.7589  154.5935 H   0  0  0  0  0  0  0  0  0  0  0  0
  150.9120  139.3791  153.4635 H   0  0  0  0  0  0  0  0  0  0  0  0
  149.8114  137.3781  153.3197 H   0  0  0  0  0  0  0  0  0  0  0  0
  149.4436  135.4575  153.5449 H   0  0  0  0  0  0  0  0  0  0  0  0
  148.5440  129.9746  154.7103 H   0  0  0  0  0  0  0  0  0  0  0  0
  149.0830  130.5777  153.1692 H   0  0  0  0  0  0  0  0  0  0  0  0
  150.2498  128.4562  153.7375 H   0  0  0  0  0  0  0  0  0  0  0  0
  150.8747  129.1691  155.2226 H   0  0  0  0  0  0  0  0  0  0  0  0
  151.4172  129.7724  153.6567 H   0  0  0  0  0  0  0  0  0  0  0  0
  150.4642  131.1351  156.8617 H   0  0  0  0  0  0  0  0  0  0  0  0
  149.3612  138.9396  155.8596 H   0  0  0  0  0  0  0  0  0  0  0  0
  149.8750  140.4778  155.1726 H   0  0  0  0  0  0  0  0  0  0  0  0
  1  2  1  0  0  0  0
  1 21  1  0  0  0  0
  1 22  1  0  0  0  0
  1 23  1  0  0  0  0
  2  3  1  0  0  0  0
  2 24  1  0  0  0  0
  2 25  1  0  0  0  0
  3  4  2  0  0  0  0
  3  5  1  0  0  0  0
  5 20  1  0  0  0  0
  5  6  1  0  0  0  0
  6  7  1  0  0  0  0
  6 26  1  0  0  0  0
  6 27  1  0  0  0  0
  7  8  1  0  0  0  0
  7 28  1  0  0  0  0
  7 29  1  0  0  0  0
  8  9  1  0  0  0  0
  8 20  1  0  0  0  0
  8 30  1  0  0  0  0
  9 10  1  0  0  0  0
  9 31  1  0  0  0  0
 10 11  2  0  0  0  0
 10 12  1  0  0  0  0
 12 13  1  0  0  0  0
 12 32  1  0  0  0  0
 13 19  1  0  0  0  0
 13 14  2  0  0  0  0
 14 15  1  0  0  0  0
 15 16  1  0  0  0  0
 15 18  2  0  0  0  0
 16 17  1  0  0  0  0
 16 33  1  0  0  0  0
 16 34  1  0  0  0  0
 17 35  1  0  0  0  0
 17 36  1  0  0  0  0
 17 37  1  0  0  0  0
 18 19  1  0  0  0  0
 18 38  1  0  0  0  0
 20 39  1  0  0  0  0
 20 40  1  0  0  0  0
M  END
> <s_m_source_file>
AV-unprocessed.smi

> <i_m_source_file_index>
2906

> <i_lp_mmshare_version>
43012

> <i_f3d_flags>
0

> <s_epik_input>
W0NIM11bQ0gyXUMoPU8pTjFbQ0gyXVtDSDJdW0NASF0oW0NIMl0xKVtOSF1DKD1PKVtOSF1jMm5jKFtjSF1zMilbQ0gyXVtDSDNd

> <s_epik_cmdline>
J2VwaWtfcHl0aG9uJywgJy1waCcsICc3LjAnLCAnLXRuJywgJzgnLCAnLW1hJywgJzIwMCcsICctbWV0YWxfYmluZGluZycsICctaW1hZScsICc8aW5maWxlLm1hZT4nLCAnLW9tYWUnLCAnPG91dGZpbGUubWFlPic=

> <r_lp_tautomer_probability>
1

> <r_epik_Ionization_Penalty>
0.000174744

> <r_epik_Ionization_Penalty_Charging>
0

> <r_epik_Ionization_Penalty_Neutral>
0.000174744

> <r_epik_State_Penalty>
-0

> <r_epik_Charging_Adjusted_Penalty>
0

> <i_epik_Tot_Q>
0

> <i_epik_Tot_abs_Q>
0

> <r_epik_Metal_State_Penalty>
0.0273865

> <b_epik_Metal_Only>
0

> <s_lp_Force_Field>
OPLS_2005

> <r_lp_Energy>
22.1367

> <b_lp_Chiralities_Consistent>
1

> <s_lp_Variant>
AV-unprocessed.smi:2906-1

> <Gold.Version>
5.8.1

> <Gold.Id.Protein>
6NUR|6NUR_protein|mol2

> <Gold.PLP.Fitness>
43.9704

> <Gold.PLP.PLP>
-35.7602

> <Gold.PLP.part.hbond>
-4.2975

> <Gold.PLP.part.metal>
0.0000

> <Gold.PLP.part.buried>
-3.7015

> <Gold.PLP.part.nonpolar>
-28.8714

> <Gold.PLP.part.repulsive>
0.3030

> <Gold.PLP.ligand.clash>
0.0000

> <Gold.PLP.ligand.torsion>
0.3859

> <Gold.PLP.Chemscore.Hbond>
2.9920

> <Gold.PLP.Chemscore.CHOScore>
0.0000

> <Gold.PLP.Chemscore.Metal>
0.0000

> <Gold.Chemscore.Hbonds>
donor molecule, donor type, donor heavy atom, donor atom, acceptor molecule, acceptor atom, score
      L1  H     9    31       P1  7948  0.99
      L1  H    12    32       P1  7948  0.90
      P1  H 10752 10763       L1    11  0.90

> <Gold.PLP.Chemscore.Internal.Correction>
0.0060

> <Gold.Rescore>
     Score         DG    S(hbond)    S(metal)    S(lipo)     H(rot)  DE(clash)    DE(int)     intcor
     12.19     -16.74       1.99        0.00      70.21       1.41       0.01       4.54       ----

> <Gold.Chemscore.Fitness>
12.1948

> <Gold.Chemscore.DG>
-16.7446

> <Gold.Chemscore.ZeroCoef>
-5.4800

> <Gold.Chemscore.Hbond>
1.9941

> <Gold.Chemscore.Metal>
0.0000

> <Gold.Chemscore.Lipo>
70.2097

> <Gold.Chemscore.Internal_Hbond>
0.0000

> <Gold.Chemscore.DEClash>
0.0095

> <Gold.Chemscore.DEInternal>
4.5403

> <Gold.Chemscore.Rot>
1.4102

> <Gold.Chemscore.Internal.Correction>
   9.000000E+99

> <Gold.Chemscore.Hbonds>
donor molecule, donor type, donor heavy atom, donor atom, acceptor molecule, acceptor atom, score
      L1  H     9    31       P1  7948  0.50
      L1  H    12    32       P1  7948  0.18
      P1  H 10752 10763       L1    11  0.19

> <Gold.Chemscore.Hbond.Weighted>
-6.6601

> <Gold.Chemscore.Metal.Weighted>
-0.0000

> <Gold.Chemscore.Lipo.Weighted>
-8.2145

> <Gold.Chemscore.Internal_Hbond.Weighted>
0.0000

> <Gold.Chemscore.DEClash.Weighted>
0.0095

> <Gold.Chemscore.DEInternal.Weighted>
4.5403

> <Gold.Chemscore.Rot.Weighted>
3.6101

> <Gold.Chemscore.Internal.Correction.Weighted>
   9.000000E+99

> <Gold.Protein.RotatedTorsions>
[ 6907 6896 6895 6894 ] final  157.38 input  -60.11 | X-H torsion
[ 7974 7965 7964 7962 ] final   54.96 input  175.53 | X-H torsion
[ 8008 7997 7996 7995 ] final   45.48 input   59.86 | X-H torsion
[ 10167 10162 10161 10158 ] final  108.96 input  -65.29 | X-H torsion
[ 10718 10713 10712 10709 ] final  -10.00 input   66.30 | X-H torsion
[ 10763 10752 10751 10750 ] final   84.13 input  -60.55 | X-H torsion
[ 11005 11000 10999 10996 ] final   98.65 input  -57.11 | X-H torsion

> <Gold.Protein.ActiveResidues>
 VAL166  LYS551  ARG553  GLY616  TRP617  ASP618  TYR619  PRO620  LYS621  CYS622 
 ASP623  PHE694  ASN695  SER759  ASP760  ASP761  ALA762  ILE779  LEU786  VAL792 
 PHE793  MET794  SER795  GLU796  ALA797  LYS798  CYS799  TRP800  GLU811  SER814 

> <Gold.Protein.RotatedAtoms>
  152.0159  133.3879  159.4238 H   0  0  0  0  0  0  0  0  0  0  0  0  # atno 6907 bound_to 6896
  150.6895  134.3679  159.4988 H   0  0  0  0  0  0  0  0  0  0  0  0  # atno 6908 bound_to 6896
  152.1446  134.9035  160.0602 H   0  0  0  0  0  0  0  0  0  0  0  0  # atno 6909 bound_to 6896
  145.9554  139.4010  143.0281 H   0  0  0  0  0  0  0  0  0  0  0  0  # atno 7974 bound_to 7965
  155.3366  140.3405  155.4239 H   0  0  0  0  0  0  0  0  0  0  0  0  # atno 8008 bound_to 7997
  156.1835  140.1672  156.8266 H   0  0  0  0  0  0  0  0  0  0  0  0  # atno 8009 bound_to 7997
  154.5359  140.0735  156.8410 H   0  0  0  0  0  0  0  0  0  0  0  0  # atno 8010 bound_to 7997
  139.6804  144.7118  151.1526 H   0  0  0  0  0  0  0  0  0  0  0  0  # atno 10167 bound_to 10162
  156.6799  130.5034  149.5974 H   0  0  0  0  0  0  0  0  0  0  0  0  # atno 10718 bound_to 10713
  153.1354  135.4665  154.9413 H   0  0  0  0  0  0  0  0  0  0  0  0  # atno 10763 bound_to 10752
  154.7701  135.3156  154.8209 H   0  0  0  0  0  0  0  0  0  0  0  0  # atno 10764 bound_to 10752
  153.8743  135.6900  153.4826 H   0  0  0  0  0  0  0  0  0  0  0  0  # atno 10765 bound_to 10752
  139.8772  134.9059  156.4488 H   0  0  0  0  0  0  0  0  0  0  0  0  # atno 11005 bound_to 11000
  145.8114  140.9724  143.0947 LP  0  0  0  0  0  0  0  0  0  0  0  0  # atno 17320 bound_to 7965
  144.6804  139.9926  143.7484 LP  0  0  0  0  0  0  0  0  0  0  0  0  # atno 17321 bound_to 7965
  140.7650  143.5708  150.8998 LP  0  0  0  0  0  0  0  0  0  0  0  0  # atno 17342 bound_to 10162
  139.9379  143.6416  152.3061 LP  0  0  0  0  0  0  0  0  0  0  0  0  # atno 17343 bound_to 10162
  156.1876  130.6539  151.1024 LP  0  0  0  0  0  0  0  0  0  0  0  0  # atno 17370 bound_to 10713
  157.7047  131.0761  150.6705 LP  0  0  0  0  0  0  0  0  0  0  0  0  # atno 17371 bound_to 10713
  140.8946  133.7823  155.9611 LP  0  0  0  0  0  0  0  0  0  0  0  0  # atno 17394 bound_to 11000
  140.8716  134.2719  157.5188 LP  0  0  0  0  0  0  0  0  0  0  0  0  # atno 17395 bound_to 11000

$$$$
