AV-unprocessed.smi:1046|AV-procd|sdf|4551|dock7
  -GOLD-   22720 2583D 1   1.00000     0.00000
 Structure written by MMmdl.
 53 55  0  0  0  0  0  0  0  0  2 V2000
  154.0045  141.2132  161.8375 C   0  0  0  0  0  0  0  0  0  0  0  0
  153.2349  141.1565  160.5295 C   0  0  0  0  0  0  0  0  0  0  0  0
  152.6833  142.3474  160.0050 C   0  0  0  0  0  0  0  0  0  0  0  0
  151.9611  142.3379  158.7916 C   0  0  0  0  0  0  0  0  0  0  0  0
  151.3449  143.3692  158.1035 N   0  0  0  0  0  0  0  0  0  0  0  0
  150.8450  142.7280  157.0509 C   0  0  0  0  0  0  0  0  0  0  0  0
  151.0647  141.4011  156.9760 N   0  0  0  0  0  0  0  0  0  0  0  0
  150.6256  140.4937  155.9312 C   0  0  0  0  0  0  0  0  0  0  0  0
  149.4657  141.0730  155.0994 C   0  0  1  0  0  0  0  0  0  0  0  0
  149.8380  141.0930  153.7351 O   0  0  0  0  0  0  0  0  0  0  0  0
  148.1832  140.2314  155.2572 C   0  0  0  0  0  0  0  0  0  0  0  0
  146.9450  140.8598  154.7786 N   0  0  0  0  0  0  0  0  0  0  0  0
  146.8656  140.9084  153.3189 C   0  0  0  0  0  0  0  0  0  0  0  0
  146.6140  139.5285  152.6759 C   0  0  0  0  0  0  0  0  0  0  0  0
  145.3744  138.9179  153.2220 N   0  3  0  0  0  0  0  0  0  0  0  0
  145.0547  137.6167  152.5823 C   0  0  0  0  0  0  0  0  0  0  0  0
  143.5980  137.1819  152.8173 C   0  0  0  0  0  0  0  0  0  0  0  0
  142.7365  138.2945  152.7004 O   0  0  0  0  0  0  0  0  0  0  0  0
  145.4271  138.8577  154.7073 C   0  0  0  0  0  0  0  0  0  0  0  0
  145.7097  140.2577  155.2878 C   0  0  0  0  0  0  0  0  0  0  0  0
  151.8052  141.0946  158.1121 C   0  0  0  0  0  0  0  0  0  0  0  0
  152.3485  139.9029  158.6238 C   0  0  0  0  0  0  0  0  0  0  0  0
  153.0665  139.9301  159.8377 C   0  0  0  0  0  0  0  0  0  0  0  0
  153.6484  138.6382  160.3835 C   0  0  0  0  0  0  0  0  0  0  0  0
  154.0488  142.2295  162.2296 H   0  0  0  0  0  0  0  0  0  0  0  0
  155.0279  140.8657  161.6947 H   0  0  0  0  0  0  0  0  0  0  0  0
  153.5265  140.5854  162.5893 H   0  0  0  0  0  0  0  0  0  0  0  0
  152.8108  143.2815  160.5319 H   0  0  0  0  0  0  0  0  0  0  0  0
  150.2850  143.2528  156.2908 H   0  0  0  0  0  0  0  0  0  0  0  0
  151.4767  140.2540  155.2919 H   0  0  0  0  0  0  0  0  0  0  0  0
  150.3189  139.5602  156.4049 H   0  0  0  0  0  0  0  0  0  0  0  0
  149.2944  142.0985  155.4235 H   0  0  0  0  0  0  0  0  0  0  0  0
  149.3353  140.4385  153.2750 H   0  0  0  0  0  0  0  0  0  0  0  0
  148.3319  139.2910  154.7245 H   0  0  0  0  0  0  0  0  0  0  0  0
  148.0753  139.9554  156.3055 H   0  0  0  0  0  0  0  0  0  0  0  0
  146.0598  141.5847  153.0295 H   0  0  0  0  0  0  0  0  0  0  0  0
  147.7781  141.3462  152.9124 H   0  0  0  0  0  0  0  0  0  0  0  0
  146.5150  139.6505  151.5967 H   0  0  0  0  0  0  0  0  0  0  0  0
  147.4613  138.8611  152.8392 H   0  0  0  0  0  0  0  0  0  0  0  0
  145.2236  137.6851  151.5064 H   0  0  0  0  0  0  0  0  0  0  0  0
  145.7419  136.8532  152.9501 H   0  0  0  0  0  0  0  0  0  0  0  0
  143.3080  136.4472  152.0658 H   0  0  0  0  0  0  0  0  0  0  0  0
  143.4597  136.7076  153.7883 H   0  0  0  0  0  0  0  0  0  0  0  0
  143.2466  139.0842  152.8039 H   0  0  0  0  0  0  0  0  0  0  0  0
  144.4769  138.5012  155.1029 H   0  0  0  0  0  0  0  0  0  0  0  0
  146.1853  138.1425  155.0285 H   0  0  0  0  0  0  0  0  0  0  0  0
  145.7183  140.2166  156.3757 H   0  0  0  0  0  0  0  0  0  0  0  0
  144.8733  140.9114  155.0359 H   0  0  0  0  0  0  0  0  0  0  0  0
  152.2127  138.9765  158.0862 H   0  0  0  0  0  0  0  0  0  0  0  0
  153.4131  137.7919  159.7376 H   0  0  0  0  0  0  0  0  0  0  0  0
  153.2449  138.4254  161.3737 H   0  0  0  0  0  0  0  0  0  0  0  0
  154.7335  138.7101  160.4594 H   0  0  0  0  0  0  0  0  0  0  0  0
  144.6220  139.5470  152.9791 H   0  0  0  0  0  0  0  0  0  0  0  0
  1  2  1  0  0  0  0
  1 25  1  0  0  0  0
  1 26  1  0  0  0  0
  1 27  1  0  0  0  0
  2 23  1  0  0  0  0
  2  3  2  0  0  0  0
  3  4  1  0  0  0  0
  3 28  1  0  0  0  0
  4 21  2  0  0  0  0
  4  5  1  0  0  0  0
  5  6  2  0  0  0  0
  6  7  1  0  0  0  0
  6 29  1  0  0  0  0
  7  8  1  0  0  0  0
  7 21  1  0  0  0  0
  8  9  1  0  0  0  0
  8 30  1  0  0  0  0
  8 31  1  0  0  0  0
  9 10  1  0  0  0  0
  9 11  1  0  0  0  0
  9 32  1  0  0  0  0
 10 33  1  0  0  0  0
 11 12  1  0  0  0  0
 11 34  1  0  0  0  0
 11 35  1  0  0  0  0
 12 20  1  0  0  0  0
 12 13  1  0  0  0  0
 13 14  1  0  0  0  0
 13 36  1  0  0  0  0
 13 37  1  0  0  0  0
 14 15  1  0  0  0  0
 14 38  1  0  0  0  0
 14 39  1  0  0  0  0
 15 16  1  0  0  0  0
 15 19  1  0  0  0  0
 15 53  1  0  0  0  0
 16 17  1  0  0  0  0
 16 40  1  0  0  0  0
 16 41  1  0  0  0  0
 17 18  1  0  0  0  0
 17 42  1  0  0  0  0
 17 43  1  0  0  0  0
 18 44  1  0  0  0  0
 19 20  1  0  0  0  0
 19 45  1  0  0  0  0
 19 46  1  0  0  0  0
 20 47  1  0  0  0  0
 20 48  1  0  0  0  0
 21 22  1  0  0  0  0
 22 23  2  0  0  0  0
 22 49  1  0  0  0  0
 23 24  1  0  0  0  0
 24 50  1  0  0  0  0
 24 51  1  0  0  0  0
 24 52  1  0  0  0  0
M  CHG  1  15   1
M  END
> <s_m_source_file>
AV-unprocessed.smi

> <i_m_source_file_index>
1046

> <i_lp_mmshare_version>
43012

> <i_f3d_flags>
0

> <s_epik_input>
W0NIM11jKFtjSF0xKWMoW0NIM10pW2NIXWMoYzEyKW4oW2NIXW4yKVtDSDJdW0NASF0oW09IXSlbQ0gyXU4zW0NIMl1bQ0gyXU4oW0NIMl1bQ0gyXTMpW0NIMl1bQ0gyXVtPSF0=

> <s_epik_cmdline>
J2VwaWtfcHl0aG9uJywgJy1waCcsICc3LjAnLCAnLXRuJywgJzgnLCAnLW1hJywgJzIwMCcsICctbWV0YWxfYmluZGluZycsICctaW1hZScsICc8aW5maWxlLm1hZT4nLCAnLW9tYWUnLCAnPG91dGZpbGUubWFlPic=

> <r_epik_Ionization_Penalty>
0.218081

> <r_epik_Ionization_Penalty_Charging>
0.0909554

> <r_epik_Ionization_Penalty_Neutral>
0.127126

> <r_epik_State_Penalty>
0.825642

> <r_epik_Charging_Adjusted_Penalty>
0.916597

> <i_epik_Tot_Q>
1

> <i_epik_Tot_abs_Q>
1

> <r_epik_Metal_State_Penalty>
0.740189

> <b_epik_Metal_Only>
0

> <s_lp_Force_Field>
OPLS_2005

> <r_lp_Energy>
34.993

> <b_lp_Chiralities_Consistent>
1

> <s_lp_Variant>
AV-unprocessed.smi:1046-4

> <Gold.Version>
5.8.1

> <Gold.Id.Protein>
6NUR|6NUR_protein|mol2

> <Gold.PLP.Fitness>
59.6234

> <Gold.PLP.PLP>
-45.0352

> <Gold.PLP.part.hbond>
-5.0851

> <Gold.PLP.part.metal>
0.0000

> <Gold.PLP.part.buried>
-1.7344

> <Gold.PLP.part.nonpolar>
-38.1682

> <Gold.PLP.part.repulsive>
0.2079

> <Gold.PLP.ligand.clash>
0.0000

> <Gold.PLP.ligand.torsion>
1.4015

> <Gold.PLP.Chemscore.Hbond>
4.7440

> <Gold.PLP.Chemscore.CHOScore>
1.0000

> <Gold.PLP.Chemscore.Metal>
0.0000

> <Gold.Chemscore.Hbonds>
donor molecule, donor type, donor heavy atom, donor atom, acceptor molecule, acceptor atom, score
      L1  H    10    33       P1  7957  0.28
      L1  H    15    53       P1 10175  1.40
      L1  H    18    44       P1 10175  0.78
      P1  H  7989  7998       L1    10  0.30
      P1  H  8011  8017       L1    10  0.76
      L1  C     6    29       P1  8028  1.00

> <Gold.PLP.Chemscore.Internal.Correction>
0.1592

> <Gold.Rescore>
     Score         DG    S(hbond)    S(metal)    S(lipo)     H(rot)  DE(clash)    DE(int)     intcor
     19.02     -20.85       3.17        0.00     111.14       3.21       0.38       1.45       ----

> <Gold.Chemscore.Fitness>
19.0187

> <Gold.Chemscore.DG>
-20.8543

> <Gold.Chemscore.ZeroCoef>
-5.4800

> <Gold.Chemscore.Hbond>
3.1670

> <Gold.Chemscore.Metal>
0.0000

> <Gold.Chemscore.Lipo>
111.1398

> <Gold.Chemscore.Internal_Hbond>
0.0000

> <Gold.Chemscore.DEClash>
0.3824

> <Gold.Chemscore.DEInternal>
1.4532

> <Gold.Chemscore.Rot>
3.2058

> <Gold.Chemscore.Internal.Correction>
   9.000000E+99

> <Gold.Chemscore.Hbonds>
donor molecule, donor type, donor heavy atom, donor atom, acceptor molecule, acceptor atom, score
      L1  H    10    33       P1  7957  0.28
      L1  H    15    53       P1 10175  0.71
      L1  H    18    44       P1 10175  0.74
      P1  H  7989  7998       L1    10  0.23
      P1  H  8011  8017       L1    10  0.13

> <Gold.Chemscore.Hbond.Weighted>
-10.5777

> <Gold.Chemscore.Metal.Weighted>
-0.0000

> <Gold.Chemscore.Lipo.Weighted>
-13.0034

> <Gold.Chemscore.Internal_Hbond.Weighted>
0.0000

> <Gold.Chemscore.DEClash.Weighted>
0.3824

> <Gold.Chemscore.DEInternal.Weighted>
1.4532

> <Gold.Chemscore.Rot.Weighted>
8.2067

> <Gold.Chemscore.Internal.Correction.Weighted>
   9.000000E+99

> <Gold.Protein.RotatedTorsions>
[ 6907 6896 6895 6894 ] final  101.31 input  -60.11 | X-H torsion
[ 7974 7965 7964 7962 ] final  171.29 input  175.53 | X-H torsion
[ 8008 7997 7996 7995 ] final  -83.99 input   59.86 | X-H torsion
[ 10167 10162 10161 10158 ] final  -87.43 input  -65.29 | X-H torsion
[ 10718 10713 10712 10709 ] final  140.57 input   66.30 | X-H torsion
[ 10763 10752 10751 10750 ] final   62.03 input  -60.55 | X-H torsion
[ 11005 11000 10999 10996 ] final  -31.33 input  -57.11 | X-H torsion

> <Gold.Protein.ActiveResidues>
 VAL166  LYS551  ARG553  GLY616  TRP617  ASP618  TYR619  PRO620  LYS621  CYS622 
 ASP623  PHE694  ASN695  SER759  ASP760  ASP761  ALA762  ILE779  LEU786  VAL792 
 PHE793  MET794  SER795  GLU796  ALA797  LYS798  CYS799  TRP800  GLU811  SER814 

> <Gold.Protein.RotatedAtoms>
  152.5352  134.0145  159.7953 H   0  0  0  0  0  0  0  0  0  0  0  0  # atno 6907 bound_to 6896
  151.0342  133.5755  159.2665 H   0  0  0  0  0  0  0  0  0  0  0  0  # atno 6908 bound_to 6896
  151.2749  135.0703  159.9201 H   0  0  0  0  0  0  0  0  0  0  0  0  # atno 6909 bound_to 6896
  144.7299  139.9328  143.6425 H   0  0  0  0  0  0  0  0  0  0  0  0  # atno 7974 bound_to 7965
  154.6250  140.0611  156.9662 H   0  0  0  0  0  0  0  0  0  0  0  0  # atno 8008 bound_to 7997
  155.1756  140.3295  155.4366 H   0  0  0  0  0  0  0  0  0  0  0  0  # atno 8009 bound_to 7997
  156.2452  140.1906  156.6856 H   0  0  0  0  0  0  0  0  0  0  0  0  # atno 8010 bound_to 7997
  140.3845  143.2733  151.9342 H   0  0  0  0  0  0  0  0  0  0  0  0  # atno 10167 bound_to 10162
  157.4018  131.1017  151.0544 H   0  0  0  0  0  0  0  0  0  0  0  0  # atno 10718 bound_to 10713
  152.9969  135.5479  154.6129 H   0  0  0  0  0  0  0  0  0  0  0  0  # atno 10763 bound_to 10752
  154.5445  135.2822  155.1067 H   0  0  0  0  0  0  0  0  0  0  0  0  # atno 10764 bound_to 10752
  154.2331  135.6430  153.5234 H   0  0  0  0  0  0  0  0  0  0  0  0  # atno 10765 bound_to 10752
  140.9459  133.7250  156.1146 H   0  0  0  0  0  0  0  0  0  0  0  0  # atno 11005 bound_to 11000
  146.0845  139.3833  143.0444 LP  0  0  0  0  0  0  0  0  0  0  0  0  # atno 17320 bound_to 7965
  145.7796  140.9862  143.1106 LP  0  0  0  0  0  0  0  0  0  0  0  0  # atno 17321 bound_to 7965
  139.4793  144.5787  151.7969 LP  0  0  0  0  0  0  0  0  0  0  0  0  # atno 17342 bound_to 10162
  140.4903  144.1320  150.5949 LP  0  0  0  0  0  0  0  0  0  0  0  0  # atno 17343 bound_to 10162
  157.1540  130.6196  149.5591 LP  0  0  0  0  0  0  0  0  0  0  0  0  # atno 17370 bound_to 10713
  155.9825  130.4839  150.6886 LP  0  0  0  0  0  0  0  0  0  0  0  0  # atno 17371 bound_to 10713
  140.7670  134.3875  157.5515 LP  0  0  0  0  0  0  0  0  0  0  0  0  # atno 17394 bound_to 11000
  139.8833  134.8998  156.2774 LP  0  0  0  0  0  0  0  0  0  0  0  0  # atno 17395 bound_to 11000

$$$$
