AV-unprocessed.smi:648|AV-procd|sdf|3174|dock6
  -GOLD-   22720 0 93D 1   1.00000     0.00000
 Structure written by MMmdl.
 45 46  0  0  0  0  0  0  0  0  1 V2000
  152.0393  138.5040  154.4321 C   0  0  0  0  0  0  0  0  0  0  0  0
  151.8470  138.8971  155.9041 C   0  0  2  0  0  0  0  0  0  0  0  0
  150.8626  137.9467  156.6083 C   0  0  0  0  0  0  0  0  0  0  0  0
  150.6379  138.2878  158.0991 C   0  0  0  0  0  0  0  0  0  0  0  0
  149.4577  137.4431  158.6214 C   0  0  0  0  0  0  0  0  0  0  0  0
  151.8755  137.9039  158.9423 C   0  0  0  0  0  0  0  0  0  0  0  0
  150.2712  139.7914  158.2562 C   0  0  0  0  0  0  0  0  0  0  0  0
  151.1678  140.8160  157.5008 C   0  0  1  0  0  0  0  0  0  0  0  0
  150.4460  142.1916  157.4675 C   0  0  0  0  0  0  0  0  0  0  0  0
  151.0510  143.0906  156.5577 O   0  0  0  0  0  0  0  0  0  0  0  0
  152.4585  140.9571  158.2068 N   0  0  0  0  0  0  0  0  0  0  0  0
  152.4592  141.4789  159.5760 C   0  0  0  0  0  0  0  0  0  0  0  0
  153.1143  142.8650  159.6192 C   0  0  0  0  0  0  0  0  0  0  0  0
  152.1236  143.9221  159.6044 N   0  0  0  0  0  0  0  0  0  0  0  0
  152.2478  145.2250  159.3467 C   0  0  0  0  0  0  0  0  0  0  0  0
  151.1068  145.8964  159.4232 N   0  0  0  0  0  0  0  0  0  0  0  0
  150.2627  144.8742  159.7557 C   0  0  0  0  0  0  0  0  0  0  0  0
  150.8218  143.6700  159.8757 N   0  0  0  0  0  0  0  0  0  0  0  0
  151.3595  140.3507  156.0324 C   0  0  0  0  0  0  0  0  0  0  0  0
  151.1013  138.5622  153.8793 H   0  0  0  0  0  0  0  0  0  0  0  0
  152.4151  137.4843  154.3442 H   0  0  0  0  0  0  0  0  0  0  0  0
  152.7566  139.1620  153.9406 H   0  0  0  0  0  0  0  0  0  0  0  0
  152.8229  138.8167  156.3823 H   0  0  0  0  0  0  0  0  0  0  0  0
  149.9079  137.9869  156.0815 H   0  0  0  0  0  0  0  0  0  0  0  0
  151.2112  136.9172  156.5138 H   0  0  0  0  0  0  0  0  0  0  0  0
  149.2574  137.6480  159.6736 H   0  0  0  0  0  0  0  0  0  0  0  0
  149.6597  136.3755  158.5276 H   0  0  0  0  0  0  0  0  0  0  0  0
  148.5395  137.6484  158.0695 H   0  0  0  0  0  0  0  0  0  0  0  0
  151.7325  138.1599  159.9926 H   0  0  0  0  0  0  0  0  0  0  0  0
  152.7872  138.3964  158.6108 H   0  0  0  0  0  0  0  0  0  0  0  0
  152.0662  136.8314  158.8931 H   0  0  0  0  0  0  0  0  0  0  0  0
  149.2523  139.9181  157.8864 H   0  0  0  0  0  0  0  0  0  0  0  0
  150.2202  140.0444  159.3164 H   0  0  0  0  0  0  0  0  0  0  0  0
  149.3890  142.0919  157.2226 H   0  0  0  0  0  0  0  0  0  0  0  0
  150.4774  142.6569  158.4535 H   0  0  0  0  0  0  0  0  0  0  0  0
  150.3794  143.6475  156.1945 H   0  0  0  0  0  0  0  0  0  0  0  0
  152.9397  140.0631  158.1916 H   0  0  0  0  0  0  0  0  0  0  0  0
  151.4428  141.5603  159.9592 H   0  0  0  0  0  0  0  0  0  0  0  0
  153.0040  140.8128  160.2438 H   0  0  0  0  0  0  0  0  0  0  0  0
  153.7268  142.9733  160.5155 H   0  0  0  0  0  0  0  0  0  0  0  0
  153.7763  142.9992  158.7624 H   0  0  0  0  0  0  0  0  0  0  0  0
  153.1897  145.6906  159.0965 H   0  0  0  0  0  0  0  0  0  0  0  0
  149.2045  145.0218  159.9136 H   0  0  0  0  0  0  0  0  0  0  0  0
  152.0218  141.0219  155.4867 H   0  0  0  0  0  0  0  0  0  0  0  0
  150.4020  140.4257  155.5146 H   0  0  0  0  0  0  0  0  0  0  0  0
  1  2  1  0  0  0  0
  1 20  1  0  0  0  0
  1 21  1  0  0  0  0
  1 22  1  0  0  0  0
  2 19  1  0  0  0  0
  2  3  1  0  0  0  0
  2 23  1  0  0  0  0
  3  4  1  0  0  0  0
  3 24  1  0  0  0  0
  3 25  1  0  0  0  0
  4  5  1  0  0  0  0
  4  6  1  0  0  0  0
  4  7  1  0  0  0  0
  5 26  1  0  0  0  0
  5 27  1  0  0  0  0
  5 28  1  0  0  0  0
  6 29  1  0  0  0  0
  6 30  1  0  0  0  0
  6 31  1  0  0  0  0
  7  8  1  0  0  0  0
  7 32  1  0  0  0  0
  7 33  1  0  0  0  0
  8  9  1  0  0  0  0
  8 11  1  0  0  0  0
  8 19  1  0  0  0  0
  9 10  1  0  0  0  0
  9 34  1  0  0  0  0
  9 35  1  0  0  0  0
 10 36  1  0  0  0  0
 11 12  1  0  0  0  0
 11 37  1  0  0  0  0
 12 13  1  0  0  0  0
 12 38  1  0  0  0  0
 12 39  1  0  0  0  0
 13 14  1  0  0  0  0
 13 40  1  0  0  0  0
 13 41  1  0  0  0  0
 14 18  1  0  0  0  0
 14 15  1  0  0  0  0
 15 16  2  0  0  0  0
 15 42  1  0  0  0  0
 16 17  1  0  0  0  0
 17 18  2  0  0  0  0
 17 43  1  0  0  0  0
 19 44  1  0  0  0  0
 19 45  1  0  0  0  0
M  END
> <s_m_source_file>
AV-unprocessed.smi

> <i_m_source_file_index>
648

> <i_lp_mmshare_version>
43012

> <i_f3d_flags>
0

> <s_epik_input>
W0NIM11DMShbQ0gzXSlbQ0gyXVtDQEBIXShbQ0gzXSlbQ0gyXVtDQF0oW0NIMl0xKShbQ0gyXVtPSF0pW05IXVtDSDJdW0NIMl1uMltjSF1uW2NIXW4y

> <s_epik_cmdline>
J2VwaWtfcHl0aG9uJywgJy1waCcsICc3LjAnLCAnLXRuJywgJzgnLCAnLW1hJywgJzIwMCcsICctbWV0YWxfYmluZGluZycsICctaW1hZScsICc8aW5maWxlLm1hZT4nLCAnLW9tYWUnLCAnPG91dGZpbGUubWFlPic=

> <r_lp_tautomer_probability>
1

> <r_epik_Ionization_Penalty>
2.45849

> <r_epik_Ionization_Penalty_Charging>
0

> <r_epik_Ionization_Penalty_Neutral>
2.45849

> <r_epik_State_Penalty>
2.62037

> <r_epik_Charging_Adjusted_Penalty>
2.62037

> <i_epik_Tot_Q>
0

> <i_epik_Tot_abs_Q>
0

> <r_epik_Metal_State_Penalty>
2.62024

> <b_epik_Metal_Only>
0

> <s_lp_Force_Field>
OPLS_2005

> <r_lp_Energy>
32.3104

> <b_lp_Chiralities_Consistent>
1

> <s_lp_Variant>
AV-unprocessed.smi:648-5

> <Gold.Version>
5.8.1

> <Gold.Id.Protein>
6NUR|6NUR_protein|mol2

> <Gold.PLP.Fitness>
40.1780

> <Gold.PLP.PLP>
-39.0869

> <Gold.PLP.part.hbond>
-3.4076

> <Gold.PLP.part.metal>
0.0000

> <Gold.PLP.part.buried>
-5.2462

> <Gold.PLP.part.nonpolar>
-29.6424

> <Gold.PLP.part.repulsive>
0.2963

> <Gold.PLP.ligand.clash>
0.0000

> <Gold.PLP.ligand.torsion>
0.9559

> <Gold.PLP.Chemscore.Hbond>
1.0000

> <Gold.PLP.Chemscore.CHOScore>
0.0000

> <Gold.PLP.Chemscore.Metal>
0.0000

> <Gold.Chemscore.Hbonds>
donor molecule, donor type, donor heavy atom, donor atom, acceptor molecule, acceptor atom, score
      L1  H    10    36       P1  8028  1.00

> <Gold.PLP.Chemscore.Internal.Correction>
0.0029

> <Gold.Rescore>
     Score         DG    S(hbond)    S(metal)    S(lipo)     H(rot)  DE(clash)    DE(int)     intcor
      8.13      -9.26       1.00        0.00      72.02       3.12       0.07       1.07       ----

> <Gold.Chemscore.Fitness>
8.1264

> <Gold.Chemscore.DG>
-9.2599

> <Gold.Chemscore.ZeroCoef>
-5.4800

> <Gold.Chemscore.Hbond>
0.9988

> <Gold.Chemscore.Metal>
0.0000

> <Gold.Chemscore.Lipo>
72.0229

> <Gold.Chemscore.Internal_Hbond>
0.0000

> <Gold.Chemscore.DEClash>
0.0682

> <Gold.Chemscore.DEInternal>
1.0652

> <Gold.Chemscore.Rot>
3.1183

> <Gold.Chemscore.Internal.Correction>
   9.000000E+99

> <Gold.Chemscore.Hbonds>
donor molecule, donor type, donor heavy atom, donor atom, acceptor molecule, acceptor atom, score
      L1  H    10    36       P1  8028  1.00

> <Gold.Chemscore.Hbond.Weighted>
-3.3361

> <Gold.Chemscore.Metal.Weighted>
-0.0000

> <Gold.Chemscore.Lipo.Weighted>
-8.4267

> <Gold.Chemscore.Internal_Hbond.Weighted>
0.0000

> <Gold.Chemscore.DEClash.Weighted>
0.0682

> <Gold.Chemscore.DEInternal.Weighted>
1.0652

> <Gold.Chemscore.Rot.Weighted>
7.9829

> <Gold.Chemscore.Internal.Correction.Weighted>
   9.000000E+99

> <Gold.Protein.RotatedTorsions>
[ 6907 6896 6895 6894 ] final   61.64 input  -60.11 | X-H torsion
[ 7974 7965 7964 7962 ] final   32.50 input  175.53 | X-H torsion
[ 8008 7997 7996 7995 ] final  135.94 input   59.86 | X-H torsion
[ 10167 10162 10161 10158 ] final  -24.11 input  -65.29 | X-H torsion
[ 10718 10713 10712 10709 ] final  -27.55 input   66.30 | X-H torsion
[ 10763 10752 10751 10750 ] final  -55.92 input  -60.55 | X-H torsion
[ 11005 11000 10999 10996 ] final  -93.86 input  -57.11 | X-H torsion

> <Gold.Protein.ActiveResidues>
 VAL166  LYS551  ARG553  GLY616  TRP617  ASP618  TYR619  PRO620  LYS621  CYS622 
 ASP623  PHE694  ASN695  SER759  ASP760  ASP761  ALA762  ILE779  LEU786  VAL792 
 PHE793  MET794  SER795  GLU796  ALA797  LYS798  CYS799  TRP800  GLU811  SER814 

> <Gold.Protein.RotatedAtoms>
  152.4105  134.6132  160.0030 H   0  0  0  0  0  0  0  0  0  0  0  0  # atno 6907 bound_to 6896
  151.6310  133.3326  159.3117 H   0  0  0  0  0  0  0  0  0  0  0  0  # atno 6908 bound_to 6896
  150.7997  134.7122  159.6655 H   0  0  0  0  0  0  0  0  0  0  0  0  # atno 6909 bound_to 6896
  146.1482  139.6518  142.9117 H   0  0  0  0  0  0  0  0  0  0  0  0  # atno 7974 bound_to 7965
  156.3004  140.2458  156.3663 H   0  0  0  0  0  0  0  0  0  0  0  0  # atno 8008 bound_to 7997
  154.8830  140.0412  157.1813 H   0  0  0  0  0  0  0  0  0  0  0  0  # atno 8009 bound_to 7997
  154.8676  140.2930  155.5504 H   0  0  0  0  0  0  0  0  0  0  0  0  # atno 8010 bound_to 7997
  140.7288  143.4382  151.0697 H   0  0  0  0  0  0  0  0  0  0  0  0  # atno 10167 bound_to 10162
  156.4366  130.4456  149.7081 H   0  0  0  0  0  0  0  0  0  0  0  0  # atno 10718 bound_to 10713
  154.1985  135.6415  153.5080 H   0  0  0  0  0  0  0  0  0  0  0  0  # atno 10763 bound_to 10752
  153.0018  135.5445  154.6341 H   0  0  0  0  0  0  0  0  0  0  0  0  # atno 10764 bound_to 10752
  154.5748  135.2920  155.0765 H   0  0  0  0  0  0  0  0  0  0  0  0  # atno 10765 bound_to 10752
  141.1486  133.7916  157.0218 H   0  0  0  0  0  0  0  0  0  0  0  0  # atno 11005 bound_to 11000
  145.4886  141.0438  143.2605 LP  0  0  0  0  0  0  0  0  0  0  0  0  # atno 17320 bound_to 7965
  144.7872  139.6403  143.7129 LP  0  0  0  0  0  0  0  0  0  0  0  0  # atno 17321 bound_to 7965
  139.8046  143.8035  152.3166 LP  0  0  0  0  0  0  0  0  0  0  0  0  # atno 17342 bound_to 10162
  139.8064  144.7353  150.9756 LP  0  0  0  0  0  0  0  0  0  0  0  0  # atno 17343 bound_to 10162
  156.3962  130.7652  151.2656 LP  0  0  0  0  0  0  0  0  0  0  0  0  # atno 17370 bound_to 10713
  157.7507  131.0253  150.3914 LP  0  0  0  0  0  0  0  0  0  0  0  0  # atno 17371 bound_to 10713
  140.0811  134.9647  157.1625 LP  0  0  0  0  0  0  0  0  0  0  0  0  # atno 17394 bound_to 11000
  140.3576  134.2530  155.7191 LP  0  0  0  0  0  0  0  0  0  0  0  0  # atno 17395 bound_to 11000

$$$$
