AV-unprocessed.smi:2532|AV-procd|sdf|9968|dock4
  -GOLD-   2272014 13D 1   1.00000     0.00000
 Structure written by MMmdl.
 36 38  0  0  0  0  0  0  0  0  1 V2000
  150.7026  140.0463  154.9593 O   0  0  0  0  0  0  0  0  0  0  0  0
  149.7678  141.0398  155.3339 C   0  0  2  0  0  0  0  0  0  0  0  0
  148.9064  141.3864  154.1091 C   0  0  0  0  0  0  0  0  0  0  0  0
  147.7775  142.1343  154.5292 O   0  0  0  0  0  0  0  0  0  0  0  0
  146.6261  141.8764  153.7417 C   0  0  0  0  0  0  0  0  0  0  0  0
  145.7527  143.0889  153.7986 C   0  0  0  0  0  0  0  0  0  0  0  0
  145.5892  144.0344  152.8182 C   0  0  0  0  0  0  0  0  0  0  0  0
  144.6667  145.0619  153.1738 C   0  0  0  0  0  0  0  0  0  0  0  0
  144.1291  144.8845  154.4206 C   0  0  0  0  0  0  0  0  0  0  0  0
  144.7462  143.4451  155.1840 S   0  0  0  0  0  0  0  0  0  0  0  0
  150.5294  142.2704  155.8637 C   0  0  0  0  0  0  0  0  0  0  0  0
  151.0261  142.0824  157.2157 N   0  0  0  0  0  0  0  0  0  0  0  0
  151.2754  140.9099  157.8300 C   0  0  0  0  0  0  0  0  0  0  0  0
  151.7252  140.9603  159.0805 N   0  0  0  0  0  0  0  0  0  0  0  0
  151.7730  142.3255  159.3055 C   0  0  0  0  0  0  0  0  0  0  0  0
  152.1680  143.0531  160.4511 C   0  0  0  0  0  0  0  0  0  0  0  0
  152.1345  144.4633  160.4486 C   0  0  0  0  0  0  0  0  0  0  0  0
  151.7079  145.1664  159.3031 C   0  0  0  0  0  0  0  0  0  0  0  0
  151.3093  144.4635  158.1500 C   0  0  0  0  0  0  0  0  0  0  0  0
  151.3424  143.0565  158.1571 C   0  0  0  0  0  0  0  0  0  0  0  0
  150.2280  139.2700  154.7036 H   0  0  0  0  0  0  0  0  0  0  0  0
  149.1325  140.6467  156.1290 H   0  0  0  0  0  0  0  0  0  0  0  0
  149.4833  142.0033  153.4180 H   0  0  0  0  0  0  0  0  0  0  0  0
  148.6106  140.4862  153.5671 H   0  0  0  0  0  0  0  0  0  0  0  0
  146.9105  141.6630  152.7102 H   0  0  0  0  0  0  0  0  0  0  0  0
  146.0863  141.0104  154.1274 H   0  0  0  0  0  0  0  0  0  0  0  0
  146.0976  144.0249  151.8653 H   0  0  0  0  0  0  0  0  0  0  0  0
  144.4318  145.8819  152.5111 H   0  0  0  0  0  0  0  0  0  0  0  0
  143.4096  145.5057  154.9336 H   0  0  0  0  0  0  0  0  0  0  0  0
  151.3702  142.5101  155.2112 H   0  0  0  0  0  0  0  0  0  0  0  0
  149.8774  143.1449  155.8622 H   0  0  0  0  0  0  0  0  0  0  0  0
  151.1179  139.9654  157.3298 H   0  0  0  0  0  0  0  0  0  0  0  0
  152.4972  142.5250  161.3337 H   0  0  0  0  0  0  0  0  0  0  0  0
  152.4387  145.0085  161.3301 H   0  0  0  0  0  0  0  0  0  0  0  0
  151.6872  146.2465  159.3098 H   0  0  0  0  0  0  0  0  0  0  0  0
  150.9843  144.9992  157.2703 H   0  0  0  0  0  0  0  0  0  0  0  0
  1  2  1  0  0  0  0
  1 21  1  0  0  0  0
  2  3  1  0  0  0  0
  2 11  1  0  0  0  0
  2 22  1  0  0  0  0
  3  4  1  0  0  0  0
  3 23  1  0  0  0  0
  3 24  1  0  0  0  0
  4  5  1  0  0  0  0
  5  6  1  0  0  0  0
  5 25  1  0  0  0  0
  5 26  1  0  0  0  0
  6 10  1  0  0  0  0
  6  7  2  0  0  0  0
  7  8  1  0  0  0  0
  7 27  1  0  0  0  0
  8  9  2  0  0  0  0
  8 28  1  0  0  0  0
  9 10  1  0  0  0  0
  9 29  1  0  0  0  0
 11 12  1  0  0  0  0
 11 30  1  0  0  0  0
 11 31  1  0  0  0  0
 12 20  1  0  0  0  0
 12 13  1  0  0  0  0
 13 14  2  0  0  0  0
 13 32  1  0  0  0  0
 14 15  1  0  0  0  0
 15 20  2  0  0  0  0
 15 16  1  0  0  0  0
 16 17  2  0  0  0  0
 16 33  1  0  0  0  0
 17 18  1  0  0  0  0
 17 34  1  0  0  0  0
 18 19  2  0  0  0  0
 18 35  1  0  0  0  0
 19 20  1  0  0  0  0
 19 36  1  0  0  0  0
M  END
> <s_m_source_file>
AV-unprocessed.smi

> <i_m_source_file_index>
2532

> <i_lp_mmshare_version>
43012

> <i_f3d_flags>
0

> <s_epik_input>
W2NIXTFbY0hdW2NIXVtjSF1jKGMxMiluKFtjSF1uMilbQ0gyXVtDQEhdKFtPSF0pW0NIMl1PW0NIMl1jM1tjSF1bY0hdW2NIXXMz

> <s_epik_cmdline>
J2VwaWtfcHl0aG9uJywgJy1waCcsICc3LjAnLCAnLXRuJywgJzgnLCAnLW1hJywgJzIwMCcsICctbWV0YWxfYmluZGluZycsICctaW1hZScsICc8aW5maWxlLm1hZT4nLCAnLW9tYWUnLCAnPG91dGZpbGUubWFlPic=

> <r_epik_Ionization_Penalty>
0.0678455

> <r_epik_Ionization_Penalty_Charging>
0

> <r_epik_Ionization_Penalty_Neutral>
0.0678455

> <r_epik_State_Penalty>
0.0593261

> <r_epik_Charging_Adjusted_Penalty>
0.0593261

> <i_epik_Tot_Q>
0

> <i_epik_Tot_abs_Q>
0

> <r_epik_Metal_State_Penalty>
6.23947e-05

> <b_epik_Metal_Only>
0

> <s_lp_Force_Field>
OPLS_2005

> <r_lp_Energy>
9.71279

> <b_lp_Chiralities_Consistent>
1

> <s_lp_Variant>
AV-unprocessed.smi:2532-1

> <Gold.Version>
5.8.1

> <Gold.Id.Protein>
6NUR|6NUR_protein|mol2

> <Gold.PLP.Fitness>
50.6090

> <Gold.PLP.PLP>
-49.6399

> <Gold.PLP.part.hbond>
-1.0000

> <Gold.PLP.part.metal>
0.0000

> <Gold.PLP.part.buried>
-5.0166

> <Gold.PLP.part.nonpolar>
-43.7517

> <Gold.PLP.part.repulsive>
1.2386

> <Gold.PLP.ligand.clash>
0.0000

> <Gold.PLP.ligand.torsion>
1.1538

> <Gold.PLP.Chemscore.Hbond>
1.0000

> <Gold.PLP.Chemscore.CHOScore>
0.0000

> <Gold.PLP.Chemscore.Metal>
0.0000

> <Gold.Chemscore.Hbonds>
donor molecule, donor type, donor heavy atom, donor atom, acceptor molecule, acceptor atom, score
      P1  H  7989  7998       L1     1  1.00

> <Gold.PLP.Chemscore.Internal.Correction>
0.2766

> <Gold.Rescore>
     Score         DG    S(hbond)    S(metal)    S(lipo)     H(rot)  DE(clash)    DE(int)     intcor
     14.10     -16.42       0.46        0.00     131.96       2.36       1.20       1.12       ----

> <Gold.Chemscore.Fitness>
14.0988

> <Gold.Chemscore.DG>
-16.4248

> <Gold.Chemscore.ZeroCoef>
-5.4800

> <Gold.Chemscore.Hbond>
0.4646

> <Gold.Chemscore.Metal>
0.0000

> <Gold.Chemscore.Lipo>
131.9629

> <Gold.Chemscore.Internal_Hbond>
0.0000

> <Gold.Chemscore.DEClash>
1.2024

> <Gold.Chemscore.DEInternal>
1.1236

> <Gold.Chemscore.Rot>
2.3620

> <Gold.Chemscore.Internal.Correction>
   9.000000E+99

> <Gold.Chemscore.Hbonds>
donor molecule, donor type, donor heavy atom, donor atom, acceptor molecule, acceptor atom, score
      P1  H  7989  7998       L1     1  0.34

> <Gold.Chemscore.Hbond.Weighted>
-1.5519

> <Gold.Chemscore.Metal.Weighted>
-0.0000

> <Gold.Chemscore.Lipo.Weighted>
-15.4397

> <Gold.Chemscore.Internal_Hbond.Weighted>
0.0000

> <Gold.Chemscore.DEClash.Weighted>
1.2024

> <Gold.Chemscore.DEInternal.Weighted>
1.1236

> <Gold.Chemscore.Rot.Weighted>
6.0468

> <Gold.Chemscore.Internal.Correction.Weighted>
   9.000000E+99

> <Gold.Protein.RotatedTorsions>
[ 6907 6896 6895 6894 ] final  -32.24 input  -60.11 | X-H torsion
[ 7974 7965 7964 7962 ] final  151.73 input  175.53 | X-H torsion
[ 8008 7997 7996 7995 ] final  -35.34 input   59.86 | X-H torsion
[ 10167 10162 10161 10158 ] final -155.83 input  -65.29 | X-H torsion
[ 10718 10713 10712 10709 ] final   20.25 input   66.30 | X-H torsion
[ 10763 10752 10751 10750 ] final   -6.96 input  -60.55 | X-H torsion
[ 11005 11000 10999 10996 ] final  -81.80 input  -57.11 | X-H torsion

> <Gold.Protein.ActiveResidues>
 VAL166  LYS551  ARG553  GLY616  TRP617  ASP618  TYR619  PRO620  LYS621  CYS622 
 ASP623  PHE694  ASN695  SER759  ASP760  ASP761  ALA762  ILE779  LEU786  VAL792 
 PHE793  MET794  SER795  GLU796  ALA797  LYS798  CYS799  TRP800  GLU811  SER814 

> <Gold.Protein.RotatedAtoms>
  151.0814  134.9860  159.8357 H   0  0  0  0  0  0  0  0  0  0  0  0  # atno 6907 bound_to 6896
  152.5420  134.2177  159.8785 H   0  0  0  0  0  0  0  0  0  0  0  0  # atno 6908 bound_to 6896
  151.2207  133.4460  159.2634 H   0  0  0  0  0  0  0  0  0  0  0  0  # atno 6909 bound_to 6896
  144.8271  139.6576  143.6075 H   0  0  0  0  0  0  0  0  0  0  0  0  # atno 7974 bound_to 7965
  154.4098  140.1660  156.2196 H   0  0  0  0  0  0  0  0  0  0  0  0  # atno 8008 bound_to 7997
  155.9374  140.3410  155.6276 H   0  0  0  0  0  0  0  0  0  0  0  0  # atno 8009 bound_to 7997
  155.7031  140.0747  157.2393 H   0  0  0  0  0  0  0  0  0  0  0  0  # atno 8010 bound_to 7997
  139.6900  143.9437  152.2380 H   0  0  0  0  0  0  0  0  0  0  0  0  # atno 10167 bound_to 10162
  157.1219  130.6553  149.5926 H   0  0  0  0  0  0  0  0  0  0  0  0  # atno 10718 bound_to 10713
  153.4197  135.7009  153.6303 H   0  0  0  0  0  0  0  0  0  0  0  0  # atno 10763 bound_to 10752
  153.4762  135.3703  155.2418 H   0  0  0  0  0  0  0  0  0  0  0  0  # atno 10764 bound_to 10752
  154.8721  135.4055  154.3563 H   0  0  0  0  0  0  0  0  0  0  0  0  # atno 10765 bound_to 10752
  141.1665  133.7214  156.8476 H   0  0  0  0  0  0  0  0  0  0  0  0  # atno 11005 bound_to 11000
  146.2576  139.6338  142.9384 LP  0  0  0  0  0  0  0  0  0  0  0  0  # atno 17320 bound_to 7965
  145.4975  141.0438  143.2559 LP  0  0  0  0  0  0  0  0  0  0  0  0  # atno 17321 bound_to 7965
  139.9251  144.6776  150.8421 LP  0  0  0  0  0  0  0  0  0  0  0  0  # atno 17342 bound_to 10162
  140.7679  143.3348  151.2333 LP  0  0  0  0  0  0  0  0  0  0  0  0  # atno 17343 bound_to 10162
  155.9827  130.4841  150.6893 LP  0  0  0  0  0  0  0  0  0  0  0  0  # atno 17370 bound_to 10713
  157.4469  131.0868  151.0886 LP  0  0  0  0  0  0  0  0  0  0  0  0  # atno 17371 bound_to 10713
  140.1938  134.8946  157.3091 LP  0  0  0  0  0  0  0  0  0  0  0  0  # atno 17394 bound_to 11000
  140.2261  134.3965  155.7543 LP  0  0  0  0  0  0  0  0  0  0  0  0  # atno 17395 bound_to 11000

$$$$
