AV-unprocessed.smi:3054|AV-procd|sdf|11639|dock10
  -GOLD-   2272017 33D 1   1.00000     0.00000
 Structure written by MMmdl.
 40 41  0  0  0  0  0  0  0  0  2 V2000
  148.0205  141.7062  154.0142 C   0  0  0  0  0  0  0  0  0  0  0  0
  147.0994  140.4953  154.2308 C   0  0  0  0  0  0  0  0  0  0  0  0
  147.3985  139.2805  153.3102 C   0  0  2  0  0  0  0  0  0  0  0  0
  146.1493  138.3908  153.0846 C   0  0  0  0  0  0  0  0  0  0  0  0
  146.4778  137.1569  152.3776 N   0  0  0  0  0  0  0  0  0  0  0  0
  145.5890  136.2282  152.0000 C   0  0  0  0  0  0  0  0  0  0  0  0
  144.3808  136.3143  152.2182 O   0  0  0  0  0  0  0  0  0  0  0  0
  146.1889  135.2108  151.3613 N   0  0  0  0  0  0  0  0  0  0  0  0
  145.5725  134.0545  150.8214 C   0  0  0  0  0  0  0  0  0  0  0  0
  144.2155  133.8527  150.4322 C   0  0  0  0  0  0  0  0  0  0  0  0
  144.0269  132.6248  149.9699 N   0  0  0  0  0  0  0  0  0  0  0  0
  145.2441  132.0434  150.0597 N   0  0  0  0  0  0  0  0  0  0  0  0
  146.2129  132.8774  150.5724 C   0  0  0  0  0  0  0  0  0  0  0  0
  148.5582  138.4887  153.8177 N   0  3  0  0  0  0  0  0  0  0  0  0
  149.8021  139.2497  154.0662 C   0  0  0  0  0  0  0  0  0  0  0  0
  150.6274  138.3652  154.9931 C   0  0  0  0  0  0  0  0  0  0  0  0
  149.5733  137.7372  155.8974 C   0  0  0  0  0  0  0  0  0  0  0  0
  148.2978  137.6928  155.0446 C   0  0  0  0  0  0  0  0  0  0  0  0
  145.3953  131.0875  149.7703 H   0  0  0  0  0  0  0  0  0  0  0  0
  147.7308  142.5292  154.6678 H   0  0  0  0  0  0  0  0  0  0  0  0
  147.9707  142.0696  152.9878 H   0  0  0  0  0  0  0  0  0  0  0  0
  149.0600  141.4662  154.2378 H   0  0  0  0  0  0  0  0  0  0  0  0
  147.1676  140.1907  155.2755 H   0  0  0  0  0  0  0  0  0  0  0  0
  146.0654  140.8167  154.1089 H   0  0  0  0  0  0  0  0  0  0  0  0
  147.6899  139.6767  152.3359 H   0  0  0  0  0  0  0  0  0  0  0  0
  145.7041  138.0961  154.0349 H   0  0  0  0  0  0  0  0  0  0  0  0
  145.3854  138.9558  152.5478 H   0  0  0  0  0  0  0  0  0  0  0  0
  147.4507  136.9999  152.1581 H   0  0  0  0  0  0  0  0  0  0  0  0
  147.1906  135.2676  151.2503 H   0  0  0  0  0  0  0  0  0  0  0  0
  143.3762  134.5311  150.4652 H   0  0  0  0  0  0  0  0  0  0  0  0
  147.2386  132.5682  150.7098 H   0  0  0  0  0  0  0  0  0  0  0  0
  150.3342  139.4781  153.1422 H   0  0  0  0  0  0  0  0  0  0  0  0
  149.5663  140.1898  154.5685 H   0  0  0  0  0  0  0  0  0  0  0  0
  151.1309  137.5892  154.4149 H   0  0  0  0  0  0  0  0  0  0  0  0
  151.3859  138.9202  155.5462 H   0  0  0  0  0  0  0  0  0  0  0  0
  149.8707  136.7523  156.2593 H   0  0  0  0  0  0  0  0  0  0  0  0
  149.4104  138.3744  156.7679 H   0  0  0  0  0  0  0  0  0  0  0  0
  147.4624  138.0963  155.6186 H   0  0  0  0  0  0  0  0  0  0  0  0
  148.0441  136.6707  154.7617 H   0  0  0  0  0  0  0  0  0  0  0  0
  148.7910  137.8183  153.0987 H   0  0  0  0  0  0  0  0  0  0  0  0
  1  2  1  0  0  0  0
  1 20  1  0  0  0  0
  1 21  1  0  0  0  0
  1 22  1  0  0  0  0
  2  3  1  0  0  0  0
  2 23  1  0  0  0  0
  2 24  1  0  0  0  0
  3  4  1  0  0  0  0
  3 14  1  0  0  0  0
  3 25  1  0  0  0  0
  4  5  1  0  0  0  0
  4 26  1  0  0  0  0
  4 27  1  0  0  0  0
  5  6  1  0  0  0  0
  5 28  1  0  0  0  0
  6  7  2  0  0  0  0
  6  8  1  0  0  0  0
  8  9  1  0  0  0  0
  8 29  1  0  0  0  0
  9 13  2  0  0  0  0
  9 10  1  0  0  0  0
 10 11  2  0  0  0  0
 10 30  1  0  0  0  0
 11 12  1  0  0  0  0
 12 19  1  0  0  0  0
 12 13  1  0  0  0  0
 13 31  1  0  0  0  0
 14 18  1  0  0  0  0
 14 15  1  0  0  0  0
 14 40  1  0  0  0  0
 15 16  1  0  0  0  0
 15 32  1  0  0  0  0
 15 33  1  0  0  0  0
 16 17  1  0  0  0  0
 16 34  1  0  0  0  0
 16 35  1  0  0  0  0
 17 18  1  0  0  0  0
 17 36  1  0  0  0  0
 17 37  1  0  0  0  0
 18 38  1  0  0  0  0
 18 39  1  0  0  0  0
M  CHG  1  14   1
M  END
> <s_m_source_file>
AV-unprocessed.smi

> <i_m_source_file_index>
3054

> <i_lp_mmshare_version>
43012

> <i_f3d_flags>
0

> <s_epik_input>
W0NIMl0xW0NIMl1bQ0gyXVtDSDJdTjFbQ0BIXShbQ0gyXVtDSDNdKVtDSDJdW05IXUMoPU8pW05IXWMyW2NIXW5bbkhdW2NIXTI=

> <s_epik_cmdline>
J2VwaWtfcHl0aG9uJywgJy1waCcsICc3LjAnLCAnLXRuJywgJzgnLCAnLW1hJywgJzIwMCcsICctbWV0YWxfYmluZGluZycsICctaW1hZScsICc8aW5maWxlLm1hZT4nLCAnLW9tYWUnLCAnPG91dGZpbGUubWFlPic=

> <r_lp_tautomer_probability>
0.5

> <r_epik_Ionization_Penalty>
0.00108132

> <r_epik_Ionization_Penalty_Charging>
0.00104139

> <r_epik_Ionization_Penalty_Neutral>
3.99244e-05

> <r_epik_State_Penalty>
0.00068071

> <r_epik_Charging_Adjusted_Penalty>
0.0017221

> <i_epik_Tot_Q>
1

> <i_epik_Tot_abs_Q>
1

> <r_epik_Metal_State_Penalty>
-0

> <b_epik_Metal_Only>
0

> <s_lp_Force_Field>
OPLS_2005

> <r_lp_Energy>
36.476

> <b_lp_Chiralities_Consistent>
1

> <s_lp_Variant>
AV-unprocessed.smi:3054-1

> <Gold.Version>
5.8.1

> <Gold.Id.Protein>
6NUR|6NUR_protein|mol2

> <Gold.PLP.Fitness>
43.7756

> <Gold.PLP.PLP>
-26.8251

> <Gold.PLP.part.hbond>
-3.2246

> <Gold.PLP.part.metal>
0.0000

> <Gold.PLP.part.buried>
-4.2628

> <Gold.PLP.part.nonpolar>
-20.7471

> <Gold.PLP.part.repulsive>
0.6454

> <Gold.PLP.ligand.clash>
0.0000

> <Gold.PLP.ligand.torsion>
0.4655

> <Gold.PLP.Chemscore.Hbond>
3.9440

> <Gold.PLP.Chemscore.CHOScore>
1.9881

> <Gold.PLP.Chemscore.Metal>
0.0000

> <Gold.Chemscore.Hbonds>
donor molecule, donor type, donor heavy atom, donor atom, acceptor molecule, acceptor atom, score
      L1  H     5    28       P1  7948  1.00
      L1  H     8    29       P1  7948  0.91
      L1  H    14    40       P1  7948  2.00
      L1  C    10    30       P1 10186  0.99
      L1  C    13    31       P1 10747  1.00

> <Gold.PLP.Chemscore.Internal.Correction>
0.0852

> <Gold.Rescore>
     Score         DG    S(hbond)    S(metal)    S(lipo)     H(rot)  DE(clash)    DE(int)     intcor
     16.45     -17.38       2.72        0.00      63.71       1.81       0.14       0.79       ----

> <Gold.Chemscore.Fitness>
16.4512

> <Gold.Chemscore.DG>
-17.3828

> <Gold.Chemscore.ZeroCoef>
-5.4800

> <Gold.Chemscore.Hbond>
2.7189

> <Gold.Chemscore.Metal>
0.0000

> <Gold.Chemscore.Lipo>
63.7090

> <Gold.Chemscore.Internal_Hbond>
0.0000

> <Gold.Chemscore.DEClash>
0.1431

> <Gold.Chemscore.DEInternal>
0.7885

> <Gold.Chemscore.Rot>
1.8094

> <Gold.Chemscore.Internal.Correction>
   9.000000E+99

> <Gold.Chemscore.Hbonds>
donor molecule, donor type, donor heavy atom, donor atom, acceptor molecule, acceptor atom, score
      L1  H     5    28       P1  7948  1.00
      L1  H     8    29       P1  7948  0.66
      L1  H    14    40       P1  7948  0.96

> <Gold.Chemscore.Hbond.Weighted>
-9.0810

> <Gold.Chemscore.Metal.Weighted>
-0.0000

> <Gold.Chemscore.Lipo.Weighted>
-7.4540

> <Gold.Chemscore.Internal_Hbond.Weighted>
0.0000

> <Gold.Chemscore.DEClash.Weighted>
0.1431

> <Gold.Chemscore.DEInternal.Weighted>
0.7885

> <Gold.Chemscore.Rot.Weighted>
4.6322

> <Gold.Chemscore.Internal.Correction.Weighted>
   9.000000E+99

> <Gold.Protein.RotatedTorsions>
[ 6907 6896 6895 6894 ] final  -50.94 input  -60.11 | X-H torsion
[ 7974 7965 7964 7962 ] final  -93.31 input  175.53 | X-H torsion
[ 8008 7997 7996 7995 ] final   -1.72 input   59.86 | X-H torsion
[ 10167 10162 10161 10158 ] final  -22.42 input  -65.29 | X-H torsion
[ 10718 10713 10712 10709 ] final  -53.49 input   66.30 | X-H torsion
[ 10763 10752 10751 10750 ] final   86.54 input  -60.55 | X-H torsion
[ 11005 11000 10999 10996 ] final  -41.62 input  -57.11 | X-H torsion

> <Gold.Protein.ActiveResidues>
 VAL166  LYS551  ARG553  GLY616  TRP617  ASP618  TYR619  PRO620  LYS621  CYS622 
 ASP623  PHE694  ASN695  SER759  ASP760  ASP761  ALA762  ILE779  LEU786  VAL792 
 PHE793  MET794  SER795  GLU796  ALA797  LYS798  CYS799  TRP800  GLU811  SER814 

> <Gold.Protein.RotatedAtoms>
  150.8658  134.8021  159.7117 H   0  0  0  0  0  0  0  0  0  0  0  0  # atno 6907 bound_to 6896
  152.4680  134.5026  159.9739 H   0  0  0  0  0  0  0  0  0  0  0  0  # atno 6908 bound_to 6896
  151.5122  133.3444  159.2922 H   0  0  0  0  0  0  0  0  0  0  0  0  # atno 6909 bound_to 6896
  145.3883  140.9525  143.2355 H   0  0  0  0  0  0  0  0  0  0  0  0  # atno 7974 bound_to 7965
  154.6437  140.2552  155.7293 H   0  0  0  0  0  0  0  0  0  0  0  0  # atno 8008 bound_to 7997
  156.2541  140.2882  156.0761 H   0  0  0  0  0  0  0  0  0  0  0  0  # atno 8009 bound_to 7997
  155.1558  140.0383  157.2821 H   0  0  0  0  0  0  0  0  0  0  0  0  # atno 8010 bound_to 7997
  140.7286  143.4536  151.0480 H   0  0  0  0  0  0  0  0  0  0  0  0  # atno 10167 bound_to 10162
  156.1531  130.4151  149.9913 H   0  0  0  0  0  0  0  0  0  0  0  0  # atno 10718 bound_to 10713
  153.1580  135.4576  154.9732 H   0  0  0  0  0  0  0  0  0  0  0  0  # atno 10763 bound_to 10752
  154.7876  135.3209  154.7853 H   0  0  0  0  0  0  0  0  0  0  0  0  # atno 10764 bound_to 10752
  153.8347  135.6935  153.4864 H   0  0  0  0  0  0  0  0  0  0  0  0  # atno 10765 bound_to 10752
  141.0259  133.6841  156.2483 H   0  0  0  0  0  0  0  0  0  0  0  0  # atno 11005 bound_to 11000
  144.8458  139.5399  143.6879 LP  0  0  0  0  0  0  0  0  0  0  0  0  # atno 17320 bound_to 7965
  146.2810  139.6876  142.9229 LP  0  0  0  0  0  0  0  0  0  0  0  0  # atno 17321 bound_to 7965
  139.8215  143.7814  152.3177 LP  0  0  0  0  0  0  0  0  0  0  0  0  # atno 17342 bound_to 10162
  139.7898  144.7414  150.9971 LP  0  0  0  0  0  0  0  0  0  0  0  0  # atno 17343 bound_to 10162
  156.7765  130.9205  151.3645 LP  0  0  0  0  0  0  0  0  0  0  0  0  # atno 17370 bound_to 10713
  157.6673  130.9019  149.9960 LP  0  0  0  0  0  0  0  0  0  0  0  0  # atno 17371 bound_to 10713
  140.6492  134.5085  157.5576 LP  0  0  0  0  0  0  0  0  0  0  0  0  # atno 17394 bound_to 11000
  139.9175  134.8215  156.1317 LP  0  0  0  0  0  0  0  0  0  0  0  0  # atno 17395 bound_to 11000

$$$$
