AV-unprocessed.smi:1381|AV-procd|sdf|5606|dock9
  -GOLD-   22720 5213D 1   1.00000     0.00000
 Structure written by MMmdl.
 43 44  0  0  0  0  0  0  0  0  2 V2000
  153.7416  137.8383  157.1752 C   0  0  0  0  0  0  0  0  0  0  0  0
  152.7208  138.2522  156.1716 C   0  0  0  0  0  0  0  0  0  0  0  0
  151.7283  137.5753  155.5201 C   0  0  0  0  0  0  0  0  0  0  0  0
  151.1355  138.5796  154.7095 C   0  0  0  0  0  0  0  0  0  0  0  0
  150.0406  138.2775  153.8600 N   0  0  0  0  0  0  0  0  0  0  0  0
  148.8483  138.8956  153.8119 C   0  0  0  0  0  0  0  0  0  0  0  0
  148.5100  139.8445  154.5202 O   0  0  0  0  0  0  0  0  0  0  0  0
  148.0491  138.3464  152.8857 N   0  0  0  0  0  0  0  0  0  0  0  0
  146.6941  138.7958  152.5878 C   0  0  0  0  0  0  0  0  0  0  0  0
  146.0388  137.9302  151.4946 C   0  0  0  0  0  0  0  0  0  0  0  0
  146.1853  136.4784  151.7636 N   0  3  1  0  0  0  0  0  0  0  0  0
  145.6819  136.0979  153.1047 C   0  0  0  0  0  0  0  0  0  0  0  0
  145.9060  134.5978  153.3801 C   0  0  2  0  0  0  0  0  0  0  0  0
  147.3741  134.2383  153.6698 C   0  0  0  0  0  0  0  0  0  0  0  0
  145.3553  133.8142  152.3214 O   0  0  0  0  0  0  0  0  0  0  0  0
  145.8439  134.1347  151.0214 C   0  0  1  0  0  0  0  0  0  0  0  0
  145.1510  133.2082  150.0159 C   0  0  0  0  0  0  0  0  0  0  0  0
  145.5702  135.6197  150.7228 C   0  0  0  0  0  0  0  0  0  0  0  0
  151.7142  139.7620  154.8520 N   0  0  0  0  0  0  0  0  0  0  0  0
  152.7339  139.5579  155.7892 O   0  0  0  0  0  0  0  0  0  0  0  0
  153.5202  136.8463  157.5692 H   0  0  0  0  0  0  0  0  0  0  0  0
  153.7666  138.5358  158.0125 H   0  0  0  0  0  0  0  0  0  0  0  0
  154.7347  137.8113  156.7269 H   0  0  0  0  0  0  0  0  0  0  0  0
  151.4707  136.5306  155.6123 H   0  0  0  0  0  0  0  0  0  0  0  0
  150.1821  137.5092  153.2211 H   0  0  0  0  0  0  0  0  0  0  0  0
  148.4047  137.5711  152.3455 H   0  0  0  0  0  0  0  0  0  0  0  0
  146.1075  138.7923  153.5071 H   0  0  0  0  0  0  0  0  0  0  0  0
  146.7460  139.8336  152.2574 H   0  0  0  0  0  0  0  0  0  0  0  0
  144.9781  138.1826  151.4560 H   0  0  0  0  0  0  0  0  0  0  0  0
  146.4453  138.1615  150.5087 H   0  0  0  0  0  0  0  0  0  0  0  0
  146.1732  136.6934  153.8753 H   0  0  0  0  0  0  0  0  0  0  0  0
  144.6163  136.3262  153.1613 H   0  0  0  0  0  0  0  0  0  0  0  0
  145.3379  134.3374  154.2736 H   0  0  0  0  0  0  0  0  0  0  0  0
  147.7280  134.7517  154.5641 H   0  0  0  0  0  0  0  0  0  0  0  0
  148.0390  134.5174  152.8529 H   0  0  0  0  0  0  0  0  0  0  0  0
  147.4851  133.1673  153.8410 H   0  0  0  0  0  0  0  0  0  0  0  0
  146.9159  133.9430  150.9723 H   0  0  0  0  0  0  0  0  0  0  0  0
  145.4926  133.4052  148.9995 H   0  0  0  0  0  0  0  0  0  0  0  0
  144.0689  133.3400  150.0368 H   0  0  0  0  0  0  0  0  0  0  0  0
  145.3629  132.1626  150.2399 H   0  0  0  0  0  0  0  0  0  0  0  0
  144.4954  135.8059  150.6852 H   0  0  0  0  0  0  0  0  0  0  0  0
  145.9696  135.8674  149.7400 H   0  0  0  0  0  0  0  0  0  0  0  0
  147.1761  136.2825  151.7657 H   0  0  0  0  0  0  0  0  0  0  0  0
  1  2  1  0  0  0  0
  1 21  1  0  0  0  0
  1 22  1  0  0  0  0
  1 23  1  0  0  0  0
  2 20  1  0  0  0  0
  2  3  2  0  0  0  0
  3  4  1  0  0  0  0
  3 24  1  0  0  0  0
  4  5  1  0  0  0  0
  4 19  2  0  0  0  0
  5  6  1  0  0  0  0
  5 25  1  0  0  0  0
  6  7  2  0  0  0  0
  6  8  1  0  0  0  0
  8  9  1  0  0  0  0
  8 26  1  0  0  0  0
  9 10  1  0  0  0  0
  9 27  1  0  0  0  0
  9 28  1  0  0  0  0
 10 11  1  0  0  0  0
 10 29  1  0  0  0  0
 10 30  1  0  0  0  0
 11 18  1  0  0  0  0
 11 12  1  0  0  0  0
 11 43  1  0  0  0  0
 12 13  1  0  0  0  0
 12 31  1  0  0  0  0
 12 32  1  0  0  0  0
 13 14  1  0  0  0  0
 13 15  1  0  0  0  0
 13 33  1  0  0  0  0
 14 34  1  0  0  0  0
 14 35  1  0  0  0  0
 14 36  1  0  0  0  0
 15 16  1  0  0  0  0
 16 17  1  0  0  0  0
 16 18  1  0  0  0  0
 16 37  1  0  0  0  0
 17 38  1  0  0  0  0
 17 39  1  0  0  0  0
 17 40  1  0  0  0  0
 18 41  1  0  0  0  0
 18 42  1  0  0  0  0
 19 20  1  0  0  0  0
M  CHG  1  11   1
M  END
> <s_m_source_file>
AV-unprocessed.smi

> <i_m_source_file_index>
1381

> <i_lp_mmshare_version>
43012

> <i_f3d_flags>
0

> <s_epik_input>
W0NIM11jMVtjSF1jKG5vMSlbTkhdQyg9TylbTkhdW0NIMl1bQ0gyXU4yW0NIMl1bQ0BASF0oW0NIM10pT1tDQEBIXShbQ0gzXSlbQ0gyXTI=

> <s_epik_cmdline>
J2VwaWtfcHl0aG9uJywgJy1waCcsICc3LjAnLCAnLXRuJywgJzgnLCAnLW1hJywgJzIwMCcsICctbWV0YWxfYmluZGluZycsICctaW1hZScsICc8aW5maWxlLm1hZT4nLCAnLW9tYWUnLCAnPG91dGZpbGUubWFlPic=

> <r_epik_Ionization_Penalty>
0.707076

> <r_epik_Ionization_Penalty_Charging>
0.707039

> <r_epik_Ionization_Penalty_Neutral>
3.6548e-05

> <r_epik_State_Penalty>
0.730276

> <r_epik_Charging_Adjusted_Penalty>
1.43732

> <i_epik_Tot_Q>
1

> <i_epik_Tot_abs_Q>
1

> <r_epik_Metal_State_Penalty>
0.743132

> <b_epik_Metal_Only>
0

> <s_lp_Force_Field>
OPLS_2005

> <r_lp_Energy>
14.5355

> <b_lp_Chiralities_Consistent>
1

> <s_lp_Variant>
AV-unprocessed.smi:1381-5

> <Gold.Version>
5.8.1

> <Gold.Id.Protein>
6NUR|6NUR_protein|mol2

> <Gold.PLP.Fitness>
45.9245

> <Gold.PLP.PLP>
-30.0998

> <Gold.PLP.part.hbond>
-6.4108

> <Gold.PLP.part.metal>
0.0000

> <Gold.PLP.part.buried>
-0.3257

> <Gold.PLP.part.nonpolar>
-24.6118

> <Gold.PLP.part.repulsive>
0.4135

> <Gold.PLP.ligand.clash>
0.0000

> <Gold.PLP.ligand.torsion>
0.5280

> <Gold.PLP.Chemscore.Hbond>
5.6201

> <Gold.PLP.Chemscore.CHOScore>
0.0000

> <Gold.PLP.Chemscore.Metal>
0.0000

> <Gold.Chemscore.Hbonds>
donor molecule, donor type, donor heavy atom, donor atom, acceptor molecule, acceptor atom, score
      L1  H     5    25       P1  7948  0.41
      L1  H     8    26       P1  7948  0.93
      L1  H    11    43       P1  7948  2.00
      P1  H  7989  7998       L1    19  1.00
      P1  H  7997  8008       L1    20  1.00

> <Gold.PLP.Chemscore.Internal.Correction>
0.0205

> <Gold.Rescore>
     Score         DG    S(hbond)    S(metal)    S(lipo)     H(rot)  DE(clash)    DE(int)     intcor
     20.53     -22.04       4.13        0.00      58.73       1.61       0.96       0.56       ----

> <Gold.Chemscore.Fitness>
20.5268

> <Gold.Chemscore.DG>
-22.0404

> <Gold.Chemscore.ZeroCoef>
-5.4800

> <Gold.Chemscore.Hbond>
4.1334

> <Gold.Chemscore.Metal>
0.0000

> <Gold.Chemscore.Lipo>
58.7307

> <Gold.Chemscore.Internal_Hbond>
0.0000

> <Gold.Chemscore.DEClash>
0.9571

> <Gold.Chemscore.DEInternal>
0.5566

> <Gold.Chemscore.Rot>
1.6081

> <Gold.Chemscore.Internal.Correction>
   9.000000E+99

> <Gold.Chemscore.Hbonds>
donor molecule, donor type, donor heavy atom, donor atom, acceptor molecule, acceptor atom, score
      L1  H     5    25       P1  7948  0.07
      L1  H     8    26       P1  7948  0.89
      L1  H    11    43       P1  7948  1.00
      P1  H  7989  7998       L1    19  0.93
      P1  H  7997  8008       L1    20  0.65

> <Gold.Chemscore.Hbond.Weighted>
-13.8056

> <Gold.Chemscore.Metal.Weighted>
-0.0000

> <Gold.Chemscore.Lipo.Weighted>
-6.8715

> <Gold.Chemscore.Internal_Hbond.Weighted>
0.0000

> <Gold.Chemscore.DEClash.Weighted>
0.9571

> <Gold.Chemscore.DEInternal.Weighted>
0.5566

> <Gold.Chemscore.Rot.Weighted>
4.1167

> <Gold.Chemscore.Internal.Correction.Weighted>
   9.000000E+99

> <Gold.Protein.RotatedTorsions>
[ 6907 6896 6895 6894 ] final  174.38 input  -60.11 | X-H torsion
[ 7974 7965 7964 7962 ] final -160.69 input  175.53 | X-H torsion
[ 8008 7997 7996 7995 ] final  -24.11 input   59.86 | X-H torsion
[ 10167 10162 10161 10158 ] final  113.38 input  -65.29 | X-H torsion
[ 10718 10713 10712 10709 ] final   82.95 input   66.30 | X-H torsion
[ 10763 10752 10751 10750 ] final   41.18 input  -60.55 | X-H torsion
[ 11005 11000 10999 10996 ] final   58.57 input  -57.11 | X-H torsion

> <Gold.Protein.ActiveResidues>
 VAL166  LYS551  ARG553  GLY616  TRP617  ASP618  TYR619  PRO620  LYS621  CYS622 
 ASP623  PHE694  ASN695  SER759  ASP760  ASP761  ALA762  ILE779  LEU786  VAL792 
 PHE793  MET794  SER795  GLU796  ALA797  LYS798  CYS799  TRP800  GLU811  SER814 

> <Gold.Protein.RotatedAtoms>
  151.7532  133.3328  159.3396 H   0  0  0  0  0  0  0  0  0  0  0  0  # atno 6907 bound_to 6896
  150.7527  134.6173  159.6127 H   0  0  0  0  0  0  0  0  0  0  0  0  # atno 6908 bound_to 6896
  152.3455  134.7079  160.0303 H   0  0  0  0  0  0  0  0  0  0  0  0  # atno 6909 bound_to 6896
  144.7418  140.3506  143.6116 H   0  0  0  0  0  0  0  0  0  0  0  0  # atno 7974 bound_to 7965
  154.4547  140.1962  156.0415 H   0  0  0  0  0  0  0  0  0  0  0  0  # atno 8008 bound_to 7997
  156.0721  140.3283  155.7561 H   0  0  0  0  0  0  0  0  0  0  0  0  # atno 8009 bound_to 7997
  155.5246  140.0573  157.2891 H   0  0  0  0  0  0  0  0  0  0  0  0  # atno 8010 bound_to 7997
  139.6465  144.7127  151.2132 H   0  0  0  0  0  0  0  0  0  0  0  0  # atno 10167 bound_to 10162
  157.6868  131.0070  150.2451 H   0  0  0  0  0  0  0  0  0  0  0  0  # atno 10718 bound_to 10713
  152.9915  135.6169  154.2746 H   0  0  0  0  0  0  0  0  0  0  0  0  # atno 10763 bound_to 10752
  154.2478  135.2786  155.2830 H   0  0  0  0  0  0  0  0  0  0  0  0  # atno 10764 bound_to 10752
  154.5314  135.5787  153.6820 H   0  0  0  0  0  0  0  0  0  0  0  0  # atno 10765 bound_to 10752
  140.0368  134.5931  155.9434 H   0  0  0  0  0  0  0  0  0  0  0  0  # atno 11005 bound_to 11000
  145.7280  139.1728  143.2446 LP  0  0  0  0  0  0  0  0  0  0  0  0  # atno 17320 bound_to 7965
  146.1227  140.7288  142.9450 LP  0  0  0  0  0  0  0  0  0  0  0  0  # atno 17321 bound_to 7965
  140.7517  143.6222  150.8503 LP  0  0  0  0  0  0  0  0  0  0  0  0  # atno 17342 bound_to 10162
  139.9865  143.5894  152.2925 LP  0  0  0  0  0  0  0  0  0  0  0  0  # atno 17343 bound_to 10162
  156.3058  130.3765  149.7708 LP  0  0  0  0  0  0  0  0  0  0  0  0  # atno 17370 bound_to 10713
  156.5323  130.8263  151.3241 LP  0  0  0  0  0  0  0  0  0  0  0  0  # atno 17371 bound_to 10713
  141.1862  133.6556  156.5228 LP  0  0  0  0  0  0  0  0  0  0  0  0  # atno 17394 bound_to 11000
  140.4134  134.7252  157.4849 LP  0  0  0  0  0  0  0  0  0  0  0  0  # atno 17395 bound_to 11000

$$$$
