AV-unprocessed.smi:1895|AV-procd|sdf|7680|dock1
  -GOLD-   22720 9423D 1   1.00000     0.00000
 Structure written by MMmdl.
 36 37  0  0  0  0  0  0  0  0  1 V2000
  154.4123  141.4295  161.1021 C   0  0  0  0  0  0  0  0  0  0  0  0
  153.4785  142.4485  160.5191 C   0  0  0  0  0  0  0  0  0  0  0  0
  152.9710  143.6299  161.1284 C   0  0  0  0  0  0  0  0  0  0  0  0
  152.1670  144.1843  160.1728 C   0  0  0  0  0  0  0  0  0  0  0  0
  151.3431  145.4294  160.2123 C   0  0  0  0  0  0  0  0  0  0  0  0
  152.2209  143.3501  159.0696 N   0  0  0  0  0  0  0  0  0  0  0  0
  151.5307  143.4681  157.7929 C   0  0  0  0  0  0  0  0  0  0  0  0
  150.6659  142.2356  157.5241 C   0  0  0  0  0  0  0  0  0  0  0  0
  150.5679  141.3526  158.3759 O   0  0  0  0  0  0  0  0  0  0  0  0
  150.0691  142.1775  156.3239 N   0  0  0  0  0  0  0  0  0  0  0  0
  149.3419  141.0270  155.8035 C   0  0  0  0  0  0  0  0  0  0  0  0
  150.2795  140.0609  155.0579 C   0  0  2  0  0  0  0  0  0  0  0  0
  149.6901  138.6747  154.7888 C   0  0  0  0  0  0  0  0  0  0  0  0
  150.9123  137.7717  154.7170 C   0  0  0  0  0  0  0  0  0  0  0  0
  152.0566  138.6420  155.2452 C   0  0  0  0  0  0  0  0  0  0  0  0
  151.4222  139.7638  155.8424 O   0  0  0  0  0  0  0  0  0  0  0  0
  153.0265  142.2871  159.2866 N   0  0  0  0  0  0  0  0  0  0  0  0
  154.7852  141.7484  162.0755 H   0  0  0  0  0  0  0  0  0  0  0  0
  155.2740  141.2680  160.4541 H   0  0  0  0  0  0  0  0  0  0  0  0
  153.9103  140.4711  161.2376 H   0  0  0  0  0  0  0  0  0  0  0  0
  153.1646  144.0106  162.1203 H   0  0  0  0  0  0  0  0  0  0  0  0
  151.5042  145.9733  161.1431 H   0  0  0  0  0  0  0  0  0  0  0  0
  150.2809  145.1946  160.1421 H   0  0  0  0  0  0  0  0  0  0  0  0
  151.6001  146.0944  159.3879 H   0  0  0  0  0  0  0  0  0  0  0  0
  150.9146  144.3679  157.8042 H   0  0  0  0  0  0  0  0  0  0  0  0
  152.2597  143.5896  156.9902 H   0  0  0  0  0  0  0  0  0  0  0  0
  150.2024  142.9554  155.6935 H   0  0  0  0  0  0  0  0  0  0  0  0
  148.8232  140.5086  156.6112 H   0  0  0  0  0  0  0  0  0  0  0  0
  148.5713  141.3948  155.1254 H   0  0  0  0  0  0  0  0  0  0  0  0
  150.6122  140.5071  154.1186 H   0  0  0  0  0  0  0  0  0  0  0  0
  149.0563  138.3644  155.6207 H   0  0  0  0  0  0  0  0  0  0  0  0
  149.0873  138.6467  153.8801 H   0  0  0  0  0  0  0  0  0  0  0  0
  150.7699  136.8835  155.3336 H   0  0  0  0  0  0  0  0  0  0  0  0
  151.1139  137.4436  153.6969 H   0  0  0  0  0  0  0  0  0  0  0  0
  152.6875  138.1167  155.9624 H   0  0  0  0  0  0  0  0  0  0  0  0
  152.6878  138.9838  154.4236 H   0  0  0  0  0  0  0  0  0  0  0  0
  1  2  1  0  0  0  0
  1 18  1  0  0  0  0
  1 19  1  0  0  0  0
  1 20  1  0  0  0  0
  2 17  2  0  0  0  0
  2  3  1  0  0  0  0
  3  4  2  0  0  0  0
  3 21  1  0  0  0  0
  4  5  1  0  0  0  0
  4  6  1  0  0  0  0
  5 22  1  0  0  0  0
  5 23  1  0  0  0  0
  5 24  1  0  0  0  0
  6  7  1  0  0  0  0
  6 17  1  0  0  0  0
  7  8  1  0  0  0  0
  7 25  1  0  0  0  0
  7 26  1  0  0  0  0
  8  9  2  0  0  0  0
  8 10  1  0  0  0  0
 10 11  1  0  0  0  0
 10 27  1  0  0  0  0
 11 12  1  0  0  0  0
 11 28  1  0  0  0  0
 11 29  1  0  0  0  0
 12 16  1  0  0  0  0
 12 13  1  0  0  0  0
 12 30  1  0  0  0  0
 13 14  1  0  0  0  0
 13 31  1  0  0  0  0
 13 32  1  0  0  0  0
 14 15  1  0  0  0  0
 14 33  1  0  0  0  0
 14 34  1  0  0  0  0
 15 16  1  0  0  0  0
 15 35  1  0  0  0  0
 15 36  1  0  0  0  0
M  END
> <s_m_source_file>
AV-unprocessed.smi

> <i_m_source_file_index>
1895

> <i_lp_mmshare_version>
43012

> <i_f3d_flags>
0

> <s_epik_input>
W0NIM11jMVtjSF1jKFtDSDNdKW4objEpW0NIMl1DKD1PKVtOSF1bQ0gyXVtDQEBIXTJbQ0gyXVtDSDJdW0NIMl1PMg==

> <s_epik_cmdline>
J2VwaWtfcHl0aG9uJywgJy1waCcsICc3LjAnLCAnLXRuJywgJzgnLCAnLW1hJywgJzIwMCcsICctbWV0YWxfYmluZGluZycsICctaW1hZScsICc8aW5maWxlLm1hZT4nLCAnLW9tYWUnLCAnPG91dGZpbGUubWFlPic=

> <r_lp_tautomer_probability>
1

> <r_epik_Ionization_Penalty>
0.000408438

> <r_epik_Ionization_Penalty_Charging>
0

> <r_epik_Ionization_Penalty_Neutral>
0.000408438

> <r_epik_State_Penalty>
-0

> <r_epik_Charging_Adjusted_Penalty>
0

> <i_epik_Tot_Q>
0

> <i_epik_Tot_abs_Q>
0

> <r_epik_Metal_State_Penalty>
-0

> <b_epik_Metal_Only>
0

> <s_lp_Force_Field>
OPLS_2005

> <r_lp_Energy>
14.7864

> <b_lp_Chiralities_Consistent>
1

> <s_lp_Variant>
AV-unprocessed.smi:1895-1

> <Gold.Version>
5.8.1

> <Gold.Id.Protein>
6NUR|6NUR_protein|mol2

> <Gold.PLP.Fitness>
43.1812

> <Gold.PLP.PLP>
-43.6875

> <Gold.PLP.part.hbond>
-1.2389

> <Gold.PLP.part.metal>
0.0000

> <Gold.PLP.part.buried>
-2.6022

> <Gold.PLP.part.nonpolar>
-40.0796

> <Gold.PLP.part.repulsive>
0.1694

> <Gold.PLP.ligand.clash>
0.0000

> <Gold.PLP.ligand.torsion>
0.2962

> <Gold.PLP.Chemscore.Hbond>
0.0234

> <Gold.PLP.Chemscore.CHOScore>
0.0000

> <Gold.PLP.Chemscore.Metal>
0.0000

> <Gold.Chemscore.Hbonds>
donor molecule, donor type, donor heavy atom, donor atom, acceptor molecule, acceptor atom, score
      L1  H    10    27       P1  8028  0.28

> <Gold.PLP.Chemscore.Internal.Correction>
0.0158

> <Gold.Rescore>
     Score         DG    S(hbond)    S(metal)    S(lipo)     H(rot)  DE(clash)    DE(int)     intcor
     11.98     -13.72       0.00        0.00     104.13       1.54       0.21       1.54       ----

> <Gold.Chemscore.Fitness>
11.9753

> <Gold.Chemscore.DG>
-13.7235

> <Gold.Chemscore.ZeroCoef>
-5.4800

> <Gold.Chemscore.Hbond>
0.0000

> <Gold.Chemscore.Metal>
0.0000

> <Gold.Chemscore.Lipo>
104.1258

> <Gold.Chemscore.Internal_Hbond>
0.0000

> <Gold.Chemscore.DEClash>
0.2104

> <Gold.Chemscore.DEInternal>
1.5379

> <Gold.Chemscore.Rot>
1.5387

> <Gold.Chemscore.Internal.Correction>
   9.000000E+99

> <Gold.Chemscore.Hbonds>
donor molecule, donor type, donor heavy atom, donor atom, acceptor molecule, acceptor atom, score
      L1  H    10    27       P1  8028  0.28

> <Gold.Chemscore.Hbond.Weighted>
-0.0000

> <Gold.Chemscore.Metal.Weighted>
-0.0000

> <Gold.Chemscore.Lipo.Weighted>
-12.1827

> <Gold.Chemscore.Internal_Hbond.Weighted>
0.0000

> <Gold.Chemscore.DEClash.Weighted>
0.2104

> <Gold.Chemscore.DEInternal.Weighted>
1.5379

> <Gold.Chemscore.Rot.Weighted>
3.9392

> <Gold.Chemscore.Internal.Correction.Weighted>
   9.000000E+99

> <Gold.Protein.RotatedTorsions>
[ 6907 6896 6895 6894 ] final  172.37 input  -60.11 | X-H torsion
[ 7974 7965 7964 7962 ] final  -86.76 input  175.53 | X-H torsion
[ 8008 7997 7996 7995 ] final   56.31 input   59.86 | X-H torsion
[ 10167 10162 10161 10158 ] final  157.50 input  -65.29 | X-H torsion
[ 10718 10713 10712 10709 ] final    6.81 input   66.30 | X-H torsion
[ 10763 10752 10751 10750 ] final  170.24 input  -60.55 | X-H torsion
[ 11005 11000 10999 10996 ] final  145.77 input  -57.11 | X-H torsion

> <Gold.Protein.ActiveResidues>
 VAL166  LYS551  ARG553  GLY616  TRP617  ASP618  TYR619  PRO620  LYS621  CYS622 
 ASP623  PHE694  ASN695  SER759  ASP760  ASP761  ALA762  ILE779  LEU786  VAL792 
 PHE793  MET794  SER795  GLU796  ALA797  LYS798  CYS799  TRP800  GLU811  SER814 

> <Gold.Protein.RotatedAtoms>
  151.7854  133.3354  159.3483 H   0  0  0  0  0  0  0  0  0  0  0  0  # atno 6907 bound_to 6896
  150.7411  134.5892  159.5988 H   0  0  0  0  0  0  0  0  0  0  0  0  # atno 6908 bound_to 6896
  152.3247  134.7337  160.0356 H   0  0  0  0  0  0  0  0  0  0  0  0  # atno 6909 bound_to 6896
  145.4756  140.9558  143.1893 H   0  0  0  0  0  0  0  0  0  0  0  0  # atno 7974 bound_to 7965
  155.5153  140.3478  155.4396 H   0  0  0  0  0  0  0  0  0  0  0  0  # atno 8008 bound_to 7997
  156.0821  140.1389  156.9726 H   0  0  0  0  0  0  0  0  0  0  0  0  # atno 8009 bound_to 7997
  154.4586  140.0944  156.6804 H   0  0  0  0  0  0  0  0  0  0  0  0  # atno 8010 bound_to 7997
  139.4823  144.4911  151.8306 H   0  0  0  0  0  0  0  0  0  0  0  0  # atno 10167 bound_to 10162
  156.9276  130.5814  149.5649 H   0  0  0  0  0  0  0  0  0  0  0  0  # atno 10718 bound_to 10713
  154.3948  135.2754  155.2133 H   0  0  0  0  0  0  0  0  0  0  0  0  # atno 10763 bound_to 10752
  154.4183  135.6006  153.5998 H   0  0  0  0  0  0  0  0  0  0  0  0  # atno 10764 bound_to 10752
  152.9831  135.5966  154.4208 H   0  0  0  0  0  0  0  0  0  0  0  0  # atno 10765 bound_to 10752
  140.0738  134.9136  157.1390 H   0  0  0  0  0  0  0  0  0  0  0  0  # atno 11005 bound_to 11000
  144.7919  139.6311  143.7109 LP  0  0  0  0  0  0  0  0  0  0  0  0  # atno 17320 bound_to 7965
  146.2371  139.5927  142.9516 LP  0  0  0  0  0  0  0  0  0  0  0  0  # atno 17321 bound_to 7965
  140.4395  144.2005  150.5891 LP  0  0  0  0  0  0  0  0  0  0  0  0  # atno 17342 bound_to 10162
  140.4697  143.2417  151.9106 LP  0  0  0  0  0  0  0  0  0  0  0  0  # atno 17343 bound_to 10162
  156.0462  130.5538  150.8885 LP  0  0  0  0  0  0  0  0  0  0  0  0  # atno 17370 bound_to 10713
  157.5867  131.0945  150.9184 LP  0  0  0  0  0  0  0  0  0  0  0  0  # atno 17371 bound_to 10713
  140.3587  134.2518  155.7189 LP  0  0  0  0  0  0  0  0  0  0  0  0  # atno 17394 bound_to 11000
  141.2022  133.7944  157.0403 LP  0  0  0  0  0  0  0  0  0  0  0  0  # atno 17395 bound_to 11000

$$$$
