AV-unprocessed.smi:1546|AV-procd|sdf|6219|dock2
  -GOLD-   22720 6393D 1   1.00000     0.00000
 Structure written by MMmdl.
 29 30  0  0  0  0  0  0  0  0  2 V2000
  151.1429  140.7647  158.3741 O   0  0  0  0  0  0  0  0  0  0  0  0
  150.9035  141.6976  157.6068 C   0  0  0  0  0  0  0  0  0  0  0  0
  150.7163  143.1142  158.1528 C   0  0  0  0  0  0  0  0  0  0  0  0
  150.4616  143.0621  159.5486 O   0  0  0  0  0  0  0  0  0  0  0  0
  151.0935  144.1144  160.2558 C   0  0  0  0  0  0  0  0  0  0  0  0
  152.3958  143.6073  160.8371 C   0  0  0  0  0  0  0  0  0  0  0  0
  152.7967  142.1592  160.6691 C   0  0  0  0  0  0  0  0  0  0  0  0
  152.3971  142.6759  162.0281 C   0  0  0  0  0  0  0  0  0  0  0  0
  150.7670  141.5795  156.2739 N   0  0  0  0  0  0  0  0  0  0  0  0
  150.8761  140.4164  155.4608 C   0  0  0  0  0  0  0  0  0  0  0  0
  150.0196  140.1410  154.3650 C   0  0  0  0  0  0  0  0  0  0  0  0
  150.1111  139.0276  153.6062 N   0  0  0  0  0  0  0  0  0  0  0  0
  151.0682  138.1288  153.9165 C   0  0  0  0  0  0  0  0  0  0  0  0
  151.9624  138.2910  154.9918 C   0  0  0  0  0  0  0  0  0  0  0  0
  151.8618  139.4529  155.7814 C   0  0  0  0  0  0  0  0  0  0  0  0
  152.7161  139.6267  156.8354 O   0  5  0  0  0  0  0  0  0  0  0  0
  151.6170  143.6972  157.9540 H   0  0  0  0  0  0  0  0  0  0  0  0
  149.8837  143.5918  157.6337 H   0  0  0  0  0  0  0  0  0  0  0  0
  151.2892  144.9575  159.5912 H   0  0  0  0  0  0  0  0  0  0  0  0
  150.4552  144.4656  161.0676 H   0  0  0  0  0  0  0  0  0  0  0  0
  153.2060  144.3331  160.7978 H   0  0  0  0  0  0  0  0  0  0  0  0
  152.1006  141.4941  160.1616 H   0  0  0  0  0  0  0  0  0  0  0  0
  153.8506  141.9469  160.5005 H   0  0  0  0  0  0  0  0  0  0  0  0
  153.1838  142.8108  162.7677 H   0  0  0  0  0  0  0  0  0  0  0  0
  151.4349  142.3572  162.4242 H   0  0  0  0  0  0  0  0  0  0  0  0
  150.4810  142.4133  155.7807 H   0  0  0  0  0  0  0  0  0  0  0  0
  149.2188  140.8069  154.0848 H   0  0  0  0  0  0  0  0  0  0  0  0
  151.1191  137.2493  153.2919 H   0  0  0  0  0  0  0  0  0  0  0  0
  152.7069  137.5378  155.2043 H   0  0  0  0  0  0  0  0  0  0  0  0
  1  2  2  0  0  0  0
  2  3  1  0  0  0  0
  2  9  1  0  0  0  0
  3  4  1  0  0  0  0
  3 17  1  0  0  0  0
  3 18  1  0  0  0  0
  4  5  1  0  0  0  0
  5  6  1  0  0  0  0
  5 19  1  0  0  0  0
  5 20  1  0  0  0  0
  6  8  1  0  0  0  0
  6  7  1  0  0  0  0
  6 21  1  0  0  0  0
  7  8  1  0  0  0  0
  7 22  1  0  0  0  0
  7 23  1  0  0  0  0
  8 24  1  0  0  0  0
  8 25  1  0  0  0  0
  9 26  1  0  0  0  0
  9 10  1  0  0  0  0
 10 15  1  0  0  0  0
 10 11  2  0  0  0  0
 11 27  1  0  0  0  0
 11 12  1  0  0  0  0
 12 13  2  0  0  0  0
 13 28  1  0  0  0  0
 13 14  1  0  0  0  0
 14 15  2  0  0  0  0
 14 29  1  0  0  0  0
 15 16  1  0  0  0  0
M  CHG  1  16  -1
M  END
> <s_m_source_file>
AV-unprocessed.smi

> <i_m_source_file_index>
1546

> <i_lp_mmshare_version>
43012

> <i_f3d_flags>
0

> <s_epik_input>
W0NIMl0xW0NIMl1bQ0hdMVtDSDJdT1tDSDJdQyg9TylbTkhdYzJbY0hdbltjSF1bY0hdYzJbT0hd

> <s_epik_cmdline>
J2VwaWtfcHl0aG9uJywgJy1waCcsICc3LjAnLCAnLXRuJywgJzgnLCAnLW1hJywgJzIwMCcsICctbWV0YWxfYmluZGluZycsICctaW1hZScsICc8aW5maWxlLm1hZT4nLCAnLW9tYWUnLCAnPG91dGZpbGUubWFlPic=

> <r_lp_tautomer_probability>
1

> <r_epik_Ionization_Penalty>
6.21828

> <r_epik_Ionization_Penalty_Charging>
1.1523

> <r_epik_Ionization_Penalty_Neutral>
5.06598

> <r_epik_State_Penalty>
5.06586

> <r_epik_Charging_Adjusted_Penalty>
6.21817

> <i_epik_Tot_Q>
-1

> <i_epik_Tot_abs_Q>
1

> <r_epik_Metal_State_Penalty>
1.16681

> <b_epik_Metal_Only>
1

> <s_lp_Force_Field>
OPLS_2005

> <r_lp_Energy>
16.9925

> <b_lp_Chiralities_Consistent>
1

> <s_lp_Variant>
AV-unprocessed.smi:1546-2

> <Gold.Version>
5.8.1

> <Gold.Id.Protein>
6NUR|6NUR_protein|mol2

> <Gold.PLP.Fitness>
41.4692

> <Gold.PLP.PLP>
-35.5232

> <Gold.PLP.part.hbond>
-2.0000

> <Gold.PLP.part.metal>
0.0000

> <Gold.PLP.part.buried>
-5.5167

> <Gold.PLP.part.nonpolar>
-29.7225

> <Gold.PLP.part.repulsive>
1.3387

> <Gold.PLP.ligand.clash>
0.9006

> <Gold.PLP.ligand.torsion>
1.4843

> <Gold.PLP.Chemscore.Hbond>
2.0000

> <Gold.PLP.Chemscore.CHOScore>
1.0744

> <Gold.PLP.Chemscore.Metal>
0.0000

> <Gold.Chemscore.Hbonds>
donor molecule, donor type, donor heavy atom, donor atom, acceptor molecule, acceptor atom, score
      P1  H  7997  8009       L1    16  2.00
      L1  C    13    28       P1  7949  1.00

> <Gold.PLP.Chemscore.Internal.Correction>
0.5920

> <Gold.Rescore>
     Score         DG    S(hbond)    S(metal)    S(lipo)     H(rot)  DE(clash)    DE(int)     intcor
      9.62     -15.37       1.00        0.00      91.42       1.62       0.02       5.73       ----

> <Gold.Chemscore.Fitness>
9.6192

> <Gold.Chemscore.DG>
-15.3674

> <Gold.Chemscore.ZeroCoef>
-5.4800

> <Gold.Chemscore.Hbond>
0.9997

> <Gold.Chemscore.Metal>
0.0000

> <Gold.Chemscore.Lipo>
91.4188

> <Gold.Chemscore.Internal_Hbond>
0.0000

> <Gold.Chemscore.DEClash>
0.0186

> <Gold.Chemscore.DEInternal>
5.7296

> <Gold.Chemscore.Rot>
1.6202

> <Gold.Chemscore.Internal.Correction>
   9.000000E+99

> <Gold.Chemscore.Hbonds>
donor molecule, donor type, donor heavy atom, donor atom, acceptor molecule, acceptor atom, score
      P1  H  7997  8009       L1    16  0.94

> <Gold.Chemscore.Hbond.Weighted>
-3.3390

> <Gold.Chemscore.Metal.Weighted>
-0.0000

> <Gold.Chemscore.Lipo.Weighted>
-10.6960

> <Gold.Chemscore.Internal_Hbond.Weighted>
0.0000

> <Gold.Chemscore.DEClash.Weighted>
0.0186

> <Gold.Chemscore.DEInternal.Weighted>
5.7296

> <Gold.Chemscore.Rot.Weighted>
4.1476

> <Gold.Chemscore.Internal.Correction.Weighted>
   9.000000E+99

> <Gold.Protein.RotatedTorsions>
[ 6907 6896 6895 6894 ] final  119.63 input  -60.11 | X-H torsion
[ 7974 7965 7964 7962 ] final  -41.17 input  175.53 | X-H torsion
[ 8008 7997 7996 7995 ] final -168.67 input   59.86 | X-H torsion
[ 10167 10162 10161 10158 ] final    5.80 input  -65.29 | X-H torsion
[ 10718 10713 10712 10709 ] final -169.28 input   66.30 | X-H torsion
[ 10763 10752 10751 10750 ] final  176.87 input  -60.55 | X-H torsion
[ 11005 11000 10999 10996 ] final   64.22 input  -57.11 | X-H torsion

> <Gold.Protein.ActiveResidues>
 VAL166  LYS551  ARG553  GLY616  TRP617  ASP618  TYR619  PRO620  LYS621  CYS622 
 ASP623  PHE694  ASN695  SER759  ASP760  ASP761  ALA762  ILE779  LEU786  VAL792 
 PHE793  MET794  SER795  GLU796  ALA797  LYS798  CYS799  TRP800  GLU811  SER814 

> <Gold.Protein.RotatedAtoms>
  152.4458  133.7534  159.6706 H   0  0  0  0  0  0  0  0  0  0  0  0  # atno 6907 bound_to 6896
  150.8358  133.8006  159.3086 H   0  0  0  0  0  0  0  0  0  0  0  0  # atno 6908 bound_to 6896
  151.5646  135.1067  160.0032 H   0  0  0  0  0  0  0  0  0  0  0  0  # atno 6909 bound_to 6896
  146.0236  140.6819  142.9166 H   0  0  0  0  0  0  0  0  0  0  0  0  # atno 7974 bound_to 7965
  155.8945  140.1030  157.1394 H   0  0  0  0  0  0  0  0  0  0  0  0  # atno 8008 bound_to 7997
  154.4019  140.1304  156.4422 H   0  0  0  0  0  0  0  0  0  0  0  0  # atno 8009 bound_to 7997
  155.7495  140.3465  155.5145 H   0  0  0  0  0  0  0  0  0  0  0  0  # atno 8010 bound_to 7997
  140.6462  143.7655  150.7503 H   0  0  0  0  0  0  0  0  0  0  0  0  # atno 10167 bound_to 10162
  156.7092  130.9226  151.3087 H   0  0  0  0  0  0  0  0  0  0  0  0  # atno 10718 bound_to 10713
  154.4869  135.2777  155.1527 H   0  0  0  0  0  0  0  0  0  0  0  0  # atno 10763 bound_to 10752
  154.3214  135.6209  153.5513 H   0  0  0  0  0  0  0  0  0  0  0  0  # atno 10764 bound_to 10752
  152.9882  135.5743  154.5282 H   0  0  0  0  0  0  0  0  0  0  0  0  # atno 10765 bound_to 10752
  139.9973  134.6497  155.9989 H   0  0  0  0  0  0  0  0  0  0  0  0  # atno 11005 bound_to 11000
  144.7000  140.3610  143.7164 LP  0  0  0  0  0  0  0  0  0  0  0  0  # atno 17320 bound_to 7965
  145.7153  139.1695  143.2515 LP  0  0  0  0  0  0  0  0  0  0  0  0  # atno 17321 bound_to 7965
  140.1297  143.4537  152.2262 LP  0  0  0  0  0  0  0  0  0  0  0  0  # atno 17342 bound_to 10162
  139.5673  144.7443  151.3986 LP  0  0  0  0  0  0  0  0  0  0  0  0  # atno 17343 bound_to 10162
  157.6943  130.9265  150.0600 LP  0  0  0  0  0  0  0  0  0  0  0  0  # atno 17370 bound_to 10713
  156.1673  130.3645  149.9214 LP  0  0  0  0  0  0  0  0  0  0  0  0  # atno 17371 bound_to 10713
  141.1614  133.6538  156.4333 LP  0  0  0  0  0  0  0  0  0  0  0  0  # atno 17394 bound_to 11000
  140.4794  134.6679  157.5164 LP  0  0  0  0  0  0  0  0  0  0  0  0  # atno 17395 bound_to 11000

$$$$
