AV-unprocessed.smi:601|AV-procd|sdf|3034|dock4
  -GOLD-   2262023553D 1   1.00000     0.00000
 Structure written by MMmdl.
 49 50  0  0  0  0  0  0  0  0  2 V2000
  149.6583  132.8347  154.6138 C   0  0  0  0  0  0  0  0  0  0  0  0
  149.6285  132.9092  156.1463 C   0  0  0  0  0  0  0  0  0  0  0  0
  148.3912  133.6288  156.7064 C   0  0  0  0  0  0  0  0  0  0  0  0
  148.5300  134.0322  158.1870 C   0  0  0  0  0  0  0  0  0  0  0  0
  148.8409  135.4615  158.3440 N   0  0  0  0  0  0  0  0  0  0  0  0
  148.5560  136.1169  159.5015 C   0  0  0  0  0  0  0  0  0  0  0  0
  148.8553  137.3015  159.6653 O   0  0  0  0  0  0  0  0  0  0  0  0
  147.8579  135.3568  160.6513 C   0  0  1  0  0  0  0  0  0  0  0  0
  147.7812  136.0894  162.0010 C   0  0  0  0  0  0  0  0  0  0  0  0
  146.4678  135.6087  162.6070 C   0  0  0  0  0  0  0  0  0  0  0  0
  145.8470  134.7322  161.5189 C   0  0  0  0  0  0  0  0  0  0  0  0
  146.4893  135.1594  160.3306 O   0  0  0  0  0  0  0  0  0  0  0  0
  149.4911  136.0883  157.2640 C   0  0  0  0  0  0  0  0  0  0  0  0
  148.9427  137.1327  156.5874 C   0  0  0  0  0  0  0  0  0  0  0  0
  147.6923  137.6270  156.9311 N   0  0  0  0  0  0  0  0  0  0  0  0
  149.6505  137.7326  155.5111 N   0  0  0  0  0  0  0  0  0  0  0  0
  149.0354  138.8790  154.8032 C   0  0  0  0  0  0  0  0  0  0  0  0
  149.8822  140.1666  154.8890 C   0  0  0  0  0  0  0  0  0  0  0  0
  149.1747  141.4255  154.3701 C   0  0  0  0  0  0  0  0  0  0  0  0
  150.8822  137.2637  155.1383 C   0  0  0  0  0  0  0  0  0  0  0  0
  151.4723  137.7946  154.1965 O   0  0  0  0  0  0  0  0  0  0  0  0
  151.4257  136.2137  155.8176 N   0  5  0  0  0  0  0  0  0  0  0  0
  150.8105  135.5924  156.8577 C   0  0  0  0  0  0  0  0  0  0  0  0
  151.3244  134.6443  157.4520 O   0  0  0  0  0  0  0  0  0  0  0  0
  150.5189  132.2595  154.2722 H   0  0  0  0  0  0  0  0  0  0  0  0
  149.7280  133.8250  154.1643 H   0  0  0  0  0  0  0  0  0  0  0  0
  148.7612  132.3510  154.2257 H   0  0  0  0  0  0  0  0  0  0  0  0
  149.6488  131.8927  156.5408 H   0  0  0  0  0  0  0  0  0  0  0  0
  150.5354  133.3927  156.5108 H   0  0  0  0  0  0  0  0  0  0  0  0
  148.1805  134.5090  156.0988 H   0  0  0  0  0  0  0  0  0  0  0  0
  147.5298  132.9698  156.5931 H   0  0  0  0  0  0  0  0  0  0  0  0
  147.6193  133.7827  158.7342 H   0  0  0  0  0  0  0  0  0  0  0  0
  149.3161  133.4379  158.6541 H   0  0  0  0  0  0  0  0  0  0  0  0
  148.3330  134.3874  160.8073 H   0  0  0  0  0  0  0  0  0  0  0  0
  148.6350  135.8504  162.6355 H   0  0  0  0  0  0  0  0  0  0  0  0
  147.7444  137.1736  161.8892 H   0  0  0  0  0  0  0  0  0  0  0  0
  146.6170  135.0496  163.5311 H   0  0  0  0  0  0  0  0  0  0  0  0
  145.8235  136.4600  162.8300 H   0  0  0  0  0  0  0  0  0  0  0  0
  146.0725  133.6784  161.6913 H   0  0  0  0  0  0  0  0  0  0  0  0
  144.7648  134.8451  161.4522 H   0  0  0  0  0  0  0  0  0  0  0  0
  147.1549  137.2299  157.6882 H   0  0  0  0  0  0  0  0  0  0  0  0
  147.2144  138.2992  156.3482 H   0  0  0  0  0  0  0  0  0  0  0  0
  148.8721  138.6202  153.7568 H   0  0  0  0  0  0  0  0  0  0  0  0
  148.0287  139.0905  155.1660 H   0  0  0  0  0  0  0  0  0  0  0  0
  150.2040  140.3369  155.9162 H   0  0  0  0  0  0  0  0  0  0  0  0
  150.7952  140.0186  154.3119 H   0  0  0  0  0  0  0  0  0  0  0  0
  149.8457  142.2841  154.3939 H   0  0  0  0  0  0  0  0  0  0  0  0
  148.3043  141.6734  154.9777 H   0  0  0  0  0  0  0  0  0  0  0  0
  148.8402  141.2926  153.3410 H   0  0  0  0  0  0  0  0  0  0  0  0
  1  2  1  0  0  0  0
  1 25  1  0  0  0  0
  1 26  1  0  0  0  0
  1 27  1  0  0  0  0
  2  3  1  0  0  0  0
  2 28  1  0  0  0  0
  2 29  1  0  0  0  0
  3  4  1  0  0  0  0
  3 30  1  0  0  0  0
  3 31  1  0  0  0  0
  4  5  1  0  0  0  0
  4 32  1  0  0  0  0
  4 33  1  0  0  0  0
  5  6  1  0  0  0  0
  5 13  1  0  0  0  0
  6  7  2  0  0  0  0
  6  8  1  0  0  0  0
  8 12  1  0  0  0  0
  8  9  1  0  0  0  0
  8 34  1  0  0  0  0
  9 10  1  0  0  0  0
  9 35  1  0  0  0  0
  9 36  1  0  0  0  0
 10 11  1  0  0  0  0
 10 37  1  0  0  0  0
 10 38  1  0  0  0  0
 11 12  1  0  0  0  0
 11 39  1  0  0  0  0
 11 40  1  0  0  0  0
 13 23  1  0  0  0  0
 13 14  2  0  0  0  0
 14 15  1  0  0  0  0
 14 16  1  0  0  0  0
 15 41  1  0  0  0  0
 15 42  1  0  0  0  0
 16 17  1  0  0  0  0
 16 20  1  0  0  0  0
 17 18  1  0  0  0  0
 17 43  1  0  0  0  0
 17 44  1  0  0  0  0
 18 19  1  0  0  0  0
 18 45  1  0  0  0  0
 18 46  1  0  0  0  0
 19 47  1  0  0  0  0
 19 48  1  0  0  0  0
 19 49  1  0  0  0  0
 20 21  2  0  0  0  0
 20 22  1  0  0  0  0
 22 23  1  0  0  0  0
 23 24  2  0  0  0  0
M  CHG  1  22  -1
M  END
> <s_m_source_file>
AV-unprocessed.smi

> <i_m_source_file_index>
601

> <i_lp_mmshare_version>
43012

> <i_f3d_flags>
0

> <s_epik_input>
TzFbQ0gyXVtDSDJdW0NIMl1bQ0BIXTFDKD1PKU4oW0NIMl1bQ0gyXVtDSDJdW0NIM10pYzJjKFtOSDJdKW4oW0NIMl1bQ0gyXVtDSDNdKWMoPU8pW25IXWMyPU8=

> <s_epik_cmdline>
J2VwaWtfcHl0aG9uJywgJy1waCcsICc3LjAnLCAnLXRuJywgJzgnLCAnLW1hJywgJzIwMCcsICctbWV0YWxfYmluZGluZycsICctaW1hZScsICc8aW5maWxlLm1hZT4nLCAnLW9tYWUnLCAnPG91dGZpbGUubWFlPic=

> <r_lp_tautomer_probability>
1

> <r_epik_Ionization_Penalty>
5.90608

> <r_epik_Ionization_Penalty_Charging>
4.55687e-07

> <r_epik_Ionization_Penalty_Neutral>
5.90608

> <r_epik_State_Penalty>
5.90604

> <r_epik_Charging_Adjusted_Penalty>
5.90604

> <i_epik_Tot_Q>
-1

> <i_epik_Tot_abs_Q>
1

> <r_epik_Metal_State_Penalty>
1.84043

> <b_epik_Metal_Only>
1

> <s_lp_Force_Field>
OPLS_2005

> <r_lp_Energy>
54.0415

> <b_lp_Chiralities_Consistent>
1

> <s_lp_Variant>
AV-unprocessed.smi:601-4

> <Gold.Version>
5.8.1

> <Gold.Id.Protein>
6NUR|6NUR_protein|mol2

> <Gold.PLP.Fitness>
36.1302

> <Gold.PLP.PLP>
-31.7465

> <Gold.PLP.part.hbond>
-3.0291

> <Gold.PLP.part.metal>
0.0000

> <Gold.PLP.part.buried>
-3.4090

> <Gold.PLP.part.nonpolar>
-25.6692

> <Gold.PLP.part.repulsive>
0.2921

> <Gold.PLP.ligand.clash>
0.0000

> <Gold.PLP.ligand.torsion>
2.1424

> <Gold.PLP.Chemscore.Hbond>
2.1706

> <Gold.PLP.Chemscore.CHOScore>
0.0000

> <Gold.PLP.Chemscore.Metal>
0.0000

> <Gold.Chemscore.Hbonds>
donor molecule, donor type, donor heavy atom, donor atom, acceptor molecule, acceptor atom, score
      P1  H  6896  6909       L1    24  0.13
      P1  H  6931  6943       L1     7  0.02
      P1  H 10752 10763       L1    22  2.00

> <Gold.PLP.Chemscore.Internal.Correction>
2.1568

> <Gold.Rescore>
     Score         DG    S(hbond)    S(metal)    S(lipo)     H(rot)  DE(clash)    DE(int)     intcor
      8.74     -11.01       0.97        0.00      61.51       1.92       0.00       2.27       ----

> <Gold.Chemscore.Fitness>
8.7361

> <Gold.Chemscore.DG>
-11.0084

> <Gold.Chemscore.ZeroCoef>
-5.4800

> <Gold.Chemscore.Hbond>
0.9721

> <Gold.Chemscore.Metal>
0.0000

> <Gold.Chemscore.Lipo>
61.5125

> <Gold.Chemscore.Internal_Hbond>
0.0000

> <Gold.Chemscore.DEClash>
0.0009

> <Gold.Chemscore.DEInternal>
2.2714

> <Gold.Chemscore.Rot>
1.9201

> <Gold.Chemscore.Internal.Correction>
   9.000000E+99

> <Gold.Chemscore.Hbonds>
donor molecule, donor type, donor heavy atom, donor atom, acceptor molecule, acceptor atom, score
      P1  H  6896  6909       L1    24  0.14
      P1  H  6931  6943       L1     7  0.04
      P1  H 10752 10763       L1    22  0.80

> <Gold.Chemscore.Hbond.Weighted>
-3.2468

> <Gold.Chemscore.Metal.Weighted>
-0.0000

> <Gold.Chemscore.Lipo.Weighted>
-7.1970

> <Gold.Chemscore.Internal_Hbond.Weighted>
0.0000

> <Gold.Chemscore.DEClash.Weighted>
0.0009

> <Gold.Chemscore.DEInternal.Weighted>
2.2714

> <Gold.Chemscore.Rot.Weighted>
4.9154

> <Gold.Chemscore.Internal.Correction.Weighted>
   9.000000E+99

> <Gold.Protein.RotatedTorsions>
[ 6907 6896 6895 6894 ] final   10.51 input  -60.11 | X-H torsion
[ 7974 7965 7964 7962 ] final   55.96 input  175.53 | X-H torsion
[ 8008 7997 7996 7995 ] final -176.78 input   59.86 | X-H torsion
[ 10167 10162 10161 10158 ] final -146.08 input  -65.29 | X-H torsion
[ 10718 10713 10712 10709 ] final   77.47 input   66.30 | X-H torsion
[ 10763 10752 10751 10750 ] final   78.99 input  -60.55 | X-H torsion
[ 11005 11000 10999 10996 ] final  -51.47 input  -57.11 | X-H torsion

> <Gold.Protein.ActiveResidues>
 VAL166  LYS551  ARG553  GLY616  TRP617  ASP618  TYR619  PRO620  LYS621  CYS622 
 ASP623  PHE694  ASN695  SER759  ASP760  ASP761  ALA762  ILE779  LEU786  VAL792 
 PHE793  MET794  SER795  GLU796  ALA797  LYS798  CYS799  TRP800  GLU811  SER814 

> <Gold.Protein.RotatedAtoms>
  151.7394  135.0857  160.0312 H   0  0  0  0  0  0  0  0  0  0  0  0  # atno 6907 bound_to 6896
  152.3490  133.6152  159.5939 H   0  0  0  0  0  0  0  0  0  0  0  0  # atno 6908 bound_to 6896
  150.7527  133.9521  159.3530 H   0  0  0  0  0  0  0  0  0  0  0  0  # atno 6909 bound_to 6896
  145.9448  139.3920  143.0341 H   0  0  0  0  0  0  0  0  0  0  0  0  # atno 7974 bound_to 7965
  155.9990  140.1216  157.0566 H   0  0  0  0  0  0  0  0  0  0  0  0  # atno 8008 bound_to 7997
  154.4236  140.1110  156.5739 H   0  0  0  0  0  0  0  0  0  0  0  0  # atno 8009 bound_to 7997
  155.6239  140.3472  155.4663 H   0  0  0  0  0  0  0  0  0  0  0  0  # atno 8010 bound_to 7997
  139.7746  143.8188  152.2630 H   0  0  0  0  0  0  0  0  0  0  0  0  # atno 10167 bound_to 10162
  157.6711  130.9823  150.1646 H   0  0  0  0  0  0  0  0  0  0  0  0  # atno 10718 bound_to 10713
  153.0917  135.4856  154.8703 H   0  0  0  0  0  0  0  0  0  0  0  0  # atno 10763 bound_to 10752
  154.7277  135.3053  154.8945 H   0  0  0  0  0  0  0  0  0  0  0  0  # atno 10764 bound_to 10752
  153.9590  135.6814  153.4798 H   0  0  0  0  0  0  0  0  0  0  0  0  # atno 10765 bound_to 10752
  141.0873  133.6640  156.3883 H   0  0  0  0  0  0  0  0  0  0  0  0  # atno 11005 bound_to 11000
  145.8251  140.9659  143.0878 LP  0  0  0  0  0  0  0  0  0  0  0  0  # atno 17320 bound_to 7965
  144.6785  140.0091  143.7484 LP  0  0  0  0  0  0  0  0  0  0  0  0  # atno 17321 bound_to 7965
  139.8233  144.7286  150.9545 LP  0  0  0  0  0  0  0  0  0  0  0  0  # atno 17342 bound_to 10162
  140.7816  143.4139  151.0949 LP  0  0  0  0  0  0  0  0  0  0  0  0  # atno 17343 bound_to 10162
  156.2414  130.3691  149.8332 LP  0  0  0  0  0  0  0  0  0  0  0  0  # atno 17370 bound_to 10713
  156.6131  130.8595  151.3459 LP  0  0  0  0  0  0  0  0  0  0  0  0  # atno 17371 bound_to 10713
  140.5334  134.6191  157.5357 LP  0  0  0  0  0  0  0  0  0  0  0  0  # atno 17394 bound_to 11000
  139.9693  134.7320  156.0074 LP  0  0  0  0  0  0  0  0  0  0  0  0  # atno 17395 bound_to 11000

$$$$
