AV-unprocessed.smi:737|AV-procd|sdf|3536|dock8
  -GOLD-   22720 0533D 1   1.00000     0.00000
 Structure written by MMmdl.
 45 47  0  0  0  0  0  0  0  0  1 V2000
  147.5651  132.8668  151.4283 C   0  0  0  0  0  0  0  0  0  0  0  0
  148.6876  132.0716  151.8993 N   0  0  0  0  0  0  0  0  0  0  0  0
  149.3920  132.4410  153.0536 C   0  0  0  0  0  0  0  0  0  0  0  0
  149.7975  133.7218  153.2157 N   0  0  0  0  0  0  0  0  0  0  0  0
  150.4719  134.0295  154.3311 C   0  0  0  0  0  0  0  0  0  0  0  0
  150.8241  133.2339  155.3532 N   0  0  0  0  0  0  0  0  0  0  0  0
  150.4258  131.9634  155.2033 C   0  0  0  0  0  0  0  0  0  0  0  0
  150.6514  130.9306  156.0973 N   0  0  0  0  0  0  0  0  0  0  0  0
  150.0620  129.9077  155.4834 C   0  0  0  0  0  0  0  0  0  0  0  0
  149.4789  130.1489  154.2930 N   0  0  0  0  0  0  0  0  0  0  0  0
  148.7831  129.1816  153.4618 C   0  0  0  0  0  0  0  0  0  0  0  0
  148.9905  127.7304  153.9422 C   0  0  2  0  0  0  0  0  0  0  0  0
  150.3515  127.3482  153.9096 O   0  0  0  0  0  0  0  0  0  0  0  0
  148.1668  126.7019  153.1524 C   0  0  0  0  0  0  0  0  0  0  0  0
  148.8155  125.4381  153.1905 O   0  0  0  0  0  0  0  0  0  0  0  0
  148.5004  124.6223  152.1354 C   0  0  0  0  0  0  0  0  0  0  0  0
  147.8096  123.4054  152.3494 C   0  0  0  0  0  0  0  0  0  0  0  0
  147.4073  122.9711  153.7472 C   0  0  0  0  0  0  0  0  0  0  0  0
  147.4934  122.5786  151.2518 C   0  0  0  0  0  0  0  0  0  0  0  0
  147.8734  122.9522  149.9495 C   0  0  0  0  0  0  0  0  0  0  0  0
  148.5774  124.1521  149.7385 C   0  0  0  0  0  0  0  0  0  0  0  0
  148.8981  124.9873  150.8283 C   0  0  0  0  0  0  0  0  0  0  0  0
  149.6677  126.2729  150.5894 C   0  0  0  0  0  0  0  0  0  0  0  0
  149.6977  131.5063  154.0636 C   0  0  0  0  0  0  0  0  0  0  0  0
  147.1566  132.4289  150.5177 H   0  0  0  0  0  0  0  0  0  0  0  0
  147.8794  133.8868  151.2050 H   0  0  0  0  0  0  0  0  0  0  0  0
  146.7727  132.8983  152.1769 H   0  0  0  0  0  0  0  0  0  0  0  0
  148.9955  131.2821  151.3495 H   0  0  0  0  0  0  0  0  0  0  0  0
  150.7751  135.0620  154.4202 H   0  0  0  0  0  0  0  0  0  0  0  0
  150.0533  128.9221  155.9262 H   0  0  0  0  0  0  0  0  0  0  0  0
  147.7197  129.4247  153.4684 H   0  0  0  0  0  0  0  0  0  0  0  0
  149.1121  129.3078  152.4312 H   0  0  0  0  0  0  0  0  0  0  0  0
  148.6870  127.6687  154.9879 H   0  0  0  0  0  0  0  0  0  0  0  0
  150.6912  127.5181  153.0443 H   0  0  0  0  0  0  0  0  0  0  0  0
  147.1511  126.6390  153.5454 H   0  0  0  0  0  0  0  0  0  0  0  0
  148.0843  127.0291  152.1148 H   0  0  0  0  0  0  0  0  0  0  0  0
  147.3461  121.8845  153.8139 H   0  0  0  0  0  0  0  0  0  0  0  0
  146.4318  123.3829  154.0044 H   0  0  0  0  0  0  0  0  0  0  0  0
  148.1311  123.3086  154.4895 H   0  0  0  0  0  0  0  0  0  0  0  0
  146.9610  121.6514  151.4061 H   0  0  0  0  0  0  0  0  0  0  0  0
  147.6303  122.3144  149.1123 H   0  0  0  0  0  0  0  0  0  0  0  0
  148.8721  124.4273  148.7366 H   0  0  0  0  0  0  0  0  0  0  0  0
  150.1329  126.2772  149.6033 H   0  0  0  0  0  0  0  0  0  0  0  0
  150.4567  126.3940  151.3322 H   0  0  0  0  0  0  0  0  0  0  0  0
  148.9990  127.1310  150.6545 H   0  0  0  0  0  0  0  0  0  0  0  0
  1  2  1  0  0  0  0
  1 25  1  0  0  0  0
  1 26  1  0  0  0  0
  1 27  1  0  0  0  0
  2  3  1  0  0  0  0
  2 28  1  0  0  0  0
  3 24  1  0  0  0  0
  3  4  2  0  0  0  0
  4  5  1  0  0  0  0
  5  6  2  0  0  0  0
  5 29  1  0  0  0  0
  6  7  1  0  0  0  0
  7 24  2  0  0  0  0
  7  8  1  0  0  0  0
  8  9  2  0  0  0  0
  9 10  1  0  0  0  0
  9 30  1  0  0  0  0
 10 11  1  0  0  0  0
 10 24  1  0  0  0  0
 11 12  1  0  0  0  0
 11 31  1  0  0  0  0
 11 32  1  0  0  0  0
 12 13  1  0  0  0  0
 12 14  1  0  0  0  0
 12 33  1  0  0  0  0
 13 34  1  0  0  0  0
 14 15  1  0  0  0  0
 14 35  1  0  0  0  0
 14 36  1  0  0  0  0
 15 16  1  0  0  0  0
 16 22  1  0  0  0  0
 16 17  2  0  0  0  0
 17 18  1  0  0  0  0
 17 19  1  0  0  0  0
 18 37  1  0  0  0  0
 18 38  1  0  0  0  0
 18 39  1  0  0  0  0
 19 20  2  0  0  0  0
 19 40  1  0  0  0  0
 20 21  1  0  0  0  0
 20 41  1  0  0  0  0
 21 22  2  0  0  0  0
 21 42  1  0  0  0  0
 22 23  1  0  0  0  0
 23 43  1  0  0  0  0
 23 44  1  0  0  0  0
 23 45  1  0  0  0  0
M  END
> <s_m_source_file>
AV-unprocessed.smi

> <i_m_source_file_index>
737

> <i_lp_mmshare_version>
43012

> <i_f3d_flags>
0

> <s_epik_input>
bjFbY0hdbmMoW05IXVtDSDNdKWMoYzEyKW4oW2NIXW4yKVtDSDJdW0NASF0oW09IXSlbQ0gyXU9jM2MoW0NIM10pW2NIXVtjSF1bY0hdYzNbQ0gzXQ==

> <s_epik_cmdline>
J2VwaWtfcHl0aG9uJywgJy1waCcsICc3LjAnLCAnLXRuJywgJzgnLCAnLW1hJywgJzIwMCcsICctbWV0YWxfYmluZGluZycsICctaW1hZScsICc8aW5maWxlLm1hZT4nLCAnLW9tYWUnLCAnPG91dGZpbGUubWFlPic=

> <r_lp_tautomer_probability>
1

> <r_epik_Ionization_Penalty>
0.0070961

> <r_epik_Ionization_Penalty_Charging>
0

> <r_epik_Ionization_Penalty_Neutral>
0.0070961

> <r_epik_State_Penalty>
-0

> <r_epik_Charging_Adjusted_Penalty>
0

> <i_epik_Tot_Q>
0

> <i_epik_Tot_abs_Q>
0

> <r_epik_Metal_State_Penalty>
-0

> <b_epik_Metal_Only>
0

> <s_lp_Force_Field>
OPLS_2005

> <r_lp_Energy>
18.2803

> <b_lp_Chiralities_Consistent>
1

> <s_lp_Variant>
AV-unprocessed.smi:737-1

> <Gold.Version>
5.8.1

> <Gold.Id.Protein>
6NUR|6NUR_protein|mol2

> <Gold.PLP.Fitness>
41.2811

> <Gold.PLP.PLP>
-38.5167

> <Gold.PLP.part.hbond>
-1.6585

> <Gold.PLP.part.metal>
0.0000

> <Gold.PLP.part.buried>
-6.2630

> <Gold.PLP.part.nonpolar>
-31.4387

> <Gold.PLP.part.repulsive>
0.5032

> <Gold.PLP.ligand.clash>
0.0000

> <Gold.PLP.ligand.torsion>
1.0494

> <Gold.PLP.Chemscore.Hbond>
1.5760

> <Gold.PLP.Chemscore.CHOScore>
0.0000

> <Gold.PLP.Chemscore.Metal>
0.0000

> <Gold.Chemscore.Hbonds>
donor molecule, donor type, donor heavy atom, donor atom, acceptor molecule, acceptor atom, score
      L1  H    13    34       P1 10737  1.00

> <Gold.PLP.Chemscore.Internal.Correction>
0.1353

> <Gold.Rescore>
     Score         DG    S(hbond)    S(metal)    S(lipo)     H(rot)  DE(clash)    DE(int)     intcor
      9.08     -11.01       1.54        0.00      67.01       2.91       0.13       1.80       ----

> <Gold.Chemscore.Fitness>
9.0794

> <Gold.Chemscore.DG>
-11.0111

> <Gold.Chemscore.ZeroCoef>
-5.4800

> <Gold.Chemscore.Hbond>
1.5365

> <Gold.Chemscore.Metal>
0.0000

> <Gold.Chemscore.Lipo>
67.0113

> <Gold.Chemscore.Internal_Hbond>
0.0000

> <Gold.Chemscore.DEClash>
0.1336

> <Gold.Chemscore.DEInternal>
1.7980

> <Gold.Chemscore.Rot>
2.9067

> <Gold.Chemscore.Internal.Correction>
   9.000000E+99

> <Gold.Chemscore.Hbonds>
donor molecule, donor type, donor heavy atom, donor atom, acceptor molecule, acceptor atom, score
      L1  H     2    28       P1 10747  0.04
      L1  H    13    34       P1 10737  0.98

> <Gold.Chemscore.Hbond.Weighted>
-5.1319

> <Gold.Chemscore.Metal.Weighted>
-0.0000

> <Gold.Chemscore.Lipo.Weighted>
-7.8403

> <Gold.Chemscore.Internal_Hbond.Weighted>
0.0000

> <Gold.Chemscore.DEClash.Weighted>
0.1336

> <Gold.Chemscore.DEInternal.Weighted>
1.7980

> <Gold.Chemscore.Rot.Weighted>
7.4412

> <Gold.Chemscore.Internal.Correction.Weighted>
   9.000000E+99

> <Gold.Protein.RotatedTorsions>
[ 6907 6896 6895 6894 ] final  126.28 input  -60.11 | X-H torsion
[ 7974 7965 7964 7962 ] final   53.15 input  175.53 | X-H torsion
[ 8008 7997 7996 7995 ] final  -18.59 input   59.86 | X-H torsion
[ 10167 10162 10161 10158 ] final  -50.43 input  -65.29 | X-H torsion
[ 10718 10713 10712 10709 ] final  -43.61 input   66.30 | X-H torsion
[ 10763 10752 10751 10750 ] final  -79.95 input  -60.55 | X-H torsion
[ 11005 11000 10999 10996 ] final  143.07 input  -57.11 | X-H torsion

> <Gold.Protein.ActiveResidues>
 VAL166  LYS551  ARG553  GLY616  TRP617  ASP618  TYR619  PRO620  LYS621  CYS622 
 ASP623  PHE694  ASN695  SER759  ASP760  ASP761  ALA762  ILE779  LEU786  VAL792 
 PHE793  MET794  SER795  GLU796  ALA797  LYS798  CYS799  TRP800  GLU811  SER814 

> <Gold.Protein.RotatedAtoms>
  152.3918  133.6689  159.6243 H   0  0  0  0  0  0  0  0  0  0  0  0  # atno 6907 bound_to 6896
  150.7825  133.8942  159.3331 H   0  0  0  0  0  0  0  0  0  0  0  0  # atno 6908 bound_to 6896
  151.6727  135.0975  160.0252 H   0  0  0  0  0  0  0  0  0  0  0  0  # atno 6909 bound_to 6896
  145.9741  139.4178  143.0172 H   0  0  0  0  0  0  0  0  0  0  0  0  # atno 7974 bound_to 7965
  154.4895  140.2111  155.9580 H   0  0  0  0  0  0  0  0  0  0  0  0  # atno 8008 bound_to 7997
  156.1285  140.3201  155.8282 H   0  0  0  0  0  0  0  0  0  0  0  0  # atno 8009 bound_to 7997
  155.4340  140.0505  157.3007 H   0  0  0  0  0  0  0  0  0  0  0  0  # atno 8010 bound_to 7997
  140.6638  143.2658  151.4358 H   0  0  0  0  0  0  0  0  0  0  0  0  # atno 10167 bound_to 10162
  156.2472  130.4185  149.8692 H   0  0  0  0  0  0  0  0  0  0  0  0  # atno 10718 bound_to 10713
  154.5451  135.5678  153.6873 H   0  0  0  0  0  0  0  0  0  0  0  0  # atno 10763 bound_to 10752
  152.9974  135.6237  154.2450 H   0  0  0  0  0  0  0  0  0  0  0  0  # atno 10764 bound_to 10752
  154.2382  135.2863  155.2844 H   0  0  0  0  0  0  0  0  0  0  0  0  # atno 10765 bound_to 10752
  140.0526  134.9248  157.1043 H   0  0  0  0  0  0  0  0  0  0  0  0  # atno 11005 bound_to 11000
  145.7863  140.9834  143.1072 LP  0  0  0  0  0  0  0  0  0  0  0  0  # atno 17320 bound_to 7965
  144.6844  139.9627  143.7480 LP  0  0  0  0  0  0  0  0  0  0  0  0  # atno 17321 bound_to 7965
  139.5880  144.1562  152.2052 LP  0  0  0  0  0  0  0  0  0  0  0  0  # atno 17342 bound_to 10162
  140.0908  144.5622  150.7056 LP  0  0  0  0  0  0  0  0  0  0  0  0  # atno 17343 bound_to 10162
  156.6253  130.8643  151.3484 LP  0  0  0  0  0  0  0  0  0  0  0  0  # atno 17370 bound_to 10713
  157.7200  130.9546  150.1400 LP  0  0  0  0  0  0  0  0  0  0  0  0  # atno 17371 bound_to 10713
  140.3894  134.2201  155.7167 LP  0  0  0  0  0  0  0  0  0  0  0  0  # atno 17394 bound_to 11000
  141.1937  133.8144  157.0787 LP  0  0  0  0  0  0  0  0  0  0  0  0  # atno 17395 bound_to 11000

$$$$
