AV-unprocessed.smi:1406|AV-procd|sdf|5724|dock10
  -GOLD-   22720 5353D 1   1.00000     0.00000
 Structure written by MMmdl.
 41 43  0  0  0  0  0  0  0  0  2 V2000
  153.8790  137.7514  161.1798 C   0  0  0  0  0  0  0  0  0  0  0  0
  153.4401  137.7132  159.7019 C   0  0  1  0  0  0  0  0  0  0  0  0
  153.5615  139.0831  159.0174 C   0  0  0  0  0  0  0  0  0  0  0  0
  154.6509  139.6522  158.9402 O   0  0  0  0  0  0  0  0  0  0  0  0
  152.4265  139.6037  158.5243 N   0  0  0  0  0  0  0  0  0  0  0  0
  152.3151  140.8890  157.8415 C   0  0  1  0  0  0  0  0  0  0  0  0
  151.2541  140.8937  156.7477 C   0  0  0  0  0  0  0  0  0  0  0  0
  150.9922  142.3887  156.5595 C   0  0  0  0  0  0  0  0  0  0  0  0
  151.1550  143.0014  157.8977 N   0  3  2  0  0  0  0  0  0  0  0  0
  151.7281  144.3696  157.8850 C   0  0  0  0  0  0  0  0  0  0  0  0
  151.8422  144.9241  159.3168 C   0  0  0  0  0  0  0  0  0  0  0  0
  152.5467  143.9524  160.2869 C   0  0  0  0  0  0  0  0  0  0  0  0
  153.0005  142.6575  159.5950 C   0  0  0  0  0  0  0  0  0  0  0  0
  151.8540  142.0207  158.7766 C   0  0  2  0  0  0  0  0  0  0  0  0
  154.1582  136.7022  158.9356 N   0  0  0  0  0  0  0  0  0  0  0  0
  154.8985  136.8291  157.8322 C   0  0  0  0  0  0  0  0  0  0  0  0
  155.4551  135.6978  157.4231 N   0  0  0  0  0  0  0  0  0  0  0  0
  154.9931  134.8532  158.3921 C   0  0  0  0  0  0  0  0  0  0  0  0
  154.2223  135.4055  159.3288 N   0  0  0  0  0  0  0  0  0  0  0  0
  153.2982  138.4832  161.7424 H   0  0  0  0  0  0  0  0  0  0  0  0
  154.9324  138.0121  161.2902 H   0  0  0  0  0  0  0  0  0  0  0  0
  153.7278  136.7815  161.6542 H   0  0  0  0  0  0  0  0  0  0  0  0
  152.3855  137.4322  159.6895 H   0  0  0  0  0  0  0  0  0  0  0  0
  151.5775  139.0670  158.6287 H   0  0  0  0  0  0  0  0  0  0  0  0
  153.2681  141.1560  157.3794 H   0  0  0  0  0  0  0  0  0  0  0  0
  151.5845  140.4035  155.8313 H   0  0  0  0  0  0  0  0  0  0  0  0
  150.3459  140.3958  157.0919 H   0  0  0  0  0  0  0  0  0  0  0  0
  151.7322  142.7988  155.8700 H   0  0  0  0  0  0  0  0  0  0  0  0
  150.0042  142.5916  156.1456 H   0  0  0  0  0  0  0  0  0  0  0  0
  152.7099  144.3537  157.4089 H   0  0  0  0  0  0  0  0  0  0  0  0
  151.0975  145.0227  157.2808 H   0  0  0  0  0  0  0  0  0  0  0  0
  152.3716  145.8772  159.2962 H   0  0  0  0  0  0  0  0  0  0  0  0
  150.8440  145.1449  159.6973 H   0  0  0  0  0  0  0  0  0  0  0  0
  153.4033  144.4414  160.7522 H   0  0  0  0  0  0  0  0  0  0  0  0
  151.8643  143.7023  161.1003 H   0  0  0  0  0  0  0  0  0  0  0  0
  153.8481  142.8765  158.9440 H   0  0  0  0  0  0  0  0  0  0  0  0
  153.3693  141.9520  160.3398 H   0  0  0  0  0  0  0  0  0  0  0  0
  151.0963  141.6388  159.4629 H   0  0  0  0  0  0  0  0  0  0  0  0
  155.0371  137.7695  157.3195 H   0  0  0  0  0  0  0  0  0  0  0  0
  155.2385  133.8016  158.4128 H   0  0  0  0  0  0  0  0  0  0  0  0
  150.2263  143.0906  158.2849 H   0  0  0  0  0  0  0  0  0  0  0  0
  1  2  1  0  0  0  0
  1 20  1  0  0  0  0
  1 21  1  0  0  0  0
  1 22  1  0  0  0  0
  2  3  1  0  0  0  0
  2 15  1  0  0  0  0
  2 23  1  0  0  0  0
  3  4  2  0  0  0  0
  3  5  1  0  0  0  0
  5  6  1  0  0  0  0
  5 24  1  0  0  0  0
  6 14  1  0  0  0  0
  6  7  1  0  0  0  0
  6 25  1  0  0  0  0
  7  8  1  0  0  0  0
  7 26  1  0  0  0  0
  7 27  1  0  0  0  0
  8  9  1  0  0  0  0
  8 28  1  0  0  0  0
  8 29  1  0  0  0  0
  9 14  1  0  0  0  0
  9 10  1  0  0  0  0
  9 41  1  0  0  0  0
 10 11  1  0  0  0  0
 10 30  1  0  0  0  0
 10 31  1  0  0  0  0
 11 12  1  0  0  0  0
 11 32  1  0  0  0  0
 11 33  1  0  0  0  0
 12 13  1  0  0  0  0
 12 34  1  0  0  0  0
 12 35  1  0  0  0  0
 13 14  1  0  0  0  0
 13 36  1  0  0  0  0
 13 37  1  0  0  0  0
 14 38  1  0  0  0  0
 15 19  1  0  0  0  0
 15 16  1  0  0  0  0
 16 17  2  0  0  0  0
 16 39  1  0  0  0  0
 17 18  1  0  0  0  0
 18 19  2  0  0  0  0
 18 40  1  0  0  0  0
M  CHG  1   9   1
M  END
> <s_m_source_file>
AV-unprocessed.smi

> <i_m_source_file_index>
1406

> <i_lp_mmshare_version>
43012

> <i_f3d_flags>
0

> <s_epik_input>
bjFbY0hdbltjSF1uMVtDQEhdKFtDSDNdKUMoPU8pW05IXVtDQEhdKFtDSDJdW0NIMl0yKVtDQEBIXShOMjMpW0NIMl1bQ0gyXVtDSDJdW0NIMl0z

> <s_epik_cmdline>
J2VwaWtfcHl0aG9uJywgJy1waCcsICc3LjAnLCAnLXRuJywgJzgnLCAnLW1hJywgJzIwMCcsICctbWV0YWxfYmluZGluZycsICctaW1hZScsICc8aW5maWxlLm1hZT4nLCAnLW9tYWUnLCAnPG91dGZpbGUubWFlPic=

> <r_lp_tautomer_probability>
1

> <r_epik_Ionization_Penalty>
0.00197066

> <r_epik_Ionization_Penalty_Charging>
0.00196223

> <r_epik_Ionization_Penalty_Neutral>
8.43107e-06

> <r_epik_State_Penalty>
0.00133866

> <r_epik_Charging_Adjusted_Penalty>
0.00330089

> <i_epik_Tot_Q>
1

> <i_epik_Tot_abs_Q>
1

> <r_epik_Metal_State_Penalty>
-0

> <b_epik_Metal_Only>
0

> <s_lp_Force_Field>
OPLS_2005

> <r_lp_Energy>
45.3415

> <b_lp_Chiralities_Consistent>
1

> <s_lp_Variant>
AV-unprocessed.smi:1406-16

> <Gold.Version>
5.8.1

> <Gold.Id.Protein>
6NUR|6NUR_protein|mol2

> <Gold.PLP.Fitness>
43.1027

> <Gold.PLP.PLP>
-35.6527

> <Gold.PLP.part.hbond>
-3.0000

> <Gold.PLP.part.metal>
0.0000

> <Gold.PLP.part.buried>
-4.7397

> <Gold.PLP.part.nonpolar>
-27.8303

> <Gold.PLP.part.repulsive>
0.1137

> <Gold.PLP.ligand.clash>
0.0000

> <Gold.PLP.ligand.torsion>
0.4183

> <Gold.PLP.Chemscore.Hbond>
2.7280

> <Gold.PLP.Chemscore.CHOScore>
0.0000

> <Gold.PLP.Chemscore.Metal>
0.0000

> <Gold.Chemscore.Hbonds>
donor molecule, donor type, donor heavy atom, donor atom, acceptor molecule, acceptor atom, score
      P1  H  6896  6907       L1    19  1.00
      P1  H  7997  8009       L1     4  1.00

> <Gold.PLP.Chemscore.Internal.Correction>
0.1026

> <Gold.Rescore>
     Score         DG    S(hbond)    S(metal)    S(lipo)     H(rot)  DE(clash)    DE(int)     intcor
     16.38     -18.11       1.96        0.00      93.45       1.89       0.03       1.70       ----

> <Gold.Chemscore.Fitness>
16.3793

> <Gold.Chemscore.DG>
-18.1150

> <Gold.Chemscore.ZeroCoef>
-5.4800

> <Gold.Chemscore.Hbond>
1.9555

> <Gold.Chemscore.Metal>
0.0000

> <Gold.Chemscore.Lipo>
93.4467

> <Gold.Chemscore.Internal_Hbond>
0.0000

> <Gold.Chemscore.DEClash>
0.0339

> <Gold.Chemscore.DEInternal>
1.7018

> <Gold.Chemscore.Rot>
1.8865

> <Gold.Chemscore.Internal.Correction>
   9.000000E+99

> <Gold.Chemscore.Hbonds>
donor molecule, donor type, donor heavy atom, donor atom, acceptor molecule, acceptor atom, score
      P1  H  6896  6907       L1    19  0.90
      P1  H  7997  8009       L1     4  0.90

> <Gold.Chemscore.Hbond.Weighted>
-6.5312

> <Gold.Chemscore.Metal.Weighted>
-0.0000

> <Gold.Chemscore.Lipo.Weighted>
-10.9333

> <Gold.Chemscore.Internal_Hbond.Weighted>
0.0000

> <Gold.Chemscore.DEClash.Weighted>
0.0339

> <Gold.Chemscore.DEInternal.Weighted>
1.7018

> <Gold.Chemscore.Rot.Weighted>
4.8295

> <Gold.Chemscore.Internal.Correction.Weighted>
   9.000000E+99

> <Gold.Protein.RotatedTorsions>
[ 6907 6896 6895 6894 ] final   68.97 input  -60.11 | X-H torsion
[ 7974 7965 7964 7962 ] final  -56.87 input  175.53 | X-H torsion
[ 8008 7997 7996 7995 ] final  116.30 input   59.86 | X-H torsion
[ 10167 10162 10161 10158 ] final -102.51 input  -65.29 | X-H torsion
[ 10718 10713 10712 10709 ] final  179.58 input   66.30 | X-H torsion
[ 10763 10752 10751 10750 ] final  -43.74 input  -60.55 | X-H torsion
[ 11005 11000 10999 10996 ] final   83.25 input  -57.11 | X-H torsion

> <Gold.Protein.ActiveResidues>
 VAL166  LYS551  ARG553  GLY616  TRP617  ASP618  TYR619  PRO620  LYS621  CYS622 
 ASP623  PHE694  ASN695  SER759  ASP760  ASP761  ALA762  ILE779  LEU786  VAL792 
 PHE793  MET794  SER795  GLU796  ALA797  LYS798  CYS799  TRP800  GLU811  SER814 

> <Gold.Protein.RotatedAtoms>
  152.4656  134.5084  159.9745 H   0  0  0  0  0  0  0  0  0  0  0  0  # atno 6907 bound_to 6896
  151.5123  133.3476  159.2895 H   0  0  0  0  0  0  0  0  0  0  0  0  # atno 6908 bound_to 6896
  150.8638  134.8025  159.7165 H   0  0  0  0  0  0  0  0  0  0  0  0  # atno 6909 bound_to 6896
  145.8577  140.8308  142.9953 H   0  0  0  0  0  0  0  0  0  0  0  0  # atno 7974 bound_to 7965
  156.2431  140.2920  156.0502 H   0  0  0  0  0  0  0  0  0  0  0  0  # atno 8008 bound_to 7997
  155.1890  140.0406  157.2914 H   0  0  0  0  0  0  0  0  0  0  0  0  # atno 8009 bound_to 7997
  154.6208  140.2475  155.7559 H   0  0  0  0  0  0  0  0  0  0  0  0  # atno 8010 bound_to 7997
  140.2298  143.3614  152.0896 H   0  0  0  0  0  0  0  0  0  0  0  0  # atno 10167 bound_to 10162
  156.8737  130.9792  151.3070 H   0  0  0  0  0  0  0  0  0  0  0  0  # atno 10718 bound_to 10713
  154.0006  135.6694  153.4759 H   0  0  0  0  0  0  0  0  0  0  0  0  # atno 10763 bound_to 10752
  153.0664  135.4998  154.8205 H   0  0  0  0  0  0  0  0  0  0  0  0  # atno 10764 bound_to 10752
  154.7055  135.3087  154.9240 H   0  0  0  0  0  0  0  0  0  0  0  0  # atno 10765 bound_to 10752
  139.9037  134.8131  156.2284 H   0  0  0  0  0  0  0  0  0  0  0  0  # atno 11005 bound_to 11000
  144.6727  140.1048  143.7458 LP  0  0  0  0  0  0  0  0  0  0  0  0  # atno 17320 bound_to 7965
  145.9285  139.2591  143.1339 LP  0  0  0  0  0  0  0  0  0  0  0  0  # atno 17321 bound_to 7965
  139.5114  144.6900  151.5786 LP  0  0  0  0  0  0  0  0  0  0  0  0  # atno 17342 bound_to 10162
  140.6193  143.9289  150.6513 LP  0  0  0  0  0  0  0  0  0  0  0  0  # atno 17343 bound_to 10162
  157.6181  130.8634  149.9062 LP  0  0  0  0  0  0  0  0  0  0  0  0  # atno 17370 bound_to 10713
  156.0713  130.3685  150.0770 LP  0  0  0  0  0  0  0  0  0  0  0  0  # atno 17371 bound_to 10713
  141.0361  133.6962  156.1515 LP  0  0  0  0  0  0  0  0  0  0  0  0  # atno 17394 bound_to 11000
  140.7025  134.4549  157.5585 LP  0  0  0  0  0  0  0  0  0  0  0  0  # atno 17395 bound_to 11000

$$$$
