AV-unprocessed.smi:2224|AV-procd|sdf|8997|dock3
  -GOLD-   2272012203D 1   1.00000     0.00000
 Structure written by MMmdl.
 44 46  0  0  0  0  0  0  0  0  1 V2000
  141.8031  134.8340  153.2334 C   0  0  0  0  0  0  0  0  0  0  0  0
  143.1490  134.4723  152.6413 C   0  0  0  0  0  0  0  0  0  0  0  0
  143.2648  133.4472  151.6831 C   0  0  0  0  0  0  0  0  0  0  0  0
  144.5446  133.1582  151.1703 C   0  0  0  0  0  0  0  0  0  0  0  0
  144.7413  132.0706  150.1353 C   0  0  0  0  0  0  0  0  0  0  0  0
  145.6581  133.8184  151.5541 N   0  0  0  0  0  0  0  0  0  0  0  0
  145.5589  134.8074  152.4766 C   0  0  0  0  0  0  0  0  0  0  0  0
  146.6676  135.5621  152.9451 N   0  0  0  0  0  0  0  0  0  0  0  0
  146.7942  136.2123  154.1154 C   0  0  0  0  0  0  0  0  0  0  0  0
  145.9331  136.2768  154.9931 O   0  0  0  0  0  0  0  0  0  0  0  0
  147.9983  136.7910  154.2223 N   0  0  0  0  0  0  0  0  0  0  0  0
  148.4452  137.5663  155.3848 C   0  0  2  0  0  0  0  0  0  0  0  0
  148.3736  139.0778  155.1511 C   0  0  2  0  0  0  0  0  0  0  0  0
  147.6833  139.9759  154.1891 C   0  0  0  0  0  0  0  0  0  0  0  0
  148.8706  140.9471  153.9456 C   0  0  0  0  0  0  0  0  0  0  0  0
  150.0280  140.3273  154.5632 O   0  0  0  0  0  0  0  0  0  0  0  0
  149.7402  138.9440  154.5125 C   0  0  1  0  0  0  0  0  0  0  0  0
  150.0068  137.7857  155.4996 C   0  0  0  0  0  0  0  0  0  0  0  0
  150.5662  138.1579  156.8847 C   0  0  0  0  0  0  0  0  0  0  0  0
  150.9144  136.6698  154.9701 C   0  0  0  0  0  0  0  0  0  0  0  0
  144.3126  135.1592  153.0424 C   0  0  0  0  0  0  0  0  0  0  0  0
  140.9982  134.2682  152.7634 H   0  0  0  0  0  0  0  0  0  0  0  0
  141.6007  135.8958  153.0915 H   0  0  0  0  0  0  0  0  0  0  0  0
  141.7917  134.6208  154.3024 H   0  0  0  0  0  0  0  0  0  0  0  0
  142.3966  132.8974  151.3498 H   0  0  0  0  0  0  0  0  0  0  0  0
  143.8412  131.4654  150.0226 H   0  0  0  0  0  0  0  0  0  0  0  0
  145.5591  131.4100  150.4246 H   0  0  0  0  0  0  0  0  0  0  0  0
  144.9807  132.5106  149.1669 H   0  0  0  0  0  0  0  0  0  0  0  0
  147.4596  135.6019  152.3211 H   0  0  0  0  0  0  0  0  0  0  0  0
  148.6501  136.6926  153.4578 H   0  0  0  0  0  0  0  0  0  0  0  0
  147.9804  137.2622  156.3242 H   0  0  0  0  0  0  0  0  0  0  0  0
  148.4092  139.5756  156.1233 H   0  0  0  0  0  0  0  0  0  0  0  0
  147.3852  139.4562  153.2777 H   0  0  0  0  0  0  0  0  0  0  0  0
  146.8146  140.4738  154.6202 H   0  0  0  0  0  0  0  0  0  0  0  0
  149.0406  141.0927  152.8781 H   0  0  0  0  0  0  0  0  0  0  0  0
  148.6970  141.9245  154.3966 H   0  0  0  0  0  0  0  0  0  0  0  0
  149.7160  138.5992  153.4736 H   0  0  0  0  0  0  0  0  0  0  0  0
  151.5547  138.6104  156.8014 H   0  0  0  0  0  0  0  0  0  0  0  0
  150.6649  137.2781  157.5212 H   0  0  0  0  0  0  0  0  0  0  0  0
  149.9426  138.8633  157.4313 H   0  0  0  0  0  0  0  0  0  0  0  0
  151.9652  136.9593  155.0008 H   0  0  0  0  0  0  0  0  0  0  0  0
  150.6899  136.4162  153.9340 H   0  0  0  0  0  0  0  0  0  0  0  0
  150.8065  135.7566  155.5565 H   0  0  0  0  0  0  0  0  0  0  0  0
  144.2463  135.9492  153.7768 H   0  0  0  0  0  0  0  0  0  0  0  0
  1  2  1  0  0  0  0
  1 22  1  0  0  0  0
  1 23  1  0  0  0  0
  1 24  1  0  0  0  0
  2 21  1  0  0  0  0
  2  3  2  0  0  0  0
  3  4  1  0  0  0  0
  3 25  1  0  0  0  0
  4  5  1  0  0  0  0
  4  6  2  0  0  0  0
  5 26  1  0  0  0  0
  5 27  1  0  0  0  0
  5 28  1  0  0  0  0
  6  7  1  0  0  0  0
  7  8  1  0  0  0  0
  7 21  2  0  0  0  0
  8  9  1  0  0  0  0
  8 29  1  0  0  0  0
  9 10  2  0  0  0  0
  9 11  1  0  0  0  0
 11 12  1  0  0  0  0
 11 30  1  0  0  0  0
 12 18  1  0  0  0  0
 12 13  1  0  0  0  0
 12 31  1  0  0  0  0
 13 17  1  0  0  0  0
 13 14  1  0  0  0  0
 13 32  1  0  0  0  0
 14 15  1  0  0  0  0
 14 33  1  0  0  0  0
 14 34  1  0  0  0  0
 15 16  1  0  0  0  0
 15 35  1  0  0  0  0
 15 36  1  0  0  0  0
 16 17  1  0  0  0  0
 17 18  1  0  0  0  0
 17 37  1  0  0  0  0
 18 19  1  0  0  0  0
 18 20  1  0  0  0  0
 19 38  1  0  0  0  0
 19 39  1  0  0  0  0
 19 40  1  0  0  0  0
 20 41  1  0  0  0  0
 20 42  1  0  0  0  0
 20 43  1  0  0  0  0
 21 44  1  0  0  0  0
M  END
> <s_m_source_file>
AV-unprocessed.smi

> <i_m_source_file_index>
2224

> <i_lp_mmshare_version>
43012

> <i_f3d_flags>
0

> <s_epik_input>
W0NIM11jMVtjSF1jKFtDSDNdKW5jKFtjSF0xKVtOSF1DKD1PKVtOSF1bQ0BIXTJDKFtDSDNdKShbQ0gzXSlbQ0BIXShbQ0BASF0yMylPW0NIMl1bQ0gyXTM=

> <s_epik_cmdline>
J2VwaWtfcHl0aG9uJywgJy1waCcsICc3LjAnLCAnLXRuJywgJzgnLCAnLW1hJywgJzIwMCcsICctbWV0YWxfYmluZGluZycsICctaW1hZScsICc8aW5maWxlLm1hZT4nLCAnLW9tYWUnLCAnPG91dGZpbGUubWFlPic=

> <r_lp_tautomer_probability>
1

> <r_epik_Ionization_Penalty>
0.000276544

> <r_epik_Ionization_Penalty_Charging>
0

> <r_epik_Ionization_Penalty_Neutral>
0.000276544

> <r_epik_State_Penalty>
-0

> <r_epik_Charging_Adjusted_Penalty>
0

> <i_epik_Tot_Q>
0

> <i_epik_Tot_abs_Q>
0

> <r_epik_Metal_State_Penalty>
-0

> <b_epik_Metal_Only>
0

> <s_lp_Force_Field>
OPLS_2005

> <r_lp_Energy>
64.3879

> <b_lp_Chiralities_Consistent>
1

> <s_lp_Variant>
AV-unprocessed.smi:2224-7

> <Gold.Version>
5.8.1

> <Gold.Id.Protein>
6NUR|6NUR_protein|mol2

> <Gold.PLP.Fitness>
36.9296

> <Gold.PLP.PLP>
-28.4945

> <Gold.PLP.part.hbond>
-3.0000

> <Gold.PLP.part.metal>
0.0000

> <Gold.PLP.part.buried>
-2.8483

> <Gold.PLP.part.nonpolar>
-22.4260

> <Gold.PLP.part.repulsive>
0.2484

> <Gold.PLP.ligand.clash>
0.0000

> <Gold.PLP.ligand.torsion>
0.3759

> <Gold.PLP.Chemscore.Hbond>
2.9760

> <Gold.PLP.Chemscore.CHOScore>
0.0000

> <Gold.PLP.Chemscore.Metal>
0.0000

> <Gold.Chemscore.Hbonds>
donor molecule, donor type, donor heavy atom, donor atom, acceptor molecule, acceptor atom, score
      L1  H     8    29       P1  7948  1.00
      L1  H    11    30       P1  7948  1.00
      P1  H  7989  7998       L1    16  0.96

> <Gold.PLP.Chemscore.Internal.Correction>
0.2589

> <Gold.Rescore>
     Score         DG    S(hbond)    S(metal)    S(lipo)     H(rot)  DE(clash)    DE(int)     intcor
     18.50     -20.67       2.68        0.00      75.21       1.00       0.38       1.79       ----

> <Gold.Chemscore.Fitness>
18.4994

> <Gold.Chemscore.DG>
-20.6696

> <Gold.Chemscore.ZeroCoef>
-5.4800

> <Gold.Chemscore.Hbond>
2.6796

> <Gold.Chemscore.Metal>
0.0000

> <Gold.Chemscore.Lipo>
75.2120

> <Gold.Chemscore.Internal_Hbond>
0.0000

> <Gold.Chemscore.DEClash>
0.3793

> <Gold.Chemscore.DEInternal>
1.7909

> <Gold.Chemscore.Rot>
1.0000

> <Gold.Chemscore.Internal.Correction>
   9.000000E+99

> <Gold.Chemscore.Hbonds>
donor molecule, donor type, donor heavy atom, donor atom, acceptor molecule, acceptor atom, score
      L1  H     8    29       P1  7948  0.97
      L1  H    11    30       P1  7948  0.94
      P1  H  7989  7998       L1    16  0.45

> <Gold.Chemscore.Hbond.Weighted>
-8.9498

> <Gold.Chemscore.Metal.Weighted>
-0.0000

> <Gold.Chemscore.Lipo.Weighted>
-8.7998

> <Gold.Chemscore.Internal_Hbond.Weighted>
0.0000

> <Gold.Chemscore.DEClash.Weighted>
0.3793

> <Gold.Chemscore.DEInternal.Weighted>
1.7909

> <Gold.Chemscore.Rot.Weighted>
2.5600

> <Gold.Chemscore.Internal.Correction.Weighted>
   9.000000E+99

> <Gold.Protein.RotatedTorsions>
[ 6907 6896 6895 6894 ] final  -83.50 input  -60.11 | X-H torsion
[ 7974 7965 7964 7962 ] final -108.72 input  175.53 | X-H torsion
[ 8008 7997 7996 7995 ] final   23.91 input   59.86 | X-H torsion
[ 10167 10162 10161 10158 ] final   87.14 input  -65.29 | X-H torsion
[ 10718 10713 10712 10709 ] final   54.55 input   66.30 | X-H torsion
[ 10763 10752 10751 10750 ] final  -38.72 input  -60.55 | X-H torsion
[ 11005 11000 10999 10996 ] final   56.25 input  -57.11 | X-H torsion

> <Gold.Protein.ActiveResidues>
 VAL166  LYS551  ARG553  GLY616  TRP617  ASP618  TYR619  PRO620  LYS621  CYS622 
 ASP623  PHE694  ASN695  SER759  ASP760  ASP761  ALA762  ILE779  LEU786  VAL792 
 PHE793  MET794  SER795  GLU796  ALA797  LYS798  CYS799  TRP800  GLU811  SER814 

> <Gold.Protein.RotatedAtoms>
  150.6885  134.3502  159.4905 H   0  0  0  0  0  0  0  0  0  0  0  0  # atno 6907 bound_to 6896
  152.1345  134.9107  160.0566 H   0  0  0  0  0  0  0  0  0  0  0  0  # atno 6908 bound_to 6896
  152.0264  133.3885  159.4316 H   0  0  0  0  0  0  0  0  0  0  0  0  # atno 6909 bound_to 6896
  145.1894  140.9008  143.3433 H   0  0  0  0  0  0  0  0  0  0  0  0  # atno 7974 bound_to 7965
  154.9882  140.3110  155.4917 H   0  0  0  0  0  0  0  0  0  0  0  0  # atno 8008 bound_to 7997
  156.2943  140.2254  156.4926 H   0  0  0  0  0  0  0  0  0  0  0  0  # atno 8009 bound_to 7997
  154.7727  140.0451  157.1052 H   0  0  0  0  0  0  0  0  0  0  0  0  # atno 8010 bound_to 7997
  139.8804  144.6443  150.8849 H   0  0  0  0  0  0  0  0  0  0  0  0  # atno 10167 bound_to 10162
  157.5267  130.8602  149.8631 H   0  0  0  0  0  0  0  0  0  0  0  0  # atno 10718 bound_to 10713
  153.9174  135.6786  153.4749 H   0  0  0  0  0  0  0  0  0  0  0  0  # atno 10763 bound_to 10752
  153.1046  135.4811  154.8926 H   0  0  0  0  0  0  0  0  0  0  0  0  # atno 10764 bound_to 10752
  154.7495  135.3181  154.8539 H   0  0  0  0  0  0  0  0  0  0  0  0  # atno 10765 bound_to 10752
  140.0543  134.5692  155.9226 H   0  0  0  0  0  0  0  0  0  0  0  0  # atno 11005 bound_to 11000
  145.0056  139.3557  143.6145 LP  0  0  0  0  0  0  0  0  0  0  0  0  # atno 17320 bound_to 7965
  146.3439  139.9298  142.8755 LP  0  0  0  0  0  0  0  0  0  0  0  0  # atno 17321 bound_to 7965
  140.7745  143.3590  151.1865 LP  0  0  0  0  0  0  0  0  0  0  0  0  # atno 17342 bound_to 10162
  139.7201  143.9237  152.2982 LP  0  0  0  0  0  0  0  0  0  0  0  0  # atno 17343 bound_to 10162
  156.0392  130.3743  150.1479 LP  0  0  0  0  0  0  0  0  0  0  0  0  # atno 17370 bound_to 10713
  156.9666  130.9821  151.3468 LP  0  0  0  0  0  0  0  0  0  0  0  0  # atno 17371 bound_to 10713
  141.1945  133.6583  156.5597 LP  0  0  0  0  0  0  0  0  0  0  0  0  # atno 17394 bound_to 11000
  140.3868  134.7475  157.4696 LP  0  0  0  0  0  0  0  0  0  0  0  0  # atno 17395 bound_to 11000

$$$$
