AV-unprocessed.smi:3101|AV-procd|sdf|11808|dock1
  -GOLD-   2272017183D 1   1.00000     0.00000
 Structure written by MMmdl.
 28 29  0  0  0  0  0  0  0  0  1 V2000
  153.2182  141.8646  160.7275 C   0  0  0  0  0  0  0  0  0  0  0  0
  153.0481  142.6114  159.3948 C   0  0  2  0  0  0  0  0  0  0  0  0
  152.6880  144.0745  159.5622 C   0  0  0  0  0  0  0  0  0  0  0  0
  152.0794  144.4310  158.2067 C   0  0  0  0  0  0  0  0  0  0  0  0
  151.6316  143.2060  157.6314 O   0  0  0  0  0  0  0  0  0  0  0  0
  151.8795  142.1250  158.5260 C   0  0  1  0  0  0  0  0  0  0  0  0
  152.1285  140.8404  157.7222 C   0  0  0  0  0  0  0  0  0  0  0  0
  153.0447  140.0786  158.0333 O   0  0  0  0  0  0  0  0  0  0  0  0
  151.2807  140.6287  156.6983 N   0  0  0  0  0  0  0  0  0  0  0  0
  151.2534  139.5359  155.7926 C   0  0  0  0  0  0  0  0  0  0  0  0
  151.8707  138.3465  156.2465 C   0  0  0  0  0  0  0  0  0  0  0  0
  151.9280  137.2226  155.4977 N   0  0  0  0  0  0  0  0  0  0  0  0
  151.3598  137.2824  154.2746 C   0  0  0  0  0  0  0  0  0  0  0  0
  150.7397  138.4579  153.8060 C   0  0  0  0  0  0  0  0  0  0  0  0
  150.6870  139.5778  154.5594 N   0  0  0  0  0  0  0  0  0  0  0  0
  152.3077  141.9065  161.3258 H   0  0  0  0  0  0  0  0  0  0  0  0
  154.0242  142.3019  161.3170 H   0  0  0  0  0  0  0  0  0  0  0  0
  153.4615  140.8145  160.5671 H   0  0  0  0  0  0  0  0  0  0  0  0
  153.9781  142.5473  158.8269 H   0  0  0  0  0  0  0  0  0  0  0  0
  151.9368  144.1920  160.3448 H   0  0  0  0  0  0  0  0  0  0  0  0
  153.5442  144.6987  159.8192 H   0  0  0  0  0  0  0  0  0  0  0  0
  151.2595  145.1430  158.3038 H   0  0  0  0  0  0  0  0  0  0  0  0
  152.8309  144.8680  157.5486 H   0  0  0  0  0  0  0  0  0  0  0  0
  150.9901  141.9890  159.1438 H   0  0  0  0  0  0  0  0  0  0  0  0
  150.5765  141.3371  156.5504 H   0  0  0  0  0  0  0  0  0  0  0  0
  152.3266  138.2934  157.2246 H   0  0  0  0  0  0  0  0  0  0  0  0
  151.3996  136.3902  153.6674 H   0  0  0  0  0  0  0  0  0  0  0  0
  150.2858  138.5000  152.8269 H   0  0  0  0  0  0  0  0  0  0  0  0
  1  2  1  0  0  0  0
  1 16  1  0  0  0  0
  1 17  1  0  0  0  0
  1 18  1  0  0  0  0
  2  6  1  0  0  0  0
  2  3  1  0  0  0  0
  2 19  1  0  0  0  0
  3  4  1  0  0  0  0
  3 20  1  0  0  0  0
  3 21  1  0  0  0  0
  4  5  1  0  0  0  0
  4 22  1  0  0  0  0
  4 23  1  0  0  0  0
  5  6  1  0  0  0  0
  6  7  1  0  0  0  0
  6 24  1  0  0  0  0
  7  8  2  0  0  0  0
  7  9  1  0  0  0  0
  9 10  1  0  0  0  0
  9 25  1  0  0  0  0
 10 15  1  0  0  0  0
 10 11  2  0  0  0  0
 11 12  1  0  0  0  0
 11 26  1  0  0  0  0
 12 13  2  0  0  0  0
 13 14  1  0  0  0  0
 13 27  1  0  0  0  0
 14 15  2  0  0  0  0
 14 28  1  0  0  0  0
M  END
> <s_m_source_file>
AV-unprocessed.smi

> <i_m_source_file_index>
3101

> <i_lp_mmshare_version>
43012

> <i_f3d_flags>
0

> <s_epik_input>
W0NIM11bQ0BASF0xW0NIMl1bQ0gyXU9bQ0BIXTFDKD1PKVtOSF1jMltjSF1uW2NIXVtjSF1uMg==

> <s_epik_cmdline>
J2VwaWtfcHl0aG9uJywgJy1waCcsICc3LjAnLCAnLXRuJywgJzgnLCAnLW1hJywgJzIwMCcsICctbWV0YWxfYmluZGluZycsICctaW1hZScsICc8aW5maWxlLm1hZT4nLCAnLW9tYWUnLCAnPG91dGZpbGUubWFlPic=

> <r_lp_tautomer_probability>
1

> <r_epik_Ionization_Penalty>
2.83174e-06

> <r_epik_Ionization_Penalty_Charging>
0

> <r_epik_Ionization_Penalty_Neutral>
2.83174e-06

> <r_epik_State_Penalty>
-0

> <r_epik_Charging_Adjusted_Penalty>
0

> <i_epik_Tot_Q>
0

> <i_epik_Tot_abs_Q>
0

> <r_epik_Metal_State_Penalty>
-0

> <b_epik_Metal_Only>
0

> <s_lp_Force_Field>
OPLS_2005

> <r_lp_Energy>
26.5454

> <b_lp_Chiralities_Consistent>
1

> <s_lp_Variant>
AV-unprocessed.smi:3101-1

> <Gold.Version>
5.8.1

> <Gold.Id.Protein>
6NUR|6NUR_protein|mol2

> <Gold.PLP.Fitness>
44.3656

> <Gold.PLP.PLP>
-30.5825

> <Gold.PLP.part.hbond>
-2.9622

> <Gold.PLP.part.metal>
0.0000

> <Gold.PLP.part.buried>
-1.7056

> <Gold.PLP.part.nonpolar>
-26.1463

> <Gold.PLP.part.repulsive>
0.3372

> <Gold.PLP.ligand.clash>
0.0000

> <Gold.PLP.ligand.torsion>
0.5664

> <Gold.PLP.Chemscore.Hbond>
2.4106

> <Gold.PLP.Chemscore.CHOScore>
2.5593

> <Gold.PLP.Chemscore.Metal>
0.0000

> <Gold.Chemscore.Hbonds>
donor molecule, donor type, donor heavy atom, donor atom, acceptor molecule, acceptor atom, score
      P1  H  7989  7998       L1    15  1.00
      P1  H  7997  8010       L1     8  1.00
      P1  H 10752 10763       L1    12  0.39
      L1  C    13    27       P1  7949  1.00
      L1  C    14    28       P1  7948  0.32
      L1  C    14    28       P1  7957  0.99

> <Gold.PLP.Chemscore.Internal.Correction>
0.0063

> <Gold.Rescore>
     Score         DG    S(hbond)    S(metal)    S(lipo)     H(rot)  DE(clash)    DE(int)     intcor
     15.64     -17.55       1.56        0.00      80.65       1.00       0.01       1.90       ----

> <Gold.Chemscore.Fitness>
15.6438

> <Gold.Chemscore.DG>
-17.5516

> <Gold.Chemscore.ZeroCoef>
-5.4800

> <Gold.Chemscore.Hbond>
1.5557

> <Gold.Chemscore.Metal>
0.0000

> <Gold.Chemscore.Lipo>
80.6463

> <Gold.Chemscore.Internal_Hbond>
0.0000

> <Gold.Chemscore.DEClash>
0.0107

> <Gold.Chemscore.DEInternal>
1.8971

> <Gold.Chemscore.Rot>
1.0000

> <Gold.Chemscore.Internal.Correction>
   9.000000E+99

> <Gold.Chemscore.Hbonds>
donor molecule, donor type, donor heavy atom, donor atom, acceptor molecule, acceptor atom, score
      P1  H  7989  7998       L1    15  0.28
      P1  H  7997  8010       L1     8  0.91
      P1  H 10752 10763       L1    12  0.03

> <Gold.Chemscore.Hbond.Weighted>
-5.1959

> <Gold.Chemscore.Metal.Weighted>
-0.0000

> <Gold.Chemscore.Lipo.Weighted>
-9.4356

> <Gold.Chemscore.Internal_Hbond.Weighted>
0.0000

> <Gold.Chemscore.DEClash.Weighted>
0.0107

> <Gold.Chemscore.DEInternal.Weighted>
1.8971

> <Gold.Chemscore.Rot.Weighted>
2.5600

> <Gold.Chemscore.Internal.Correction.Weighted>
   9.000000E+99

> <Gold.Protein.RotatedTorsions>
[ 6907 6896 6895 6894 ] final  -56.75 input  -60.11 | X-H torsion
[ 7974 7965 7964 7962 ] final  151.17 input  175.53 | X-H torsion
[ 8008 7997 7996 7995 ] final   40.16 input   59.86 | X-H torsion
[ 10167 10162 10161 10158 ] final   33.12 input  -65.29 | X-H torsion
[ 10718 10713 10712 10709 ] final  166.22 input   66.30 | X-H torsion
[ 10763 10752 10751 10750 ] final   83.18 input  -60.55 | X-H torsion
[ 11005 11000 10999 10996 ] final   28.25 input  -57.11 | X-H torsion

> <Gold.Protein.ActiveResidues>
 VAL166  LYS551  ARG553  GLY616  TRP617  ASP618  TYR619  PRO620  LYS621  CYS622 
 ASP623  PHE694  ASN695  SER759  ASP760  ASP761  ALA762  ILE779  LEU786  VAL792 
 PHE793  MET794  SER795  GLU796  ALA797  LYS798  CYS799  TRP800  GLU811  SER814 

> <Gold.Protein.RotatedAtoms>
  150.8142  134.7315  159.6714 H   0  0  0  0  0  0  0  0  0  0  0  0  # atno 6907 bound_to 6896
  152.4261  134.5862  159.9971 H   0  0  0  0  0  0  0  0  0  0  0  0  # atno 6908 bound_to 6896
  151.6063  133.3314  159.3094 H   0  0  0  0  0  0  0  0  0  0  0  0  # atno 6909 bound_to 6896
  144.8311  139.6504  143.6058 H   0  0  0  0  0  0  0  0  0  0  0  0  # atno 7974 bound_to 7965
  155.2485  140.3350  155.4284 H   0  0  0  0  0  0  0  0  0  0  0  0  # atno 8008 bound_to 7997
  156.2226  140.1815  156.7485 H   0  0  0  0  0  0  0  0  0  0  0  0  # atno 8009 bound_to 7997
  154.5848  140.0647  156.9141 H   0  0  0  0  0  0  0  0  0  0  0  0  # atno 8010 bound_to 7997
  140.4436  144.1151  150.6178 H   0  0  0  0  0  0  0  0  0  0  0  0  # atno 10167 bound_to 10162
  157.0689  131.0360  151.2619 H   0  0  0  0  0  0  0  0  0  0  0  0  # atno 10718 bound_to 10713
  153.1268  135.4701  154.9285 H   0  0  0  0  0  0  0  0  0  0  0  0  # atno 10763 bound_to 10752
  154.7627  135.3136  154.8348 H   0  0  0  0  0  0  0  0  0  0  0  0  # atno 10764 bound_to 10752
  153.8900  135.6885  153.4815 H   0  0  0  0  0  0  0  0  0  0  0  0  # atno 10765 bound_to 10752
  140.3175  134.2580  155.7723 H   0  0  0  0  0  0  0  0  0  0  0  0  # atno 11005 bound_to 11000
  146.2614  139.6419  142.9359 LP  0  0  0  0  0  0  0  0  0  0  0  0  # atno 17320 bound_to 7965
  145.4893  141.0438  143.2602 LP  0  0  0  0  0  0  0  0  0  0  0  0  # atno 17321 bound_to 7965
  140.4289  143.2577  151.9620 LP  0  0  0  0  0  0  0  0  0  0  0  0  # atno 17342 bound_to 10162
  139.4791  144.5762  151.8008 LP  0  0  0  0  0  0  0  0  0  0  0  0  # atno 17343 bound_to 10162
  157.4894  130.7813  149.7492 LP  0  0  0  0  0  0  0  0  0  0  0  0  # atno 17370 bound_to 10713
  155.9956  130.3911  150.2812 LP  0  0  0  0  0  0  0  0  0  0  0  0  # atno 17371 bound_to 10713
  141.2094  133.7749  156.9998 LP  0  0  0  0  0  0  0  0  0  0  0  0  # atno 17394 bound_to 11000
  140.0970  134.9558  157.1865 LP  0  0  0  0  0  0  0  0  0  0  0  0  # atno 17395 bound_to 11000

$$$$
