AV-unprocessed.smi:1698|AV-procd|sdf|6814|dock1
  -GOLD-   22720 7593D 1   1.00000     0.00000
 Structure written by MMmdl.
 28 29  0  0  0  0  0  0  0  0  1 V2000
  146.5002  132.9577  153.6387 O   0  0  0  0  0  0  0  0  0  0  0  0
  147.1468  133.7796  152.9922 C   0  0  0  0  0  0  0  0  0  0  0  0
  146.8355  134.1845  151.7462 N   0  0  0  0  0  0  0  0  0  0  0  0
  145.7434  133.7624  150.9473 C   0  0  0  0  0  0  0  0  0  0  0  0
  145.7595  132.6281  150.0909 C   0  0  0  0  0  0  0  0  0  0  0  0
  144.5993  132.4759  149.4684 N   0  0  0  0  0  0  0  0  0  0  0  0
  143.8432  133.5023  149.9192 N   0  0  0  0  0  0  0  0  0  0  0  0
  144.4983  134.3116  150.8211 C   0  0  0  0  0  0  0  0  0  0  0  0
  148.2542  134.3502  153.5000 N   0  0  0  0  0  0  0  0  0  0  0  0
  148.8647  134.1355  154.8130 C   0  0  1  0  0  0  0  0  0  0  0  0
  150.0470  133.1533  154.7154 C   0  0  0  0  0  0  0  0  0  0  0  0
  150.8640  133.2327  156.0115 C   0  0  0  0  0  0  0  0  0  0  0  0
  150.6793  134.9500  156.6260 S   0  0  0  0  0  0  0  0  0  0  0  0
  150.0927  134.9115  157.9742 O   0  0  0  0  0  0  0  0  0  0  0  0
  151.9107  135.7075  156.3569 O   0  0  0  0  0  0  0  0  0  0  0  0
  149.3943  135.4457  155.4186 C   0  0  0  0  0  0  0  0  0  0  0  0
  142.8923  133.6359  149.6056 H   0  0  0  0  0  0  0  0  0  0  0  0
  147.4507  134.8644  151.3243 H   0  0  0  0  0  0  0  0  0  0  0  0
  146.5574  131.9245  149.9047 H   0  0  0  0  0  0  0  0  0  0  0  0
  144.0290  135.1733  151.2721 H   0  0  0  0  0  0  0  0  0  0  0  0
  148.7356  135.0018  152.8970 H   0  0  0  0  0  0  0  0  0  0  0  0
  148.1350  133.6995  155.4977 H   0  0  0  0  0  0  0  0  0  0  0  0
  149.7131  132.1346  154.5156 H   0  0  0  0  0  0  0  0  0  0  0  0
  150.6884  133.4455  153.8824 H   0  0  0  0  0  0  0  0  0  0  0  0
  150.4574  132.5606  156.7675 H   0  0  0  0  0  0  0  0  0  0  0  0
  151.9178  132.9955  155.8652 H   0  0  0  0  0  0  0  0  0  0  0  0
  149.8733  136.0658  154.6600 H   0  0  0  0  0  0  0  0  0  0  0  0
  148.6234  136.0364  155.9138 H   0  0  0  0  0  0  0  0  0  0  0  0
  1  2  2  0  0  0  0
  2  3  1  0  0  0  0
  2  9  1  0  0  0  0
  3  4  1  0  0  0  0
  3 18  1  0  0  0  0
  4  8  2  0  0  0  0
  4  5  1  0  0  0  0
  5  6  2  0  0  0  0
  5 19  1  0  0  0  0
  6  7  1  0  0  0  0
  7 17  1  0  0  0  0
  7  8  1  0  0  0  0
  8 20  1  0  0  0  0
  9 10  1  0  0  0  0
  9 21  1  0  0  0  0
 10 16  1  0  0  0  0
 10 11  1  0  0  0  0
 10 22  1  0  0  0  0
 11 12  1  0  0  0  0
 11 23  1  0  0  0  0
 11 24  1  0  0  0  0
 12 13  1  0  0  0  0
 12 25  1  0  0  0  0
 12 26  1  0  0  0  0
 13 14  2  0  0  0  0
 13 15  2  0  0  0  0
 13 16  1  0  0  0  0
 16 27  1  0  0  0  0
 16 28  1  0  0  0  0
M  END
> <s_m_source_file>
AV-unprocessed.smi

> <i_m_source_file_index>
1698

> <i_lp_mmshare_version>
43012

> <i_f3d_flags>
0

> <s_epik_input>
Tz1TMSg9TylbQ0gyXVtDSDJdW0NASF0oW0NIMl0xKVtOSF1DKD1PKVtOSF1jMltjSF1uW25IXVtjSF0y

> <s_epik_cmdline>
J2VwaWtfcHl0aG9uJywgJy1waCcsICc3LjAnLCAnLXRuJywgJzgnLCAnLW1hJywgJzIwMCcsICctbWV0YWxfYmluZGluZycsICctaW1hZScsICc8aW5maWxlLm1hZT4nLCAnLW9tYWUnLCAnPG91dGZpbGUubWFlPic=

> <r_lp_tautomer_probability>
1

> <r_epik_Ionization_Penalty>
3.85517e-05

> <r_epik_Ionization_Penalty_Charging>
0

> <r_epik_Ionization_Penalty_Neutral>
3.85517e-05

> <r_epik_State_Penalty>
-0

> <r_epik_Charging_Adjusted_Penalty>
0

> <i_epik_Tot_Q>
0

> <i_epik_Tot_abs_Q>
0

> <r_epik_Metal_State_Penalty>
-0

> <b_epik_Metal_Only>
0

> <s_lp_Force_Field>
OPLS_2005

> <r_lp_Energy>
17.454

> <b_lp_Chiralities_Consistent>
1

> <s_lp_Variant>
AV-unprocessed.smi:1698-2

> <Gold.Version>
5.8.1

> <Gold.Id.Protein>
6NUR|6NUR_protein|mol2

> <Gold.PLP.Fitness>
37.1205

> <Gold.PLP.PLP>
-23.0186

> <Gold.PLP.part.hbond>
-5.0000

> <Gold.PLP.part.metal>
0.0000

> <Gold.PLP.part.buried>
-3.8846

> <Gold.PLP.part.nonpolar>
-14.6226

> <Gold.PLP.part.repulsive>
0.3696

> <Gold.PLP.ligand.clash>
0.0000

> <Gold.PLP.ligand.torsion>
1.0423

> <Gold.PLP.Chemscore.Hbond>
4.7280

> <Gold.PLP.Chemscore.CHOScore>
0.6670

> <Gold.PLP.Chemscore.Metal>
0.0000

> <Gold.Chemscore.Hbonds>
donor molecule, donor type, donor heavy atom, donor atom, acceptor molecule, acceptor atom, score
      L1  H     3    18       P1  7948  0.81
      L1  H     7    17       P1 10186  0.98
      L1  H     9    21       P1  7948  1.00
      P1  H  6896  6907       L1    14  0.85
      P1  H 10752 10764       L1    15  1.00
      L1  C     5    19       P1 10747  0.68

> <Gold.PLP.Chemscore.Internal.Correction>
0.0014

> <Gold.Rescore>
     Score         DG    S(hbond)    S(metal)    S(lipo)     H(rot)  DE(clash)    DE(int)     intcor
     20.80     -21.85       4.35        0.00      37.54       1.00       0.02       1.04       ----

> <Gold.Chemscore.Fitness>
20.7987

> <Gold.Chemscore.DG>
-21.8506

> <Gold.Chemscore.ZeroCoef>
-5.4800

> <Gold.Chemscore.Hbond>
4.3529

> <Gold.Chemscore.Metal>
0.0000

> <Gold.Chemscore.Lipo>
37.5362

> <Gold.Chemscore.Internal_Hbond>
0.0000

> <Gold.Chemscore.DEClash>
0.0158

> <Gold.Chemscore.DEInternal>
1.0361

> <Gold.Chemscore.Rot>
1.0000

> <Gold.Chemscore.Internal.Correction>
   9.000000E+99

> <Gold.Chemscore.Hbonds>
donor molecule, donor type, donor heavy atom, donor atom, acceptor molecule, acceptor atom, score
      L1  H     3    18       P1  7948  0.26
      L1  H     7    17       P1 10186  0.90
      L1  H     9    21       P1  7948  0.29
      P1  H  6896  6907       L1    14  0.83
      P1  H 10752 10764       L1    15  1.00

> <Gold.Chemscore.Hbond.Weighted>
-14.5388

> <Gold.Chemscore.Metal.Weighted>
-0.0000

> <Gold.Chemscore.Lipo.Weighted>
-4.3917

> <Gold.Chemscore.Internal_Hbond.Weighted>
0.0000

> <Gold.Chemscore.DEClash.Weighted>
0.0158

> <Gold.Chemscore.DEInternal.Weighted>
1.0361

> <Gold.Chemscore.Rot.Weighted>
2.5600

> <Gold.Chemscore.Internal.Correction.Weighted>
   9.000000E+99

> <Gold.Protein.RotatedTorsions>
[ 6907 6896 6895 6894 ] final  -83.51 input  -60.11 | X-H torsion
[ 7974 7965 7964 7962 ] final   48.00 input  175.53 | X-H torsion
[ 8008 7997 7996 7995 ] final  160.03 input   59.86 | X-H torsion
[ 10167 10162 10161 10158 ] final  154.13 input  -65.29 | X-H torsion
[ 10718 10713 10712 10709 ] final  130.65 input   66.30 | X-H torsion
[ 10763 10752 10751 10750 ] final  -21.11 input  -60.55 | X-H torsion
[ 11005 11000 10999 10996 ] final    1.64 input  -57.11 | X-H torsion

> <Gold.Protein.ActiveResidues>
 VAL166  LYS551  ARG553  GLY616  TRP617  ASP618  TYR619  PRO620  LYS621  CYS622 
 ASP623  PHE694  ASN695  SER759  ASP760  ASP761  ALA762  ILE779  LEU786  VAL792 
 PHE793  MET794  SER795  GLU796  ALA797  LYS798  CYS799  TRP800  GLU811  SER814 

> <Gold.Protein.RotatedAtoms>
  150.6885  134.3501  159.4905 H   0  0  0  0  0  0  0  0  0  0  0  0  # atno 6907 bound_to 6896
  152.1343  134.9108  160.0566 H   0  0  0  0  0  0  0  0  0  0  0  0  # atno 6908 bound_to 6896
  152.0266  133.3885  159.4317 H   0  0  0  0  0  0  0  0  0  0  0  0  # atno 6909 bound_to 6896
  146.0245  139.4690  142.9876 H   0  0  0  0  0  0  0  0  0  0  0  0  # atno 7974 bound_to 7965
  156.2200  140.1815  156.7500 H   0  0  0  0  0  0  0  0  0  0  0  0  # atno 8008 bound_to 7997
  154.5850  140.0660  156.9187 H   0  0  0  0  0  0  0  0  0  0  0  0  # atno 8009 bound_to 7997
  155.2435  140.3323  155.4292 H   0  0  0  0  0  0  0  0  0  0  0  0  # atno 8010 bound_to 7997
  139.4824  144.5213  151.7871 H   0  0  0  0  0  0  0  0  0  0  0  0  # atno 10167 bound_to 10162
  157.5042  131.1095  150.9385 H   0  0  0  0  0  0  0  0  0  0  0  0  # atno 10718 bound_to 10713
  153.6310  135.6989  153.5275 H   0  0  0  0  0  0  0  0  0  0  0  0  # atno 10763 bound_to 10752
  153.2859  135.4171  155.1122 H   0  0  0  0  0  0  0  0  0  0  0  0  # atno 10764 bound_to 10752
  154.8522  135.3613  154.5853 H   0  0  0  0  0  0  0  0  0  0  0  0  # atno 10765 bound_to 10752
  140.6132  133.9729  155.8188 H   0  0  0  0  0  0  0  0  0  0  0  0  # atno 11005 bound_to 11000
  145.7140  141.0097  143.1438 LP  0  0  0  0  0  0  0  0  0  0  0  0  # atno 17320 bound_to 7965
  144.7004  139.8791  143.7446 LP  0  0  0  0  0  0  0  0  0  0  0  0  # atno 17321 bound_to 7965
  140.4728  144.1563  150.5920 LP  0  0  0  0  0  0  0  0  0  0  0  0  # atno 17342 bound_to 10162
  140.4364  143.2545  151.9530 LP  0  0  0  0  0  0  0  0  0  0  0  0  # atno 17343 bound_to 10162
  157.0046  130.5613  149.5314 LP  0  0  0  0  0  0  0  0  0  0  0  0  # atno 17370 bound_to 10713
  156.0248  130.5342  150.8375 LP  0  0  0  0  0  0  0  0  0  0  0  0  # atno 17371 bound_to 10713
  141.0793  134.0086  157.3410 LP  0  0  0  0  0  0  0  0  0  0  0  0  # atno 17394 bound_to 11000
  139.9183  135.0199  156.7968 LP  0  0  0  0  0  0  0  0  0  0  0  0  # atno 17395 bound_to 11000

$$$$
