AV-unprocessed.smi:1836|AV-procd|sdf|7480|dock2
  -GOLD-   22720 9173D 1   1.00000     0.00000
 Structure written by MMmdl.
 32 33  0  0  0  0  0  0  0  0  2 V2000
  151.9673  139.0583  159.1132 C   0  0  0  0  0  0  0  0  0  0  0  0
  151.9157  140.4833  158.5463 C   0  0  1  0  0  0  0  0  0  0  0  0
  153.2367  141.2373  158.8201 C   0  0  0  0  0  0  0  0  0  0  0  0
  153.0619  142.3486  159.7548 N   0  0  0  0  0  0  0  0  0  0  0  0
  153.4514  142.2127  161.1484 C   0  0  0  0  0  0  0  0  0  0  0  0
  152.9044  143.4717  161.8351 C   0  0  0  0  0  0  0  0  0  0  0  0
  152.5773  144.4514  160.7035 C   0  0  0  0  0  0  0  0  0  0  0  0
  152.6217  143.5788  159.4609 C   0  0  0  0  0  0  0  0  0  0  0  0
  152.2869  143.9861  158.3496 O   0  0  0  0  0  0  0  0  0  0  0  0
  151.6434  140.3995  157.1115 N   0  0  0  0  0  0  0  0  0  0  0  0
  150.5588  140.8725  156.4789 C   0  0  0  0  0  0  0  0  0  0  0  0
  149.6656  141.4329  157.1191 O   0  0  0  0  0  0  0  0  0  0  0  0
  150.5840  140.6846  155.1401 N   0  5  0  0  0  0  0  0  0  0  0  0
  149.4482  140.3956  154.4845 C   0  0  0  0  0  0  0  0  0  0  0  0
  149.0653  139.1340  154.2307 N   0  0  0  0  0  0  0  0  0  0  0  0
  147.8638  139.0571  153.5391 N   0  0  0  0  0  0  0  0  0  0  0  0
  147.3725  140.2693  153.2824 C   0  0  0  0  0  0  0  0  0  0  0  0
  148.3344  141.6147  153.8575 S   0  0  0  0  0  0  0  0  0  0  0  0
  152.1333  139.0702  160.1907 H   0  0  0  0  0  0  0  0  0  0  0  0
  152.7713  138.4783  158.6586 H   0  0  0  0  0  0  0  0  0  0  0  0
  151.0308  138.5295  158.9319 H   0  0  0  0  0  0  0  0  0  0  0  0
  151.0998  140.9982  159.0565 H   0  0  0  0  0  0  0  0  0  0  0  0
  153.9660  140.5514  159.2532 H   0  0  0  0  0  0  0  0  0  0  0  0
  153.6766  141.5884  157.8849 H   0  0  0  0  0  0  0  0  0  0  0  0
  153.0445  141.3028  161.5907 H   0  0  0  0  0  0  0  0  0  0  0  0
  154.5393  142.1704  161.2157 H   0  0  0  0  0  0  0  0  0  0  0  0
  151.9945  143.2294  162.3861 H   0  0  0  0  0  0  0  0  0  0  0  0
  153.6185  143.8882  162.5458 H   0  0  0  0  0  0  0  0  0  0  0  0
  151.5978  144.9143  160.8283 H   0  0  0  0  0  0  0  0  0  0  0  0
  153.3308  145.2355  160.6234 H   0  0  0  0  0  0  0  0  0  0  0  0
  152.3487  139.9559  156.5416 H   0  0  0  0  0  0  0  0  0  0  0  0
  146.4402  140.3720  152.7477 H   0  0  0  0  0  0  0  0  0  0  0  0
  1  2  1  0  0  0  0
  1 19  1  0  0  0  0
  1 20  1  0  0  0  0
  1 21  1  0  0  0  0
  2  3  1  0  0  0  0
  2 10  1  0  0  0  0
  2 22  1  0  0  0  0
  3  4  1  0  0  0  0
  3 23  1  0  0  0  0
  3 24  1  0  0  0  0
  4  8  1  0  0  0  0
  4  5  1  0  0  0  0
  5  6  1  0  0  0  0
  5 25  1  0  0  0  0
  5 26  1  0  0  0  0
  6  7  1  0  0  0  0
  6 27  1  0  0  0  0
  6 28  1  0  0  0  0
  7  8  1  0  0  0  0
  7 29  1  0  0  0  0
  7 30  1  0  0  0  0
  8  9  2  0  0  0  0
 10 11  1  0  0  0  0
 10 31  1  0  0  0  0
 11 12  2  0  0  0  0
 11 13  1  0  0  0  0
 13 14  1  0  0  0  0
 14 18  1  0  0  0  0
 14 15  2  0  0  0  0
 15 16  1  0  0  0  0
 16 17  2  0  0  0  0
 17 18  1  0  0  0  0
 17 32  1  0  0  0  0
M  CHG  1  13  -1
M  END
> <s_m_source_file>
AV-unprocessed.smi

> <i_m_source_file_index>
1836

> <i_lp_mmshare_version>
43012

> <i_f3d_flags>
0

> <s_epik_input>
Tz1DMVtDSDJdW0NIMl1bQ0gyXU4xW0NIMl1bQ0BASF0oW0NIM10pW05IXUMoPU8pW05IXWMybm5bY0hdczI=

> <s_epik_cmdline>
J2VwaWtfcHl0aG9uJywgJy1waCcsICc3LjAnLCAnLXRuJywgJzgnLCAnLW1hJywgJzIwMCcsICctbWV0YWxfYmluZGluZycsICctaW1hZScsICc8aW5maWxlLm1hZT4nLCAnLW9tYWUnLCAnPG91dGZpbGUubWFlPic=

> <r_lp_tautomer_probability>
1

> <r_epik_Ionization_Penalty>
3.44722

> <r_epik_Ionization_Penalty_Charging>
3.40341

> <r_epik_Ionization_Penalty_Neutral>
0.0438099

> <r_epik_State_Penalty>
3.40151

> <r_epik_Charging_Adjusted_Penalty>
6.80491

> <i_epik_Tot_Q>
-1

> <i_epik_Tot_abs_Q>
1

> <r_epik_Metal_State_Penalty>
0.49534

> <b_epik_Metal_Only>
1

> <s_lp_Force_Field>
OPLS_2005

> <r_lp_Energy>
17.1678

> <b_lp_Chiralities_Consistent>
1

> <s_lp_Variant>
AV-unprocessed.smi:1836-4

> <Gold.Version>
5.8.1

> <Gold.Id.Protein>
6NUR|6NUR_protein|mol2

> <Gold.PLP.Fitness>
39.2737

> <Gold.PLP.PLP>
-38.0858

> <Gold.PLP.part.hbond>
-1.0000

> <Gold.PLP.part.metal>
0.0000

> <Gold.PLP.part.buried>
-5.5837

> <Gold.PLP.part.nonpolar>
-30.3059

> <Gold.PLP.part.repulsive>
1.2719

> <Gold.PLP.ligand.clash>
0.0000

> <Gold.PLP.ligand.torsion>
2.0415

> <Gold.PLP.Chemscore.Hbond>
0.7020

> <Gold.PLP.Chemscore.CHOScore>
1.0000

> <Gold.PLP.Chemscore.Metal>
0.0000

> <Gold.Chemscore.Hbonds>
donor molecule, donor type, donor heavy atom, donor atom, acceptor molecule, acceptor atom, score
      P1  H  7989  7998       L1    13  0.63
      L1  C    17    32       P1 10175  0.41

> <Gold.PLP.Chemscore.Internal.Correction>
0.1648

> <Gold.Rescore>
     Score         DG    S(hbond)    S(metal)    S(lipo)     H(rot)  DE(clash)    DE(int)     intcor
      8.72     -11.03       0.39        0.00      74.25       1.73       0.37       1.95       ----

> <Gold.Chemscore.Fitness>
8.7160

> <Gold.Chemscore.DG>
-11.0314

> <Gold.Chemscore.ZeroCoef>
-5.4800

> <Gold.Chemscore.Hbond>
0.3872

> <Gold.Chemscore.Metal>
0.0000

> <Gold.Chemscore.Lipo>
74.2541

> <Gold.Chemscore.Internal_Hbond>
0.0000

> <Gold.Chemscore.DEClash>
0.3664

> <Gold.Chemscore.DEInternal>
1.9490

> <Gold.Chemscore.Rot>
1.7302

> <Gold.Chemscore.Internal.Correction>
   9.000000E+99

> <Gold.Chemscore.Hbonds>
donor molecule, donor type, donor heavy atom, donor atom, acceptor molecule, acceptor atom, score
      P1  H  7989  7998       L1    13  0.06

> <Gold.Chemscore.Hbond.Weighted>
-1.2931

> <Gold.Chemscore.Metal.Weighted>
-0.0000

> <Gold.Chemscore.Lipo.Weighted>
-8.6877

> <Gold.Chemscore.Internal_Hbond.Weighted>
0.0000

> <Gold.Chemscore.DEClash.Weighted>
0.3664

> <Gold.Chemscore.DEInternal.Weighted>
1.9490

> <Gold.Chemscore.Rot.Weighted>
4.4294

> <Gold.Chemscore.Internal.Correction.Weighted>
   9.000000E+99

> <Gold.Protein.RotatedTorsions>
[ 6907 6896 6895 6894 ] final  122.40 input  -60.11 | X-H torsion
[ 7974 7965 7964 7962 ] final -117.12 input  175.53 | X-H torsion
[ 8008 7997 7996 7995 ] final -147.06 input   59.86 | X-H torsion
[ 10167 10162 10161 10158 ] final  159.48 input  -65.29 | X-H torsion
[ 10718 10713 10712 10709 ] final  -84.87 input   66.30 | X-H torsion
[ 10763 10752 10751 10750 ] final -151.49 input  -60.55 | X-H torsion
[ 11005 11000 10999 10996 ] final -115.83 input  -57.11 | X-H torsion

> <Gold.Protein.ActiveResidues>
 VAL166  LYS551  ARG553  GLY616  TRP617  ASP618  TYR619  PRO620  LYS621  CYS622 
 ASP623  PHE694  ASN695  SER759  ASP760  ASP761  ALA762  ILE779  LEU786  VAL792 
 PHE793  MET794  SER795  GLU796  ALA797  LYS798  CYS799  TRP800  GLU811  SER814 

> <Gold.Protein.RotatedAtoms>
  152.4246  133.7174  159.6513 H   0  0  0  0  0  0  0  0  0  0  0  0  # atno 6907 bound_to 6896
  150.8122  133.8390  159.3183 H   0  0  0  0  0  0  0  0  0  0  0  0  # atno 6908 bound_to 6896
  151.6096  135.1043  160.0130 H   0  0  0  0  0  0  0  0  0  0  0  0  # atno 6909 bound_to 6896
  145.0889  140.8477  143.3994 H   0  0  0  0  0  0  0  0  0  0  0  0  # atno 7974 bound_to 7965
  155.5695  140.0633  157.2810 H   0  0  0  0  0  0  0  0  0  0  0  0  # atno 8008 bound_to 7997
  154.4365  140.1871  156.0910 H   0  0  0  0  0  0  0  0  0  0  0  0  # atno 8009 bound_to 7997
  156.0387  140.3298  155.7223 H   0  0  0  0  0  0  0  0  0  0  0  0  # atno 8010 bound_to 7997
  139.4833  144.4726  151.8556 H   0  0  0  0  0  0  0  0  0  0  0  0  # atno 10167 bound_to 10162
  156.0002  130.4712  150.4476 H   0  0  0  0  0  0  0  0  0  0  0  0  # atno 10718 bound_to 10713
  154.8054  135.3259  154.7443 H   0  0  0  0  0  0  0  0  0  0  0  0  # atno 10763 bound_to 10752
  153.8103  135.6896  153.4846 H   0  0  0  0  0  0  0  0  0  0  0  0  # atno 10764 bound_to 10752
  153.1797  135.4591  154.9956 H   0  0  0  0  0  0  0  0  0  0  0  0  # atno 10765 bound_to 10752
  141.0462  133.9759  157.2913 H   0  0  0  0  0  0  0  0  0  0  0  0  # atno 11005 bound_to 11000
  145.1089  139.2771  143.5647 LP  0  0  0  0  0  0  0  0  0  0  0  0  # atno 17320 bound_to 7965
  146.3531  140.0679  142.8625 LP  0  0  0  0  0  0  0  0  0  0  0  0  # atno 17321 bound_to 7965
  140.4195  144.2262  150.5887 LP  0  0  0  0  0  0  0  0  0  0  0  0  # atno 17342 bound_to 10162
  140.4887  143.2354  151.8850 LP  0  0  0  0  0  0  0  0  0  0  0  0  # atno 17343 bound_to 10162
  157.2511  131.0546  151.2378 LP  0  0  0  0  0  0  0  0  0  0  0  0  # atno 17370 bound_to 10713
  157.3527  130.7090  149.6451 LP  0  0  0  0  0  0  0  0  0  0  0  0  # atno 17371 bound_to 10713
  139.9314  135.0199  156.8411 LP  0  0  0  0  0  0  0  0  0  0  0  0  # atno 17394 bound_to 11000
  140.6142  134.0054  155.7590 LP  0  0  0  0  0  0  0  0  0  0  0  0  # atno 17395 bound_to 11000

$$$$
