AV-unprocessed.smi:1718|AV-procd|sdf|6928|dock4
  -GOLD-   22720 8133D 1   1.00000     0.00000
 Structure written by MMmdl.
 39 40  0  0  0  0  0  0  0  0  2 V2000
  153.6513  137.5132  161.7302 C   0  0  0  0  0  0  0  0  0  0  0  0
  153.8171  137.1895  160.2380 C   0  0  2  0  0  0  0  0  0  0  0  0
  155.0966  136.5859  160.0709 O   0  0  0  0  0  0  0  0  0  0  0  0
  155.3132  135.3963  160.8229 C   0  0  0  0  0  0  0  0  0  0  0  0
  155.5877  134.2261  159.8687 C   0  0  1  0  0  0  0  0  0  0  0  0
  155.6969  132.8479  160.5337 C   0  0  0  0  0  0  0  0  0  0  0  0
  155.0109  131.9075  159.5511 C   0  0  0  0  0  0  0  0  0  0  0  0
  154.6779  132.7937  158.3521 C   0  0  0  0  0  0  0  0  0  0  0  0
  154.5455  134.0884  158.9148 O   0  0  0  0  0  0  0  0  0  0  0  0
  153.7122  138.4576  159.3754 C   0  0  0  0  0  0  0  0  0  0  0  0
  154.6622  138.7822  158.6631 O   0  0  0  0  0  0  0  0  0  0  0  0
  152.5353  139.1097  159.4525 N   0  0  0  0  0  0  0  0  0  0  0  0
  152.1118  140.2839  158.8064 C   0  0  0  0  0  0  0  0  0  0  0  0
  152.1015  141.5250  159.3675 C   0  0  0  0  0  0  0  0  0  0  0  0
  151.6374  142.7039  158.6471 C   0  0  0  0  0  0  0  0  0  0  0  0
  151.7107  144.1141  159.2051 C   0  0  0  0  0  0  0  0  0  0  0  0
  150.4995  144.6671  159.2734 F   0  0  0  0  0  0  0  0  0  0  0  0
  152.2262  144.0895  160.4333 F   0  0  0  0  0  0  0  0  0  0  0  0
  152.4845  144.8888  158.4448 F   0  0  0  0  0  0  0  0  0  0  0  0
  151.2284  142.4057  157.3618 C   0  0  0  0  0  0  0  0  0  0  0  0
  151.1794  141.2064  156.7416 N   0  5  0  0  0  0  0  0  0  0  0  0
  151.6200  140.1116  157.4234 C   0  0  0  0  0  0  0  0  0  0  0  0
  151.6146  138.9904  156.9135 O   0  0  0  0  0  0  0  0  0  0  0  0
  152.6921  137.9934  161.9272 H   0  0  0  0  0  0  0  0  0  0  0  0
  154.4396  138.1772  162.0880 H   0  0  0  0  0  0  0  0  0  0  0  0
  153.6927  136.6030  162.3287 H   0  0  0  0  0  0  0  0  0  0  0  0
  153.0391  136.4779  159.9542 H   0  0  0  0  0  0  0  0  0  0  0  0
  156.1600  135.5307  161.4973 H   0  0  0  0  0  0  0  0  0  0  0  0
  154.4437  135.1591  161.4365 H   0  0  0  0  0  0  0  0  0  0  0  0
  156.5087  134.4254  159.3179 H   0  0  0  0  0  0  0  0  0  0  0  0
  156.7389  132.5755  160.7050 H   0  0  0  0  0  0  0  0  0  0  0  0
  155.1859  132.8156  161.4967 H   0  0  0  0  0  0  0  0  0  0  0  0
  155.6353  131.0584  159.2726 H   0  0  0  0  0  0  0  0  0  0  0  0
  154.0935  131.5182  159.9938 H   0  0  0  0  0  0  0  0  0  0  0  0
  155.4966  132.7942  157.6306 H   0  0  0  0  0  0  0  0  0  0  0  0
  153.7677  132.4827  157.8385 H   0  0  0  0  0  0  0  0  0  0  0  0
  151.8300  138.6837  160.0363 H   0  0  0  0  0  0  0  0  0  0  0  0
  152.4227  141.6789  160.3840 H   0  0  0  0  0  0  0  0  0  0  0  0
  150.8962  143.2607  156.7350 H   0  0  0  0  0  0  0  0  0  0  0  0
  1  2  1  0  0  0  0
  1 24  1  0  0  0  0
  1 25  1  0  0  0  0
  1 26  1  0  0  0  0
  2  3  1  0  0  0  0
  2 10  1  0  0  0  0
  2 27  1  0  0  0  0
  3  4  1  0  0  0  0
  4  5  1  0  0  0  0
  4 28  1  0  0  0  0
  4 29  1  0  0  0  0
  5  9  1  0  0  0  0
  5  6  1  0  0  0  0
  5 30  1  0  0  0  0
  6  7  1  0  0  0  0
  6 31  1  0  0  0  0
  6 32  1  0  0  0  0
  7  8  1  0  0  0  0
  7 33  1  0  0  0  0
  7 34  1  0  0  0  0
  8  9  1  0  0  0  0
  8 35  1  0  0  0  0
  8 36  1  0  0  0  0
 10 11  2  0  0  0  0
 10 12  1  0  0  0  0
 12 13  1  0  0  0  0
 12 37  1  0  0  0  0
 13 22  1  0  0  0  0
 13 14  2  0  0  0  0
 14 15  1  0  0  0  0
 14 38  1  0  0  0  0
 15 16  1  0  0  0  0
 15 20  2  0  0  0  0
 16 17  1  0  0  0  0
 16 18  1  0  0  0  0
 16 19  1  0  0  0  0
 20 21  1  0  0  0  0
 20 39  1  0  0  0  0
 21 22  1  0  0  0  0
 22 23  2  0  0  0  0
M  CHG  1  21  -1
M  END
> <s_m_source_file>
AV-unprocessed.smi

> <i_m_source_file_index>
1718

> <i_lp_mmshare_version>
43012

> <i_f3d_flags>
0

> <s_epik_input>
TzFbQ0gyXVtDSDJdW0NIMl1bQ0BIXTFbQ0gyXU9bQ0BASF0oW0NIM10pQyg9TylbTkhdYzJbY0hdYyhDKEYpKEYpRilbY0hdW25IXWMyPU8=

> <s_epik_cmdline>
J2VwaWtfcHl0aG9uJywgJy1waCcsICc3LjAnLCAnLXRuJywgJzgnLCAnLW1hJywgJzIwMCcsICctbWV0YWxfYmluZGluZycsICctaW1hZScsICc8aW5maWxlLm1hZT4nLCAnLW9tYWUnLCAnPG91dGZpbGUubWFlPic=

> <r_epik_Ionization_Penalty>
2.5466

> <r_epik_Ionization_Penalty_Charging>
0.0575837

> <r_epik_Ionization_Penalty_Neutral>
2.48901

> <r_epik_State_Penalty>
2.6532

> <r_epik_Charging_Adjusted_Penalty>
2.71078

> <i_epik_Tot_Q>
-1

> <i_epik_Tot_abs_Q>
1

> <r_epik_Metal_State_Penalty>
0.516196

> <b_epik_Metal_Only>
0

> <s_lp_Force_Field>
OPLS_2005

> <r_lp_Energy>
37.3461

> <b_lp_Chiralities_Consistent>
1

> <s_lp_Variant>
AV-unprocessed.smi:1718-7

> <Gold.Version>
5.8.1

> <Gold.Id.Protein>
6NUR|6NUR_protein|mol2

> <Gold.PLP.Fitness>
41.0753

> <Gold.PLP.PLP>
-37.1659

> <Gold.PLP.part.hbond>
-2.0000

> <Gold.PLP.part.metal>
0.0000

> <Gold.PLP.part.buried>
-6.1386

> <Gold.PLP.part.nonpolar>
-29.0889

> <Gold.PLP.part.repulsive>
0.1366

> <Gold.PLP.ligand.clash>
0.0000

> <Gold.PLP.ligand.torsion>
1.1548

> <Gold.PLP.Chemscore.Hbond>
2.0000

> <Gold.PLP.Chemscore.CHOScore>
0.0000

> <Gold.PLP.Chemscore.Metal>
0.0000

> <Gold.Chemscore.Hbonds>
donor molecule, donor type, donor heavy atom, donor atom, acceptor molecule, acceptor atom, score
      P1  H  6896  6907       L1     9  0.75
      P1  H  7997  8010       L1    11  1.00

> <Gold.PLP.Chemscore.Internal.Correction>
0.2189

> <Gold.Rescore>
     Score         DG    S(hbond)    S(metal)    S(lipo)     H(rot)  DE(clash)    DE(int)     intcor
     14.37     -15.65       1.96        0.00      71.23       1.85       0.02       1.26       ----

> <Gold.Chemscore.Fitness>
14.3665

> <Gold.Chemscore.DG>
-15.6507

> <Gold.Chemscore.ZeroCoef>
-5.4800

> <Gold.Chemscore.Hbond>
1.9645

> <Gold.Chemscore.Metal>
0.0000

> <Gold.Chemscore.Lipo>
71.2283

> <Gold.Chemscore.Internal_Hbond>
0.0000

> <Gold.Chemscore.DEClash>
0.0227

> <Gold.Chemscore.DEInternal>
1.2615

> <Gold.Chemscore.Rot>
1.8455

> <Gold.Chemscore.Internal.Correction>
   9.000000E+99

> <Gold.Chemscore.Hbonds>
donor molecule, donor type, donor heavy atom, donor atom, acceptor molecule, acceptor atom, score
      P1  H  6896  6907       L1     9  0.31
      P1  H  7997  8010       L1    11  1.00

> <Gold.Chemscore.Hbond.Weighted>
-6.5615

> <Gold.Chemscore.Metal.Weighted>
-0.0000

> <Gold.Chemscore.Lipo.Weighted>
-8.3337

> <Gold.Chemscore.Internal_Hbond.Weighted>
0.0000

> <Gold.Chemscore.DEClash.Weighted>
0.0227

> <Gold.Chemscore.DEInternal.Weighted>
1.2615

> <Gold.Chemscore.Rot.Weighted>
4.7245

> <Gold.Chemscore.Internal.Correction.Weighted>
   9.000000E+99

> <Gold.Protein.RotatedTorsions>
[ 6907 6896 6895 6894 ] final   94.51 input  -60.11 | X-H torsion
[ 7974 7965 7964 7962 ] final   77.93 input  175.53 | X-H torsion
[ 8008 7997 7996 7995 ] final    5.60 input   59.86 | X-H torsion
[ 10167 10162 10161 10158 ] final   65.28 input  -65.29 | X-H torsion
[ 10718 10713 10712 10709 ] final -101.37 input   66.30 | X-H torsion
[ 10763 10752 10751 10750 ] final  -34.78 input  -60.55 | X-H torsion
[ 11005 11000 10999 10996 ] final  113.04 input  -57.11 | X-H torsion

> <Gold.Protein.ActiveResidues>
 VAL166  LYS551  ARG553  GLY616  TRP617  ASP618  TYR619  PRO620  LYS621  CYS622 
 ASP623  PHE694  ASN695  SER759  ASP760  ASP761  ALA762  ILE779  LEU786  VAL792 
 PHE793  MET794  SER795  GLU796  ALA797  LYS798  CYS799  TRP800  GLU811  SER814 

> <Gold.Protein.RotatedAtoms>
  152.5449  134.1182  159.8387 H   0  0  0  0  0  0  0  0  0  0  0  0  # atno 6907 bound_to 6896
  151.1241  133.5076  159.2608 H   0  0  0  0  0  0  0  0  0  0  0  0  # atno 6908 bound_to 6896
  151.1747  135.0343  159.8821 H   0  0  0  0  0  0  0  0  0  0  0  0  # atno 6909 bound_to 6896
  145.6837  139.2531  143.1799 H   0  0  0  0  0  0  0  0  0  0  0  0  # atno 7974 bound_to 7965
  154.7304  140.2729  155.6461 H   0  0  0  0  0  0  0  0  0  0  0  0  # atno 8008 bound_to 7997
  156.2848  140.2717  156.1927 H   0  0  0  0  0  0  0  0  0  0  0  0  # atno 8009 bound_to 7997
  155.0389  140.0371  157.2492 H   0  0  0  0  0  0  0  0  0  0  0  0  # atno 8010 bound_to 7997
  140.1130  144.4800  150.6966 H   0  0  0  0  0  0  0  0  0  0  0  0  # atno 10167 bound_to 10162
  156.0192  130.5370  150.6953 H   0  0  0  0  0  0  0  0  0  0  0  0  # atno 10718 bound_to 10713
  153.8524  135.6847  153.4791 H   0  0  0  0  0  0  0  0  0  0  0  0  # atno 10763 bound_to 10752
  153.1389  135.4665  154.9464 H   0  0  0  0  0  0  0  0  0  0  0  0  # atno 10764 bound_to 10752
  154.7796  135.3264  154.7966 H   0  0  0  0  0  0  0  0  0  0  0  0  # atno 10765 bound_to 10752
  139.8942  134.9542  156.6677 H   0  0  0  0  0  0  0  0  0  0  0  0  # atno 11005 bound_to 11000
  146.0942  140.7621  142.9580 LP  0  0  0  0  0  0  0  0  0  0  0  0  # atno 17320 bound_to 7965
  144.7018  140.3684  143.7150 LP  0  0  0  0  0  0  0  0  0  0  0  0  # atno 17321 bound_to 7965
  140.6915  143.2378  151.5119 LP  0  0  0  0  0  0  0  0  0  0  0  0  # atno 17342 bound_to 10162
  139.5609  144.2160  152.1689 LP  0  0  0  0  0  0  0  0  0  0  0  0  # atno 17343 bound_to 10162
  157.4625  131.0885  151.0730 LP  0  0  0  0  0  0  0  0  0  0  0  0  # atno 17370 bound_to 10713
  157.1213  130.6063  149.5506 LP  0  0  0  0  0  0  0  0  0  0  0  0  # atno 17371 bound_to 10713
  140.7397  133.8988  155.8269 LP  0  0  0  0  0  0  0  0  0  0  0  0  # atno 17394 bound_to 11000
  141.0087  134.1050  157.4244 LP  0  0  0  0  0  0  0  0  0  0  0  0  # atno 17395 bound_to 11000

$$$$
