AV-unprocessed.smi:739|AV-procd|sdf|3544|dock9
  -GOLD-   22720 0533D 1   1.00000     0.00000
 Structure written by MMmdl.
 33 35  0  0  0  0  0  0  0  0  2 V2000
  151.4457  139.3300  154.3602 O   0  0  0  0  0  0  0  0  0  0  0  0
  150.9876  138.9208  155.6317 C   0  0  2  0  0  0  0  0  0  0  0  0
  151.8328  139.6425  156.7002 C   0  0  0  0  0  0  0  0  0  0  0  0
  151.4056  141.0308  156.9151 N   0  0  0  0  0  0  0  0  0  0  0  0
  150.6867  141.8590  156.1093 C   0  0  0  0  0  0  0  0  0  0  0  0
  150.5604  143.0516  156.7550 N   0  3  0  0  0  0  0  0  0  0  0  0
  151.2055  142.9831  157.9922 C   0  0  0  0  0  0  0  0  0  0  0  0
  151.3516  143.9315  158.9995 C   0  0  0  0  0  0  0  0  0  0  0  0
  152.0758  143.5366  160.1439 C   0  0  0  0  0  0  0  0  0  0  0  0
  152.2473  144.4209  161.1548 F   0  0  0  0  0  0  0  0  0  0  0  0
  152.6239  142.2407  160.2548 C   0  0  0  0  0  0  0  0  0  0  0  0
  153.3132  141.9027  161.3702 F   0  0  0  0  0  0  0  0  0  0  0  0
  152.4692  141.2877  159.2265 C   0  0  0  0  0  0  0  0  0  0  0  0
  151.7509  141.6870  158.1008 C   0  0  0  0  0  0  0  0  0  0  0  0
  151.0202  137.4075  155.7959 C   0  0  0  0  0  0  0  0  0  0  0  0
  151.7812  136.8119  156.8263 C   0  0  0  0  0  0  0  0  0  0  0  0
  151.7946  135.4120  156.9804 C   0  0  0  0  0  0  0  0  0  0  0  0
  151.0469  134.5994  156.1069 C   0  0  0  0  0  0  0  0  0  0  0  0
  151.0589  133.2538  156.2560 F   0  0  0  0  0  0  0  0  0  0  0  0
  150.2842  135.1877  155.0798 C   0  0  0  0  0  0  0  0  0  0  0  0
  150.2702  136.5876  154.9252 C   0  0  0  0  0  0  0  0  0  0  0  0
  151.5504  138.5632  153.8176 H   0  0  0  0  0  0  0  0  0  0  0  0
  149.9526  139.2566  155.7070 H   0  0  0  0  0  0  0  0  0  0  0  0
  151.7693  139.1235  157.6577 H   0  0  0  0  0  0  0  0  0  0  0  0
  152.8882  139.6519  156.4237 H   0  0  0  0  0  0  0  0  0  0  0  0
  150.2939  141.6156  155.1323 H   0  0  0  0  0  0  0  0  0  0  0  0
  150.9350  144.9245  158.9184 H   0  0  0  0  0  0  0  0  0  0  0  0
  152.8928  140.2988  159.3209 H   0  0  0  0  0  0  0  0  0  0  0  0
  152.3555  137.4268  157.5038 H   0  0  0  0  0  0  0  0  0  0  0  0
  152.3782  134.9618  157.7701 H   0  0  0  0  0  0  0  0  0  0  0  0
  149.7088  134.5648  154.4106 H   0  0  0  0  0  0  0  0  0  0  0  0
  149.6780  137.0294  154.1373 H   0  0  0  0  0  0  0  0  0  0  0  0
  150.0690  143.8512  156.3761 H   0  0  0  0  0  0  0  0  0  0  0  0
  1  2  1  0  0  0  0
  1 22  1  0  0  0  0
  2  3  1  0  0  0  0
  2 15  1  0  0  0  0
  2 23  1  0  0  0  0
  3  4  1  0  0  0  0
  3 24  1  0  0  0  0
  3 25  1  0  0  0  0
  4 14  1  0  0  0  0
  4  5  1  0  0  0  0
  5  6  2  0  0  0  0
  5 26  1  0  0  0  0
  6  7  1  0  0  0  0
  6 33  1  0  0  0  0
  7 14  2  0  0  0  0
  7  8  1  0  0  0  0
  8  9  2  0  0  0  0
  8 27  1  0  0  0  0
  9 10  1  0  0  0  0
  9 11  1  0  0  0  0
 11 12  1  0  0  0  0
 11 13  2  0  0  0  0
 13 14  1  0  0  0  0
 13 28  1  0  0  0  0
 15 21  1  0  0  0  0
 15 16  2  0  0  0  0
 16 17  1  0  0  0  0
 16 29  1  0  0  0  0
 17 18  2  0  0  0  0
 17 30  1  0  0  0  0
 18 19  1  0  0  0  0
 18 20  1  0  0  0  0
 20 21  2  0  0  0  0
 20 31  1  0  0  0  0
 21 32  1  0  0  0  0
M  CHG  1   6   1
M  END
> <s_m_source_file>
AV-unprocessed.smi

> <i_m_source_file_index>
739

> <i_lp_mmshare_version>
43012

> <i_f3d_flags>
0

> <s_epik_input>
W2NIXTFbY0hdYyhGKVtjSF1bY0hdYzFbQ0BIXShbT0hdKVtDSDJdbihbY0hdbjIpYyhjMjMpW2NIXWMoRiljKEYpW2NIXTM=

> <s_epik_cmdline>
J2VwaWtfcHl0aG9uJywgJy1waCcsICc3LjAnLCAnLXRuJywgJzgnLCAnLW1hJywgJzIwMCcsICctbWV0YWxfYmluZGluZycsICctaW1hZScsICc8aW5maWxlLm1hZT4nLCAnLW9tYWUnLCAnPG91dGZpbGUubWFlPic=

> <r_epik_Ionization_Penalty>
2.16139

> <r_epik_Ionization_Penalty_Charging>
2.16138

> <r_epik_Ionization_Penalty_Neutral>
1.79538e-06

> <r_epik_State_Penalty>
2.30198

> <r_epik_Charging_Adjusted_Penalty>
4.46337

> <i_epik_Tot_Q>
1

> <i_epik_Tot_abs_Q>
1

> <r_epik_Metal_State_Penalty>
6.38245

> <b_epik_Metal_Only>
0

> <s_lp_Force_Field>
OPLS_2005

> <r_lp_Energy>
16.88

> <b_lp_Chiralities_Consistent>
1

> <s_lp_Variant>
AV-unprocessed.smi:739-3

> <Gold.Version>
5.8.1

> <Gold.Id.Protein>
6NUR|6NUR_protein|mol2

> <Gold.PLP.Fitness>
49.7633

> <Gold.PLP.PLP>
-41.7541

> <Gold.PLP.part.hbond>
-2.0000

> <Gold.PLP.part.metal>
0.0000

> <Gold.PLP.part.buried>
-4.6916

> <Gold.PLP.part.nonpolar>
-36.4861

> <Gold.PLP.part.repulsive>
0.0428

> <Gold.PLP.ligand.clash>
0.0000

> <Gold.PLP.ligand.torsion>
0.5029

> <Gold.PLP.Chemscore.Hbond>
3.0000

> <Gold.PLP.Chemscore.CHOScore>
0.0000

> <Gold.PLP.Chemscore.Metal>
0.0000

> <Gold.Chemscore.Hbonds>
donor molecule, donor type, donor heavy atom, donor atom, acceptor molecule, acceptor atom, score
      L1  H     6    33       P1  8028  2.00
      P1  H  7989  7998       L1     1  1.00

> <Gold.PLP.Chemscore.Internal.Correction>
0.0150

> <Gold.Rescore>
     Score         DG    S(hbond)    S(metal)    S(lipo)     H(rot)  DE(clash)    DE(int)     intcor
     17.15     -17.84       1.88        0.00      98.42       2.12       0.23       0.46       ----

> <Gold.Chemscore.Fitness>
17.1525

> <Gold.Chemscore.DG>
-17.8420

> <Gold.Chemscore.ZeroCoef>
-5.4800

> <Gold.Chemscore.Hbond>
1.8766

> <Gold.Chemscore.Metal>
0.0000

> <Gold.Chemscore.Lipo>
98.4212

> <Gold.Chemscore.Internal_Hbond>
0.0000

> <Gold.Chemscore.DEClash>
0.2293

> <Gold.Chemscore.DEInternal>
0.4602

> <Gold.Chemscore.Rot>
2.1176

> <Gold.Chemscore.Internal.Correction>
   9.000000E+99

> <Gold.Chemscore.Hbonds>
donor molecule, donor type, donor heavy atom, donor atom, acceptor molecule, acceptor atom, score
      L1  H     6    33       P1  8028  0.99
      P1  H  7989  7998       L1     1  0.85

> <Gold.Chemscore.Hbond.Weighted>
-6.2678

> <Gold.Chemscore.Metal.Weighted>
-0.0000

> <Gold.Chemscore.Lipo.Weighted>
-11.5153

> <Gold.Chemscore.Internal_Hbond.Weighted>
0.0000

> <Gold.Chemscore.DEClash.Weighted>
0.2293

> <Gold.Chemscore.DEInternal.Weighted>
0.4602

> <Gold.Chemscore.Rot.Weighted>
5.4211

> <Gold.Chemscore.Internal.Correction.Weighted>
   9.000000E+99

> <Gold.Protein.RotatedTorsions>
[ 6907 6896 6895 6894 ] final    4.69 input  -60.11 | X-H torsion
[ 7974 7965 7964 7962 ] final   74.39 input  175.53 | X-H torsion
[ 8008 7997 7996 7995 ] final  168.28 input   59.86 | X-H torsion
[ 10167 10162 10161 10158 ] final -169.91 input  -65.29 | X-H torsion
[ 10718 10713 10712 10709 ] final  -86.42 input   66.30 | X-H torsion
[ 10763 10752 10751 10750 ] final -117.29 input  -60.55 | X-H torsion
[ 11005 11000 10999 10996 ] final  102.24 input  -57.11 | X-H torsion

> <Gold.Protein.ActiveResidues>
 VAL166  LYS551  ARG553  GLY616  TRP617  ASP618  TYR619  PRO620  LYS621  CYS622 
 ASP623  PHE694  ASN695  SER759  ASP760  ASP761  ALA762  ILE779  LEU786  VAL792 
 PHE793  MET794  SER795  GLU796  ALA797  LYS798  CYS799  TRP800  GLU811  SER814 

> <Gold.Protein.RotatedAtoms>
  151.6453  135.1008  160.0149 H   0  0  0  0  0  0  0  0  0  0  0  0  # atno 6907 bound_to 6896
  152.4031  133.6843  159.6342 H   0  0  0  0  0  0  0  0  0  0  0  0  # atno 6908 bound_to 6896
  150.7928  133.8673  159.3290 H   0  0  0  0  0  0  0  0  0  0  0  0  # atno 6909 bound_to 6896
  145.7288  139.2676  143.1553 H   0  0  0  0  0  0  0  0  0  0  0  0  # atno 7974 bound_to 7965
  156.1561  140.1595  156.8690 H   0  0  0  0  0  0  0  0  0  0  0  0  # atno 8008 bound_to 7997
  154.5116  140.0799  156.8037 H   0  0  0  0  0  0  0  0  0  0  0  0  # atno 8009 bound_to 7997
  155.3801  140.3404  155.4248 H   0  0  0  0  0  0  0  0  0  0  0  0  # atno 8010 bound_to 7997
  139.5893  144.1248  152.1615 H   0  0  0  0  0  0  0  0  0  0  0  0  # atno 10167 bound_to 10162
  155.9990  130.4764  150.4712 H   0  0  0  0  0  0  0  0  0  0  0  0  # atno 10718 bound_to 10713
  154.8549  135.4315  154.1956 H   0  0  0  0  0  0  0  0  0  0  0  0  # atno 10763 bound_to 10752
  153.3014  135.6969  153.7205 H   0  0  0  0  0  0  0  0  0  0  0  0  # atno 10764 bound_to 10752
  153.6334  135.3481  155.3023 H   0  0  0  0  0  0  0  0  0  0  0  0  # atno 10765 bound_to 10752
  139.8776  134.9216  156.5028 H   0  0  0  0  0  0  0  0  0  0  0  0  # atno 11005 bound_to 11000
  146.0557  140.8023  142.9760 LP  0  0  0  0  0  0  0  0  0  0  0  0  # atno 17320 bound_to 7965
  144.6898  140.3120  143.7246 LP  0  0  0  0  0  0  0  0  0  0  0  0  # atno 17321 bound_to 7965
  140.0819  144.5694  150.7116 LP  0  0  0  0  0  0  0  0  0  0  0  0  # atno 17342 bound_to 10162
  140.7159  143.2544  151.4434 LP  0  0  0  0  0  0  0  0  0  0  0  0  # atno 17343 bound_to 10162
  157.2727  131.0590  151.2249 LP  0  0  0  0  0  0  0  0  0  0  0  0  # atno 17370 bound_to 10713
  157.3324  130.6991  149.6332 LP  0  0  0  0  0  0  0  0  0  0  0  0  # atno 17371 bound_to 10713
  140.8577  133.8083  155.9233 LP  0  0  0  0  0  0  0  0  0  0  0  0  # atno 17394 bound_to 11000
  140.9081  134.2295  157.5002 LP  0  0  0  0  0  0  0  0  0  0  0  0  # atno 17395 bound_to 11000

$$$$
