AV-unprocessed.smi:34|AV-procd|sdf|239|dock8
  -GOLD-   2262015583D 1   1.00000     0.00000
 Structure written by MMmdl.
 54 58  0  0  0  0  0  0  0  0  2 V2000
  152.5378  139.8691  157.4723 O   0  0  0  0  0  0  0  0  0  0  0  0
  151.8667  140.8304  157.0907 C   0  0  0  0  0  0  0  0  0  0  0  0
  151.1382  140.9378  155.9507 N   0  5  0  0  0  0  0  0  0  0  0  0
  150.1483  140.0655  155.7071 C   0  0  0  0  0  0  0  0  0  0  0  0
  150.1155  138.8686  156.3475 N   0  0  0  0  0  0  0  0  0  0  0  0
  149.1280  137.9982  156.1058 C   0  0  0  0  0  0  0  0  0  0  0  0
  148.0883  138.1158  155.2732 N   0  0  0  0  0  0  0  0  0  0  0  0
  148.1186  139.3111  154.6160 C   0  0  0  0  0  0  0  0  0  0  0  0
  149.1069  140.3246  154.7742 C   0  0  0  0  0  0  0  0  0  0  0  0
  148.8341  141.4072  153.9510 N   0  0  0  0  0  0  0  0  0  0  0  0
  147.7144  141.0119  153.3477 C   0  0  0  0  0  0  0  0  0  0  0  0
  147.2201  139.8016  153.6858 N   0  0  0  0  0  0  0  0  0  0  0  0
  145.9968  139.0934  153.1822 C   0  0  2  0  0  0  0  0  0  0  0  0
  145.5632  138.2002  154.1644 O   0  0  0  0  0  0  0  0  0  0  0  0
  146.0322  136.8971  153.8438 C   0  0  1  0  0  0  0  0  0  0  0  0
  145.2496  135.8251  154.6100 C   0  0  0  0  0  0  0  0  0  0  0  0
  145.2195  134.6419  153.8292 O   0  0  0  0  0  0  0  0  0  0  0  0
  146.1569  133.6916  154.0037 C   0  0  0  0  0  0  0  0  0  0  0  0
  147.0810  133.7853  154.8140 O   0  0  0  0  0  0  0  0  0  0  0  0
  145.9580  132.5121  153.1127 C   0  0  0  0  0  0  0  0  0  0  0  0
  145.0392  132.6002  152.0409 C   0  0  0  0  0  0  0  0  0  0  0  0
  144.8296  131.5027  151.1834 C   0  0  0  0  0  0  0  0  0  0  0  0
  145.5363  130.3033  151.3873 C   0  0  0  0  0  0  0  0  0  0  0  0
  146.4530  130.2027  152.4499 C   0  0  0  0  0  0  0  0  0  0  0  0
  146.6639  131.2991  153.3087 C   0  0  0  0  0  0  0  0  0  0  0  0
  145.8560  136.8577  152.3271 C   0  0  1  0  0  0  0  0  0  0  0  0
  144.5743  136.6611  152.0102 F   0  0  0  0  0  0  0  0  0  0  0  0
  146.2728  138.2599  151.9048 C   0  0  2  0  0  0  0  0  0  0  0  0
  147.6229  138.2549  151.4746 O   0  0  0  0  0  0  0  0  0  0  0  0
  151.8691  142.0891  157.9159 C   0  0  0  0  0  0  0  0  0  0  0  0
  151.2924  143.2693  157.3937 C   0  0  0  0  0  0  0  0  0  0  0  0
  151.3070  144.4644  158.1392 C   0  0  0  0  0  0  0  0  0  0  0  0
  151.9076  144.4943  159.4117 C   0  0  0  0  0  0  0  0  0  0  0  0
  152.4970  143.3290  159.9365 C   0  0  0  0  0  0  0  0  0  0  0  0
  152.4826  142.1334  159.1917 C   0  0  0  0  0  0  0  0  0  0  0  0
  149.1775  137.0736  156.6614 H   0  0  0  0  0  0  0  0  0  0  0  0
  147.2308  141.6431  152.6170 H   0  0  0  0  0  0  0  0  0  0  0  0
  145.2631  139.8877  153.0399 H   0  0  0  0  0  0  0  0  0  0  0  0
  147.0953  136.8199  154.0780 H   0  0  0  0  0  0  0  0  0  0  0  0
  145.7059  135.6348  155.5825 H   0  0  0  0  0  0  0  0  0  0  0  0
  144.2268  136.1629  154.7831 H   0  0  0  0  0  0  0  0  0  0  0  0
  144.4850  133.5109  151.8643 H   0  0  0  0  0  0  0  0  0  0  0  0
  144.1255  131.5821  150.3684 H   0  0  0  0  0  0  0  0  0  0  0  0
  145.3754  129.4617  150.7298 H   0  0  0  0  0  0  0  0  0  0  0  0
  146.9965  129.2827  152.6074 H   0  0  0  0  0  0  0  0  0  0  0  0
  147.3739  131.1869  154.1152 H   0  0  0  0  0  0  0  0  0  0  0  0
  146.4301  136.0634  151.8482 H   0  0  0  0  0  0  0  0  0  0  0  0
  145.6520  138.6309  151.0884 H   0  0  0  0  0  0  0  0  0  0  0  0
  148.0924  137.6005  151.9699 H   0  0  0  0  0  0  0  0  0  0  0  0
  150.8289  143.2629  156.4178 H   0  0  0  0  0  0  0  0  0  0  0  0
  150.8582  145.3585  157.7325 H   0  0  0  0  0  0  0  0  0  0  0  0
  151.9197  145.4108  159.9827 H   0  0  0  0  0  0  0  0  0  0  0  0
  152.9642  143.3519  160.9098 H   0  0  0  0  0  0  0  0  0  0  0  0
  152.9506  141.2526  159.6075 H   0  0  0  0  0  0  0  0  0  0  0  0
  1  2  2  0  0  0  0
  2  3  1  0  0  0  0
  2 30  1  0  0  0  0
  3  4  1  0  0  0  0
  4  9  1  0  0  0  0
  4  5  2  0  0  0  0
  5  6  1  0  0  0  0
  6  7  2  0  0  0  0
  6 36  1  0  0  0  0
  7  8  1  0  0  0  0
  8 12  1  0  0  0  0
  8  9  2  0  0  0  0
  9 10  1  0  0  0  0
 10 11  2  0  0  0  0
 11 12  1  0  0  0  0
 11 37  1  0  0  0  0
 12 13  1  0  0  0  0
 13 28  1  0  0  0  0
 13 14  1  0  0  0  0
 13 38  1  0  0  0  0
 14 15  1  0  0  0  0
 15 16  1  0  0  0  0
 15 26  1  0  0  0  0
 15 39  1  0  0  0  0
 16 17  1  0  0  0  0
 16 40  1  0  0  0  0
 16 41  1  0  0  0  0
 17 18  1  0  0  0  0
 18 19  2  0  0  0  0
 18 20  1  0  0  0  0
 20 25  1  0  0  0  0
 20 21  2  0  0  0  0
 21 22  1  0  0  0  0
 21 42  1  0  0  0  0
 22 23  2  0  0  0  0
 22 43  1  0  0  0  0
 23 24  1  0  0  0  0
 23 44  1  0  0  0  0
 24 25  2  0  0  0  0
 24 45  1  0  0  0  0
 25 46  1  0  0  0  0
 26 27  1  0  0  0  0
 26 28  1  0  0  0  0
 26 47  1  0  0  0  0
 28 29  1  0  0  0  0
 28 48  1  0  0  0  0
 29 49  1  0  0  0  0
 30 35  1  0  0  0  0
 30 31  2  0  0  0  0
 31 32  1  0  0  0  0
 31 50  1  0  0  0  0
 32 33  2  0  0  0  0
 32 51  1  0  0  0  0
 33 34  1  0  0  0  0
 33 52  1  0  0  0  0
 34 35  2  0  0  0  0
 34 53  1  0  0  0  0
 35 54  1  0  0  0  0
M  CHG  1   3  -1
M  END
> <s_m_source_file>
AV-unprocessed.smi

> <i_m_source_file_index>
34

> <i_lp_mmshare_version>
43012

> <i_f3d_flags>
0

> <s_epik_input>
W2NIXTFbY0hdW2NIXVtjSF1bY0hdYzFDKD1PKVtOSF1jKG5bY0hdbjIpYyhjMjMpbltjSF1uM1tDQEBIXTRPW0NASF0oW0NAQEhdKEYpW0NASF00W09IXSlbQ0gyXU9DKD1PKWM1W2NIXVtjSF1bY0hdW2NIXVtjSF01

> <s_epik_cmdline>
J2VwaWtfcHl0aG9uJywgJy1waCcsICc3LjAnLCAnLXRuJywgJzgnLCAnLW1hJywgJzIwMCcsICctbWV0YWxfYmluZGluZycsICctaW1hZScsICc8aW5maWxlLm1hZT4nLCAnLW9tYWUnLCAnPG91dGZpbGUubWFlPic=

> <r_lp_tautomer_probability>
1

> <r_epik_Ionization_Penalty>
4.33227

> <r_epik_Ionization_Penalty_Charging>
3.41027

> <r_epik_Ionization_Penalty_Neutral>
0.922001

> <r_epik_State_Penalty>
3.41358

> <r_epik_Charging_Adjusted_Penalty>
6.82385

> <i_epik_Tot_Q>
-1

> <i_epik_Tot_abs_Q>
1

> <r_epik_Metal_State_Penalty>
0.496292

> <b_epik_Metal_Only>
1

> <s_epik_Chemistry_Notes>
This compound has an ester and may undergo hydrolysis at high or low pH. This compound contains an acetal/aminal-like group ( X-CH(R)-Y where X, Y are N, S, or O) that may be acid/base labile, releasing an aldehyde.

> <s_lp_Force_Field>
OPLS_2005

> <r_lp_Energy>
47.457

> <b_lp_Chiralities_Consistent>
1

> <s_lp_Variant>
AV-unprocessed.smi:34-25

> <Gold.Version>
5.8.1

> <Gold.Id.Protein>
6NUR|6NUR_protein|mol2

> <Gold.PLP.Fitness>
57.4522

> <Gold.PLP.PLP>
-50.6615

> <Gold.PLP.part.hbond>
-4.8399

> <Gold.PLP.part.metal>
0.0000

> <Gold.PLP.part.buried>
-1.7797

> <Gold.PLP.part.nonpolar>
-44.3624

> <Gold.PLP.part.repulsive>
0.5013

> <Gold.PLP.ligand.clash>
0.1377

> <Gold.PLP.ligand.torsion>
1.9835

> <Gold.PLP.Chemscore.Hbond>
3.4381

> <Gold.PLP.Chemscore.CHOScore>
0.0000

> <Gold.PLP.Chemscore.Metal>
0.0000

> <Gold.Chemscore.Hbonds>
donor molecule, donor type, donor heavy atom, donor atom, acceptor molecule, acceptor atom, score
      L1  H    29    49       P1  7948  0.85
      P1  H  7954  7966       L1    29  0.95
      P1  H  7997  8009       L1     1  1.00
      P1  H  8011  8017       L1    10  0.55

> <Gold.PLP.Chemscore.Internal.Correction>
0.5812

> <Gold.Rescore>
     Score         DG    S(hbond)    S(metal)    S(lipo)     H(rot)  DE(clash)    DE(int)     intcor
     11.97     -20.77       2.21        0.00     126.65       2.69       1.41       7.40       ----

> <Gold.Chemscore.Fitness>
11.9665

> <Gold.Chemscore.DG>
-20.7725

> <Gold.Chemscore.ZeroCoef>
-5.4800

> <Gold.Chemscore.Hbond>
2.2073

> <Gold.Chemscore.Metal>
0.0000

> <Gold.Chemscore.Lipo>
126.6474

> <Gold.Chemscore.Internal_Hbond>
0.0000

> <Gold.Chemscore.DEClash>
1.4078

> <Gold.Chemscore.DEInternal>
7.3983

> <Gold.Chemscore.Rot>
2.6944

> <Gold.Chemscore.Internal.Correction>
   9.000000E+99

> <Gold.Chemscore.Hbonds>
donor molecule, donor type, donor heavy atom, donor atom, acceptor molecule, acceptor atom, score
      L1  H    29    49       P1  7948  0.83
      P1  H  7954  7966       L1    29  0.21
      P1  H  7997  8009       L1     1  0.69
      P1  H  8011  8017       L1    10  0.14

> <Gold.Chemscore.Hbond.Weighted>
-7.3723

> <Gold.Chemscore.Metal.Weighted>
-0.0000

> <Gold.Chemscore.Lipo.Weighted>
-14.8177

> <Gold.Chemscore.Internal_Hbond.Weighted>
0.0000

> <Gold.Chemscore.DEClash.Weighted>
1.4078

> <Gold.Chemscore.DEInternal.Weighted>
7.3983

> <Gold.Chemscore.Rot.Weighted>
6.8975

> <Gold.Chemscore.Internal.Correction.Weighted>
   9.000000E+99

> <Gold.Protein.RotatedTorsions>
[ 6907 6896 6895 6894 ] final  143.01 input  -60.11 | X-H torsion
[ 7974 7965 7964 7962 ] final  162.69 input  175.53 | X-H torsion
[ 8008 7997 7996 7995 ] final  166.95 input   59.86 | X-H torsion
[ 10167 10162 10161 10158 ] final   71.73 input  -65.29 | X-H torsion
[ 10718 10713 10712 10709 ] final   24.63 input   66.30 | X-H torsion
[ 10763 10752 10751 10750 ] final   78.41 input  -60.55 | X-H torsion
[ 11005 11000 10999 10996 ] final -171.28 input  -57.11 | X-H torsion

> <Gold.Protein.ActiveResidues>
 VAL166  LYS551  ARG553  GLY616  TRP617  ASP618  TYR619  PRO620  LYS621  CYS622 
 ASP623  PHE694  ASN695  SER759  ASP760  ASP761  ALA762  ILE779  LEU786  VAL792 
 PHE793  MET794  SER795  GLU796  ALA797  LYS798  CYS799  TRP800  GLU811  SER814 

> <Gold.Protein.RotatedAtoms>
  152.2116  133.4915  159.5112 H   0  0  0  0  0  0  0  0  0  0  0  0  # atno 6907 bound_to 6896
  150.6991  134.1460  159.4131 H   0  0  0  0  0  0  0  0  0  0  0  0  # atno 6908 bound_to 6896
  151.9379  135.0226  160.0584 H   0  0  0  0  0  0  0  0  0  0  0  0  # atno 6909 bound_to 6896
  144.7624  139.8076  143.6327 H   0  0  0  0  0  0  0  0  0  0  0  0  # atno 7974 bound_to 7965
  156.1675  140.1630  156.8505 H   0  0  0  0  0  0  0  0  0  0  0  0  # atno 8008 bound_to 7997
  154.5223  140.0775  156.8229 H   0  0  0  0  0  0  0  0  0  0  0  0  # atno 8009 bound_to 7997
  155.3581  140.3393  155.4242 H   0  0  0  0  0  0  0  0  0  0  0  0  # atno 8010 bound_to 7997
  140.0429  144.5375  150.7420 H   0  0  0  0  0  0  0  0  0  0  0  0  # atno 10167 bound_to 10162
  157.1824  130.6809  149.6118 H   0  0  0  0  0  0  0  0  0  0  0  0  # atno 10718 bound_to 10713
  153.0872  135.4878  154.8619 H   0  0  0  0  0  0  0  0  0  0  0  0  # atno 10763 bound_to 10752
  154.7225  135.3042  154.9027 H   0  0  0  0  0  0  0  0  0  0  0  0  # atno 10764 bound_to 10752
  153.9687  135.6804  153.4799 H   0  0  0  0  0  0  0  0  0  0  0  0  # atno 10765 bound_to 10752
  140.5100  134.5811  157.5015 H   0  0  0  0  0  0  0  0  0  0  0  0  # atno 11005 bound_to 11000
  146.1700  139.4847  142.9933 LP  0  0  0  0  0  0  0  0  0  0  0  0  # atno 17320 bound_to 7965
  145.6576  141.0248  143.1726 LP  0  0  0  0  0  0  0  0  0  0  0  0  # atno 17321 bound_to 7965
  140.7252  143.2629  151.4145 LP  0  0  0  0  0  0  0  0  0  0  0  0  # atno 17342 bound_to 10162
  139.6002  144.1311  152.2189 LP  0  0  0  0  0  0  0  0  0  0  0  0  # atno 17343 bound_to 10162
  155.9722  130.4642  150.6209 LP  0  0  0  0  0  0  0  0  0  0  0  0  # atno 17370 bound_to 10713
  157.3939  131.0800  151.1369 LP  0  0  0  0  0  0  0  0  0  0  0  0  # atno 17371 bound_to 10713
  139.9664  134.7365  156.0129 LP  0  0  0  0  0  0  0  0  0  0  0  0  # atno 17394 bound_to 11000
  141.1391  133.6568  156.3677 LP  0  0  0  0  0  0  0  0  0  0  0  0  # atno 17395 bound_to 11000

$$$$
