AV-unprocessed.smi:2410|AV-procd|sdf|9529|dock3
  -GOLD-   2272013163D 1   1.00000     0.00000
 Structure written by MMmdl.
 47 49  0  0  0  0  0  0  0  0  2 V2000
  152.4635  143.5515  161.4787 C   0  0  0  0  0  0  0  0  0  0  0  0
  152.2496  142.7990  160.1765 C   0  0  0  0  0  0  0  0  0  0  0  0
  151.4145  143.3766  159.1930 C   0  0  0  0  0  0  0  0  0  0  0  0
  151.2391  142.6646  158.0122 C   0  0  0  0  0  0  0  0  0  0  0  0
  150.4913  142.9548  156.8685 N   0  3  0  0  0  0  0  0  0  0  0  0
  150.6323  141.9453  155.9647 C   0  0  0  0  0  0  0  0  0  0  0  0
  151.4584  141.0153  156.5159 N   0  0  0  0  0  0  0  0  0  0  0  0
  151.9431  139.7370  155.9807 C   0  0  0  0  0  0  0  0  0  0  0  0
  150.9091  139.0468  155.0701 C   0  0  1  0  0  0  0  0  0  0  0  0
  151.4017  137.7636  154.7363 O   0  0  0  0  0  0  0  0  0  0  0  0
  149.5396  138.8952  155.7671 C   0  0  0  0  0  0  0  0  0  0  0  0
  148.6312  140.0077  155.4447 N   0  0  0  0  0  0  0  0  0  0  0  0
  148.5235  140.3511  154.0875 C   0  0  0  0  0  0  0  0  0  0  0  0
  147.7533  141.3099  153.6891 N   0  0  0  0  0  0  0  0  0  0  0  0
  147.0053  142.0366  154.6202 C   0  0  0  0  0  0  0  0  0  0  0  0
  146.1310  143.1361  154.0438 C   0  0  0  0  0  0  0  0  0  0  0  0
  147.0734  141.7611  155.9514 C   0  0  0  0  0  0  0  0  0  0  0  0
  146.2841  142.5196  157.0109 C   0  0  0  0  0  0  0  0  0  0  0  0
  147.9499  140.6759  156.4205 C   0  0  0  0  0  0  0  0  0  0  0  0
  148.0741  140.3825  157.6118 O   0  0  0  0  0  0  0  0  0  0  0  0
  151.8615  141.4211  157.7920 C   0  0  0  0  0  0  0  0  0  0  0  0
  152.6859  140.8364  158.7500 C   0  0  0  0  0  0  0  0  0  0  0  0
  152.8758  141.5441  159.9582 C   0  0  0  0  0  0  0  0  0  0  0  0
  153.7706  140.9312  161.0220 C   0  0  0  0  0  0  0  0  0  0  0  0
  151.9384  144.5072  161.4788 H   0  0  0  0  0  0  0  0  0  0  0  0
  153.5232  143.7549  161.6350 H   0  0  0  0  0  0  0  0  0  0  0  0
  152.0938  142.9679  162.3223 H   0  0  0  0  0  0  0  0  0  0  0  0
  150.9336  144.3305  159.3526 H   0  0  0  0  0  0  0  0  0  0  0  0
  150.1704  141.8914  154.9894 H   0  0  0  0  0  0  0  0  0  0  0  0
  152.8692  139.9303  155.4373 H   0  0  0  0  0  0  0  0  0  0  0  0
  152.2072  139.0989  156.8251 H   0  0  0  0  0  0  0  0  0  0  0  0
  150.8052  139.6235  154.1507 H   0  0  0  0  0  0  0  0  0  0  0  0
  151.3081  137.1997  155.4890 H   0  0  0  0  0  0  0  0  0  0  0  0
  149.1003  137.9194  155.5485 H   0  0  0  0  0  0  0  0  0  0  0  0
  149.6811  138.8839  156.8494 H   0  0  0  0  0  0  0  0  0  0  0  0
  149.1323  139.7586  153.4025 H   0  0  0  0  0  0  0  0  0  0  0  0
  145.0811  142.9472  154.2692 H   0  0  0  0  0  0  0  0  0  0  0  0
  146.2340  143.1987  152.9597 H   0  0  0  0  0  0  0  0  0  0  0  0
  146.4095  144.1043  154.4611 H   0  0  0  0  0  0  0  0  0  0  0  0
  146.9646  142.9819  157.7269 H   0  0  0  0  0  0  0  0  0  0  0  0
  145.6321  141.8358  157.5555 H   0  0  0  0  0  0  0  0  0  0  0  0
  145.6583  143.3089  156.5974 H   0  0  0  0  0  0  0  0  0  0  0  0
  153.1613  139.8806  158.5831 H   0  0  0  0  0  0  0  0  0  0  0  0
  154.1422  139.9531  160.7148 H   0  0  0  0  0  0  0  0  0  0  0  0
  153.2241  140.8003  161.9561 H   0  0  0  0  0  0  0  0  0  0  0  0
  154.6323  141.5718  161.2103 H   0  0  0  0  0  0  0  0  0  0  0  0
  149.9249  143.7792  156.7140 H   0  0  0  0  0  0  0  0  0  0  0  0
  1  2  1  0  0  0  0
  1 25  1  0  0  0  0
  1 26  1  0  0  0  0
  1 27  1  0  0  0  0
  2 23  1  0  0  0  0
  2  3  2  0  0  0  0
  3  4  1  0  0  0  0
  3 28  1  0  0  0  0
  4 21  2  0  0  0  0
  4  5  1  0  0  0  0
  5  6  2  0  0  0  0
  5 47  1  0  0  0  0
  6  7  1  0  0  0  0
  6 29  1  0  0  0  0
  7  8  1  0  0  0  0
  7 21  1  0  0  0  0
  8  9  1  0  0  0  0
  8 30  1  0  0  0  0
  8 31  1  0  0  0  0
  9 10  1  0  0  0  0
  9 11  1  0  0  0  0
  9 32  1  0  0  0  0
 10 33  1  0  0  0  0
 11 12  1  0  0  0  0
 11 34  1  0  0  0  0
 11 35  1  0  0  0  0
 12 19  1  0  0  0  0
 12 13  1  0  0  0  0
 13 14  2  0  0  0  0
 13 36  1  0  0  0  0
 14 15  1  0  0  0  0
 15 16  1  0  0  0  0
 15 17  2  0  0  0  0
 16 37  1  0  0  0  0
 16 38  1  0  0  0  0
 16 39  1  0  0  0  0
 17 18  1  0  0  0  0
 17 19  1  0  0  0  0
 18 40  1  0  0  0  0
 18 41  1  0  0  0  0
 18 42  1  0  0  0  0
 19 20  2  0  0  0  0
 21 22  1  0  0  0  0
 22 23  2  0  0  0  0
 22 43  1  0  0  0  0
 23 24  1  0  0  0  0
 24 44  1  0  0  0  0
 24 45  1  0  0  0  0
 24 46  1  0  0  0  0
M  CHG  1   5   1
M  END
> <s_m_source_file>
AV-unprocessed.smi

> <i_m_source_file_index>
2410

> <i_lp_mmshare_version>
43012

> <i_f3d_flags>
0

> <s_epik_input>
W0NIM11jKFtjSF0xKWMoW0NIM10pW2NIXWMoYzEyKW4oW2NIXW4yKVtDSDJdW0NASF0oW09IXSlbQ0gyXW4zW2NIXW5jKFtDSDNdKWMoW0NIM10pYzM9Tw==

> <s_epik_cmdline>
J2VwaWtfcHl0aG9uJywgJy1waCcsICc3LjAnLCAnLXRuJywgJzgnLCAnLW1hJywgJzIwMCcsICctbWV0YWxfYmluZGluZycsICctaW1hZScsICc8aW5maWxlLm1hZT4nLCAnLW9tYWUnLCAnPG91dGZpbGUubWFlPic=

> <r_lp_tautomer_probability>
1

> <r_epik_Ionization_Penalty>
1.03571

> <r_epik_Ionization_Penalty_Charging>
1.03568

> <r_epik_Ionization_Penalty_Neutral>
3.18232e-05

> <r_epik_State_Penalty>
1.08724

> <r_epik_Charging_Adjusted_Penalty>
2.12292

> <i_epik_Tot_Q>
1

> <i_epik_Tot_abs_Q>
1

> <r_epik_Metal_State_Penalty>
1.18374

> <b_epik_Metal_Only>
0

> <s_lp_Force_Field>
OPLS_2005

> <r_lp_Energy>
24.5117

> <b_lp_Chiralities_Consistent>
1

> <s_lp_Variant>
AV-unprocessed.smi:2410-4

> <Gold.Version>
5.8.1

> <Gold.Id.Protein>
6NUR|6NUR_protein|mol2

> <Gold.PLP.Fitness>
53.9435

> <Gold.PLP.PLP>
-46.8295

> <Gold.PLP.part.hbond>
-1.0000

> <Gold.PLP.part.metal>
0.0000

> <Gold.PLP.part.buried>
-7.2921

> <Gold.PLP.part.nonpolar>
-38.1747

> <Gold.PLP.part.repulsive>
0.2085

> <Gold.PLP.ligand.clash>
0.0000

> <Gold.PLP.ligand.torsion>
0.9713

> <Gold.PLP.Chemscore.Hbond>
2.0000

> <Gold.PLP.Chemscore.CHOScore>
1.0000

> <Gold.PLP.Chemscore.Metal>
0.0000

> <Gold.Chemscore.Hbonds>
donor molecule, donor type, donor heavy atom, donor atom, acceptor molecule, acceptor atom, score
      L1  H     5    47       P1  8028  2.00
      L1  C    13    36       P1  7957  1.00

> <Gold.PLP.Chemscore.Internal.Correction>
0.0567

> <Gold.Rescore>
     Score         DG    S(hbond)    S(metal)    S(lipo)     H(rot)  DE(clash)    DE(int)     intcor
     13.40     -15.81       0.98        0.00     112.84       2.41       0.13       2.28       ----

> <Gold.Chemscore.Fitness>
13.3963

> <Gold.Chemscore.DG>
-15.8093

> <Gold.Chemscore.ZeroCoef>
-5.4800

> <Gold.Chemscore.Hbond>
0.9832

> <Gold.Chemscore.Metal>
0.0000

> <Gold.Chemscore.Lipo>
112.8439

> <Gold.Chemscore.Internal_Hbond>
0.0000

> <Gold.Chemscore.DEClash>
0.1334

> <Gold.Chemscore.DEInternal>
2.2796

> <Gold.Chemscore.Rot>
2.4052

> <Gold.Chemscore.Internal.Correction>
   9.000000E+99

> <Gold.Chemscore.Hbonds>
donor molecule, donor type, donor heavy atom, donor atom, acceptor molecule, acceptor atom, score
      L1  H     5    47       P1  8028  0.94

> <Gold.Chemscore.Hbond.Weighted>
-3.2839

> <Gold.Chemscore.Metal.Weighted>
-0.0000

> <Gold.Chemscore.Lipo.Weighted>
-13.2027

> <Gold.Chemscore.Internal_Hbond.Weighted>
0.0000

> <Gold.Chemscore.DEClash.Weighted>
0.1334

> <Gold.Chemscore.DEInternal.Weighted>
2.2796

> <Gold.Chemscore.Rot.Weighted>
6.1573

> <Gold.Chemscore.Internal.Correction.Weighted>
   9.000000E+99

> <Gold.Protein.RotatedTorsions>
[ 6907 6896 6895 6894 ] final   67.64 input  -60.11 | X-H torsion
[ 7974 7965 7964 7962 ] final  -51.63 input  175.53 | X-H torsion
[ 8008 7997 7996 7995 ] final  141.89 input   59.86 | X-H torsion
[ 10167 10162 10161 10158 ] final  178.94 input  -65.29 | X-H torsion
[ 10718 10713 10712 10709 ] final -156.81 input   66.30 | X-H torsion
[ 10763 10752 10751 10750 ] final   77.55 input  -60.55 | X-H torsion
[ 11005 11000 10999 10996 ] final -132.74 input  -57.11 | X-H torsion

> <Gold.Protein.ActiveResidues>
 VAL166  LYS551  ARG553  GLY616  TRP617  ASP618  TYR619  PRO620  LYS621  CYS622 
 ASP623  PHE694  ASN695  SER759  ASP760  ASP761  ALA762  ILE779  LEU786  VAL792 
 PHE793  MET794  SER795  GLU796  ALA797  LYS798  CYS799  TRP800  GLU811  SER814 

> <Gold.Protein.RotatedAtoms>
  152.4566  134.5278  159.9801 H   0  0  0  0  0  0  0  0  0  0  0  0  # atno 6907 bound_to 6896
  151.5337  133.3439  159.2930 H   0  0  0  0  0  0  0  0  0  0  0  0  # atno 6908 bound_to 6896
  150.8513  134.7868  159.7073 H   0  0  0  0  0  0  0  0  0  0  0  0  # atno 6909 bound_to 6896
  145.9169  140.7867  142.9667 H   0  0  0  0  0  0  0  0  0  0  0  0  # atno 7974 bound_to 7965
  156.2958  140.2303  156.4639 H   0  0  0  0  0  0  0  0  0  0  0  0  # atno 8008 bound_to 7997
  154.7994  140.0449  157.1282 H   0  0  0  0  0  0  0  0  0  0  0  0  # atno 8009 bound_to 7997
  154.9551  140.3047  155.5060 H   0  0  0  0  0  0  0  0  0  0  0  0  # atno 8010 bound_to 7997
  139.5315  144.2620  152.0699 H   0  0  0  0  0  0  0  0  0  0  0  0  # atno 10167 bound_to 10162
  156.5316  130.8523  151.2718 H   0  0  0  0  0  0  0  0  0  0  0  0  # atno 10718 bound_to 10713
  153.0807  135.4910  154.8496 H   0  0  0  0  0  0  0  0  0  0  0  0  # atno 10763 bound_to 10752
  154.7147  135.3027  154.9145 H   0  0  0  0  0  0  0  0  0  0  0  0  # atno 10764 bound_to 10752
  153.9828  135.6787  153.4804 H   0  0  0  0  0  0  0  0  0  0  0  0  # atno 10765 bound_to 10752
  140.9143  134.1527  157.4365 H   0  0  0  0  0  0  0  0  0  0  0  0  # atno 11005 bound_to 11000
  144.6749  140.1914  143.7396 LP  0  0  0  0  0  0  0  0  0  0  0  0  # atno 17320 bound_to 7965
  145.8600  139.2218  143.1722 LP  0  0  0  0  0  0  0  0  0  0  0  0  # atno 17321 bound_to 7965
  140.2084  144.4587  150.6397 LP  0  0  0  0  0  0  0  0  0  0  0  0  # atno 17342 bound_to 10162
  140.6496  143.2221  151.6107 LP  0  0  0  0  0  0  0  0  0  0  0  0  # atno 17343 bound_to 10162
  157.7421  130.9883  150.2490 LP  0  0  0  0  0  0  0  0  0  0  0  0  # atno 17370 bound_to 10713
  156.3054  130.3764  149.7711 LP  0  0  0  0  0  0  0  0  0  0  0  0  # atno 17371 bound_to 10713
  139.8763  134.9947  156.5709 LP  0  0  0  0  0  0  0  0  0  0  0  0  # atno 17394 bound_to 11000
  140.8070  133.8459  155.8776 LP  0  0  0  0  0  0  0  0  0  0  0  0  # atno 17395 bound_to 11000

$$$$
