AV-unprocessed.smi:244|AV-procd|sdf|1866|dock6
  -GOLD-   2262020503D 1   1.00000     0.00000
 Structure written by MMmdl.
 57 61  0  0  0  0  0  0  0  0  2 V2000
  145.6796  131.5930  151.9072 C   0  0  0  0  0  0  0  0  0  0  0  0
  145.2043  132.5647  150.8950 N   0  3  1  0  0  0  0  0  0  0  0  0
  143.7404  132.5132  150.6557 C   0  0  0  0  0  0  0  0  0  0  0  0
  142.9526  133.2110  151.7754 C   0  0  0  0  0  0  0  0  0  0  0  0
  143.4256  134.6680  151.9475 C   0  0  1  0  0  0  0  0  0  0  0  0
  142.7050  135.3581  152.9693 O   0  0  0  0  0  0  0  0  0  0  0  0
  143.0114  134.9402  154.2963 C   0  0  0  0  0  0  0  0  0  0  0  0
  144.5134  135.1039  154.5586 C   0  0  0  0  0  0  0  0  0  0  0  0
  145.2915  134.3841  153.5572 N   0  0  0  0  0  0  0  0  0  0  0  0
  146.6006  134.3679  153.9020 C   0  0  0  0  0  0  0  0  0  0  0  0
  147.3570  133.2589  153.6876 N   0  0  0  0  0  0  0  0  0  0  0  0
  148.6488  133.2553  154.0305 C   0  0  0  0  0  0  0  0  0  0  0  0
  149.3666  134.2324  154.5891 N   0  0  0  0  0  0  0  0  0  0  0  0
  148.6109  135.3488  154.7961 C   0  0  0  0  0  0  0  0  0  0  0  0
  147.2337  135.5012  154.4762 C   0  0  0  0  0  0  0  0  0  0  0  0
  146.7989  136.7732  154.8231 N   0  0  0  0  0  0  0  0  0  0  0  0
  147.8606  137.3419  155.3262 C   0  0  0  0  0  0  0  0  0  0  0  0
  148.9897  136.5538  155.3619 N   0  0  0  0  0  0  0  0  0  0  0  0
  150.2970  136.9309  155.8780 C   0  0  0  0  0  0  0  0  0  0  0  0
  151.2011  137.6525  154.8412 C   0  0  0  0  0  0  0  0  0  0  0  0
  151.9134  136.6570  154.1289 O   0  0  0  0  0  0  0  0  0  0  0  0
  150.4243  138.4958  153.8070 C   0  0  0  0  0  0  0  0  0  0  0  0
  149.8725  139.7872  154.4364 C   0  0  0  0  0  0  0  0  0  0  0  0
  150.9371  140.5403  155.0069 O   0  0  0  0  0  0  0  0  0  0  0  0
  151.6034  139.8539  156.0611 C   0  0  0  0  0  0  0  0  0  0  0  0
  152.2426  138.5598  155.5258 C   0  0  0  0  0  0  0  0  0  0  0  0
  144.9532  134.7608  152.1786 C   0  0  1  0  0  0  0  0  0  0  0  0
  145.7105  133.9507  151.0864 C   0  0  0  0  0  0  0  0  0  0  0  0
  145.2269  131.7634  152.8829 H   0  0  0  0  0  0  0  0  0  0  0  0
  146.7629  131.6497  152.0197 H   0  0  0  0  0  0  0  0  0  0  0  0
  145.4330  130.5768  151.5996 H   0  0  0  0  0  0  0  0  0  0  0  0
  143.5296  133.0027  149.7039 H   0  0  0  0  0  0  0  0  0  0  0  0
  143.4161  131.4777  150.5467 H   0  0  0  0  0  0  0  0  0  0  0  0
  141.8882  133.1955  151.5405 H   0  0  0  0  0  0  0  0  0  0  0  0
  143.0684  132.6455  152.6986 H   0  0  0  0  0  0  0  0  0  0  0  0
  143.1983  135.1909  151.0177 H   0  0  0  0  0  0  0  0  0  0  0  0
  142.4453  135.5569  154.9945 H   0  0  0  0  0  0  0  0  0  0  0  0
  142.6937  133.9123  154.4682 H   0  0  0  0  0  0  0  0  0  0  0  0
  144.7803  136.1616  154.5310 H   0  0  0  0  0  0  0  0  0  0  0  0
  144.7511  134.7399  155.5593 H   0  0  0  0  0  0  0  0  0  0  0  0
  149.1835  132.3382  153.8305 H   0  0  0  0  0  0  0  0  0  0  0  0
  147.8487  138.3570  155.6968 H   0  0  0  0  0  0  0  0  0  0  0  0
  150.1434  137.5528  156.7595 H   0  0  0  0  0  0  0  0  0  0  0  0
  150.7893  136.0254  156.2359 H   0  0  0  0  0  0  0  0  0  0  0  0
  151.4472  136.4692  153.3285 H   0  0  0  0  0  0  0  0  0  0  0  0
  151.0921  138.7772  152.9914 H   0  0  0  0  0  0  0  0  0  0  0  0
  149.6196  137.9226  153.3469 H   0  0  0  0  0  0  0  0  0  0  0  0
  149.3856  140.3933  153.6724 H   0  0  0  0  0  0  0  0  0  0  0  0
  149.1193  139.5726  155.1947 H   0  0  0  0  0  0  0  0  0  0  0  0
  152.3752  140.5069  156.4689 H   0  0  0  0  0  0  0  0  0  0  0  0
  150.9071  139.6483  156.8745 H   0  0  0  0  0  0  0  0  0  0  0  0
  152.7487  138.0272  156.3319 H   0  0  0  0  0  0  0  0  0  0  0  0
  153.0176  138.8357  154.8088 H   0  0  0  0  0  0  0  0  0  0  0  0
  145.2339  135.8092  152.0668 H   0  0  0  0  0  0  0  0  0  0  0  0
  146.7880  133.9344  151.2486 H   0  0  0  0  0  0  0  0  0  0  0  0
  145.5760  134.4659  150.1345 H   0  0  0  0  0  0  0  0  0  0  0  0
  145.6264  132.2493  150.0333 H   0  0  0  0  0  0  0  0  0  0  0  0
  1  2  1  0  0  0  0
  1 29  1  0  0  0  0
  1 30  1  0  0  0  0
  1 31  1  0  0  0  0
  2 28  1  0  0  0  0
  2  3  1  0  0  0  0
  2 57  1  0  0  0  0
  3  4  1  0  0  0  0
  3 32  1  0  0  0  0
  3 33  1  0  0  0  0
  4  5  1  0  0  0  0
  4 34  1  0  0  0  0
  4 35  1  0  0  0  0
  5 27  1  0  0  0  0
  5  6  1  0  0  0  0
  5 36  1  0  0  0  0
  6  7  1  0  0  0  0
  7  8  1  0  0  0  0
  7 37  1  0  0  0  0
  7 38  1  0  0  0  0
  8  9  1  0  0  0  0
  8 39  1  0  0  0  0
  8 40  1  0  0  0  0
  9 10  1  0  0  0  0
  9 27  1  0  0  0  0
 10 15  1  0  0  0  0
 10 11  2  0  0  0  0
 11 12  1  0  0  0  0
 12 13  2  0  0  0  0
 12 41  1  0  0  0  0
 13 14  1  0  0  0  0
 14 18  1  0  0  0  0
 14 15  2  0  0  0  0
 15 16  1  0  0  0  0
 16 17  2  0  0  0  0
 17 18  1  0  0  0  0
 17 42  1  0  0  0  0
 18 19  1  0  0  0  0
 19 20  1  0  0  0  0
 19 43  1  0  0  0  0
 19 44  1  0  0  0  0
 20 26  1  0  0  0  0
 20 21  1  0  0  0  0
 20 22  1  0  0  0  0
 21 45  1  0  0  0  0
 22 23  1  0  0  0  0
 22 46  1  0  0  0  0
 22 47  1  0  0  0  0
 23 24  1  0  0  0  0
 23 48  1  0  0  0  0
 23 49  1  0  0  0  0
 24 25  1  0  0  0  0
 25 26  1  0  0  0  0
 25 50  1  0  0  0  0
 25 51  1  0  0  0  0
 26 52  1  0  0  0  0
 26 53  1  0  0  0  0
 27 28  1  0  0  0  0
 27 54  1  0  0  0  0
 28 55  1  0  0  0  0
 28 56  1  0  0  0  0
M  CHG  1   2   1
M  END
> <s_m_source_file>
AV-unprocessed.smi

> <i_m_source_file_index>
244

> <i_lp_mmshare_version>
43012

> <i_f3d_flags>
0

> <s_epik_input>
W0NIMl0xW0NIMl1OKFtDSDNdKVtDSDJdW0NAQEhdKFtDQEhdMTIpTihbQ0gyXVtDSDJdTzIpYyhuW2NIXW4zKWMoYzM0KW5bY0hdbjRbQ0gyXUM1KFtPSF0pW0NIMl1bQ0gyXU9bQ0gyXVtDSDJdNQ==

> <s_epik_cmdline>
J2VwaWtfcHl0aG9uJywgJy1waCcsICc3LjAnLCAnLXRuJywgJzgnLCAnLW1hJywgJzIwMCcsICctbWV0YWxfYmluZGluZycsICctaW1hZScsICc8aW5maWxlLm1hZT4nLCAnLW9tYWUnLCAnPG91dGZpbGUubWFlPic=

> <r_lp_tautomer_probability>
1

> <r_epik_Ionization_Penalty>
0.0136215

> <r_epik_Ionization_Penalty_Charging>
0.0131385

> <r_epik_Ionization_Penalty_Neutral>
0.000483022

> <r_epik_State_Penalty>
0.0104001

> <r_epik_Charging_Adjusted_Penalty>
0.0235387

> <i_epik_Tot_Q>
1

> <i_epik_Tot_abs_Q>
1

> <r_epik_Metal_State_Penalty>
0.0104469

> <b_epik_Metal_Only>
0

> <s_lp_Force_Field>
OPLS_2005

> <r_lp_Energy>
49.6468

> <b_lp_Chiralities_Consistent>
1

> <s_lp_Variant>
AV-unprocessed.smi:244-3

> <Gold.Version>
5.8.1

> <Gold.Id.Protein>
6NUR|6NUR_protein|mol2

> <Gold.PLP.Fitness>
40.3890

> <Gold.PLP.PLP>
-35.5567

> <Gold.PLP.part.hbond>
-2.8785

> <Gold.PLP.part.metal>
0.0000

> <Gold.PLP.part.buried>
-1.2299

> <Gold.PLP.part.nonpolar>
-31.8781

> <Gold.PLP.part.repulsive>
0.6854

> <Gold.PLP.ligand.clash>
0.0000

> <Gold.PLP.ligand.torsion>
1.5115

> <Gold.PLP.Chemscore.Hbond>
2.5680

> <Gold.PLP.Chemscore.CHOScore>
0.0000

> <Gold.PLP.Chemscore.Metal>
0.0000

> <Gold.Chemscore.Hbonds>
donor molecule, donor type, donor heavy atom, donor atom, acceptor molecule, acceptor atom, score
      L1  H    21    45       P1  7949  1.00
      P1  H  7989  7998       L1    24  0.69
      P1  H 10752 10765       L1    21  0.80

> <Gold.PLP.Chemscore.Internal.Correction>
0.1514

> <Gold.Rescore>
     Score         DG    S(hbond)    S(metal)    S(lipo)     H(rot)  DE(clash)    DE(int)     intcor
     11.08     -15.17       1.55        0.00      84.44       2.09       0.13       3.96       ----

> <Gold.Chemscore.Fitness>
11.0810

> <Gold.Chemscore.DG>
-15.1706

> <Gold.Chemscore.ZeroCoef>
-5.4800

> <Gold.Chemscore.Hbond>
1.5463

> <Gold.Chemscore.Metal>
0.0000

> <Gold.Chemscore.Lipo>
84.4351

> <Gold.Chemscore.Internal_Hbond>
0.0000

> <Gold.Chemscore.DEClash>
0.1344

> <Gold.Chemscore.DEInternal>
3.9552

> <Gold.Chemscore.Rot>
2.0911

> <Gold.Chemscore.Internal.Correction>
   9.000000E+99

> <Gold.Chemscore.Hbonds>
donor molecule, donor type, donor heavy atom, donor atom, acceptor molecule, acceptor atom, score
      L1  H    21    45       P1  7949  0.81
      P1  H  7989  7998       L1    24  0.07
      P1  H 10752 10765       L1    21  0.15

> <Gold.Chemscore.Hbond.Weighted>
-5.1648

> <Gold.Chemscore.Metal.Weighted>
-0.0000

> <Gold.Chemscore.Lipo.Weighted>
-9.8789

> <Gold.Chemscore.Internal_Hbond.Weighted>
0.0000

> <Gold.Chemscore.DEClash.Weighted>
0.1344

> <Gold.Chemscore.DEInternal.Weighted>
3.9552

> <Gold.Chemscore.Rot.Weighted>
5.3531

> <Gold.Chemscore.Internal.Correction.Weighted>
   9.000000E+99

> <Gold.Protein.RotatedTorsions>
[ 6907 6896 6895 6894 ] final  174.96 input  -60.11 | X-H torsion
[ 7974 7965 7964 7962 ] final -150.08 input  175.53 | X-H torsion
[ 8008 7997 7996 7995 ] final   89.97 input   59.86 | X-H torsion
[ 10167 10162 10161 10158 ] final   52.97 input  -65.29 | X-H torsion
[ 10718 10713 10712 10709 ] final -103.08 input   66.30 | X-H torsion
[ 10763 10752 10751 10750 ] final  137.00 input  -60.55 | X-H torsion
[ 11005 11000 10999 10996 ] final -117.69 input  -57.11 | X-H torsion

> <Gold.Protein.ActiveResidues>
 VAL166  LYS551  ARG553  GLY616  TRP617  ASP618  TYR619  PRO620  LYS621  CYS622 
 ASP623  PHE694  ASN695  SER759  ASP760  ASP761  ALA762  ILE779  LEU786  VAL792 
 PHE793  MET794  SER795  GLU796  ALA797  LYS798  CYS799  TRP800  GLU811  SER814 

> <Gold.Protein.RotatedAtoms>
  151.7438  133.3323  159.3372 H   0  0  0  0  0  0  0  0  0  0  0  0  # atno 6907 bound_to 6896
  150.7562  134.6254  159.6167 H   0  0  0  0  0  0  0  0  0  0  0  0  # atno 6908 bound_to 6896
  152.3513  134.7004  160.0287 H   0  0  0  0  0  0  0  0  0  0  0  0  # atno 6909 bound_to 6896
  144.7928  140.4979  143.5760 H   0  0  0  0  0  0  0  0  0  0  0  0  # atno 7974 bound_to 7965
  156.0063  140.3355  155.6896 H   0  0  0  0  0  0  0  0  0  0  0  0  # atno 8008 bound_to 7997
  155.6220  140.0676  157.2693 H   0  0  0  0  0  0  0  0  0  0  0  0  # atno 8009 bound_to 7997
  154.4266  140.1775  156.1369 H   0  0  0  0  0  0  0  0  0  0  0  0  # atno 8010 bound_to 7997
  140.2457  144.3534  150.6365 H   0  0  0  0  0  0  0  0  0  0  0  0  # atno 10167 bound_to 10162
  156.0252  130.5450  150.7201 H   0  0  0  0  0  0  0  0  0  0  0  0  # atno 10718 bound_to 10713
  153.8658  135.3062  155.3440 H   0  0  0  0  0  0  0  0  0  0  0  0  # atno 10763 bound_to 10752
  154.7828  135.4826  153.9885 H   0  0  0  0  0  0  0  0  0  0  0  0  # atno 10764 bound_to 10752
  153.1435  135.6829  153.9085 H   0  0  0  0  0  0  0  0  0  0  0  0  # atno 10765 bound_to 10752
  141.0337  133.9942  157.3103 H   0  0  0  0  0  0  0  0  0  0  0  0  # atno 11005 bound_to 11000
  145.5749  139.1485  143.3267 LP  0  0  0  0  0  0  0  0  0  0  0  0  # atno 17320 bound_to 7965
  146.2187  140.5881  142.9027 LP  0  0  0  0  0  0  0  0  0  0  0  0  # atno 17321 bound_to 7965
  140.6079  143.2168  151.6944 LP  0  0  0  0  0  0  0  0  0  0  0  0  # atno 17342 bound_to 10162
  139.5062  144.3689  152.0490 LP  0  0  0  0  0  0  0  0  0  0  0  0  # atno 17343 bound_to 10162
  157.4819  131.0903  151.0526 LP  0  0  0  0  0  0  0  0  0  0  0  0  # atno 17370 bound_to 10713
  157.0957  130.5961  149.5449 LP  0  0  0  0  0  0  0  0  0  0  0  0  # atno 17371 bound_to 10713
  139.9226  135.0201  156.8118 LP  0  0  0  0  0  0  0  0  0  0  0  0  # atno 17394 bound_to 11000
  140.6360  133.9862  155.7685 LP  0  0  0  0  0  0  0  0  0  0  0  0  # atno 17395 bound_to 11000

$$$$
