AV-unprocessed.smi:275|AV-procd|sdf|2065|dock8
  -GOLD-   2262021313D 1   1.00000     0.00000
 Structure written by MMmdl.
 65 69  0  0  0  0  0  0  0  0  1 V2000
  151.9871  138.4891  158.5811 C   0  0  0  0  0  0  0  0  0  0  0  0
  151.8089  140.0102  158.7206 C   0  0  0  0  0  0  0  0  0  0  0  0
  152.2053  140.6606  157.3811 C   0  0  0  0  0  0  0  0  0  0  0  0
  152.5980  140.6216  159.9084 C   0  0  1  0  0  0  0  0  0  0  0  0
  153.9856  140.1619  159.7954 N   0  0  0  0  0  0  0  0  0  0  0  0
  154.6007  139.6581  160.9885 C   0  0  0  0  0  0  0  0  0  0  0  0
  155.5939  140.3792  161.5770 N   0  0  0  0  0  0  0  0  0  0  0  0
  156.1919  139.9633  162.6959 C   0  0  0  0  0  0  0  0  0  0  0  0
  155.9667  138.8524  163.3947 N   0  0  0  0  0  0  0  0  0  0  0  0
  155.0012  138.0951  162.8037 C   0  0  0  0  0  0  0  0  0  0  0  0
  154.2867  138.4122  161.6117 C   0  0  0  0  0  0  0  0  0  0  0  0
  153.3987  137.3825  161.3195 N   0  0  0  0  0  0  0  0  0  0  0  0
  153.5611  136.5236  162.2869 C   0  0  0  0  0  0  0  0  0  0  0  0
  154.4872  136.8854  163.2360 N   0  0  0  0  0  0  0  0  0  0  0  0
  154.8524  136.1306  164.4200 C   0  0  0  0  0  0  0  0  0  0  0  0
  155.4752  134.7379  164.1250 C   0  0  1  0  0  0  0  0  0  0  0  0
  156.5697  134.4434  165.1796 C   0  0  0  0  0  0  0  0  0  0  0  0
  157.5560  135.4550  165.1895 O   0  0  0  0  0  0  0  0  0  0  0  0
  154.4133  133.5972  164.0580 C   0  0  2  0  0  0  0  0  0  0  0  0
  153.7787  133.2195  165.3895 C   0  0  0  0  0  0  0  0  0  0  0  0
  153.2234  131.8329  165.1050 C   0  0  0  0  0  0  0  0  0  0  0  0
  154.2376  131.2223  164.3270 O   0  0  0  0  0  0  0  0  0  0  0  0
  154.9337  132.2233  163.5905 C   0  0  0  0  0  0  0  0  0  0  0  0
  154.4318  141.4664  159.3197 C   0  0  0  0  0  0  0  0  0  0  0  0
  153.1674  142.0755  159.9427 C   0  0  0  0  0  0  0  0  0  0  0  0
  153.3940  142.6910  161.3459 C   0  0  0  0  0  0  0  0  0  0  0  0
  152.1167  143.2367  161.9992 C   0  0  0  0  0  0  0  0  0  0  0  0
  151.4867  144.3218  161.1234 C   0  0  0  0  0  0  0  0  0  0  0  0
  151.2267  143.7811  159.7160 C   0  0  0  0  0  0  0  0  0  0  0  0
  152.5021  143.1765  159.0915 C   0  0  0  0  0  0  0  0  0  0  0  0
  153.0364  138.2020  158.6552 H   0  0  0  0  0  0  0  0  0  0  0  0
  151.6184  138.1361  157.6176 H   0  0  0  0  0  0  0  0  0  0  0  0
  151.4224  137.9405  159.3304 H   0  0  0  0  0  0  0  0  0  0  0  0
  150.7420  140.1915  158.8605 H   0  0  0  0  0  0  0  0  0  0  0  0
  153.2520  140.4702  157.1435 H   0  0  0  0  0  0  0  0  0  0  0  0
  152.0565  141.7405  157.3923 H   0  0  0  0  0  0  0  0  0  0  0  0
  151.6060  140.2673  156.5594 H   0  0  0  0  0  0  0  0  0  0  0  0
  152.1370  140.3885  160.8672 H   0  0  0  0  0  0  0  0  0  0  0  0
  156.9565  140.6171  163.0888 H   0  0  0  0  0  0  0  0  0  0  0  0
  152.9960  135.6047  162.3440 H   0  0  0  0  0  0  0  0  0  0  0  0
  155.5474  136.7507  164.9865 H   0  0  0  0  0  0  0  0  0  0  0  0
  153.9694  136.0163  165.0493 H   0  0  0  0  0  0  0  0  0  0  0  0
  155.9721  134.7813  163.1544 H   0  0  0  0  0  0  0  0  0  0  0  0
  156.1353  134.3509  166.1756 H   0  0  0  0  0  0  0  0  0  0  0  0
  157.0906  133.5106  164.9689 H   0  0  0  0  0  0  0  0  0  0  0  0
  157.2144  136.2043  165.6534 H   0  0  0  0  0  0  0  0  0  0  0  0
  153.6079  133.9045  163.3886 H   0  0  0  0  0  0  0  0  0  0  0  0
  154.5342  133.1625  166.1744 H   0  0  0  0  0  0  0  0  0  0  0  0
  153.0018  133.9153  165.7076 H   0  0  0  0  0  0  0  0  0  0  0  0
  153.0139  131.2649  166.0115 H   0  0  0  0  0  0  0  0  0  0  0  0
  152.3067  131.8965  164.5169 H   0  0  0  0  0  0  0  0  0  0  0  0
  154.7687  132.0699  162.5248 H   0  0  0  0  0  0  0  0  0  0  0  0
  155.9992  132.1050  163.7882 H   0  0  0  0  0  0  0  0  0  0  0  0
  155.3655  141.8578  159.7234 H   0  0  0  0  0  0  0  0  0  0  0  0
  154.4317  141.5060  158.2295 H   0  0  0  0  0  0  0  0  0  0  0  0
  153.8315  141.9641  162.0287 H   0  0  0  0  0  0  0  0  0  0  0  0
  154.1281  143.4953  161.2806 H   0  0  0  0  0  0  0  0  0  0  0  0
  151.4061  142.4244  162.1562 H   0  0  0  0  0  0  0  0  0  0  0  0
  152.3468  143.6425  162.9846 H   0  0  0  0  0  0  0  0  0  0  0  0
  150.5563  144.6745  161.5695 H   0  0  0  0  0  0  0  0  0  0  0  0
  152.1535  145.1832  161.0690 H   0  0  0  0  0  0  0  0  0  0  0  0
  150.4383  143.0349  159.7822 H   0  0  0  0  0  0  0  0  0  0  0  0
  150.8428  144.5773  159.0776 H   0  0  0  0  0  0  0  0  0  0  0  0
  153.2171  143.9848  158.9328 H   0  0  0  0  0  0  0  0  0  0  0  0
  152.2817  142.8062  158.0911 H   0  0  0  0  0  0  0  0  0  0  0  0
  1  2  1  0  0  0  0
  1 31  1  0  0  0  0
  1 32  1  0  0  0  0
  1 33  1  0  0  0  0
  2  3  1  0  0  0  0
  2  4  1  0  0  0  0
  2 34  1  0  0  0  0
  3 35  1  0  0  0  0
  3 36  1  0  0  0  0
  3 37  1  0  0  0  0
  4 25  1  0  0  0  0
  4  5  1  0  0  0  0
  4 38  1  0  0  0  0
  5  6  1  0  0  0  0
  5 24  1  0  0  0  0
  6 11  1  0  0  0  0
  6  7  2  0  0  0  0
  7  8  1  0  0  0  0
  8  9  2  0  0  0  0
  8 39  1  0  0  0  0
  9 10  1  0  0  0  0
 10 14  1  0  0  0  0
 10 11  2  0  0  0  0
 11 12  1  0  0  0  0
 12 13  2  0  0  0  0
 13 14  1  0  0  0  0
 13 40  1  0  0  0  0
 14 15  1  0  0  0  0
 15 16  1  0  0  0  0
 15 41  1  0  0  0  0
 15 42  1  0  0  0  0
 16 17  1  0  0  0  0
 16 19  1  0  0  0  0
 16 43  1  0  0  0  0
 17 18  1  0  0  0  0
 17 44  1  0  0  0  0
 17 45  1  0  0  0  0
 18 46  1  0  0  0  0
 19 23  1  0  0  0  0
 19 20  1  0  0  0  0
 19 47  1  0  0  0  0
 20 21  1  0  0  0  0
 20 48  1  0  0  0  0
 20 49  1  0  0  0  0
 21 22  1  0  0  0  0
 21 50  1  0  0  0  0
 21 51  1  0  0  0  0
 22 23  1  0  0  0  0
 23 52  1  0  0  0  0
 23 53  1  0  0  0  0
 24 25  1  0  0  0  0
 24 54  1  0  0  0  0
 24 55  1  0  0  0  0
 25 30  1  0  0  0  0
 25 26  1  0  0  0  0
 26 27  1  0  0  0  0
 26 56  1  0  0  0  0
 26 57  1  0  0  0  0
 27 28  1  0  0  0  0
 27 58  1  0  0  0  0
 27 59  1  0  0  0  0
 28 29  1  0  0  0  0
 28 60  1  0  0  0  0
 28 61  1  0  0  0  0
 29 30  1  0  0  0  0
 29 62  1  0  0  0  0
 29 63  1  0  0  0  0
 30 64  1  0  0  0  0
 30 65  1  0  0  0  0
M  END
> <s_m_source_file>
AV-unprocessed.smi

> <i_m_source_file_index>
275

> <i_lp_mmshare_version>
43012

> <i_f3d_flags>
0

> <s_epik_input>
W0NIMl0xW0NIMl1bQ0gyXVtDSDJdW0NIMl1DMTJbQ0BIXShbQ0hdKFtDSDNdKVtDSDNdKU4oW0NIMl0yKWMobltjSF1uMyljKGMzNCluW2NIXW40W0NIMl1bQ0BIXShbQ0gyXVtPSF0pW0NAQEhdNVtDSDJdW0NIMl1PW0NIMl01

> <s_epik_cmdline>
J2VwaWtfcHl0aG9uJywgJy1waCcsICc3LjAnLCAnLXRuJywgJzgnLCAnLW1hJywgJzIwMCcsICctbWV0YWxfYmluZGluZycsICctaW1hZScsICc8aW5maWxlLm1hZT4nLCAnLW9tYWUnLCAnPG91dGZpbGUubWFlPic=

> <r_lp_tautomer_probability>
1

> <r_epik_Ionization_Penalty>
0.00375122

> <r_epik_Ionization_Penalty_Charging>
0

> <r_epik_Ionization_Penalty_Neutral>
0.00375122

> <r_epik_State_Penalty>
0.00260593

> <r_epik_Charging_Adjusted_Penalty>
0.00260593

> <i_epik_Tot_Q>
0

> <i_epik_Tot_abs_Q>
0

> <r_epik_Metal_State_Penalty>
-0

> <b_epik_Metal_Only>
0

> <s_lp_Force_Field>
OPLS_2005

> <r_lp_Energy>
67.0366

> <b_lp_Chiralities_Consistent>
1

> <s_lp_Variant>
AV-unprocessed.smi:275-4

> <Gold.Version>
5.8.1

> <Gold.Id.Protein>
6NUR|6NUR_protein|mol2

> <Gold.PLP.Fitness>
47.9632

> <Gold.PLP.PLP>
-49.5662

> <Gold.PLP.part.hbond>
-1.0000

> <Gold.PLP.part.metal>
0.0000

> <Gold.PLP.part.buried>
-2.6026

> <Gold.PLP.part.nonpolar>
-44.9551

> <Gold.PLP.part.repulsive>
0.0000

> <Gold.PLP.ligand.clash>
0.0000

> <Gold.PLP.ligand.torsion>
1.0692

> <Gold.PLP.Chemscore.Hbond>
0.0000

> <Gold.PLP.Chemscore.CHOScore>
0.0000

> <Gold.PLP.Chemscore.Metal>
0.0000

> <Gold.PLP.Chemscore.Internal.Correction>
0.5354

> <Gold.Rescore>
     Score         DG    S(hbond)    S(metal)    S(lipo)     H(rot)  DE(clash)    DE(int)     intcor
     13.64     -17.76       0.00        0.00     160.50       2.54       2.40       1.72       ----

> <Gold.Chemscore.Fitness>
13.6381

> <Gold.Chemscore.DG>
-17.7616

> <Gold.Chemscore.ZeroCoef>
-5.4800

> <Gold.Chemscore.Hbond>
0.0000

> <Gold.Chemscore.Metal>
0.0000

> <Gold.Chemscore.Lipo>
160.4969

> <Gold.Chemscore.Internal_Hbond>
0.0000

> <Gold.Chemscore.DEClash>
2.4026

> <Gold.Chemscore.DEInternal>
1.7208

> <Gold.Chemscore.Rot>
2.5377

> <Gold.Chemscore.Internal.Correction>
   9.000000E+99

> <Gold.Chemscore.Hbond.Weighted>
-0.0000

> <Gold.Chemscore.Metal.Weighted>
-0.0000

> <Gold.Chemscore.Lipo.Weighted>
-18.7781

> <Gold.Chemscore.Internal_Hbond.Weighted>
0.0000

> <Gold.Chemscore.DEClash.Weighted>
2.4026

> <Gold.Chemscore.DEInternal.Weighted>
1.7208

> <Gold.Chemscore.Rot.Weighted>
6.4966

> <Gold.Chemscore.Internal.Correction.Weighted>
   9.000000E+99

> <Gold.Protein.RotatedTorsions>
[ 6907 6896 6895 6894 ] final   29.40 input  -60.11 | X-H torsion
[ 7974 7965 7964 7962 ] final  137.31 input  175.53 | X-H torsion
[ 8008 7997 7996 7995 ] final   36.32 input   59.86 | X-H torsion
[ 10167 10162 10161 10158 ] final   81.89 input  -65.29 | X-H torsion
[ 10718 10713 10712 10709 ] final  107.29 input   66.30 | X-H torsion
[ 10763 10752 10751 10750 ] final  -18.70 input  -60.55 | X-H torsion
[ 11005 11000 10999 10996 ] final   96.05 input  -57.11 | X-H torsion

> <Gold.Protein.ActiveResidues>
 VAL166  LYS551  ARG553  GLY616  TRP617  ASP618  TYR619  PRO620  LYS621  CYS622 
 ASP623  PHE694  ASN695  SER759  ASP760  ASP761  ALA762  ILE779  LEU786  VAL792 
 PHE793  MET794  SER795  GLU796  ALA797  LYS798  CYS799  TRP800  GLU811  SER814 

> <Gold.Protein.RotatedAtoms>
  152.0309  134.9768  160.0572 H   0  0  0  0  0  0  0  0  0  0  0  0  # atno 6907 bound_to 6896
  152.1245  133.4367  159.4699 H   0  0  0  0  0  0  0  0  0  0  0  0  # atno 6908 bound_to 6896
  150.6851  134.2414  159.4517 H   0  0  0  0  0  0  0  0  0  0  0  0  # atno 6909 bound_to 6896
  144.9480  139.4852  143.5539 H   0  0  0  0  0  0  0  0  0  0  0  0  # atno 7974 bound_to 7965
  155.1855  140.3303  155.4367 H   0  0  0  0  0  0  0  0  0  0  0  0  # atno 8008 bound_to 7997
  156.2461  140.1919  156.6900 H   0  0  0  0  0  0  0  0  0  0  0  0  # atno 8009 bound_to 7997
  154.6242  140.0591  156.9639 H   0  0  0  0  0  0  0  0  0  0  0  0  # atno 8010 bound_to 7997
  139.9345  144.6130  150.8312 H   0  0  0  0  0  0  0  0  0  0  0  0  # atno 10167 bound_to 10162
  157.6634  131.0869  150.6134 H   0  0  0  0  0  0  0  0  0  0  0  0  # atno 10718 bound_to 10713
  153.5933  135.7001  153.5414 H   0  0  0  0  0  0  0  0  0  0  0  0  # atno 10763 bound_to 10752
  153.3159  135.4088  155.1375 H   0  0  0  0  0  0  0  0  0  0  0  0  # atno 10764 bound_to 10752
  154.8596  135.3683  154.5466 H   0  0  0  0  0  0  0  0  0  0  0  0  # atno 10765 bound_to 10752
  139.8784  134.8931  156.4102 H   0  0  0  0  0  0  0  0  0  0  0  0  # atno 11005 bound_to 11000
  146.3311  139.8546  142.8867 LP  0  0  0  0  0  0  0  0  0  0  0  0  # atno 17320 bound_to 7965
  145.2888  141.0161  143.3675 LP  0  0  0  0  0  0  0  0  0  0  0  0  # atno 17321 bound_to 7965
  140.7628  143.3208  151.2627 LP  0  0  0  0  0  0  0  0  0  0  0  0  # atno 17342 bound_to 10162
  139.6755  143.9945  152.2778 LP  0  0  0  0  0  0  0  0  0  0  0  0  # atno 17343 bound_to 10162
  156.6436  130.4465  149.5744 LP  0  0  0  0  0  0  0  0  0  0  0  0  # atno 17370 bound_to 10713
  156.2191  130.6726  151.1349 LP  0  0  0  0  0  0  0  0  0  0  0  0  # atno 17371 bound_to 10713
  140.9206  133.7648  155.9901 LP  0  0  0  0  0  0  0  0  0  0  0  0  # atno 17394 bound_to 11000
  140.8444  134.3028  157.5301 LP  0  0  0  0  0  0  0  0  0  0  0  0  # atno 17395 bound_to 11000

$$$$
