AV-unprocessed.smi:2068|AV-procd|sdf|8430|dock1
  -GOLD-   2272011123D 1   1.00000     0.00000
 Structure written by MMmdl.
 32 33  0  0  0  0  0  0  0  0  2 V2000
  151.7699  134.7260  156.1465 N   0  0  0  0  0  0  0  0  0  0  0  0
  151.9342  134.9003  157.4615 C   0  0  0  0  0  0  0  0  0  0  0  0
  151.0916  134.5392  158.2809 O   0  0  0  0  0  0  0  0  0  0  0  0
  153.2185  135.5936  157.9255 C   0  0  0  0  0  0  0  0  0  0  0  0
  153.4306  136.8802  157.1802 C   0  0  0  0  0  0  0  0  0  0  0  0
  153.9025  137.0267  155.9011 C   0  0  0  0  0  0  0  0  0  0  0  0
  153.9772  138.7007  155.4303 S   0  0  0  0  0  0  0  0  0  0  0  0
  153.3533  139.1625  157.0147 C   0  0  0  0  0  0  0  0  0  0  0  0
  153.1257  140.4227  157.4154 N   0  5  0  0  0  0  0  0  0  0  0  0
  152.8504  140.6683  158.7191 C   0  0  0  0  0  0  0  0  0  0  0  0
  153.4010  140.2142  159.7234 O   0  0  0  0  0  0  0  0  0  0  0  0
  151.6957  141.6653  158.8899 C   0  0  0  0  0  0  0  0  0  0  0  0
  152.1554  143.0347  159.4369 C   0  0  1  0  0  0  0  0  0  0  0  0
  152.8799  143.8876  158.4234 C   0  0  0  0  0  0  0  0  0  0  0  0
  152.3645  145.1102  158.3183 C   0  0  0  0  0  0  0  0  0  0  0  0
  151.1933  145.3219  159.2369 C   0  0  0  0  0  0  0  0  0  0  0  0
  150.9809  143.9385  159.8917 C   0  0  0  0  0  0  0  0  0  0  0  0
  153.1393  138.0999  157.7980 N   0  0  0  0  0  0  0  0  0  0  0  0
  150.9480  134.2537  155.7993 H   0  0  0  0  0  0  0  0  0  0  0  0
  152.4813  135.0488  155.5055 H   0  0  0  0  0  0  0  0  0  0  0  0
  153.1558  135.7705  159.0001 H   0  0  0  0  0  0  0  0  0  0  0  0
  154.0655  134.9233  157.7737 H   0  0  0  0  0  0  0  0  0  0  0  0
  154.2034  136.2555  155.2082 H   0  0  0  0  0  0  0  0  0  0  0  0
  151.1582  141.8027  157.9491 H   0  0  0  0  0  0  0  0  0  0  0  0
  150.9764  141.2246  159.5811 H   0  0  0  0  0  0  0  0  0  0  0  0
  152.8371  142.8814  160.2750 H   0  0  0  0  0  0  0  0  0  0  0  0
  153.7319  143.5249  157.8665 H   0  0  0  0  0  0  0  0  0  0  0  0
  152.7325  145.8870  157.6644 H   0  0  0  0  0  0  0  0  0  0  0  0
  151.4364  146.0857  159.9763 H   0  0  0  0  0  0  0  0  0  0  0  0
  150.3161  145.6444  158.6755 H   0  0  0  0  0  0  0  0  0  0  0  0
  150.0260  143.5246  159.5648 H   0  0  0  0  0  0  0  0  0  0  0  0
  150.9385  144.0153  160.9786 H   0  0  0  0  0  0  0  0  0  0  0  0
  1  2  1  0  0  0  0
  1 19  1  0  0  0  0
  1 20  1  0  0  0  0
  2  3  2  0  0  0  0
  2  4  1  0  0  0  0
  4  5  1  0  0  0  0
  4 21  1  0  0  0  0
  4 22  1  0  0  0  0
  5 18  1  0  0  0  0
  5  6  2  0  0  0  0
  6  7  1  0  0  0  0
  6 23  1  0  0  0  0
  7  8  1  0  0  0  0
  8  9  1  0  0  0  0
  8 18  2  0  0  0  0
  9 10  1  0  0  0  0
 10 11  2  0  0  0  0
 10 12  1  0  0  0  0
 12 13  1  0  0  0  0
 12 24  1  0  0  0  0
 12 25  1  0  0  0  0
 13 17  1  0  0  0  0
 13 14  1  0  0  0  0
 13 26  1  0  0  0  0
 14 15  2  0  0  0  0
 14 27  1  0  0  0  0
 15 16  1  0  0  0  0
 15 28  1  0  0  0  0
 16 17  1  0  0  0  0
 16 29  1  0  0  0  0
 16 30  1  0  0  0  0
 17 31  1  0  0  0  0
 17 32  1  0  0  0  0
M  CHG  1   9  -1
M  END
> <s_m_source_file>
AV-unprocessed.smi

> <i_m_source_file_index>
2068

> <i_lp_mmshare_version>
43012

> <i_f3d_flags>
0

> <s_epik_input>
W05IMl1DKD1PKVtDSDJdYzFbY0hdc2MobjEpW05IXUMoPU8pW0NIMl1bQ0BASF0yW0NIXT1bQ0hdW0NIMl1bQ0gyXTI=

> <s_epik_cmdline>
J2VwaWtfcHl0aG9uJywgJy1waCcsICc3LjAnLCAnLXRuJywgJzgnLCAnLW1hJywgJzIwMCcsICctbWV0YWxfYmluZGluZycsICctaW1hZScsICc8aW5maWxlLm1hZT4nLCAnLW9tYWUnLCAnPG91dGZpbGUubWFlPic=

> <r_lp_tautomer_probability>
1

> <r_epik_Ionization_Penalty>
4.99584

> <r_epik_Ionization_Penalty_Charging>
4.63763

> <r_epik_Ionization_Penalty_Neutral>
0.358213

> <r_epik_State_Penalty>
4.63739

> <r_epik_Charging_Adjusted_Penalty>
9.27502

> <i_epik_Tot_Q>
-1

> <i_epik_Tot_abs_Q>
1

> <r_epik_Metal_State_Penalty>
0.891949

> <b_epik_Metal_Only>
1

> <s_lp_Force_Field>
OPLS_2005

> <r_lp_Energy>
14.2455

> <b_lp_Chiralities_Consistent>
1

> <s_lp_Variant>
AV-unprocessed.smi:2068-4

> <Gold.Version>
5.8.1

> <Gold.Id.Protein>
6NUR|6NUR_protein|mol2

> <Gold.PLP.Fitness>
44.5156

> <Gold.PLP.PLP>
-36.7260

> <Gold.PLP.part.hbond>
-2.0000

> <Gold.PLP.part.metal>
0.0000

> <Gold.PLP.part.buried>
-2.4321

> <Gold.PLP.part.nonpolar>
-31.6348

> <Gold.PLP.part.repulsive>
0.0000

> <Gold.PLP.ligand.clash>
0.0000

> <Gold.PLP.ligand.torsion>
0.8590

> <Gold.PLP.Chemscore.Hbond>
2.0000

> <Gold.PLP.Chemscore.CHOScore>
1.1047

> <Gold.PLP.Chemscore.Metal>
0.0000

> <Gold.Chemscore.Hbonds>
donor molecule, donor type, donor heavy atom, donor atom, acceptor molecule, acceptor atom, score
      P1  H  6896  6908       L1     3  0.01

> <Gold.PLP.Chemscore.Internal.Correction>
0.1936

> <Gold.Rescore>
     Score         DG    S(hbond)    S(metal)    S(lipo)     H(rot)  DE(clash)    DE(int)     intcor
     15.15     -17.36       1.96        0.00      93.00       2.17       0.02       2.20       ----

> <Gold.Chemscore.Fitness>
15.1531

> <Gold.Chemscore.DG>
-17.3650

> <Gold.Chemscore.ZeroCoef>
-5.4800

> <Gold.Chemscore.Hbond>
1.9601

> <Gold.Chemscore.Metal>
0.0000

> <Gold.Chemscore.Lipo>
92.9982

> <Gold.Chemscore.Internal_Hbond>
0.0000

> <Gold.Chemscore.DEClash>
0.0164

> <Gold.Chemscore.DEInternal>
2.1955

> <Gold.Chemscore.Rot>
2.1650

> <Gold.Chemscore.Internal.Correction>
   9.000000E+99

> <Gold.Chemscore.Hbonds>
donor molecule, donor type, donor heavy atom, donor atom, acceptor molecule, acceptor atom, score
      P1  H  6896  6908       L1     3  0.02

> <Gold.Chemscore.Hbond.Weighted>
-6.5467

> <Gold.Chemscore.Metal.Weighted>
-0.0000

> <Gold.Chemscore.Lipo.Weighted>
-10.8808

> <Gold.Chemscore.Internal_Hbond.Weighted>
0.0000

> <Gold.Chemscore.DEClash.Weighted>
0.0164

> <Gold.Chemscore.DEInternal.Weighted>
2.1955

> <Gold.Chemscore.Rot.Weighted>
5.5425

> <Gold.Chemscore.Internal.Correction.Weighted>
   9.000000E+99

> <Gold.Protein.RotatedTorsions>
[ 6907 6896 6895 6894 ] final  144.32 input  -60.11 | X-H torsion
[ 7974 7965 7964 7962 ] final  166.24 input  175.53 | X-H torsion
[ 8008 7997 7996 7995 ] final  163.53 input   59.86 | X-H torsion
[ 10167 10162 10161 10158 ] final  121.91 input  -65.29 | X-H torsion
[ 10718 10713 10712 10709 ] final   45.31 input   66.30 | X-H torsion
[ 10763 10752 10751 10750 ] final  117.31 input  -60.55 | X-H torsion
[ 11005 11000 10999 10996 ] final  122.62 input  -57.11 | X-H torsion

> <Gold.Protein.ActiveResidues>
 VAL166  LYS551  ARG553  GLY616  TRP617  ASP618  TYR619  PRO620  LYS621  CYS622 
 ASP623  PHE694  ASN695  SER759  ASP760  ASP761  ALA762  ILE779  LEU786  VAL792 
 PHE793  MET794  SER795  GLU796  ALA797  LYS798  CYS799  TRP800  GLU811  SER814 

> <Gold.Protein.RotatedAtoms>
  152.1951  133.4801  159.5028 H   0  0  0  0  0  0  0  0  0  0  0  0  # atno 6907 bound_to 6896
  150.6958  134.1662  159.4204 H   0  0  0  0  0  0  0  0  0  0  0  0  # atno 6908 bound_to 6896
  151.9578  135.0138  160.0596 H   0  0  0  0  0  0  0  0  0  0  0  0  # atno 6909 bound_to 6896
  144.7470  139.8586  143.6379 H   0  0  0  0  0  0  0  0  0  0  0  0  # atno 7974 bound_to 7965
  156.1950  140.1721  156.8016 H   0  0  0  0  0  0  0  0  0  0  0  0  # atno 8008 bound_to 7997
  154.5518  140.0716  156.8712 H   0  0  0  0  0  0  0  0  0  0  0  0  # atno 8009 bound_to 7997
  155.3014  140.3362  155.4250 H   0  0  0  0  0  0  0  0  0  0  0  0  # atno 8010 bound_to 7997
  139.5891  144.7018  151.3336 H   0  0  0  0  0  0  0  0  0  0  0  0  # atno 10167 bound_to 10162
  157.4362  130.8054  149.7650 H   0  0  0  0  0  0  0  0  0  0  0  0  # atno 10718 bound_to 10713
  153.5505  135.3540  155.2757 H   0  0  0  0  0  0  0  0  0  0  0  0  # atno 10763 bound_to 10752
  154.8707  135.4112  154.2942 H   0  0  0  0  0  0  0  0  0  0  0  0  # atno 10764 bound_to 10752
  153.3668  135.7062  153.6738 H   0  0  0  0  0  0  0  0  0  0  0  0  # atno 10765 bound_to 10752
  139.9276  134.9641  156.8136 H   0  0  0  0  0  0  0  0  0  0  0  0  # atno 11005 bound_to 11000
  146.1364  139.4411  143.0136 LP  0  0  0  0  0  0  0  0  0  0  0  0  # atno 17320 bound_to 7965
  145.7085  141.0114  143.1466 LP  0  0  0  0  0  0  0  0  0  0  0  0  # atno 17321 bound_to 7965
  140.7157  143.7272  150.7651 LP  0  0  0  0  0  0  0  0  0  0  0  0  # atno 17342 bound_to 10162
  140.0824  143.4956  152.2523 LP  0  0  0  0  0  0  0  0  0  0  0  0  # atno 17343 bound_to 10162
  155.9931  130.3926  150.2913 LP  0  0  0  0  0  0  0  0  0  0  0  0  # atno 17370 bound_to 10713
  157.1074  131.0212  151.3062 LP  0  0  0  0  0  0  0  0  0  0  0  0  # atno 17371 bound_to 10713
  140.6292  133.9922  155.7654 LP  0  0  0  0  0  0  0  0  0  0  0  0  # atno 17394 bound_to 11000
  141.0844  134.0013  157.3336 LP  0  0  0  0  0  0  0  0  0  0  0  0  # atno 17395 bound_to 11000

$$$$
