AV-unprocessed.smi:773|AV-procd|sdf|3690|dock5
  -GOLD-   22720 1103D 1   1.00000     0.00000
 Structure written by MMmdl.
 39 40  0  0  0  0  0  0  0  0  1 V2000
  150.4100  141.7967  156.1386 C   0  0  0  0  0  0  0  0  0  0  0  0
  151.3865  141.7232  157.2767 C   0  0  0  0  0  0  0  0  0  0  0  0
  151.8611  140.5486  157.6554 N   0  0  0  0  0  0  0  0  0  0  0  0
  152.7125  140.8097  158.7333 O   0  0  0  0  0  0  0  0  0  0  0  0
  152.7175  142.1475  158.9625 C   0  0  0  0  0  0  0  0  0  0  0  0
  153.5555  142.6311  160.0967 C   0  0  0  0  0  0  0  0  0  0  0  0
  151.9007  142.7875  158.0719 C   0  0  0  0  0  0  0  0  0  0  0  0
  151.5879  144.2608  157.9709 C   0  0  0  0  0  0  0  0  0  0  0  0
  151.1833  144.8919  159.3225 C   0  0  1  0  0  0  0  0  0  0  0  0
  152.1051  146.0583  159.7032 C   0  0  0  0  0  0  0  0  0  0  0  0
  149.7972  145.3606  159.2936 N   0  0  0  0  0  0  0  0  0  0  0  0
  148.9142  145.2521  160.2975 C   0  0  0  0  0  0  0  0  0  0  0  0
  149.1847  144.8135  161.4158 O   0  0  0  0  0  0  0  0  0  0  0  0
  147.6876  145.6350  159.9217 N   0  0  0  0  0  0  0  0  0  0  0  0
  146.5014  145.5076  160.7580 C   0  0  0  0  0  0  0  0  0  0  0  0
  146.4996  144.2412  161.6286 C   0  0  0  0  0  0  0  0  0  0  0  0
  145.0133  144.0961  161.2804 C   0  0  0  0  0  0  0  0  0  0  0  0
  145.3037  144.9068  160.0106 C   0  0  0  0  0  0  0  0  0  0  0  0
  149.5567  142.4235  156.3979 H   0  0  0  0  0  0  0  0  0  0  0  0
  150.0245  140.8118  155.8722 H   0  0  0  0  0  0  0  0  0  0  0  0
  150.8784  142.2227  155.2513 H   0  0  0  0  0  0  0  0  0  0  0  0
  154.1452  143.4984  159.7996 H   0  0  0  0  0  0  0  0  0  0  0  0
  154.2420  141.8561  160.4376 H   0  0  0  0  0  0  0  0  0  0  0  0
  152.9284  142.9210  160.9398 H   0  0  0  0  0  0  0  0  0  0  0  0
  152.4460  144.8018  157.5705 H   0  0  0  0  0  0  0  0  0  0  0  0
  150.7861  144.4244  157.2500 H   0  0  0  0  0  0  0  0  0  0  0  0
  151.2891  144.1291  160.0958 H   0  0  0  0  0  0  0  0  0  0  0  0
  153.1449  145.7345  159.7560 H   0  0  0  0  0  0  0  0  0  0  0  0
  151.8383  146.4671  160.6783 H   0  0  0  0  0  0  0  0  0  0  0  0
  152.0451  146.8678  158.9748 H   0  0  0  0  0  0  0  0  0  0  0  0
  149.4687  145.7394  158.4177 H   0  0  0  0  0  0  0  0  0  0  0  0
  147.5555  145.9833  158.9835 H   0  0  0  0  0  0  0  0  0  0  0  0
  146.2372  146.4072  161.3179 H   0  0  0  0  0  0  0  0  0  0  0  0
  147.1092  143.4302  161.2245 H   0  0  0  0  0  0  0  0  0  0  0  0
  146.7079  144.4142  162.6848 H   0  0  0  0  0  0  0  0  0  0  0  0
  144.6827  143.0722  161.1048 H   0  0  0  0  0  0  0  0  0  0  0  0
  144.3599  144.6203  161.9801 H   0  0  0  0  0  0  0  0  0  0  0  0
  144.5273  145.6230  159.7400 H   0  0  0  0  0  0  0  0  0  0  0  0
  145.5858  144.2758  159.1655 H   0  0  0  0  0  0  0  0  0  0  0  0
  1  2  1  0  0  0  0
  1 19  1  0  0  0  0
  1 20  1  0  0  0  0
  1 21  1  0  0  0  0
  2  7  1  0  0  0  0
  2  3  2  0  0  0  0
  3  4  1  0  0  0  0
  4  5  1  0  0  0  0
  5  6  1  0  0  0  0
  5  7  2  0  0  0  0
  6 22  1  0  0  0  0
  6 23  1  0  0  0  0
  6 24  1  0  0  0  0
  7  8  1  0  0  0  0
  8  9  1  0  0  0  0
  8 25  1  0  0  0  0
  8 26  1  0  0  0  0
  9 10  1  0  0  0  0
  9 11  1  0  0  0  0
  9 27  1  0  0  0  0
 10 28  1  0  0  0  0
 10 29  1  0  0  0  0
 10 30  1  0  0  0  0
 11 12  1  0  0  0  0
 11 31  1  0  0  0  0
 12 13  2  0  0  0  0
 12 14  1  0  0  0  0
 14 15  1  0  0  0  0
 14 32  1  0  0  0  0
 15 18  1  0  0  0  0
 15 16  1  0  0  0  0
 15 33  1  0  0  0  0
 16 17  1  0  0  0  0
 16 34  1  0  0  0  0
 16 35  1  0  0  0  0
 17 18  1  0  0  0  0
 17 36  1  0  0  0  0
 17 37  1  0  0  0  0
 18 38  1  0  0  0  0
 18 39  1  0  0  0  0
M  END
> <s_m_source_file>
AV-unprocessed.smi

> <i_m_source_file_index>
773

> <i_lp_mmshare_version>
43012

> <i_f3d_flags>
0

> <s_epik_input>
W0NIM11jMW5vYyhbQ0gzXSljMVtDSDJdW0NASF0oW0NIM10pW05IXUMoPU8pW05IXVtDSF0yW0NIMl1bQ0gyXVtDSDJdMg==

> <s_epik_cmdline>
J2VwaWtfcHl0aG9uJywgJy1waCcsICc3LjAnLCAnLXRuJywgJzgnLCAnLW1hJywgJzIwMCcsICctbWV0YWxfYmluZGluZycsICctaW1hZScsICc8aW5maWxlLm1hZT4nLCAnLW9tYWUnLCAnPG91dGZpbGUubWFlPic=

> <r_lp_tautomer_probability>
1

> <r_epik_Ionization_Penalty>
6.63278e-05

> <r_epik_Ionization_Penalty_Charging>
0

> <r_epik_Ionization_Penalty_Neutral>
6.63278e-05

> <r_epik_State_Penalty>
-0

> <r_epik_Charging_Adjusted_Penalty>
0

> <i_epik_Tot_Q>
0

> <i_epik_Tot_abs_Q>
0

> <r_epik_Metal_State_Penalty>
-0

> <b_epik_Metal_Only>
0

> <s_lp_Force_Field>
OPLS_2005

> <r_lp_Energy>
6.89309

> <b_lp_Chiralities_Consistent>
1

> <s_lp_Variant>
AV-unprocessed.smi:773-2

> <Gold.Version>
5.8.1

> <Gold.Id.Protein>
6NUR|6NUR_protein|mol2

> <Gold.PLP.Fitness>
46.1236

> <Gold.PLP.PLP>
-41.1004

> <Gold.PLP.part.hbond>
-3.0000

> <Gold.PLP.part.metal>
0.0000

> <Gold.PLP.part.buried>
-7.9898

> <Gold.PLP.part.nonpolar>
-31.5186

> <Gold.PLP.part.repulsive>
0.6295

> <Gold.PLP.ligand.clash>
0.0000

> <Gold.PLP.ligand.torsion>
1.3948

> <Gold.PLP.Chemscore.Hbond>
2.5195

> <Gold.PLP.Chemscore.CHOScore>
0.0000

> <Gold.PLP.Chemscore.Metal>
0.0000

> <Gold.Chemscore.Hbonds>
donor molecule, donor type, donor heavy atom, donor atom, acceptor molecule, acceptor atom, score
      L1  H    11    31       P1  8029  0.91
      L1  H    14    32       P1  8029  1.00

> <Gold.PLP.Chemscore.Internal.Correction>
0.2544

> <Gold.Rescore>
     Score         DG    S(hbond)    S(metal)    S(lipo)     H(rot)  DE(clash)    DE(int)     intcor
     20.23     -21.40       2.49        0.00      99.08       1.56       0.01       1.16       ----

> <Gold.Chemscore.Fitness>
20.2275

> <Gold.Chemscore.DG>
-21.4026

> <Gold.Chemscore.ZeroCoef>
-5.4800

> <Gold.Chemscore.Hbond>
2.4943

> <Gold.Chemscore.Metal>
0.0000

> <Gold.Chemscore.Lipo>
99.0754

> <Gold.Chemscore.Internal_Hbond>
0.0000

> <Gold.Chemscore.DEClash>
0.0123

> <Gold.Chemscore.DEInternal>
1.1629

> <Gold.Chemscore.Rot>
1.5625

> <Gold.Chemscore.Internal.Correction>
   9.000000E+99

> <Gold.Chemscore.Hbonds>
donor molecule, donor type, donor heavy atom, donor atom, acceptor molecule, acceptor atom, score
      L1  H    11    31       P1  8029  0.79
      L1  H    14    32       P1  8029  0.97

> <Gold.Chemscore.Hbond.Weighted>
-8.3309

> <Gold.Chemscore.Metal.Weighted>
-0.0000

> <Gold.Chemscore.Lipo.Weighted>
-11.5918

> <Gold.Chemscore.Internal_Hbond.Weighted>
0.0000

> <Gold.Chemscore.DEClash.Weighted>
0.0123

> <Gold.Chemscore.DEInternal.Weighted>
1.1629

> <Gold.Chemscore.Rot.Weighted>
4.0000

> <Gold.Chemscore.Internal.Correction.Weighted>
   9.000000E+99

> <Gold.Protein.RotatedTorsions>
[ 6907 6896 6895 6894 ] final   56.55 input  -60.11 | X-H torsion
[ 7974 7965 7964 7962 ] final  141.68 input  175.53 | X-H torsion
[ 8008 7997 7996 7995 ] final  -71.62 input   59.86 | X-H torsion
[ 10167 10162 10161 10158 ] final   88.79 input  -65.29 | X-H torsion
[ 10718 10713 10712 10709 ] final  -33.15 input   66.30 | X-H torsion
[ 10763 10752 10751 10750 ] final  -24.79 input  -60.55 | X-H torsion
[ 11005 11000 10999 10996 ] final   17.09 input  -57.11 | X-H torsion

> <Gold.Protein.ActiveResidues>
 VAL166  LYS551  ARG553  GLY616  TRP617  ASP618  TYR619  PRO620  LYS621  CYS622 
 ASP623  PHE694  ASN695  SER759  ASP760  ASP761  ALA762  ILE779  LEU786  VAL792 
 PHE793  MET794  SER795  GLU796  ALA797  LYS798  CYS799  TRP800  GLU811  SER814 

> <Gold.Protein.RotatedAtoms>
  152.3647  134.6822  160.0195 H   0  0  0  0  0  0  0  0  0  0  0  0  # atno 6907 bound_to 6896
  151.7134  133.3307  159.3304 H   0  0  0  0  0  0  0  0  0  0  0  0  # atno 6908 bound_to 6896
  150.7629  134.6446  159.6300 H   0  0  0  0  0  0  0  0  0  0  0  0  # atno 6909 bound_to 6896
  144.9075  139.5338  143.5724 H   0  0  0  0  0  0  0  0  0  0  0  0  # atno 7974 bound_to 7965
  154.5102  140.0812  156.7974 H   0  0  0  0  0  0  0  0  0  0  0  0  # atno 8008 bound_to 7997
  155.3803  140.3427  155.4228 H   0  0  0  0  0  0  0  0  0  0  0  0  # atno 8009 bound_to 7997
  156.1564  140.1574  156.8673 H   0  0  0  0  0  0  0  0  0  0  0  0  # atno 8010 bound_to 7997
  139.8637  144.6530  150.9028 H   0  0  0  0  0  0  0  0  0  0  0  0  # atno 10167 bound_to 10162
  156.3662  130.4332  149.7582 H   0  0  0  0  0  0  0  0  0  0  0  0  # atno 10718 bound_to 10713
  153.6895  135.6962  153.5094 H   0  0  0  0  0  0  0  0  0  0  0  0  # atno 10763 bound_to 10752
  153.2424  135.4301  155.0711 H   0  0  0  0  0  0  0  0  0  0  0  0  # atno 10764 bound_to 10752
  154.8377  135.3511  154.6437 H   0  0  0  0  0  0  0  0  0  0  0  0  # atno 10765 bound_to 10752
  140.4398  134.1334  155.7689 H   0  0  0  0  0  0  0  0  0  0  0  0  # atno 11005 bound_to 11000
  146.3141  139.7854  142.8997 LP  0  0  0  0  0  0  0  0  0  0  0  0  # atno 17320 bound_to 7965
  145.3511  141.0307  143.3338 LP  0  0  0  0  0  0  0  0  0  0  0  0  # atno 17321 bound_to 7965
  140.7771  143.3722  151.1628 LP  0  0  0  0  0  0  0  0  0  0  0  0  # atno 17342 bound_to 10162
  139.7349  143.9015  152.3031 LP  0  0  0  0  0  0  0  0  0  0  0  0  # atno 17343 bound_to 10162
  156.4727  130.8004  151.3021 LP  0  0  0  0  0  0  0  0  0  0  0  0  # atno 17370 bound_to 10713
  157.7479  131.0030  150.3024 LP  0  0  0  0  0  0  0  0  0  0  0  0  # atno 17371 bound_to 10713
  141.1710  133.8608  157.1569 LP  0  0  0  0  0  0  0  0  0  0  0  0  # atno 17394 bound_to 11000
  140.0078  135.0001  157.0329 LP  0  0  0  0  0  0  0  0  0  0  0  0  # atno 17395 bound_to 11000

$$$$
