AV-unprocessed.smi:2379|AV-procd|sdf|9452|dock7
  -GOLD-   2272013 83D 1   1.00000     0.00000
 Structure written by MMmdl.
 53 55  0  0  0  0  0  0  0  0  2 V2000
  151.6523  144.9531  158.7697 C   0  0  0  0  0  0  0  0  0  0  0  0
  151.9985  143.4877  158.9317 C   0  0  0  0  0  0  0  0  0  0  0  0
  152.9001  143.0635  159.9266 C   0  0  0  0  0  0  0  0  0  0  0  0
  153.1810  141.6867  160.0256 C   0  0  0  0  0  0  0  0  0  0  0  0
  154.1364  141.1597  161.0757 C   0  0  0  0  0  0  0  0  0  0  0  0
  152.6314  140.7620  159.2097 N   0  0  0  0  0  0  0  0  0  0  0  0
  151.7638  141.1592  158.2462 C   0  0  0  0  0  0  0  0  0  0  0  0
  151.1314  140.2661  157.3408 N   0  0  0  0  0  0  0  0  0  0  0  0
  151.0343  138.9276  157.4283 C   0  0  0  0  0  0  0  0  0  0  0  0
  151.5107  138.2348  158.3280 O   0  0  0  0  0  0  0  0  0  0  0  0
  150.3480  138.4198  156.3938 N   0  0  0  0  0  0  0  0  0  0  0  0
  150.0941  136.9985  156.1738 C   0  0  2  0  0  0  0  0  0  0  0  0
  151.0886  136.4416  155.1427 C   0  0  0  0  0  0  0  0  0  0  0  0
  150.7990  134.9633  154.8299 C   0  0  0  0  0  0  0  0  0  0  0  0
  149.4006  134.7742  154.3630 N   0  3  1  0  0  0  0  0  0  0  0  0
  149.1255  133.3821  153.9199 C   0  0  0  0  0  0  0  0  0  0  0  0
  148.0881  133.3250  152.7811 C   0  0  1  0  0  0  0  0  0  0  0  0
  147.5684  131.9263  152.5119 C   0  0  0  0  0  0  0  0  0  0  0  0
  146.2939  132.2030  151.7210 C   0  0  0  0  0  0  0  0  0  0  0  0
  145.8022  133.4478  152.2068 O   0  0  0  0  0  0  0  0  0  0  0  0
  146.7747  134.0651  153.0433 C   0  0  0  0  0  0  0  0  0  0  0  0
  148.4231  135.2719  155.3666 C   0  0  0  0  0  0  0  0  0  0  0  0
  148.6562  136.7590  155.6779 C   0  0  0  0  0  0  0  0  0  0  0  0
  151.4225  142.5208  158.0831 C   0  0  0  0  0  0  0  0  0  0  0  0
  152.0865  145.5538  159.5695 H   0  0  0  0  0  0  0  0  0  0  0  0
  150.5711  145.0916  158.7890 H   0  0  0  0  0  0  0  0  0  0  0  0
  152.0302  145.3267  157.8179 H   0  0  0  0  0  0  0  0  0  0  0  0
  153.3634  143.7737  160.5960 H   0  0  0  0  0  0  0  0  0  0  0  0
  154.4080  141.9383  161.7890 H   0  0  0  0  0  0  0  0  0  0  0  0
  155.0490  140.7922  160.6060 H   0  0  0  0  0  0  0  0  0  0  0  0
  153.6794  140.3386  161.6287 H   0  0  0  0  0  0  0  0  0  0  0  0
  150.7105  140.6968  156.5310 H   0  0  0  0  0  0  0  0  0  0  0  0
  149.9911  139.0608  155.7003 H   0  0  0  0  0  0  0  0  0  0  0  0
  150.2405  136.4643  157.1148 H   0  0  0  0  0  0  0  0  0  0  0  0
  151.0337  137.0233  154.2211 H   0  0  0  0  0  0  0  0  0  0  0  0
  152.1092  136.5454  155.5134 H   0  0  0  0  0  0  0  0  0  0  0  0
  151.4936  134.6231  154.0606 H   0  0  0  0  0  0  0  0  0  0  0  0
  150.9757  134.3483  155.7140 H   0  0  0  0  0  0  0  0  0  0  0  0
  150.0469  132.9391  153.5390 H   0  0  0  0  0  0  0  0  0  0  0  0
  148.8276  132.7572  154.7634 H   0  0  0  0  0  0  0  0  0  0  0  0
  148.5338  133.7043  151.8598 H   0  0  0  0  0  0  0  0  0  0  0  0
  148.2768  131.3024  151.9657 H   0  0  0  0  0  0  0  0  0  0  0  0
  147.3232  131.4231  153.4487 H   0  0  0  0  0  0  0  0  0  0  0  0
  146.5192  132.3095  150.6593 H   0  0  0  0  0  0  0  0  0  0  0  0
  145.5537  131.4105  151.8328 H   0  0  0  0  0  0  0  0  0  0  0  0
  146.4601  133.9425  154.0805 H   0  0  0  0  0  0  0  0  0  0  0  0
  146.8467  135.1324  152.8333 H   0  0  0  0  0  0  0  0  0  0  0  0
  147.4051  135.1402  155.0046 H   0  0  0  0  0  0  0  0  0  0  0  0
  148.5073  134.6827  156.2814 H   0  0  0  0  0  0  0  0  0  0  0  0
  147.9360  137.0902  156.4271 H   0  0  0  0  0  0  0  0  0  0  0  0
  148.4660  137.3531  154.7826 H   0  0  0  0  0  0  0  0  0  0  0  0
  150.7286  142.8248  157.3125 H   0  0  0  0  0  0  0  0  0  0  0  0
  149.3027  135.3553  153.5426 H   0  0  0  0  0  0  0  0  0  0  0  0
  1  2  1  0  0  0  0
  1 25  1  0  0  0  0
  1 26  1  0  0  0  0
  1 27  1  0  0  0  0
  2 24  1  0  0  0  0
  2  3  2  0  0  0  0
  3  4  1  0  0  0  0
  3 28  1  0  0  0  0
  4  5  1  0  0  0  0
  4  6  2  0  0  0  0
  5 29  1  0  0  0  0
  5 30  1  0  0  0  0
  5 31  1  0  0  0  0
  6  7  1  0  0  0  0
  7  8  1  0  0  0  0
  7 24  2  0  0  0  0
  8  9  1  0  0  0  0
  8 32  1  0  0  0  0
  9 10  2  0  0  0  0
  9 11  1  0  0  0  0
 11 12  1  0  0  0  0
 11 33  1  0  0  0  0
 12 23  1  0  0  0  0
 12 13  1  0  0  0  0
 12 34  1  0  0  0  0
 13 14  1  0  0  0  0
 13 35  1  0  0  0  0
 13 36  1  0  0  0  0
 14 15  1  0  0  0  0
 14 37  1  0  0  0  0
 14 38  1  0  0  0  0
 15 16  1  0  0  0  0
 15 22  1  0  0  0  0
 15 53  1  0  0  0  0
 16 17  1  0  0  0  0
 16 39  1  0  0  0  0
 16 40  1  0  0  0  0
 17 21  1  0  0  0  0
 17 18  1  0  0  0  0
 17 41  1  0  0  0  0
 18 19  1  0  0  0  0
 18 42  1  0  0  0  0
 18 43  1  0  0  0  0
 19 20  1  0  0  0  0
 19 44  1  0  0  0  0
 19 45  1  0  0  0  0
 20 21  1  0  0  0  0
 21 46  1  0  0  0  0
 21 47  1  0  0  0  0
 22 23  1  0  0  0  0
 22 48  1  0  0  0  0
 22 49  1  0  0  0  0
 23 50  1  0  0  0  0
 23 51  1  0  0  0  0
 24 52  1  0  0  0  0
M  CHG  1  15   1
M  END
> <s_m_source_file>
AV-unprocessed.smi

> <i_m_source_file_index>
2379

> <i_lp_mmshare_version>
43012

> <i_f3d_flags>
0

> <s_epik_input>
W0NIM11jMVtjSF1jKFtDSDNdKW5jKFtjSF0xKVtOSF1DKD1PKVtOSF1bQ0hdMltDSDJdW0NIMl1OKFtDSDJdW0NIMl0yKVtDSDJdW0NAQEhdM1tDSDJdW0NIMl1PW0NIMl0z

> <s_epik_cmdline>
J2VwaWtfcHl0aG9uJywgJy1waCcsICc3LjAnLCAnLXRuJywgJzgnLCAnLW1hJywgJzIwMCcsICctbWV0YWxfYmluZGluZycsICctaW1hZScsICc8aW5maWxlLm1hZT4nLCAnLW9tYWUnLCAnPG91dGZpbGUubWFlPic=

> <r_epik_Ionization_Penalty>
0.00766556

> <r_epik_Ionization_Penalty_Charging>
0.00747775

> <r_epik_Ionization_Penalty_Neutral>
0.00018781

> <r_epik_State_Penalty>
0.00558817

> <r_epik_Charging_Adjusted_Penalty>
0.0130659

> <i_epik_Tot_Q>
1

> <i_epik_Tot_abs_Q>
1

> <r_epik_Metal_State_Penalty>
-0

> <b_epik_Metal_Only>
0

> <s_lp_Force_Field>
OPLS_2005

> <r_lp_Energy>
35.6798

> <b_lp_Chiralities_Consistent>
1

> <s_lp_Variant>
AV-unprocessed.smi:2379-2

> <Gold.Version>
5.8.1

> <Gold.Id.Protein>
6NUR|6NUR_protein|mol2

> <Gold.PLP.Fitness>
45.6101

> <Gold.PLP.PLP>
-41.0032

> <Gold.PLP.part.hbond>
-1.0000

> <Gold.PLP.part.metal>
0.0000

> <Gold.PLP.part.buried>
-4.4418

> <Gold.PLP.part.nonpolar>
-35.2963

> <Gold.PLP.part.repulsive>
0.1523

> <Gold.PLP.ligand.clash>
0.0000

> <Gold.PLP.ligand.torsion>
0.7226

> <Gold.PLP.Chemscore.Hbond>
2.0000

> <Gold.PLP.Chemscore.CHOScore>
0.0000

> <Gold.PLP.Chemscore.Metal>
0.0000

> <Gold.Chemscore.Hbonds>
donor molecule, donor type, donor heavy atom, donor atom, acceptor molecule, acceptor atom, score
      L1  H    15    53       P1  7948  2.00

> <Gold.PLP.Chemscore.Internal.Correction>
0.0520

> <Gold.Rescore>
     Score         DG    S(hbond)    S(metal)    S(lipo)     H(rot)  DE(clash)    DE(int)     intcor
     16.32     -18.19       0.94        0.00     111.85       1.37       0.03       1.85       ----

> <Gold.Chemscore.Fitness>
16.3214

> <Gold.Chemscore.DG>
-18.1917

> <Gold.Chemscore.ZeroCoef>
-5.4800

> <Gold.Chemscore.Hbond>
0.9396

> <Gold.Chemscore.Metal>
0.0000

> <Gold.Chemscore.Lipo>
111.8540

> <Gold.Chemscore.Internal_Hbond>
0.0000

> <Gold.Chemscore.DEClash>
0.0251

> <Gold.Chemscore.DEInternal>
1.8453

> <Gold.Chemscore.Rot>
1.3725

> <Gold.Chemscore.Internal.Correction>
   9.000000E+99

> <Gold.Chemscore.Hbonds>
donor molecule, donor type, donor heavy atom, donor atom, acceptor molecule, acceptor atom, score
      L1  H    15    53       P1  7948  0.26

> <Gold.Chemscore.Hbond.Weighted>
-3.1384

> <Gold.Chemscore.Metal.Weighted>
-0.0000

> <Gold.Chemscore.Lipo.Weighted>
-13.0869

> <Gold.Chemscore.Internal_Hbond.Weighted>
0.0000

> <Gold.Chemscore.DEClash.Weighted>
0.0251

> <Gold.Chemscore.DEInternal.Weighted>
1.8453

> <Gold.Chemscore.Rot.Weighted>
3.5136

> <Gold.Chemscore.Internal.Correction.Weighted>
   9.000000E+99

> <Gold.Protein.RotatedTorsions>
[ 6907 6896 6895 6894 ] final -155.90 input  -60.11 | X-H torsion
[ 7974 7965 7964 7962 ] final  150.84 input  175.53 | X-H torsion
[ 8008 7997 7996 7995 ] final -122.51 input   59.86 | X-H torsion
[ 10167 10162 10161 10158 ] final -165.78 input  -65.29 | X-H torsion
[ 10718 10713 10712 10709 ] final  -11.79 input   66.30 | X-H torsion
[ 10763 10752 10751 10750 ] final   15.81 input  -60.55 | X-H torsion
[ 11005 11000 10999 10996 ] final -177.72 input  -57.11 | X-H torsion

> <Gold.Protein.ActiveResidues>
 VAL166  LYS551  ARG553  GLY616  TRP617  ASP618  TYR619  PRO620  LYS621  CYS622 
 ASP623  PHE694  ASN695  SER759  ASP760  ASP761  ALA762  ILE779  LEU786  VAL792 
 PHE793  MET794  SER795  GLU796  ALA797  LYS798  CYS799  TRP800  GLU811  SER814 

> <Gold.Protein.RotatedAtoms>
  151.2794  133.4217  159.2625 H   0  0  0  0  0  0  0  0  0  0  0  0  # atno 6907 bound_to 6896
  151.0374  134.9583  159.8154 H   0  0  0  0  0  0  0  0  0  0  0  0  # atno 6908 bound_to 6896
  152.5358  134.2753  159.9039 H   0  0  0  0  0  0  0  0  0  0  0  0  # atno 6909 bound_to 6896
  144.8335  139.6461  143.6048 H   0  0  0  0  0  0  0  0  0  0  0  0  # atno 7974 bound_to 7965
  155.1654  140.0407  157.2851 H   0  0  0  0  0  0  0  0  0  0  0  0  # atno 8008 bound_to 7997
  154.6307  140.2523  155.7410 H   0  0  0  0  0  0  0  0  0  0  0  0  # atno 8009 bound_to 7997
  156.2483  140.2876  156.0657 H   0  0  0  0  0  0  0  0  0  0  0  0  # atno 8010 bound_to 7997
  139.6159  144.0721  152.1887 H   0  0  0  0  0  0  0  0  0  0  0  0  # atno 10167 bound_to 10162
  156.6540  130.4963  149.6052 H   0  0  0  0  0  0  0  0  0  0  0  0  # atno 10718 bound_to 10713
  153.1489  135.6774  153.8912 H   0  0  0  0  0  0  0  0  0  0  0  0  # atno 10763 bound_to 10752
  153.8344  135.3113  155.3422 H   0  0  0  0  0  0  0  0  0  0  0  0  # atno 10764 bound_to 10752
  154.7847  135.4869  154.0006 H   0  0  0  0  0  0  0  0  0  0  0  0  # atno 10765 bound_to 10752
  140.4378  134.6459  157.4743 H   0  0  0  0  0  0  0  0  0  0  0  0  # atno 11005 bound_to 11000
  146.2636  139.6467  142.9345 LP  0  0  0  0  0  0  0  0  0  0  0  0  # atno 17320 bound_to 7965
  145.4845  141.0438  143.2627 LP  0  0  0  0  0  0  0  0  0  0  0  0  # atno 17321 bound_to 7965
  140.0351  144.6051  150.7456 LP  0  0  0  0  0  0  0  0  0  0  0  0  # atno 17342 bound_to 10162
  140.7350  143.2736  151.3811 LP  0  0  0  0  0  0  0  0  0  0  0  0  # atno 17343 bound_to 10162
  156.2062  130.6651  151.1221 LP  0  0  0  0  0  0  0  0  0  0  0  0  # atno 17370 bound_to 10713
  157.7132  131.0724  150.6426 LP  0  0  0  0  0  0  0  0  0  0  0  0  # atno 17371 bound_to 10713
  140.0090  134.6719  155.9409 LP  0  0  0  0  0  0  0  0  0  0  0  0  # atno 17394 bound_to 11000
  141.1718  133.6538  156.4681 LP  0  0  0  0  0  0  0  0  0  0  0  0  # atno 17395 bound_to 11000

$$$$
