AV-unprocessed.smi:316|AV-procd|sdf|2324|dock7
  -GOLD-   2262022223D 1   1.00000     0.00000
 Structure written by MMmdl.
 42 43  0  0  0  0  0  0  0  0  1 V2000
  149.2857  145.1946  159.9483 C   0  0  0  0  0  0  0  0  0  0  0  0
  150.5405  144.4611  160.0079 N   0  0  0  0  0  0  0  0  0  0  0  0
  151.7133  144.9340  159.5620 C   0  0  0  0  0  0  0  0  0  0  0  0
  151.8432  146.0510  159.0606 O   0  0  0  0  0  0  0  0  0  0  0  0
  152.9232  144.0086  159.7088 C   0  0  0  0  0  0  0  0  0  0  0  0
  152.5116  142.5440  159.9537 C   0  0  0  0  0  0  0  0  0  0  0  0
  151.6977  142.0220  158.8618 N   0  0  0  0  0  0  0  0  0  0  0  0
  152.0262  140.9755  158.0913 C   0  0  0  0  0  0  0  0  0  0  0  0
  153.0718  140.3383  158.2204 O   0  0  0  0  0  0  0  0  0  0  0  0
  151.0820  140.7386  157.1656 N   0  0  0  0  0  0  0  0  0  0  0  0
  151.0985  139.7731  156.1193 C   0  0  0  0  0  0  0  0  0  0  0  0
  152.1701  138.8590  155.9682 C   0  0  0  0  0  0  0  0  0  0  0  0
  152.1081  137.8841  154.9580 C   0  0  0  0  0  0  0  0  0  0  0  0
  150.9655  137.8444  154.1420 C   0  0  0  0  0  0  0  0  0  0  0  0
  149.9303  138.6961  154.2825 N   0  0  0  0  0  0  0  0  0  0  0  0
  149.9819  139.6520  155.2428 C   0  0  0  0  0  0  0  0  0  0  0  0
  148.8755  140.5276  155.3327 N   0  0  0  0  0  0  0  0  0  0  0  0
  147.5591  140.0228  155.7088 C   0  0  0  0  0  0  0  0  0  0  0  0
  146.5840  141.1272  155.3112 C   0  0  0  0  0  0  0  0  0  0  0  0
  147.2186  141.6784  154.0380 C   0  0  0  0  0  0  0  0  0  0  0  0
  148.7232  141.5460  154.2975 C   0  0  0  0  0  0  0  0  0  0  0  0
  148.4781  144.5831  160.3508 H   0  0  0  0  0  0  0  0  0  0  0  0
  149.0357  145.4542  158.9187 H   0  0  0  0  0  0  0  0  0  0  0  0
  149.3445  146.1121  160.5350 H   0  0  0  0  0  0  0  0  0  0  0  0
  150.5161  143.5333  160.4061 H   0  0  0  0  0  0  0  0  0  0  0  0
  153.5251  144.0812  158.8024 H   0  0  0  0  0  0  0  0  0  0  0  0
  153.5508  144.3635  160.5281 H   0  0  0  0  0  0  0  0  0  0  0  0
  153.3922  141.9132  160.0904 H   0  0  0  0  0  0  0  0  0  0  0  0
  151.9274  142.4645  160.8711 H   0  0  0  0  0  0  0  0  0  0  0  0
  150.8206  142.4893  158.6836 H   0  0  0  0  0  0  0  0  0  0  0  0
  150.3183  141.3980  157.1310 H   0  0  0  0  0  0  0  0  0  0  0  0
  153.0277  138.8738  156.6230 H   0  0  0  0  0  0  0  0  0  0  0  0
  152.9115  137.1755  154.8214 H   0  0  0  0  0  0  0  0  0  0  0  0
  150.8765  137.1056  153.3594 H   0  0  0  0  0  0  0  0  0  0  0  0
  147.3188  139.1127  155.1575 H   0  0  0  0  0  0  0  0  0  0  0  0
  147.5085  139.8014  156.7752 H   0  0  0  0  0  0  0  0  0  0  0  0
  145.5673  140.7631  155.1610 H   0  0  0  0  0  0  0  0  0  0  0  0
  146.5599  141.9003  156.0806 H   0  0  0  0  0  0  0  0  0  0  0  0
  146.9358  141.0541  153.1894 H   0  0  0  0  0  0  0  0  0  0  0  0
  146.9146  142.7021  153.8181 H   0  0  0  0  0  0  0  0  0  0  0  0
  149.1185  142.4898  154.6733 H   0  0  0  0  0  0  0  0  0  0  0  0
  149.2643  141.2916  153.3850 H   0  0  0  0  0  0  0  0  0  0  0  0
  1  2  1  0  0  0  0
  1 22  1  0  0  0  0
  1 23  1  0  0  0  0
  1 24  1  0  0  0  0
  2  3  1  0  0  0  0
  2 25  1  0  0  0  0
  3  4  2  0  0  0  0
  3  5  1  0  0  0  0
  5  6  1  0  0  0  0
  5 26  1  0  0  0  0
  5 27  1  0  0  0  0
  6  7  1  0  0  0  0
  6 28  1  0  0  0  0
  6 29  1  0  0  0  0
  7  8  1  0  0  0  0
  7 30  1  0  0  0  0
  8  9  2  0  0  0  0
  8 10  1  0  0  0  0
 10 11  1  0  0  0  0
 10 31  1  0  0  0  0
 11 16  1  0  0  0  0
 11 12  2  0  0  0  0
 12 13  1  0  0  0  0
 12 32  1  0  0  0  0
 13 14  2  0  0  0  0
 13 33  1  0  0  0  0
 14 15  1  0  0  0  0
 14 34  1  0  0  0  0
 15 16  2  0  0  0  0
 16 17  1  0  0  0  0
 17 21  1  0  0  0  0
 17 18  1  0  0  0  0
 18 19  1  0  0  0  0
 18 35  1  0  0  0  0
 18 36  1  0  0  0  0
 19 20  1  0  0  0  0
 19 37  1  0  0  0  0
 19 38  1  0  0  0  0
 20 21  1  0  0  0  0
 20 39  1  0  0  0  0
 20 40  1  0  0  0  0
 21 41  1  0  0  0  0
 21 42  1  0  0  0  0
M  END
> <s_m_source_file>
AV-unprocessed.smi

> <i_m_source_file_index>
316

> <i_lp_mmshare_version>
43012

> <i_f3d_flags>
0

> <s_epik_input>
W0NIM11bTkhdQyg9TylbQ0gyXVtDSDJdW05IXUMoPU8pW05IXWMxW2NIXVtjSF1bY0hdbmMxTjJbQ0gyXVtDSDJdW0NIMl1bQ0gyXTI=

> <s_epik_cmdline>
J2VwaWtfcHl0aG9uJywgJy1waCcsICc3LjAnLCAnLXRuJywgJzgnLCAnLW1hJywgJzIwMCcsICctbWV0YWxfYmluZGluZycsICctaW1hZScsICc8aW5maWxlLm1hZT4nLCAnLW9tYWUnLCAnPG91dGZpbGUubWFlPic=

> <r_lp_tautomer_probability>
1

> <r_epik_Ionization_Penalty>
0.0916714

> <r_epik_Ionization_Penalty_Charging>
0

> <r_epik_Ionization_Penalty_Neutral>
0.0916714

> <r_epik_State_Penalty>
0.0814442

> <r_epik_Charging_Adjusted_Penalty>
0.0814442

> <i_epik_Tot_Q>
0

> <i_epik_Tot_abs_Q>
0

> <r_epik_Metal_State_Penalty>
0.0705089

> <b_epik_Metal_Only>
0

> <s_lp_Force_Field>
OPLS_2005

> <r_lp_Energy>
29.6087

> <b_lp_Chiralities_Consistent>
1

> <s_lp_Variant>
AV-unprocessed.smi:316-1

> <Gold.Version>
5.8.1

> <Gold.Id.Protein>
6NUR|6NUR_protein|mol2

> <Gold.PLP.Fitness>
43.3018

> <Gold.PLP.PLP>
-37.8703

> <Gold.PLP.part.hbond>
-2.0000

> <Gold.PLP.part.metal>
0.0000

> <Gold.PLP.part.buried>
-5.5375

> <Gold.PLP.part.nonpolar>
-31.2773

> <Gold.PLP.part.repulsive>
0.7525

> <Gold.PLP.ligand.clash>
0.0000

> <Gold.PLP.ligand.torsion>
0.4138

> <Gold.PLP.Chemscore.Hbond>
0.8960

> <Gold.PLP.Chemscore.CHOScore>
1.0721

> <Gold.PLP.Chemscore.Metal>
0.0000

> <Gold.Chemscore.Hbonds>
donor molecule, donor type, donor heavy atom, donor atom, acceptor molecule, acceptor atom, score
      P1  H  7997  8008       L1     9  0.85
      L1  C    14    34       P1  7948  0.14
      L1  C    14    34       P1  7949  0.90

> <Gold.PLP.Chemscore.Internal.Correction>
0.3548

> <Gold.Rescore>
     Score         DG    S(hbond)    S(metal)    S(lipo)     H(rot)  DE(clash)    DE(int)     intcor
      9.52     -12.77       0.98        0.00      76.92       1.94       0.08       3.17       ----

> <Gold.Chemscore.Fitness>
9.5207

> <Gold.Chemscore.DG>
-12.7742

> <Gold.Chemscore.ZeroCoef>
-5.4800

> <Gold.Chemscore.Hbond>
0.9792

> <Gold.Chemscore.Metal>
0.0000

> <Gold.Chemscore.Lipo>
76.9201

> <Gold.Chemscore.Internal_Hbond>
0.0000

> <Gold.Chemscore.DEClash>
0.0819

> <Gold.Chemscore.DEInternal>
3.1716

> <Gold.Chemscore.Rot>
1.9437

> <Gold.Chemscore.Internal.Correction>
   9.000000E+99

> <Gold.Chemscore.Hbonds>
donor molecule, donor type, donor heavy atom, donor atom, acceptor molecule, acceptor atom, score
      P1  H  7997  8008       L1     9  0.82

> <Gold.Chemscore.Hbond.Weighted>
-3.2704

> <Gold.Chemscore.Metal.Weighted>
-0.0000

> <Gold.Chemscore.Lipo.Weighted>
-8.9997

> <Gold.Chemscore.Internal_Hbond.Weighted>
0.0000

> <Gold.Chemscore.DEClash.Weighted>
0.0819

> <Gold.Chemscore.DEInternal.Weighted>
3.1716

> <Gold.Chemscore.Rot.Weighted>
4.9759

> <Gold.Chemscore.Internal.Correction.Weighted>
   9.000000E+99

> <Gold.Protein.RotatedTorsions>
[ 6907 6896 6895 6894 ] final -178.41 input  -60.11 | X-H torsion
[ 7974 7965 7964 7962 ] final   74.07 input  175.53 | X-H torsion
[ 8008 7997 7996 7995 ] final  -92.38 input   59.86 | X-H torsion
[ 10167 10162 10161 10158 ] final  -24.81 input  -65.29 | X-H torsion
[ 10718 10713 10712 10709 ] final   89.73 input   66.30 | X-H torsion
[ 10763 10752 10751 10750 ] final  150.13 input  -60.55 | X-H torsion
[ 11005 11000 10999 10996 ] final   24.00 input  -57.11 | X-H torsion

> <Gold.Protein.ActiveResidues>
 VAL166  LYS551  ARG553  GLY616  TRP617  ASP618  TYR619  PRO620  LYS621  CYS622 
 ASP623  PHE694  ASN695  SER759  ASP760  ASP761  ALA762  ILE779  LEU786  VAL792 
 PHE793  MET794  SER795  GLU796  ALA797  LYS798  CYS799  TRP800  GLU811  SER814 

> <Gold.Protein.RotatedAtoms>
  151.6368  133.3328  159.3120 H   0  0  0  0  0  0  0  0  0  0  0  0  # atno 6907 bound_to 6896
  150.8028  134.7138  159.6628 H   0  0  0  0  0  0  0  0  0  0  0  0  # atno 6908 bound_to 6896
  152.4122  134.6109  160.0077 H   0  0  0  0  0  0  0  0  0  0  0  0  # atno 6909 bound_to 6896
  145.7329  139.2690  143.1531 H   0  0  0  0  0  0  0  0  0  0  0  0  # atno 7974 bound_to 7965
  154.7224  140.0509  157.0651 H   0  0  0  0  0  0  0  0  0  0  0  0  # atno 8008 bound_to 7997
  155.0410  140.3168  155.4705 H   0  0  0  0  0  0  0  0  0  0  0  0  # atno 8009 bound_to 7997
  156.2820  140.2133  156.5533 H   0  0  0  0  0  0  0  0  0  0  0  0  # atno 8010 bound_to 7997
  140.7287  143.4320  151.0787 H   0  0  0  0  0  0  0  0  0  0  0  0  # atno 10167 bound_to 10162
  157.6956  131.0344  150.3470 H   0  0  0  0  0  0  0  0  0  0  0  0  # atno 10718 bound_to 10713
  154.0824  135.2858  155.3288 H   0  0  0  0  0  0  0  0  0  0  0  0  # atno 10763 bound_to 10752
  154.6675  135.5312  153.8099 H   0  0  0  0  0  0  0  0  0  0  0  0  # atno 10764 bound_to 10752
  153.0444  135.6549  154.0998 H   0  0  0  0  0  0  0  0  0  0  0  0  # atno 10765 bound_to 10752
  140.3634  134.2100  155.7671 H   0  0  0  0  0  0  0  0  0  0  0  0  # atno 11005 bound_to 11000
  146.0521  140.8059  142.9776 LP  0  0  0  0  0  0  0  0  0  0  0  0  # atno 17320 bound_to 7965
  144.6889  140.3068  143.7254 LP  0  0  0  0  0  0  0  0  0  0  0  0  # atno 17321 bound_to 7965
  139.7978  143.8127  152.3159 LP  0  0  0  0  0  0  0  0  0  0  0  0  # atno 17342 bound_to 10162
  139.8133  144.7327  150.9669 LP  0  0  0  0  0  0  0  0  0  0  0  0  # atno 17343 bound_to 10162
  156.3923  130.3900  149.7020 LP  0  0  0  0  0  0  0  0  0  0  0  0  # atno 17370 bound_to 10713
  156.4366  130.7841  151.2861 LP  0  0  0  0  0  0  0  0  0  0  0  0  # atno 17371 bound_to 10713
  141.1977  133.8053  157.0616 LP  0  0  0  0  0  0  0  0  0  0  0  0  # atno 17394 bound_to 11000
  140.0608  134.9755  157.1302 LP  0  0  0  0  0  0  0  0  0  0  0  0  # atno 17395 bound_to 11000

$$$$
