AV-unprocessed.smi:2439|AV-procd|sdf|9603|dock10
  -GOLD-   2272013233D 1   1.00000     0.00000
 Structure written by MMmdl.
 41 43  0  0  0  0  0  0  0  0  2 V2000
  152.1183  132.1586  157.9206 N   0  0  0  0  0  0  0  0  0  0  0  0
  152.2543  131.2972  157.1603 C   0  0  0  0  0  0  0  0  0  0  0  0
  152.4268  130.2112  156.2029 C   0  0  0  0  0  0  0  0  0  0  0  0
  153.6282  129.4721  156.2177 C   0  0  0  0  0  0  0  0  0  0  0  0
  153.7978  128.4207  155.2988 C   0  0  0  0  0  0  0  0  0  0  0  0
  152.7537  128.1505  154.3960 C   0  0  0  0  0  0  0  0  0  0  0  0
  151.5995  128.8491  154.3711 N   0  0  0  0  0  0  0  0  0  0  0  0
  151.4279  129.8641  155.2537 C   0  0  0  0  0  0  0  0  0  0  0  0
  150.2157  130.5778  155.2025 N   0  0  0  0  0  0  0  0  0  0  0  0
  148.9255  129.9075  155.0919 C   0  0  0  0  0  0  0  0  0  0  0  0
  148.2723  130.1130  153.7147 C   0  0  2  0  0  0  0  0  0  0  0  0
  147.9538  131.5962  153.4554 C   0  0  0  0  0  0  0  0  0  0  0  0
  147.2637  131.7600  152.1552 N   0  3  2  0  0  0  0  0  0  0  0  0
  146.9764  133.1827  151.8422 C   0  0  0  0  0  0  0  0  0  0  0  0
  146.3476  133.3253  150.4470 C   0  0  0  0  0  0  0  0  0  0  0  0
  145.0813  132.4676  150.3291 C   0  0  0  0  0  0  0  0  0  0  0  0
  145.3993  131.0088  150.6842 C   0  0  0  0  0  0  0  0  0  0  0  0
  146.0505  130.9014  152.0775 C   0  0  1  0  0  0  0  0  0  0  0  0
  146.4173  129.4425  152.4140 C   0  0  0  0  0  0  0  0  0  0  0  0
  147.0500  129.3836  153.6860 O   0  0  0  0  0  0  0  0  0  0  0  0
  154.4137  129.7038  156.9230 H   0  0  0  0  0  0  0  0  0  0  0  0
  154.7060  127.8365  155.2859 H   0  0  0  0  0  0  0  0  0  0  0  0
  152.8463  127.3515  153.6755 H   0  0  0  0  0  0  0  0  0  0  0  0
  150.2248  131.5768  155.3526 H   0  0  0  0  0  0  0  0  0  0  0  0
  149.0722  128.8431  155.2766 H   0  0  0  0  0  0  0  0  0  0  0  0
  148.2650  130.2627  155.8838 H   0  0  0  0  0  0  0  0  0  0  0  0
  148.9383  129.7472  152.9315 H   0  0  0  0  0  0  0  0  0  0  0  0
  147.3264  131.9927  154.2556 H   0  0  0  0  0  0  0  0  0  0  0  0
  148.8766  132.1779  153.4525 H   0  0  0  0  0  0  0  0  0  0  0  0
  146.3081  133.5965  152.5992 H   0  0  0  0  0  0  0  0  0  0  0  0
  147.9013  133.7593  151.8858 H   0  0  0  0  0  0  0  0  0  0  0  0
  146.1094  134.3710  150.2505 H   0  0  0  0  0  0  0  0  0  0  0  0
  147.0688  133.0231  149.6864 H   0  0  0  0  0  0  0  0  0  0  0  0
  144.3111  132.8514  150.9993 H   0  0  0  0  0  0  0  0  0  0  0  0
  144.6766  132.5298  149.3185 H   0  0  0  0  0  0  0  0  0  0  0  0
  144.4852  130.4150  150.6510 H   0  0  0  0  0  0  0  0  0  0  0  0
  146.0671  130.5896  149.9302 H   0  0  0  0  0  0  0  0  0  0  0  0
  145.3373  131.2558  152.8242 H   0  0  0  0  0  0  0  0  0  0  0  0
  145.5190  128.8254  152.4436 H   0  0  0  0  0  0  0  0  0  0  0  0
  147.0709  129.0141  151.6522 H   0  0  0  0  0  0  0  0  0  0  0  0
  147.9002  131.4282  151.4446 H   0  0  0  0  0  0  0  0  0  0  0  0
  1  2  3  0  0  0  0
  2  3  1  0  0  0  0
  3  8  1  0  0  0  0
  3  4  2  0  0  0  0
  4  5  1  0  0  0  0
  4 21  1  0  0  0  0
  5  6  2  0  0  0  0
  5 22  1  0  0  0  0
  6  7  1  0  0  0  0
  6 23  1  0  0  0  0
  7  8  2  0  0  0  0
  8  9  1  0  0  0  0
  9 10  1  0  0  0  0
  9 24  1  0  0  0  0
 10 11  1  0  0  0  0
 10 25  1  0  0  0  0
 10 26  1  0  0  0  0
 11 20  1  0  0  0  0
 11 12  1  0  0  0  0
 11 27  1  0  0  0  0
 12 13  1  0  0  0  0
 12 28  1  0  0  0  0
 12 29  1  0  0  0  0
 13 18  1  0  0  0  0
 13 14  1  0  0  0  0
 13 41  1  0  0  0  0
 14 15  1  0  0  0  0
 14 30  1  0  0  0  0
 14 31  1  0  0  0  0
 15 16  1  0  0  0  0
 15 32  1  0  0  0  0
 15 33  1  0  0  0  0
 16 17  1  0  0  0  0
 16 34  1  0  0  0  0
 16 35  1  0  0  0  0
 17 18  1  0  0  0  0
 17 36  1  0  0  0  0
 17 37  1  0  0  0  0
 18 19  1  0  0  0  0
 18 38  1  0  0  0  0
 19 20  1  0  0  0  0
 19 39  1  0  0  0  0
 19 40  1  0  0  0  0
M  CHG  1  13   1
M  END
> <s_m_source_file>
AV-unprocessed.smi

> <i_m_source_file_index>
2439

> <i_lp_mmshare_version>
43012

> <i_f3d_flags>
0

> <s_epik_input>
TiNDYzFbY0hdW2NIXVtjSF1uYzFbTkhdW0NIMl1bQ0BIXShbQ0gyXTIpT1tDSDJdW0NAQEhdKE4yMylbQ0gyXVtDSDJdW0NIMl1bQ0gyXTM=

> <s_epik_cmdline>
J2VwaWtfcHl0aG9uJywgJy1waCcsICc3LjAnLCAnLXRuJywgJzgnLCAnLW1hJywgJzIwMCcsICctbWV0YWxfYmluZGluZycsICctaW1hZScsICc8aW5maWxlLm1hZT4nLCAnLW9tYWUnLCAnPG91dGZpbGUubWFlPic=

> <r_epik_Ionization_Penalty>
0.0803594

> <r_epik_Ionization_Penalty_Charging>
0.0803403

> <r_epik_Ionization_Penalty_Neutral>
1.90988e-05

> <r_epik_State_Penalty>
0.0711481

> <r_epik_Charging_Adjusted_Penalty>
0.151488

> <i_epik_Tot_Q>
1

> <i_epik_Tot_abs_Q>
1

> <r_epik_Metal_State_Penalty>
0.0711482

> <b_epik_Metal_Only>
0

> <s_lp_Force_Field>
OPLS_2005

> <r_lp_Energy>
27.3027

> <b_lp_Chiralities_Consistent>
1

> <s_lp_Variant>
AV-unprocessed.smi:2439-1

> <Gold.Version>
5.8.1

> <Gold.Id.Protein>
6NUR|6NUR_protein|mol2

> <Gold.PLP.Fitness>
40.2852

> <Gold.PLP.PLP>
-33.1675

> <Gold.PLP.part.hbond>
-2.0000

> <Gold.PLP.part.metal>
0.0000

> <Gold.PLP.part.buried>
-4.1208

> <Gold.PLP.part.nonpolar>
-26.5701

> <Gold.PLP.part.repulsive>
0.1707

> <Gold.PLP.ligand.clash>
0.0000

> <Gold.PLP.ligand.torsion>
0.4315

> <Gold.PLP.Chemscore.Hbond>
1.8160

> <Gold.PLP.Chemscore.CHOScore>
0.8436

> <Gold.PLP.Chemscore.Metal>
0.0000

> <Gold.Chemscore.Hbonds>
donor molecule, donor type, donor heavy atom, donor atom, acceptor molecule, acceptor atom, score
      L1  H    13    41       P1 10747  1.00
      P1  H  6896  6909       L1     1  1.00
      L1  C     6    23       P1 10737  0.75

> <Gold.PLP.Chemscore.Internal.Correction>
0.0020

> <Gold.Rescore>
     Score         DG    S(hbond)    S(metal)    S(lipo)     H(rot)  DE(clash)    DE(int)     intcor
     17.99     -18.55       1.95        0.00      83.80       1.27       0.02       0.54       ----

> <Gold.Chemscore.Fitness>
17.9910

> <Gold.Chemscore.DG>
-18.5451

> <Gold.Chemscore.ZeroCoef>
-5.4800

> <Gold.Chemscore.Hbond>
1.9466

> <Gold.Chemscore.Metal>
0.0000

> <Gold.Chemscore.Lipo>
83.7974

> <Gold.Chemscore.Internal_Hbond>
0.0000

> <Gold.Chemscore.DEClash>
0.0189

> <Gold.Chemscore.DEInternal>
0.5352

> <Gold.Chemscore.Rot>
1.2659

> <Gold.Chemscore.Internal.Correction>
   9.000000E+99

> <Gold.Chemscore.Hbonds>
donor molecule, donor type, donor heavy atom, donor atom, acceptor molecule, acceptor atom, score
      L1  H    13    41       P1 10747  1.00
      P1  H  6896  6909       L1     1  1.00

> <Gold.Chemscore.Hbond.Weighted>
-6.5015

> <Gold.Chemscore.Metal.Weighted>
-0.0000

> <Gold.Chemscore.Lipo.Weighted>
-9.8043

> <Gold.Chemscore.Internal_Hbond.Weighted>
0.0000

> <Gold.Chemscore.DEClash.Weighted>
0.0189

> <Gold.Chemscore.DEInternal.Weighted>
0.5352

> <Gold.Chemscore.Rot.Weighted>
3.2408

> <Gold.Chemscore.Internal.Correction.Weighted>
   9.000000E+99

> <Gold.Protein.RotatedTorsions>
[ 6907 6896 6895 6894 ] final  -76.45 input  -60.11 | X-H torsion
[ 7974 7965 7964 7962 ] final -113.56 input  175.53 | X-H torsion
[ 8008 7997 7996 7995 ] final  128.22 input   59.86 | X-H torsion
[ 10167 10162 10161 10158 ] final  134.00 input  -65.29 | X-H torsion
[ 10718 10713 10712 10709 ] final   30.20 input   66.30 | X-H torsion
[ 10763 10752 10751 10750 ] final -149.22 input  -60.55 | X-H torsion
[ 11005 11000 10999 10996 ] final -124.12 input  -57.11 | X-H torsion

> <Gold.Protein.ActiveResidues>
 VAL166  LYS551  ARG553  GLY616  TRP617  ASP618  TYR619  PRO620  LYS621  CYS622 
 ASP623  PHE694  ASN695  SER759  ASP760  ASP761  ALA762  ILE779  LEU786  VAL792 
 PHE793  MET794  SER795  GLU796  ALA797  LYS798  CYS799  TRP800  GLU811  SER814 

> <Gold.Protein.RotatedAtoms>
  150.7027  134.4570  159.5362 H   0  0  0  0  0  0  0  0  0  0  0  0  # atno 6907 bound_to 6896
  152.2252  134.8372  160.0490 H   0  0  0  0  0  0  0  0  0  0  0  0  # atno 6908 bound_to 6896
  151.9208  133.3550  159.3933 H   0  0  0  0  0  0  0  0  0  0  0  0  # atno 6909 bound_to 6896
  145.1305  140.8722  143.3760 H   0  0  0  0  0  0  0  0  0  0  0  0  # atno 7974 bound_to 7965
  156.2910  140.2650  156.2400 H   0  0  0  0  0  0  0  0  0  0  0  0  # atno 8008 bound_to 7997
  154.9987  140.0388  157.2369 H   0  0  0  0  0  0  0  0  0  0  0  0  # atno 8009 bound_to 7997
  154.7621  140.2762  155.6211 H   0  0  0  0  0  0  0  0  0  0  0  0  # atno 8010 bound_to 7997
  139.5274  144.6588  151.5077 H   0  0  0  0  0  0  0  0  0  0  0  0  # atno 10167 bound_to 10162
  157.2565  130.7140  149.6432 H   0  0  0  0  0  0  0  0  0  0  0  0  # atno 10718 bound_to 10713
  154.8189  135.3314  154.7096 H   0  0  0  0  0  0  0  0  0  0  0  0  # atno 10763 bound_to 10752
  153.7732  135.6924  153.4907 H   0  0  0  0  0  0  0  0  0  0  0  0  # atno 10764 bound_to 10752
  153.2030  135.4509  155.0238 H   0  0  0  0  0  0  0  0  0  0  0  0  # atno 10765 bound_to 10752
  140.9866  134.0598  157.3703 H   0  0  0  0  0  0  0  0  0  0  0  0  # atno 11005 bound_to 11000
  145.0640  139.3083  143.5865 LP  0  0  0  0  0  0  0  0  0  0  0  0  # atno 17320 bound_to 7965
  146.3514  140.0092  142.8668 LP  0  0  0  0  0  0  0  0  0  0  0  0  # atno 17321 bound_to 7965
  140.6427  143.8857  150.6707 LP  0  0  0  0  0  0  0  0  0  0  0  0  # atno 17342 bound_to 10162
  140.2196  143.3819  152.1653 LP  0  0  0  0  0  0  0  0  0  0  0  0  # atno 17343 bound_to 10162
  155.9665  130.4411  150.5326 LP  0  0  0  0  0  0  0  0  0  0  0  0  # atno 17370 bound_to 10713
  157.3222  131.0684  151.1923 LP  0  0  0  0  0  0  0  0  0  0  0  0  # atno 17371 bound_to 10713
  139.8973  135.0150  156.7095 LP  0  0  0  0  0  0  0  0  0  0  0  0  # atno 17394 bound_to 11000
  140.7105  133.9228  155.8081 LP  0  0  0  0  0  0  0  0  0  0  0  0  # atno 17395 bound_to 11000

$$$$
