AV-unprocessed.smi:1925|AV-procd|sdf|7793|dock5
  -GOLD-   22720 9533D 1   1.00000     0.00000
 Structure written by MMmdl.
 31 32  0  0  0  0  0  0  0  0  1 V2000
  150.4577  140.7141  156.1540 O   0  0  0  0  0  0  0  0  0  0  0  0
  150.0345  141.8636  156.0301 C   0  0  0  0  0  0  0  0  0  0  0  0
  149.1290  142.2215  155.1084 N   0  0  0  0  0  0  0  0  0  0  0  0
  148.5391  141.3234  154.1215 C   0  0  0  0  0  0  0  0  0  0  0  0
  147.0104  141.4927  154.0263 C   0  0  1  0  0  0  0  0  0  0  0  0
  146.2615  141.0840  155.2901 C   0  0  0  0  0  0  0  0  0  0  0  0
  145.1596  142.1383  155.4392 C   0  0  0  0  0  0  0  0  0  0  0  0
  145.1934  142.8920  154.2360 O   0  0  0  0  0  0  0  0  0  0  0  0
  146.5418  142.9302  153.8040 C   0  0  0  0  0  0  0  0  0  0  0  0
  150.4104  142.9168  156.7770 N   0  0  0  0  0  0  0  0  0  0  0  0
  151.3472  142.9469  157.8441 C   0  0  0  0  0  0  0  0  0  0  0  0
  151.5742  144.2240  158.4054 C   0  0  0  0  0  0  0  0  0  0  0  0
  152.4863  144.3612  159.4695 C   0  0  0  0  0  0  0  0  0  0  0  0
  153.1483  143.2159  159.9467 C   0  0  0  0  0  0  0  0  0  0  0  0
  152.8644  141.9821  159.3330 C   0  0  0  0  0  0  0  0  0  0  0  0
  151.9907  141.8484  158.3128 N   0  0  0  0  0  0  0  0  0  0  0  0
  148.8341  143.1864  155.0786 H   0  0  0  0  0  0  0  0  0  0  0  0
  148.9992  141.4882  153.1457 H   0  0  0  0  0  0  0  0  0  0  0  0
  148.7853  140.3007  154.4086 H   0  0  0  0  0  0  0  0  0  0  0  0
  146.6297  140.8854  153.2035 H   0  0  0  0  0  0  0  0  0  0  0  0
  145.8477  140.0802  155.1879 H   0  0  0  0  0  0  0  0  0  0  0  0
  146.9071  141.0882  156.1690 H   0  0  0  0  0  0  0  0  0  0  0  0
  144.1755  141.6965  155.5966 H   0  0  0  0  0  0  0  0  0  0  0  0
  145.3742  142.7985  156.2806 H   0  0  0  0  0  0  0  0  0  0  0  0
  147.1045  143.6335  154.4202 H   0  0  0  0  0  0  0  0  0  0  0  0
  146.6200  143.2429  152.7626 H   0  0  0  0  0  0  0  0  0  0  0  0
  149.9823  143.8023  156.5509 H   0  0  0  0  0  0  0  0  0  0  0  0
  151.0576  145.0938  158.0263 H   0  0  0  0  0  0  0  0  0  0  0  0
  152.6746  145.3286  159.9109 H   0  0  0  0  0  0  0  0  0  0  0  0
  153.8546  143.2810  160.7611 H   0  0  0  0  0  0  0  0  0  0  0  0
  153.3511  141.0787  159.6694 H   0  0  0  0  0  0  0  0  0  0  0  0
  1  2  2  0  0  0  0
  2  3  1  0  0  0  0
  2 10  1  0  0  0  0
  3  4  1  0  0  0  0
  3 17  1  0  0  0  0
  4  5  1  0  0  0  0
  4 18  1  0  0  0  0
  4 19  1  0  0  0  0
  5  9  1  0  0  0  0
  5  6  1  0  0  0  0
  5 20  1  0  0  0  0
  6  7  1  0  0  0  0
  6 21  1  0  0  0  0
  6 22  1  0  0  0  0
  7  8  1  0  0  0  0
  7 23  1  0  0  0  0
  7 24  1  0  0  0  0
  8  9  1  0  0  0  0
  9 25  1  0  0  0  0
  9 26  1  0  0  0  0
 10 11  1  0  0  0  0
 10 27  1  0  0  0  0
 11 16  1  0  0  0  0
 11 12  2  0  0  0  0
 12 13  1  0  0  0  0
 12 28  1  0  0  0  0
 13 14  2  0  0  0  0
 13 29  1  0  0  0  0
 14 15  1  0  0  0  0
 14 30  1  0  0  0  0
 15 16  2  0  0  0  0
 15 31  1  0  0  0  0
M  END
> <s_m_source_file>
AV-unprocessed.smi

> <i_m_source_file_index>
1925

> <i_lp_mmshare_version>
43012

> <i_f3d_flags>
0

> <s_epik_input>
bjFbY0hdW2NIXVtjSF1bY0hdYzFbTkhdQyg9TylbTkhdW0NIMl1bQ0BASF0yW0NIMl1bQ0gyXU9bQ0gyXTI=

> <s_epik_cmdline>
J2VwaWtfcHl0aG9uJywgJy1waCcsICc3LjAnLCAnLXRuJywgJzgnLCAnLW1hJywgJzIwMCcsICctbWV0YWxfYmluZGluZycsICctaW1hZScsICc8aW5maWxlLm1hZT4nLCAnLW9tYWUnLCAnPG91dGZpbGUubWFlPic=

> <r_lp_tautomer_probability>
1

> <r_epik_Ionization_Penalty>
4.81143e-05

> <r_epik_Ionization_Penalty_Charging>
0

> <r_epik_Ionization_Penalty_Neutral>
4.81143e-05

> <r_epik_State_Penalty>
-0

> <r_epik_Charging_Adjusted_Penalty>
0

> <i_epik_Tot_Q>
0

> <i_epik_Tot_abs_Q>
0

> <r_epik_Metal_State_Penalty>
-0

> <b_epik_Metal_Only>
0

> <s_lp_Force_Field>
OPLS_2005

> <r_lp_Energy>
20.4602

> <b_lp_Chiralities_Consistent>
1

> <s_lp_Variant>
AV-unprocessed.smi:1925-2

> <Gold.Version>
5.8.1

> <Gold.Id.Protein>
6NUR|6NUR_protein|mol2

> <Gold.PLP.Fitness>
40.5795

> <Gold.PLP.PLP>
-34.7912

> <Gold.PLP.part.hbond>
-2.0000

> <Gold.PLP.part.metal>
0.0000

> <Gold.PLP.part.buried>
-5.0701

> <Gold.PLP.part.nonpolar>
-28.7991

> <Gold.PLP.part.repulsive>
0.4963

> <Gold.PLP.ligand.clash>
0.0000

> <Gold.PLP.ligand.torsion>
0.1067

> <Gold.PLP.Chemscore.Hbond>
2.0000

> <Gold.PLP.Chemscore.CHOScore>
0.0000

> <Gold.PLP.Chemscore.Metal>
0.0000

> <Gold.Chemscore.Hbonds>
donor molecule, donor type, donor heavy atom, donor atom, acceptor molecule, acceptor atom, score
      L1  H     3    17       P1  8028  1.00
      L1  H    10    27       P1  8028  1.00

> <Gold.PLP.Chemscore.Internal.Correction>
0.0017

> <Gold.Rescore>
     Score         DG    S(hbond)    S(metal)    S(lipo)     H(rot)  DE(clash)    DE(int)     intcor
     16.09     -17.50       1.95        0.00      74.70       1.27       0.01       1.40       ----

> <Gold.Chemscore.Fitness>
16.0863

> <Gold.Chemscore.DG>
-17.4989

> <Gold.Chemscore.ZeroCoef>
-5.4800

> <Gold.Chemscore.Hbond>
1.9535

> <Gold.Chemscore.Metal>
0.0000

> <Gold.Chemscore.Lipo>
74.6979

> <Gold.Chemscore.Internal_Hbond>
0.0000

> <Gold.Chemscore.DEClash>
0.0110

> <Gold.Chemscore.DEInternal>
1.4016

> <Gold.Chemscore.Rot>
1.2678

> <Gold.Chemscore.Internal.Correction>
   9.000000E+99

> <Gold.Chemscore.Hbonds>
donor molecule, donor type, donor heavy atom, donor atom, acceptor molecule, acceptor atom, score
      L1  H     3    17       P1  8028  0.96
      L1  H    10    27       P1  8028  0.96

> <Gold.Chemscore.Hbond.Weighted>
-6.5247

> <Gold.Chemscore.Metal.Weighted>
-0.0000

> <Gold.Chemscore.Lipo.Weighted>
-8.7397

> <Gold.Chemscore.Internal_Hbond.Weighted>
0.0000

> <Gold.Chemscore.DEClash.Weighted>
0.0110

> <Gold.Chemscore.DEInternal.Weighted>
1.4016

> <Gold.Chemscore.Rot.Weighted>
3.2455

> <Gold.Chemscore.Internal.Correction.Weighted>
   9.000000E+99

> <Gold.Protein.RotatedTorsions>
[ 6907 6896 6895 6894 ] final  159.60 input  -60.11 | X-H torsion
[ 7974 7965 7964 7962 ] final -128.32 input  175.53 | X-H torsion
[ 8008 7997 7996 7995 ] final  -18.00 input   59.86 | X-H torsion
[ 10167 10162 10161 10158 ] final -147.82 input  -65.29 | X-H torsion
[ 10718 10713 10712 10709 ] final  -35.23 input   66.30 | X-H torsion
[ 10763 10752 10751 10750 ] final    7.00 input  -60.55 | X-H torsion
[ 11005 11000 10999 10996 ] final -117.73 input  -57.11 | X-H torsion

> <Gold.Protein.ActiveResidues>
 VAL166  LYS551  ARG553  GLY616  TRP617  ASP618  TYR619  PRO620  LYS621  CYS622 
 ASP623  PHE694  ASN695  SER759  ASP760  ASP761  ALA762  ILE779  LEU786  VAL792 
 PHE793  MET794  SER795  GLU796  ALA797  LYS798  CYS799  TRP800  GLU811  SER814 

> <Gold.Protein.RotatedAtoms>
  151.9832  133.3765  159.4115 H   0  0  0  0  0  0  0  0  0  0  0  0  # atno 6907 bound_to 6896
  150.6932  134.4016  159.5131 H   0  0  0  0  0  0  0  0  0  0  0  0  # atno 6908 bound_to 6896
  152.1738  134.8811  160.0583 H   0  0  0  0  0  0  0  0  0  0  0  0  # atno 6909 bound_to 6896
  144.9682  140.7518  143.4687 H   0  0  0  0  0  0  0  0  0  0  0  0  # atno 7974 bound_to 7965
  154.4937  140.2127  155.9493 H   0  0  0  0  0  0  0  0  0  0  0  0  # atno 8008 bound_to 7997
  156.1341  140.3191  155.8362 H   0  0  0  0  0  0  0  0  0  0  0  0  # atno 8009 bound_to 7997
  155.4242  140.0499  157.3014 H   0  0  0  0  0  0  0  0  0  0  0  0  # atno 8010 bound_to 7997
  139.7588  143.8408  152.2602 H   0  0  0  0  0  0  0  0  0  0  0  0  # atno 10167 bound_to 10162
  156.3411  130.4293  149.7787 H   0  0  0  0  0  0  0  0  0  0  0  0  # atno 10718 bound_to 10713
  153.2413  135.6904  153.7780 H   0  0  0  0  0  0  0  0  0  0  0  0  # atno 10763 bound_to 10752
  153.6908  135.3313  155.3202 H   0  0  0  0  0  0  0  0  0  0  0  0  # atno 10764 bound_to 10752
  154.8356  135.4545  154.1336 H   0  0  0  0  0  0  0  0  0  0  0  0  # atno 10765 bound_to 10752
  141.0334  133.9946  157.3107 H   0  0  0  0  0  0  0  0  0  0  0  0  # atno 11005 bound_to 11000
  145.2598  139.1997  143.4898 LP  0  0  0  0  0  0  0  0  0  0  0  0  # atno 17320 bound_to 7965
  146.3374  140.2526  142.8599 LP  0  0  0  0  0  0  0  0  0  0  0  0  # atno 17321 bound_to 7965
  139.8408  144.7211  150.9333 LP  0  0  0  0  0  0  0  0  0  0  0  0  # atno 17342 bound_to 10162
  140.7805  143.3985  151.1189 LP  0  0  0  0  0  0  0  0  0  0  0  0  # atno 17343 bound_to 10162
  156.5023  130.8134  151.3137 LP  0  0  0  0  0  0  0  0  0  0  0  0  # atno 17370 bound_to 10713
  157.7447  130.9941  150.2694 LP  0  0  0  0  0  0  0  0  0  0  0  0  # atno 17371 bound_to 10713
  139.9224  135.0201  156.8112 LP  0  0  0  0  0  0  0  0  0  0  0  0  # atno 17394 bound_to 11000
  140.6365  133.9857  155.7687 LP  0  0  0  0  0  0  0  0  0  0  0  0  # atno 17395 bound_to 11000

$$$$
