AV-unprocessed.smi:1251|AV-procd|sdf|5256|dock4
  -GOLD-   22720 4363D 1   1.00000     0.00000
 Structure written by MMmdl.
 39 40  0  0  0  0  0  0  0  0  1 V2000
  152.6046  141.8937  158.8419 C   0  0  0  0  0  0  0  0  0  0  0  0
  151.5274  141.1405  158.0541 C   0  0  0  0  0  0  0  0  0  0  0  0
  151.7587  141.1983  156.5375 C   0  0  0  0  0  0  0  0  0  0  0  0
  150.6197  140.6243  155.7625 C   0  0  0  0  0  0  0  0  0  0  0  0
  149.3637  141.0718  155.8827 N   0  0  0  0  0  0  0  0  0  0  0  0
  148.4737  140.3618  155.0889 N   0  0  0  0  0  0  0  0  0  0  0  0
  149.0846  139.3860  154.4031 C   0  0  0  0  0  0  0  0  0  0  0  0
  148.4114  138.5000  153.5208 N   0  0  0  0  0  0  0  0  0  0  0  0
  147.0934  138.4159  153.2689 C   0  0  0  0  0  0  0  0  0  0  0  0
  146.2254  139.1265  153.7761 O   0  0  0  0  0  0  0  0  0  0  0  0
  146.8338  137.4498  152.3751 N   0  0  0  0  0  0  0  0  0  0  0  0
  145.5112  137.0815  151.8709 C   0  0  2  0  0  0  0  0  0  0  0  0
  144.5599  136.9055  153.0638 C   0  0  0  0  0  0  0  0  0  0  0  0
  145.5965  135.8032  151.0111 C   0  0  2  0  0  0  0  0  0  0  0  0
  144.2518  135.2552  150.5286 C   0  0  0  0  0  0  0  0  0  0  0  0
  144.5887  133.8058  150.2670 C   0  0  0  0  0  0  0  0  0  0  0  0
  145.5424  133.4953  151.4165 C   0  0  0  0  0  0  0  0  0  0  0  0
  146.1654  134.7311  151.7597 O   0  0  0  0  0  0  0  0  0  0  0  0
  150.8146  139.2580  154.6708 S   0  0  0  0  0  0  0  0  0  0  0  0
  152.4141  141.8348  159.9136 H   0  0  0  0  0  0  0  0  0  0  0  0
  152.6296  142.9482  158.5656 H   0  0  0  0  0  0  0  0  0  0  0  0
  153.5934  141.4740  158.6562 H   0  0  0  0  0  0  0  0  0  0  0  0
  151.5063  140.1002  158.3809 H   0  0  0  0  0  0  0  0  0  0  0  0
  150.5488  141.5594  158.2917 H   0  0  0  0  0  0  0  0  0  0  0  0
  151.9154  142.2303  156.2205 H   0  0  0  0  0  0  0  0  0  0  0  0
  152.6651  140.6512  156.2766 H   0  0  0  0  0  0  0  0  0  0  0  0
  149.0042  137.8505  153.0255 H   0  0  0  0  0  0  0  0  0  0  0  0
  147.6142  136.9230  152.0116 H   0  0  0  0  0  0  0  0  0  0  0  0
  145.1133  137.8873  151.2515 H   0  0  0  0  0  0  0  0  0  0  0  0
  143.5495  136.6681  152.7303 H   0  0  0  0  0  0  0  0  0  0  0  0
  144.5007  137.8183  153.6573 H   0  0  0  0  0  0  0  0  0  0  0  0
  144.8902  136.1006  153.7215 H   0  0  0  0  0  0  0  0  0  0  0  0
  146.2375  135.9765  150.1447 H   0  0  0  0  0  0  0  0  0  0  0  0
  143.5012  135.3262  151.3173 H   0  0  0  0  0  0  0  0  0  0  0  0
  143.8717  135.7706  149.6462 H   0  0  0  0  0  0  0  0  0  0  0  0
  143.7130  133.1564  150.2502 H   0  0  0  0  0  0  0  0  0  0  0  0
  145.1060  133.7093  149.3113 H   0  0  0  0  0  0  0  0  0  0  0  0
  144.9897  133.1357  152.2851 H   0  0  0  0  0  0  0  0  0  0  0  0
  146.2807  132.7395  151.1480 H   0  0  0  0  0  0  0  0  0  0  0  0
  1  2  1  0  0  0  0
  1 20  1  0  0  0  0
  1 21  1  0  0  0  0
  1 22  1  0  0  0  0
  2  3  1  0  0  0  0
  2 23  1  0  0  0  0
  2 24  1  0  0  0  0
  3  4  1  0  0  0  0
  3 25  1  0  0  0  0
  3 26  1  0  0  0  0
  4 19  1  0  0  0  0
  4  5  2  0  0  0  0
  5  6  1  0  0  0  0
  6  7  2  0  0  0  0
  7  8  1  0  0  0  0
  7 19  1  0  0  0  0
  8  9  1  0  0  0  0
  8 27  1  0  0  0  0
  9 10  2  0  0  0  0
  9 11  1  0  0  0  0
 11 12  1  0  0  0  0
 11 28  1  0  0  0  0
 12 13  1  0  0  0  0
 12 14  1  0  0  0  0
 12 29  1  0  0  0  0
 13 30  1  0  0  0  0
 13 31  1  0  0  0  0
 13 32  1  0  0  0  0
 14 18  1  0  0  0  0
 14 15  1  0  0  0  0
 14 33  1  0  0  0  0
 15 16  1  0  0  0  0
 15 34  1  0  0  0  0
 15 35  1  0  0  0  0
 16 17  1  0  0  0  0
 16 36  1  0  0  0  0
 16 37  1  0  0  0  0
 17 18  1  0  0  0  0
 17 38  1  0  0  0  0
 17 39  1  0  0  0  0
M  END
> <s_m_source_file>
AV-unprocessed.smi

> <i_m_source_file_index>
1251

> <i_lp_mmshare_version>
43012

> <i_f3d_flags>
0

> <s_epik_input>
W0NIM11bQ0gyXVtDSDJdYzFubmMoczEpW05IXUMoPU8pW05IXVtDQEhdKFtDSDNdKVtDQEBIXTJbQ0gyXVtDSDJdW0NIMl1PMg==

> <s_epik_cmdline>
J2VwaWtfcHl0aG9uJywgJy1waCcsICc3LjAnLCAnLXRuJywgJzgnLCAnLW1hJywgJzIwMCcsICctbWV0YWxfYmluZGluZycsICctaW1hZScsICc8aW5maWxlLm1hZT4nLCAnLW9tYWUnLCAnPG91dGZpbGUubWFlPic=

> <r_lp_tautomer_probability>
1

> <r_epik_Ionization_Penalty>
0.000503621

> <r_epik_Ionization_Penalty_Charging>
0

> <r_epik_Ionization_Penalty_Neutral>
0.000503621

> <r_epik_State_Penalty>
-0

> <r_epik_Charging_Adjusted_Penalty>
0

> <i_epik_Tot_Q>
0

> <i_epik_Tot_abs_Q>
0

> <r_epik_Metal_State_Penalty>
0.219912

> <b_epik_Metal_Only>
0

> <s_lp_Force_Field>
OPLS_2005

> <r_lp_Energy>
13.0055

> <b_lp_Chiralities_Consistent>
1

> <s_lp_Variant>
AV-unprocessed.smi:1251-1

> <Gold.Version>
5.8.1

> <Gold.Id.Protein>
6NUR|6NUR_protein|mol2

> <Gold.PLP.Fitness>
34.9974

> <Gold.PLP.PLP>
-29.5503

> <Gold.PLP.part.hbond>
-2.8253

> <Gold.PLP.part.metal>
0.0000

> <Gold.PLP.part.buried>
-3.3613

> <Gold.PLP.part.nonpolar>
-25.0990

> <Gold.PLP.part.repulsive>
0.7982

> <Gold.PLP.ligand.clash>
0.0000

> <Gold.PLP.ligand.torsion>
0.1316

> <Gold.PLP.Chemscore.Hbond>
1.8960

> <Gold.PLP.Chemscore.CHOScore>
0.0000

> <Gold.PLP.Chemscore.Metal>
0.0000

> <Gold.Chemscore.Hbonds>
donor molecule, donor type, donor heavy atom, donor atom, acceptor molecule, acceptor atom, score
      L1  H     8    27       P1  7948  0.88
      L1  H    11    28       P1  7948  0.91

> <Gold.PLP.Chemscore.Internal.Correction>
0.0223

> <Gold.Rescore>
     Score         DG    S(hbond)    S(metal)    S(lipo)     H(rot)  DE(clash)    DE(int)     intcor
     13.24     -16.04       1.92        0.00      70.18       1.58       0.08       2.72       ----

> <Gold.Chemscore.Fitness>
13.2422

> <Gold.Chemscore.DG>
-16.0429

> <Gold.Chemscore.ZeroCoef>
-5.4800

> <Gold.Chemscore.Hbond>
1.9185

> <Gold.Chemscore.Metal>
0.0000

> <Gold.Chemscore.Lipo>
70.1801

> <Gold.Chemscore.Internal_Hbond>
0.0000

> <Gold.Chemscore.DEClash>
0.0826

> <Gold.Chemscore.DEInternal>
2.7181

> <Gold.Chemscore.Rot>
1.5843

> <Gold.Chemscore.Internal.Correction>
   9.000000E+99

> <Gold.Chemscore.Hbonds>
donor molecule, donor type, donor heavy atom, donor atom, acceptor molecule, acceptor atom, score
      L1  H     8    27       P1  7948  0.85
      L1  H    11    28       P1  7948  0.89

> <Gold.Chemscore.Hbond.Weighted>
-6.4076

> <Gold.Chemscore.Metal.Weighted>
-0.0000

> <Gold.Chemscore.Lipo.Weighted>
-8.2111

> <Gold.Chemscore.Internal_Hbond.Weighted>
0.0000

> <Gold.Chemscore.DEClash.Weighted>
0.0826

> <Gold.Chemscore.DEInternal.Weighted>
2.7181

> <Gold.Chemscore.Rot.Weighted>
4.0558

> <Gold.Chemscore.Internal.Correction.Weighted>
   9.000000E+99

> <Gold.Protein.RotatedTorsions>
[ 6907 6896 6895 6894 ] final  167.50 input  -60.11 | X-H torsion
[ 7974 7965 7964 7962 ] final  161.80 input  175.53 | X-H torsion
[ 8008 7997 7996 7995 ] final   94.34 input   59.86 | X-H torsion
[ 10167 10162 10161 10158 ] final   -5.48 input  -65.29 | X-H torsion
[ 10718 10713 10712 10709 ] final  138.55 input   66.30 | X-H torsion
[ 10763 10752 10751 10750 ] final  -55.66 input  -60.55 | X-H torsion
[ 11005 11000 10999 10996 ] final  -85.39 input  -57.11 | X-H torsion

> <Gold.Protein.ActiveResidues>
 VAL166  LYS551  ARG553  GLY616  TRP617  ASP618  TYR619  PRO620  LYS621  CYS622 
 ASP623  PHE694  ASN695  SER759  ASP760  ASP761  ALA762  ILE779  LEU786  VAL792 
 PHE793  MET794  SER795  GLU796  ALA797  LYS798  CYS799  TRP800  GLU811  SER814 

> <Gold.Protein.RotatedAtoms>
  151.8623  133.3459  159.3707 H   0  0  0  0  0  0  0  0  0  0  0  0  # atno 6907 bound_to 6896
  150.7175  134.5194  159.5655 H   0  0  0  0  0  0  0  0  0  0  0  0  # atno 6908 bound_to 6896
  152.2710  134.7934  160.0465 H   0  0  0  0  0  0  0  0  0  0  0  0  # atno 6909 bound_to 6896
  144.7668  139.7949  143.6312 H   0  0  0  0  0  0  0  0  0  0  0  0  # atno 7974 bound_to 7965
  156.0568  140.3301  155.7415 H   0  0  0  0  0  0  0  0  0  0  0  0  # atno 8008 bound_to 7997
  155.5516  140.0611  157.2866 H   0  0  0  0  0  0  0  0  0  0  0  0  # atno 8009 bound_to 7997
  154.4462  140.1893  156.0681 H   0  0  0  0  0  0  0  0  0  0  0  0  # atno 8010 bound_to 7997
  140.6964  143.6303  150.8529 H   0  0  0  0  0  0  0  0  0  0  0  0  # atno 10167 bound_to 10162
  157.4240  131.1041  151.0322 H   0  0  0  0  0  0  0  0  0  0  0  0  # atno 10718 bound_to 10713
  154.1943  135.6422  153.5069 H   0  0  0  0  0  0  0  0  0  0  0  0  # atno 10763 bound_to 10752
  153.0027  135.5436  154.6382 H   0  0  0  0  0  0  0  0  0  0  0  0  # atno 10764 bound_to 10752
  154.5779  135.2922  155.0735 H   0  0  0  0  0  0  0  0  0  0  0  0  # atno 10765 bound_to 10752
  141.1641  133.7397  156.9007 H   0  0  0  0  0  0  0  0  0  0  0  0  # atno 11005 bound_to 11000
  146.1782  139.4962  142.9884 LP  0  0  0  0  0  0  0  0  0  0  0  0  # atno 17320 bound_to 7965
  145.6446  141.0277  143.1793 LP  0  0  0  0  0  0  0  0  0  0  0  0  # atno 17321 bound_to 7965
  140.0021  143.5732  152.2871 LP  0  0  0  0  0  0  0  0  0  0  0  0  # atno 17342 bound_to 10162
  139.6426  144.7656  151.2309 LP  0  0  0  0  0  0  0  0  0  0  0  0  # atno 17343 bound_to 10162
  157.1242  130.6075  149.5513 LP  0  0  0  0  0  0  0  0  0  0  0  0  # atno 17370 bound_to 10713
  155.9890  130.4936  150.7196 LP  0  0  0  0  0  0  0  0  0  0  0  0  # atno 17371 bound_to 10713
  140.1584  134.9182  157.2683 LP  0  0  0  0  0  0  0  0  0  0  0  0  # atno 17394 bound_to 11000
  140.2640  134.3538  155.7396 LP  0  0  0  0  0  0  0  0  0  0  0  0  # atno 17395 bound_to 11000

$$$$
