AV-unprocessed.smi:2923|AV-procd|sdf|11217|dock1
  -GOLD-   2272016103D 1   1.00000     0.00000
 Structure written by MMmdl.
 46 48  0  0  0  0  0  0  0  0  1 V2000
  149.3968  128.3207  153.0600 C   0  0  0  0  0  0  0  0  0  0  0  0
  148.1857  129.0658  153.3679 N   0  0  0  0  0  0  0  0  0  0  0  0
  147.0290  128.7902  152.5300 C   0  0  0  0  0  0  0  0  0  0  0  0
  148.4160  130.4362  153.5454 C   0  0  0  0  0  0  0  0  0  0  0  0
  149.3988  130.9060  154.4460 C   0  0  0  0  0  0  0  0  0  0  0  0
  149.5838  132.2949  154.5841 C   0  0  0  0  0  0  0  0  0  0  0  0
  148.7849  133.1710  153.8116 C   0  0  0  0  0  0  0  0  0  0  0  0
  148.8570  134.5882  153.8784 N   0  0  0  0  0  0  0  0  0  0  0  0
  149.0417  135.3674  154.9574 C   0  0  0  0  0  0  0  0  0  0  0  0
  149.2208  134.9654  156.1068 O   0  0  0  0  0  0  0  0  0  0  0  0
  149.0231  136.6641  154.6234 N   0  0  0  0  0  0  0  0  0  0  0  0
  149.2181  137.7720  155.5647 C   0  0  1  0  0  0  0  0  0  0  0  0
  150.6933  138.1458  155.7304 C   0  0  1  0  0  0  0  0  0  0  0  0
  151.9960  137.4923  155.4404 C   0  0  0  0  0  0  0  0  0  0  0  0
  152.7188  138.7438  154.8719 C   0  0  0  0  0  0  0  0  0  0  0  0
  151.6934  139.7571  154.7077 O   0  0  0  0  0  0  0  0  0  0  0  0
  150.5096  139.0122  154.5010 C   0  0  2  0  0  0  0  0  0  0  0  0
  149.0494  139.2232  154.9599 C   0  0  0  0  0  0  0  0  0  0  0  0
  148.0248  139.3988  153.8337 C   0  0  0  0  0  0  0  0  0  0  0  0
  148.7845  140.3734  155.9487 C   0  0  0  0  0  0  0  0  0  0  0  0
  147.8255  132.5979  152.9516 C   0  0  0  0  0  0  0  0  0  0  0  0
  147.6437  131.2677  152.8133 N   0  0  0  0  0  0  0  0  0  0  0  0
  150.1997  128.5825  153.7503 H   0  0  0  0  0  0  0  0  0  0  0  0
  149.7354  128.5246  152.0437 H   0  0  0  0  0  0  0  0  0  0  0  0
  149.2124  127.2499  153.1496 H   0  0  0  0  0  0  0  0  0  0  0  0
  146.1746  129.3959  152.8351 H   0  0  0  0  0  0  0  0  0  0  0  0
  146.7448  127.7411  152.6153 H   0  0  0  0  0  0  0  0  0  0  0  0
  147.2452  129.0018  151.4823 H   0  0  0  0  0  0  0  0  0  0  0  0
  149.9981  130.2188  155.0254 H   0  0  0  0  0  0  0  0  0  0  0  0
  150.3188  132.6562  155.2863 H   0  0  0  0  0  0  0  0  0  0  0  0
  148.8102  135.0650  152.9899 H   0  0  0  0  0  0  0  0  0  0  0  0
  148.8735  136.9073  153.6552 H   0  0  0  0  0  0  0  0  0  0  0  0
  148.7060  137.6370  156.5189 H   0  0  0  0  0  0  0  0  0  0  0  0
  150.7967  138.7299  156.6481 H   0  0  0  0  0  0  0  0  0  0  0  0
  152.4815  137.0958  156.3325 H   0  0  0  0  0  0  0  0  0  0  0  0
  151.9049  136.6985  154.6979 H   0  0  0  0  0  0  0  0  0  0  0  0
  153.4909  139.1113  155.5485 H   0  0  0  0  0  0  0  0  0  0  0  0
  153.1876  138.5188  153.9132 H   0  0  0  0  0  0  0  0  0  0  0  0
  150.5665  138.4640  153.5549 H   0  0  0  0  0  0  0  0  0  0  0  0
  148.0620  140.4029  153.4101 H   0  0  0  0  0  0  0  0  0  0  0  0
  147.0086  139.2290  154.1909 H   0  0  0  0  0  0  0  0  0  0  0  0
  148.1978  138.7055  153.0106 H   0  0  0  0  0  0  0  0  0  0  0  0
  148.9860  141.3414  155.4888 H   0  0  0  0  0  0  0  0  0  0  0  0
  149.3927  140.3227  156.8500 H   0  0  0  0  0  0  0  0  0  0  0  0
  147.7451  140.3803  156.2785 H   0  0  0  0  0  0  0  0  0  0  0  0
  147.1836  133.2255  152.3508 H   0  0  0  0  0  0  0  0  0  0  0  0
  1  2  1  0  0  0  0
  1 23  1  0  0  0  0
  1 24  1  0  0  0  0
  1 25  1  0  0  0  0
  2  3  1  0  0  0  0
  2  4  1  0  0  0  0
  3 26  1  0  0  0  0
  3 27  1  0  0  0  0
  3 28  1  0  0  0  0
  4 22  1  0  0  0  0
  4  5  2  0  0  0  0
  5  6  1  0  0  0  0
  5 29  1  0  0  0  0
  6  7  2  0  0  0  0
  6 30  1  0  0  0  0
  7  8  1  0  0  0  0
  7 21  1  0  0  0  0
  8  9  1  0  0  0  0
  8 31  1  0  0  0  0
  9 10  2  0  0  0  0
  9 11  1  0  0  0  0
 11 12  1  0  0  0  0
 11 32  1  0  0  0  0
 12 18  1  0  0  0  0
 12 13  1  0  0  0  0
 12 33  1  0  0  0  0
 13 17  1  0  0  0  0
 13 14  1  0  0  0  0
 13 34  1  0  0  0  0
 14 15  1  0  0  0  0
 14 35  1  0  0  0  0
 14 36  1  0  0  0  0
 15 16  1  0  0  0  0
 15 37  1  0  0  0  0
 15 38  1  0  0  0  0
 16 17  1  0  0  0  0
 17 18  1  0  0  0  0
 17 39  1  0  0  0  0
 18 19  1  0  0  0  0
 18 20  1  0  0  0  0
 19 40  1  0  0  0  0
 19 41  1  0  0  0  0
 19 42  1  0  0  0  0
 20 43  1  0  0  0  0
 20 44  1  0  0  0  0
 20 45  1  0  0  0  0
 21 22  2  0  0  0  0
 21 46  1  0  0  0  0
M  END
> <s_m_source_file>
AV-unprocessed.smi

> <i_m_source_file_index>
2923

> <i_lp_mmshare_version>
43012

> <i_f3d_flags>
0

> <s_epik_input>
W0NIM11OKFtDSDNdKWMxW2NIXVtjSF1jKFtjSF1uMSlbTkhdQyg9TylbTkhdW0NASF0yQyhbQ0gzXSkoW0NIM10pW0NAQEhdKFtDQEhdMjMpT1tDSDJdW0NIMl0z

> <s_epik_cmdline>
J2VwaWtfcHl0aG9uJywgJy1waCcsICc3LjAnLCAnLXRuJywgJzgnLCAnLW1hJywgJzIwMCcsICctbWV0YWxfYmluZGluZycsICctaW1hZScsICc8aW5maWxlLm1hZT4nLCAnLW9tYWUnLCAnPG91dGZpbGUubWFlPic=

> <r_lp_tautomer_probability>
1

> <r_epik_Ionization_Penalty>
0.628785

> <r_epik_Ionization_Penalty_Charging>
0

> <r_epik_Ionization_Penalty_Neutral>
0.628785

> <r_epik_State_Penalty>
0.644286

> <r_epik_Charging_Adjusted_Penalty>
0.644286

> <i_epik_Tot_Q>
0

> <i_epik_Tot_abs_Q>
0

> <r_epik_Metal_State_Penalty>
0.308404

> <b_epik_Metal_Only>
0

> <s_lp_Force_Field>
OPLS_2005

> <r_lp_Energy>
70.0187

> <b_lp_Chiralities_Consistent>
1

> <s_lp_Variant>
AV-unprocessed.smi:2923-16

> <Gold.Version>
5.8.1

> <Gold.Id.Protein>
6NUR|6NUR_protein|mol2

> <Gold.PLP.Fitness>
39.6685

> <Gold.PLP.PLP>
-31.7014

> <Gold.PLP.part.hbond>
-3.0000

> <Gold.PLP.part.metal>
0.0000

> <Gold.PLP.part.buried>
-2.2760

> <Gold.PLP.part.nonpolar>
-27.1479

> <Gold.PLP.part.repulsive>
0.7478

> <Gold.PLP.ligand.clash>
0.0000

> <Gold.PLP.ligand.torsion>
0.5992

> <Gold.PLP.Chemscore.Hbond>
2.8960

> <Gold.PLP.Chemscore.CHOScore>
0.0000

> <Gold.PLP.Chemscore.Metal>
0.0000

> <Gold.Chemscore.Hbonds>
donor molecule, donor type, donor heavy atom, donor atom, acceptor molecule, acceptor atom, score
      L1  H     8    31       P1  7948  1.00
      L1  H    11    32       P1  7948  0.86
      P1  H  7989  7998       L1    16  1.00

> <Gold.PLP.Chemscore.Internal.Correction>
0.4775

> <Gold.Rescore>
     Score         DG    S(hbond)    S(metal)    S(lipo)     H(rot)  DE(clash)    DE(int)     intcor
     17.28     -18.86       2.24        0.00      76.65       1.19       0.11       1.47       ----

> <Gold.Chemscore.Fitness>
17.2791

> <Gold.Chemscore.DG>
-18.8584

> <Gold.Chemscore.ZeroCoef>
-5.4800

> <Gold.Chemscore.Hbond>
2.2354

> <Gold.Chemscore.Metal>
0.0000

> <Gold.Chemscore.Lipo>
76.6494

> <Gold.Chemscore.Internal_Hbond>
0.0000

> <Gold.Chemscore.DEClash>
0.1082

> <Gold.Chemscore.DEInternal>
1.4712

> <Gold.Chemscore.Rot>
1.1937

> <Gold.Chemscore.Internal.Correction>
   9.000000E+99

> <Gold.Chemscore.Hbonds>
donor molecule, donor type, donor heavy atom, donor atom, acceptor molecule, acceptor atom, score
      L1  H     8    31       P1  7948  0.34
      L1  H    11    32       P1  7948  0.85
      P1  H  7989  7998       L1    16  0.39

> <Gold.Chemscore.Hbond.Weighted>
-7.4663

> <Gold.Chemscore.Metal.Weighted>
-0.0000

> <Gold.Chemscore.Lipo.Weighted>
-8.9680

> <Gold.Chemscore.Internal_Hbond.Weighted>
0.0000

> <Gold.Chemscore.DEClash.Weighted>
0.1082

> <Gold.Chemscore.DEInternal.Weighted>
1.4712

> <Gold.Chemscore.Rot.Weighted>
3.0559

> <Gold.Chemscore.Internal.Correction.Weighted>
   9.000000E+99

> <Gold.Protein.RotatedTorsions>
[ 6907 6896 6895 6894 ] final -101.05 input  -60.11 | X-H torsion
[ 7974 7965 7964 7962 ] final  -21.83 input  175.53 | X-H torsion
[ 8008 7997 7996 7995 ] final -115.58 input   59.86 | X-H torsion
[ 10167 10162 10161 10158 ] final  159.78 input  -65.29 | X-H torsion
[ 10718 10713 10712 10709 ] final  -69.69 input   66.30 | X-H torsion
[ 10763 10752 10751 10750 ] final  138.14 input  -60.55 | X-H torsion
[ 11005 11000 10999 10996 ] final -163.89 input  -57.11 | X-H torsion

> <Gold.Protein.ActiveResidues>
 VAL166  LYS551  ARG553  GLY616  TRP617  ASP618  TYR619  PRO620  LYS621  CYS622 
 ASP623  PHE694  ASN695  SER759  ASP760  ASP761  ALA762  ILE779  LEU786  VAL792 
 PHE793  MET794  SER795  GLU796  ALA797  LYS798  CYS799  TRP800  GLU811  SER814 

> <Gold.Protein.RotatedAtoms>
  150.7139  134.0793  159.3892 H   0  0  0  0  0  0  0  0  0  0  0  0  # atno 6907 bound_to 6896
  151.8777  135.0463  160.0495 H   0  0  0  0  0  0  0  0  0  0  0  0  # atno 6908 bound_to 6896
  152.2593  133.5247  159.5408 H   0  0  0  0  0  0  0  0  0  0  0  0  # atno 6909 bound_to 6896
  146.1711  140.4395  142.8532 H   0  0  0  0  0  0  0  0  0  0  0  0  # atno 7974 bound_to 7965
  155.0543  140.0393  157.2555 H   0  0  0  0  0  0  0  0  0  0  0  0  # atno 8008 bound_to 7997
  154.7112  140.2693  155.6604 H   0  0  0  0  0  0  0  0  0  0  0  0  # atno 8009 bound_to 7997
  156.2790  140.2721  156.1754 H   0  0  0  0  0  0  0  0  0  0  0  0  # atno 8010 bound_to 7997
  139.4835  144.4697  151.8593 H   0  0  0  0  0  0  0  0  0  0  0  0  # atno 10167 bound_to 10162
  156.0443  130.4317  150.2184 H   0  0  0  0  0  0  0  0  0  0  0  0  # atno 10718 bound_to 10713
  153.8846  135.3040  155.3446 H   0  0  0  0  0  0  0  0  0  0  0  0  # atno 10763 bound_to 10752
  154.7745  135.4868  153.9719 H   0  0  0  0  0  0  0  0  0  0  0  0  # atno 10764 bound_to 10752
  153.1332  135.6808  153.9242 H   0  0  0  0  0  0  0  0  0  0  0  0  # atno 10765 bound_to 10752
  140.5930  134.5025  157.5195 H   0  0  0  0  0  0  0  0  0  0  0  0  # atno 11005 bound_to 11000
  144.8164  140.6475  143.6381 LP  0  0  0  0  0  0  0  0  0  0  0  0  # atno 17320 bound_to 7965
  145.4338  139.1545  143.4008 LP  0  0  0  0  0  0  0  0  0  0  0  0  # atno 17321 bound_to 7965
  140.4165  144.2300  150.5887 LP  0  0  0  0  0  0  0  0  0  0  0  0  # atno 17342 bound_to 10162
  140.4916  143.2345  151.8810 LP  0  0  0  0  0  0  0  0  0  0  0  0  # atno 17343 bound_to 10162
  157.0276  130.9998  151.3321 LP  0  0  0  0  0  0  0  0  0  0  0  0  # atno 17370 bound_to 10713
  157.5300  130.8052  149.7906 LP  0  0  0  0  0  0  0  0  0  0  0  0  # atno 17371 bound_to 10713
  139.9265  134.8045  156.1052 LP  0  0  0  0  0  0  0  0  0  0  0  0  # atno 17394 bound_to 11000
  141.0922  133.6710  156.2566 LP  0  0  0  0  0  0  0  0  0  0  0  0  # atno 17395 bound_to 11000

$$$$
