AV-unprocessed.smi:227|AV-procd|sdf|1739|dock1
  -GOLD-   2262020243D 1   1.00000     0.00000
 Structure written by MMmdl.
 54 58  0  0  0  0  0  0  0  0  1 V2000
  156.8809  137.2518  160.7086 O   0  0  0  0  0  0  0  0  0  0  0  0
  156.3036  137.1464  161.9940 C   0  0  0  0  0  0  0  0  0  0  0  0
  155.1840  138.1977  162.2051 C   0  0  2  0  0  0  0  0  0  0  0  0
  155.7372  139.6460  162.0551 C   0  0  0  0  0  0  0  0  0  0  0  0
  154.7096  140.6619  161.8770 N   0  0  0  0  0  0  0  0  0  0  0  0
  154.3539  141.6381  162.7793 C   0  0  0  0  0  0  0  0  0  0  0  0
  153.3914  142.4289  162.3931 N   0  0  0  0  0  0  0  0  0  0  0  0
  153.0645  141.9770  161.1198 C   0  0  0  0  0  0  0  0  0  0  0  0
  152.1086  142.3677  160.1371 C   0  0  0  0  0  0  0  0  0  0  0  0
  151.2130  143.3764  160.3137 N   0  0  0  0  0  0  0  0  0  0  0  0
  151.6503  144.7309  160.6151 C   0  0  2  0  0  0  0  0  0  0  0  0
  150.3226  145.4329  160.9484 C   0  0  0  0  0  0  0  0  0  0  0  0
  149.3581  144.7277  159.9800 C   0  0  0  0  0  0  0  0  0  0  0  0
  150.3147  143.7753  159.2392 C   0  0  1  0  0  0  0  0  0  0  0  0
  151.1874  144.6145  158.2714 C   0  0  2  0  0  0  0  0  0  0  0  0
  151.8576  143.7936  157.1519 C   0  0  0  0  0  0  0  0  0  0  0  0
  150.9015  142.9802  156.5063 O   0  0  0  0  0  0  0  0  0  0  0  0
  152.1773  145.2580  159.2640 C   0  0  0  0  0  0  0  0  0  0  0  0
  152.1159  141.6898  158.9586 N   0  0  0  0  0  0  0  0  0  0  0  0
  152.9689  140.6817  158.7612 C   0  0  0  0  0  0  0  0  0  0  0  0
  153.8896  140.1953  159.5934 N   0  0  0  0  0  0  0  0  0  0  0  0
  153.9034  140.8793  160.7724 C   0  0  0  0  0  0  0  0  0  0  0  0
  154.4315  137.9790  163.5561 C   0  0  1  0  0  0  0  0  0  0  0  0
  153.7541  136.6166  163.6757 C   0  0  0  0  0  0  0  0  0  0  0  0
  154.8629  135.7000  164.1939 C   0  0  0  0  0  0  0  0  0  0  0  0
  155.8243  136.5549  164.8021 O   0  0  0  0  0  0  0  0  0  0  0  0
  155.3295  137.8857  164.7986 C   0  0  0  0  0  0  0  0  0  0  0  0
  156.2549  136.9420  160.0717 H   0  0  0  0  0  0  0  0  0  0  0  0
  155.9162  136.1325  162.0617 H   0  0  0  0  0  0  0  0  0  0  0  0
  157.0817  137.2378  162.7517 H   0  0  0  0  0  0  0  0  0  0  0  0
  154.4622  138.0528  161.4000 H   0  0  0  0  0  0  0  0  0  0  0  0
  156.3275  139.9187  162.9300 H   0  0  0  0  0  0  0  0  0  0  0  0
  156.4372  139.7168  161.2244 H   0  0  0  0  0  0  0  0  0  0  0  0
  154.8281  141.7399  163.7446 H   0  0  0  0  0  0  0  0  0  0  0  0
  152.3770  144.8092  161.4247 H   0  0  0  0  0  0  0  0  0  0  0  0
  150.0301  145.2471  161.9826 H   0  0  0  0  0  0  0  0  0  0  0  0
  150.3672  146.5117  160.7949 H   0  0  0  0  0  0  0  0  0  0  0  0
  148.6054  144.1652  160.5340 H   0  0  0  0  0  0  0  0  0  0  0  0
  148.8397  145.4190  159.3147 H   0  0  0  0  0  0  0  0  0  0  0  0
  149.7754  142.9684  158.7460 H   0  0  0  0  0  0  0  0  0  0  0  0
  150.5706  145.3813  157.7999 H   0  0  0  0  0  0  0  0  0  0  0  0
  152.3329  144.4316  156.4076 H   0  0  0  0  0  0  0  0  0  0  0  0
  152.6338  143.1506  157.5674 H   0  0  0  0  0  0  0  0  0  0  0  0
  150.3226  143.5352  156.0064 H   0  0  0  0  0  0  0  0  0  0  0  0
  152.1797  146.3470  159.2099 H   0  0  0  0  0  0  0  0  0  0  0  0
  153.1979  144.9158  159.0870 H   0  0  0  0  0  0  0  0  0  0  0  0
  152.9012  140.1928  157.8006 H   0  0  0  0  0  0  0  0  0  0  0  0
  153.7063  138.7820  163.6926 H   0  0  0  0  0  0  0  0  0  0  0  0
  152.9600  136.6776  164.4215 H   0  0  0  0  0  0  0  0  0  0  0  0
  153.2981  136.2388  162.7634 H   0  0  0  0  0  0  0  0  0  0  0  0
  154.4822  134.9663  164.9048 H   0  0  0  0  0  0  0  0  0  0  0  0
  155.3413  135.1629  163.3745 H   0  0  0  0  0  0  0  0  0  0  0  0
  156.1347  138.6146  164.8534 H   0  0  0  0  0  0  0  0  0  0  0  0
  154.7264  138.0233  165.6976 H   0  0  0  0  0  0  0  0  0  0  0  0
  1  2  1  0  0  0  0
  1 28  1  0  0  0  0
  2  3  1  0  0  0  0
  2 29  1  0  0  0  0
  2 30  1  0  0  0  0
  3  4  1  0  0  0  0
  3 23  1  0  0  0  0
  3 31  1  0  0  0  0
  4  5  1  0  0  0  0
  4 32  1  0  0  0  0
  4 33  1  0  0  0  0
  5 22  1  0  0  0  0
  5  6  1  0  0  0  0
  6  7  2  0  0  0  0
  6 34  1  0  0  0  0
  7  8  1  0  0  0  0
  8 22  2  0  0  0  0
  8  9  1  0  0  0  0
  9 10  1  0  0  0  0
  9 19  2  0  0  0  0
 10 14  1  0  0  0  0
 10 11  1  0  0  0  0
 11 18  1  0  0  0  0
 11 12  1  0  0  0  0
 11 35  1  0  0  0  0
 12 13  1  0  0  0  0
 12 36  1  0  0  0  0
 12 37  1  0  0  0  0
 13 14  1  0  0  0  0
 13 38  1  0  0  0  0
 13 39  1  0  0  0  0
 14 15  1  0  0  0  0
 14 40  1  0  0  0  0
 15 16  1  0  0  0  0
 15 18  1  0  0  0  0
 15 41  1  0  0  0  0
 16 17  1  0  0  0  0
 16 42  1  0  0  0  0
 16 43  1  0  0  0  0
 17 44  1  0  0  0  0
 18 45  1  0  0  0  0
 18 46  1  0  0  0  0
 19 20  1  0  0  0  0
 20 21  2  0  0  0  0
 20 47  1  0  0  0  0
 21 22  1  0  0  0  0
 23 27  1  0  0  0  0
 23 24  1  0  0  0  0
 23 48  1  0  0  0  0
 24 25  1  0  0  0  0
 24 49  1  0  0  0  0
 24 50  1  0  0  0  0
 25 26  1  0  0  0  0
 25 51  1  0  0  0  0
 25 52  1  0  0  0  0
 26 27  1  0  0  0  0
 27 53  1  0  0  0  0
 27 54  1  0  0  0  0
M  END
> <s_m_source_file>
AV-unprocessed.smi

> <i_m_source_file_index>
227

> <i_lp_mmshare_version>
43012

> <i_f3d_flags>
0

> <s_epik_input>
W0NIMl0xT1tDSDJdW0NIMl1bQ0BIXTFbQ0BIXShbQ0gyXVtPSF0pW0NIMl1uKFtjSF1uMiljKGMyMyluW2NIXW5jM04oW0NASF00NSlbQ0BASF0oW0NIMl1bQ0gyXTQpW0NASF0oW0NIMl01KVtDSDJdW09IXQ==

> <s_epik_cmdline>
J2VwaWtfcHl0aG9uJywgJy1waCcsICc3LjAnLCAnLXRuJywgJzgnLCAnLW1hJywgJzIwMCcsICctbWV0YWxfYmluZGluZycsICctaW1hZScsICc8aW5maWxlLm1hZT4nLCAnLW9tYWUnLCAnPG91dGZpbGUubWFlPic=

> <r_lp_tautomer_probability>
1

> <r_epik_Ionization_Penalty>
0.0055791

> <r_epik_Ionization_Penalty_Charging>
0

> <r_epik_Ionization_Penalty_Neutral>
0.0055791

> <r_epik_State_Penalty>
0.00401299

> <r_epik_Charging_Adjusted_Penalty>
0.00401299

> <i_epik_Tot_Q>
0

> <i_epik_Tot_abs_Q>
0

> <r_epik_Metal_State_Penalty>
-0

> <b_epik_Metal_Only>
0

> <s_lp_Force_Field>
OPLS_2005

> <r_lp_Energy>
89.9209

> <b_lp_Chiralities_Consistent>
1

> <s_lp_Variant>
AV-unprocessed.smi:227-13

> <Gold.Version>
5.8.1

> <Gold.Id.Protein>
6NUR|6NUR_protein|mol2

> <Gold.PLP.Fitness>
48.2555

> <Gold.PLP.PLP>
-45.7215

> <Gold.PLP.part.hbond>
-1.7188

> <Gold.PLP.part.metal>
0.0000

> <Gold.PLP.part.buried>
0.3618

> <Gold.PLP.part.nonpolar>
-42.8329

> <Gold.PLP.part.repulsive>
0.2120

> <Gold.PLP.ligand.clash>
0.0000

> <Gold.PLP.ligand.torsion>
0.3481

> <Gold.PLP.Chemscore.Hbond>
1.0000

> <Gold.PLP.Chemscore.CHOScore>
0.0000

> <Gold.PLP.Chemscore.Metal>
0.0000

> <Gold.Chemscore.Hbonds>
donor molecule, donor type, donor heavy atom, donor atom, acceptor molecule, acceptor atom, score
      L1  H    17    44       P1  8028  1.00

> <Gold.PLP.Chemscore.Internal.Correction>
0.2303

> <Gold.Rescore>
     Score         DG    S(hbond)    S(metal)    S(lipo)     H(rot)  DE(clash)    DE(int)     intcor
      6.73     -14.35       0.98        0.00     126.65       3.61       3.76       3.86       ----

> <Gold.Chemscore.Fitness>
6.7329

> <Gold.Chemscore.DG>
-14.3523

> <Gold.Chemscore.ZeroCoef>
-5.4800

> <Gold.Chemscore.Hbond>
0.9846

> <Gold.Chemscore.Metal>
0.0000

> <Gold.Chemscore.Lipo>
126.6497

> <Gold.Chemscore.Internal_Hbond>
0.0000

> <Gold.Chemscore.DEClash>
3.7574

> <Gold.Chemscore.DEInternal>
3.8619

> <Gold.Chemscore.Rot>
3.6071

> <Gold.Chemscore.Internal.Correction>
   9.000000E+99

> <Gold.Chemscore.Hbonds>
donor molecule, donor type, donor heavy atom, donor atom, acceptor molecule, acceptor atom, score
      L1  H    17    44       P1  8028  0.99

> <Gold.Chemscore.Hbond.Weighted>
-3.2885

> <Gold.Chemscore.Metal.Weighted>
-0.0000

> <Gold.Chemscore.Lipo.Weighted>
-14.8180

> <Gold.Chemscore.Internal_Hbond.Weighted>
0.0000

> <Gold.Chemscore.DEClash.Weighted>
3.7574

> <Gold.Chemscore.DEInternal.Weighted>
3.8619

> <Gold.Chemscore.Rot.Weighted>
9.2342

> <Gold.Chemscore.Internal.Correction.Weighted>
   9.000000E+99

> <Gold.Protein.RotatedTorsions>
[ 6907 6896 6895 6894 ] final -125.21 input  -60.11 | X-H torsion
[ 7974 7965 7964 7962 ] final  106.71 input  175.53 | X-H torsion
[ 8008 7997 7996 7995 ] final   68.09 input   59.86 | X-H torsion
[ 10167 10162 10161 10158 ] final -134.99 input  -65.29 | X-H torsion
[ 10718 10713 10712 10709 ] final  -62.00 input   66.30 | X-H torsion
[ 10763 10752 10751 10750 ] final   45.18 input  -60.55 | X-H torsion
[ 11005 11000 10999 10996 ] final   99.63 input  -57.11 | X-H torsion

> <Gold.Protein.ActiveResidues>
 VAL166  LYS551  ARG553  GLY616  TRP617  ASP618  TYR619  PRO620  LYS621  CYS622 
 ASP623  PHE694  ASN695  SER759  ASP760  ASP761  ALA762  ILE779  LEU786  VAL792 
 PHE793  MET794  SER795  GLU796  ALA797  LYS798  CYS799  TRP800  GLU811  SER814 

> <Gold.Protein.RotatedAtoms>
  150.8845  133.7327  159.2922 H   0  0  0  0  0  0  0  0  0  0  0  0  # atno 6907 bound_to 6896
  151.4897  135.1055  159.9810 H   0  0  0  0  0  0  0  0  0  0  0  0  # atno 6908 bound_to 6896
  152.4781  133.8141  159.7074 H   0  0  0  0  0  0  0  0  0  0  0  0  # atno 6909 bound_to 6896
  145.3031  139.2563  143.3803 H   0  0  0  0  0  0  0  0  0  0  0  0  # atno 7974 bound_to 7965
  155.7030  140.3495  155.4941 H   0  0  0  0  0  0  0  0  0  0  0  0  # atno 8008 bound_to 7997
  155.9423  140.1104  157.1067 H   0  0  0  0  0  0  0  0  0  0  0  0  # atno 8009 bound_to 7997
  154.4105  140.1210  156.4930 H   0  0  0  0  0  0  0  0  0  0  0  0  # atno 8010 bound_to 7997
  139.8825  143.6822  152.2625 H   0  0  0  0  0  0  0  0  0  0  0  0  # atno 10167 bound_to 10162
  156.0884  130.4204  150.1074 H   0  0  0  0  0  0  0  0  0  0  0  0  # atno 10718 bound_to 10713
  152.9828  135.6047  154.3395 H   0  0  0  0  0  0  0  0  0  0  0  0  # atno 10763 bound_to 10752
  154.3093  135.2771  155.2575 H   0  0  0  0  0  0  0  0  0  0  0  0  # atno 10764 bound_to 10752
  154.4792  135.5921  153.6433 H   0  0  0  0  0  0  0  0  0  0  0  0  # atno 10765 bound_to 10752
  139.8770  134.9104  156.4635 H   0  0  0  0  0  0  0  0  0  0  0  0  # atno 11005 bound_to 11000
  146.3145  140.3550  142.8659 LP  0  0  0  0  0  0  0  0  0  0  0  0  # atno 17320 bound_to 7965
  144.9077  140.7719  143.5827 LP  0  0  0  0  0  0  0  0  0  0  0  0  # atno 17321 bound_to 7965
  139.7183  144.7607  151.0997 LP  0  0  0  0  0  0  0  0  0  0  0  0  # atno 17342 bound_to 10162
  140.7742  143.5240  150.9502 LP  0  0  0  0  0  0  0  0  0  0  0  0  # atno 17343 bound_to 10162
  156.9089  130.9645  151.3566 LP  0  0  0  0  0  0  0  0  0  0  0  0  # atno 17370 bound_to 10713
  157.6026  130.8523  149.8825 LP  0  0  0  0  0  0  0  0  0  0  0  0  # atno 17371 bound_to 10713
  140.8847  133.7892  155.9505 LP  0  0  0  0  0  0  0  0  0  0  0  0  # atno 17394 bound_to 11000
  140.8817  134.2603  157.5141 LP  0  0  0  0  0  0  0  0  0  0  0  0  # atno 17395 bound_to 11000

$$$$
