AV-unprocessed.smi:2154|AV-procd|sdf|8773|dock8
  -GOLD-   2272011553D 1   1.00000     0.00000
 Structure written by MMmdl.
 32 33  0  0  0  0  0  0  0  0  1 V2000
  152.6492  142.9956  161.3336 C   0  0  0  0  0  0  0  0  0  0  0  0
  151.7087  143.8250  160.4864 C   0  0  1  0  0  0  0  0  0  0  0  0
  151.8976  145.3198  160.3654 C   0  0  0  0  0  0  0  0  0  0  0  0
  152.1755  144.4265  159.1797 C   0  0  2  0  0  0  0  0  0  0  0  0
  151.2672  144.4623  157.9650 C   0  0  0  0  0  0  0  0  0  0  0  0
  151.4176  143.3366  157.0522 N   0  0  0  0  0  0  0  0  0  0  0  0
  150.8519  142.1311  157.2154 C   0  0  0  0  0  0  0  0  0  0  0  0
  150.1249  141.8521  158.1701 O   0  0  0  0  0  0  0  0  0  0  0  0
  151.1383  141.0973  156.1169 C   0  0  0  0  0  0  0  0  0  0  0  0
  150.0034  140.8957  155.2043 N   0  0  0  0  0  0  0  0  0  0  0  0
  148.9881  141.8388  155.1302 C   0  0  0  0  0  0  0  0  0  0  0  0
  147.9106  141.7125  154.3199 C   0  0  0  0  0  0  0  0  0  0  0  0
  147.7649  140.5414  153.4622 C   0  0  0  0  0  0  0  0  0  0  0  0
  146.8277  140.3376  152.6937 O   0  0  0  0  0  0  0  0  0  0  0  0
  148.8049  139.6140  153.5676 N   0  0  0  0  0  0  0  0  0  0  0  0
  149.9168  139.7371  154.4019 C   0  0  0  0  0  0  0  0  0  0  0  0
  150.7759  138.8563  154.4210 O   0  0  0  0  0  0  0  0  0  0  0  0
  148.7458  138.7848  152.9946 H   0  0  0  0  0  0  0  0  0  0  0  0
  153.6668  143.3833  161.2766 H   0  0  0  0  0  0  0  0  0  0  0  0
  152.6514  141.9623  160.9869 H   0  0  0  0  0  0  0  0  0  0  0  0
  152.3283  143.0129  162.3753 H   0  0  0  0  0  0  0  0  0  0  0  0
  150.6778  143.4772  160.5144 H   0  0  0  0  0  0  0  0  0  0  0  0
  151.0013  145.9364  160.3382 H   0  0  0  0  0  0  0  0  0  0  0  0
  152.7538  145.7660  160.8671 H   0  0  0  0  0  0  0  0  0  0  0  0
  153.2284  144.2981  158.9350 H   0  0  0  0  0  0  0  0  0  0  0  0
  150.2283  144.4924  158.2953 H   0  0  0  0  0  0  0  0  0  0  0  0
  151.4418  145.3947  157.4259 H   0  0  0  0  0  0  0  0  0  0  0  0
  151.9961  143.4831  156.2378 H   0  0  0  0  0  0  0  0  0  0  0  0
  152.0157  141.4296  155.5600 H   0  0  0  0  0  0  0  0  0  0  0  0
  151.4284  140.1472  156.5706 H   0  0  0  0  0  0  0  0  0  0  0  0
  149.0519  142.7210  155.7513 H   0  0  0  0  0  0  0  0  0  0  0  0
  147.1520  142.4816  154.3073 H   0  0  0  0  0  0  0  0  0  0  0  0
  1  2  1  0  0  0  0
  1 19  1  0  0  0  0
  1 20  1  0  0  0  0
  1 21  1  0  0  0  0
  2  4  1  0  0  0  0
  2  3  1  0  0  0  0
  2 22  1  0  0  0  0
  3  4  1  0  0  0  0
  3 23  1  0  0  0  0
  3 24  1  0  0  0  0
  4  5  1  0  0  0  0
  4 25  1  0  0  0  0
  5  6  1  0  0  0  0
  5 26  1  0  0  0  0
  5 27  1  0  0  0  0
  6  7  1  0  0  0  0
  6 28  1  0  0  0  0
  7  8  2  0  0  0  0
  7  9  1  0  0  0  0
  9 10  1  0  0  0  0
  9 29  1  0  0  0  0
  9 30  1  0  0  0  0
 10 16  1  0  0  0  0
 10 11  1  0  0  0  0
 11 12  2  0  0  0  0
 11 31  1  0  0  0  0
 12 13  1  0  0  0  0
 12 32  1  0  0  0  0
 13 14  2  0  0  0  0
 13 15  1  0  0  0  0
 15 18  1  0  0  0  0
 15 16  1  0  0  0  0
 16 17  2  0  0  0  0
M  END
> <s_m_source_file>
AV-unprocessed.smi

> <i_m_source_file_index>
2154

> <i_lp_mmshare_version>
43012

> <i_f3d_flags>
0

> <s_epik_input>
W0NIM11bQ0BASF0xW0NIMl1bQ0BIXTFbQ0gyXVtOSF1DKD1PKVtDSDJdbjJbY0hdW2NIXWMoPU8pW25IXWMyPU8=

> <s_epik_cmdline>
J2VwaWtfcHl0aG9uJywgJy1waCcsICc3LjAnLCAnLXRuJywgJzgnLCAnLW1hJywgJzIwMCcsICctbWV0YWxfYmluZGluZycsICctaW1hZScsICc8aW5maWxlLm1hZT4nLCAnLW9tYWUnLCAnPG91dGZpbGUubWFlPic=

> <r_lp_tautomer_probability>
0.999537

> <r_epik_Ionization_Penalty>
0.00305319

> <r_epik_Ionization_Penalty_Charging>
0.00305317

> <r_epik_Ionization_Penalty_Neutral>
2.06703e-08

> <r_epik_State_Penalty>
0.00214626

> <r_epik_Charging_Adjusted_Penalty>
0.00519944

> <i_epik_Tot_Q>
0

> <i_epik_Tot_abs_Q>
0

> <r_epik_Metal_State_Penalty>
0.361976

> <b_epik_Metal_Only>
0

> <s_lp_Force_Field>
OPLS_2005

> <r_lp_Energy>
14.6752

> <b_lp_Chiralities_Consistent>
1

> <s_lp_Variant>
AV-unprocessed.smi:2154-4

> <Gold.Version>
5.8.1

> <Gold.Id.Protein>
6NUR|6NUR_protein|mol2

> <Gold.PLP.Fitness>
40.6781

> <Gold.PLP.PLP>
-38.9019

> <Gold.PLP.part.hbond>
-1.4740

> <Gold.PLP.part.metal>
0.0000

> <Gold.PLP.part.buried>
-0.7518

> <Gold.PLP.part.nonpolar>
-36.9063

> <Gold.PLP.part.repulsive>
0.6594

> <Gold.PLP.ligand.clash>
0.0000

> <Gold.PLP.ligand.torsion>
0.8851

> <Gold.PLP.Chemscore.Hbond>
0.0000

> <Gold.PLP.Chemscore.CHOScore>
1.0000

> <Gold.PLP.Chemscore.Metal>
0.0000

> <Gold.Chemscore.Hbonds>
donor molecule, donor type, donor heavy atom, donor atom, acceptor molecule, acceptor atom, score
      L1  C    11    31       P1  8028  0.94

> <Gold.PLP.Chemscore.Internal.Correction>
0.5464

> <Gold.Rescore>
     Score         DG    S(hbond)    S(metal)    S(lipo)     H(rot)  DE(clash)    DE(int)     intcor
      8.85     -10.00       0.00        0.00      82.52       2.01       0.33       0.82       ----

> <Gold.Chemscore.Fitness>
8.8522

> <Gold.Chemscore.DG>
-9.9982

> <Gold.Chemscore.ZeroCoef>
-5.4800

> <Gold.Chemscore.Hbond>
0.0000

> <Gold.Chemscore.Metal>
0.0000

> <Gold.Chemscore.Lipo>
82.5198

> <Gold.Chemscore.Internal_Hbond>
0.0000

> <Gold.Chemscore.DEClash>
0.3274

> <Gold.Chemscore.DEInternal>
0.8186

> <Gold.Chemscore.Rot>
2.0065

> <Gold.Chemscore.Internal.Correction>
   9.000000E+99

> <Gold.Chemscore.Hbond.Weighted>
-0.0001

> <Gold.Chemscore.Metal.Weighted>
-0.0000

> <Gold.Chemscore.Lipo.Weighted>
-9.6548

> <Gold.Chemscore.Internal_Hbond.Weighted>
0.0000

> <Gold.Chemscore.DEClash.Weighted>
0.3274

> <Gold.Chemscore.DEInternal.Weighted>
0.8186

> <Gold.Chemscore.Rot.Weighted>
5.1366

> <Gold.Chemscore.Internal.Correction.Weighted>
   9.000000E+99

> <Gold.Protein.RotatedTorsions>
[ 6907 6896 6895 6894 ] final -102.11 input  -60.11 | X-H torsion
[ 7974 7965 7964 7962 ] final -156.13 input  175.53 | X-H torsion
[ 8008 7997 7996 7995 ] final -140.55 input   59.86 | X-H torsion
[ 10167 10162 10161 10158 ] final   42.62 input  -65.29 | X-H torsion
[ 10718 10713 10712 10709 ] final  129.97 input   66.30 | X-H torsion
[ 10763 10752 10751 10750 ] final  -17.11 input  -60.55 | X-H torsion
[ 11005 11000 10999 10996 ] final   59.27 input  -57.11 | X-H torsion

> <Gold.Protein.ActiveResidues>
 VAL166  LYS551  ARG553  GLY616  TRP617  ASP618  TYR619  PRO620  LYS621  CYS622 
 ASP623  PHE694  ASN695  SER759  ASP760  ASP761  ALA762  ILE779  LEU786  VAL792 
 PHE793  MET794  SER795  GLU796  ALA797  LYS798  CYS799  TRP800  GLU811  SER814 

> <Gold.Protein.RotatedAtoms>
  150.7182  134.0631  159.3837 H   0  0  0  0  0  0  0  0  0  0  0  0  # atno 6907 bound_to 6896
  151.8611  135.0521  160.0479 H   0  0  0  0  0  0  0  0  0  0  0  0  # atno 6908 bound_to 6896
  152.2716  133.5352  159.5479 H   0  0  0  0  0  0  0  0  0  0  0  0  # atno 6909 bound_to 6896
  144.7608  140.4153  143.5978 H   0  0  0  0  0  0  0  0  0  0  0  0  # atno 7974 bound_to 7965
  155.4631  140.0547  157.2988 H   0  0  0  0  0  0  0  0  0  0  0  0  # atno 8008 bound_to 7997
  154.4729  140.2048  155.9905 H   0  0  0  0  0  0  0  0  0  0  0  0  # atno 8009 bound_to 7997
  156.1085  140.3208  155.8044 H   0  0  0  0  0  0  0  0  0  0  0  0  # atno 8010 bound_to 7997
  140.3526  144.2331  150.6144 H   0  0  0  0  0  0  0  0  0  0  0  0  # atno 10167 bound_to 10162
  157.5105  131.1096  150.9299 H   0  0  0  0  0  0  0  0  0  0  0  0  # atno 10718 bound_to 10713
  153.5688  135.7008  153.5514 H   0  0  0  0  0  0  0  0  0  0  0  0  # atno 10763 bound_to 10752
  153.3363  135.4033  155.1536 H   0  0  0  0  0  0  0  0  0  0  0  0  # atno 10764 bound_to 10752
  154.8636  135.3731  154.5209 H   0  0  0  0  0  0  0  0  0  0  0  0  # atno 10765 bound_to 10752
  140.0316  134.6003  155.9499 H   0  0  0  0  0  0  0  0  0  0  0  0  # atno 11005 bound_to 11000
  145.6627  139.1584  143.2799 LP  0  0  0  0  0  0  0  0  0  0  0  0  # atno 17320 bound_to 7965
  146.1668  140.6706  142.9252 LP  0  0  0  0  0  0  0  0  0  0  0  0  # atno 17321 bound_to 7965
  140.5204  143.2267  151.8397 LP  0  0  0  0  0  0  0  0  0  0  0  0  # atno 17342 bound_to 10162
  139.4824  144.4843  151.9266 LP  0  0  0  0  0  0  0  0  0  0  0  0  # atno 17343 bound_to 10162
  156.9941  130.5574  149.5305 LP  0  0  0  0  0  0  0  0  0  0  0  0  # atno 17370 bound_to 10713
  156.0286  130.5379  150.8474 LP  0  0  0  0  0  0  0  0  0  0  0  0  # atno 17371 bound_to 10713
  141.1834  133.6551  156.5116 LP  0  0  0  0  0  0  0  0  0  0  0  0  # atno 17394 bound_to 11000
  140.4216  134.7182  157.4893 LP  0  0  0  0  0  0  0  0  0  0  0  0  # atno 17395 bound_to 11000

$$$$
