AV-unprocessed.smi:1499|AV-procd|sdf|6061|dock1
  -GOLD-   22720 6173D 1   1.00000     0.00000
 Structure written by MMmdl.
 41 42  0  0  0  0  0  0  0  0  2 V2000
  145.5849  132.2073  149.6483 C   0  0  0  0  0  0  0  0  0  0  0  0
  144.0817  132.4642  149.4683 C   0  0  0  0  0  0  0  0  0  0  0  0
  143.5926  133.6013  150.2882 N   0  3  0  0  0  0  0  0  0  0  0  0
  144.3916  134.8370  150.0639 C   0  0  0  0  0  0  0  0  0  0  0  0
  143.8735  136.0117  150.9155 C   0  0  0  0  0  0  0  0  0  0  0  0
  143.8619  135.6082  152.3290 N   0  0  0  0  0  0  0  0  0  0  0  0
  144.7718  135.9770  153.2651 C   0  0  0  0  0  0  0  0  0  0  0  0
  144.8690  135.4110  154.3543 O   0  0  0  0  0  0  0  0  0  0  0  0
  145.4889  137.0677  152.9341 N   0  0  0  0  0  0  0  0  0  0  0  0
  146.5453  137.6657  153.6669 C   0  0  0  0  0  0  0  0  0  0  0  0
  146.9151  137.3078  154.9894 C   0  0  0  0  0  0  0  0  0  0  0  0
  147.9289  138.0431  155.4195 N   0  0  0  0  0  0  0  0  0  0  0  0
  148.2214  138.8770  154.3897 N   0  0  0  0  0  0  0  0  0  0  0  0
  149.2988  139.8409  154.5273 C   0  0  0  0  0  0  0  0  0  0  0  0
  150.6642  139.1684  154.3748 C   0  0  0  0  0  0  0  0  0  0  0  0
  150.6882  137.9598  153.8069 N   0  0  0  0  0  0  0  0  0  0  0  0
  151.6840  139.7334  154.7640 O   0  0  0  0  0  0  0  0  0  0  0  0
  147.3952  138.6716  153.3019 C   0  0  0  0  0  0  0  0  0  0  0  0
  142.9474  134.4825  152.5393 C   0  0  0  0  0  0  0  0  0  0  0  0
  143.4421  133.2681  151.7322 C   0  0  0  0  0  0  0  0  0  0  0  0
  145.8859  131.3070  149.1119 H   0  0  0  0  0  0  0  0  0  0  0  0
  145.8378  132.0649  150.6991 H   0  0  0  0  0  0  0  0  0  0  0  0
  146.1900  133.0272  149.2623 H   0  0  0  0  0  0  0  0  0  0  0  0
  143.8431  132.6312  148.4167 H   0  0  0  0  0  0  0  0  0  0  0  0
  143.5512  131.5582  149.7652 H   0  0  0  0  0  0  0  0  0  0  0  0
  145.4373  134.6392  150.3062 H   0  0  0  0  0  0  0  0  0  0  0  0
  144.3566  135.1091  149.0084 H   0  0  0  0  0  0  0  0  0  0  0  0
  144.4742  136.8986  150.7142 H   0  0  0  0  0  0  0  0  0  0  0  0
  142.8585  136.2729  150.6118 H   0  0  0  0  0  0  0  0  0  0  0  0
  145.2744  137.4973  152.0460 H   0  0  0  0  0  0  0  0  0  0  0  0
  146.4905  136.5564  155.6390 H   0  0  0  0  0  0  0  0  0  0  0  0
  149.1835  140.6318  153.7841 H   0  0  0  0  0  0  0  0  0  0  0  0
  149.2229  140.3105  155.5089 H   0  0  0  0  0  0  0  0  0  0  0  0
  151.5682  137.4811  153.6791 H   0  0  0  0  0  0  0  0  0  0  0  0
  149.8263  137.5322  153.5008 H   0  0  0  0  0  0  0  0  0  0  0  0
  147.4881  139.2530  152.3965 H   0  0  0  0  0  0  0  0  0  0  0  0
  142.8439  134.2179  153.5928 H   0  0  0  0  0  0  0  0  0  0  0  0
  141.9471  134.7677  152.2102 H   0  0  0  0  0  0  0  0  0  0  0  0
  142.7369  132.4475  151.8588 H   0  0  0  0  0  0  0  0  0  0  0  0
  144.4004  132.9277  152.1282 H   0  0  0  0  0  0  0  0  0  0  0  0
  142.6651  133.8160  149.9505 H   0  0  0  0  0  0  0  0  0  0  0  0
  1  2  1  0  0  0  0
  1 21  1  0  0  0  0
  1 22  1  0  0  0  0
  1 23  1  0  0  0  0
  2  3  1  0  0  0  0
  2 24  1  0  0  0  0
  2 25  1  0  0  0  0
  3 20  1  0  0  0  0
  3  4  1  0  0  0  0
  3 41  1  0  0  0  0
  4  5  1  0  0  0  0
  4 26  1  0  0  0  0
  4 27  1  0  0  0  0
  5  6  1  0  0  0  0
  5 28  1  0  0  0  0
  5 29  1  0  0  0  0
  6  7  1  0  0  0  0
  6 19  1  0  0  0  0
  7  8  2  0  0  0  0
  7  9  1  0  0  0  0
  9 10  1  0  0  0  0
  9 30  1  0  0  0  0
 10 18  2  0  0  0  0
 10 11  1  0  0  0  0
 11 12  2  0  0  0  0
 11 31  1  0  0  0  0
 12 13  1  0  0  0  0
 13 14  1  0  0  0  0
 13 18  1  0  0  0  0
 14 15  1  0  0  0  0
 14 32  1  0  0  0  0
 14 33  1  0  0  0  0
 15 16  1  0  0  0  0
 15 17  2  0  0  0  0
 16 34  1  0  0  0  0
 16 35  1  0  0  0  0
 18 36  1  0  0  0  0
 19 20  1  0  0  0  0
 19 37  1  0  0  0  0
 19 38  1  0  0  0  0
 20 39  1  0  0  0  0
 20 40  1  0  0  0  0
M  CHG  1   3   1
M  END
> <s_m_source_file>
AV-unprocessed.smi

> <i_m_source_file_index>
1499

> <i_lp_mmshare_version>
43012

> <i_f3d_flags>
0

> <s_epik_input>
W0NIM11bQ0gyXU4xW0NIMl1bQ0gyXU4oW0NIMl1bQ0gyXTEpQyg9TylbTkhdYzJbY0hdbm4oW2NIXTIpW0NIMl1DKD1PKVtOSDJd

> <s_epik_cmdline>
J2VwaWtfcHl0aG9uJywgJy1waCcsICc3LjAnLCAnLXRuJywgJzgnLCAnLW1hJywgJzIwMCcsICctbWV0YWxfYmluZGluZycsICctaW1hZScsICc8aW5maWxlLm1hZT4nLCAnLW9tYWUnLCAnPG91dGZpbGUubWFlPic=

> <r_lp_tautomer_probability>
1

> <r_epik_Ionization_Penalty>
0.390351

> <r_epik_Ionization_Penalty_Charging>
0.390326

> <r_epik_Ionization_Penalty_Neutral>
2.46507e-05

> <r_epik_State_Penalty>
0.388987

> <r_epik_Charging_Adjusted_Penalty>
0.779313

> <i_epik_Tot_Q>
1

> <i_epik_Tot_abs_Q>
1

> <r_epik_Metal_State_Penalty>
0.388988

> <b_epik_Metal_Only>
0

> <s_lp_Force_Field>
OPLS_2005

> <r_lp_Energy>
52.2824

> <b_lp_Chiralities_Consistent>
1

> <s_lp_Variant>
AV-unprocessed.smi:1499-1

> <Gold.Version>
5.8.1

> <Gold.Id.Protein>
6NUR|6NUR_protein|mol2

> <Gold.PLP.Fitness>
40.1117

> <Gold.PLP.PLP>
-28.5079

> <Gold.PLP.part.hbond>
-4.0000

> <Gold.PLP.part.metal>
0.0000

> <Gold.PLP.part.buried>
-0.6848

> <Gold.PLP.part.nonpolar>
-24.0869

> <Gold.PLP.part.repulsive>
0.2647

> <Gold.PLP.ligand.clash>
0.0000

> <Gold.PLP.ligand.torsion>
0.6115

> <Gold.PLP.Chemscore.Hbond>
3.2437

> <Gold.PLP.Chemscore.CHOScore>
1.0000

> <Gold.PLP.Chemscore.Metal>
0.0000

> <Gold.Chemscore.Hbonds>
donor molecule, donor type, donor heavy atom, donor atom, acceptor molecule, acceptor atom, score
      L1  H     3    41       P1 10186  2.00
      L1  H    16    35       P1  7948  0.41
      P1  H  7989  7998       L1    17  0.65
      L1  C    18    36       P1  7957  0.94

> <Gold.PLP.Chemscore.Internal.Correction>
0.0958

> <Gold.Rescore>
     Score         DG    S(hbond)    S(metal)    S(lipo)     H(rot)  DE(clash)    DE(int)     intcor
     11.56     -13.67       1.68        0.00      62.61       1.85       0.20       1.91       ----

> <Gold.Chemscore.Fitness>
11.5638

> <Gold.Chemscore.DG>
-13.6690

> <Gold.Chemscore.ZeroCoef>
-5.4800

> <Gold.Chemscore.Hbond>
1.6791

> <Gold.Chemscore.Metal>
0.0000

> <Gold.Chemscore.Lipo>
62.6058

> <Gold.Chemscore.Internal_Hbond>
0.0000

> <Gold.Chemscore.DEClash>
0.1974

> <Gold.Chemscore.DEInternal>
1.9078

> <Gold.Chemscore.Rot>
1.8532

> <Gold.Chemscore.Internal.Correction>
   9.000000E+99

> <Gold.Chemscore.Hbonds>
donor molecule, donor type, donor heavy atom, donor atom, acceptor molecule, acceptor atom, score
      L1  H     3    41       P1 10186  1.00
      L1  H    16    35       P1  7948  0.27
      P1  H  7989  7998       L1    17  0.06

> <Gold.Chemscore.Hbond.Weighted>
-5.6082

> <Gold.Chemscore.Metal.Weighted>
-0.0000

> <Gold.Chemscore.Lipo.Weighted>
-7.3249

> <Gold.Chemscore.Internal_Hbond.Weighted>
0.0000

> <Gold.Chemscore.DEClash.Weighted>
0.1974

> <Gold.Chemscore.DEInternal.Weighted>
1.9078

> <Gold.Chemscore.Rot.Weighted>
4.7441

> <Gold.Chemscore.Internal.Correction.Weighted>
   9.000000E+99

> <Gold.Protein.RotatedTorsions>
[ 6907 6896 6895 6894 ] final  135.31 input  -60.11 | X-H torsion
[ 7974 7965 7964 7962 ] final  112.24 input  175.53 | X-H torsion
[ 8008 7997 7996 7995 ] final -134.15 input   59.86 | X-H torsion
[ 10167 10162 10161 10158 ] final  -62.18 input  -65.29 | X-H torsion
[ 10718 10713 10712 10709 ] final  -75.98 input   66.30 | X-H torsion
[ 10763 10752 10751 10750 ] final  167.53 input  -60.55 | X-H torsion
[ 11005 11000 10999 10996 ] final   90.85 input  -57.11 | X-H torsion

> <Gold.Protein.ActiveResidues>
 VAL166  LYS551  ARG553  GLY616  TRP617  ASP618  TYR619  PRO620  LYS621  CYS622 
 ASP623  PHE694  ASN695  SER759  ASP760  ASP761  ALA762  ILE779  LEU786  VAL792 
 PHE793  MET794  SER795  GLU796  ALA797  LYS798  CYS799  TRP800  GLU811  SER814 

> <Gold.Protein.RotatedAtoms>
  152.3019  133.5664  159.5623 H   0  0  0  0  0  0  0  0  0  0  0  0  # atno 6907 bound_to 6896
  150.7281  134.0279  159.3732 H   0  0  0  0  0  0  0  0  0  0  0  0  # atno 6908 bound_to 6896
  151.8178  135.0661  160.0472 H   0  0  0  0  0  0  0  0  0  0  0  0  # atno 6909 bound_to 6896
  145.2320  139.2815  143.4163 H   0  0  0  0  0  0  0  0  0  0  0  0  # atno 7974 bound_to 7965
  155.3574  140.0481  157.3046 H   0  0  0  0  0  0  0  0  0  0  0  0  # atno 8008 bound_to 7997
  154.5196  140.2220  155.8965 H   0  0  0  0  0  0  0  0  0  0  0  0  # atno 8009 bound_to 7997
  156.1674  140.3103  155.8919 H   0  0  0  0  0  0  0  0  0  0  0  0  # atno 8010 bound_to 7997
  140.5956  143.2350  151.6043 H   0  0  0  0  0  0  0  0  0  0  0  0  # atno 10167 bound_to 10162
  156.0190  130.4454  150.3124 H   0  0  0  0  0  0  0  0  0  0  0  0  # atno 10718 bound_to 10713
  154.3552  135.2753  155.2350 H   0  0  0  0  0  0  0  0  0  0  0  0  # atno 10763 bound_to 10752
  154.4562  135.5918  153.6228 H   0  0  0  0  0  0  0  0  0  0  0  0  # atno 10764 bound_to 10752
  152.9847  135.6054  154.3767 H   0  0  0  0  0  0  0  0  0  0  0  0  # atno 10765 bound_to 10752
  139.8849  134.8638  156.3343 H   0  0  0  0  0  0  0  0  0  0  0  0  # atno 11005 bound_to 11000
  146.3350  140.2658  142.8604 LP  0  0  0  0  0  0  0  0  0  0  0  0  # atno 17320 bound_to 7965
  144.9667  140.8329  143.5480 LP  0  0  0  0  0  0  0  0  0  0  0  0  # atno 17321 bound_to 7965
  139.5256  144.3069  152.1026 LP  0  0  0  0  0  0  0  0  0  0  0  0  # atno 17342 bound_to 10162
  140.2241  144.4436  150.6329 LP  0  0  0  0  0  0  0  0  0  0  0  0  # atno 17343 bound_to 10162
  157.1225  131.0250  151.3003 LP  0  0  0  0  0  0  0  0  0  0  0  0  # atno 17370 bound_to 10713
  157.4616  130.7656  149.7241 LP  0  0  0  0  0  0  0  0  0  0  0  0  # atno 17371 bound_to 10713
  140.9701  133.7332  156.0523 LP  0  0  0  0  0  0  0  0  0  0  0  0  # atno 17394 bound_to 11000
  140.7881  134.3649  157.5471 LP  0  0  0  0  0  0  0  0  0  0  0  0  # atno 17395 bound_to 11000

$$$$
