AV-unprocessed.smi:49|AV-procd|sdf|488|dock1
  -GOLD-   2262016353D 1   1.00000     0.00000
 Structure written by MMmdl.
 26 27  0  0  0  0  0  0  0  0  2 V2000
  152.7666  141.9430  159.1308 C   0  0  0  0  0  0  0  0  0  0  0  0
  152.5003  140.5278  158.6082 C   0  0  0  0  0  0  0  0  0  0  0  0
  151.8486  140.5387  157.2429 C   0  0  0  0  0  0  0  0  0  0  0  0
  150.7397  141.1944  156.9155 N   0  0  0  0  0  0  0  0  0  0  0  0
  150.5435  140.9539  155.6114 C   0  0  0  0  0  0  0  0  0  0  0  0
  149.3995  141.5390  154.8049 C   0  0  1  0  0  0  0  0  0  0  0  0
  148.6794  140.4824  153.9577 C   0  0  0  0  0  0  0  0  0  0  0  0
  147.2753  141.0562  153.8395 C   0  0  1  0  0  0  0  0  0  0  0  0
  146.3026  140.0799  153.5325 O   0  0  0  0  0  0  0  0  0  0  0  0
  147.0671  141.6726  155.2198 C   0  0  0  0  0  0  0  0  0  0  0  0
  148.3709  142.1954  155.6216 N   0  0  0  0  0  0  0  0  0  0  0  0
  151.5261  140.1814  155.1196 N   0  0  0  0  0  0  0  0  0  0  0  0
  152.3228  139.9342  156.1396 N   0  5  0  0  0  0  0  0  0  0  0  0
  149.8213  142.2842  154.1294 H   0  0  0  0  0  0  0  0  0  0  0  0
  147.2572  141.8365  153.0773 H   0  0  0  0  0  0  0  0  0  0  0  0
  153.2352  141.9129  160.1144 H   0  0  0  0  0  0  0  0  0  0  0  0
  151.8386  142.5088  159.2187 H   0  0  0  0  0  0  0  0  0  0  0  0
  153.4301  142.4898  158.4602 H   0  0  0  0  0  0  0  0  0  0  0  0
  153.4352  139.9701  158.5477 H   0  0  0  0  0  0  0  0  0  0  0  0
  151.8559  139.9879  159.3025 H   0  0  0  0  0  0  0  0  0  0  0  0
  149.1629  140.3022  152.9973 H   0  0  0  0  0  0  0  0  0  0  0  0
  148.6411  139.5342  154.4976 H   0  0  0  0  0  0  0  0  0  0  0  0
  145.5149  140.5203  153.2525 H   0  0  0  0  0  0  0  0  0  0  0  0
  146.2989  142.4462  155.2232 H   0  0  0  0  0  0  0  0  0  0  0  0
  146.7599  140.8988  155.9248 H   0  0  0  0  0  0  0  0  0  0  0  0
  148.3958  143.1902  155.4244 H   0  0  0  0  0  0  0  0  0  0  0  0
  1  2  1  0  0  0  0
  1 16  1  0  0  0  0
  1 17  1  0  0  0  0
  1 18  1  0  0  0  0
  2  3  1  0  0  0  0
  2 19  1  0  0  0  0
  2 20  1  0  0  0  0
  3 13  1  0  0  0  0
  3  4  2  0  0  0  0
  4  5  1  0  0  0  0
  5  6  1  0  0  0  0
  5 12  2  0  0  0  0
  6 14  1  0  0  0  0
  6 11  1  0  0  0  0
  6  7  1  0  0  0  0
  7  8  1  0  0  0  0
  7 21  1  0  0  0  0
  7 22  1  0  0  0  0
  8 15  1  0  0  0  0
  8  9  1  0  0  0  0
  8 10  1  0  0  0  0
  9 23  1  0  0  0  0
 10 11  1  0  0  0  0
 10 24  1  0  0  0  0
 10 25  1  0  0  0  0
 11 26  1  0  0  0  0
 12 13  1  0  0  0  0
M  CHG  1  13  -1
M  END
> <s_m_source_file>
AV-unprocessed.smi

> <i_m_source_file_index>
49

> <i_lp_mmshare_version>
43012

> <i_f3d_flags>
0

> <s_epik_input>
W0NIM11bQ0gyXWMxbmMobltuSF0xKVtDQEBIXTJbQ0gyXVtDQEBIXShbT0hdKVtDSDJdW05IXTI=

> <s_epik_cmdline>
J2VwaWtfcHl0aG9uJywgJy1waCcsICc3LjAnLCAnLXRuJywgJzgnLCAnLW1hJywgJzIwMCcsICctbWV0YWxfYmluZGluZycsICctaW1hZScsICc8aW5maWxlLm1hZT4nLCAnLW9tYWUnLCAnPG91dGZpbGUubWFlPic=

> <r_lp_tautomer_probability>
0.948284

> <r_epik_Ionization_Penalty>
20.726

> <r_epik_Ionization_Penalty_Charging>
17.6814

> <r_epik_Ionization_Penalty_Neutral>
3.04463

> <r_epik_State_Penalty>
7.95092

> <r_epik_Charging_Adjusted_Penalty>
25.6323

> <i_epik_Tot_Q>
-1

> <i_epik_Tot_abs_Q>
1

> <r_epik_Metal_State_Penalty>
4.146

> <b_epik_Metal_Only>
1

> <s_lp_Force_Field>
OPLS_2005

> <r_lp_Energy>
18.1794

> <b_lp_Chiralities_Consistent>
1

> <s_lp_Variant>
AV-unprocessed.smi:49-26

> <Gold.Version>
5.8.1

> <Gold.Id.Protein>
6NUR|6NUR_protein|mol2

> <Gold.PLP.Fitness>
38.6567

> <Gold.PLP.PLP>
-24.0742

> <Gold.PLP.part.hbond>
-4.0000

> <Gold.PLP.part.metal>
0.0000

> <Gold.PLP.part.buried>
-1.4054

> <Gold.PLP.part.nonpolar>
-18.7076

> <Gold.PLP.part.repulsive>
0.0781

> <Gold.PLP.ligand.clash>
0.0000

> <Gold.PLP.ligand.torsion>
0.2174

> <Gold.PLP.Chemscore.Hbond>
5.0000

> <Gold.PLP.Chemscore.CHOScore>
0.0000

> <Gold.PLP.Chemscore.Metal>
0.0000

> <Gold.Chemscore.Hbonds>
donor molecule, donor type, donor heavy atom, donor atom, acceptor molecule, acceptor atom, score
      L1  H     9    23       P1 10175  1.00
      L1  H    11    26       P1  8028  1.00
      P1  H  7989  7998       L1    12  0.95
      P1  H  7997  8009       L1    13  1.98

> <Gold.PLP.Chemscore.Internal.Correction>
0.0173

> <Gold.Rescore>
     Score         DG    S(hbond)    S(metal)    S(lipo)     H(rot)  DE(clash)    DE(int)     intcor
     16.30     -16.41       3.20        0.00      42.02       1.82       0.01       0.09       ----

> <Gold.Chemscore.Fitness>
16.3013

> <Gold.Chemscore.DG>
-16.4056

> <Gold.Chemscore.ZeroCoef>
-5.4800

> <Gold.Chemscore.Hbond>
3.1960

> <Gold.Chemscore.Metal>
0.0000

> <Gold.Chemscore.Lipo>
42.0229

> <Gold.Chemscore.Internal_Hbond>
0.0000

> <Gold.Chemscore.DEClash>
0.0104

> <Gold.Chemscore.DEInternal>
0.0939

> <Gold.Chemscore.Rot>
1.8226

> <Gold.Chemscore.Internal.Correction>
   9.000000E+99

> <Gold.Chemscore.Hbonds>
donor molecule, donor type, donor heavy atom, donor atom, acceptor molecule, acceptor atom, score
      L1  H     9    23       P1 10175  0.86
      L1  H    11    26       P1  8028  0.96
      P1  H  7989  7998       L1    12  0.20
      P1  H  7997  8009       L1    13  0.51

> <Gold.Chemscore.Hbond.Weighted>
-10.6747

> <Gold.Chemscore.Metal.Weighted>
-0.0000

> <Gold.Chemscore.Lipo.Weighted>
-4.9167

> <Gold.Chemscore.Internal_Hbond.Weighted>
0.0000

> <Gold.Chemscore.DEClash.Weighted>
0.0104

> <Gold.Chemscore.DEInternal.Weighted>
0.0939

> <Gold.Chemscore.Rot.Weighted>
4.6658

> <Gold.Chemscore.Internal.Correction.Weighted>
   9.000000E+99

> <Gold.Protein.RotatedTorsions>
[ 6907 6896 6895 6894 ] final  111.78 input  -60.11 | X-H torsion
[ 7974 7965 7964 7962 ] final  -87.28 input  175.53 | X-H torsion
[ 8008 7997 7996 7995 ] final -154.51 input   59.86 | X-H torsion
[ 10167 10162 10161 10158 ] final  -53.85 input  -65.29 | X-H torsion
[ 10718 10713 10712 10709 ] final -114.52 input   66.30 | X-H torsion
[ 10763 10752 10751 10750 ] final -172.85 input  -60.55 | X-H torsion
[ 11005 11000 10999 10996 ] final   37.11 input  -57.11 | X-H torsion

> <Gold.Protein.ActiveResidues>
 VAL166  LYS551  ARG553  GLY616  TRP617  ASP618  TYR619  PRO620  LYS621  CYS622 
 ASP623  PHE694  ASN695  SER759  ASP760  ASP761  ALA762  ILE779  LEU786  VAL792 
 PHE793  MET794  SER795  GLU796  ALA797  LYS798  CYS799  TRP800  GLU811  SER814 

> <Gold.Protein.RotatedAtoms>
  152.4951  133.8609  159.7249 H   0  0  0  0  0  0  0  0  0  0  0  0  # atno 6907 bound_to 6896
  150.9121  133.6976  159.2859 H   0  0  0  0  0  0  0  0  0  0  0  0  # atno 6908 bound_to 6896
  151.4381  135.1021  159.9714 H   0  0  0  0  0  0  0  0  0  0  0  0  # atno 6909 bound_to 6896
  145.4686  140.9560  143.1929 H   0  0  0  0  0  0  0  0  0  0  0  0  # atno 7974 bound_to 7965
  155.6875  140.0751  157.2461 H   0  0  0  0  0  0  0  0  0  0  0  0  # atno 8008 bound_to 7997
  154.4094  140.1670  156.2102 H   0  0  0  0  0  0  0  0  0  0  0  0  # atno 8009 bound_to 7997
  155.9481  140.3379  155.6387 H   0  0  0  0  0  0  0  0  0  0  0  0  # atno 8010 bound_to 7997
  140.6462  143.2537  151.4851 H   0  0  0  0  0  0  0  0  0  0  0  0  # atno 10167 bound_to 10162
  156.0836  130.6031  150.8786 H   0  0  0  0  0  0  0  0  0  0  0  0  # atno 10718 bound_to 10713
  154.6146  135.2868  155.0394 H   0  0  0  0  0  0  0  0  0  0  0  0  # atno 10763 bound_to 10752
  154.1611  135.6488  153.4990 H   0  0  0  0  0  0  0  0  0  0  0  0  # atno 10764 bound_to 10752
  153.0209  135.5378  154.6913 H   0  0  0  0  0  0  0  0  0  0  0  0  # atno 10765 bound_to 10752
  140.2258  134.3586  155.7985 H   0  0  0  0  0  0  0  0  0  0  0  0  # atno 11005 bound_to 11000
  144.7959  139.6236  143.7093 LP  0  0  0  0  0  0  0  0  0  0  0  0  # atno 17320 bound_to 7965
  146.2410  139.6001  142.9491 LP  0  0  0  0  0  0  0  0  0  0  0  0  # atno 17321 bound_to 7965
  139.5673  144.2011  152.1785 LP  0  0  0  0  0  0  0  0  0  0  0  0  # atno 17342 bound_to 10162
  140.1297  144.5300  150.6810 LP  0  0  0  0  0  0  0  0  0  0  0  0  # atno 17343 bound_to 10162
  157.5962  131.0943  150.9037 LP  0  0  0  0  0  0  0  0  0  0  0  0  # atno 17370 bound_to 10713
  156.9204  130.5313  149.5279 LP  0  0  0  0  0  0  0  0  0  0  0  0  # atno 17371 bound_to 10713
  141.2220  133.7218  156.8651 LP  0  0  0  0  0  0  0  0  0  0  0  0  # atno 17394 bound_to 11000
  140.1801  134.9039  157.2938 LP  0  0  0  0  0  0  0  0  0  0  0  0  # atno 17395 bound_to 11000

$$$$
