AV-unprocessed.smi:2448|AV-procd|sdf|9653|dock6
  -GOLD-   2272013283D 1   1.00000     0.00000
 Structure written by MMmdl.
 37 38  0  0  0  0  0  0  0  0  1 V2000
  145.1123  133.4755  153.9528 O   0  0  0  0  0  0  0  0  0  0  0  0
  146.2894  133.9424  153.3180 C   0  0  1  0  0  0  0  0  0  0  0  0
  147.3352  134.2325  154.4136 C   0  0  0  0  0  0  0  0  0  0  0  0
  148.7020  134.1990  153.8905 N   0  0  0  0  0  0  0  0  0  0  0  0
  149.7741  134.5406  154.8379 C   0  0  1  0  0  0  0  0  0  0  0  0
  149.4284  135.7586  155.7351 C   0  0  0  0  0  0  0  0  0  0  0  0
  150.0812  137.0701  155.3268 C   0  0  0  0  0  0  0  0  0  0  0  0
  149.3461  138.0566  154.6356 C   0  0  0  0  0  0  0  0  0  0  0  0
  149.9946  139.2571  154.2834 C   0  0  0  0  0  0  0  0  0  0  0  0
  151.2859  139.5171  154.5798 N   0  0  0  0  0  0  0  0  0  0  0  0
  151.9811  138.5745  155.2514 C   0  0  0  0  0  0  0  0  0  0  0  0
  151.4281  137.3409  155.6489 C   0  0  0  0  0  0  0  0  0  0  0  0
  150.1180  133.3010  155.6908 C   0  0  0  0  0  0  0  0  0  0  0  0
  149.1276  133.0512  156.5486 F   0  0  0  0  0  0  0  0  0  0  0  0
  150.2685  132.2297  154.9117 F   0  0  0  0  0  0  0  0  0  0  0  0
  151.2435  133.4990  156.3782 F   0  0  0  0  0  0  0  0  0  0  0  0
  146.7504  132.9245  152.2590 C   0  0  0  0  0  0  0  0  0  0  0  0
  145.7795  133.0048  151.0767 C   0  0  0  0  0  0  0  0  0  0  0  0
  145.2264  134.7223  150.9345 S   0  0  0  0  0  0  0  0  0  0  0  0
  145.9239  135.2147  152.5340 C   0  0  0  0  0  0  0  0  0  0  0  0
  144.9317  134.0352  154.6925 H   0  0  0  0  0  0  0  0  0  0  0  0
  147.1390  135.2168  154.8408 H   0  0  0  0  0  0  0  0  0  0  0  0
  147.2106  133.5119  155.2191 H   0  0  0  0  0  0  0  0  0  0  0  0
  148.7674  134.8088  153.0814 H   0  0  0  0  0  0  0  0  0  0  0  0
  150.6785  134.7690  154.2733 H   0  0  0  0  0  0  0  0  0  0  0  0
  148.3462  135.8814  155.7951 H   0  0  0  0  0  0  0  0  0  0  0  0
  149.7575  135.5675  156.7566 H   0  0  0  0  0  0  0  0  0  0  0  0
  148.3102  137.8985  154.3734 H   0  0  0  0  0  0  0  0  0  0  0  0
  149.4608  140.0294  153.7493 H   0  0  0  0  0  0  0  0  0  0  0  0
  153.0098  138.8106  155.4808 H   0  0  0  0  0  0  0  0  0  0  0  0
  152.0275  136.6236  156.1899 H   0  0  0  0  0  0  0  0  0  0  0  0
  147.7500  133.1929  151.9138 H   0  0  0  0  0  0  0  0  0  0  0  0
  146.8127  131.9095  152.6535 H   0  0  0  0  0  0  0  0  0  0  0  0
  146.2343  132.6613  150.1476 H   0  0  0  0  0  0  0  0  0  0  0  0
  144.9053  132.3817  151.2679 H   0  0  0  0  0  0  0  0  0  0  0  0
  145.2393  135.8660  153.0787 H   0  0  0  0  0  0  0  0  0  0  0  0
  146.8222  135.7961  152.3234 H   0  0  0  0  0  0  0  0  0  0  0  0
  1  2  1  0  0  0  0
  1 21  1  0  0  0  0
  2 20  1  0  0  0  0
  2  3  1  0  0  0  0
  2 17  1  0  0  0  0
  3  4  1  0  0  0  0
  3 22  1  0  0  0  0
  3 23  1  0  0  0  0
  4  5  1  0  0  0  0
  4 24  1  0  0  0  0
  5  6  1  0  0  0  0
  5 13  1  0  0  0  0
  5 25  1  0  0  0  0
  6  7  1  0  0  0  0
  6 26  1  0  0  0  0
  6 27  1  0  0  0  0
  7 12  1  0  0  0  0
  7  8  2  0  0  0  0
  8  9  1  0  0  0  0
  8 28  1  0  0  0  0
  9 10  2  0  0  0  0
  9 29  1  0  0  0  0
 10 11  1  0  0  0  0
 11 12  2  0  0  0  0
 11 30  1  0  0  0  0
 12 31  1  0  0  0  0
 13 14  1  0  0  0  0
 13 15  1  0  0  0  0
 13 16  1  0  0  0  0
 17 18  1  0  0  0  0
 17 32  1  0  0  0  0
 17 33  1  0  0  0  0
 18 19  1  0  0  0  0
 18 34  1  0  0  0  0
 18 35  1  0  0  0  0
 19 20  1  0  0  0  0
 20 36  1  0  0  0  0
 20 37  1  0  0  0  0
M  END
> <s_m_source_file>
AV-unprocessed.smi

> <i_m_source_file_index>
2448

> <i_lp_mmshare_version>
43012

> <i_f3d_flags>
0

> <s_epik_input>
W0NIMl0xU1tDSDJdW0NIMl1bQ0BAXTEoW09IXSlbQ0gyXVtOSF1bQ0BASF0oQyhGKShGKUYpW0NIMl1jMltjSF1bY0hdbltjSF1bY0hdMg==

> <s_epik_cmdline>
J2VwaWtfcHl0aG9uJywgJy1waCcsICc3LjAnLCAnLXRuJywgJzgnLCAnLW1hJywgJzIwMCcsICctbWV0YWxfYmluZGluZycsICctaW1hZScsICc8aW5maWxlLm1hZT4nLCAnLW9tYWUnLCAnPG91dGZpbGUubWFlPic=

> <r_epik_Ionization_Penalty>
0.187708

> <r_epik_Ionization_Penalty_Charging>
0

> <r_epik_Ionization_Penalty_Neutral>
0.187708

> <r_epik_State_Penalty>
0.22769

> <r_epik_Charging_Adjusted_Penalty>
0.22769

> <i_epik_Tot_Q>
0

> <i_epik_Tot_abs_Q>
0

> <r_epik_Metal_State_Penalty>
0.176206

> <b_epik_Metal_Only>
0

> <s_lp_Force_Field>
OPLS_2005

> <r_lp_Energy>
32.0446

> <b_lp_Chiralities_Consistent>
1

> <s_lp_Variant>
AV-unprocessed.smi:2448-3

> <Gold.Version>
5.8.1

> <Gold.Id.Protein>
6NUR|6NUR_protein|mol2

> <Gold.PLP.Fitness>
37.3376

> <Gold.PLP.PLP>
-31.7749

> <Gold.PLP.part.hbond>
-2.5712

> <Gold.PLP.part.metal>
0.0000

> <Gold.PLP.part.buried>
-3.1161

> <Gold.PLP.part.nonpolar>
-25.4320

> <Gold.PLP.part.repulsive>
0.0976

> <Gold.PLP.ligand.clash>
0.0000

> <Gold.PLP.ligand.torsion>
1.5919

> <Gold.PLP.Chemscore.Hbond>
2.0000

> <Gold.PLP.Chemscore.CHOScore>
0.7576

> <Gold.PLP.Chemscore.Metal>
0.0000

> <Gold.Chemscore.Hbonds>
donor molecule, donor type, donor heavy atom, donor atom, acceptor molecule, acceptor atom, score
      L1  H     4    24       P1  7948  1.00
      P1  H  7989  7998       L1    10  1.00
      L1  C     9    29       P1  7957  0.64

> <Gold.PLP.Chemscore.Internal.Correction>
0.4736

> <Gold.Rescore>
     Score         DG    S(hbond)    S(metal)    S(lipo)     H(rot)  DE(clash)    DE(int)     intcor
     11.53     -13.00       1.69        0.00      66.61       2.31       0.04       1.44       ----

> <Gold.Chemscore.Fitness>
11.5300

> <Gold.Chemscore.DG>
-13.0047

> <Gold.Chemscore.ZeroCoef>
-5.4800

> <Gold.Chemscore.Hbond>
1.6910

> <Gold.Chemscore.Metal>
0.0000

> <Gold.Chemscore.Lipo>
66.6084

> <Gold.Chemscore.Internal_Hbond>
0.0000

> <Gold.Chemscore.DEClash>
0.0393

> <Gold.Chemscore.DEInternal>
1.4354

> <Gold.Chemscore.Rot>
2.3111

> <Gold.Chemscore.Internal.Correction>
   9.000000E+99

> <Gold.Chemscore.Hbonds>
donor molecule, donor type, donor heavy atom, donor atom, acceptor molecule, acceptor atom, score
      L1  H     4    24       P1  7948  0.26
      P1  H  7989  7998       L1    10  0.35

> <Gold.Chemscore.Hbond.Weighted>
-5.6478

> <Gold.Chemscore.Metal.Weighted>
-0.0000

> <Gold.Chemscore.Lipo.Weighted>
-7.7932

> <Gold.Chemscore.Internal_Hbond.Weighted>
0.0000

> <Gold.Chemscore.DEClash.Weighted>
0.0393

> <Gold.Chemscore.DEInternal.Weighted>
1.4354

> <Gold.Chemscore.Rot.Weighted>
5.9164

> <Gold.Chemscore.Internal.Correction.Weighted>
   9.000000E+99

> <Gold.Protein.RotatedTorsions>
[ 6907 6896 6895 6894 ] final  -16.26 input  -60.11 | X-H torsion
[ 7974 7965 7964 7962 ] final  -85.26 input  175.53 | X-H torsion
[ 8008 7997 7996 7995 ] final  130.70 input   59.86 | X-H torsion
[ 10167 10162 10161 10158 ] final -156.31 input  -65.29 | X-H torsion
[ 10718 10713 10712 10709 ] final  171.63 input   66.30 | X-H torsion
[ 10763 10752 10751 10750 ] final  -84.23 input  -60.55 | X-H torsion
[ 11005 11000 10999 10996 ] final  -91.92 input  -57.11 | X-H torsion

> <Gold.Protein.ActiveResidues>
 VAL166  LYS551  ARG553  GLY616  TRP617  ASP618  TYR619  PRO620  LYS621  CYS622 
 ASP623  PHE694  ASN695  SER759  ASP760  ASP761  ALA762  ILE779  LEU786  VAL792 
 PHE793  MET794  SER795  GLU796  ALA797  LYS798  CYS799  TRP800  GLU811  SER814 

> <Gold.Protein.RotatedAtoms>
  151.3113  135.0795  159.9273 H   0  0  0  0  0  0  0  0  0  0  0  0  # atno 6907 bound_to 6896
  152.5277  133.9733  159.7782 H   0  0  0  0  0  0  0  0  0  0  0  0  # atno 6908 bound_to 6896
  151.0037  133.5980  159.2722 H   0  0  0  0  0  0  0  0  0  0  0  0  # atno 6909 bound_to 6896
  145.4956  140.9550  143.1788 H   0  0  0  0  0  0  0  0  0  0  0  0  # atno 7974 bound_to 7965
  156.2959  140.2589  156.2805 H   0  0  0  0  0  0  0  0  0  0  0  0  # atno 8008 bound_to 7997
  154.9606  140.0392  157.2207 H   0  0  0  0  0  0  0  0  0  0  0  0  # atno 8009 bound_to 7997
  154.7950  140.2818  155.5968 H   0  0  0  0  0  0  0  0  0  0  0  0  # atno 8010 bound_to 7997
  139.6860  143.9500  152.2361 H   0  0  0  0  0  0  0  0  0  0  0  0  # atno 10167 bound_to 10162
  156.9907  131.0147  151.2857 H   0  0  0  0  0  0  0  0  0  0  0  0  # atno 10718 bound_to 10713
  154.5970  135.5528  153.7336 H   0  0  0  0  0  0  0  0  0  0  0  0  # atno 10763 bound_to 10752
  153.0139  135.6357  154.1768 H   0  0  0  0  0  0  0  0  0  0  0  0  # atno 10764 bound_to 10752
  154.1708  135.2892  155.3061 H   0  0  0  0  0  0  0  0  0  0  0  0  # atno 10765 bound_to 10752
  141.1534  133.7787  156.9947 H   0  0  0  0  0  0  0  0  0  0  0  0  # atno 11005 bound_to 11000
  144.7809  139.6529  143.7155 LP  0  0  0  0  0  0  0  0  0  0  0  0  # atno 17320 bound_to 7965
  146.2257  139.5718  142.9589 LP  0  0  0  0  0  0  0  0  0  0  0  0  # atno 17321 bound_to 7965
  139.9303  144.6745  150.8370 LP  0  0  0  0  0  0  0  0  0  0  0  0  # atno 17342 bound_to 10162
  140.7668  143.3313  151.2404 LP  0  0  0  0  0  0  0  0  0  0  0  0  # atno 17343 bound_to 10162
  157.5461  130.8151  149.8087 LP  0  0  0  0  0  0  0  0  0  0  0  0  # atno 17370 bound_to 10713
  156.0208  130.3796  150.1968 LP  0  0  0  0  0  0  0  0  0  0  0  0  # atno 17371 bound_to 10713
  140.0979  134.9553  157.1878 LP  0  0  0  0  0  0  0  0  0  0  0  0  # atno 17394 bound_to 11000
  140.3357  134.2760  155.7220 LP  0  0  0  0  0  0  0  0  0  0  0  0  # atno 17395 bound_to 11000

$$$$
