AV-unprocessed.smi:3160|AV-procd|sdf|12052|dock2
  -GOLD-   2272017483D 1   1.00000     0.00000
 Structure written by MMmdl.
 40 41  0  0  0  0  0  0  0  0  2 V2000
  151.2199  136.4091  156.2476 C   0  0  0  0  0  0  0  0  0  0  0  0
  150.9986  137.7792  155.6741 C   0  0  0  0  0  0  0  0  0  0  0  0
  150.8811  138.1446  154.3035 C   0  0  0  0  0  0  0  0  0  0  0  0
  150.6865  139.4417  154.1333 N   0  0  0  0  0  0  0  0  0  0  0  0
  150.6739  139.9524  155.3847 N   0  0  0  0  0  0  0  0  0  0  0  0
  150.4675  141.3812  155.5946 C   0  0  1  0  0  0  0  0  0  0  0  0
  149.1159  141.8076  154.9905 C   0  0  0  0  0  0  0  0  0  0  0  0
  150.6169  141.7588  157.0931 C   0  0  2  0  0  0  0  0  0  0  0  0
  149.3505  141.4648  157.9146 C   0  0  0  0  0  0  0  0  0  0  0  0
  150.9478  143.1977  157.2260 N   0  3  0  0  0  0  0  0  0  0  0  0
  150.9756  143.7182  158.6096 C   0  0  0  0  0  0  0  0  0  0  0  0
  151.3492  145.2003  158.6952 C   0  0  0  0  0  0  0  0  0  0  0  0
  151.8533  145.3917  160.1308 C   0  0  0  0  0  0  0  0  0  0  0  0
  152.2745  143.9995  160.6303 C   0  0  0  0  0  0  0  0  0  0  0  0
  152.0491  143.0391  159.4582 C   0  0  0  0  0  0  0  0  0  0  0  0
  150.8648  138.9685  156.3330 C   0  0  0  0  0  0  0  0  0  0  0  0
  151.2522  135.6443  155.4712 H   0  0  0  0  0  0  0  0  0  0  0  0
  150.4256  136.1295  156.9399 H   0  0  0  0  0  0  0  0  0  0  0  0
  152.1610  136.3497  156.7946 H   0  0  0  0  0  0  0  0  0  0  0  0
  150.9293  137.5085  153.4318 H   0  0  0  0  0  0  0  0  0  0  0  0
  151.2496  141.8974  155.0353 H   0  0  0  0  0  0  0  0  0  0  0  0
  149.0089  142.8917  154.9683 H   0  0  0  0  0  0  0  0  0  0  0  0
  148.2771  141.4008  155.5563 H   0  0  0  0  0  0  0  0  0  0  0  0
  149.0209  141.4590  153.9617 H   0  0  0  0  0  0  0  0  0  0  0  0
  151.4265  141.1629  157.5177 H   0  0  0  0  0  0  0  0  0  0  0  0
  149.1271  140.3987  157.9437 H   0  0  0  0  0  0  0  0  0  0  0  0
  148.4805  141.9788  157.5045 H   0  0  0  0  0  0  0  0  0  0  0  0
  149.4709  141.7895  158.9486 H   0  0  0  0  0  0  0  0  0  0  0  0
  151.8680  143.3326  156.8321 H   0  0  0  0  0  0  0  0  0  0  0  0
  150.0057  143.5552  159.0828 H   0  0  0  0  0  0  0  0  0  0  0  0
  152.1567  145.4231  157.9961 H   0  0  0  0  0  0  0  0  0  0  0  0
  150.5146  145.8608  158.4576 H   0  0  0  0  0  0  0  0  0  0  0  0
  152.6786  146.1038  160.1676 H   0  0  0  0  0  0  0  0  0  0  0  0
  151.0559  145.7854  160.7626 H   0  0  0  0  0  0  0  0  0  0  0  0
  153.3110  143.9805  160.9687 H   0  0  0  0  0  0  0  0  0  0  0  0
  151.6507  143.7089  161.4765 H   0  0  0  0  0  0  0  0  0  0  0  0
  151.7574  142.0403  159.7853 H   0  0  0  0  0  0  0  0  0  0  0  0
  152.9739  142.9443  158.8864 H   0  0  0  0  0  0  0  0  0  0  0  0
  150.8858  139.1920  157.3895 H   0  0  0  0  0  0  0  0  0  0  0  0
  150.2878  143.7388  156.6863 H   0  0  0  0  0  0  0  0  0  0  0  0
  1  2  1  0  0  0  0
  1 17  1  0  0  0  0
  1 18  1  0  0  0  0
  1 19  1  0  0  0  0
  2 16  2  0  0  0  0
  2  3  1  0  0  0  0
  3  4  2  0  0  0  0
  3 20  1  0  0  0  0
  4  5  1  0  0  0  0
  5  6  1  0  0  0  0
  5 16  1  0  0  0  0
  6  7  1  0  0  0  0
  6  8  1  0  0  0  0
  6 21  1  0  0  0  0
  7 22  1  0  0  0  0
  7 23  1  0  0  0  0
  7 24  1  0  0  0  0
  8  9  1  0  0  0  0
  8 10  1  0  0  0  0
  8 25  1  0  0  0  0
  9 26  1  0  0  0  0
  9 27  1  0  0  0  0
  9 28  1  0  0  0  0
 10 11  1  0  0  0  0
 10 29  1  0  0  0  0
 10 40  1  0  0  0  0
 11 15  1  0  0  0  0
 11 12  1  0  0  0  0
 11 30  1  0  0  0  0
 12 13  1  0  0  0  0
 12 31  1  0  0  0  0
 12 32  1  0  0  0  0
 13 14  1  0  0  0  0
 13 33  1  0  0  0  0
 13 34  1  0  0  0  0
 14 15  1  0  0  0  0
 14 35  1  0  0  0  0
 14 36  1  0  0  0  0
 15 37  1  0  0  0  0
 15 38  1  0  0  0  0
 16 39  1  0  0  0  0
M  CHG  1  10   1
M  END
> <s_m_source_file>
AV-unprocessed.smi

> <i_m_source_file_index>
3160

> <i_lp_mmshare_version>
43012

> <i_f3d_flags>
0

> <s_epik_input>
W0NIM11jMVtjSF1ubihbY0hdMSlbQ0BIXShbQ0gzXSlbQ0BIXShbQ0gzXSlbTkhdW0NIXTJbQ0gyXVtDSDJdW0NIMl1bQ0gyXTI=

> <s_epik_cmdline>
J2VwaWtfcHl0aG9uJywgJy1waCcsICc3LjAnLCAnLXRuJywgJzgnLCAnLW1hJywgJzIwMCcsICctbWV0YWxfYmluZGluZycsICctaW1hZScsICc8aW5maWxlLm1hZT4nLCAnLW9tYWUnLCAnPG91dGZpbGUubWFlPic=

> <r_lp_tautomer_probability>
1

> <r_epik_Ionization_Penalty>
0.00117636

> <r_epik_Ionization_Penalty_Charging>
0.00115264

> <r_epik_Ionization_Penalty_Neutral>
2.37123e-05

> <r_epik_State_Penalty>
-0

> <r_epik_Charging_Adjusted_Penalty>
0.00115264

> <i_epik_Tot_Q>
1

> <i_epik_Tot_abs_Q>
1

> <r_epik_Metal_State_Penalty>
-0

> <b_epik_Metal_Only>
0

> <s_lp_Force_Field>
OPLS_2005

> <r_lp_Energy>
30.6153

> <b_lp_Chiralities_Consistent>
1

> <s_lp_Variant>
AV-unprocessed.smi:3160-2

> <Gold.Version>
5.8.1

> <Gold.Id.Protein>
6NUR|6NUR_protein|mol2

> <Gold.PLP.Fitness>
46.6059

> <Gold.PLP.PLP>
-36.0778

> <Gold.PLP.part.hbond>
-2.0000

> <Gold.PLP.part.metal>
0.0000

> <Gold.PLP.part.buried>
-2.3380

> <Gold.PLP.part.nonpolar>
-30.7529

> <Gold.PLP.part.repulsive>
0.1887

> <Gold.PLP.ligand.clash>
0.0000

> <Gold.PLP.ligand.torsion>
0.4316

> <Gold.PLP.Chemscore.Hbond>
2.6500

> <Gold.PLP.Chemscore.CHOScore>
1.1235

> <Gold.PLP.Chemscore.Metal>
0.0000

> <Gold.Chemscore.Hbonds>
donor molecule, donor type, donor heavy atom, donor atom, acceptor molecule, acceptor atom, score
      L1  H    10    40       P1  8028  2.00
      P1  H  7989  7998       L1     4  0.65
      L1  C     3    20       P1  7948  0.13
      L1  C     3    20       P1  7949  1.00

> <Gold.PLP.Chemscore.Internal.Correction>
0.0706

> <Gold.Rescore>
     Score         DG    S(hbond)    S(metal)    S(lipo)     H(rot)  DE(clash)    DE(int)     intcor
     17.47     -17.98       1.11        0.00     104.99       1.37       0.11       0.40       ----

> <Gold.Chemscore.Fitness>
17.4750

> <Gold.Chemscore.DG>
-17.9776

> <Gold.Chemscore.ZeroCoef>
-5.4800

> <Gold.Chemscore.Hbond>
1.1147

> <Gold.Chemscore.Metal>
0.0000

> <Gold.Chemscore.Lipo>
104.9920

> <Gold.Chemscore.Internal_Hbond>
0.0000

> <Gold.Chemscore.DEClash>
0.1050

> <Gold.Chemscore.DEInternal>
0.3976

> <Gold.Chemscore.Rot>
1.3709

> <Gold.Chemscore.Internal.Correction>
   9.000000E+99

> <Gold.Chemscore.Hbonds>
donor molecule, donor type, donor heavy atom, donor atom, acceptor molecule, acceptor atom, score
      L1  H    10    40       P1  8028  0.97
      P1  H  7989  7998       L1     4  0.06

> <Gold.Chemscore.Hbond.Weighted>
-3.7230

> <Gold.Chemscore.Metal.Weighted>
-0.0000

> <Gold.Chemscore.Lipo.Weighted>
-12.2841

> <Gold.Chemscore.Internal_Hbond.Weighted>
0.0000

> <Gold.Chemscore.DEClash.Weighted>
0.1050

> <Gold.Chemscore.DEInternal.Weighted>
0.3976

> <Gold.Chemscore.Rot.Weighted>
3.5095

> <Gold.Chemscore.Internal.Correction.Weighted>
   9.000000E+99

> <Gold.Protein.RotatedTorsions>
[ 6907 6896 6895 6894 ] final  -53.55 input  -60.11 | X-H torsion
[ 7974 7965 7964 7962 ] final   -2.39 input  175.53 | X-H torsion
[ 8008 7997 7996 7995 ] final  169.99 input   59.86 | X-H torsion
[ 10167 10162 10161 10158 ] final   23.74 input  -65.29 | X-H torsion
[ 10718 10713 10712 10709 ] final  103.12 input   66.30 | X-H torsion
[ 10763 10752 10751 10750 ] final  -87.18 input  -60.55 | X-H torsion
[ 11005 11000 10999 10996 ] final  -16.30 input  -57.11 | X-H torsion

> <Gold.Protein.ActiveResidues>
 VAL166  LYS551  ARG553  GLY616  TRP617  ASP618  TYR619  PRO620  LYS621  CYS622 
 ASP623  PHE694  ASN695  SER759  ASP760  ASP761  ALA762  ILE779  LEU786  VAL792 
 PHE793  MET794  SER795  GLU796  ALA797  LYS798  CYS799  TRP800  GLU811  SER814 

> <Gold.Protein.RotatedAtoms>
  150.8416  134.7710  159.6936 H   0  0  0  0  0  0  0  0  0  0  0  0  # atno 6907 bound_to 6896
  152.4502  134.5406  159.9847 H   0  0  0  0  0  0  0  0  0  0  0  0  # atno 6908 bound_to 6896
  151.5544  133.3374  159.2995 H   0  0  0  0  0  0  0  0  0  0  0  0  # atno 6909 bound_to 6896
  146.2405  140.1564  142.8333 H   0  0  0  0  0  0  0  0  0  0  0  0  # atno 7974 bound_to 7965
  156.1406  140.1549  156.8926 H   0  0  0  0  0  0  0  0  0  0  0  0  # atno 8008 bound_to 7997
  154.4984  140.0832  156.7785 H   0  0  0  0  0  0  0  0  0  0  0  0  # atno 8009 bound_to 7997
  155.4085  140.3417  155.4264 H   0  0  0  0  0  0  0  0  0  0  0  0  # atno 8010 bound_to 7997
  140.5245  143.9947  150.6433 H   0  0  0  0  0  0  0  0  0  0  0  0  # atno 10167 bound_to 10162
  157.6782  131.0771  150.5507 H   0  0  0  0  0  0  0  0  0  0  0  0  # atno 10718 bound_to 10713
  154.6307  135.5422  153.7677 H   0  0  0  0  0  0  0  0  0  0  0  0  # atno 10763 bound_to 10752
  153.0283  135.6435  154.1305 H   0  0  0  0  0  0  0  0  0  0  0  0  # atno 10764 bound_to 10752
  154.1235  135.2919  155.3182 H   0  0  0  0  0  0  0  0  0  0  0  0  # atno 10765 bound_to 10752
  140.8054  133.8182  155.9511 H   0  0  0  0  0  0  0  0  0  0  0  0  # atno 11005 bound_to 11000
  145.0125  140.8726  143.5215 LP  0  0  0  0  0  0  0  0  0  0  0  0  # atno 17320 bound_to 7965
  145.1600  139.2464  143.5397 LP  0  0  0  0  0  0  0  0  0  0  0  0  # atno 17321 bound_to 7965
  140.3305  143.3081  152.0692 LP  0  0  0  0  0  0  0  0  0  0  0  0  # atno 17342 bound_to 10162
  139.4934  144.6512  151.6670 LP  0  0  0  0  0  0  0  0  0  0  0  0  # atno 17343 bound_to 10162
  156.5812  130.4305  149.5976 LP  0  0  0  0  0  0  0  0  0  0  0  0  # atno 17370 bound_to 10713
  156.2660  130.6989  151.1773 LP  0  0  0  0  0  0  0  0  0  0  0  0  # atno 17371 bound_to 10713
  140.9252  134.2091  157.4900 LP  0  0  0  0  0  0  0  0  0  0  0  0  # atno 17394 bound_to 11000
  139.8718  134.9809  156.5096 LP  0  0  0  0  0  0  0  0  0  0  0  0  # atno 17395 bound_to 11000

$$$$
