AV-unprocessed.smi:561|AV-procd|sdf|2938|dock9
  -GOLD-   2262023433D 1   1.00000     0.00000
 Structure written by MMmdl.
 36 37  0  0  0  0  0  0  0  0  1 V2000
  146.0429  133.8129  153.6779 C   0  0  0  0  0  0  0  0  0  0  0  0
  145.7417  135.0730  152.8561 C   0  0  2  0  0  0  0  0  0  0  0  0
  145.8034  134.7864  151.3414 C   0  0  0  0  0  0  0  0  0  0  0  0
  145.2161  133.5063  150.9900 N   0  0  0  0  0  0  0  0  0  0  0  0
  143.8686  133.2261  150.8022 C   0  0  0  0  0  0  0  0  0  0  0  0
  143.7851  131.8873  150.4937 C   0  0  0  0  0  0  0  0  0  0  0  0
  145.0611  131.3288  150.4801 N   0  0  0  0  0  0  0  0  0  0  0  0
  145.8560  132.3475  150.7814 C   0  0  0  0  0  0  0  0  0  0  0  0
  146.6961  136.1191  153.2209 N   0  0  0  0  0  0  0  0  0  0  0  0
  146.4111  137.2428  153.9057 C   0  0  0  0  0  0  0  0  0  0  0  0
  145.2889  137.4975  154.3437 O   0  0  0  0  0  0  0  0  0  0  0  0
  147.5398  138.1918  154.0947 C   0  0  0  0  0  0  0  0  0  0  0  0
  148.7227  137.7446  154.3805 N   0  0  0  0  0  0  0  0  0  0  0  0
  149.8037  138.5864  154.5448 N   0  0  0  0  0  0  0  0  0  0  0  0
  151.1022  137.9166  154.5857 C   0  0  0  0  0  0  0  0  0  0  0  0
  149.7184  139.9326  154.6866 C   0  0  0  0  0  0  0  0  0  0  0  0
  150.6953  140.6706  154.8149 O   0  0  0  0  0  0  0  0  0  0  0  0
  148.3076  140.5276  154.7142 C   0  0  0  0  0  0  0  0  0  0  0  0
  147.3005  139.6776  153.9145 C   0  0  0  0  0  0  0  0  0  0  0  0
  145.3349  133.0162  153.4475 H   0  0  0  0  0  0  0  0  0  0  0  0
  145.9728  134.0152  154.7472 H   0  0  0  0  0  0  0  0  0  0  0  0
  147.0458  133.4355  153.4747 H   0  0  0  0  0  0  0  0  0  0  0  0
  144.7275  135.3871  153.1094 H   0  0  0  0  0  0  0  0  0  0  0  0
  145.2936  135.5716  150.7813 H   0  0  0  0  0  0  0  0  0  0  0  0
  146.8401  134.7837  151.0019 H   0  0  0  0  0  0  0  0  0  0  0  0
  143.1021  133.9797  150.9076 H   0  0  0  0  0  0  0  0  0  0  0  0
  142.9119  131.2882  150.2818 H   0  0  0  0  0  0  0  0  0  0  0  0
  146.9288  132.2473  150.8585 H   0  0  0  0  0  0  0  0  0  0  0  0
  147.6464  135.9961  152.9017 H   0  0  0  0  0  0  0  0  0  0  0  0
  151.6137  138.1235  155.5270 H   0  0  0  0  0  0  0  0  0  0  0  0
  151.7369  138.2633  153.7689 H   0  0  0  0  0  0  0  0  0  0  0  0
  151.0081  136.8332  154.4931 H   0  0  0  0  0  0  0  0  0  0  0  0
  147.9954  140.5809  155.7579 H   0  0  0  0  0  0  0  0  0  0  0  0
  148.3233  141.5510  154.3381 H   0  0  0  0  0  0  0  0  0  0  0  0
  147.3636  139.9253  152.8543 H   0  0  0  0  0  0  0  0  0  0  0  0
  146.2927  139.9468  154.2336 H   0  0  0  0  0  0  0  0  0  0  0  0
  1  2  1  0  0  0  0
  1 20  1  0  0  0  0
  1 21  1  0  0  0  0
  1 22  1  0  0  0  0
  2  3  1  0  0  0  0
  2  9  1  0  0  0  0
  2 23  1  0  0  0  0
  3  4  1  0  0  0  0
  3 24  1  0  0  0  0
  3 25  1  0  0  0  0
  4  8  1  0  0  0  0
  4  5  1  0  0  0  0
  5  6  2  0  0  0  0
  5 26  1  0  0  0  0
  6  7  1  0  0  0  0
  6 27  1  0  0  0  0
  7  8  2  0  0  0  0
  8 28  1  0  0  0  0
  9 10  1  0  0  0  0
  9 29  1  0  0  0  0
 10 11  2  0  0  0  0
 10 12  1  0  0  0  0
 12 19  1  0  0  0  0
 12 13  2  0  0  0  0
 13 14  1  0  0  0  0
 14 15  1  0  0  0  0
 14 16  1  0  0  0  0
 15 30  1  0  0  0  0
 15 31  1  0  0  0  0
 15 32  1  0  0  0  0
 16 17  2  0  0  0  0
 16 18  1  0  0  0  0
 18 19  1  0  0  0  0
 18 33  1  0  0  0  0
 18 34  1  0  0  0  0
 19 35  1  0  0  0  0
 19 36  1  0  0  0  0
M  END
> <s_m_source_file>
AV-unprocessed.smi

> <i_m_source_file_index>
561

> <i_lp_mmshare_version>
43012

> <i_f3d_flags>
0

> <s_epik_input>
W2NIXTFuW2NIXVtjSF1uMVtDSDJdW0NAQEhdKFtDSDNdKVtOSF1DKD1PKUMyPU5OKFtDSDNdKUMoPU8pW0NIMl1bQ0gyXTI=

> <s_epik_cmdline>
J2VwaWtfcHl0aG9uJywgJy1waCcsICc3LjAnLCAnLXRuJywgJzgnLCAnLW1hJywgJzIwMCcsICctbWV0YWxfYmluZGluZycsICctaW1hZScsICc8aW5maWxlLm1hZT4nLCAnLW9tYWUnLCAnPG91dGZpbGUubWFlPic=

> <r_lp_tautomer_probability>
1

> <r_epik_Ionization_Penalty>
0.46798

> <r_epik_Ionization_Penalty_Charging>
0.467902

> <r_epik_Ionization_Penalty_Neutral>
7.78263e-05

> <r_epik_State_Penalty>
0.47192

> <r_epik_Charging_Adjusted_Penalty>
0.939822

> <i_epik_Tot_Q>
0

> <i_epik_Tot_abs_Q>
0

> <r_epik_Metal_State_Penalty>
0.280825

> <b_epik_Metal_Only>
0

> <s_epik_Chemistry_Notes>
This compound has an imine and may undergo hydrolysis.

> <s_lp_Force_Field>
OPLS_2005

> <r_lp_Energy>
18.1828

> <b_lp_Chiralities_Consistent>
1

> <s_lp_Variant>
AV-unprocessed.smi:561-3

> <Gold.Version>
5.8.1

> <Gold.Id.Protein>
6NUR|6NUR_protein|mol2

> <Gold.PLP.Fitness>
39.6261

> <Gold.PLP.PLP>
-27.2731

> <Gold.PLP.part.hbond>
-1.9958

> <Gold.PLP.part.metal>
0.0000

> <Gold.PLP.part.buried>
-4.9320

> <Gold.PLP.part.nonpolar>
-23.0007

> <Gold.PLP.part.repulsive>
1.6582

> <Gold.PLP.ligand.clash>
0.0000

> <Gold.PLP.ligand.torsion>
1.2142

> <Gold.PLP.Chemscore.Hbond>
1.9280

> <Gold.PLP.Chemscore.CHOScore>
2.9952

> <Gold.PLP.Chemscore.Metal>
0.0000

> <Gold.Chemscore.Hbonds>
donor molecule, donor type, donor heavy atom, donor atom, acceptor molecule, acceptor atom, score
      L1  H     9    29       P1  7948  1.00
      P1  H  7989  7998       L1    17  0.93
      L1  C     5    26       P1 10186  1.00
      L1  C     6    27       P1 10952  1.00
      L1  C     8    28       P1 10747  0.98

> <Gold.PLP.Chemscore.Internal.Correction>
0.0117

> <Gold.Rescore>
     Score         DG    S(hbond)    S(metal)    S(lipo)     H(rot)  DE(clash)    DE(int)     intcor
     11.67     -12.90       1.80        0.00      49.44       1.71       0.03       1.20       ----

> <Gold.Chemscore.Fitness>
11.6693

> <Gold.Chemscore.DG>
-12.8981

> <Gold.Chemscore.ZeroCoef>
-5.4800

> <Gold.Chemscore.Hbond>
1.7988

> <Gold.Chemscore.Metal>
0.0000

> <Gold.Chemscore.Lipo>
49.4370

> <Gold.Chemscore.Internal_Hbond>
0.0000

> <Gold.Chemscore.DEClash>
0.0288

> <Gold.Chemscore.DEInternal>
1.2000

> <Gold.Chemscore.Rot>
1.7086

> <Gold.Chemscore.Internal.Correction>
   9.000000E+99

> <Gold.Chemscore.Hbonds>
donor molecule, donor type, donor heavy atom, donor atom, acceptor molecule, acceptor atom, score
      L1  H     9    29       P1  7948  0.98
      P1  H  7989  7998       L1    17  0.85

> <Gold.Chemscore.Hbond.Weighted>
-6.0079

> <Gold.Chemscore.Metal.Weighted>
-0.0000

> <Gold.Chemscore.Lipo.Weighted>
-5.7841

> <Gold.Chemscore.Internal_Hbond.Weighted>
0.0000

> <Gold.Chemscore.DEClash.Weighted>
0.0288

> <Gold.Chemscore.DEInternal.Weighted>
1.2000

> <Gold.Chemscore.Rot.Weighted>
4.3739

> <Gold.Chemscore.Internal.Correction.Weighted>
   9.000000E+99

> <Gold.Protein.RotatedTorsions>
[ 6907 6896 6895 6894 ] final  134.62 input  -60.11 | X-H torsion
[ 7974 7965 7964 7962 ] final -159.93 input  175.53 | X-H torsion
[ 8008 7997 7996 7995 ] final    2.24 input   59.86 | X-H torsion
[ 10167 10162 10161 10158 ] final   30.64 input  -65.29 | X-H torsion
[ 10718 10713 10712 10709 ] final  152.12 input   66.30 | X-H torsion
[ 10763 10752 10751 10750 ] final  -80.15 input  -60.55 | X-H torsion
[ 11005 11000 10999 10996 ] final -127.95 input  -57.11 | X-H torsion

> <Gold.Protein.ActiveResidues>
 VAL166  LYS551  ARG553  GLY616  TRP617  ASP618  TYR619  PRO620  LYS621  CYS622 
 ASP623  PHE694  ASN695  SER759  ASP760  ASP761  ALA762  ILE779  LEU786  VAL792 
 PHE793  MET794  SER795  GLU796  ALA797  LYS798  CYS799  TRP800  GLU811  SER814 

> <Gold.Protein.RotatedAtoms>
  152.3093  133.5736  159.5669 H   0  0  0  0  0  0  0  0  0  0  0  0  # atno 6907 bound_to 6896
  150.7315  134.0176  159.3699 H   0  0  0  0  0  0  0  0  0  0  0  0  # atno 6908 bound_to 6896
  151.8070  135.0692  160.0459 H   0  0  0  0  0  0  0  0  0  0  0  0  # atno 6909 bound_to 6896
  144.7446  140.3615  143.6095 H   0  0  0  0  0  0  0  0  0  0  0  0  # atno 7974 bound_to 7965
  154.6893  140.2649  155.6829 H   0  0  0  0  0  0  0  0  0  0  0  0  # atno 8008 bound_to 7997
  156.2726  140.2794  156.1388 H   0  0  0  0  0  0  0  0  0  0  0  0  # atno 8009 bound_to 7997
  155.0920  140.0373  157.2661 H   0  0  0  0  0  0  0  0  0  0  0  0  # atno 8010 bound_to 7997
  140.4660  144.0835  150.6224 H   0  0  0  0  0  0  0  0  0  0  0  0  # atno 10167 bound_to 10162
  157.2619  131.0800  151.1660 H   0  0  0  0  0  0  0  0  0  0  0  0  # atno 10718 bound_to 10713
  154.5476  135.5671  153.6893 H   0  0  0  0  0  0  0  0  0  0  0  0  # atno 10763 bound_to 10752
  152.9980  135.6243  154.2418 H   0  0  0  0  0  0  0  0  0  0  0  0  # atno 10764 bound_to 10752
  154.2351  135.2864  155.2855 H   0  0  0  0  0  0  0  0  0  0  0  0  # atno 10765 bound_to 10752
  140.9557  134.1005  157.4018 H   0  0  0  0  0  0  0  0  0  0  0  0  # atno 11005 bound_to 11000
  145.7173  139.1700  143.2505 LP  0  0  0  0  0  0  0  0  0  0  0  0  # atno 17320 bound_to 7965
  146.1303  140.7194  142.9415 LP  0  0  0  0  0  0  0  0  0  0  0  0  # atno 17321 bound_to 7965
  140.4036  143.2691  151.9918 LP  0  0  0  0  0  0  0  0  0  0  0  0  # atno 17342 bound_to 10162
  139.4812  144.5976  151.7662 LP  0  0  0  0  0  0  0  0  0  0  0  0  # atno 17343 bound_to 10162
  157.3166  130.6916  149.6246 LP  0  0  0  0  0  0  0  0  0  0  0  0  # atno 17370 bound_to 10713
  155.9664  130.4347  150.5062 LP  0  0  0  0  0  0  0  0  0  0  0  0  # atno 17371 bound_to 10713
  139.8861  135.0079  156.6480 LP  0  0  0  0  0  0  0  0  0  0  0  0  # atno 17394 bound_to 11000
  140.7539  133.8874  155.8367 LP  0  0  0  0  0  0  0  0  0  0  0  0  # atno 17395 bound_to 11000

$$$$
