AV-unprocessed.smi:1126|AV-procd|sdf|4837|dock4
  -GOLD-   22720 3403D 1   1.00000     0.00000
 Structure written by MMmdl.
 48 49  0  0  0  0  0  0  0  0  2 V2000
  142.4154  137.3332  153.1050 C   0  0  0  0  0  0  0  0  0  0  0  0
  143.5953  137.0742  152.3639 O   0  0  0  0  0  0  0  0  0  0  0  0
  144.2678  135.9055  152.8027 C   0  0  0  0  0  0  0  0  0  0  0  0
  145.6640  135.8618  152.1621 C   0  0  0  0  0  0  0  0  0  0  0  0
  146.5242  136.9971  152.5838 N   0  3  2  0  0  0  0  0  0  0  0  0
  146.5416  137.1680  154.0591 C   0  0  0  0  0  0  0  0  0  0  0  0
  147.5487  138.2495  154.4845 C   0  0  0  0  0  0  0  0  0  0  0  0
  147.2543  139.5962  153.7950 C   0  0  1  0  0  0  0  0  0  0  0  0
  148.2759  140.6875  154.1650 C   0  0  0  0  0  0  0  0  0  0  0  0
  148.6908  140.5812  155.5574 N   0  0  0  0  0  0  0  0  0  0  0  0
  149.9660  140.5129  155.9658 C   0  0  0  0  0  0  0  0  0  0  0  0
  150.9258  140.5218  155.1956 O   0  0  0  0  0  0  0  0  0  0  0  0
  150.1949  140.4217  157.4748 C   0  0  0  0  0  0  0  0  0  0  0  0
  151.0290  141.5139  157.9431 N   0  0  0  0  0  0  0  0  0  0  0  0
  150.9099  142.8602  157.6688 C   0  0  0  0  0  0  0  0  0  0  0  0
  151.9143  143.5056  158.3328 C   0  0  0  0  0  0  0  0  0  0  0  0
  152.2253  144.9744  158.3637 C   0  0  0  0  0  0  0  0  0  0  0  0
  152.6037  142.4508  158.9960 C   0  0  0  0  0  0  0  0  0  0  0  0
  152.0723  141.2615  158.7627 N   0  0  0  0  0  0  0  0  0  0  0  0
  147.2047  139.3759  152.2733 C   0  0  0  0  0  0  0  0  0  0  0  0
  146.2007  138.2743  151.8952 C   0  0  0  0  0  0  0  0  0  0  0  0
  141.9438  138.2442  152.7366 H   0  0  0  0  0  0  0  0  0  0  0  0
  142.6367  137.4741  154.1637 H   0  0  0  0  0  0  0  0  0  0  0  0
  141.6980  136.5179  153.0022 H   0  0  0  0  0  0  0  0  0  0  0  0
  144.3235  135.8776  153.8910 H   0  0  0  0  0  0  0  0  0  0  0  0
  143.7032  135.0249  152.4922 H   0  0  0  0  0  0  0  0  0  0  0  0
  146.1613  134.9191  152.3949 H   0  0  0  0  0  0  0  0  0  0  0  0
  145.5359  135.8819  151.0789 H   0  0  0  0  0  0  0  0  0  0  0  0
  145.5406  137.4261  154.4086 H   0  0  0  0  0  0  0  0  0  0  0  0
  146.8108  136.2251  154.5364 H   0  0  0  0  0  0  0  0  0  0  0  0
  147.5171  138.3606  155.5688 H   0  0  0  0  0  0  0  0  0  0  0  0
  148.5600  137.9218  154.2385 H   0  0  0  0  0  0  0  0  0  0  0  0
  146.2682  139.9359  154.1164 H   0  0  0  0  0  0  0  0  0  0  0  0
  149.1511  140.6177  153.5167 H   0  0  0  0  0  0  0  0  0  0  0  0
  147.8402  141.6753  154.0065 H   0  0  0  0  0  0  0  0  0  0  0  0
  147.9643  140.5757  156.2589 H   0  0  0  0  0  0  0  0  0  0  0  0
  149.2389  140.4373  158.0012 H   0  0  0  0  0  0  0  0  0  0  0  0
  150.6825  139.4778  157.7223 H   0  0  0  0  0  0  0  0  0  0  0  0
  150.1262  143.2426  157.0312 H   0  0  0  0  0  0  0  0  0  0  0  0
  153.2000  145.1735  158.8097 H   0  0  0  0  0  0  0  0  0  0  0  0
  151.4874  145.5288  158.9437 H   0  0  0  0  0  0  0  0  0  0  0  0
  152.2370  145.4045  157.3622 H   0  0  0  0  0  0  0  0  0  0  0  0
  153.4701  142.5146  159.6376 H   0  0  0  0  0  0  0  0  0  0  0  0
  146.9317  140.3049  151.7713 H   0  0  0  0  0  0  0  0  0  0  0  0
  148.1958  139.1068  151.9049 H   0  0  0  0  0  0  0  0  0  0  0  0
  146.2203  138.1413  150.8144 H   0  0  0  0  0  0  0  0  0  0  0  0
  145.1874  138.5844  152.1560 H   0  0  0  0  0  0  0  0  0  0  0  0
  147.4672  136.7495  152.3191 H   0  0  0  0  0  0  0  0  0  0  0  0
  1  2  1  0  0  0  0
  1 22  1  0  0  0  0
  1 23  1  0  0  0  0
  1 24  1  0  0  0  0
  2  3  1  0  0  0  0
  3  4  1  0  0  0  0
  3 25  1  0  0  0  0
  3 26  1  0  0  0  0
  4  5  1  0  0  0  0
  4 27  1  0  0  0  0
  4 28  1  0  0  0  0
  5 21  1  0  0  0  0
  5  6  1  0  0  0  0
  5 48  1  0  0  0  0
  6  7  1  0  0  0  0
  6 29  1  0  0  0  0
  6 30  1  0  0  0  0
  7  8  1  0  0  0  0
  7 31  1  0  0  0  0
  7 32  1  0  0  0  0
  8  9  1  0  0  0  0
  8 20  1  0  0  0  0
  8 33  1  0  0  0  0
  9 10  1  0  0  0  0
  9 34  1  0  0  0  0
  9 35  1  0  0  0  0
 10 11  1  0  0  0  0
 10 36  1  0  0  0  0
 11 12  2  0  0  0  0
 11 13  1  0  0  0  0
 13 14  1  0  0  0  0
 13 37  1  0  0  0  0
 13 38  1  0  0  0  0
 14 19  1  0  0  0  0
 14 15  1  0  0  0  0
 15 16  2  0  0  0  0
 15 39  1  0  0  0  0
 16 17  1  0  0  0  0
 16 18  1  0  0  0  0
 17 40  1  0  0  0  0
 17 41  1  0  0  0  0
 17 42  1  0  0  0  0
 18 19  2  0  0  0  0
 18 43  1  0  0  0  0
 20 21  1  0  0  0  0
 20 44  1  0  0  0  0
 20 45  1  0  0  0  0
 21 46  1  0  0  0  0
 21 47  1  0  0  0  0
M  CHG  1   5   1
M  END
> <s_m_source_file>
AV-unprocessed.smi

> <i_m_source_file_index>
1126

> <i_lp_mmshare_version>
43012

> <i_f3d_flags>
0

> <s_epik_input>
W0NIM11PW0NIMl1bQ0gyXU4xW0NIMl1bQ0gyXVtDSF0oW0NIMl1bQ0gyXTEpW0NIMl1bTkhdQyg9TylbQ0gyXW4yW2NIXWMoW0NIM10pW2NIXW4y

> <s_epik_cmdline>
J2VwaWtfcHl0aG9uJywgJy1waCcsICc3LjAnLCAnLXRuJywgJzgnLCAnLW1hJywgJzIwMCcsICctbWV0YWxfYmluZGluZycsICctaW1hZScsICc8aW5maWxlLm1hZT4nLCAnLW9tYWUnLCAnPG91dGZpbGUubWFlPic=

> <r_lp_tautomer_probability>
1

> <r_epik_Ionization_Penalty>
0.00992859

> <r_epik_Ionization_Penalty_Charging>
0.00990284

> <r_epik_Ionization_Penalty_Neutral>
2.57527e-05

> <r_epik_State_Penalty>
0.00754525

> <r_epik_Charging_Adjusted_Penalty>
0.0174481

> <i_epik_Tot_Q>
1

> <i_epik_Tot_abs_Q>
1

> <r_epik_Metal_State_Penalty>
0.00754529

> <b_epik_Metal_Only>
0

> <s_lp_Force_Field>
OPLS_2005

> <r_lp_Energy>
19.6202

> <b_lp_Chiralities_Consistent>
1

> <s_lp_Variant>
AV-unprocessed.smi:1126-1

> <Gold.Version>
5.8.1

> <Gold.Id.Protein>
6NUR|6NUR_protein|mol2

> <Gold.PLP.Fitness>
46.8173

> <Gold.PLP.PLP>
-35.8257

> <Gold.PLP.part.hbond>
-2.0000

> <Gold.PLP.part.metal>
0.0000

> <Gold.PLP.part.buried>
-2.5730

> <Gold.PLP.part.nonpolar>
-33.4212

> <Gold.PLP.part.repulsive>
1.1620

> <Gold.PLP.ligand.clash>
0.0000

> <Gold.PLP.ligand.torsion>
0.5223

> <Gold.PLP.Chemscore.Hbond>
3.0000

> <Gold.PLP.Chemscore.CHOScore>
1.0000

> <Gold.PLP.Chemscore.Metal>
0.0000

> <Gold.Chemscore.Hbonds>
donor molecule, donor type, donor heavy atom, donor atom, acceptor molecule, acceptor atom, score
      L1  H     5    48       P1  7948  2.00
      P1  H  7989  7998       L1    12  0.98
      L1  C    15    39       P1  8028  1.00

> <Gold.PLP.Chemscore.Internal.Correction>
0.0362

> <Gold.Rescore>
     Score         DG    S(hbond)    S(metal)    S(lipo)     H(rot)  DE(clash)    DE(int)     intcor
     16.40     -17.54       1.98        0.00      92.55       2.10       0.53       0.60       ----

> <Gold.Chemscore.Fitness>
16.4014

> <Gold.Chemscore.DG>
-17.5383

> <Gold.Chemscore.ZeroCoef>
-5.4800

> <Gold.Chemscore.Hbond>
1.9781

> <Gold.Chemscore.Metal>
0.0000

> <Gold.Chemscore.Lipo>
92.5546

> <Gold.Chemscore.Internal_Hbond>
0.0000

> <Gold.Chemscore.DEClash>
0.5323

> <Gold.Chemscore.DEInternal>
0.6046

> <Gold.Chemscore.Rot>
2.1006

> <Gold.Chemscore.Internal.Correction>
   9.000000E+99

> <Gold.Chemscore.Hbonds>
donor molecule, donor type, donor heavy atom, donor atom, acceptor molecule, acceptor atom, score
      L1  H     5    48       P1  7948  0.99
      P1  H  7989  7998       L1    12  0.93

> <Gold.Chemscore.Hbond.Weighted>
-6.6069

> <Gold.Chemscore.Metal.Weighted>
-0.0000

> <Gold.Chemscore.Lipo.Weighted>
-10.8289

> <Gold.Chemscore.Internal_Hbond.Weighted>
0.0000

> <Gold.Chemscore.DEClash.Weighted>
0.5323

> <Gold.Chemscore.DEInternal.Weighted>
0.6046

> <Gold.Chemscore.Rot.Weighted>
5.3775

> <Gold.Chemscore.Internal.Correction.Weighted>
   9.000000E+99

> <Gold.Protein.RotatedTorsions>
[ 6907 6896 6895 6894 ] final  168.31 input  -60.11 | X-H torsion
[ 7974 7965 7964 7962 ] final  122.20 input  175.53 | X-H torsion
[ 8008 7997 7996 7995 ] final  -60.44 input   59.86 | X-H torsion
[ 10167 10162 10161 10158 ] final    0.57 input  -65.29 | X-H torsion
[ 10718 10713 10712 10709 ] final   14.77 input   66.30 | X-H torsion
[ 10763 10752 10751 10750 ] final -171.95 input  -60.55 | X-H torsion
[ 11005 11000 10999 10996 ] final -156.10 input  -57.11 | X-H torsion

> <Gold.Protein.ActiveResidues>
 VAL166  LYS551  ARG553  GLY616  TRP617  ASP618  TYR619  PRO620  LYS621  CYS622 
 ASP623  PHE694  ASN695  SER759  ASP760  ASP761  ALA762  ILE779  LEU786  VAL792 
 PHE793  MET794  SER795  GLU796  ALA797  LYS798  CYS799  TRP800  GLU811  SER814 

> <Gold.Protein.RotatedAtoms>
  151.8497  133.3437  159.3668 H   0  0  0  0  0  0  0  0  0  0  0  0  # atno 6907 bound_to 6896
  150.7210  134.5311  159.5710 H   0  0  0  0  0  0  0  0  0  0  0  0  # atno 6908 bound_to 6896
  152.2802  134.7837  160.0449 H   0  0  0  0  0  0  0  0  0  0  0  0  # atno 6909 bound_to 6896
  145.1103  139.3457  143.4766 H   0  0  0  0  0  0  0  0  0  0  0  0  # atno 7974 bound_to 7965
  154.4399  140.1039  156.6274 H   0  0  0  0  0  0  0  0  0  0  0  0  # atno 8008 bound_to 7997
  155.5642  140.3488  155.4480 H   0  0  0  0  0  0  0  0  0  0  0  0  # atno 8009 bound_to 7997
  156.0438  140.1288  157.0116 H   0  0  0  0  0  0  0  0  0  0  0  0  # atno 8010 bound_to 7997
  140.6723  143.7015  150.7948 H   0  0  0  0  0  0  0  0  0  0  0  0  # atno 10167 bound_to 10162
  157.0439  130.6242  149.5756 H   0  0  0  0  0  0  0  0  0  0  0  0  # atno 10718 bound_to 10713
  154.6247  135.2879  155.0285 H   0  0  0  0  0  0  0  0  0  0  0  0  # atno 10763 bound_to 10752
  154.1467  135.6510  153.4958 H   0  0  0  0  0  0  0  0  0  0  0  0  # atno 10764 bound_to 10752
  153.0252  135.5346  154.7051 H   0  0  0  0  0  0  0  0  0  0  0  0  # atno 10765 bound_to 10752
  140.6792  134.4163  157.5227 H   0  0  0  0  0  0  0  0  0  0  0  0  # atno 11005 bound_to 11000
  146.3526  140.1020  142.8607 LP  0  0  0  0  0  0  0  0  0  0  0  0  # atno 17320 bound_to 7965
  145.0854  140.9249  143.4800 LP  0  0  0  0  0  0  0  0  0  0  0  0  # atno 17321 bound_to 7965
  140.0702  143.5068  152.2583 LP  0  0  0  0  0  0  0  0  0  0  0  0  # atno 17342 bound_to 10162
  139.5997  144.7578  151.3201 LP  0  0  0  0  0  0  0  0  0  0  0  0  # atno 17343 bound_to 10162
  156.0029  130.5111  150.7728 LP  0  0  0  0  0  0  0  0  0  0  0  0  # atno 17370 bound_to 10713
  157.5083  131.0923  151.0230 LP  0  0  0  0  0  0  0  0  0  0  0  0  # atno 17371 bound_to 10713
  139.8957  134.8677  156.2120 LP  0  0  0  0  0  0  0  0  0  0  0  0  # atno 17394 bound_to 11000
  141.0331  133.6978  156.1464 LP  0  0  0  0  0  0  0  0  0  0  0  0  # atno 17395 bound_to 11000

$$$$
