AV-unprocessed.smi:2569|AV-procd|sdf|10104|dock2
  -GOLD-   2272014123D 1   1.00000     0.00000
 Structure written by MMmdl.
 40 42  0  0  0  0  0  0  0  0  2 V2000
  152.3643  143.8064  161.5581 C   0  0  0  0  0  0  0  0  0  0  0  0
  152.1779  143.0061  160.2800 C   0  0  0  0  0  0  0  0  0  0  0  0
  151.3511  143.5383  159.2655 C   0  0  0  0  0  0  0  0  0  0  0  0
  151.2022  142.7844  158.1074 C   0  0  0  0  0  0  0  0  0  0  0  0
  150.4664  143.0299  156.9464 N   0  3  0  0  0  0  0  0  0  0  0  0
  150.6287  141.9939  156.0780 C   0  0  0  0  0  0  0  0  0  0  0  0
  151.4592  141.0906  156.6661 N   0  0  0  0  0  0  0  0  0  0  0  0
  151.9500  139.8018  156.1565 C   0  0  0  0  0  0  0  0  0  0  0  0
  150.8486  138.9762  155.4647 C   0  0  2  0  0  0  0  0  0  0  0  0
  150.4814  139.5852  154.2409 O   0  0  0  0  0  0  0  0  0  0  0  0
  149.6064  138.8120  156.3615 C   0  0  0  0  0  0  0  0  0  0  0  0
  149.8991  138.1079  157.5992 N   0  0  0  0  0  0  0  0  0  0  0  0
  150.7622  138.6285  158.5058 N   0  0  0  0  0  0  0  0  0  0  0  0
  150.8188  137.7849  159.4959 N   0  0  0  0  0  0  0  0  0  0  0  0
  150.0005  136.6930  159.2736 N   0  0  0  0  0  0  0  0  0  0  0  0
  149.4562  136.9426  158.0898 C   0  0  0  0  0  0  0  0  0  0  0  0
  148.4818  136.0597  157.3821 C   0  0  0  0  0  0  0  0  0  0  0  0
  151.8421  141.5410  157.9358 C   0  0  0  0  0  0  0  0  0  0  0  0
  152.6585  141.0015  158.9277 C   0  0  0  0  0  0  0  0  0  0  0  0
  152.8227  141.7531  160.1134 C   0  0  0  0  0  0  0  0  0  0  0  0
  153.7078  141.1890  161.2120 C   0  0  0  0  0  0  0  0  0  0  0  0
  151.7765  144.7248  161.5431 H   0  0  0  0  0  0  0  0  0  0  0  0
  153.4112  144.0825  161.6862 H   0  0  0  0  0  0  0  0  0  0  0  0
  152.0500  143.2257  162.4254 H   0  0  0  0  0  0  0  0  0  0  0  0
  150.8561  144.4911  159.3856 H   0  0  0  0  0  0  0  0  0  0  0  0
  150.1780  141.9043  155.1000 H   0  0  0  0  0  0  0  0  0  0  0  0
  152.7464  140.0229  155.4448 H   0  0  0  0  0  0  0  0  0  0  0  0
  152.4158  139.2425  156.9680 H   0  0  0  0  0  0  0  0  0  0  0  0
  151.2490  137.9889  155.2302 H   0  0  0  0  0  0  0  0  0  0  0  0
  149.7679  139.0956  153.8616 H   0  0  0  0  0  0  0  0  0  0  0  0
  149.1981  139.7908  156.6176 H   0  0  0  0  0  0  0  0  0  0  0  0
  148.8173  138.2805  155.8290 H   0  0  0  0  0  0  0  0  0  0  0  0
  148.3114  135.1469  157.9535 H   0  0  0  0  0  0  0  0  0  0  0  0
  148.8656  135.7860  156.3994 H   0  0  0  0  0  0  0  0  0  0  0  0
  147.5292  136.5750  157.2588 H   0  0  0  0  0  0  0  0  0  0  0  0
  153.1484  140.0471  158.8063 H   0  0  0  0  0  0  0  0  0  0  0  0
  154.1353  140.2272  160.9269 H   0  0  0  0  0  0  0  0  0  0  0  0
  153.1335  141.0394  162.1264 H   0  0  0  0  0  0  0  0  0  0  0  0
  154.5325  141.8689  161.4273 H   0  0  0  0  0  0  0  0  0  0  0  0
  149.8936  143.8428  156.7585 H   0  0  0  0  0  0  0  0  0  0  0  0
  1  2  1  0  0  0  0
  1 22  1  0  0  0  0
  1 23  1  0  0  0  0
  1 24  1  0  0  0  0
  2 20  1  0  0  0  0
  2  3  2  0  0  0  0
  3  4  1  0  0  0  0
  3 25  1  0  0  0  0
  4 18  2  0  0  0  0
  4  5  1  0  0  0  0
  5  6  2  0  0  0  0
  5 40  1  0  0  0  0
  6  7  1  0  0  0  0
  6 26  1  0  0  0  0
  7  8  1  0  0  0  0
  7 18  1  0  0  0  0
  8  9  1  0  0  0  0
  8 27  1  0  0  0  0
  8 28  1  0  0  0  0
  9 10  1  0  0  0  0
  9 11  1  0  0  0  0
  9 29  1  0  0  0  0
 10 30  1  0  0  0  0
 11 12  1  0  0  0  0
 11 31  1  0  0  0  0
 11 32  1  0  0  0  0
 12 16  1  0  0  0  0
 12 13  1  0  0  0  0
 13 14  2  0  0  0  0
 14 15  1  0  0  0  0
 15 16  2  0  0  0  0
 16 17  1  0  0  0  0
 17 33  1  0  0  0  0
 17 34  1  0  0  0  0
 17 35  1  0  0  0  0
 18 19  1  0  0  0  0
 19 20  2  0  0  0  0
 19 36  1  0  0  0  0
 20 21  1  0  0  0  0
 21 37  1  0  0  0  0
 21 38  1  0  0  0  0
 21 39  1  0  0  0  0
M  CHG  1   5   1
M  END
> <s_m_source_file>
AV-unprocessed.smi

> <i_m_source_file_index>
2569

> <i_lp_mmshare_version>
43012

> <i_f3d_flags>
0

> <s_epik_input>
W0NIM11jKFtjSF0xKWMoW0NIM10pW2NIXWMoYzEyKW4oW2NIXW4yKVtDSDJdW0NASF0oW09IXSlbQ0gyXW4zbm5uYzNbQ0gzXQ==

> <s_epik_cmdline>
J2VwaWtfcHl0aG9uJywgJy1waCcsICc3LjAnLCAnLXRuJywgJzgnLCAnLW1hJywgJzIwMCcsICctbWV0YWxfYmluZGluZycsICctaW1hZScsICc8aW5maWxlLm1hZT4nLCAnLW9tYWUnLCAnPG91dGZpbGUubWFlPic=

> <r_lp_tautomer_probability>
1

> <r_epik_Ionization_Penalty>
1.13338

> <r_epik_Ionization_Penalty_Charging>
1.13335

> <r_epik_Ionization_Penalty_Neutral>
3.02334e-05

> <r_epik_State_Penalty>
1.19324

> <r_epik_Charging_Adjusted_Penalty>
2.3266

> <i_epik_Tot_Q>
1

> <i_epik_Tot_abs_Q>
1

> <r_epik_Metal_State_Penalty>
1.27602

> <b_epik_Metal_Only>
0

> <s_lp_Force_Field>
OPLS_2005

> <r_lp_Energy>
15.9129

> <b_lp_Chiralities_Consistent>
1

> <s_lp_Variant>
AV-unprocessed.smi:2569-3

> <Gold.Version>
5.8.1

> <Gold.Id.Protein>
6NUR|6NUR_protein|mol2

> <Gold.PLP.Fitness>
51.2434

> <Gold.PLP.PLP>
-39.8270

> <Gold.PLP.part.hbond>
-3.9139

> <Gold.PLP.part.metal>
0.0000

> <Gold.PLP.part.buried>
-6.6488

> <Gold.PLP.part.nonpolar>
-28.8701

> <Gold.PLP.part.repulsive>
0.0214

> <Gold.PLP.ligand.clash>
0.0000

> <Gold.PLP.ligand.torsion>
0.2757

> <Gold.PLP.Chemscore.Hbond>
3.9840

> <Gold.PLP.Chemscore.CHOScore>
0.0000

> <Gold.PLP.Chemscore.Metal>
0.0000

> <Gold.Chemscore.Hbonds>
donor molecule, donor type, donor heavy atom, donor atom, acceptor molecule, acceptor atom, score
      L1  H     5    40       P1  8028  1.98
      P1  H  6896  6907       L1    15  0.96
      P1  H  7989  7998       L1    10  1.00

> <Gold.PLP.Chemscore.Internal.Correction>
0.0159

> <Gold.Rescore>
     Score         DG    S(hbond)    S(metal)    S(lipo)     H(rot)  DE(clash)    DE(int)     intcor
     17.69     -20.05       2.93        0.00      97.33       2.59       0.00       2.35       ----

> <Gold.Chemscore.Fitness>
17.6925

> <Gold.Chemscore.DG>
-20.0490

> <Gold.Chemscore.ZeroCoef>
-5.4800

> <Gold.Chemscore.Hbond>
2.9342

> <Gold.Chemscore.Metal>
0.0000

> <Gold.Chemscore.Lipo>
97.3280

> <Gold.Chemscore.Internal_Hbond>
0.0000

> <Gold.Chemscore.DEClash>
0.0048

> <Gold.Chemscore.DEInternal>
2.3518

> <Gold.Chemscore.Rot>
2.5854

> <Gold.Chemscore.Internal.Correction>
   9.000000E+99

> <Gold.Chemscore.Hbonds>
donor molecule, donor type, donor heavy atom, donor atom, acceptor molecule, acceptor atom, score
      L1  H     5    40       P1  8028  0.94
      P1  H  6896  6907       L1    15  0.82
      P1  H  7989  7998       L1    10  0.97

> <Gold.Chemscore.Hbond.Weighted>
-9.8003

> <Gold.Chemscore.Metal.Weighted>
-0.0000

> <Gold.Chemscore.Lipo.Weighted>
-11.3874

> <Gold.Chemscore.Internal_Hbond.Weighted>
0.0000

> <Gold.Chemscore.DEClash.Weighted>
0.0048

> <Gold.Chemscore.DEInternal.Weighted>
2.3518

> <Gold.Chemscore.Rot.Weighted>
6.6187

> <Gold.Chemscore.Internal.Correction.Weighted>
   9.000000E+99

> <Gold.Protein.RotatedTorsions>
[ 6907 6896 6895 6894 ] final  -49.33 input  -60.11 | X-H torsion
[ 7974 7965 7964 7962 ] final   -2.00 input  175.53 | X-H torsion
[ 8008 7997 7996 7995 ] final  140.29 input   59.86 | X-H torsion
[ 10167 10162 10161 10158 ] final  176.58 input  -65.29 | X-H torsion
[ 10718 10713 10712 10709 ] final  -48.10 input   66.30 | X-H torsion
[ 10763 10752 10751 10750 ] final  141.56 input  -60.55 | X-H torsion
[ 11005 11000 10999 10996 ] final  176.15 input  -57.11 | X-H torsion

> <Gold.Protein.ActiveResidues>
 VAL166  LYS551  ARG553  GLY616  TRP617  ASP618  TYR619  PRO620  LYS621  CYS622 
 ASP623  PHE694  ASN695  SER759  ASP760  ASP761  ALA762  ILE779  LEU786  VAL792 
 PHE793  MET794  SER795  GLU796  ALA797  LYS798  CYS799  TRP800  GLU811  SER814 

> <Gold.Protein.RotatedAtoms>
  150.8815  134.8207  159.7228 H   0  0  0  0  0  0  0  0  0  0  0  0  # atno 6907 bound_to 6896
  152.4781  134.4788  159.9669 H   0  0  0  0  0  0  0  0  0  0  0  0  # atno 6908 bound_to 6896
  151.4862  133.3496  159.2881 H   0  0  0  0  0  0  0  0  0  0  0  0  # atno 6909 bound_to 6896
  146.2410  140.1505  142.8334 H   0  0  0  0  0  0  0  0  0  0  0  0  # atno 7974 bound_to 7965
  156.2981  140.2345  156.4377 H   0  0  0  0  0  0  0  0  0  0  0  0  # atno 8008 bound_to 7997
  154.8214  140.0437  157.1433 H   0  0  0  0  0  0  0  0  0  0  0  0  # atno 8009 bound_to 7997
  154.9311  140.3017  155.5171 H   0  0  0  0  0  0  0  0  0  0  0  0  # atno 8010 bound_to 7997
  139.5220  144.2898  152.0473 H   0  0  0  0  0  0  0  0  0  0  0  0  # atno 10167 bound_to 10162
  156.2020  130.4156  149.9228 H   0  0  0  0  0  0  0  0  0  0  0  0  # atno 10718 bound_to 10713
  153.9413  135.2979  155.3442 H   0  0  0  0  0  0  0  0  0  0  0  0  # atno 10763 bound_to 10752
  154.7475  135.4996  153.9233 H   0  0  0  0  0  0  0  0  0  0  0  0  # atno 10764 bound_to 10752
  153.1041  135.6742  153.9726 H   0  0  0  0  0  0  0  0  0  0  0  0  # atno 10765 bound_to 10752
  140.3699  134.7039  157.4386 H   0  0  0  0  0  0  0  0  0  0  0  0  # atno 11005 bound_to 11000
  145.0172  140.8763  143.5189 LP  0  0  0  0  0  0  0  0  0  0  0  0  # atno 17320 bound_to 7965
  145.1548  139.2493  143.5422 LP  0  0  0  0  0  0  0  0  0  0  0  0  # atno 17321 bound_to 7965
  140.2350  144.4329  150.6284 LP  0  0  0  0  0  0  0  0  0  0  0  0  # atno 17342 bound_to 10162
  140.6330  143.2190  151.6456 LP  0  0  0  0  0  0  0  0  0  0  0  0  # atno 17343 bound_to 10162
  156.6934  130.8905  151.3591 LP  0  0  0  0  0  0  0  0  0  0  0  0  # atno 17370 bound_to 10713
  157.6991  130.9314  150.0732 LP  0  0  0  0  0  0  0  0  0  0  0  0  # atno 17371 bound_to 10713
  140.0560  134.6063  155.8805 LP  0  0  0  0  0  0  0  0  0  0  0  0  # atno 17394 bound_to 11000
  141.1958  133.6588  156.5659 LP  0  0  0  0  0  0  0  0  0  0  0  0  # atno 17395 bound_to 11000

$$$$
