AV-unprocessed.smi:1417|AV-procd|sdf|5772|dock10
  -GOLD-   22720 5413D 1   1.00000     0.00000
 Structure written by MMmdl.
 39 40  0  0  0  0  0  0  0  0  3 V2000
  150.6548  141.6659  156.0807 C   0  0  0  0  0  0  0  0  0  0  0  0
  150.2412  140.4390  155.3429 C   0  0  0  0  0  0  0  0  0  0  0  0
  149.0309  139.8375  155.1430 C   0  0  0  0  0  0  0  0  0  0  0  0
  149.3654  138.7059  154.3436 C   0  0  0  0  0  0  0  0  0  0  0  0
  148.4626  137.7277  153.8526 N   0  0  0  0  0  0  0  0  0  0  0  0
  147.3402  137.2648  154.4280 C   0  0  0  0  0  0  0  0  0  0  0  0
  146.8881  137.6358  155.5110 O   0  0  0  0  0  0  0  0  0  0  0  0
  146.7539  136.3309  153.6644 N   0  0  0  0  0  0  0  0  0  0  0  0
  145.5082  135.6342  153.9851 C   0  0  2  0  0  0  0  0  0  0  0  0
  145.6543  134.1041  153.8636 C   0  0  0  0  0  0  0  0  0  0  0  0
  145.7955  133.6531  152.3995 C   0  0  0  0  0  0  0  0  0  0  0  0
  144.6538  134.1379  151.5789 N   0  3  2  0  0  0  0  0  0  0  0  0
  144.6627  133.6109  150.1904 C   0  0  0  0  0  0  0  0  0  0  0  0
  144.0487  132.2077  150.1434 C   0  0  0  0  0  0  0  0  0  0  0  0
  143.0096  132.1307  149.2875 N   0  5  0  0  0  0  0  0  0  0  0  0
  144.5167  131.3156  150.8468 O   0  0  0  0  0  0  0  0  0  0  0  0
  144.5335  135.6170  151.6240 C   0  0  0  0  0  0  0  0  0  0  0  0
  144.3702  136.1197  153.0705 C   0  0  0  0  0  0  0  0  0  0  0  0
  150.6586  138.6253  154.0912 N   0  0  0  0  0  0  0  0  0  0  0  0
  151.2279  139.7358  154.7250 O   0  0  0  0  0  0  0  0  0  0  0  0
  149.8021  142.1264  156.5801 H   0  0  0  0  0  0  0  0  0  0  0  0
  151.0839  142.4002  155.3989 H   0  0  0  0  0  0  0  0  0  0  0  0
  151.4022  141.4287  156.8378 H   0  0  0  0  0  0  0  0  0  0  0  0
  148.0732  140.1676  155.5162 H   0  0  0  0  0  0  0  0  0  0  0  0
  148.6961  137.3433  152.9491 H   0  0  0  0  0  0  0  0  0  0  0  0
  147.1939  136.0948  152.7870 H   0  0  0  0  0  0  0  0  0  0  0  0
  145.2431  135.8815  155.0147 H   0  0  0  0  0  0  0  0  0  0  0  0
  146.5034  133.7483  154.4479 H   0  0  0  0  0  0  0  0  0  0  0  0
  144.7738  133.6272  154.2962 H   0  0  0  0  0  0  0  0  0  0  0  0
  146.7322  134.0216  151.9782 H   0  0  0  0  0  0  0  0  0  0  0  0
  145.8457  132.5645  152.3687 H   0  0  0  0  0  0  0  0  0  0  0  0
  144.0790  134.2571  149.5324 H   0  0  0  0  0  0  0  0  0  0  0  0
  145.6789  133.6001  149.7929 H   0  0  0  0  0  0  0  0  0  0  0  0
  142.2725  132.8444  149.3310 H   0  0  0  0  0  0  0  0  0  0  0  0
  145.4106  136.0691  151.1585 H   0  0  0  0  0  0  0  0  0  0  0  0
  143.6683  135.9318  151.0394 H   0  0  0  0  0  0  0  0  0  0  0  0
  143.4186  135.7591  153.4641 H   0  0  0  0  0  0  0  0  0  0  0  0
  144.3097  137.2087  153.0851 H   0  0  0  0  0  0  0  0  0  0  0  0
  143.8117  133.7693  151.9993 H   0  0  0  0  0  0  0  0  0  0  0  0
  1  2  1  0  0  0  0
  1 21  1  0  0  0  0
  1 22  1  0  0  0  0
  1 23  1  0  0  0  0
  2 20  1  0  0  0  0
  2  3  2  0  0  0  0
  3  4  1  0  0  0  0
  3 24  1  0  0  0  0
  4  5  1  0  0  0  0
  4 19  2  0  0  0  0
  5  6  1  0  0  0  0
  5 25  1  0  0  0  0
  6  7  2  0  0  0  0
  6  8  1  0  0  0  0
  8  9  1  0  0  0  0
  8 26  1  0  0  0  0
  9 18  1  0  0  0  0
  9 10  1  0  0  0  0
  9 27  1  0  0  0  0
 10 11  1  0  0  0  0
 10 28  1  0  0  0  0
 10 29  1  0  0  0  0
 11 12  1  0  0  0  0
 11 30  1  0  0  0  0
 11 31  1  0  0  0  0
 12 13  1  0  0  0  0
 12 17  1  0  0  0  0
 12 39  1  0  0  0  0
 13 14  1  0  0  0  0
 13 32  1  0  0  0  0
 13 33  1  0  0  0  0
 14 15  1  0  0  0  0
 14 16  2  0  0  0  0
 15 34  1  0  0  0  0
 17 18  1  0  0  0  0
 17 35  1  0  0  0  0
 17 36  1  0  0  0  0
 18 37  1  0  0  0  0
 18 38  1  0  0  0  0
 19 20  1  0  0  0  0
M  CHG  1  12   1
M  CHG  1  15  -1
M  END
> <s_m_source_file>
AV-unprocessed.smi

> <i_m_source_file_index>
1417

> <i_lp_mmshare_version>
43012

> <i_f3d_flags>
0

> <s_epik_input>
W0NIM11jMVtjSF1jKG5vMSlbTkhdQyg9TylbTkhdW0NIXTJbQ0gyXVtDSDJdTihbQ0gyXVtDSDJdMilbQ0gyXUMoPU8pW05IMl0=

> <s_epik_cmdline>
J2VwaWtfcHl0aG9uJywgJy1waCcsICc3LjAnLCAnLXRuJywgJzgnLCAnLW1hJywgJzIwMCcsICctbWV0YWxfYmluZGluZycsICctaW1hZScsICc8aW5maWxlLm1hZT4nLCAnLW9tYWUnLCAnPG91dGZpbGUubWFlPic=

> <r_epik_Ionization_Penalty>
5.73218

> <r_epik_Ionization_Penalty_Charging>
5.73215

> <r_epik_Ionization_Penalty_Neutral>
3.37968e-05

> <r_epik_State_Penalty>
6.58009

> <r_epik_Charging_Adjusted_Penalty>
12.3122

> <i_epik_Tot_Q>
0

> <i_epik_Tot_abs_Q>
2

> <r_epik_Metal_State_Penalty>
2.55295

> <b_epik_Metal_Only>
1

> <s_lp_Force_Field>
OPLS_2005

> <r_lp_Energy>
7.04924

> <b_lp_Chiralities_Consistent>
1

> <s_lp_Variant>
AV-unprocessed.smi:1417-8

> <Gold.Version>
5.8.1

> <Gold.Id.Protein>
6NUR|6NUR_protein|mol2

> <Gold.PLP.Fitness>
42.3296

> <Gold.PLP.PLP>
-29.3404

> <Gold.PLP.part.hbond>
-5.8465

> <Gold.PLP.part.metal>
0.0000

> <Gold.PLP.part.buried>
-5.7401

> <Gold.PLP.part.nonpolar>
-17.8073

> <Gold.PLP.part.repulsive>
0.4725

> <Gold.PLP.ligand.clash>
0.0000

> <Gold.PLP.ligand.torsion>
0.6426

> <Gold.PLP.Chemscore.Hbond>
4.7495

> <Gold.PLP.Chemscore.CHOScore>
0.0000

> <Gold.PLP.Chemscore.Metal>
0.0000

> <Gold.Chemscore.Hbonds>
donor molecule, donor type, donor heavy atom, donor atom, acceptor molecule, acceptor atom, score
      L1  H     5    25       P1  7948  1.00
      L1  H     8    26       P1  7948  0.83
      L1  H    15    34       P1 10186  1.00
      P1  H  7989  7998       L1    20  0.95
      P1  H 10785 10796       L1    15  0.85

> <Gold.PLP.Chemscore.Internal.Correction>
0.0258

> <Gold.Rescore>
     Score         DG    S(hbond)    S(metal)    S(lipo)     H(rot)  DE(clash)    DE(int)     intcor
     15.57     -16.50       3.34        0.00      43.01       2.02       0.18       0.75       ----

> <Gold.Chemscore.Fitness>
15.5680

> <Gold.Chemscore.DG>
-16.5009

> <Gold.Chemscore.ZeroCoef>
-5.4800

> <Gold.Chemscore.Hbond>
3.3395

> <Gold.Chemscore.Metal>
0.0000

> <Gold.Chemscore.Lipo>
43.0087

> <Gold.Chemscore.Internal_Hbond>
0.0000

> <Gold.Chemscore.DEClash>
0.1817

> <Gold.Chemscore.DEInternal>
0.7512

> <Gold.Chemscore.Rot>
2.0176

> <Gold.Chemscore.Internal.Correction>
   9.000000E+99

> <Gold.Chemscore.Hbonds>
donor molecule, donor type, donor heavy atom, donor atom, acceptor molecule, acceptor atom, score
      L1  H     5    25       P1  7948  0.95
      L1  H     8    26       P1  7948  0.79
      L1  H    15    34       P1 10186  0.93
      P1  H  7989  7998       L1    20  0.13
      P1  H 10785 10796       L1    15  0.19

> <Gold.Chemscore.Hbond.Weighted>
-11.1539

> <Gold.Chemscore.Metal.Weighted>
-0.0000

> <Gold.Chemscore.Lipo.Weighted>
-5.0320

> <Gold.Chemscore.Internal_Hbond.Weighted>
0.0000

> <Gold.Chemscore.DEClash.Weighted>
0.1817

> <Gold.Chemscore.DEInternal.Weighted>
0.7512

> <Gold.Chemscore.Rot.Weighted>
5.1651

> <Gold.Chemscore.Internal.Correction.Weighted>
   9.000000E+99

> <Gold.Protein.RotatedTorsions>
[ 6907 6896 6895 6894 ] final  -45.80 input  -60.11 | X-H torsion
[ 7974 7965 7964 7962 ] final -154.93 input  175.53 | X-H torsion
[ 8008 7997 7996 7995 ] final   37.86 input   59.86 | X-H torsion
[ 10167 10162 10161 10158 ] final  -20.87 input  -65.29 | X-H torsion
[ 10718 10713 10712 10709 ] final  -24.91 input   66.30 | X-H torsion
[ 10763 10752 10751 10750 ] final  146.04 input  -60.55 | X-H torsion
[ 11005 11000 10999 10996 ] final  -58.41 input  -57.11 | X-H torsion

> <Gold.Protein.ActiveResidues>
 VAL166  LYS551  ARG553  GLY616  TRP617  ASP618  TYR619  PRO620  LYS621  CYS622 
 ASP623  PHE694  ASN695  SER759  ASP760  ASP761  ALA762  ILE779  LEU786  VAL792 
 PHE793  MET794  SER795  GLU796  ALA797  LYS798  CYS799  TRP800  GLU811  SER814 

> <Gold.Protein.RotatedAtoms>
  150.9180  134.8598  159.7469 H   0  0  0  0  0  0  0  0  0  0  0  0  # atno 6907 bound_to 6896
  152.4978  134.4260  159.9506 H   0  0  0  0  0  0  0  0  0  0  0  0  # atno 6908 bound_to 6896
  151.4296  133.3634  159.2802 H   0  0  0  0  0  0  0  0  0  0  0  0  # atno 6909 bound_to 6896
  144.7665  140.4319  143.5938 H   0  0  0  0  0  0  0  0  0  0  0  0  # atno 7974 bound_to 7965
  155.2106  140.3323  155.4329 H   0  0  0  0  0  0  0  0  0  0  0  0  # atno 8008 bound_to 7997
  156.2372  140.1878  156.7137 H   0  0  0  0  0  0  0  0  0  0  0  0  # atno 8009 bound_to 7997
  154.6080  140.0613  156.9442 H   0  0  0  0  0  0  0  0  0  0  0  0  # atno 8010 bound_to 7997
  140.7279  143.4681  151.0285 H   0  0  0  0  0  0  0  0  0  0  0  0  # atno 10167 bound_to 10162
  156.4713  130.4525  149.6867 H   0  0  0  0  0  0  0  0  0  0  0  0  # atno 10718 bound_to 10713
  154.0153  135.2911  155.3387 H   0  0  0  0  0  0  0  0  0  0  0  0  # atno 10763 bound_to 10752
  154.7079  135.5162  153.8625 H   0  0  0  0  0  0  0  0  0  0  0  0  # atno 10764 bound_to 10752
  153.0705  135.6646  154.0380 H   0  0  0  0  0  0  0  0  0  0  0  0  # atno 10765 bound_to 10752
  141.1206  133.6612  156.4917 H   0  0  0  0  0  0  0  0  0  0  0  0  # atno 11005 bound_to 11000
  145.6455  139.1556  143.2891 LP  0  0  0  0  0  0  0  0  0  0  0  0  # atno 17320 bound_to 7965
  146.1776  140.6548  142.9204 LP  0  0  0  0  0  0  0  0  0  0  0  0  # atno 17321 bound_to 7965
  139.8371  143.7613  152.3180 LP  0  0  0  0  0  0  0  0  0  0  0  0  # atno 17342 bound_to 10162
  139.7749  144.7464  151.0171 LP  0  0  0  0  0  0  0  0  0  0  0  0  # atno 17343 bound_to 10162
  156.3615  130.7484  151.2456 LP  0  0  0  0  0  0  0  0  0  0  0  0  # atno 17370 bound_to 10713
  157.7491  131.0349  150.4337 LP  0  0  0  0  0  0  0  0  0  0  0  0  # atno 17371 bound_to 10713
  140.4518  134.6922  157.5043 LP  0  0  0  0  0  0  0  0  0  0  0  0  # atno 17394 bound_to 11000
  140.0161  134.6618  155.9308 LP  0  0  0  0  0  0  0  0  0  0  0  0  # atno 17395 bound_to 11000

$$$$
