AV-unprocessed.smi:213|AV-procd|sdf|1648|dock10
  -GOLD-   2262020 23D 1   1.00000     0.00000
 Structure written by MMmdl.
 58 61  0  0  0  0  0  0  0  0  1 V2000
  151.3280  139.8276  155.8029 C   0  0  0  0  0  0  0  0  0  0  0  0
  149.8970  140.1276  156.2932 C   0  0  1  0  0  0  0  0  0  0  0  0
  149.7929  141.4843  157.0318 C   0  0  0  0  0  0  0  0  0  0  0  0
  151.0306  141.9725  157.6426 N   0  0  0  0  0  0  0  0  0  0  0  0
  151.3034  141.2744  158.8941 C   0  0  0  0  0  0  0  0  0  0  0  0
  152.6144  141.7475  159.5434 C   0  0  0  0  0  0  0  0  0  0  0  0
  152.5544  143.1534  159.7578 O   0  0  0  0  0  0  0  0  0  0  0  0
  152.3390  143.8807  158.5531 C   0  0  0  0  0  0  0  0  0  0  0  0
  151.0344  143.4120  157.8845 C   0  0  0  0  0  0  0  0  0  0  0  0
  148.9628  140.0723  155.1649 N   0  0  0  0  0  0  0  0  0  0  0  0
  148.8477  141.1912  154.2316 C   0  0  0  0  0  0  0  0  0  0  0  0
  148.0449  139.0727  155.0657 C   0  0  0  0  0  0  0  0  0  0  0  0
  147.7923  138.3353  156.1800 N   0  0  0  0  0  0  0  0  0  0  0  0
  146.8951  137.3463  156.1540 C   0  0  0  0  0  0  0  0  0  0  0  0
  146.1479  136.9258  155.1332 N   0  0  0  0  0  0  0  0  0  0  0  0
  146.4023  137.6476  154.0054 C   0  0  0  0  0  0  0  0  0  0  0  0
  147.3257  138.7267  153.8809 C   0  0  0  0  0  0  0  0  0  0  0  0
  147.3151  139.1929  152.5699 N   0  0  0  0  0  0  0  0  0  0  0  0
  146.4332  138.4486  151.9633 C   0  0  0  0  0  0  0  0  0  0  0  0
  145.8363  137.4941  152.7520 N   0  0  0  0  0  0  0  0  0  0  0  0
  144.8300  136.5341  152.3346 C   0  0  0  0  0  0  0  0  0  0  0  0
  145.3389  135.5963  151.2230 C   0  0  1  0  0  0  0  0  0  0  0  0
  146.5726  135.0082  151.5902 O   0  0  0  0  0  0  0  0  0  0  0  0
  144.3092  134.5145  150.8380 C   0  0  1  0  0  0  0  0  0  0  0  0
  144.5718  133.7515  149.5371 C   0  0  0  0  0  0  0  0  0  0  0  0
  143.7566  132.4982  149.7660 C   0  0  0  0  0  0  0  0  0  0  0  0
  143.9849  132.2424  151.2544 C   0  0  0  0  0  0  0  0  0  0  0  0
  144.1619  133.5243  151.8524 O   0  0  0  0  0  0  0  0  0  0  0  0
  152.0405  139.7743  156.6237 H   0  0  0  0  0  0  0  0  0  0  0  0
  151.6906  140.5909  155.1143 H   0  0  0  0  0  0  0  0  0  0  0  0
  151.3658  138.8697  155.2832 H   0  0  0  0  0  0  0  0  0  0  0  0
  149.6415  139.3258  156.9852 H   0  0  0  0  0  0  0  0  0  0  0  0
  149.3758  142.2422  156.3671 H   0  0  0  0  0  0  0  0  0  0  0  0
  149.0591  141.3715  157.8314 H   0  0  0  0  0  0  0  0  0  0  0  0
  150.4791  141.4304  159.5919 H   0  0  0  0  0  0  0  0  0  0  0  0
  151.3609  140.2003  158.7138 H   0  0  0  0  0  0  0  0  0  0  0  0
  152.7679  141.2461  160.4990 H   0  0  0  0  0  0  0  0  0  0  0  0
  153.4696  141.5034  158.9109 H   0  0  0  0  0  0  0  0  0  0  0  0
  152.2858  144.9450  158.7828 H   0  0  0  0  0  0  0  0  0  0  0  0
  153.1869  143.7400  157.8809 H   0  0  0  0  0  0  0  0  0  0  0  0
  150.9277  143.9496  156.9436 H   0  0  0  0  0  0  0  0  0  0  0  0
  150.1834  143.6868  158.5092 H   0  0  0  0  0  0  0  0  0  0  0  0
  147.8030  141.4175  154.0152 H   0  0  0  0  0  0  0  0  0  0  0  0
  149.3514  140.9540  153.2942 H   0  0  0  0  0  0  0  0  0  0  0  0
  149.2991  142.0951  154.6403 H   0  0  0  0  0  0  0  0  0  0  0  0
  146.7549  136.8168  157.0846 H   0  0  0  0  0  0  0  0  0  0  0  0
  146.1962  138.5740  150.9168 H   0  0  0  0  0  0  0  0  0  0  0  0
  144.5092  135.9614  153.2057 H   0  0  0  0  0  0  0  0  0  0  0  0
  143.9571  137.0881  151.9880 H   0  0  0  0  0  0  0  0  0  0  0  0
  145.5371  136.1943  150.3325 H   0  0  0  0  0  0  0  0  0  0  0  0
  147.2471  135.6679  151.5396 H   0  0  0  0  0  0  0  0  0  0  0  0
  143.3320  134.9927  150.7488 H   0  0  0  0  0  0  0  0  0  0  0  0
  144.2659  134.3057  148.6493 H   0  0  0  0  0  0  0  0  0  0  0  0
  145.6240  133.4862  149.4292 H   0  0  0  0  0  0  0  0  0  0  0  0
  142.7011  132.6983  149.5758 H   0  0  0  0  0  0  0  0  0  0  0  0
  144.0655  131.6628  149.1370 H   0  0  0  0  0  0  0  0  0  0  0  0
  143.1601  131.6975  151.7142 H   0  0  0  0  0  0  0  0  0  0  0  0
  144.8973  131.6641  151.4043 H   0  0  0  0  0  0  0  0  0  0  0  0
  1  2  1  0  0  0  0
  1 29  1  0  0  0  0
  1 30  1  0  0  0  0
  1 31  1  0  0  0  0
  2  3  1  0  0  0  0
  2 10  1  0  0  0  0
  2 32  1  0  0  0  0
  3  4  1  0  0  0  0
  3 33  1  0  0  0  0
  3 34  1  0  0  0  0
  4  9  1  0  0  0  0
  4  5  1  0  0  0  0
  5  6  1  0  0  0  0
  5 35  1  0  0  0  0
  5 36  1  0  0  0  0
  6  7  1  0  0  0  0
  6 37  1  0  0  0  0
  6 38  1  0  0  0  0
  7  8  1  0  0  0  0
  8  9  1  0  0  0  0
  8 39  1  0  0  0  0
  8 40  1  0  0  0  0
  9 41  1  0  0  0  0
  9 42  1  0  0  0  0
 10 11  1  0  0  0  0
 10 12  1  0  0  0  0
 11 43  1  0  0  0  0
 11 44  1  0  0  0  0
 11 45  1  0  0  0  0
 12 17  1  0  0  0  0
 12 13  2  0  0  0  0
 13 14  1  0  0  0  0
 14 15  2  0  0  0  0
 14 46  1  0  0  0  0
 15 16  1  0  0  0  0
 16 20  1  0  0  0  0
 16 17  2  0  0  0  0
 17 18  1  0  0  0  0
 18 19  2  0  0  0  0
 19 20  1  0  0  0  0
 19 47  1  0  0  0  0
 20 21  1  0  0  0  0
 21 22  1  0  0  0  0
 21 48  1  0  0  0  0
 21 49  1  0  0  0  0
 22 23  1  0  0  0  0
 22 24  1  0  0  0  0
 22 50  1  0  0  0  0
 23 51  1  0  0  0  0
 24 28  1  0  0  0  0
 24 25  1  0  0  0  0
 24 52  1  0  0  0  0
 25 26  1  0  0  0  0
 25 53  1  0  0  0  0
 25 54  1  0  0  0  0
 26 27  1  0  0  0  0
 26 55  1  0  0  0  0
 26 56  1  0  0  0  0
 27 28  1  0  0  0  0
 27 57  1  0  0  0  0
 27 58  1  0  0  0  0
M  END
> <s_m_source_file>
AV-unprocessed.smi

> <i_m_source_file_index>
213

> <i_lp_mmshare_version>
43012

> <i_f3d_flags>
0

> <s_epik_input>
W0NIMl0xW0NIMl1PW0NIMl1bQ0gyXU4xW0NIMl1bQ0BASF0oW0NIM10pTihbQ0gzXSljKG5bY0hdbjIpYyhjMjMpbltjSF1uM1tDSDJdW0NASF0oW09IXSlbQ0BASF00W0NIMl1bQ0gyXVtDSDJdTzQ=

> <s_epik_cmdline>
J2VwaWtfcHl0aG9uJywgJy1waCcsICc3LjAnLCAnLXRuJywgJzgnLCAnLW1hJywgJzIwMCcsICctbWV0YWxfYmluZGluZycsICctaW1hZScsICc8aW5maWxlLm1hZT4nLCAnLW9tYWUnLCAnPG91dGZpbGUubWFlPic=

> <r_lp_tautomer_probability>
1

> <r_epik_Ionization_Penalty>
0.423322

> <r_epik_Ionization_Penalty_Charging>
0

> <r_epik_Ionization_Penalty_Neutral>
0.423322

> <r_epik_State_Penalty>
0.569486

> <r_epik_Charging_Adjusted_Penalty>
0.569486

> <i_epik_Tot_Q>
0

> <i_epik_Tot_abs_Q>
0

> <r_epik_Metal_State_Penalty>
0.568671

> <b_epik_Metal_Only>
0

> <s_lp_Force_Field>
OPLS_2005

> <r_lp_Energy>
55.4432

> <b_lp_Chiralities_Consistent>
1

> <s_lp_Variant>
AV-unprocessed.smi:213-16

> <Gold.Version>
5.8.1

> <Gold.Id.Protein>
6NUR|6NUR_protein|mol2

> <Gold.PLP.Fitness>
48.4248

> <Gold.PLP.PLP>
-44.5073

> <Gold.PLP.part.hbond>
-1.0000

> <Gold.PLP.part.metal>
0.0000

> <Gold.PLP.part.buried>
-4.1542

> <Gold.PLP.part.nonpolar>
-42.4628

> <Gold.PLP.part.repulsive>
2.7272

> <Gold.PLP.ligand.clash>
0.0000

> <Gold.PLP.ligand.torsion>
1.2197

> <Gold.PLP.Chemscore.Hbond>
0.9920

> <Gold.PLP.Chemscore.CHOScore>
1.0000

> <Gold.PLP.Chemscore.Metal>
0.0000

> <Gold.Chemscore.Hbonds>
donor molecule, donor type, donor heavy atom, donor atom, acceptor molecule, acceptor atom, score
      L1  H    23    51       P1  7948  1.00
      L1  C    19    47       P1 10171  0.91

> <Gold.PLP.Chemscore.Internal.Correction>
0.3808

> <Gold.Rescore>
     Score         DG    S(hbond)    S(metal)    S(lipo)     H(rot)  DE(clash)    DE(int)     intcor
     12.20     -14.24       0.98        0.00     106.78       2.74       0.04       2.00       ----

> <Gold.Chemscore.Fitness>
12.2050

> <Gold.Chemscore.DG>
-14.2358

> <Gold.Chemscore.ZeroCoef>
-5.4800

> <Gold.Chemscore.Hbond>
0.9795

> <Gold.Chemscore.Metal>
0.0000

> <Gold.Chemscore.Lipo>
106.7785

> <Gold.Chemscore.Internal_Hbond>
0.0000

> <Gold.Chemscore.DEClash>
0.0357

> <Gold.Chemscore.DEInternal>
1.9952

> <Gold.Chemscore.Rot>
2.7378

> <Gold.Chemscore.Internal.Correction>
   9.000000E+99

> <Gold.Chemscore.Hbonds>
donor molecule, donor type, donor heavy atom, donor atom, acceptor molecule, acceptor atom, score
      L1  H    23    51       P1  7948  0.95

> <Gold.Chemscore.Hbond.Weighted>
-3.2714

> <Gold.Chemscore.Metal.Weighted>
-0.0000

> <Gold.Chemscore.Lipo.Weighted>
-12.4931

> <Gold.Chemscore.Internal_Hbond.Weighted>
0.0000

> <Gold.Chemscore.DEClash.Weighted>
0.0357

> <Gold.Chemscore.DEInternal.Weighted>
1.9952

> <Gold.Chemscore.Rot.Weighted>
7.0087

> <Gold.Chemscore.Internal.Correction.Weighted>
   9.000000E+99

> <Gold.Protein.RotatedTorsions>
[ 6907 6896 6895 6894 ] final   57.22 input  -60.11 | X-H torsion
[ 7974 7965 7964 7962 ] final -178.40 input  175.53 | X-H torsion
[ 8008 7997 7996 7995 ] final   11.24 input   59.86 | X-H torsion
[ 10167 10162 10161 10158 ] final -138.19 input  -65.29 | X-H torsion
[ 10718 10713 10712 10709 ] final -153.43 input   66.30 | X-H torsion
[ 10763 10752 10751 10750 ] final   84.59 input  -60.55 | X-H torsion
[ 11005 11000 10999 10996 ] final   20.94 input  -57.11 | X-H torsion

> <Gold.Protein.ActiveResidues>
 VAL166  LYS551  ARG553  GLY616  TRP617  ASP618  TYR619  PRO620  LYS621  CYS622 
 ASP623  PHE694  ASN695  SER759  ASP760  ASP761  ALA762  ILE779  LEU786  VAL792 
 PHE793  MET794  SER795  GLU796  ALA797  LYS798  CYS799  TRP800  GLU811  SER814 

> <Gold.Protein.RotatedAtoms>
  152.3711  134.6732  160.0175 H   0  0  0  0  0  0  0  0  0  0  0  0  # atno 6907 bound_to 6896
  151.7025  133.3306  159.3278 H   0  0  0  0  0  0  0  0  0  0  0  0  # atno 6908 bound_to 6896
  150.7674  134.6538  159.6347 H   0  0  0  0  0  0  0  0  0  0  0  0  # atno 6909 bound_to 6896
  144.7131  140.0875  143.6423 H   0  0  0  0  0  0  0  0  0  0  0  0  # atno 7974 bound_to 7965
  154.8042  140.2857  155.5899 H   0  0  0  0  0  0  0  0  0  0  0  0  # atno 8008 bound_to 7997
  156.2981  140.2580  156.2846 H   0  0  0  0  0  0  0  0  0  0  0  0  # atno 8009 bound_to 7997
  154.9523  140.0379  157.2139 H   0  0  0  0  0  0  0  0  0  0  0  0  # atno 8010 bound_to 7997
  139.8503  143.7207  152.2658 H   0  0  0  0  0  0  0  0  0  0  0  0  # atno 10167 bound_to 10162
  156.4857  130.8324  151.2549 H   0  0  0  0  0  0  0  0  0  0  0  0  # atno 10718 bound_to 10713
  153.1396  135.4648  154.9475 H   0  0  0  0  0  0  0  0  0  0  0  0  # atno 10763 bound_to 10752
  154.7735  135.3166  154.8142 H   0  0  0  0  0  0  0  0  0  0  0  0  # atno 10764 bound_to 10752
  153.8668  135.6907  153.4832 H   0  0  0  0  0  0  0  0  0  0  0  0  # atno 10765 bound_to 10752
  140.3971  134.1758  155.7663 H   0  0  0  0  0  0  0  0  0  0  0  0  # atno 11005 bound_to 11000
  145.9649  139.2827  143.1133 LP  0  0  0  0  0  0  0  0  0  0  0  0  # atno 17320 bound_to 7965
  145.9180  140.9135  143.0420 LP  0  0  0  0  0  0  0  0  0  0  0  0  # atno 17321 bound_to 7965
  139.7472  144.7544  151.0562 LP  0  0  0  0  0  0  0  0  0  0  0  0  # atno 17342 bound_to 10162
  140.7788  143.4902  150.9902 LP  0  0  0  0  0  0  0  0  0  0  0  0  # atno 17343 bound_to 10162
  157.7479  131.0030  150.3022 LP  0  0  0  0  0  0  0  0  0  0  0  0  # atno 17370 bound_to 10713
  156.3477  130.3825  149.7355 LP  0  0  0  0  0  0  0  0  0  0  0  0  # atno 17371 bound_to 10713
  141.1870  133.8290  157.1047 LP  0  0  0  0  0  0  0  0  0  0  0  0  # atno 17394 bound_to 11000
  140.0364  134.9876  157.0879 LP  0  0  0  0  0  0  0  0  0  0  0  0  # atno 17395 bound_to 11000

$$$$
