AV-unprocessed.smi:1703|AV-procd|sdf|6879|dock6
  -GOLD-   22720 8 83D 1   1.00000     0.00000
 Structure written by MMmdl.
 50 52  0  0  0  0  0  0  0  0  3 V2000
  146.3804  133.9555  155.1302 C   0  0  0  0  0  0  0  0  0  0  0  0
  146.6063  134.4768  153.7070 C   0  0  2  0  0  0  0  0  0  0  0  0
  146.1309  135.9326  153.5393 C   0  0  0  0  0  0  0  0  0  0  0  0
  146.2957  136.3741  152.1321 N   0  3  2  0  0  0  0  0  0  0  0  0
  145.9011  137.7870  151.8960 C   0  0  0  0  0  0  0  0  0  0  0  0
  146.9356  138.8029  152.4222 C   0  0  1  0  0  0  0  0  0  0  0  0
  147.0529  139.8695  151.5001 O   0  0  0  0  0  0  0  0  0  0  0  0
  146.5203  139.3706  153.7946 C   0  0  0  0  0  0  0  0  0  0  0  0
  147.4788  140.3544  154.3245 N   0  0  0  0  0  0  0  0  0  0  0  0
  147.3660  141.7034  154.5074 C   0  0  0  0  0  0  0  0  0  0  0  0
  146.1866  142.5643  154.1946 C   0  0  0  0  0  0  0  0  0  0  0  0
  144.9853  142.0344  154.7081 O   0  0  0  0  0  0  0  0  0  0  0  0
  148.5488  142.1402  155.0252 N   0  3  0  0  0  0  0  0  0  0  0  0
  149.4236  141.0650  155.1813 C   0  0  0  0  0  0  0  0  0  0  0  0
  150.7271  141.0125  155.6653 C   0  0  0  0  0  0  0  0  0  0  0  0
  151.3410  139.7430  155.6934 C   0  0  0  0  0  0  0  0  0  0  0  0
  150.6624  138.5890  155.2504 C   0  0  0  0  0  0  0  0  0  0  0  0
  149.3417  138.6551  154.7598 C   0  0  0  0  0  0  0  0  0  0  0  0
  148.7421  139.9141  154.7358 C   0  0  0  0  0  0  0  0  0  0  0  0
  145.6030  135.4368  151.2165 C   0  0  0  0  0  0  0  0  0  0  0  0
  146.0922  133.9943  151.4459 C   0  0  2  0  0  0  0  0  0  0  0  0
  145.3431  132.9840  150.5703 C   0  0  0  0  0  0  0  0  0  0  0  0
  145.8807  133.6443  152.8091 O   0  0  0  0  0  0  0  0  0  0  0  0
  146.9311  134.5508  155.8590 H   0  0  0  0  0  0  0  0  0  0  0  0
  146.7157  132.9224  155.2247 H   0  0  0  0  0  0  0  0  0  0  0  0
  145.3244  133.9882  155.4003 H   0  0  0  0  0  0  0  0  0  0  0  0
  147.6715  134.4086  153.4784 H   0  0  0  0  0  0  0  0  0  0  0  0
  145.0818  136.0202  153.8273 H   0  0  0  0  0  0  0  0  0  0  0  0
  146.7003  136.5742  154.2106 H   0  0  0  0  0  0  0  0  0  0  0  0
  145.7665  137.9543  150.8261 H   0  0  0  0  0  0  0  0  0  0  0  0
  144.9270  137.9644  152.3546 H   0  0  0  0  0  0  0  0  0  0  0  0
  147.9134  138.3342  152.5230 H   0  0  0  0  0  0  0  0  0  0  0  0
  147.9058  139.8329  151.0947 H   0  0  0  0  0  0  0  0  0  0  0  0
  145.5440  139.8510  153.7275 H   0  0  0  0  0  0  0  0  0  0  0  0
  146.4128  138.5711  154.5290 H   0  0  0  0  0  0  0  0  0  0  0  0
  146.3408  143.5667  154.5933 H   0  0  0  0  0  0  0  0  0  0  0  0
  146.0914  142.6648  153.1132 H   0  0  0  0  0  0  0  0  0  0  0  0
  144.6515  141.3986  154.0929 H   0  0  0  0  0  0  0  0  0  0  0  0
  151.2489  141.8950  156.0056 H   0  0  0  0  0  0  0  0  0  0  0  0
  152.3524  139.6527  156.0628 H   0  0  0  0  0  0  0  0  0  0  0  0
  151.1655  137.6335  155.2879 H   0  0  0  0  0  0  0  0  0  0  0  0
  148.8315  137.7649  154.4229 H   0  0  0  0  0  0  0  0  0  0  0  0
  144.5254  135.5015  151.3768 H   0  0  0  0  0  0  0  0  0  0  0  0
  145.7921  135.7266  150.1820 H   0  0  0  0  0  0  0  0  0  0  0  0
  147.1577  133.9265  151.2187 H   0  0  0  0  0  0  0  0  0  0  0  0
  145.4795  133.2047  149.5112 H   0  0  0  0  0  0  0  0  0  0  0  0
  144.2728  132.9956  150.7797 H   0  0  0  0  0  0  0  0  0  0  0  0
  145.7056  131.9712  150.7471 H   0  0  0  0  0  0  0  0  0  0  0  0
  147.2787  136.3065  151.9105 H   0  0  0  0  0  0  0  0  0  0  0  0
  148.7406  143.1073  155.2528 H   0  0  0  0  0  0  0  0  0  0  0  0
  1  2  1  0  0  0  0
  1 24  1  0  0  0  0
  1 25  1  0  0  0  0
  1 26  1  0  0  0  0
  2 23  1  0  0  0  0
  2  3  1  0  0  0  0
  2 27  1  0  0  0  0
  3  4  1  0  0  0  0
  3 28  1  0  0  0  0
  3 29  1  0  0  0  0
  4  5  1  0  0  0  0
  4 20  1  0  0  0  0
  4 49  1  0  0  0  0
  5  6  1  0  0  0  0
  5 30  1  0  0  0  0
  5 31  1  0  0  0  0
  6  7  1  0  0  0  0
  6  8  1  0  0  0  0
  6 32  1  0  0  0  0
  7 33  1  0  0  0  0
  8  9  1  0  0  0  0
  8 34  1  0  0  0  0
  8 35  1  0  0  0  0
  9 19  1  0  0  0  0
  9 10  1  0  0  0  0
 10 11  1  0  0  0  0
 10 13  2  0  0  0  0
 11 12  1  0  0  0  0
 11 36  1  0  0  0  0
 11 37  1  0  0  0  0
 12 38  1  0  0  0  0
 13 14  1  0  0  0  0
 13 50  1  0  0  0  0
 14 19  2  0  0  0  0
 14 15  1  0  0  0  0
 15 16  2  0  0  0  0
 15 39  1  0  0  0  0
 16 17  1  0  0  0  0
 16 40  1  0  0  0  0
 17 18  2  0  0  0  0
 17 41  1  0  0  0  0
 18 19  1  0  0  0  0
 18 42  1  0  0  0  0
 20 21  1  0  0  0  0
 20 43  1  0  0  0  0
 20 44  1  0  0  0  0
 21 22  1  0  0  0  0
 21 23  1  0  0  0  0
 21 45  1  0  0  0  0
 22 46  1  0  0  0  0
 22 47  1  0  0  0  0
 22 48  1  0  0  0  0
M  CHG  1   4   1
M  CHG  1  13   1
M  END
> <s_m_source_file>
AV-unprocessed.smi

> <i_m_source_file_index>
1703

> <i_lp_mmshare_version>
43012

> <i_f3d_flags>
0

> <s_epik_input>
W0NIM11bQ0BASF0xW0NIMl1OKFtDSDJdW0NASF0oTzEpW0NIM10pW0NIMl1bQ0BIXShbT0hdKVtDSDJdbihjKG4yKVtDSDJdW09IXSljKGMyMylbY0hdW2NIXVtjSF1bY0hdMw==

> <s_epik_cmdline>
J2VwaWtfcHl0aG9uJywgJy1waCcsICc3LjAnLCAnLXRuJywgJzgnLCAnLW1hJywgJzIwMCcsICctbWV0YWxfYmluZGluZycsICctaW1hZScsICc8aW5maWxlLm1hZT4nLCAnLW9tYWUnLCAnPG91dGZpbGUubWFlPic=

> <r_epik_Ionization_Penalty>
2.22579

> <r_epik_Ionization_Penalty_Charging>
2.22492

> <r_epik_Ionization_Penalty_Neutral>
0.000870007

> <r_epik_State_Penalty>
2.3141

> <r_epik_Charging_Adjusted_Penalty>
4.53902

> <i_epik_Tot_Q>
2

> <i_epik_Tot_abs_Q>
2

> <r_epik_Metal_State_Penalty>
6.36517

> <b_epik_Metal_Only>
0

> <s_lp_Force_Field>
OPLS_2005

> <r_lp_Energy>
26.5271

> <b_lp_Chiralities_Consistent>
1

> <s_lp_Variant>
AV-unprocessed.smi:1703-27

> <Gold.Version>
5.8.1

> <Gold.Id.Protein>
6NUR|6NUR_protein|mol2

> <Gold.PLP.Fitness>
57.1453

> <Gold.PLP.PLP>
-40.9560

> <Gold.PLP.part.hbond>
-4.0000

> <Gold.PLP.part.metal>
0.0000

> <Gold.PLP.part.buried>
-2.2753

> <Gold.PLP.part.nonpolar>
-35.1192

> <Gold.PLP.part.repulsive>
0.3210

> <Gold.PLP.ligand.clash>
0.0000

> <Gold.PLP.ligand.torsion>
0.9138

> <Gold.PLP.Chemscore.Hbond>
6.0000

> <Gold.PLP.Chemscore.CHOScore>
0.0000

> <Gold.PLP.Chemscore.Metal>
0.0000

> <Gold.Chemscore.Hbonds>
donor molecule, donor type, donor heavy atom, donor atom, acceptor molecule, acceptor atom, score
      L1  H     4    49       P1  7948  2.00
      L1  H     7    33       P1  7957  1.00
      L1  H    12    38       P1 10175  0.89
      L1  H    13    50       P1  8028  2.00

> <Gold.PLP.Chemscore.Internal.Correction>
0.0169

> <Gold.Rescore>
     Score         DG    S(hbond)    S(metal)    S(lipo)     H(rot)  DE(clash)    DE(int)     intcor
     19.63     -20.54       3.69        0.00      89.83       3.04       0.16       0.74       ----

> <Gold.Chemscore.Fitness>
19.6328

> <Gold.Chemscore.DG>
-20.5352

> <Gold.Chemscore.ZeroCoef>
-5.4800

> <Gold.Chemscore.Hbond>
3.6890

> <Gold.Chemscore.Metal>
0.0000

> <Gold.Chemscore.Lipo>
89.8336

> <Gold.Chemscore.Internal_Hbond>
0.0000

> <Gold.Chemscore.DEClash>
0.1615

> <Gold.Chemscore.DEInternal>
0.7409

> <Gold.Chemscore.Rot>
3.0378

> <Gold.Chemscore.Internal.Correction>
   9.000000E+99

> <Gold.Chemscore.Hbonds>
donor molecule, donor type, donor heavy atom, donor atom, acceptor molecule, acceptor atom, score
      L1  H     4    49       P1  7948  1.00
      L1  H     7    33       P1  7957  0.91
      L1  H    12    38       P1 10175  0.39
      L1  H    13    50       P1  8028  1.00

> <Gold.Chemscore.Hbond.Weighted>
-12.3213

> <Gold.Chemscore.Metal.Weighted>
-0.0000

> <Gold.Chemscore.Lipo.Weighted>
-10.5105

> <Gold.Chemscore.Internal_Hbond.Weighted>
0.0000

> <Gold.Chemscore.DEClash.Weighted>
0.1615

> <Gold.Chemscore.DEInternal.Weighted>
0.7409

> <Gold.Chemscore.Rot.Weighted>
7.7767

> <Gold.Chemscore.Internal.Correction.Weighted>
   9.000000E+99

> <Gold.Protein.RotatedTorsions>
[ 6907 6896 6895 6894 ] final   -6.26 input  -60.11 | X-H torsion
[ 7974 7965 7964 7962 ] final -118.94 input  175.53 | X-H torsion
[ 8008 7997 7996 7995 ] final -128.83 input   59.86 | X-H torsion
[ 10167 10162 10161 10158 ] final   -0.70 input  -65.29 | X-H torsion
[ 10718 10713 10712 10709 ] final -162.92 input   66.30 | X-H torsion
[ 10763 10752 10751 10750 ] final -138.01 input  -60.55 | X-H torsion
[ 11005 11000 10999 10996 ] final -168.26 input  -57.11 | X-H torsion

> <Gold.Protein.ActiveResidues>
 VAL166  LYS551  ARG553  GLY616  TRP617  ASP618  TYR619  PRO620  LYS621  CYS622 
 ASP623  PHE694  ASN695  SER759  ASP760  ASP761  ALA762  ILE779  LEU786  VAL792 
 PHE793  MET794  SER795  GLU796  ALA797  LYS798  CYS799  TRP800  GLU811  SER814 

> <Gold.Protein.RotatedAtoms>
  151.4685  135.1044  159.9744 H   0  0  0  0  0  0  0  0  0  0  0  0  # atno 6907 bound_to 6896
  152.4826  133.8287  159.7102 H   0  0  0  0  0  0  0  0  0  0  0  0  # atno 6908 bound_to 6896
  150.8909  133.7184  159.2932 H   0  0  0  0  0  0  0  0  0  0  0  0  # atno 6909 bound_to 6896
  145.0681  140.8339  143.4112 H   0  0  0  0  0  0  0  0  0  0  0  0  # atno 7974 bound_to 7965
  155.2692  140.0439  157.3005 H   0  0  0  0  0  0  0  0  0  0  0  0  # atno 8008 bound_to 7997
  154.5663  140.2361  155.8227 H   0  0  0  0  0  0  0  0  0  0  0  0  # atno 8009 bound_to 7997
  156.2088  140.3005  155.9693 H   0  0  0  0  0  0  0  0  0  0  0  0  # atno 8010 bound_to 7997
  140.6778  143.6864  150.8064 H   0  0  0  0  0  0  0  0  0  0  0  0  # atno 10167 bound_to 10162
  156.6172  130.8875  151.2950 H   0  0  0  0  0  0  0  0  0  0  0  0  # atno 10718 bound_to 10713
  154.8648  135.3625  154.5316 H   0  0  0  0  0  0  0  0  0  0  0  0  # atno 10763 bound_to 10752
  153.5941  135.7014  153.5416 H   0  0  0  0  0  0  0  0  0  0  0  0  # atno 10764 bound_to 10752
  153.3347  135.4114  155.1486 H   0  0  0  0  0  0  0  0  0  0  0  0  # atno 10765 bound_to 10752
  140.5440  134.5494  157.5106 H   0  0  0  0  0  0  0  0  0  0  0  0  # atno 11005 bound_to 11000
  145.1326  139.2622  143.5532 LP  0  0  0  0  0  0  0  0  0  0  0  0  # atno 17320 bound_to 7965
  146.3527  140.0981  142.8609 LP  0  0  0  0  0  0  0  0  0  0  0  0  # atno 17321 bound_to 7965
  140.0559  143.5203  152.2651 LP  0  0  0  0  0  0  0  0  0  0  0  0  # atno 17342 bound_to 10162
  139.6082  144.7602  151.3013 LP  0  0  0  0  0  0  0  0  0  0  0  0  # atno 17343 bound_to 10162
  157.7238  130.9594  150.1547 LP  0  0  0  0  0  0  0  0  0  0  0  0  # atno 17370 bound_to 10713
  156.2341  130.3685  149.8411 LP  0  0  0  0  0  0  0  0  0  0  0  0  # atno 17371 bound_to 10713
  139.9489  134.7652  156.0495 LP  0  0  0  0  0  0  0  0  0  0  0  0  # atno 17394 bound_to 11000
  141.1210  133.6613  156.3216 LP  0  0  0  0  0  0  0  0  0  0  0  0  # atno 17395 bound_to 11000

$$$$
