AV-unprocessed.smi:196|AV-procd|sdf|1538|dock7
  -GOLD-   2262019393D 1   1.00000     0.00000
 Structure written by MMmdl.
 47 50  0  0  0  0  0  0  0  0  1 V2000
  151.9023  135.7752  156.5284 C   0  0  0  0  0  0  0  0  0  0  0  0
  150.9893  136.9759  156.2314 C   0  0  2  0  0  0  0  0  0  0  0  0
  149.7614  136.8587  156.9354 O   0  0  0  0  0  0  0  0  0  0  0  0
  148.8513  137.7591  156.3305 C   0  0  0  0  0  0  0  0  0  0  0  0
  149.0876  137.5242  154.8433 C   0  0  0  0  0  0  0  0  0  0  0  0
  150.5840  137.2089  154.7513 C   0  0  2  0  0  0  0  0  0  0  0  0
  150.7397  136.0345  153.9713 O   0  0  0  0  0  0  0  0  0  0  0  0
  151.3788  138.3510  154.0715 C   0  0  0  0  0  0  0  0  0  0  0  0
  151.1802  139.6493  154.6981 N   0  0  0  0  0  0  0  0  0  0  0  0
  150.5019  140.7256  154.1699 C   0  0  0  0  0  0  0  0  0  0  0  0
  150.4676  141.7894  154.9249 N   0  0  0  0  0  0  0  0  0  0  0  0
  151.1657  141.4138  156.0648 C   0  0  0  0  0  0  0  0  0  0  0  0
  151.5005  142.0756  157.2752 C   0  0  0  0  0  0  0  0  0  0  0  0
  151.1376  143.3674  157.4922 N   0  0  0  0  0  0  0  0  0  0  0  0
  152.2149  144.1243  158.1211 C   0  0  0  0  0  0  0  0  0  0  0  0
  151.8656  144.2224  159.6152 C   0  0  2  0  0  0  0  0  0  0  0  0
  152.6611  143.4428  160.3481 F   0  0  0  0  0  0  0  0  0  0  0  0
  150.4102  143.7501  159.7221 C   0  0  0  0  0  0  0  0  0  0  0  0
  149.9322  143.7084  158.2612 C   0  0  2  0  0  0  0  0  0  0  0  0
  148.6613  142.8721  157.9981 C   0  0  0  0  0  0  0  0  0  0  0  0
  148.3077  142.6901  156.7232 N   0  0  0  0  0  0  0  0  0  0  0  0
  148.0302  142.3577  158.9200 O   0  0  0  0  0  0  0  0  0  0  0  0
  152.2288  141.3827  158.1915 N   0  0  0  0  0  0  0  0  0  0  0  0
  152.5850  140.1182  157.9483 C   0  0  0  0  0  0  0  0  0  0  0  0
  152.3326  139.3726  156.8706 N   0  0  0  0  0  0  0  0  0  0  0  0
  151.6167  140.0701  155.9426 C   0  0  0  0  0  0  0  0  0  0  0  0
  151.9906  145.2425  159.9794 H   0  0  0  0  0  0  0  0  0  0  0  0
  149.6717  144.7260  157.9636 H   0  0  0  0  0  0  0  0  0  0  0  0
  152.8452  135.8546  155.9868 H   0  0  0  0  0  0  0  0  0  0  0  0
  151.4299  134.8326  156.2511 H   0  0  0  0  0  0  0  0  0  0  0  0
  152.1361  135.7235  157.5917 H   0  0  0  0  0  0  0  0  0  0  0  0
  151.4672  137.8755  156.6200 H   0  0  0  0  0  0  0  0  0  0  0  0
  147.8231  137.5584  156.6321 H   0  0  0  0  0  0  0  0  0  0  0  0
  149.1019  138.7835  156.6114 H   0  0  0  0  0  0  0  0  0  0  0  0
  148.4862  136.6707  154.5250 H   0  0  0  0  0  0  0  0  0  0  0  0
  148.7838  138.3786  154.2374 H   0  0  0  0  0  0  0  0  0  0  0  0
  150.1752  136.0987  153.2164 H   0  0  0  0  0  0  0  0  0  0  0  0
  152.4469  138.1285  154.0792 H   0  0  0  0  0  0  0  0  0  0  0  0
  151.0939  138.4308  153.0216 H   0  0  0  0  0  0  0  0  0  0  0  0
  150.0358  140.6996  153.1957 H   0  0  0  0  0  0  0  0  0  0  0  0
  153.2045  143.6898  157.9631 H   0  0  0  0  0  0  0  0  0  0  0  0
  152.2341  145.1184  157.6729 H   0  0  0  0  0  0  0  0  0  0  0  0
  150.3607  142.7609  160.1795 H   0  0  0  0  0  0  0  0  0  0  0  0
  149.8089  144.4241  160.3331 H   0  0  0  0  0  0  0  0  0  0  0  0
  147.4870  142.1463  156.4997 H   0  0  0  0  0  0  0  0  0  0  0  0
  148.8675  143.0944  155.9866 H   0  0  0  0  0  0  0  0  0  0  0  0
  153.1555  139.6358  158.7282 H   0  0  0  0  0  0  0  0  0  0  0  0
  1  2  1  0  0  0  0
  1 29  1  0  0  0  0
  1 30  1  0  0  0  0
  1 31  1  0  0  0  0
  2  6  1  0  0  0  0
  2  3  1  0  0  0  0
  2 32  1  0  0  0  0
  3  4  1  0  0  0  0
  4  5  1  0  0  0  0
  4 33  1  0  0  0  0
  4 34  1  0  0  0  0
  5  6  1  0  0  0  0
  5 35  1  0  0  0  0
  5 36  1  0  0  0  0
  6  7  1  0  0  0  0
  6  8  1  0  0  0  0
  7 37  1  0  0  0  0
  8  9  1  0  0  0  0
  8 38  1  0  0  0  0
  8 39  1  0  0  0  0
  9 26  1  0  0  0  0
  9 10  1  0  0  0  0
 10 11  2  0  0  0  0
 10 40  1  0  0  0  0
 11 12  1  0  0  0  0
 12 26  2  0  0  0  0
 12 13  1  0  0  0  0
 13 14  1  0  0  0  0
 13 23  2  0  0  0  0
 14 19  1  0  0  0  0
 14 15  1  0  0  0  0
 15 16  1  0  0  0  0
 15 41  1  0  0  0  0
 15 42  1  0  0  0  0
 16 27  1  0  0  0  0
 16 17  1  0  0  0  0
 16 18  1  0  0  0  0
 18 19  1  0  0  0  0
 18 43  1  0  0  0  0
 18 44  1  0  0  0  0
 19 28  1  0  0  0  0
 19 20  1  0  0  0  0
 20 21  1  0  0  0  0
 20 22  2  0  0  0  0
 21 45  1  0  0  0  0
 21 46  1  0  0  0  0
 23 24  1  0  0  0  0
 24 25  2  0  0  0  0
 24 47  1  0  0  0  0
 25 26  1  0  0  0  0
M  END
> <s_m_source_file>
AV-unprocessed.smi

> <i_m_source_file_index>
196

> <i_lp_mmshare_version>
43012

> <i_f3d_flags>
0

> <s_epik_input>
W0NIMl0xW0NIMl1PW0NAQEhdKFtDSDNdKVtDQEBdMShbT0hdKVtDSDJdbihbY0hdbjIpYyhjMjMpbltjSF1uYzNONFtDSDJdW0NASF0oRilbQ0gyXVtDQEhdNEMoPU8pW05IMl0=

> <s_epik_cmdline>
J2VwaWtfcHl0aG9uJywgJy1waCcsICc3LjAnLCAnLXRuJywgJzgnLCAnLW1hJywgJzIwMCcsICctbWV0YWxfYmluZGluZycsICctaW1hZScsICc8aW5maWxlLm1hZT4nLCAnLW9tYWUnLCAnPG91dGZpbGUubWFlPic=

> <r_lp_tautomer_probability>
1

> <r_epik_Ionization_Penalty>
0.000857933

> <r_epik_Ionization_Penalty_Charging>
0

> <r_epik_Ionization_Penalty_Neutral>
0.000857933

> <r_epik_State_Penalty>
0.000462053

> <r_epik_Charging_Adjusted_Penalty>
0.000462053

> <i_epik_Tot_Q>
0

> <i_epik_Tot_abs_Q>
0

> <r_epik_Metal_State_Penalty>
-0

> <b_epik_Metal_Only>
0

> <s_lp_Force_Field>
OPLS_2005

> <r_lp_Energy>
50.5725

> <b_lp_Chiralities_Consistent>
1

> <s_lp_Variant>
AV-unprocessed.smi:196-11

> <Gold.Version>
5.8.1

> <Gold.Id.Protein>
6NUR|6NUR_protein|mol2

> <Gold.PLP.Fitness>
44.4648

> <Gold.PLP.PLP>
-36.1409

> <Gold.PLP.part.hbond>
-5.5488

> <Gold.PLP.part.metal>
0.0000

> <Gold.PLP.part.buried>
3.4120

> <Gold.PLP.part.nonpolar>
-34.5086

> <Gold.PLP.part.repulsive>
0.4077

> <Gold.PLP.ligand.clash>
0.0000

> <Gold.PLP.ligand.torsion>
0.8458

> <Gold.PLP.Chemscore.Hbond>
2.3150

> <Gold.PLP.Chemscore.CHOScore>
1.0000

> <Gold.PLP.Chemscore.Metal>
0.0000

> <Gold.Chemscore.Hbonds>
donor molecule, donor type, donor heavy atom, donor atom, acceptor molecule, acceptor atom, score
      L1  H     7    37       P1  7948  0.15
      L1  H    21    46       P1  8028  0.45
      P1  H 10752 10764       L1     7  0.39
      L1  C    10    40       P1  7957  1.00

> <Gold.PLP.Chemscore.Internal.Correction>
0.0703

> <Gold.Rescore>
     Score         DG    S(hbond)    S(metal)    S(lipo)     H(rot)  DE(clash)    DE(int)     intcor
      9.48     -12.18       1.99        0.00      67.08       3.04       0.64       2.06       ----

> <Gold.Chemscore.Fitness>
9.4831

> <Gold.Chemscore.DG>
-12.1817

> <Gold.Chemscore.ZeroCoef>
-5.4800

> <Gold.Chemscore.Hbond>
1.9876

> <Gold.Chemscore.Metal>
0.0000

> <Gold.Chemscore.Lipo>
67.0827

> <Gold.Chemscore.Internal_Hbond>
0.0000

> <Gold.Chemscore.DEClash>
0.6370

> <Gold.Chemscore.DEInternal>
2.0616

> <Gold.Chemscore.Rot>
3.0413

> <Gold.Chemscore.Internal.Correction>
   9.000000E+99

> <Gold.Chemscore.Hbonds>
donor molecule, donor type, donor heavy atom, donor atom, acceptor molecule, acceptor atom, score
      L1  H    21    46       P1  8028  0.44
      P1  H 10752 10764       L1     7  0.09

> <Gold.Chemscore.Hbond.Weighted>
-6.6387

> <Gold.Chemscore.Metal.Weighted>
-0.0000

> <Gold.Chemscore.Lipo.Weighted>
-7.8487

> <Gold.Chemscore.Internal_Hbond.Weighted>
0.0000

> <Gold.Chemscore.DEClash.Weighted>
0.6370

> <Gold.Chemscore.DEInternal.Weighted>
2.0616

> <Gold.Chemscore.Rot.Weighted>
7.7856

> <Gold.Chemscore.Internal.Correction.Weighted>
   9.000000E+99

> <Gold.Protein.RotatedTorsions>
[ 6907 6896 6895 6894 ] final -150.86 input  -60.11 | X-H torsion
[ 7974 7965 7964 7962 ] final   58.34 input  175.53 | X-H torsion
[ 8008 7997 7996 7995 ] final   62.83 input   59.86 | X-H torsion
[ 10167 10162 10161 10158 ] final -103.32 input  -65.29 | X-H torsion
[ 10718 10713 10712 10709 ] final  -71.15 input   66.30 | X-H torsion
[ 10763 10752 10751 10750 ] final  -66.74 input  -60.55 | X-H torsion
[ 11005 11000 10999 10996 ] final   52.40 input  -57.11 | X-H torsion

> <Gold.Protein.ActiveResidues>
 VAL166  LYS551  ARG553  GLY616  TRP617  ASP618  TYR619  PRO620  LYS621  CYS622 
 ASP623  PHE694  ASN695  SER759  ASP760  ASP761  ALA762  ILE779  LEU786  VAL792 
 PHE793  MET794  SER795  GLU796  ALA797  LYS798  CYS799  TRP800  GLU811  SER814 

> <Gold.Protein.RotatedAtoms>
  151.2047  133.4590  159.2596 H   0  0  0  0  0  0  0  0  0  0  0  0  # atno 6907 bound_to 6896
  151.1035  134.9986  159.8470 H   0  0  0  0  0  0  0  0  0  0  0  0  # atno 6908 bound_to 6896
  152.5445  134.1972  159.8750 H   0  0  0  0  0  0  0  0  0  0  0  0  # atno 6909 bound_to 6896
  145.9193  139.3716  143.0488 H   0  0  0  0  0  0  0  0  0  0  0  0  # atno 7974 bound_to 7965
  155.6206  140.3495  155.4651 H   0  0  0  0  0  0  0  0  0  0  0  0  # atno 8008 bound_to 7997
  156.0082  140.1227  157.0504 H   0  0  0  0  0  0  0  0  0  0  0  0  # atno 8009 bound_to 7997
  154.4271  140.1087  156.5778 H   0  0  0  0  0  0  0  0  0  0  0  0  # atno 8010 bound_to 7997
  140.2212  143.3674  152.0968 H   0  0  0  0  0  0  0  0  0  0  0  0  # atno 10167 bound_to 10162
  156.0375  130.4345  150.2402 H   0  0  0  0  0  0  0  0  0  0  0  0  # atno 10718 bound_to 10713
  154.3643  135.6109  153.5707 H   0  0  0  0  0  0  0  0  0  0  0  0  # atno 10763 bound_to 10752
  152.9792  135.5823  154.4596 H   0  0  0  0  0  0  0  0  0  0  0  0  # atno 10764 bound_to 10752
  154.4339  135.2848  155.1871 H   0  0  0  0  0  0  0  0  0  0  0  0  # atno 10765 bound_to 10752
  140.0853  134.5283  155.8906 H   0  0  0  0  0  0  0  0  0  0  0  0  # atno 11005 bound_to 11000
  145.8571  140.9496  143.0719 LP  0  0  0  0  0  0  0  0  0  0  0  0  # atno 17320 bound_to 7965
  144.6751  140.0482  143.7479 LP  0  0  0  0  0  0  0  0  0  0  0  0  # atno 17321 bound_to 7965
  139.5143  144.6946  151.5665 LP  0  0  0  0  0  0  0  0  0  0  0  0  # atno 17342 bound_to 10162
  140.6253  143.9180  150.6560 LP  0  0  0  0  0  0  0  0  0  0  0  0  # atno 17343 bound_to 10162
  157.0500  131.0060  151.3257 LP  0  0  0  0  0  0  0  0  0  0  0  0  # atno 17370 bound_to 10713
  157.5148  130.7961  149.7744 LP  0  0  0  0  0  0  0  0  0  0  0  0  # atno 17371 bound_to 10713
  141.2060  133.6652  156.6217 LP  0  0  0  0  0  0  0  0  0  0  0  0  # atno 17394 bound_to 11000
  140.3430  134.7833  157.4411 LP  0  0  0  0  0  0  0  0  0  0  0  0  # atno 17395 bound_to 11000

$$$$
