AV-unprocessed.smi:1056|AV-procd|sdf|4647|dock9
  -GOLD-   22720 3153D 1   1.00000     0.00000
 Structure written by MMmdl.
 45 47  0  0  0  0  0  0  0  0  4 V2000
  152.4011  143.8334  159.8728 C   0  0  0  0  0  0  0  0  0  0  0  0
  152.0547  142.7532  158.8621 C   0  0  0  0  0  0  0  0  0  0  0  0
  151.1933  143.0829  157.7914 C   0  0  0  0  0  0  0  0  0  0  0  0
  150.8964  142.0743  156.8826 C   0  0  0  0  0  0  0  0  0  0  0  0
  150.0924  142.0781  155.7408 N   0  3  0  0  0  0  0  0  0  0  0  0
  150.1103  140.8428  155.1680 C   0  0  0  0  0  0  0  0  0  0  0  0
  150.9127  140.0498  155.9291 N   0  0  0  0  0  0  0  0  0  0  0  0
  151.2751  138.6362  155.7618 C   0  0  0  0  0  0  0  0  0  0  0  0
  150.2637  137.8536  154.9009 C   0  0  1  0  0  0  0  0  0  0  0  0
  150.3996  138.2570  153.5510 O   0  0  0  0  0  0  0  0  0  0  0  0
  150.4978  136.3325  154.9991 C   0  0  0  0  0  0  0  0  0  0  0  0
  149.3641  135.5425  154.4573 N   0  3  2  0  0  0  0  0  0  0  0  0
  148.0552  135.8742  155.0792 C   0  0  0  0  0  0  0  0  0  0  0  0
  146.9068  135.2572  154.2589 C   0  0  0  0  0  0  0  0  0  0  0  0
  147.1947  133.8493  153.9603 N   0  5  0  0  0  0  0  0  0  0  0  0
  148.4294  133.2560  153.9418 C   0  0  0  0  0  0  0  0  0  0  0  0
  148.6638  132.1092  153.5673 O   0  0  0  0  0  0  0  0  0  0  0  0
  149.6309  134.0774  154.4834 C   0  0  0  0  0  0  0  0  0  0  0  0
  151.4249  140.7751  157.0099 C   0  0  0  0  0  0  0  0  0  0  0  0
  152.2744  140.4325  158.0589 C   0  0  0  0  0  0  0  0  0  0  0  0
  152.5879  141.4445  158.9945 C   0  0  0  0  0  0  0  0  0  0  0  0
  153.5115  141.1016  160.1509 C   0  0  0  0  0  0  0  0  0  0  0  0
  151.8975  144.7726  159.6421 H   0  0  0  0  0  0  0  0  0  0  0  0
  153.4745  144.0234  159.8762 H   0  0  0  0  0  0  0  0  0  0  0  0
  152.0990  143.5317  160.8757 H   0  0  0  0  0  0  0  0  0  0  0  0
  150.7836  144.0769  157.6842 H   0  0  0  0  0  0  0  0  0  0  0  0
  149.5808  140.5452  154.2743 H   0  0  0  0  0  0  0  0  0  0  0  0
  152.2656  138.6052  155.3053 H   0  0  0  0  0  0  0  0  0  0  0  0
  151.3767  138.1882  156.7511 H   0  0  0  0  0  0  0  0  0  0  0  0
  149.2567  138.1083  155.2288 H   0  0  0  0  0  0  0  0  0  0  0  0
  149.8857  137.6817  153.0047 H   0  0  0  0  0  0  0  0  0  0  0  0
  151.4138  136.0859  154.4593 H   0  0  0  0  0  0  0  0  0  0  0  0
  150.6692  136.0360  156.0352 H   0  0  0  0  0  0  0  0  0  0  0  0
  148.0357  135.4999  156.1042 H   0  0  0  0  0  0  0  0  0  0  0  0
  147.9084  136.9517  155.1387 H   0  0  0  0  0  0  0  0  0  0  0  0
  145.9705  135.3765  154.8032 H   0  0  0  0  0  0  0  0  0  0  0  0
  146.7916  135.8304  153.3388 H   0  0  0  0  0  0  0  0  0  0  0  0
  150.5124  133.8556  153.8803 H   0  0  0  0  0  0  0  0  0  0  0  0
  149.8442  133.7561  155.5041 H   0  0  0  0  0  0  0  0  0  0  0  0
  152.6799  139.4366  158.1589 H   0  0  0  0  0  0  0  0  0  0  0  0
  153.8470  140.0654  160.1010 H   0  0  0  0  0  0  0  0  0  0  0  0
  152.9996  141.2404  161.1034 H   0  0  0  0  0  0  0  0  0  0  0  0
  154.3963  141.7387  160.1369 H   0  0  0  0  0  0  0  0  0  0  0  0
  149.2805  135.7824  153.4801 H   0  0  0  0  0  0  0  0  0  0  0  0
  149.5692  142.8642  155.3765 H   0  0  0  0  0  0  0  0  0  0  0  0
  1  2  1  0  0  0  0
  1 23  1  0  0  0  0
  1 24  1  0  0  0  0
  1 25  1  0  0  0  0
  2 21  1  0  0  0  0
  2  3  2  0  0  0  0
  3  4  1  0  0  0  0
  3 26  1  0  0  0  0
  4 19  2  0  0  0  0
  4  5  1  0  0  0  0
  5  6  2  0  0  0  0
  5 45  1  0  0  0  0
  6  7  1  0  0  0  0
  6 27  1  0  0  0  0
  7  8  1  0  0  0  0
  7 19  1  0  0  0  0
  8  9  1  0  0  0  0
  8 28  1  0  0  0  0
  8 29  1  0  0  0  0
  9 10  1  0  0  0  0
  9 11  1  0  0  0  0
  9 30  1  0  0  0  0
 10 31  1  0  0  0  0
 11 12  1  0  0  0  0
 11 32  1  0  0  0  0
 11 33  1  0  0  0  0
 12 18  1  0  0  0  0
 12 13  1  0  0  0  0
 12 44  1  0  0  0  0
 13 14  1  0  0  0  0
 13 34  1  0  0  0  0
 13 35  1  0  0  0  0
 14 15  1  0  0  0  0
 14 36  1  0  0  0  0
 14 37  1  0  0  0  0
 15 16  1  0  0  0  0
 16 17  2  0  0  0  0
 16 18  1  0  0  0  0
 18 38  1  0  0  0  0
 18 39  1  0  0  0  0
 19 20  1  0  0  0  0
 20 21  2  0  0  0  0
 20 40  1  0  0  0  0
 21 22  1  0  0  0  0
 22 41  1  0  0  0  0
 22 42  1  0  0  0  0
 22 43  1  0  0  0  0
M  CHG  1   5   1
M  CHG  1  12   1
M  CHG  1  15  -1
M  END
> <s_m_source_file>
AV-unprocessed.smi

> <i_m_source_file_index>
1056

> <i_lp_mmshare_version>
43012

> <i_f3d_flags>
0

> <s_epik_input>
W0NIM11jKFtjSF0xKWMoW0NIM10pW2NIXWMoYzEyKW4oW2NIXW4yKVtDSDJdW0NASF0oW09IXSlbQ0gyXU4zW0NIMl1bQ0gyXVtOSF1DKD1PKVtDSDJdMw==

> <s_epik_cmdline>
J2VwaWtfcHl0aG9uJywgJy1waCcsICc3LjAnLCAnLXRuJywgJzgnLCAnLW1hJywgJzIwMCcsICctbWV0YWxfYmluZGluZycsICctaW1hZScsICc8aW5maWxlLm1hZT4nLCAnLW9tYWUnLCAnPG91dGZpbGUubWFlPic=

> <r_epik_Ionization_Penalty>
6.22415

> <r_epik_Ionization_Penalty_Charging>
6.22415

> <r_epik_Ionization_Penalty_Neutral>
4.02797e-07

> <r_epik_State_Penalty>
6.37716

> <r_epik_Charging_Adjusted_Penalty>
12.6013

> <i_epik_Tot_Q>
1

> <i_epik_Tot_abs_Q>
3

> <r_epik_Metal_State_Penalty>
2.53509

> <b_epik_Metal_Only>
1

> <s_lp_Force_Field>
OPLS_2005

> <r_lp_Energy>
25.2777

> <b_lp_Chiralities_Consistent>
1

> <s_lp_Variant>
AV-unprocessed.smi:1056-18

> <Gold.Version>
5.8.1

> <Gold.Id.Protein>
6NUR|6NUR_protein|mol2

> <Gold.PLP.Fitness>
55.9704

> <Gold.PLP.PLP>
-41.9121

> <Gold.PLP.part.hbond>
-4.5936

> <Gold.PLP.part.metal>
0.0000

> <Gold.PLP.part.buried>
-2.6998

> <Gold.PLP.part.nonpolar>
-33.9896

> <Gold.PLP.part.repulsive>
0.3673

> <Gold.PLP.ligand.clash>
0.0000

> <Gold.PLP.ligand.torsion>
0.4860

> <Gold.PLP.Chemscore.Hbond>
5.0000

> <Gold.PLP.Chemscore.CHOScore>
0.0000

> <Gold.PLP.Chemscore.Metal>
0.0000

> <Gold.Chemscore.Hbonds>
donor molecule, donor type, donor heavy atom, donor atom, acceptor molecule, acceptor atom, score
      L1  H     5    45       P1  8028  1.95
      L1  H    10    31       P1  7948  1.00
      L1  H    12    44       P1  7948  2.00

> <Gold.PLP.Chemscore.Internal.Correction>
0.0304

> <Gold.Rescore>
     Score         DG    S(hbond)    S(metal)    S(lipo)     H(rot)  DE(clash)    DE(int)     intcor
     19.77     -20.31       2.87        0.00      96.62       2.37       0.03       0.51       ----

> <Gold.Chemscore.Fitness>
19.7705

> <Gold.Chemscore.DG>
-20.3058

> <Gold.Chemscore.ZeroCoef>
-5.4800

> <Gold.Chemscore.Hbond>
2.8725

> <Gold.Chemscore.Metal>
0.0000

> <Gold.Chemscore.Lipo>
96.6246

> <Gold.Chemscore.Internal_Hbond>
0.0000

> <Gold.Chemscore.DEClash>
0.0263

> <Gold.Chemscore.DEInternal>
0.5090

> <Gold.Chemscore.Rot>
2.3724

> <Gold.Chemscore.Internal.Correction>
   9.000000E+99

> <Gold.Chemscore.Hbonds>
donor molecule, donor type, donor heavy atom, donor atom, acceptor molecule, acceptor atom, score
      L1  H     5    45       P1  8028  0.90
      L1  H    10    31       P1  7948  0.37
      L1  H    12    44       P1  7948  0.55

> <Gold.Chemscore.Hbond.Weighted>
-9.5941

> <Gold.Chemscore.Metal.Weighted>
-0.0000

> <Gold.Chemscore.Lipo.Weighted>
-11.3051

> <Gold.Chemscore.Internal_Hbond.Weighted>
0.0000

> <Gold.Chemscore.DEClash.Weighted>
0.0263

> <Gold.Chemscore.DEInternal.Weighted>
0.5090

> <Gold.Chemscore.Rot.Weighted>
6.0734

> <Gold.Chemscore.Internal.Correction.Weighted>
   9.000000E+99

> <Gold.Protein.RotatedTorsions>
[ 6907 6896 6895 6894 ] final -156.71 input  -60.11 | X-H torsion
[ 7974 7965 7964 7962 ] final  -26.65 input  175.53 | X-H torsion
[ 8008 7997 7996 7995 ] final  127.22 input   59.86 | X-H torsion
[ 10167 10162 10161 10158 ] final  -99.34 input  -65.29 | X-H torsion
[ 10718 10713 10712 10709 ] final -127.54 input   66.30 | X-H torsion
[ 10763 10752 10751 10750 ] final  168.98 input  -60.55 | X-H torsion
[ 11005 11000 10999 10996 ] final -119.69 input  -57.11 | X-H torsion

> <Gold.Protein.ActiveResidues>
 VAL166  LYS551  ARG553  GLY616  TRP617  ASP618  TYR619  PRO620  LYS621  CYS622 
 ASP623  PHE694  ASN695  SER759  ASP760  ASP761  ALA762  ILE779  LEU786  VAL792 
 PHE793  MET794  SER795  GLU796  ALA797  LYS798  CYS799  TRP800  GLU811  SER814 

> <Gold.Protein.RotatedAtoms>
  151.2917  133.4162  159.2633 H   0  0  0  0  0  0  0  0  0  0  0  0  # atno 6907 bound_to 6896
  151.0271  134.9513  159.8101 H   0  0  0  0  0  0  0  0  0  0  0  0  # atno 6908 bound_to 6896
  152.5337  134.2879  159.9084 H   0  0  0  0  0  0  0  0  0  0  0  0  # atno 6909 bound_to 6896
  146.1411  140.5048  142.8651 H   0  0  0  0  0  0  0  0  0  0  0  0  # atno 7974 bound_to 7965
  156.2885  140.2674  156.2238 H   0  0  0  0  0  0  0  0  0  0  0  0  # atno 8008 bound_to 7997
  155.0142  140.0387  157.2429 H   0  0  0  0  0  0  0  0  0  0  0  0  # atno 8009 bound_to 7997
  154.7492  140.2740  155.6312 H   0  0  0  0  0  0  0  0  0  0  0  0  # atno 8010 bound_to 7997
  140.2635  143.3392  152.0603 H   0  0  0  0  0  0  0  0  0  0  0  0  # atno 10167 bound_to 10162
  156.1866  130.6767  151.0372 H   0  0  0  0  0  0  0  0  0  0  0  0  # atno 10718 bound_to 10713
  154.3765  135.2753  155.2236 H   0  0  0  0  0  0  0  0  0  0  0  0  # atno 10763 bound_to 10752
  154.4361  135.5965  153.6103 H   0  0  0  0  0  0  0  0  0  0  0  0  # atno 10764 bound_to 10752
  152.9836  135.6007  154.4003 H   0  0  0  0  0  0  0  0  0  0  0  0  # atno 10765 bound_to 10752
  141.0197  134.0142  157.3299 H   0  0  0  0  0  0  0  0  0  0  0  0  # atno 11005 bound_to 11000
  144.7793  140.5807  143.6616 LP  0  0  0  0  0  0  0  0  0  0  0  0  # atno 17320 bound_to 7965
  145.5045  139.1482  143.3639 LP  0  0  0  0  0  0  0  0  0  0  0  0  # atno 17321 bound_to 7965
  139.5010  144.6703  151.6257 LP  0  0  0  0  0  0  0  0  0  0  0  0  # atno 17342 bound_to 10162
  140.5947  143.9717  150.6347 LP  0  0  0  0  0  0  0  0  0  0  0  0  # atno 17343 bound_to 10162
  157.6903  131.0812  150.7127 LP  0  0  0  0  0  0  0  0  0  0  0  0  # atno 17370 bound_to 10713
  156.7184  130.4673  149.5529 LP  0  0  0  0  0  0  0  0  0  0  0  0  # atno 17371 bound_to 10713
  139.9138  135.0194  156.7801 LP  0  0  0  0  0  0  0  0  0  0  0  0  # atno 17394 bound_to 11000
  140.6594  133.9659  155.7796 LP  0  0  0  0  0  0  0  0  0  0  0  0  # atno 17395 bound_to 11000

$$$$
