AV-unprocessed.smi:105|AV-procd|sdf|1010|dock1
  -GOLD-   2262018 03D 1   1.00000     0.00000
 Structure written by MMmdl.
 42 45  0  0  0  0  0  0  0  0  1 V2000
  150.6204  131.4656  153.9100 C   0  0  0  0  0  0  0  0  0  0  0  0
  149.6573  132.3124  153.3277 C   0  0  0  0  0  0  0  0  0  0  0  0
  149.4965  133.6285  153.8035 C   0  0  0  0  0  0  0  0  0  0  0  0
  150.2999  134.1016  154.8619 C   0  0  0  0  0  0  0  0  0  0  0  0
  150.1196  135.5133  155.3797 C   0  0  0  0  0  0  0  0  0  0  0  0
  150.3854  136.5233  154.3649 N   0  0  0  0  0  0  0  0  0  0  0  0
  151.2160  137.5526  154.6364 C   0  0  0  0  0  0  0  0  0  0  0  0
  152.2743  137.8300  153.8298 N   0  0  0  0  0  0  0  0  0  0  0  0
  153.0856  138.8528  154.1184 C   0  0  0  0  0  0  0  0  0  0  0  0
  153.0216  139.7067  155.1431 N   0  0  0  0  0  0  0  0  0  0  0  0
  151.9601  139.4286  155.9538 C   0  0  0  0  0  0  0  0  0  0  0  0
  151.0157  138.3793  155.7722 C   0  0  0  0  0  0  0  0  0  0  0  0
  150.0729  138.4030  156.7917 N   0  0  0  0  0  0  0  0  0  0  0  0
  150.4404  139.4099  157.5371 C   0  0  0  0  0  0  0  0  0  0  0  0
  151.5636  140.0830  157.1071 N   0  0  0  0  0  0  0  0  0  0  0  0
  152.1918  141.2281  157.7426 C   0  0  1  0  0  0  0  0  0  0  0  0
  151.2119  142.4104  157.8776 C   0  0  0  0  0  0  0  0  0  0  0  0
  151.9405  143.5646  158.5762 C   0  0  0  0  0  0  0  0  0  0  0  0
  152.4858  143.0800  159.9232 C   0  0  0  0  0  0  0  0  0  0  0  0
  153.3528  141.8275  159.7125 C   0  0  0  0  0  0  0  0  0  0  0  0
  152.6050  140.8320  159.0183 O   0  0  0  0  0  0  0  0  0  0  0  0
  151.2627  133.2509  155.4439 C   0  0  0  0  0  0  0  0  0  0  0  0
  151.4229  131.9348  154.9680 C   0  0  0  0  0  0  0  0  0  0  0  0
  150.7430  130.4561  153.5458 H   0  0  0  0  0  0  0  0  0  0  0  0
  149.0416  131.9518  152.5169 H   0  0  0  0  0  0  0  0  0  0  0  0
  148.7550  134.2736  153.3551 H   0  0  0  0  0  0  0  0  0  0  0  0
  149.1007  135.6299  155.7521 H   0  0  0  0  0  0  0  0  0  0  0  0
  150.7892  135.6646  156.2275 H   0  0  0  0  0  0  0  0  0  0  0  0
  149.9048  136.4107  153.4837 H   0  0  0  0  0  0  0  0  0  0  0  0
  153.9031  139.0091  153.4301 H   0  0  0  0  0  0  0  0  0  0  0  0
  149.8998  139.6912  158.4294 H   0  0  0  0  0  0  0  0  0  0  0  0
  153.0687  141.5034  157.1534 H   0  0  0  0  0  0  0  0  0  0  0  0
  150.8708  142.7100  156.8859 H   0  0  0  0  0  0  0  0  0  0  0  0
  150.3392  142.0964  158.4519 H   0  0  0  0  0  0  0  0  0  0  0  0
  152.7576  143.9249  157.9498 H   0  0  0  0  0  0  0  0  0  0  0  0
  151.2621  144.4055  158.7229 H   0  0  0  0  0  0  0  0  0  0  0  0
  153.0662  143.8672  160.4052 H   0  0  0  0  0  0  0  0  0  0  0  0
  151.6573  142.8441  160.5923 H   0  0  0  0  0  0  0  0  0  0  0  0
  154.2593  142.0701  159.1555 H   0  0  0  0  0  0  0  0  0  0  0  0
  153.6697  141.4241  160.6743 H   0  0  0  0  0  0  0  0  0  0  0  0
  151.8792  133.6044  156.2575 H   0  0  0  0  0  0  0  0  0  0  0  0
  152.1606  131.2848  155.4151 H   0  0  0  0  0  0  0  0  0  0  0  0
  1 23  1  0  0  0  0
  1  2  2  0  0  0  0
  1 24  1  0  0  0  0
  2  3  1  0  0  0  0
  2 25  1  0  0  0  0
  3  4  2  0  0  0  0
  3 26  1  0  0  0  0
  4  5  1  0  0  0  0
  4 22  1  0  0  0  0
  5  6  1  0  0  0  0
  5 27  1  0  0  0  0
  5 28  1  0  0  0  0
  6  7  1  0  0  0  0
  6 29  1  0  0  0  0
  7 12  1  0  0  0  0
  7  8  2  0  0  0  0
  8  9  1  0  0  0  0
  9 10  2  0  0  0  0
  9 30  1  0  0  0  0
 10 11  1  0  0  0  0
 11 15  1  0  0  0  0
 11 12  2  0  0  0  0
 12 13  1  0  0  0  0
 13 14  2  0  0  0  0
 14 15  1  0  0  0  0
 14 31  1  0  0  0  0
 15 16  1  0  0  0  0
 16 21  1  0  0  0  0
 16 17  1  0  0  0  0
 16 32  1  0  0  0  0
 17 18  1  0  0  0  0
 17 33  1  0  0  0  0
 17 34  1  0  0  0  0
 18 19  1  0  0  0  0
 18 35  1  0  0  0  0
 18 36  1  0  0  0  0
 19 20  1  0  0  0  0
 19 37  1  0  0  0  0
 19 38  1  0  0  0  0
 20 21  1  0  0  0  0
 20 39  1  0  0  0  0
 20 40  1  0  0  0  0
 22 23  2  0  0  0  0
 22 41  1  0  0  0  0
 23 42  1  0  0  0  0
M  END
> <s_m_source_file>
AV-unprocessed.smi

> <i_m_source_file_index>
105

> <i_lp_mmshare_version>
43012

> <i_f3d_flags>
0

> <s_epik_input>
W2NIXTFbY0hdW2NIXVtjSF1bY0hdYzFbQ0gyXVtOSF1jKG5bY0hdbjIpYyhjMjMpbltjSF1uM1tDQEBIXTRbQ0gyXVtDSDJdW0NIMl1bQ0gyXU80

> <s_epik_cmdline>
J2VwaWtfcHl0aG9uJywgJy1waCcsICc3LjAnLCAnLXRuJywgJzgnLCAnLW1hJywgJzIwMCcsICctbWV0YWxfYmluZGluZycsICctaW1hZScsICc8aW5maWxlLm1hZT4nLCAnLW9tYWUnLCAnPG91dGZpbGUubWFlPic=

> <r_lp_tautomer_probability>
1

> <r_epik_Ionization_Penalty>
0.000653933

> <r_epik_Ionization_Penalty_Charging>
0

> <r_epik_Ionization_Penalty_Neutral>
0.000653933

> <r_epik_State_Penalty>
-0

> <r_epik_Charging_Adjusted_Penalty>
0

> <i_epik_Tot_Q>
0

> <i_epik_Tot_abs_Q>
0

> <r_epik_Metal_State_Penalty>
-0

> <b_epik_Metal_Only>
0

> <s_epik_Chemistry_Notes>
This compound contains an acetal/aminal-like group ( X-CH(R)-Y where X, Y are N, S, or O) that may be acid/base labile, releasing an aldehyde.

> <s_lp_Force_Field>
OPLS_2005

> <r_lp_Energy>
23.9687

> <b_lp_Chiralities_Consistent>
1

> <s_lp_Variant>
AV-unprocessed.smi:105-2

> <Gold.Version>
5.8.1

> <Gold.Id.Protein>
6NUR|6NUR_protein|mol2

> <Gold.PLP.Fitness>
53.1851

> <Gold.PLP.PLP>
-45.7313

> <Gold.PLP.part.hbond>
-3.4121

> <Gold.PLP.part.metal>
0.0000

> <Gold.PLP.part.buried>
-6.9963

> <Gold.PLP.part.nonpolar>
-35.9938

> <Gold.PLP.part.repulsive>
0.2137

> <Gold.PLP.ligand.clash>
0.0000

> <Gold.PLP.ligand.torsion>
0.5408

> <Gold.PLP.Chemscore.Hbond>
2.8320

> <Gold.PLP.Chemscore.CHOScore>
0.0000

> <Gold.PLP.Chemscore.Metal>
0.0000

> <Gold.Chemscore.Hbonds>
donor molecule, donor type, donor heavy atom, donor atom, acceptor molecule, acceptor atom, score
      L1  H     6    29       P1  7948  0.85
      P1  H  7997  8008       L1    10  0.85
      P1  H 10752 10765       L1     8  0.15

> <Gold.PLP.Chemscore.Internal.Correction>
0.0394

> <Gold.Rescore>
     Score         DG    S(hbond)    S(metal)    S(lipo)     H(rot)  DE(clash)    DE(int)     intcor
     17.99     -18.71       2.22        0.00      83.62       1.55       0.01       0.72       ----

> <Gold.Chemscore.Fitness>
17.9885

> <Gold.Chemscore.DG>
-18.7088

> <Gold.Chemscore.ZeroCoef>
-5.4800

> <Gold.Chemscore.Hbond>
2.2232

> <Gold.Chemscore.Metal>
0.0000

> <Gold.Chemscore.Lipo>
83.6194

> <Gold.Chemscore.Internal_Hbond>
0.0000

> <Gold.Chemscore.DEClash>
0.0052

> <Gold.Chemscore.DEInternal>
0.7152

> <Gold.Chemscore.Rot>
1.5547

> <Gold.Chemscore.Internal.Correction>
   9.000000E+99

> <Gold.Chemscore.Hbonds>
donor molecule, donor type, donor heavy atom, donor atom, acceptor molecule, acceptor atom, score
      L1  H     6    29       P1  7948  0.15
      P1  H  7997  8008       L1    10  0.34

> <Gold.Chemscore.Hbond.Weighted>
-7.4253

> <Gold.Chemscore.Metal.Weighted>
-0.0000

> <Gold.Chemscore.Lipo.Weighted>
-9.7835

> <Gold.Chemscore.Internal_Hbond.Weighted>
0.0000

> <Gold.Chemscore.DEClash.Weighted>
0.0052

> <Gold.Chemscore.DEInternal.Weighted>
0.7152

> <Gold.Chemscore.Rot.Weighted>
3.9800

> <Gold.Chemscore.Internal.Correction.Weighted>
   9.000000E+99

> <Gold.Protein.RotatedTorsions>
[ 6907 6896 6895 6894 ] final  -91.71 input  -60.11 | X-H torsion
[ 7974 7965 7964 7962 ] final -124.32 input  175.53 | X-H torsion
[ 8008 7997 7996 7995 ] final  -44.01 input   59.86 | X-H torsion
[ 10167 10162 10161 10158 ] final  -30.10 input  -65.29 | X-H torsion
[ 10718 10713 10712 10709 ] final -155.01 input   66.30 | X-H torsion
[ 10763 10752 10751 10750 ] final  153.05 input  -60.55 | X-H torsion
[ 11005 11000 10999 10996 ] final  -83.94 input  -57.11 | X-H torsion

> <Gold.Protein.ActiveResidues>
 VAL166  LYS551  ARG553  GLY616  TRP617  ASP618  TYR619  PRO620  LYS621  CYS622 
 ASP623  PHE694  ASN695  SER759  ASP760  ASP761  ALA762  ILE779  LEU786  VAL792 
 PHE793  MET794  SER795  GLU796  ALA797  LYS798  CYS799  TRP800  GLU811  SER814 

> <Gold.Protein.RotatedAtoms>
  150.6896  134.2235  159.4405 H   0  0  0  0  0  0  0  0  0  0  0  0  # atno 6907 bound_to 6896
  152.0190  134.9831  160.0579 H   0  0  0  0  0  0  0  0  0  0  0  0  # atno 6908 bound_to 6896
  152.1415  133.4432  159.4806 H   0  0  0  0  0  0  0  0  0  0  0  0  # atno 6909 bound_to 6896
  145.0093  140.7891  143.4448 H   0  0  0  0  0  0  0  0  0  0  0  0  # atno 7974 bound_to 7965
  154.3997  140.1433  156.3613 H   0  0  0  0  0  0  0  0  0  0  0  0  # atno 8008 bound_to 7997
  155.8178  140.3470  155.5475 H   0  0  0  0  0  0  0  0  0  0  0  0  # atno 8009 bound_to 7997
  155.8319  140.0913  157.1777 H   0  0  0  0  0  0  0  0  0  0  0  0  # atno 8010 bound_to 7997
  140.7253  143.3876  151.1488 H   0  0  0  0  0  0  0  0  0  0  0  0  # atno 10167 bound_to 10162
  156.5071  130.8418  151.2632 H   0  0  0  0  0  0  0  0  0  0  0  0  # atno 10718 bound_to 10713
  154.1300  135.2827  155.3187 H   0  0  0  0  0  0  0  0  0  0  0  0  # atno 10763 bound_to 10752
  154.6362  135.5418  153.7740 H   0  0  0  0  0  0  0  0  0  0  0  0  # atno 10764 bound_to 10752
  153.0284  135.6475  154.1451 H   0  0  0  0  0  0  0  0  0  0  0  0  # atno 10765 bound_to 10752
  141.1654  133.7320  156.8794 H   0  0  0  0  0  0  0  0  0  0  0  0  # atno 11005 bound_to 11000
  145.2045  139.2235  143.5175 LP  0  0  0  0  0  0  0  0  0  0  0  0  # atno 17320 bound_to 7965
  146.3467  140.1870  142.8589 LP  0  0  0  0  0  0  0  0  0  0  0  0  # atno 17321 bound_to 7965
  139.7475  143.8829  152.3067 LP  0  0  0  0  0  0  0  0  0  0  0  0  # atno 17342 bound_to 10162
  139.8671  144.7087  150.9030 LP  0  0  0  0  0  0  0  0  0  0  0  0  # atno 17343 bound_to 10162
  157.7455  130.9962  150.2772 LP  0  0  0  0  0  0  0  0  0  0  0  0  # atno 17370 bound_to 10713
  156.3276  130.3795  149.7519 LP  0  0  0  0  0  0  0  0  0  0  0  0  # atno 17371 bound_to 10713
  140.1725  134.9090  157.2851 LP  0  0  0  0  0  0  0  0  0  0  0  0  # atno 17394 bound_to 11000
  140.2486  134.3710  155.7451 LP  0  0  0  0  0  0  0  0  0  0  0  0  # atno 17395 bound_to 11000

$$$$
