AV-unprocessed.smi:103|AV-procd|sdf|979|dock8
  -GOLD-   2262017543D 1   1.00000     0.00000
 Structure written by MMmdl.
 53 55  0  0  0  0  0  0  0  0  1 V2000
  154.5206  135.3261  162.6573 C   0  0  0  0  0  0  0  0  0  0  0  0
  154.3751  136.3276  161.5191 C   0  0  0  0  0  0  0  0  0  0  0  0
  154.5292  137.5355  161.6996 O   0  0  0  0  0  0  0  0  0  0  0  0
  154.0710  135.7362  160.3553 O   0  0  0  0  0  0  0  0  0  0  0  0
  153.7547  136.5310  159.2243 C   0  0  0  0  0  0  0  0  0  0  0  0
  152.7052  137.5751  159.6227 C   0  0  2  0  0  0  0  0  0  0  0  0
  151.4244  136.9440  159.6419 O   0  0  0  0  0  0  0  0  0  0  0  0
  150.5432  137.6551  158.8345 C   0  0  2  0  0  0  0  0  0  0  0  0
  149.5796  136.6984  158.2110 N   0  0  0  0  0  0  0  0  0  0  0  0
  148.4277  136.1388  158.7267 C   0  0  0  0  0  0  0  0  0  0  0  0
  147.7744  136.3740  160.3757 S   0  0  0  0  0  0  0  0  0  0  0  0
  147.0965  134.7070  160.7513 C   0  0  0  0  0  0  0  0  0  0  0  0
  148.9140  136.6454  161.2649 O   0  0  0  0  0  0  0  0  0  0  0  0
  146.6673  137.3367  160.2662 O   0  0  0  0  0  0  0  0  0  0  0  0
  147.8042  135.2792  157.9671 N   0  0  0  0  0  0  0  0  0  0  0  0
  148.5536  135.2901  156.7992 C   0  0  0  0  0  0  0  0  0  0  0  0
  148.4455  134.6243  155.5523 C   0  0  0  0  0  0  0  0  0  0  0  0
  147.4611  133.7604  155.2673 N   0  0  0  0  0  0  0  0  0  0  0  0
  149.3791  134.8720  154.6040 N   0  0  0  0  0  0  0  0  0  0  0  0
  150.3718  135.7291  154.8642 C   0  0  0  0  0  0  0  0  0  0  0  0
  150.6056  136.4229  155.9813 N   0  0  0  0  0  0  0  0  0  0  0  0
  149.6620  136.1739  156.9368 C   0  0  0  0  0  0  0  0  0  0  0  0
  151.3992  138.3477  157.7797 C   0  0  1  0  0  0  0  0  0  0  0  0
  150.7447  139.4739  157.2065 O   0  0  0  0  0  0  0  0  0  0  0  0
  151.3891  140.2618  156.3286 C   0  0  0  0  0  0  0  0  0  0  0  0
  150.5872  141.5053  155.9705 C   0  0  0  0  0  0  0  0  0  0  0  0
  152.4942  140.0440  155.8317 O   0  0  0  0  0  0  0  0  0  0  0  0
  152.6075  138.7352  158.6129 C   0  0  1  0  0  0  0  0  0  0  0  0
  152.3760  139.9592  159.3056 O   0  0  0  0  0  0  0  0  0  0  0  0
  153.3726  140.5503  159.9875 C   0  0  0  0  0  0  0  0  0  0  0  0
  152.9735  141.9156  160.5310 C   0  0  0  0  0  0  0  0  0  0  0  0
  154.4935  140.0812  160.1851 O   0  0  0  0  0  0  0  0  0  0  0  0
  153.5818  134.7954  162.8165 H   0  0  0  0  0  0  0  0  0  0  0  0
  154.7923  135.8340  163.5829 H   0  0  0  0  0  0  0  0  0  0  0  0
  155.2960  134.5967  162.4229 H   0  0  0  0  0  0  0  0  0  0  0  0
  154.6499  137.0179  158.8349 H   0  0  0  0  0  0  0  0  0  0  0  0
  153.3602  135.8886  158.4360 H   0  0  0  0  0  0  0  0  0  0  0  0
  152.9252  137.9387  160.6275 H   0  0  0  0  0  0  0  0  0  0  0  0
  149.9648  138.3372  159.4545 H   0  0  0  0  0  0  0  0  0  0  0  0
  146.6568  134.7108  161.7483 H   0  0  0  0  0  0  0  0  0  0  0  0
  147.8961  133.9681  160.7088 H   0  0  0  0  0  0  0  0  0  0  0  0
  146.3308  134.4543  160.0180 H   0  0  0  0  0  0  0  0  0  0  0  0
  146.7526  133.5595  155.9584 H   0  0  0  0  0  0  0  0  0  0  0  0
  147.4270  133.3156  154.3615 H   0  0  0  0  0  0  0  0  0  0  0  0
  151.0811  135.8798  154.0636 H   0  0  0  0  0  0  0  0  0  0  0  0
  151.7071  137.6191  157.0284 H   0  0  0  0  0  0  0  0  0  0  0  0
  149.6760  141.2265  155.4409 H   0  0  0  0  0  0  0  0  0  0  0  0
  151.1709  142.1664  155.3296 H   0  0  0  0  0  0  0  0  0  0  0  0
  150.3115  142.0525  156.8721 H   0  0  0  0  0  0  0  0  0  0  0  0
  153.4941  138.8187  157.9821 H   0  0  0  0  0  0  0  0  0  0  0  0
  152.2031  141.8082  161.2947 H   0  0  0  0  0  0  0  0  0  0  0  0
  152.5835  142.5435  159.7298 H   0  0  0  0  0  0  0  0  0  0  0  0
  153.8335  142.4174  160.9750 H   0  0  0  0  0  0  0  0  0  0  0  0
  1  2  1  0  0  0  0
  1 33  1  0  0  0  0
  1 34  1  0  0  0  0
  1 35  1  0  0  0  0
  2  3  2  0  0  0  0
  2  4  1  0  0  0  0
  4  5  1  0  0  0  0
  5  6  1  0  0  0  0
  5 36  1  0  0  0  0
  5 37  1  0  0  0  0
  6 28  1  0  0  0  0
  6  7  1  0  0  0  0
  6 38  1  0  0  0  0
  7  8  1  0  0  0  0
  8  9  1  0  0  0  0
  8 23  1  0  0  0  0
  8 39  1  0  0  0  0
  9 22  1  0  0  0  0
  9 10  1  0  0  0  0
 10 11  1  0  0  0  0
 10 15  2  0  0  0  0
 11 12  1  0  0  0  0
 11 13  2  0  0  0  0
 11 14  2  0  0  0  0
 12 40  1  0  0  0  0
 12 41  1  0  0  0  0
 12 42  1  0  0  0  0
 15 16  1  0  0  0  0
 16 22  2  0  0  0  0
 16 17  1  0  0  0  0
 17 18  1  0  0  0  0
 17 19  2  0  0  0  0
 18 43  1  0  0  0  0
 18 44  1  0  0  0  0
 19 20  1  0  0  0  0
 20 21  2  0  0  0  0
 20 45  1  0  0  0  0
 21 22  1  0  0  0  0
 23 24  1  0  0  0  0
 23 28  1  0  0  0  0
 23 46  1  0  0  0  0
 24 25  1  0  0  0  0
 25 26  1  0  0  0  0
 25 27  2  0  0  0  0
 26 47  1  0  0  0  0
 26 48  1  0  0  0  0
 26 49  1  0  0  0  0
 28 29  1  0  0  0  0
 28 50  1  0  0  0  0
 29 30  1  0  0  0  0
 30 31  1  0  0  0  0
 30 32  2  0  0  0  0
 31 51  1  0  0  0  0
 31 52  1  0  0  0  0
 31 53  1  0  0  0  0
M  END
> <s_m_source_file>
AV-unprocessed.smi

> <i_m_source_file_index>
103

> <i_lp_mmshare_version>
43012

> <i_f3d_flags>
0

> <s_epik_input>
W0NIM11DKD1PKU9bQ0gyXVtDQEBIXTFPW0NASF0oW0NAQEhdKE9DKD1PKVtDSDNdKVtDQEhdMU9DKD1PKVtDSDNdKW4oYyhuMilTKD1PKSg9TylbQ0gzXSljKGMyMyluW2NIXW5jM1tOSDJd

> <s_epik_cmdline>
J2VwaWtfcHl0aG9uJywgJy1waCcsICc3LjAnLCAnLXRuJywgJzgnLCAnLW1hJywgJzIwMCcsICctbWV0YWxfYmluZGluZycsICctaW1hZScsICc8aW5maWxlLm1hZT4nLCAnLW9tYWUnLCAnPG91dGZpbGUubWFlPic=

> <r_lp_tautomer_probability>
1

> <r_epik_Ionization_Penalty>
1.51338e-05

> <r_epik_Ionization_Penalty_Charging>
0

> <r_epik_Ionization_Penalty_Neutral>
1.51338e-05

> <r_epik_State_Penalty>
-0

> <r_epik_Charging_Adjusted_Penalty>
0

> <i_epik_Tot_Q>
0

> <i_epik_Tot_abs_Q>
0

> <r_epik_Metal_State_Penalty>
-0

> <b_epik_Metal_Only>
0

> <s_epik_Chemistry_Notes>
This compound has an ester and may undergo hydrolysis at high or low pH. This compound contains an acetal/aminal-like group ( X-CH(R)-Y where X, Y are N, S, or O) that may be acid/base labile, releasing an aldehyde.

> <s_lp_Force_Field>
OPLS_2005

> <r_lp_Energy>
16.6357

> <b_lp_Chiralities_Consistent>
1

> <s_lp_Variant>
AV-unprocessed.smi:103-3

> <Gold.Version>
5.8.1

> <Gold.Id.Protein>
6NUR|6NUR_protein|mol2

> <Gold.PLP.Fitness>
50.8168

> <Gold.PLP.PLP>
-39.2500

> <Gold.PLP.part.hbond>
-4.7261

> <Gold.PLP.part.metal>
0.0000

> <Gold.PLP.part.buried>
-6.5207

> <Gold.PLP.part.nonpolar>
-27.6486

> <Gold.PLP.part.repulsive>
0.1925

> <Gold.PLP.ligand.clash>
0.0000

> <Gold.PLP.ligand.torsion>
2.1276

> <Gold.PLP.Chemscore.Hbond>
3.9846

> <Gold.PLP.Chemscore.CHOScore>
0.5427

> <Gold.PLP.Chemscore.Metal>
0.0000

> <Gold.Chemscore.Hbonds>
donor molecule, donor type, donor heavy atom, donor atom, acceptor molecule, acceptor atom, score
      P1  H  6896  6907       L1     7  1.00
      P1  H  6931  6943       L1    13  1.00
      P1  H  6934  6947       L1    14  1.00
      P1  H  7997  8008       L1    27  1.00
      L1  C    20    45       P1  7949  0.91

> <Gold.PLP.Chemscore.Internal.Correction>
2.2400

> <Gold.Rescore>
     Score         DG    S(hbond)    S(metal)    S(lipo)     H(rot)  DE(clash)    DE(int)     intcor
      6.90     -12.91       3.67        0.00      51.76       4.25       0.20       5.82       ----

> <Gold.Chemscore.Fitness>
6.8961

> <Gold.Chemscore.DG>
-12.9132

> <Gold.Chemscore.ZeroCoef>
-5.4800

> <Gold.Chemscore.Hbond>
3.6665

> <Gold.Chemscore.Metal>
0.0000

> <Gold.Chemscore.Lipo>
51.7581

> <Gold.Chemscore.Internal_Hbond>
0.0000

> <Gold.Chemscore.DEClash>
0.1958

> <Gold.Chemscore.DEInternal>
5.8212

> <Gold.Chemscore.Rot>
4.2456

> <Gold.Chemscore.Internal.Correction>
   9.000000E+99

> <Gold.Chemscore.Hbonds>
donor molecule, donor type, donor heavy atom, donor atom, acceptor molecule, acceptor atom, score
      P1  H  6896  6907       L1     7  0.93
      P1  H  6931  6943       L1    13  0.95
      P1  H  6934  6947       L1    14  0.78
      P1  H  7997  8008       L1    27  1.00

> <Gold.Chemscore.Hbond.Weighted>
-12.2461

> <Gold.Chemscore.Metal.Weighted>
-0.0000

> <Gold.Chemscore.Lipo.Weighted>
-6.0557

> <Gold.Chemscore.Internal_Hbond.Weighted>
0.0000

> <Gold.Chemscore.DEClash.Weighted>
0.1958

> <Gold.Chemscore.DEInternal.Weighted>
5.8212

> <Gold.Chemscore.Rot.Weighted>
10.8687

> <Gold.Chemscore.Internal.Correction.Weighted>
   9.000000E+99

> <Gold.Protein.RotatedTorsions>
[ 6907 6896 6895 6894 ] final   -9.03 input  -60.11 | X-H torsion
[ 7974 7965 7964 7962 ] final  -96.47 input  175.53 | X-H torsion
[ 8008 7997 7996 7995 ] final  -28.20 input   59.86 | X-H torsion
[ 10167 10162 10161 10158 ] final   26.32 input  -65.29 | X-H torsion
[ 10718 10713 10712 10709 ] final   -4.53 input   66.30 | X-H torsion
[ 10763 10752 10751 10750 ] final  175.55 input  -60.55 | X-H torsion
[ 11005 11000 10999 10996 ] final -126.74 input  -57.11 | X-H torsion

> <Gold.Protein.ActiveResidues>
 VAL166  LYS551  ARG553  GLY616  TRP617  ASP618  TYR619  PRO620  LYS621  CYS622 
 ASP623  PHE694  ASN695  SER759  ASP760  ASP761  ALA762  ILE779  LEU786  VAL792 
 PHE793  MET794  SER795  GLU796  ALA797  LYS798  CYS799  TRP800  GLU811  SER814 

> <Gold.Protein.RotatedAtoms>
  151.4243  135.1002  159.9623 H   0  0  0  0  0  0  0  0  0  0  0  0  # atno 6907 bound_to 6896
  152.4978  133.8677  159.7293 H   0  0  0  0  0  0  0  0  0  0  0  0  # atno 6908 bound_to 6896
  150.9200  133.6834  159.2862 H   0  0  0  0  0  0  0  0  0  0  0  0  # atno 6909 bound_to 6896
  145.3464  140.9469  143.2579 H   0  0  0  0  0  0  0  0  0  0  0  0  # atno 7974 bound_to 7965
  154.4343  140.1852  156.1052 H   0  0  0  0  0  0  0  0  0  0  0  0  # atno 8008 bound_to 7997
  156.0261  140.3335  155.7064 H   0  0  0  0  0  0  0  0  0  0  0  0  # atno 8009 bound_to 7997
  155.5907  140.0630  157.2750 H   0  0  0  0  0  0  0  0  0  0  0  0  # atno 8010 bound_to 7997
  140.5033  144.0280  150.6341 H   0  0  0  0  0  0  0  0  0  0  0  0  # atno 10167 bound_to 10162
  156.7600  130.5266  149.5787 H   0  0  0  0  0  0  0  0  0  0  0  0  # atno 10718 bound_to 10713
  154.4691  135.2770  155.1656 H   0  0  0  0  0  0  0  0  0  0  0  0  # atno 10763 bound_to 10752
  154.3412  135.6169  153.5601 H   0  0  0  0  0  0  0  0  0  0  0  0  # atno 10764 bound_to 10752
  152.9862  135.5789  154.5069 H   0  0  0  0  0  0  0  0  0  0  0  0  # atno 10765 bound_to 10752
  140.9656  134.0876  157.3923 H   0  0  0  0  0  0  0  0  0  0  0  0  # atno 11005 bound_to 11000
  144.8751  139.4983  143.6749 LP  0  0  0  0  0  0  0  0  0  0  0  0  # atno 17320 bound_to 7965
  146.2986  139.7355  142.9108 LP  0  0  0  0  0  0  0  0  0  0  0  0  # atno 17321 bound_to 7965
  140.3582  143.2923  152.0412 LP  0  0  0  0  0  0  0  0  0  0  0  0  # atno 17342 bound_to 10162
  139.4877  144.6323  151.7046 LP  0  0  0  0  0  0  0  0  0  0  0  0  # atno 17343 bound_to 10162
  156.1345  130.6201  151.0381 LP  0  0  0  0  0  0  0  0  0  0  0  0  # atno 17370 bound_to 10713
  157.6739  131.0855  150.7544 LP  0  0  0  0  0  0  0  0  0  0  0  0  # atno 17371 bound_to 10713
  139.8893  135.0104  156.6673 LP  0  0  0  0  0  0  0  0  0  0  0  0  # atno 17394 bound_to 11000
  140.7403  133.8983  155.8273 LP  0  0  0  0  0  0  0  0  0  0  0  0  # atno 17395 bound_to 11000

$$$$
