AV-unprocessed.smi:3249|AV-procd|sdf|12418|dock7
  -GOLD-   2272018303D 1   1.00000     0.00000
 Structure written by MMmdl.
 44 45  0  0  0  0  0  0  0  0  2 V2000
  154.2321  140.5007  161.5854 C   0  0  0  0  0  0  0  0  0  0  0  0
  153.4111  141.7551  161.5044 C   0  0  0  0  0  0  0  0  0  0  0  0
  153.1284  142.6846  162.5447 C   0  0  0  0  0  0  0  0  0  0  0  0
  152.3603  143.6845  162.1448 N   0  0  0  0  0  0  0  0  0  0  0  0
  152.1389  143.4427  160.8347 N   0  0  0  0  0  0  0  0  0  0  0  0
  151.2861  144.3455  160.0687 C   0  0  1  0  0  0  0  0  0  0  0  0
  151.9174  145.7499  160.0291 C   0  0  0  0  0  0  0  0  0  0  0  0
  150.9910  143.7580  158.6640 C   0  0  2  0  0  0  0  0  0  0  0  0
  152.0015  144.2264  157.6000 C   0  0  0  0  0  0  0  0  0  0  0  0
  149.6166  144.1239  158.2473 N   0  3  0  0  0  0  0  0  0  0  0  0
  148.5710  143.1277  158.5594 C   0  0  0  0  0  0  0  0  0  0  0  0
  147.4135  143.7764  159.3306 C   0  0  2  0  0  0  0  0  0  0  0  0
  147.9120  144.8335  160.3350 C   0  0  0  0  0  0  0  0  0  0  0  0
  146.7418  145.3971  161.1492 C   0  0  0  0  0  0  0  0  0  0  0  0
  145.9552  144.2475  161.7873 C   0  0  0  0  0  0  0  0  0  0  0  0
  145.5625  143.2122  160.7216 C   0  0  0  0  0  0  0  0  0  0  0  0
  146.7259  142.7491  160.0421 O   0  0  0  0  0  0  0  0  0  0  0  0
  152.7555  142.2768  160.4257 C   0  0  0  0  0  0  0  0  0  0  0  0
  154.7663  140.4260  162.5329 H   0  0  0  0  0  0  0  0  0  0  0  0
  154.9789  140.4563  160.7925 H   0  0  0  0  0  0  0  0  0  0  0  0
  153.6123  139.6085  161.4951 H   0  0  0  0  0  0  0  0  0  0  0  0
  153.4513  142.6585  163.5753 H   0  0  0  0  0  0  0  0  0  0  0  0
  150.3390  144.4362  160.6048 H   0  0  0  0  0  0  0  0  0  0  0  0
  151.2290  146.4898  159.6218 H   0  0  0  0  0  0  0  0  0  0  0  0
  152.8230  145.7665  159.4219 H   0  0  0  0  0  0  0  0  0  0  0  0
  152.1841  146.0854  161.0319 H   0  0  0  0  0  0  0  0  0  0  0  0
  151.0463  142.6704  158.7390 H   0  0  0  0  0  0  0  0  0  0  0  0
  153.0128  143.8936  157.8312 H   0  0  0  0  0  0  0  0  0  0  0  0
  152.0181  145.3139  157.5211 H   0  0  0  0  0  0  0  0  0  0  0  0
  151.7624  143.8271  156.6147 H   0  0  0  0  0  0  0  0  0  0  0  0
  149.3720  144.9741  158.7358 H   0  0  0  0  0  0  0  0  0  0  0  0
  148.2021  142.6633  157.6445 H   0  0  0  0  0  0  0  0  0  0  0  0
  149.0136  142.3370  159.1667 H   0  0  0  0  0  0  0  0  0  0  0  0
  146.7311  144.2463  158.6196 H   0  0  0  0  0  0  0  0  0  0  0  0
  148.6430  144.3850  161.0095 H   0  0  0  0  0  0  0  0  0  0  0  0
  148.4244  145.6421  159.8124 H   0  0  0  0  0  0  0  0  0  0  0  0
  147.1054  146.0817  161.9160 H   0  0  0  0  0  0  0  0  0  0  0  0
  146.0852  145.9752  160.4979 H   0  0  0  0  0  0  0  0  0  0  0  0
  146.5648  143.7668  162.5536 H   0  0  0  0  0  0  0  0  0  0  0  0
  145.0660  144.6303  162.2890 H   0  0  0  0  0  0  0  0  0  0  0  0
  145.0674  142.3618  161.1908 H   0  0  0  0  0  0  0  0  0  0  0  0
  144.8557  143.6370  160.0071 H   0  0  0  0  0  0  0  0  0  0  0  0
  152.6750  141.9149  159.4111 H   0  0  0  0  0  0  0  0  0  0  0  0
  149.6115  144.3175  157.2558 H   0  0  0  0  0  0  0  0  0  0  0  0
  1  2  1  0  0  0  0
  1 19  1  0  0  0  0
  1 20  1  0  0  0  0
  1 21  1  0  0  0  0
  2 18  2  0  0  0  0
  2  3  1  0  0  0  0
  3  4  2  0  0  0  0
  3 22  1  0  0  0  0
  4  5  1  0  0  0  0
  5  6  1  0  0  0  0
  5 18  1  0  0  0  0
  6  7  1  0  0  0  0
  6  8  1  0  0  0  0
  6 23  1  0  0  0  0
  7 24  1  0  0  0  0
  7 25  1  0  0  0  0
  7 26  1  0  0  0  0
  8  9  1  0  0  0  0
  8 10  1  0  0  0  0
  8 27  1  0  0  0  0
  9 28  1  0  0  0  0
  9 29  1  0  0  0  0
  9 30  1  0  0  0  0
 10 11  1  0  0  0  0
 10 31  1  0  0  0  0
 10 44  1  0  0  0  0
 11 12  1  0  0  0  0
 11 32  1  0  0  0  0
 11 33  1  0  0  0  0
 12 17  1  0  0  0  0
 12 13  1  0  0  0  0
 12 34  1  0  0  0  0
 13 14  1  0  0  0  0
 13 35  1  0  0  0  0
 13 36  1  0  0  0  0
 14 15  1  0  0  0  0
 14 37  1  0  0  0  0
 14 38  1  0  0  0  0
 15 16  1  0  0  0  0
 15 39  1  0  0  0  0
 15 40  1  0  0  0  0
 16 17  1  0  0  0  0
 16 41  1  0  0  0  0
 16 42  1  0  0  0  0
 18 43  1  0  0  0  0
M  CHG  1  10   1
M  END
> <s_m_source_file>
AV-unprocessed.smi

> <i_m_source_file_index>
3249

> <i_lp_mmshare_version>
43012

> <i_f3d_flags>
0

> <s_epik_input>
W0NIM11jMVtjSF1ubihbY0hdMSlbQ0BIXShbQ0gzXSlbQ0BIXShbQ0gzXSlbTkhdW0NIMl1bQ0BASF0yW0NIMl1bQ0gyXVtDSDJdW0NIMl1PMg==

> <s_epik_cmdline>
J2VwaWtfcHl0aG9uJywgJy1waCcsICc3LjAnLCAnLXRuJywgJzgnLCAnLW1hJywgJzIwMCcsICctbWV0YWxfYmluZGluZycsICctaW1hZScsICc8aW5maWxlLm1hZT4nLCAnLW9tYWUnLCAnPG91dGZpbGUubWFlPic=

> <r_lp_tautomer_probability>
1

> <r_epik_Ionization_Penalty>
0.00659207

> <r_epik_Ionization_Penalty_Charging>
0.00656881

> <r_epik_Ionization_Penalty_Neutral>
2.32662e-05

> <r_epik_State_Penalty>
0.0048654

> <r_epik_Charging_Adjusted_Penalty>
0.0114342

> <i_epik_Tot_Q>
1

> <i_epik_Tot_abs_Q>
1

> <r_epik_Metal_State_Penalty>
-0

> <b_epik_Metal_Only>
0

> <s_lp_Force_Field>
OPLS_2005

> <r_lp_Energy>
17.4327

> <b_lp_Chiralities_Consistent>
1

> <s_lp_Variant>
AV-unprocessed.smi:3249-2

> <Gold.Version>
5.8.1

> <Gold.Id.Protein>
6NUR|6NUR_protein|mol2

> <Gold.PLP.Fitness>
55.6955

> <Gold.PLP.PLP>
-49.3489

> <Gold.PLP.part.hbond>
-4.0000

> <Gold.PLP.part.metal>
0.0000

> <Gold.PLP.part.buried>
-4.6046

> <Gold.PLP.part.nonpolar>
-40.3290

> <Gold.PLP.part.repulsive>
0.2696

> <Gold.PLP.ligand.clash>
0.0000

> <Gold.PLP.ligand.torsion>
1.9420

> <Gold.PLP.Chemscore.Hbond>
3.3744

> <Gold.PLP.Chemscore.CHOScore>
0.0000

> <Gold.PLP.Chemscore.Metal>
0.0000

> <Gold.Chemscore.Hbonds>
donor molecule, donor type, donor heavy atom, donor atom, acceptor molecule, acceptor atom, score
      L1  H    10    31       P1  8029  0.02
      L1  H    10    44       P1  8028  2.00
      P1  H  6933  6944       L1    17  0.21
      P1  H  6934  6946       L1    17  1.00

> <Gold.PLP.Chemscore.Internal.Correction>
0.1075

> <Gold.Rescore>
     Score         DG    S(hbond)    S(metal)    S(lipo)     H(rot)  DE(clash)    DE(int)     intcor
     18.35     -20.24       1.59        0.00     114.39       1.53       0.05       1.84       ----

> <Gold.Chemscore.Fitness>
18.3541

> <Gold.Chemscore.DG>
-20.2382

> <Gold.Chemscore.ZeroCoef>
-5.4800

> <Gold.Chemscore.Hbond>
1.5866

> <Gold.Chemscore.Metal>
0.0000

> <Gold.Chemscore.Lipo>
114.3945

> <Gold.Chemscore.Internal_Hbond>
0.0000

> <Gold.Chemscore.DEClash>
0.0474

> <Gold.Chemscore.DEInternal>
1.8368

> <Gold.Chemscore.Rot>
1.5333

> <Gold.Chemscore.Internal.Correction>
   9.000000E+99

> <Gold.Chemscore.Hbonds>
donor molecule, donor type, donor heavy atom, donor atom, acceptor molecule, acceptor atom, score
      L1  H    10    31       P1  8029  0.02
      L1  H    10    44       P1  8028  0.25
      P1  H  6933  6944       L1    17  0.02
      P1  H  6934  6946       L1    17  0.36

> <Gold.Chemscore.Hbond.Weighted>
-5.2992

> <Gold.Chemscore.Metal.Weighted>
-0.0000

> <Gold.Chemscore.Lipo.Weighted>
-13.3842

> <Gold.Chemscore.Internal_Hbond.Weighted>
0.0000

> <Gold.Chemscore.DEClash.Weighted>
0.0474

> <Gold.Chemscore.DEInternal.Weighted>
1.8368

> <Gold.Chemscore.Rot.Weighted>
3.9252

> <Gold.Chemscore.Internal.Correction.Weighted>
   9.000000E+99

> <Gold.Protein.RotatedTorsions>
[ 6907 6896 6895 6894 ] final  145.67 input  -60.11 | X-H torsion
[ 7974 7965 7964 7962 ] final  -40.47 input  175.53 | X-H torsion
[ 8008 7997 7996 7995 ] final  -82.48 input   59.86 | X-H torsion
[ 10167 10162 10161 10158 ] final    6.63 input  -65.29 | X-H torsion
[ 10718 10713 10712 10709 ] final   -1.46 input   66.30 | X-H torsion
[ 10763 10752 10751 10750 ] final   53.53 input  -60.55 | X-H torsion
[ 11005 11000 10999 10996 ] final -161.92 input  -57.11 | X-H torsion

> <Gold.Protein.ActiveResidues>
 VAL166  LYS551  ARG553  GLY616  TRP617  ASP618  TYR619  PRO620  LYS621  CYS622 
 ASP623  PHE694  ASN695  SER759  ASP760  ASP761  ALA762  ILE779  LEU786  VAL792 
 PHE793  MET794  SER795  GLU796  ALA797  LYS798  CYS799  TRP800  GLU811  SER814 

> <Gold.Protein.RotatedAtoms>
  152.1779  133.4687  159.4942 H   0  0  0  0  0  0  0  0  0  0  0  0  # atno 6907 bound_to 6896
  150.6930  134.1871  159.4280 H   0  0  0  0  0  0  0  0  0  0  0  0  # atno 6908 bound_to 6896
  151.9781  135.0042  160.0606 H   0  0  0  0  0  0  0  0  0  0  0  0  # atno 6909 bound_to 6896
  146.0302  140.6741  142.9136 H   0  0  0  0  0  0  0  0  0  0  0  0  # atno 7974 bound_to 7965
  154.6091  140.0632  156.9470 H   0  0  0  0  0  0  0  0  0  0  0  0  # atno 8008 bound_to 7997
  155.2003  140.3314  155.4326 H   0  0  0  0  0  0  0  0  0  0  0  0  # atno 8009 bound_to 7997
  156.2366  140.1865  156.7087 H   0  0  0  0  0  0  0  0  0  0  0  0  # atno 8010 bound_to 7997
  140.6417  143.7758  150.7438 H   0  0  0  0  0  0  0  0  0  0  0  0  # atno 10167 bound_to 10162
  156.8053  130.5406  149.5716 H   0  0  0  0  0  0  0  0  0  0  0  0  # atno 10718 bound_to 10713
  152.9796  135.5775  154.4757 H   0  0  0  0  0  0  0  0  0  0  0  0  # atno 10763 bound_to 10752
  154.4313  135.2773  155.1912 H   0  0  0  0  0  0  0  0  0  0  0  0  # atno 10764 bound_to 10752
  154.3620  135.6186  153.5749 H   0  0  0  0  0  0  0  0  0  0  0  0  # atno 10765 bound_to 10752
  140.6151  134.4809  157.5219 H   0  0  0  0  0  0  0  0  0  0  0  0  # atno 11005 bound_to 11000
  144.7027  140.3721  143.7143 LP  0  0  0  0  0  0  0  0  0  0  0  0  # atno 17320 bound_to 7965
  145.7054  139.1671  143.2569 LP  0  0  0  0  0  0  0  0  0  0  0  0  # atno 17321 bound_to 7965
  140.1391  143.4457  152.2205 LP  0  0  0  0  0  0  0  0  0  0  0  0  # atno 17342 bound_to 10162
  139.5626  144.7415  151.4111 LP  0  0  0  0  0  0  0  0  0  0  0  0  # atno 17343 bound_to 10162
  156.1076  130.6016  150.9996 LP  0  0  0  0  0  0  0  0  0  0  0  0  # atno 17370 bound_to 10713
  157.6533  131.0893  150.8003 LP  0  0  0  0  0  0  0  0  0  0  0  0  # atno 17371 bound_to 10713
  139.9176  134.8214  156.1315 LP  0  0  0  0  0  0  0  0  0  0  0  0  # atno 17394 bound_to 11000
  141.0781  133.6766  156.2279 LP  0  0  0  0  0  0  0  0  0  0  0  0  # atno 17395 bound_to 11000

$$$$
