AV-unprocessed.smi:2881|AV-procd|sdf|11063|dock5
  -GOLD-   2272015533D 1   1.00000     0.00000
 Structure written by MMmdl.
 40 42  0  0  0  0  0  0  0  0  1 V2000
  143.4481  134.4747  151.5936 C   0  0  0  0  0  0  0  0  0  0  0  0
  144.0856  135.8118  151.8325 C   0  0  0  0  0  0  0  0  0  0  0  0
  145.4487  136.1837  151.6409 C   0  0  0  0  0  0  0  0  0  0  0  0
  145.4938  137.5015  152.0012 C   0  0  0  0  0  0  0  0  0  0  0  0
  146.6230  138.4805  152.0275 C   0  0  0  0  0  0  0  0  0  0  0  0
  147.2481  138.5483  153.4204 C   0  0  0  0  0  0  0  0  0  0  0  0
  146.5351  138.4421  154.4178 O   0  0  0  0  0  0  0  0  0  0  0  0
  148.5757  138.7357  153.4710 N   0  0  0  0  0  0  0  0  0  0  0  0
  149.3699  138.8471  154.6924 C   0  0  2  0  0  0  0  0  0  0  0  0
  148.9558  140.1057  155.4868 C   0  0  1  0  0  0  0  0  0  0  0  0
  149.5034  139.9882  156.9203 C   0  0  0  0  0  0  0  0  0  0  0  0
  151.0142  140.2093  156.7171 C   0  0  0  0  0  0  0  0  0  0  0  0
  151.1326  140.4164  155.1912 C   0  0  2  0  0  0  0  0  0  0  0  0
  149.8541  141.1919  154.9017 C   0  0  0  0  0  0  0  0  0  0  0  0
  150.8728  139.1070  154.4079 C   0  0  1  0  0  0  0  0  0  0  0  0
  151.8154  137.9419  154.7686 C   0  0  0  0  0  0  0  0  0  0  0  0
  151.3228  136.7308  154.2379 O   0  0  0  0  0  0  0  0  0  0  0  0
  144.2135  137.8389  152.3785 N   0  0  0  0  0  0  0  0  0  0  0  0
  143.3453  136.8153  152.2797 N   0  0  0  0  0  0  0  0  0  0  0  0
  143.9218  138.7531  152.6949 H   0  0  0  0  0  0  0  0  0  0  0  0
  144.0686  133.8532  150.9476 H   0  0  0  0  0  0  0  0  0  0  0  0
  142.4741  134.5794  151.1143 H   0  0  0  0  0  0  0  0  0  0  0  0
  143.3031  133.9382  152.5315 H   0  0  0  0  0  0  0  0  0  0  0  0
  146.2681  135.5745  151.2890 H   0  0  0  0  0  0  0  0  0  0  0  0
  146.2702  139.4692  151.7308 H   0  0  0  0  0  0  0  0  0  0  0  0
  147.3868  138.1939  151.3034 H   0  0  0  0  0  0  0  0  0  0  0  0
  149.0751  138.8158  152.5972 H   0  0  0  0  0  0  0  0  0  0  0  0
  149.2223  137.9571  155.3073 H   0  0  0  0  0  0  0  0  0  0  0  0
  147.8872  140.3221  155.4533 H   0  0  0  0  0  0  0  0  0  0  0  0
  149.0854  140.7655  157.5611 H   0  0  0  0  0  0  0  0  0  0  0  0
  149.2785  139.0235  157.3767 H   0  0  0  0  0  0  0  0  0  0  0  0
  151.3371  141.1058  157.2482 H   0  0  0  0  0  0  0  0  0  0  0  0
  151.6152  139.3807  157.0899 H   0  0  0  0  0  0  0  0  0  0  0  0
  152.0489  140.9259  154.8915 H   0  0  0  0  0  0  0  0  0  0  0  0
  149.6848  141.3710  153.8384 H   0  0  0  0  0  0  0  0  0  0  0  0
  149.7908  142.1413  155.4369 H   0  0  0  0  0  0  0  0  0  0  0  0
  151.0140  139.3375  153.3497 H   0  0  0  0  0  0  0  0  0  0  0  0
  152.8086  138.1164  154.3543 H   0  0  0  0  0  0  0  0  0  0  0  0
  151.9260  137.8337  155.8474 H   0  0  0  0  0  0  0  0  0  0  0  0
  151.1909  136.8402  153.3086 H   0  0  0  0  0  0  0  0  0  0  0  0
  1 21  1  0  0  0  0
  1 22  1  0  0  0  0
  1 23  1  0  0  0  0
  1  2  1  0  0  0  0
  2 19  2  0  0  0  0
  2  3  1  0  0  0  0
  3  4  2  0  0  0  0
  3 24  1  0  0  0  0
  4 18  1  0  0  0  0
  4  5  1  0  0  0  0
  5  6  1  0  0  0  0
  5 25  1  0  0  0  0
  5 26  1  0  0  0  0
  6  7  2  0  0  0  0
  6  8  1  0  0  0  0
  8  9  1  0  0  0  0
  8 27  1  0  0  0  0
  9 15  1  0  0  0  0
  9 10  1  0  0  0  0
  9 28  1  0  0  0  0
 10 14  1  0  0  0  0
 10 11  1  0  0  0  0
 10 29  1  0  0  0  0
 11 12  1  0  0  0  0
 11 30  1  0  0  0  0
 11 31  1  0  0  0  0
 12 13  1  0  0  0  0
 12 32  1  0  0  0  0
 12 33  1  0  0  0  0
 13 14  1  0  0  0  0
 13 15  1  0  0  0  0
 13 34  1  0  0  0  0
 14 35  1  0  0  0  0
 14 36  1  0  0  0  0
 15 16  1  0  0  0  0
 15 37  1  0  0  0  0
 16 17  1  0  0  0  0
 16 38  1  0  0  0  0
 16 39  1  0  0  0  0
 17 40  1  0  0  0  0
 18 19  1  0  0  0  0
 18 20  1  0  0  0  0
M  END
> <s_m_source_file>
AV-unprocessed.smi

> <i_m_source_file_index>
2881

> <i_lp_mmshare_version>
43012

> <i_f3d_flags>
0

> <s_epik_input>
W0NIM11jMVtjSF1jKG5bbkhdMSlbQ0gyXUMoPU8pW05IXVtDQEhdKFtDQEBIXTIzKVtDQEhdKFtDSDJdW09IXSlbQ0BASF0oW0NIMl0zKVtDSDJdW0NIMl0y

> <s_epik_cmdline>
J2VwaWtfcHl0aG9uJywgJy1waCcsICc3LjAnLCAnLXRuJywgJzgnLCAnLW1hJywgJzIwMCcsICctbWV0YWxfYmluZGluZycsICctaW1hZScsICc8aW5maWxlLm1hZT4nLCAnLW9tYWUnLCAnPG91dGZpbGUubWFlPic=

> <r_lp_tautomer_probability>
0.5

> <r_epik_Ionization_Penalty>
0.00013396

> <r_epik_Ionization_Penalty_Charging>
0

> <r_epik_Ionization_Penalty_Neutral>
0.00013396

> <r_epik_State_Penalty>
0.41068

> <r_epik_Charging_Adjusted_Penalty>
0.41068

> <i_epik_Tot_Q>
0

> <i_epik_Tot_abs_Q>
0

> <r_epik_Metal_State_Penalty>
0.41066

> <b_epik_Metal_Only>
0

> <s_lp_Force_Field>
OPLS_2005

> <r_lp_Energy>
47.2043

> <b_lp_Chiralities_Consistent>
1

> <s_lp_Variant>
AV-unprocessed.smi:2881-9

> <Gold.Version>
5.8.1

> <Gold.Id.Protein>
6NUR|6NUR_protein|mol2

> <Gold.PLP.Fitness>
42.8929

> <Gold.PLP.PLP>
-33.0381

> <Gold.PLP.part.hbond>
-6.0000

> <Gold.PLP.part.metal>
0.0000

> <Gold.PLP.part.buried>
1.6609

> <Gold.PLP.part.nonpolar>
-28.5866

> <Gold.PLP.part.repulsive>
0.3911

> <Gold.PLP.ligand.clash>
0.0000

> <Gold.PLP.ligand.torsion>
0.7751

> <Gold.PLP.Chemscore.Hbond>
3.7920

> <Gold.PLP.Chemscore.CHOScore>
0.0000

> <Gold.PLP.Chemscore.Metal>
0.0000

> <Gold.Chemscore.Hbonds>
donor molecule, donor type, donor heavy atom, donor atom, acceptor molecule, acceptor atom, score
      L1  H     8    27       P1  7957  0.91
      L1  H    17    40       P1  7949  0.94
      L1  H    18    20       P1 10175  1.00
      P1  H 10752 10763       L1    17  0.75

> <Gold.PLP.Chemscore.Internal.Correction>
0.0290

> <Gold.Rescore>
     Score         DG    S(hbond)    S(metal)    S(lipo)     H(rot)  DE(clash)    DE(int)     intcor
     17.07     -18.51       2.96        0.00      76.61       2.28       0.67       0.77       ----

> <Gold.Chemscore.Fitness>
17.0677

> <Gold.Chemscore.DG>
-18.5098

> <Gold.Chemscore.ZeroCoef>
-5.4800

> <Gold.Chemscore.Hbond>
2.9617

> <Gold.Chemscore.Metal>
0.0000

> <Gold.Chemscore.Lipo>
76.6059

> <Gold.Chemscore.Internal_Hbond>
0.0000

> <Gold.Chemscore.DEClash>
0.6722

> <Gold.Chemscore.DEInternal>
0.7699

> <Gold.Chemscore.Rot>
2.2755

> <Gold.Chemscore.Internal.Correction>
   9.000000E+99

> <Gold.Chemscore.Hbonds>
donor molecule, donor type, donor heavy atom, donor atom, acceptor molecule, acceptor atom, score
      L1  H     8    27       P1  7957  0.85
      L1  H    17    40       P1  7949  0.48
      L1  H    18    20       P1 10175  0.96
      P1  H 10752 10763       L1    17  0.03

> <Gold.Chemscore.Hbond.Weighted>
-9.8921

> <Gold.Chemscore.Metal.Weighted>
-0.0000

> <Gold.Chemscore.Lipo.Weighted>
-8.9629

> <Gold.Chemscore.Internal_Hbond.Weighted>
0.0000

> <Gold.Chemscore.DEClash.Weighted>
0.6722

> <Gold.Chemscore.DEInternal.Weighted>
0.7699

> <Gold.Chemscore.Rot.Weighted>
5.8252

> <Gold.Chemscore.Internal.Correction.Weighted>
   9.000000E+99

> <Gold.Protein.RotatedTorsions>
[ 6907 6896 6895 6894 ] final    3.40 input  -60.11 | X-H torsion
[ 7974 7965 7964 7962 ] final  133.97 input  175.53 | X-H torsion
[ 8008 7997 7996 7995 ] final  -62.79 input   59.86 | X-H torsion
[ 10167 10162 10161 10158 ] final  -65.06 input  -65.29 | X-H torsion
[ 10718 10713 10712 10709 ] final  -41.99 input   66.30 | X-H torsion
[ 10763 10752 10751 10750 ] final   25.68 input  -60.55 | X-H torsion
[ 11005 11000 10999 10996 ] final   -6.51 input  -57.11 | X-H torsion

> <Gold.Protein.ActiveResidues>
 VAL166  LYS551  ARG553  GLY616  TRP617  ASP618  TYR619  PRO620  LYS621  CYS622 
 ASP623  PHE694  ASN695  SER759  ASP760  ASP761  ALA762  ILE779  LEU786  VAL792 
 PHE793  MET794  SER795  GLU796  ALA797  LYS798  CYS799  TRP800  GLU811  SER814 

> <Gold.Protein.RotatedAtoms>
  151.6244  135.1029  160.0108 H   0  0  0  0  0  0  0  0  0  0  0  0  # atno 6907 bound_to 6896
  152.4140  133.7005  159.6431 H   0  0  0  0  0  0  0  0  0  0  0  0  # atno 6908 bound_to 6896
  150.8029  133.8490  159.3241 H   0  0  0  0  0  0  0  0  0  0  0  0  # atno 6909 bound_to 6896
  144.9811  139.4503  143.5385 H   0  0  0  0  0  0  0  0  0  0  0  0  # atno 7974 bound_to 7965
  154.4518  140.0988  156.6641 H   0  0  0  0  0  0  0  0  0  0  0  0  # atno 8008 bound_to 7997
  155.5260  140.3480  155.4398 H   0  0  0  0  0  0  0  0  0  0  0  0  # atno 8009 bound_to 7997
  156.0697  140.1346  156.9832 H   0  0  0  0  0  0  0  0  0  0  0  0  # atno 8010 bound_to 7997
  140.5756  143.2321  151.6448 H   0  0  0  0  0  0  0  0  0  0  0  0  # atno 10167 bound_to 10162
  156.2644  130.4200  149.8506 H   0  0  0  0  0  0  0  0  0  0  0  0  # atno 10718 bound_to 10713
  153.0675  135.6577  154.0322 H   0  0  0  0  0  0  0  0  0  0  0  0  # atno 10763 bound_to 10752
  153.9976  135.2940  155.3407 H   0  0  0  0  0  0  0  0  0  0  0  0  # atno 10764 bound_to 10752
  154.7038  135.5234  153.8634 H   0  0  0  0  0  0  0  0  0  0  0  0  # atno 10765 bound_to 10752
  140.7028  133.8975  155.8695 H   0  0  0  0  0  0  0  0  0  0  0  0  # atno 11005 bound_to 11000
  146.3408  139.9085  142.8784 LP  0  0  0  0  0  0  0  0  0  0  0  0  # atno 17320 bound_to 7965
  145.2419  141.0012  143.3931 LP  0  0  0  0  0  0  0  0  0  0  0  0  # atno 17321 bound_to 7965
  139.5141  144.3422  152.0730 LP  0  0  0  0  0  0  0  0  0  0  0  0  # atno 17342 bound_to 10162
  140.2565  144.4113  150.6202 LP  0  0  0  0  0  0  0  0  0  0  0  0  # atno 17343 bound_to 10162
  156.6010  130.8546  151.3432 LP  0  0  0  0  0  0  0  0  0  0  0  0  # atno 17370 bound_to 10713
  157.7262  130.9626  150.1647 LP  0  0  0  0  0  0  0  0  0  0  0  0  # atno 17371 bound_to 10713
  141.0149  134.0969  157.4182 LP  0  0  0  0  0  0  0  0  0  0  0  0  # atno 17394 bound_to 11000
  139.8892  135.0103  156.6666 LP  0  0  0  0  0  0  0  0  0  0  0  0  # atno 17395 bound_to 11000

$$$$
