AV-unprocessed.smi:1570|AV-procd|sdf|6319|dock7
  -GOLD-   22720 6523D 1   1.00000     0.00000
 Structure written by MMmdl.
 52 54  0  0  0  0  0  0  0  0  2 V2000
  155.2544  140.8773  159.9147 C   0  0  0  0  0  0  0  0  0  0  0  0
  153.8662  140.4005  160.3605 C   0  0  0  0  0  0  0  0  0  0  0  0
  152.8324  140.8421  159.4278 N   0  0  0  0  0  0  0  0  0  0  0  0
  152.0184  140.0501  158.6917 C   0  0  0  0  0  0  0  0  0  0  0  0
  152.0252  138.8190  158.6753 O   0  0  0  0  0  0  0  0  0  0  0  0
  151.1783  140.8464  157.9886 N   0  0  0  0  0  0  0  0  0  0  0  0
  150.1318  140.4034  157.0680 C   0  0  0  0  0  0  0  0  0  0  0  0
  150.3821  140.9049  155.6308 C   0  0  1  0  0  0  0  0  0  0  0  0
  151.5657  140.2973  155.1508 O   0  0  0  0  0  0  0  0  0  0  0  0
  149.2347  140.5100  154.6789 C   0  0  0  0  0  0  0  0  0  0  0  0
  147.9213  141.0413  155.1252 N   0  3  1  0  0  0  0  0  0  0  0  0
  147.4109  142.1157  154.2416 C   0  0  0  0  0  0  0  0  0  0  0  0
  146.0829  142.6767  154.7849 C   0  0  1  0  0  0  0  0  0  0  0  0
  145.4801  143.7364  153.8564 C   0  0  0  0  0  0  0  0  0  0  0  0
  145.1457  141.6126  154.9106 O   0  0  0  0  0  0  0  0  0  0  0  0
  145.5757  140.6082  155.8229 C   0  0  1  0  0  0  0  0  0  0  0  0
  144.4581  139.5667  155.9489 C   0  0  0  0  0  0  0  0  0  0  0  0
  146.8889  139.9910  155.3073 C   0  0  0  0  0  0  0  0  0  0  0  0
  151.4530  142.1872  158.2959 C   0  0  0  0  0  0  0  0  0  0  0  0
  150.8578  143.3814  157.8522 C   0  0  0  0  0  0  0  0  0  0  0  0
  151.3726  144.5925  158.3714 C   0  0  0  0  0  0  0  0  0  0  0  0
  152.4440  144.5880  159.3018 C   0  0  0  0  0  0  0  0  0  0  0  0
  153.0232  143.3721  159.7340 C   0  0  0  0  0  0  0  0  0  0  0  0
  152.4938  142.1836  159.2016 C   0  0  0  0  0  0  0  0  0  0  0  0
  156.0218  140.5444  160.6136 H   0  0  0  0  0  0  0  0  0  0  0  0
  155.3008  141.9654  159.8639 H   0  0  0  0  0  0  0  0  0  0  0  0
  155.5098  140.4843  158.9300 H   0  0  0  0  0  0  0  0  0  0  0  0
  153.8501  139.3131  160.4363 H   0  0  0  0  0  0  0  0  0  0  0  0
  153.6492  140.7762  161.3617 H   0  0  0  0  0  0  0  0  0  0  0  0
  150.0116  139.3200  157.0944 H   0  0  0  0  0  0  0  0  0  0  0  0
  149.1884  140.8086  157.4377 H   0  0  0  0  0  0  0  0  0  0  0  0
  150.5127  141.9863  155.6323 H   0  0  0  0  0  0  0  0  0  0  0  0
  152.2612  140.4566  155.7707 H   0  0  0  0  0  0  0  0  0  0  0  0
  149.4671  140.8774  153.6779 H   0  0  0  0  0  0  0  0  0  0  0  0
  149.1636  139.4248  154.5916 H   0  0  0  0  0  0  0  0  0  0  0  0
  148.1472  142.9178  154.1749 H   0  0  0  0  0  0  0  0  0  0  0  0
  147.2720  141.7219  153.2331 H   0  0  0  0  0  0  0  0  0  0  0  0
  146.2475  143.1274  155.7654 H   0  0  0  0  0  0  0  0  0  0  0  0
  146.1544  144.5850  153.7384 H   0  0  0  0  0  0  0  0  0  0  0  0
  144.5382  144.1141  154.2556 H   0  0  0  0  0  0  0  0  0  0  0  0
  145.2806  143.3263  152.8659 H   0  0  0  0  0  0  0  0  0  0  0  0
  145.7410  141.0594  156.8030 H   0  0  0  0  0  0  0  0  0  0  0  0
  144.7345  138.7757  156.6466 H   0  0  0  0  0  0  0  0  0  0  0  0
  144.2392  139.1031  154.9865 H   0  0  0  0  0  0  0  0  0  0  0  0
  143.5383  140.0241  156.3144 H   0  0  0  0  0  0  0  0  0  0  0  0
  146.7157  139.4828  154.3570 H   0  0  0  0  0  0  0  0  0  0  0  0
  147.2335  139.2353  156.0124 H   0  0  0  0  0  0  0  0  0  0  0  0
  150.0397  143.3820  157.1478 H   0  0  0  0  0  0  0  0  0  0  0  0
  150.9432  145.5325  158.0571 H   0  0  0  0  0  0  0  0  0  0  0  0
  152.8207  145.5243  159.6864 H   0  0  0  0  0  0  0  0  0  0  0  0
  153.8360  143.3625  160.4450 H   0  0  0  0  0  0  0  0  0  0  0  0
  148.0780  141.4672  156.0281 H   0  0  0  0  0  0  0  0  0  0  0  0
  1  2  1  0  0  0  0
  1 25  1  0  0  0  0
  1 26  1  0  0  0  0
  1 27  1  0  0  0  0
  2  3  1  0  0  0  0
  2 28  1  0  0  0  0
  2 29  1  0  0  0  0
  3 24  1  0  0  0  0
  3  4  1  0  0  0  0
  4  5  2  0  0  0  0
  4  6  1  0  0  0  0
  6  7  1  0  0  0  0
  6 19  1  0  0  0  0
  7  8  1  0  0  0  0
  7 30  1  0  0  0  0
  7 31  1  0  0  0  0
  8  9  1  0  0  0  0
  8 10  1  0  0  0  0
  8 32  1  0  0  0  0
  9 33  1  0  0  0  0
 10 11  1  0  0  0  0
 10 34  1  0  0  0  0
 10 35  1  0  0  0  0
 11 18  1  0  0  0  0
 11 12  1  0  0  0  0
 11 52  1  0  0  0  0
 12 13  1  0  0  0  0
 12 36  1  0  0  0  0
 12 37  1  0  0  0  0
 13 14  1  0  0  0  0
 13 15  1  0  0  0  0
 13 38  1  0  0  0  0
 14 39  1  0  0  0  0
 14 40  1  0  0  0  0
 14 41  1  0  0  0  0
 15 16  1  0  0  0  0
 16 17  1  0  0  0  0
 16 18  1  0  0  0  0
 16 42  1  0  0  0  0
 17 43  1  0  0  0  0
 17 44  1  0  0  0  0
 17 45  1  0  0  0  0
 18 46  1  0  0  0  0
 18 47  1  0  0  0  0
 19 24  2  0  0  0  0
 19 20  1  0  0  0  0
 20 21  2  0  0  0  0
 20 48  1  0  0  0  0
 21 22  1  0  0  0  0
 21 49  1  0  0  0  0
 22 23  2  0  0  0  0
 22 50  1  0  0  0  0
 23 24  1  0  0  0  0
 23 51  1  0  0  0  0
M  CHG  1  11   1
M  END
> <s_m_source_file>
AV-unprocessed.smi

> <i_m_source_file_index>
1570

> <i_lp_mmshare_version>
43012

> <i_f3d_flags>
0

> <s_epik_input>
W2NIXTFbY0hdW2NIXVtjSF1jKGMxMiluKFtDSDJdW0NIM10pYyg9TyluMltDSDJdW0NASF0oW09IXSlbQ0gyXU4zW0NIMl1bQ0BASF0oW0NIM10pT1tDQEBIXShbQ0gzXSlbQ0gyXTM=

> <s_epik_cmdline>
J2VwaWtfcHl0aG9uJywgJy1waCcsICc3LjAnLCAnLXRuJywgJzgnLCAnLW1hJywgJzIwMCcsICctbWV0YWxfYmluZGluZycsICctaW1hZScsICc8aW5maWxlLm1hZT4nLCAnLW9tYWUnLCAnPG91dGZpbGUubWFlPic=

> <r_epik_Ionization_Penalty>
0.706332

> <r_epik_Ionization_Penalty_Charging>
0.706318

> <r_epik_Ionization_Penalty_Neutral>
1.42224e-05

> <r_epik_State_Penalty>
0.729493

> <r_epik_Charging_Adjusted_Penalty>
1.43581

> <i_epik_Tot_Q>
1

> <i_epik_Tot_abs_Q>
1

> <r_epik_Metal_State_Penalty>
0.729493

> <b_epik_Metal_Only>
0

> <s_lp_Force_Field>
OPLS_2005

> <r_lp_Energy>
52.3817

> <b_lp_Chiralities_Consistent>
1

> <s_lp_Variant>
AV-unprocessed.smi:1570-8

> <Gold.Version>
5.8.1

> <Gold.Id.Protein>
6NUR|6NUR_protein|mol2

> <Gold.PLP.Fitness>
50.7481

> <Gold.PLP.PLP>
-49.2917

> <Gold.PLP.part.hbond>
-1.0000

> <Gold.PLP.part.metal>
0.0000

> <Gold.PLP.part.buried>
-6.6850

> <Gold.PLP.part.nonpolar>
-43.4851

> <Gold.PLP.part.repulsive>
1.0159

> <Gold.PLP.ligand.clash>
0.0000

> <Gold.PLP.ligand.torsion>
0.7520

> <Gold.PLP.Chemscore.Hbond>
0.9600

> <Gold.PLP.Chemscore.CHOScore>
0.0000

> <Gold.PLP.Chemscore.Metal>
0.0000

> <Gold.Chemscore.Hbonds>
donor molecule, donor type, donor heavy atom, donor atom, acceptor molecule, acceptor atom, score
      P1  H  7989  7998       L1     9  0.94

> <Gold.PLP.Chemscore.Internal.Correction>
0.0804

> <Gold.Rescore>
     Score         DG    S(hbond)    S(metal)    S(lipo)     H(rot)  DE(clash)    DE(int)     intcor
     16.36     -17.15       0.69        0.00     126.73       2.13       0.03       0.76       ----

> <Gold.Chemscore.Fitness>
16.3632

> <Gold.Chemscore.DG>
-17.1490

> <Gold.Chemscore.ZeroCoef>
-5.4800

> <Gold.Chemscore.Hbond>
0.6873

> <Gold.Chemscore.Metal>
0.0000

> <Gold.Chemscore.Lipo>
126.7259

> <Gold.Chemscore.Internal_Hbond>
0.0000

> <Gold.Chemscore.DEClash>
0.0272

> <Gold.Chemscore.DEInternal>
0.7586

> <Gold.Chemscore.Rot>
2.1303

> <Gold.Chemscore.Internal.Correction>
   9.000000E+99

> <Gold.Chemscore.Hbonds>
donor molecule, donor type, donor heavy atom, donor atom, acceptor molecule, acceptor atom, score
      P1  H  7989  7998       L1     9  0.35

> <Gold.Chemscore.Hbond.Weighted>
-2.2956

> <Gold.Chemscore.Metal.Weighted>
-0.0000

> <Gold.Chemscore.Lipo.Weighted>
-14.8269

> <Gold.Chemscore.Internal_Hbond.Weighted>
0.0000

> <Gold.Chemscore.DEClash.Weighted>
0.0272

> <Gold.Chemscore.DEInternal.Weighted>
0.7586

> <Gold.Chemscore.Rot.Weighted>
5.4535

> <Gold.Chemscore.Internal.Correction.Weighted>
   9.000000E+99

> <Gold.Protein.RotatedTorsions>
[ 6907 6896 6895 6894 ] final  104.76 input  -60.11 | X-H torsion
[ 7974 7965 7964 7962 ] final  -50.17 input  175.53 | X-H torsion
[ 8008 7997 7996 7995 ] final    9.23 input   59.86 | X-H torsion
[ 10167 10162 10161 10158 ] final  -24.82 input  -65.29 | X-H torsion
[ 10718 10713 10712 10709 ] final  -66.09 input   66.30 | X-H torsion
[ 10763 10752 10751 10750 ] final   -9.94 input  -60.55 | X-H torsion
[ 11005 11000 10999 10996 ] final   86.43 input  -57.11 | X-H torsion

> <Gold.Protein.ActiveResidues>
 VAL166  LYS551  ARG553  GLY616  TRP617  ASP618  TYR619  PRO620  LYS621  CYS622 
 ASP623  PHE694  ASN695  SER759  ASP760  ASP761  ALA762  ILE779  LEU786  VAL792 
 PHE793  MET794  SER795  GLU796  ALA797  LYS798  CYS799  TRP800  GLU811  SER814 

> <Gold.Protein.RotatedAtoms>
  152.5254  133.9629  159.7725 H   0  0  0  0  0  0  0  0  0  0  0  0  # atno 6907 bound_to 6896
  150.9916  133.6135  159.2714 H   0  0  0  0  0  0  0  0  0  0  0  0  # atno 6908 bound_to 6896
  151.3277  135.0840  159.9381 H   0  0  0  0  0  0  0  0  0  0  0  0  # atno 6909 bound_to 6896
  145.9327  140.7735  142.9591 H   0  0  0  0  0  0  0  0  0  0  0  0  # atno 7974 bound_to 7965
  154.7773  140.2812  155.6091 H   0  0  0  0  0  0  0  0  0  0  0  0  # atno 8008 bound_to 7997
  156.2944  140.2630  156.2518 H   0  0  0  0  0  0  0  0  0  0  0  0  # atno 8009 bound_to 7997
  154.9826  140.0374  157.2274 H   0  0  0  0  0  0  0  0  0  0  0  0  # atno 8010 bound_to 7997
  140.7287  143.4319  151.0788 H   0  0  0  0  0  0  0  0  0  0  0  0  # atno 10167 bound_to 10162
  156.0632  130.4257  150.1659 H   0  0  0  0  0  0  0  0  0  0  0  0  # atno 10718 bound_to 10713
  153.4621  135.7016  153.6044 H   0  0  0  0  0  0  0  0  0  0  0  0  # atno 10763 bound_to 10752
  153.4334  135.3797  155.2185 H   0  0  0  0  0  0  0  0  0  0  0  0  # atno 10764 bound_to 10752
  154.8727  135.3956  154.4047 H   0  0  0  0  0  0  0  0  0  0  0  0  # atno 10765 bound_to 10752
  139.8945  134.8355  156.2720 H   0  0  0  0  0  0  0  0  0  0  0  0  # atno 11005 bound_to 11000
  144.6767  140.2153  143.7372 LP  0  0  0  0  0  0  0  0  0  0  0  0  # atno 17320 bound_to 7965
  145.8405  139.2127  143.1830 LP  0  0  0  0  0  0  0  0  0  0  0  0  # atno 17321 bound_to 7965
  139.7977  143.8128  152.3159 LP  0  0  0  0  0  0  0  0  0  0  0  0  # atno 17342 bound_to 10162
  139.8134  144.7326  150.9668 LP  0  0  0  0  0  0  0  0  0  0  0  0  # atno 17343 bound_to 10162
  156.9723  130.9838  151.3456 LP  0  0  0  0  0  0  0  0  0  0  0  0  # atno 17370 bound_to 10713
  157.5655  130.8275  149.8322 LP  0  0  0  0  0  0  0  0  0  0  0  0  # atno 17371 bound_to 10713
  141.0095  133.7104  156.1088 LP  0  0  0  0  0  0  0  0  0  0  0  0  # atno 17394 bound_to 11000
  140.7387  134.4174  157.5557 LP  0  0  0  0  0  0  0  0  0  0  0  0  # atno 17395 bound_to 11000

$$$$
