AV-unprocessed.smi:1114|AV-procd|sdf|4800|dock6
  -GOLD-   22720 3343D 1   1.00000     0.00000
 Structure written by MMmdl.
 52 54  0  0  0  0  0  0  0  0  1 V2000
  143.5781  133.0874  151.5864 C   0  0  0  0  0  0  0  0  0  0  0  0
  143.2422  134.3469  152.3883 C   0  0  0  0  0  0  0  0  0  0  0  0
  142.6613  134.2089  153.4649 O   0  0  0  0  0  0  0  0  0  0  0  0
  143.5947  135.5590  151.8964 N   0  0  0  0  0  0  0  0  0  0  0  0
  143.3886  136.8075  152.6394 C   0  0  0  0  0  0  0  0  0  0  0  0
  144.7563  137.3353  153.1095 C   0  0  0  0  0  0  0  0  0  0  0  0
  145.7297  137.5159  151.9244 C   0  0  0  0  0  0  0  0  0  0  0  0
  147.0627  137.8284  152.4305 N   0  0  0  0  0  0  0  0  0  0  0  0
  147.3354  138.7034  153.4090 C   0  0  0  0  0  0  0  0  0  0  0  0
  146.4699  139.3441  154.0044 O   0  0  0  0  0  0  0  0  0  0  0  0
  148.6582  138.7677  153.6405 N   0  0  0  0  0  0  0  0  0  0  0  0
  149.3752  139.5710  154.5701 C   0  0  0  0  0  0  0  0  0  0  0  0
  150.7451  139.2965  154.7464 C   0  0  0  0  0  0  0  0  0  0  0  0
  151.4959  140.0732  155.6484 C   0  0  0  0  0  0  0  0  0  0  0  0
  150.8563  141.1155  156.3589 C   0  0  0  0  0  0  0  0  0  0  0  0
  151.5876  141.9063  157.2723 N   0  0  0  0  0  0  0  0  0  0  0  0
  152.0544  141.2114  158.4741 C   0  0  0  0  0  0  0  0  0  0  0  0
  153.1616  142.0094  159.1833 C   0  0  0  0  0  0  0  0  0  0  0  0
  152.7071  143.4473  159.4739 C   0  0  0  0  0  0  0  0  0  0  0  0
  152.2390  144.1215  158.1763 C   0  0  0  0  0  0  0  0  0  0  0  0
  151.1477  143.2886  157.4824 C   0  0  0  0  0  0  0  0  0  0  0  0
  149.5407  141.3884  156.1806 N   0  0  0  0  0  0  0  0  0  0  0  0
  148.8236  140.6416  155.3144 C   0  0  0  0  0  0  0  0  0  0  0  0
  145.7706  136.2561  151.0282 C   0  0  0  0  0  0  0  0  0  0  0  0
  144.3523  135.7864  150.6598 C   0  0  0  0  0  0  0  0  0  0  0  0
  144.6523  133.0128  151.4146 H   0  0  0  0  0  0  0  0  0  0  0  0
  143.0634  133.0925  150.6254 H   0  0  0  0  0  0  0  0  0  0  0  0
  143.2652  132.1932  152.1266 H   0  0  0  0  0  0  0  0  0  0  0  0
  142.9052  137.5399  151.9914 H   0  0  0  0  0  0  0  0  0  0  0  0
  142.7238  136.6851  153.4955 H   0  0  0  0  0  0  0  0  0  0  0  0
  144.6282  138.2817  153.6363 H   0  0  0  0  0  0  0  0  0  0  0  0
  145.1776  136.6340  153.8316 H   0  0  0  0  0  0  0  0  0  0  0  0
  145.3671  138.3535  151.3251 H   0  0  0  0  0  0  0  0  0  0  0  0
  147.8357  137.3434  151.9986 H   0  0  0  0  0  0  0  0  0  0  0  0
  149.2285  138.1440  153.0886 H   0  0  0  0  0  0  0  0  0  0  0  0
  151.2219  138.4993  154.1946 H   0  0  0  0  0  0  0  0  0  0  0  0
  152.5495  139.8720  155.7726 H   0  0  0  0  0  0  0  0  0  0  0  0
  151.2070  141.0765  159.1473 H   0  0  0  0  0  0  0  0  0  0  0  0
  152.4306  140.2152  158.2460 H   0  0  0  0  0  0  0  0  0  0  0  0
  153.4439  141.5113  160.1109 H   0  0  0  0  0  0  0  0  0  0  0  0
  154.0545  142.0278  158.5570 H   0  0  0  0  0  0  0  0  0  0  0  0
  151.8922  143.4375  160.1990 H   0  0  0  0  0  0  0  0  0  0  0  0
  153.5205  144.0174  159.9232 H   0  0  0  0  0  0  0  0  0  0  0  0
  151.8651  145.1235  158.3877 H   0  0  0  0  0  0  0  0  0  0  0  0
  153.0879  144.2433  157.5021 H   0  0  0  0  0  0  0  0  0  0  0  0
  150.8996  143.7549  156.5282 H   0  0  0  0  0  0  0  0  0  0  0  0
  150.2396  143.2863  158.0869 H   0  0  0  0  0  0  0  0  0  0  0  0
  147.7913  140.9382  155.2269 H   0  0  0  0  0  0  0  0  0  0  0  0
  146.3411  136.4570  150.1206 H   0  0  0  0  0  0  0  0  0  0  0  0
  146.2903  135.4487  151.5465 H   0  0  0  0  0  0  0  0  0  0  0  0
  144.4064  134.9117  150.0131 H   0  0  0  0  0  0  0  0  0  0  0  0
  143.8502  136.5530  150.0674 H   0  0  0  0  0  0  0  0  0  0  0  0
  1  2  1  0  0  0  0
  1 26  1  0  0  0  0
  1 27  1  0  0  0  0
  1 28  1  0  0  0  0
  2  3  2  0  0  0  0
  2  4  1  0  0  0  0
  4 25  1  0  0  0  0
  4  5  1  0  0  0  0
  5  6  1  0  0  0  0
  5 29  1  0  0  0  0
  5 30  1  0  0  0  0
  6  7  1  0  0  0  0
  6 31  1  0  0  0  0
  6 32  1  0  0  0  0
  7  8  1  0  0  0  0
  7 24  1  0  0  0  0
  7 33  1  0  0  0  0
  8  9  1  0  0  0  0
  8 34  1  0  0  0  0
  9 10  2  0  0  0  0
  9 11  1  0  0  0  0
 11 12  1  0  0  0  0
 11 35  1  0  0  0  0
 12 23  1  0  0  0  0
 12 13  2  0  0  0  0
 13 14  1  0  0  0  0
 13 36  1  0  0  0  0
 14 15  2  0  0  0  0
 14 37  1  0  0  0  0
 15 16  1  0  0  0  0
 15 22  1  0  0  0  0
 16 21  1  0  0  0  0
 16 17  1  0  0  0  0
 17 18  1  0  0  0  0
 17 38  1  0  0  0  0
 17 39  1  0  0  0  0
 18 19  1  0  0  0  0
 18 40  1  0  0  0  0
 18 41  1  0  0  0  0
 19 20  1  0  0  0  0
 19 42  1  0  0  0  0
 19 43  1  0  0  0  0
 20 21  1  0  0  0  0
 20 44  1  0  0  0  0
 20 45  1  0  0  0  0
 21 46  1  0  0  0  0
 21 47  1  0  0  0  0
 22 23  2  0  0  0  0
 23 48  1  0  0  0  0
 24 25  1  0  0  0  0
 24 49  1  0  0  0  0
 24 50  1  0  0  0  0
 25 51  1  0  0  0  0
 25 52  1  0  0  0  0
M  END
> <s_m_source_file>
AV-unprocessed.smi

> <i_m_source_file_index>
1114

> <i_lp_mmshare_version>
43012

> <i_f3d_flags>
0

> <s_epik_input>
W0NIM11DKD1PKU4xW0NIMl1bQ0gyXVtDSF0oW0NIMl1bQ0gyXTEpW05IXUMoPU8pW05IXWMyW2NIXVtjSF1jKG5bY0hdMilOM1tDSDJdW0NIMl1bQ0gyXVtDSDJdW0NIMl0z

> <s_epik_cmdline>
J2VwaWtfcHl0aG9uJywgJy1waCcsICc3LjAnLCAnLXRuJywgJzgnLCAnLW1hJywgJzIwMCcsICctbWV0YWxfYmluZGluZycsICctaW1hZScsICc8aW5maWxlLm1hZT4nLCAnLW9tYWUnLCAnPG91dGZpbGUubWFlPic=

> <r_lp_tautomer_probability>
1

> <r_epik_Ionization_Penalty>
0.108876

> <r_epik_Ionization_Penalty_Charging>
0

> <r_epik_Ionization_Penalty_Neutral>
0.108876

> <r_epik_State_Penalty>
0.0925502

> <r_epik_Charging_Adjusted_Penalty>
0.0925502

> <i_epik_Tot_Q>
0

> <i_epik_Tot_abs_Q>
0

> <r_epik_Metal_State_Penalty>
0.0787426

> <b_epik_Metal_Only>
0

> <s_lp_Force_Field>
OPLS_2005

> <r_lp_Energy>
37.4481

> <b_lp_Chiralities_Consistent>
1

> <s_lp_Variant>
AV-unprocessed.smi:1114-1

> <Gold.Version>
5.8.1

> <Gold.Id.Protein>
6NUR|6NUR_protein|mol2

> <Gold.PLP.Fitness>
48.9179

> <Gold.PLP.PLP>
-45.7797

> <Gold.PLP.part.hbond>
-2.6964

> <Gold.PLP.part.metal>
0.0000

> <Gold.PLP.part.buried>
2.1251

> <Gold.PLP.part.nonpolar>
-47.2987

> <Gold.PLP.part.repulsive>
1.5309

> <Gold.PLP.ligand.clash>
0.0000

> <Gold.PLP.ligand.torsion>
0.6239

> <Gold.PLP.Chemscore.Hbond>
1.3131

> <Gold.PLP.Chemscore.CHOScore>
0.0000

> <Gold.PLP.Chemscore.Metal>
0.0000

> <Gold.Chemscore.Hbonds>
donor molecule, donor type, donor heavy atom, donor atom, acceptor molecule, acceptor atom, score
      L1  H     8    34       P1  7948  1.00
      L1  H    11    35       P1  7948  0.34

> <Gold.PLP.Chemscore.Internal.Correction>
0.4466

> <Gold.Rescore>
     Score         DG    S(hbond)    S(metal)    S(lipo)     H(rot)  DE(clash)    DE(int)     intcor
     15.89     -20.42       1.35        0.00     115.56       1.20       1.44       3.10       ----

> <Gold.Chemscore.Fitness>
15.8868

> <Gold.Chemscore.DG>
-20.4211

> <Gold.Chemscore.ZeroCoef>
-5.4800

> <Gold.Chemscore.Hbond>
1.3453

> <Gold.Chemscore.Metal>
0.0000

> <Gold.Chemscore.Lipo>
115.5606

> <Gold.Chemscore.Internal_Hbond>
0.0000

> <Gold.Chemscore.DEClash>
1.4384

> <Gold.Chemscore.DEInternal>
3.0958

> <Gold.Chemscore.Rot>
1.2003

> <Gold.Chemscore.Internal.Correction>
   9.000000E+99

> <Gold.Chemscore.Hbonds>
donor molecule, donor type, donor heavy atom, donor atom, acceptor molecule, acceptor atom, score
      L1  H     8    34       P1  7948  0.95
      L1  H    11    35       P1  7948  0.33

> <Gold.Chemscore.Hbond.Weighted>
-4.4932

> <Gold.Chemscore.Metal.Weighted>
-0.0000

> <Gold.Chemscore.Lipo.Weighted>
-13.5206

> <Gold.Chemscore.Internal_Hbond.Weighted>
0.0000

> <Gold.Chemscore.DEClash.Weighted>
1.4384

> <Gold.Chemscore.DEInternal.Weighted>
3.0958

> <Gold.Chemscore.Rot.Weighted>
3.0728

> <Gold.Chemscore.Internal.Correction.Weighted>
   9.000000E+99

> <Gold.Protein.RotatedTorsions>
[ 6907 6896 6895 6894 ] final -138.95 input  -60.11 | X-H torsion
[ 7974 7965 7964 7962 ] final   52.49 input  175.53 | X-H torsion
[ 8008 7997 7996 7995 ] final  -36.37 input   59.86 | X-H torsion
[ 10167 10162 10161 10158 ] final   45.29 input  -65.29 | X-H torsion
[ 10718 10713 10712 10709 ] final  119.73 input   66.30 | X-H torsion
[ 10763 10752 10751 10750 ] final -154.19 input  -60.55 | X-H torsion
[ 11005 11000 10999 10996 ] final  165.48 input  -57.11 | X-H torsion

> <Gold.Protein.ActiveResidues>
 VAL166  LYS551  ARG553  GLY616  TRP617  ASP618  TYR619  PRO620  LYS621  CYS622 
 ASP623  PHE694  ASN695  SER759  ASP760  ASP761  ALA762  ILE779  LEU786  VAL792 
 PHE793  MET794  SER795  GLU796  ALA797  LYS798  CYS799  TRP800  GLU811  SER814 

> <Gold.Protein.RotatedAtoms>
  151.0415  133.5702  159.2650 H   0  0  0  0  0  0  0  0  0  0  0  0  # atno 6907 bound_to 6896
  151.2746  135.0694  159.9157 H   0  0  0  0  0  0  0  0  0  0  0  0  # atno 6908 bound_to 6896
  152.5365  134.0140  159.8005 H   0  0  0  0  0  0  0  0  0  0  0  0  # atno 6909 bound_to 6896
  145.9808  139.4240  143.0133 H   0  0  0  0  0  0  0  0  0  0  0  0  # atno 7974 bound_to 7965
  154.4074  140.1632  156.2363 H   0  0  0  0  0  0  0  0  0  0  0  0  # atno 8008 bound_to 7997
  155.9239  140.3419  155.6172 H   0  0  0  0  0  0  0  0  0  0  0  0  # atno 8009 bound_to 7997
  155.7188  140.0766  157.2330 H   0  0  0  0  0  0  0  0  0  0  0  0  # atno 8010 bound_to 7997
  140.3257  144.2651  150.6175 H   0  0  0  0  0  0  0  0  0  0  0  0  # atno 10167 bound_to 10162
  157.5941  131.1060  150.7936 H   0  0  0  0  0  0  0  0  0  0  0  0  # atno 10718 bound_to 10713
  154.7875  135.3195  154.7852 H   0  0  0  0  0  0  0  0  0  0  0  0  # atno 10763 bound_to 10752
  153.8548  135.6859  153.4793 H   0  0  0  0  0  0  0  0  0  0  0  0  # atno 10764 bound_to 10752
  153.1533  135.4690  154.9607 H   0  0  0  0  0  0  0  0  0  0  0  0  # atno 10765 bound_to 10752
  140.2566  134.7935  157.3551 H   0  0  0  0  0  0  0  0  0  0  0  0  # atno 11005 bound_to 11000
  145.7773  140.9871  143.1118 LP  0  0  0  0  0  0  0  0  0  0  0  0  # atno 17320 bound_to 7965
  144.6861  139.9520  143.7478 LP  0  0  0  0  0  0  0  0  0  0  0  0  # atno 17321 bound_to 7965
  140.5443  143.2217  151.8033 LP  0  0  0  0  0  0  0  0  0  0  0  0  # atno 17342 bound_to 10162
  139.4866  144.4559  151.9598 LP  0  0  0  0  0  0  0  0  0  0  0  0  # atno 17343 bound_to 10162
  156.8351  130.5029  149.5327 LP  0  0  0  0  0  0  0  0  0  0  0  0  # atno 17370 bound_to 10713
  156.1001  130.5962  150.9879 LP  0  0  0  0  0  0  0  0  0  0  0  0  # atno 17371 bound_to 10713
  140.1506  134.4855  155.7964 LP  0  0  0  0  0  0  0  0  0  0  0  0  # atno 17394 bound_to 11000
  141.2195  133.6861  156.7371 LP  0  0  0  0  0  0  0  0  0  0  0  0  # atno 17395 bound_to 11000

$$$$
