AV-unprocessed.smi:1671|AV-procd|sdf|6699|dock5
  -GOLD-   22720 7433D 1   1.00000     0.00000
 Structure written by MMmdl.
 44 45  0  0  0  0  0  0  0  0  1 V2000
  151.0284  132.7010  156.5075 C   0  0  0  0  0  0  0  0  0  0  0  0
  151.2769  134.4894  156.3383 S   0  0  0  0  0  0  0  0  0  0  0  0
  149.6837  134.9949  155.6234 C   0  0  2  0  0  0  0  0  0  0  0  0
  149.3303  134.1499  154.3860 C   0  0  0  0  0  0  0  0  0  0  0  0
  149.6804  136.4972  155.3132 C   0  0  0  0  0  0  0  0  0  0  0  0
  148.8848  137.2541  155.8714 O   0  0  0  0  0  0  0  0  0  0  0  0
  150.5756  136.9168  154.4070 N   0  0  0  0  0  0  0  0  0  0  0  0
  150.7115  138.2957  153.9563 C   0  0  0  0  0  0  0  0  0  0  0  0
  151.0950  139.2424  155.0792 C   0  0  0  0  0  0  0  0  0  0  0  0
  150.3678  140.4244  155.3239 C   0  0  0  0  0  0  0  0  0  0  0  0
  150.7728  141.2711  156.3735 C   0  0  0  0  0  0  0  0  0  0  0  0
  151.8966  140.9137  157.1573 C   0  0  0  0  0  0  0  0  0  0  0  0
  152.3231  141.7428  158.2194 N   0  0  0  0  0  0  0  0  0  0  0  0
  152.6026  141.1156  159.5104 C   0  0  0  0  0  0  0  0  0  0  0  0
  153.3371  142.0981  160.4371 C   0  0  0  0  0  0  0  0  0  0  0  0
  152.5824  143.2989  160.5572 O   0  0  0  0  0  0  0  0  0  0  0  0
  152.4211  143.9576  159.3043 C   0  0  2  0  0  0  0  0  0  0  0  0
  151.6846  145.2791  159.5475 C   0  0  0  0  0  0  0  0  0  0  0  0
  151.6508  143.0348  158.3396 C   0  0  0  0  0  0  0  0  0  0  0  0
  152.5995  139.7805  156.9075 N   0  0  0  0  0  0  0  0  0  0  0  0
  152.2093  138.9738  155.8984 C   0  0  0  0  0  0  0  0  0  0  0  0
  151.8927  132.2497  156.9945 H   0  0  0  0  0  0  0  0  0  0  0  0
  150.9046  132.2321  155.5317 H   0  0  0  0  0  0  0  0  0  0  0  0
  150.1454  132.4920  157.1115 H   0  0  0  0  0  0  0  0  0  0  0  0
  148.9176  134.8216  156.3807 H   0  0  0  0  0  0  0  0  0  0  0  0
  148.4101  134.4991  153.9162 H   0  0  0  0  0  0  0  0  0  0  0  0
  149.1765  133.1044  154.6514 H   0  0  0  0  0  0  0  0  0  0  0  0
  150.1224  134.1873  153.6371 H   0  0  0  0  0  0  0  0  0  0  0  0
  151.1887  136.2327  153.9879 H   0  0  0  0  0  0  0  0  0  0  0  0
  151.4586  138.3372  153.1623 H   0  0  0  0  0  0  0  0  0  0  0  0
  149.7690  138.6404  153.5275 H   0  0  0  0  0  0  0  0  0  0  0  0
  149.5153  140.6858  154.7142 H   0  0  0  0  0  0  0  0  0  0  0  0
  150.2283  142.1862  156.5495 H   0  0  0  0  0  0  0  0  0  0  0  0
  151.6640  140.8009  159.9687 H   0  0  0  0  0  0  0  0  0  0  0  0
  153.2166  140.2242  159.3764 H   0  0  0  0  0  0  0  0  0  0  0  0
  153.4633  141.6575  161.4261 H   0  0  0  0  0  0  0  0  0  0  0  0
  154.3360  142.3184  160.0571 H   0  0  0  0  0  0  0  0  0  0  0  0
  153.4056  144.1818  158.8891 H   0  0  0  0  0  0  0  0  0  0  0  0
  151.5445  145.8281  158.6159 H   0  0  0  0  0  0  0  0  0  0  0  0
  152.2467  145.9187  160.2283 H   0  0  0  0  0  0  0  0  0  0  0  0
  150.7012  145.1082  159.9866 H   0  0  0  0  0  0  0  0  0  0  0  0
  151.5580  143.5342  157.3767 H   0  0  0  0  0  0  0  0  0  0  0  0
  150.6375  142.8680  158.7082 H   0  0  0  0  0  0  0  0  0  0  0  0
  152.8054  138.0862  155.7452 H   0  0  0  0  0  0  0  0  0  0  0  0
  1  2  1  0  0  0  0
  1 22  1  0  0  0  0
  1 23  1  0  0  0  0
  1 24  1  0  0  0  0
  2  3  1  0  0  0  0
  3  4  1  0  0  0  0
  3  5  1  0  0  0  0
  3 25  1  0  0  0  0
  4 26  1  0  0  0  0
  4 27  1  0  0  0  0
  4 28  1  0  0  0  0
  5  6  2  0  0  0  0
  5  7  1  0  0  0  0
  7  8  1  0  0  0  0
  7 29  1  0  0  0  0
  8  9  1  0  0  0  0
  8 30  1  0  0  0  0
  8 31  1  0  0  0  0
  9 21  1  0  0  0  0
  9 10  2  0  0  0  0
 10 11  1  0  0  0  0
 10 32  1  0  0  0  0
 11 12  2  0  0  0  0
 11 33  1  0  0  0  0
 12 13  1  0  0  0  0
 12 20  1  0  0  0  0
 13 19  1  0  0  0  0
 13 14  1  0  0  0  0
 14 15  1  0  0  0  0
 14 34  1  0  0  0  0
 14 35  1  0  0  0  0
 15 16  1  0  0  0  0
 15 36  1  0  0  0  0
 15 37  1  0  0  0  0
 16 17  1  0  0  0  0
 17 18  1  0  0  0  0
 17 19  1  0  0  0  0
 17 38  1  0  0  0  0
 18 39  1  0  0  0  0
 18 40  1  0  0  0  0
 18 41  1  0  0  0  0
 19 42  1  0  0  0  0
 19 43  1  0  0  0  0
 20 21  2  0  0  0  0
 21 44  1  0  0  0  0
M  END
> <s_m_source_file>
AV-unprocessed.smi

> <i_m_source_file_index>
1671

> <i_lp_mmshare_version>
43012

> <i_f3d_flags>
0

> <s_epik_input>
W0NIM11TW0NASF0oW0NIM10pQyg9TylbTkhdW0NIMl1jMVtjSF1bY0hdYyhuW2NIXTEpTjJbQ0gyXVtDSDJdT1tDQEBIXShbQ0gzXSlbQ0gyXTI=

> <s_epik_cmdline>
J2VwaWtfcHl0aG9uJywgJy1waCcsICc3LjAnLCAnLXRuJywgJzgnLCAnLW1hJywgJzIwMCcsICctbWV0YWxfYmluZGluZycsICctaW1hZScsICc8aW5maWxlLm1hZT4nLCAnLW9tYWUnLCAnPG91dGZpbGUubWFlPic=

> <r_lp_tautomer_probability>
1

> <r_epik_Ionization_Penalty>
0.00480033

> <r_epik_Ionization_Penalty_Charging>
0

> <r_epik_Ionization_Penalty_Neutral>
0.00480033

> <r_epik_State_Penalty>
0.00347981

> <r_epik_Charging_Adjusted_Penalty>
0.00347981

> <i_epik_Tot_Q>
0

> <i_epik_Tot_abs_Q>
0

> <r_epik_Metal_State_Penalty>
-0

> <b_epik_Metal_Only>
0

> <s_lp_Force_Field>
OPLS_2005

> <r_lp_Energy>
17.324

> <b_lp_Chiralities_Consistent>
1

> <s_lp_Variant>
AV-unprocessed.smi:1671-3

> <Gold.Version>
5.8.1

> <Gold.Id.Protein>
6NUR|6NUR_protein|mol2

> <Gold.PLP.Fitness>
46.2064

> <Gold.PLP.PLP>
-43.3202

> <Gold.PLP.part.hbond>
-2.6722

> <Gold.PLP.part.metal>
0.0000

> <Gold.PLP.part.buried>
-3.8314

> <Gold.PLP.part.nonpolar>
-36.1439

> <Gold.PLP.part.repulsive>
0.1491

> <Gold.PLP.ligand.clash>
0.0000

> <Gold.PLP.ligand.torsion>
0.2816

> <Gold.PLP.Chemscore.Hbond>
1.0000

> <Gold.PLP.Chemscore.CHOScore>
0.0000

> <Gold.PLP.Chemscore.Metal>
0.0000

> <Gold.Chemscore.Hbonds>
donor molecule, donor type, donor heavy atom, donor atom, acceptor molecule, acceptor atom, score
      P1  H  7997  8010       L1    20  0.95

> <Gold.PLP.Chemscore.Internal.Correction>
0.4493

> <Gold.Rescore>
     Score         DG    S(hbond)    S(metal)    S(lipo)     H(rot)  DE(clash)    DE(int)     intcor
     16.37     -16.61       0.84        0.00     106.86       1.63       0.02       0.23       ----

> <Gold.Chemscore.Fitness>
16.3697

> <Gold.Chemscore.DG>
-16.6144

> <Gold.Chemscore.ZeroCoef>
-5.4800

> <Gold.Chemscore.Hbond>
0.8375

> <Gold.Chemscore.Metal>
0.0000

> <Gold.Chemscore.Lipo>
106.8621

> <Gold.Chemscore.Internal_Hbond>
0.0000

> <Gold.Chemscore.DEClash>
0.0186

> <Gold.Chemscore.DEInternal>
0.2261

> <Gold.Chemscore.Rot>
1.6272

> <Gold.Chemscore.Internal.Correction>
   9.000000E+99

> <Gold.Chemscore.Hbonds>
donor molecule, donor type, donor heavy atom, donor atom, acceptor molecule, acceptor atom, score
      P1  H  7997  8010       L1    20  0.17

> <Gold.Chemscore.Hbond.Weighted>
-2.7972

> <Gold.Chemscore.Metal.Weighted>
-0.0000

> <Gold.Chemscore.Lipo.Weighted>
-12.5029

> <Gold.Chemscore.Internal_Hbond.Weighted>
0.0000

> <Gold.Chemscore.DEClash.Weighted>
0.0186

> <Gold.Chemscore.DEInternal.Weighted>
0.2261

> <Gold.Chemscore.Rot.Weighted>
4.1657

> <Gold.Chemscore.Internal.Correction.Weighted>
   9.000000E+99

> <Gold.Protein.RotatedTorsions>
[ 6907 6896 6895 6894 ] final   52.77 input  -60.11 | X-H torsion
[ 7974 7965 7964 7962 ] final   45.01 input  175.53 | X-H torsion
[ 8008 7997 7996 7995 ] final   77.70 input   59.86 | X-H torsion
[ 10167 10162 10161 10158 ] final -102.81 input  -65.29 | X-H torsion
[ 10718 10713 10712 10709 ] final   15.27 input   66.30 | X-H torsion
[ 10763 10752 10751 10750 ] final   52.27 input  -60.55 | X-H torsion
[ 11005 11000 10999 10996 ] final -108.80 input  -57.11 | X-H torsion

> <Gold.Protein.ActiveResidues>
 VAL166  LYS551  ARG553  GLY616  TRP617  ASP618  TYR619  PRO620  LYS621  CYS622 
 ASP623  PHE694  ASN695  SER759  ASP760  ASP761  ALA762  ILE779  LEU786  VAL792 
 PHE793  MET794  SER795  GLU796  ALA797  LYS798  CYS799  TRP800  GLU811  SER814 

> <Gold.Protein.RotatedAtoms>
  152.3268  134.7311  160.0299 H   0  0  0  0  0  0  0  0  0  0  0  0  # atno 6907 bound_to 6896
  151.7741  133.3338  159.3461 H   0  0  0  0  0  0  0  0  0  0  0  0  # atno 6908 bound_to 6896
  150.7400  134.5923  159.6038 H   0  0  0  0  0  0  0  0  0  0  0  0  # atno 6909 bound_to 6896
  146.0518  139.5011  142.9713 H   0  0  0  0  0  0  0  0  0  0  0  0  # atno 7974 bound_to 7965
  155.8453  140.3460  155.5658 H   0  0  0  0  0  0  0  0  0  0  0  0  # atno 8008 bound_to 7997
  155.8096  140.0897  157.1931 H   0  0  0  0  0  0  0  0  0  0  0  0  # atno 8009 bound_to 7997
  154.4006  140.1450  156.3359 H   0  0  0  0  0  0  0  0  0  0  0  0  # atno 8010 bound_to 7997
  140.2267  143.3636  152.0922 H   0  0  0  0  0  0  0  0  0  0  0  0  # atno 10167 bound_to 10162
  157.0510  130.6270  149.5768 H   0  0  0  0  0  0  0  0  0  0  0  0  # atno 10718 bound_to 10713
  152.9788  135.5818  154.4551 H   0  0  0  0  0  0  0  0  0  0  0  0  # atno 10763 bound_to 10752
  154.4135  135.2770  155.2024 H   0  0  0  0  0  0  0  0  0  0  0  0  # atno 10764 bound_to 10752
  154.3804  135.6148  153.5841 H   0  0  0  0  0  0  0  0  0  0  0  0  # atno 10765 bound_to 10752
  141.0882  133.9102  157.2137 H   0  0  0  0  0  0  0  0  0  0  0  0  # atno 11005 bound_to 11000
  145.6711  141.0216  143.1657 LP  0  0  0  0  0  0  0  0  0  0  0  0  # atno 17320 bound_to 7965
  144.7127  139.8312  143.7409 LP  0  0  0  0  0  0  0  0  0  0  0  0  # atno 17321 bound_to 7965
  139.5124  144.6917  151.5742 LP  0  0  0  0  0  0  0  0  0  0  0  0  # atno 17342 bound_to 10162
  140.6215  143.9249  150.6530 LP  0  0  0  0  0  0  0  0  0  0  0  0  # atno 17343 bound_to 10162
  156.0007  130.5086  150.7654 LP  0  0  0  0  0  0  0  0  0  0  0  0  # atno 17370 bound_to 10713
  157.5030  131.0920  151.0291 LP  0  0  0  0  0  0  0  0  0  0  0  0  # atno 17371 bound_to 10713
  139.9703  135.0130  156.9495 LP  0  0  0  0  0  0  0  0  0  0  0  0  # atno 17394 bound_to 11000
  140.5314  134.0810  155.7317 LP  0  0  0  0  0  0  0  0  0  0  0  0  # atno 17395 bound_to 11000

$$$$
