AV-unprocessed.smi:35|AV-procd|sdf|272|dock4
  -GOLD-   2262016 43D 1   1.00000     0.00000
 Structure written by MMmdl.
 28 29  0  0  0  0  0  0  0  0  2 V2000
  151.2348  135.6917  155.2240 O   0  0  0  0  0  0  0  0  0  0  0  0
  150.9009  136.8702  155.1173 C   0  0  0  0  0  0  0  0  0  0  0  0
  151.7993  137.8960  155.0904 N   0  5  0  0  0  0  0  0  0  0  0  0
  151.4222  139.2048  154.9927 C   0  0  0  0  0  0  0  0  0  0  0  0
  152.2330  140.1273  154.9118 O   0  0  0  0  0  0  0  0  0  0  0  0
  150.0347  139.5268  154.9718 N   0  0  0  0  0  0  0  0  0  0  0  0
  149.6082  140.9819  154.8438 C   0  0  1  0  0  0  0  0  0  0  0  0
  149.1455  141.2192  153.5416 O   0  0  0  0  0  0  0  0  0  0  0  0
  147.7235  141.3366  153.4981 C   0  0  1  0  0  0  0  0  0  0  0  0
  147.0585  139.9562  153.2871 C   0  0  0  0  0  0  0  0  0  0  0  0
  147.3187  139.4886  151.9808 O   0  0  0  0  0  0  0  0  0  0  0  0
  147.4348  141.9958  154.8510 C   0  0  1  0  0  0  0  0  0  0  0  0
  146.1045  141.8082  155.2931 O   0  0  0  0  0  0  0  0  0  0  0  0
  148.4394  141.3430  155.7907 C   0  0  2  0  0  0  0  0  0  0  0  0
  148.8296  142.2762  156.7779 O   0  0  0  0  0  0  0  0  0  0  0  0
  149.1058  138.4975  154.9260 C   0  0  0  0  0  0  0  0  0  0  0  0
  149.4854  137.2065  155.0050 C   0  0  0  0  0  0  0  0  0  0  0  0
  148.0417  135.8505  154.9507 Br  0  0  0  0  0  0  0  0  0  0  0  0
  150.5222  141.5520  155.0193 H   0  0  0  0  0  0  0  0  0  0  0  0
  147.4293  142.0060  152.6886 H   0  0  0  0  0  0  0  0  0  0  0  0
  147.3708  139.2221  154.0281 H   0  0  0  0  0  0  0  0  0  0  0  0
  145.9750  140.0376  153.3700 H   0  0  0  0  0  0  0  0  0  0  0  0
  148.2517  139.5152  151.8338 H   0  0  0  0  0  0  0  0  0  0  0  0
  147.6365  143.0653  154.7658 H   0  0  0  0  0  0  0  0  0  0  0  0
  146.1303  141.5182  156.1923 H   0  0  0  0  0  0  0  0  0  0  0  0
  148.0236  140.4396  156.2408 H   0  0  0  0  0  0  0  0  0  0  0  0
  148.8240  143.1363  156.3839 H   0  0  0  0  0  0  0  0  0  0  0  0
  148.0529  138.7113  154.8265 H   0  0  0  0  0  0  0  0  0  0  0  0
  1  2  2  0  0  0  0
  2 17  1  0  0  0  0
  2  3  1  0  0  0  0
  3  4  1  0  0  0  0
  4  5  2  0  0  0  0
  4  6  1  0  0  0  0
  6  7  1  0  0  0  0
  6 16  1  0  0  0  0
  7 14  1  0  0  0  0
  7  8  1  0  0  0  0
  7 19  1  0  0  0  0
  8  9  1  0  0  0  0
  9 10  1  0  0  0  0
  9 12  1  0  0  0  0
  9 20  1  0  0  0  0
 10 11  1  0  0  0  0
 10 21  1  0  0  0  0
 10 22  1  0  0  0  0
 11 23  1  0  0  0  0
 12 13  1  0  0  0  0
 12 14  1  0  0  0  0
 12 24  1  0  0  0  0
 13 25  1  0  0  0  0
 14 15  1  0  0  0  0
 14 26  1  0  0  0  0
 15 27  1  0  0  0  0
 16 17  2  0  0  0  0
 16 28  1  0  0  0  0
 17 18  1  0  0  0  0
M  CHG  1   3  -1
M  END
> <s_m_source_file>
AV-unprocessed.smi

> <i_m_source_file_index>
35

> <i_lp_mmshare_version>
43012

> <i_f3d_flags>
0

> <s_epik_input>
Tz1jMVtuSF1jKD1PKW4oW2NIXWMxQnIpW0NAQEhdMk9bQ0BASF0oW0NIMl1bT0hdKVtDQEBIXShbT0hdKVtDQEhdMltPSF0=

> <s_epik_cmdline>
J2VwaWtfcHl0aG9uJywgJy1waCcsICc3LjAnLCAnLXRuJywgJzgnLCAnLW1hJywgJzIwMCcsICctbWV0YWxfYmluZGluZycsICctaW1hZScsICc8aW5maWxlLm1hZT4nLCAnLW9tYWUnLCAnPG91dGZpbGUubWFlPic=

> <r_epik_Ionization_Penalty>
1.06112

> <r_epik_Ionization_Penalty_Charging>
2.1796e-09

> <r_epik_Ionization_Penalty_Neutral>
1.06112

> <r_epik_State_Penalty>
1.11484

> <r_epik_Charging_Adjusted_Penalty>
1.11484

> <i_epik_Tot_Q>
-1

> <i_epik_Tot_abs_Q>
1

> <r_epik_Metal_State_Penalty>
0.0032876

> <b_epik_Metal_Only>
0

> <s_epik_Chemistry_Notes>
This compound contains an acetal/aminal-like group ( X-CH(R)-Y where X, Y are N, S, or O) that may be acid/base labile, releasing an aldehyde.

> <s_lp_Force_Field>
OPLS_2005

> <r_lp_Energy>
39.1744

> <b_lp_Chiralities_Consistent>
1

> <s_lp_Variant>
AV-unprocessed.smi:35-26

> <Gold.Version>
5.8.1

> <Gold.Id.Protein>
6NUR|6NUR_protein|mol2

> <Gold.PLP.Fitness>
40.5015

> <Gold.PLP.PLP>
-27.1386

> <Gold.PLP.part.hbond>
-5.6852

> <Gold.PLP.part.metal>
0.0000

> <Gold.PLP.part.buried>
-3.4502

> <Gold.PLP.part.nonpolar>
-19.3745

> <Gold.PLP.part.repulsive>
3.0282

> <Gold.PLP.ligand.clash>
0.0000

> <Gold.PLP.ligand.torsion>
0.3213

> <Gold.PLP.Chemscore.Hbond>
4.6480

> <Gold.PLP.Chemscore.CHOScore>
0.0000

> <Gold.PLP.Chemscore.Metal>
0.0000

> <Gold.Chemscore.Hbonds>
donor molecule, donor type, donor heavy atom, donor atom, acceptor molecule, acceptor atom, score
      L1  H    11    23       P1  7957  1.00
      L1  H    15    27       P1  8028  1.00
      P1  H  7989  7998       L1     5  0.67
      P1  H  8011  8017       L1     8  0.98
      P1  H 10752 10765       L1     1  1.00

> <Gold.PLP.Chemscore.Internal.Correction>
0.0615

> <Gold.Rescore>
     Score         DG    S(hbond)    S(metal)    S(lipo)     H(rot)  DE(clash)    DE(int)     intcor
     10.31     -13.29       3.93        0.00      33.98       3.63       1.62       1.37       ----

> <Gold.Chemscore.Fitness>
10.3085

> <Gold.Chemscore.DG>
-13.2903

> <Gold.Chemscore.ZeroCoef>
-5.4800

> <Gold.Chemscore.Hbond>
3.9272

> <Gold.Chemscore.Metal>
0.0000

> <Gold.Chemscore.Lipo>
33.9849

> <Gold.Chemscore.Internal_Hbond>
0.0000

> <Gold.Chemscore.DEClash>
1.6164

> <Gold.Chemscore.DEInternal>
1.3653

> <Gold.Chemscore.Rot>
3.6261

> <Gold.Chemscore.Internal.Correction>
   9.000000E+99

> <Gold.Chemscore.Hbonds>
donor molecule, donor type, donor heavy atom, donor atom, acceptor molecule, acceptor atom, score
      L1  H    11    23       P1  7957  0.95
      L1  H    15    27       P1  8028  0.98
      P1  H  7989  7998       L1     5  0.17
      P1  H  8011  8017       L1     8  0.52
      P1  H 10752 10765       L1     1  0.76

> <Gold.Chemscore.Hbond.Weighted>
-13.1168

> <Gold.Chemscore.Metal.Weighted>
-0.0000

> <Gold.Chemscore.Lipo.Weighted>
-3.9762

> <Gold.Chemscore.Internal_Hbond.Weighted>
0.0000

> <Gold.Chemscore.DEClash.Weighted>
1.6164

> <Gold.Chemscore.DEInternal.Weighted>
1.3653

> <Gold.Chemscore.Rot.Weighted>
9.2828

> <Gold.Chemscore.Internal.Correction.Weighted>
   9.000000E+99

> <Gold.Protein.RotatedTorsions>
[ 6907 6896 6895 6894 ] final -111.78 input  -60.11 | X-H torsion
[ 7974 7965 7964 7962 ] final -174.11 input  175.53 | X-H torsion
[ 8008 7997 7996 7995 ] final  172.47 input   59.86 | X-H torsion
[ 10167 10162 10161 10158 ] final  109.57 input  -65.29 | X-H torsion
[ 10718 10713 10712 10709 ] final   65.75 input   66.30 | X-H torsion
[ 10763 10752 10751 10750 ] final -159.22 input  -60.55 | X-H torsion
[ 11005 11000 10999 10996 ] final  -86.39 input  -57.11 | X-H torsion

> <Gold.Protein.ActiveResidues>
 VAL166  LYS551  ARG553  GLY616  TRP617  ASP618  TYR619  PRO620  LYS621  CYS622 
 ASP623  PHE694  ASN695  SER759  ASP760  ASP761  ALA762  ILE779  LEU786  VAL792 
 PHE793  MET794  SER795  GLU796  ALA797  LYS798  CYS799  TRP800  GLU811  SER814 

> <Gold.Protein.RotatedAtoms>
  150.7714  133.9185  159.3390 H   0  0  0  0  0  0  0  0  0  0  0  0  # atno 6907 bound_to 6896
  151.7070  135.0918  160.0270 H   0  0  0  0  0  0  0  0  0  0  0  0  # atno 6908 bound_to 6896
  152.3732  133.6409  159.6139 H   0  0  0  0  0  0  0  0  0  0  0  0  # atno 6909 bound_to 6896
  144.7133  140.1521  143.6383 H   0  0  0  0  0  0  0  0  0  0  0  0  # atno 7974 bound_to 7965
  156.1171  140.1485  156.9257 H   0  0  0  0  0  0  0  0  0  0  0  0  # atno 8008 bound_to 7997
  154.4808  140.0880  156.7415 H   0  0  0  0  0  0  0  0  0  0  0  0  # atno 8009 bound_to 7997
  155.4494  140.3434  155.4301 H   0  0  0  0  0  0  0  0  0  0  0  0  # atno 8010 bound_to 7997
  139.6756  144.7122  151.1608 H   0  0  0  0  0  0  0  0  0  0  0  0  # atno 10167 bound_to 10162
  157.6125  130.9231  150.0018 H   0  0  0  0  0  0  0  0  0  0  0  0  # atno 10718 bound_to 10713
  154.7492  135.3088  154.8588 H   0  0  0  0  0  0  0  0  0  0  0  0  # atno 10763 bound_to 10752
  153.9380  135.6778  153.4749 H   0  0  0  0  0  0  0  0  0  0  0  0  # atno 10764 bound_to 10752
  153.1088  135.4876  154.8927 H   0  0  0  0  0  0  0  0  0  0  0  0  # atno 10765 bound_to 10752
  141.1630  133.7452  156.9154 H   0  0  0  0  0  0  0  0  0  0  0  0  # atno 11005 bound_to 11000
  145.9107  139.2485  143.1439 LP  0  0  0  0  0  0  0  0  0  0  0  0  # atno 17320 bound_to 7965
  145.9719  140.8753  143.0158 LP  0  0  0  0  0  0  0  0  0  0  0  0  # atno 17321 bound_to 7965
  140.7634  143.5777  150.8928 LP  0  0  0  0  0  0  0  0  0  0  0  0  # atno 17342 bound_to 10162
  139.9446  143.6343  152.3045 LP  0  0  0  0  0  0  0  0  0  0  0  0  # atno 17343 bound_to 10162
  156.1234  130.3645  149.9850 LP  0  0  0  0  0  0  0  0  0  0  0  0  # atno 17370 bound_to 10713
  156.7925  130.9261  151.3646 LP  0  0  0  0  0  0  0  0  0  0  0  0  # atno 17371 bound_to 10713
  140.1488  134.9244  157.2565 LP  0  0  0  0  0  0  0  0  0  0  0  0  # atno 17394 bound_to 11000
  140.2748  134.3418  155.7362 LP  0  0  0  0  0  0  0  0  0  0  0  0  # atno 17395 bound_to 11000

$$$$
