AV-unprocessed.smi:2557|AV-procd|sdf|10027|dock1
  -GOLD-   2272014 73D 1   1.00000     0.00000
 Structure written by MMmdl.
 38 40  0  0  0  0  0  0  0  0  2 V2000
  151.5514  135.0460  155.2212 O   0  5  0  0  0  0  0  0  0  0  0  0
  150.4101  135.4975  154.9651 C   0  0  0  0  0  0  0  0  0  0  0  0
  149.2721  134.9087  154.4084 C   0  0  0  0  0  0  0  0  0  0  0  0
  149.2543  133.4890  154.0203 C   0  0  0  0  0  0  0  0  0  0  0  0
  150.1958  132.7038  154.1246 O   0  0  0  0  0  0  0  0  0  0  0  0
  148.0801  133.0681  153.5117 N   0  0  0  0  0  0  0  0  0  0  0  0
  146.9617  133.8907  153.3608 C   0  0  0  0  0  0  0  0  0  0  0  0
  145.7849  133.1300  152.7478 C   0  0  0  0  0  0  0  0  0  0  0  0
  146.1915  132.3978  151.4485 C   0  0  0  0  0  0  0  0  0  0  0  0
  145.0190  131.5967  150.8580 C   0  0  0  0  0  0  0  0  0  0  0  0
  143.7925  132.4910  150.6208 C   0  0  0  0  0  0  0  0  0  0  0  0
  143.3769  133.2109  151.9125 C   0  0  0  0  0  0  0  0  0  0  0  0
  144.5458  134.0215  152.4953 C   0  0  0  0  0  0  0  0  0  0  0  0
  146.9194  135.1491  153.6793 N   0  0  0  0  0  0  0  0  0  0  0  0
  148.0854  135.6499  154.2096 N   0  0  0  0  0  0  0  0  0  0  0  0
  150.3816  136.9354  155.2965 C   0  0  0  0  0  0  0  0  0  0  0  0
  150.6027  137.3810  156.6184 C   0  0  0  0  0  0  0  0  0  0  0  0
  150.5560  138.7634  156.8849 C   0  0  0  0  0  0  0  0  0  0  0  0
  150.3062  139.6939  155.9391 N   0  0  0  0  0  0  0  0  0  0  0  0
  150.0877  139.2644  154.6777 C   0  0  0  0  0  0  0  0  0  0  0  0
  150.1115  137.9058  154.3067 C   0  0  0  0  0  0  0  0  0  0  0  0
  145.4864  132.3685  153.4710 H   0  0  0  0  0  0  0  0  0  0  0  0
  146.5427  133.1217  150.7113 H   0  0  0  0  0  0  0  0  0  0  0  0
  147.0260  131.7206  151.6347 H   0  0  0  0  0  0  0  0  0  0  0  0
  145.3234  131.1278  149.9219 H   0  0  0  0  0  0  0  0  0  0  0  0
  144.7531  130.7857  151.5371 H   0  0  0  0  0  0  0  0  0  0  0  0
  144.0201  133.2278  149.8493 H   0  0  0  0  0  0  0  0  0  0  0  0
  142.9626  131.8934  150.2430 H   0  0  0  0  0  0  0  0  0  0  0  0
  142.5301  133.8691  151.7154 H   0  0  0  0  0  0  0  0  0  0  0  0
  143.0360  132.4796  152.6464 H   0  0  0  0  0  0  0  0  0  0  0  0
  144.2277  134.4965  153.4245 H   0  0  0  0  0  0  0  0  0  0  0  0
  144.7968  134.8275  151.8038 H   0  0  0  0  0  0  0  0  0  0  0  0
  148.0572  136.6311  154.4644 H   0  0  0  0  0  0  0  0  0  0  0  0
  150.8047  136.6749  157.4102 H   0  0  0  0  0  0  0  0  0  0  0  0
  150.7234  139.1319  157.8862 H   0  0  0  0  0  0  0  0  0  0  0  0
  149.8872  140.0275  153.9405 H   0  0  0  0  0  0  0  0  0  0  0  0
  149.9291  137.6122  153.2834 H   0  0  0  0  0  0  0  0  0  0  0  0
  148.0126  132.1024  153.2270 H   0  0  0  0  0  0  0  0  0  0  0  0
  1  2  1  0  0  0  0
  2  3  2  0  0  0  0
  2 16  1  0  0  0  0
  3 15  1  0  0  0  0
  3  4  1  0  0  0  0
  4  5  2  0  0  0  0
  4  6  1  0  0  0  0
  6  7  1  0  0  0  0
  6 38  1  0  0  0  0
  7  8  1  0  0  0  0
  7 14  2  0  0  0  0
  8 13  1  0  0  0  0
  8  9  1  0  0  0  0
  8 22  1  0  0  0  0
  9 10  1  0  0  0  0
  9 23  1  0  0  0  0
  9 24  1  0  0  0  0
 10 11  1  0  0  0  0
 10 25  1  0  0  0  0
 10 26  1  0  0  0  0
 11 12  1  0  0  0  0
 11 27  1  0  0  0  0
 11 28  1  0  0  0  0
 12 13  1  0  0  0  0
 12 29  1  0  0  0  0
 12 30  1  0  0  0  0
 13 31  1  0  0  0  0
 13 32  1  0  0  0  0
 14 15  1  0  0  0  0
 15 33  1  0  0  0  0
 16 21  1  0  0  0  0
 16 17  2  0  0  0  0
 17 18  1  0  0  0  0
 17 34  1  0  0  0  0
 18 19  2  0  0  0  0
 18 35  1  0  0  0  0
 19 20  1  0  0  0  0
 20 21  2  0  0  0  0
 20 36  1  0  0  0  0
 21 37  1  0  0  0  0
M  CHG  1   1  -1
M  END
> <s_m_source_file>
AV-unprocessed.smi

> <i_m_source_file_index>
2557

> <i_lp_mmshare_version>
43012

> <i_f3d_flags>
0

> <s_epik_input>
W2NIXTFbY0hdbltjSF1bY0hdYzFDKD1PKUMyPUMoW09IXSlOPUMoW05IXVtOSF0yKVtDSF0zW0NIMl1bQ0gyXVtDSDJdW0NIMl1bQ0gyXTM=

> <s_epik_cmdline>
J2VwaWtfcHl0aG9uJywgJy1waCcsICc3LjAnLCAnLXRuJywgJzgnLCAnLW1hJywgJzIwMCcsICctbWV0YWxfYmluZGluZycsICctaW1hZScsICc8aW5maWxlLm1hZT4nLCAnLW9tYWUnLCAnPG91dGZpbGUubWFlPic=

> <r_epik_Ionization_Penalty>
0.0900605

> <r_epik_Ionization_Penalty_Charging>
0.000501436

> <r_epik_Ionization_Penalty_Neutral>
0.0895591

> <r_epik_State_Penalty>
0.142021

> <r_epik_Charging_Adjusted_Penalty>
0.142522

> <i_epik_Tot_Q>
-1

> <i_epik_Tot_abs_Q>
1

> <r_epik_Metal_State_Penalty>
0.0730028

> <b_epik_Metal_Only>
0

> <s_epik_Chemistry_Notes>
This compound has an imine and may undergo hydrolysis.

> <s_lp_Force_Field>
OPLS_2005

> <r_lp_Energy>
31.0156

> <b_lp_Chiralities_Consistent>
1

> <s_lp_Variant>
AV-unprocessed.smi:2557-1

> <Gold.Version>
5.8.1

> <Gold.Id.Protein>
6NUR|6NUR_protein|mol2

> <Gold.PLP.Fitness>
36.4950

> <Gold.PLP.PLP>
-27.7718

> <Gold.PLP.part.hbond>
-2.0000

> <Gold.PLP.part.metal>
0.0000

> <Gold.PLP.part.buried>
-3.2918

> <Gold.PLP.part.nonpolar>
-23.8058

> <Gold.PLP.part.repulsive>
1.7136

> <Gold.PLP.ligand.clash>
0.0000

> <Gold.PLP.ligand.torsion>
1.1870

> <Gold.PLP.Chemscore.Hbond>
1.9840

> <Gold.PLP.Chemscore.CHOScore>
1.0000

> <Gold.PLP.Chemscore.Metal>
0.0000

> <Gold.Chemscore.Hbonds>
donor molecule, donor type, donor heavy atom, donor atom, acceptor molecule, acceptor atom, score
      P1  H 10752 10764       L1     1  1.60
      L1  C    20    36       P1  7957  0.35

> <Gold.PLP.Chemscore.Internal.Correction>
2.1452

> <Gold.Rescore>
     Score         DG    S(hbond)    S(metal)    S(lipo)     H(rot)  DE(clash)    DE(int)     intcor
     13.10     -14.46       0.94        0.00      71.94       1.00       0.10       1.26       ----

> <Gold.Chemscore.Fitness>
13.1040

> <Gold.Chemscore.DG>
-14.4643

> <Gold.Chemscore.ZeroCoef>
-5.4800

> <Gold.Chemscore.Hbond>
0.9364

> <Gold.Chemscore.Metal>
0.0000

> <Gold.Chemscore.Lipo>
71.9379

> <Gold.Chemscore.Internal_Hbond>
0.0000

> <Gold.Chemscore.DEClash>
0.0983

> <Gold.Chemscore.DEInternal>
1.2621

> <Gold.Chemscore.Rot>
1.0000

> <Gold.Chemscore.Internal.Correction>
   9.000000E+99

> <Gold.Chemscore.Hbonds>
donor molecule, donor type, donor heavy atom, donor atom, acceptor molecule, acceptor atom, score
      P1  H 10752 10764       L1     1  0.77

> <Gold.Chemscore.Hbond.Weighted>
-3.1275

> <Gold.Chemscore.Metal.Weighted>
-0.0000

> <Gold.Chemscore.Lipo.Weighted>
-8.4167

> <Gold.Chemscore.Internal_Hbond.Weighted>
0.0000

> <Gold.Chemscore.DEClash.Weighted>
0.0983

> <Gold.Chemscore.DEInternal.Weighted>
1.2621

> <Gold.Chemscore.Rot.Weighted>
2.5600

> <Gold.Chemscore.Internal.Correction.Weighted>
   9.000000E+99

> <Gold.Protein.RotatedTorsions>
[ 6907 6896 6895 6894 ] final -148.92 input  -60.11 | X-H torsion
[ 7974 7965 7964 7962 ] final -103.58 input  175.53 | X-H torsion
[ 8008 7997 7996 7995 ] final  -68.62 input   59.86 | X-H torsion
[ 10167 10162 10161 10158 ] final   40.21 input  -65.29 | X-H torsion
[ 10718 10713 10712 10709 ] final   23.25 input   66.30 | X-H torsion
[ 10763 10752 10751 10750 ] final  -39.54 input  -60.55 | X-H torsion
[ 11005 11000 10999 10996 ] final   31.11 input  -57.11 | X-H torsion

> <Gold.Protein.ActiveResidues>
 VAL166  LYS551  ARG553  GLY616  TRP617  ASP618  TYR619  PRO620  LYS621  CYS622 
 ASP623  PHE694  ASN695  SER759  ASP760  ASP761  ALA762  ILE779  LEU786  VAL792 
 PHE793  MET794  SER795  GLU796  ALA797  LYS798  CYS799  TRP800  GLU811  SER814 

> <Gold.Protein.RotatedAtoms>
  151.1768  133.4750  159.2593 H   0  0  0  0  0  0  0  0  0  0  0  0  # atno 6907 bound_to 6896
  151.1300  135.0125  159.8588 H   0  0  0  0  0  0  0  0  0  0  0  0  # atno 6908 bound_to 6896
  152.5459  134.1671  159.8635 H   0  0  0  0  0  0  0  0  0  0  0  0  # atno 6909 bound_to 6896
  145.2540  140.9247  143.3079 H   0  0  0  0  0  0  0  0  0  0  0  0  # atno 7974 bound_to 7965
  154.4880  140.0869  156.7531 H   0  0  0  0  0  0  0  0  0  0  0  0  # atno 8008 bound_to 7997
  155.4300  140.3449  155.4261 H   0  0  0  0  0  0  0  0  0  0  0  0  # atno 8009 bound_to 7997
  156.1290  140.1496  156.9082 H   0  0  0  0  0  0  0  0  0  0  0  0  # atno 8010 bound_to 7997
  140.3764  144.2037  150.6131 H   0  0  0  0  0  0  0  0  0  0  0  0  # atno 10167 bound_to 10162
  157.1635  130.6727  149.6052 H   0  0  0  0  0  0  0  0  0  0  0  0  # atno 10718 bound_to 10713
  153.9311  135.6772  153.4745 H   0  0  0  0  0  0  0  0  0  0  0  0  # atno 10763 bound_to 10752
  153.0979  135.4842  154.8810 H   0  0  0  0  0  0  0  0  0  0  0  0  # atno 10764 bound_to 10752
  154.7427  135.3165  154.8656 H   0  0  0  0  0  0  0  0  0  0  0  0  # atno 10765 bound_to 10752
  140.2873  134.2904  155.7785 H   0  0  0  0  0  0  0  0  0  0  0  0  # atno 11005 bound_to 11000
  144.9477  139.4117  143.6418 LP  0  0  0  0  0  0  0  0  0  0  0  0  # atno 17320 bound_to 7965
  146.3294  139.8469  142.8880 LP  0  0  0  0  0  0  0  0  0  0  0  0  # atno 17321 bound_to 7965
  140.4982  143.2326  151.8718 LP  0  0  0  0  0  0  0  0  0  0  0  0  # atno 17342 bound_to 10162
  139.4799  144.5090  151.8959 LP  0  0  0  0  0  0  0  0  0  0  0  0  # atno 17343 bound_to 10162
  155.9750  130.4703  150.6427 LP  0  0  0  0  0  0  0  0  0  0  0  0  # atno 17370 bound_to 10713
  157.4111  131.0823  151.1220 LP  0  0  0  0  0  0  0  0  0  0  0  0  # atno 17371 bound_to 10713
  141.2152  133.7563  156.9572 LP  0  0  0  0  0  0  0  0  0  0  0  0  # atno 17394 bound_to 11000
  140.1227  134.9406  157.2227 LP  0  0  0  0  0  0  0  0  0  0  0  0  # atno 17395 bound_to 11000

$$$$
