AV-unprocessed.smi:1252|AV-procd|sdf|5266|dock4
  -GOLD-   22720 4383D 1   1.00000     0.00000
 Structure written by MMmdl.
 44 45  0  0  0  0  0  0  0  0  2 V2000
  147.0329  131.5103  152.8105 C   0  0  0  0  0  0  0  0  0  0  0  0
  146.7449  132.8736  152.1545 C   0  0  2  0  0  0  0  0  0  0  0  0
  146.2056  133.9190  153.1423 C   0  0  0  0  0  0  0  0  0  0  0  0
  145.1929  133.7038  153.8083 O   0  0  0  0  0  0  0  0  0  0  0  0
  146.8832  135.0761  153.1868 N   0  0  0  0  0  0  0  0  0  0  0  0
  146.4708  136.2894  153.8885 C   0  0  0  0  0  0  0  0  0  0  0  0
  147.4374  136.6799  155.0482 C   0  0  0  0  0  0  0  0  0  0  0  0
  146.6191  137.4736  156.0973 C   0  0  0  0  0  0  0  0  0  0  0  0
  147.9363  135.3828  155.7254 C   0  0  0  0  0  0  0  0  0  0  0  0
  148.5812  137.5177  154.5321 N   0  3  0  0  0  0  0  0  0  0  0  0
  148.2370  138.9011  154.0985 C   0  0  0  0  0  0  0  0  0  0  0  0
  149.4513  139.5843  153.4458 C   0  0  0  0  0  0  0  0  0  0  0  0
  150.5509  139.5846  154.3449 O   0  0  0  0  0  0  0  0  0  0  0  0
  150.9480  138.2655  154.6903 C   0  0  0  0  0  0  0  0  0  0  0  0
  149.7884  137.5537  155.4043 C   0  0  0  0  0  0  0  0  0  0  0  0
  145.8162  132.7358  151.0393 N   0  0  0  0  0  0  0  0  0  0  0  0
  145.8660  131.9640  149.9499 C   0  0  0  0  0  0  0  0  0  0  0  0
  144.8003  132.0690  149.1689 N   0  0  0  0  0  0  0  0  0  0  0  0
  144.0876  132.9935  149.8779 C   0  0  0  0  0  0  0  0  0  0  0  0
  144.6421  133.4112  151.0156 N   0  0  0  0  0  0  0  0  0  0  0  0
  147.7667  131.6063  153.6117 H   0  0  0  0  0  0  0  0  0  0  0  0
  147.4369  130.8067  152.0820 H   0  0  0  0  0  0  0  0  0  0  0  0
  146.1324  131.0644  153.2348 H   0  0  0  0  0  0  0  0  0  0  0  0
  147.6890  133.2571  151.7635 H   0  0  0  0  0  0  0  0  0  0  0  0
  147.7192  135.1437  152.6242 H   0  0  0  0  0  0  0  0  0  0  0  0
  146.3487  137.1167  153.1870 H   0  0  0  0  0  0  0  0  0  0  0  0
  145.4684  136.1063  154.2753 H   0  0  0  0  0  0  0  0  0  0  0  0
  145.6823  136.9687  156.3355 H   0  0  0  0  0  0  0  0  0  0  0  0
  146.3690  138.4745  155.7446 H   0  0  0  0  0  0  0  0  0  0  0  0
  147.1524  137.5806  157.0419 H   0  0  0  0  0  0  0  0  0  0  0  0
  147.0993  134.8075  156.1231 H   0  0  0  0  0  0  0  0  0  0  0  0
  148.6056  135.5867  156.5608 H   0  0  0  0  0  0  0  0  0  0  0  0
  148.4627  134.7293  155.0303 H   0  0  0  0  0  0  0  0  0  0  0  0
  147.4314  138.9029  153.3667 H   0  0  0  0  0  0  0  0  0  0  0  0
  147.9009  139.4895  154.9525 H   0  0  0  0  0  0  0  0  0  0  0  0
  149.7268  139.0840  152.5170 H   0  0  0  0  0  0  0  0  0  0  0  0
  149.2074  140.6152  153.1887 H   0  0  0  0  0  0  0  0  0  0  0  0
  151.2567  137.7154  153.8000 H   0  0  0  0  0  0  0  0  0  0  0  0
  151.8161  138.3206  155.3473 H   0  0  0  0  0  0  0  0  0  0  0  0
  149.5653  138.0764  156.3348 H   0  0  0  0  0  0  0  0  0  0  0  0
  150.1176  136.5512  155.6713 H   0  0  0  0  0  0  0  0  0  0  0  0
  146.6913  131.3018  149.7321 H   0  0  0  0  0  0  0  0  0  0  0  0
  143.1221  133.3550  149.5562 H   0  0  0  0  0  0  0  0  0  0  0  0
  148.8768  137.0480  153.6881 H   0  0  0  0  0  0  0  0  0  0  0  0
  1  2  1  0  0  0  0
  1 21  1  0  0  0  0
  1 22  1  0  0  0  0
  1 23  1  0  0  0  0
  2  3  1  0  0  0  0
  2 16  1  0  0  0  0
  2 24  1  0  0  0  0
  3  4  2  0  0  0  0
  3  5  1  0  0  0  0
  5  6  1  0  0  0  0
  5 25  1  0  0  0  0
  6  7  1  0  0  0  0
  6 26  1  0  0  0  0
  6 27  1  0  0  0  0
  7  8  1  0  0  0  0
  7  9  1  0  0  0  0
  7 10  1  0  0  0  0
  8 28  1  0  0  0  0
  8 29  1  0  0  0  0
  8 30  1  0  0  0  0
  9 31  1  0  0  0  0
  9 32  1  0  0  0  0
  9 33  1  0  0  0  0
 10 15  1  0  0  0  0
 10 11  1  0  0  0  0
 10 44  1  0  0  0  0
 11 12  1  0  0  0  0
 11 34  1  0  0  0  0
 11 35  1  0  0  0  0
 12 13  1  0  0  0  0
 12 36  1  0  0  0  0
 12 37  1  0  0  0  0
 13 14  1  0  0  0  0
 14 15  1  0  0  0  0
 14 38  1  0  0  0  0
 14 39  1  0  0  0  0
 15 40  1  0  0  0  0
 15 41  1  0  0  0  0
 16 20  1  0  0  0  0
 16 17  1  0  0  0  0
 17 18  2  0  0  0  0
 17 42  1  0  0  0  0
 18 19  1  0  0  0  0
 19 20  2  0  0  0  0
 19 43  1  0  0  0  0
M  CHG  1  10   1
M  END
> <s_m_source_file>
AV-unprocessed.smi

> <i_m_source_file_index>
1252

> <i_lp_mmshare_version>
43012

> <i_f3d_flags>
0

> <s_epik_input>
bjFbY0hdbltjSF1uMVtDQEhdKFtDSDNdKUMoPU8pW05IXVtDSDJdQyhbQ0gzXSkoW0NIM10pTjJbQ0gyXVtDSDJdT1tDSDJdW0NIMl0y

> <s_epik_cmdline>
J2VwaWtfcHl0aG9uJywgJy1waCcsICc3LjAnLCAnLXRuJywgJzgnLCAnLW1hJywgJzIwMCcsICctbWV0YWxfYmluZGluZycsICctaW1hZScsICc8aW5maWxlLm1hZT4nLCAnLW9tYWUnLCAnPG91dGZpbGUubWFlPic=

> <r_lp_tautomer_probability>
1

> <r_epik_Ionization_Penalty>
0.71326

> <r_epik_Ionization_Penalty_Charging>
0.713252

> <r_epik_Ionization_Penalty_Neutral>
8.22342e-06

> <r_epik_State_Penalty>
0.737017

> <r_epik_Charging_Adjusted_Penalty>
1.45027

> <i_epik_Tot_Q>
1

> <i_epik_Tot_abs_Q>
1

> <r_epik_Metal_State_Penalty>
0.73702

> <b_epik_Metal_Only>
0

> <s_lp_Force_Field>
OPLS_2005

> <r_lp_Energy>
34.1677

> <b_lp_Chiralities_Consistent>
1

> <s_lp_Variant>
AV-unprocessed.smi:1252-3

> <Gold.Version>
5.8.1

> <Gold.Id.Protein>
6NUR|6NUR_protein|mol2

> <Gold.PLP.Fitness>
40.1430

> <Gold.PLP.PLP>
-23.9216

> <Gold.PLP.part.hbond>
-3.5365

> <Gold.PLP.part.metal>
0.0000

> <Gold.PLP.part.buried>
1.2613

> <Gold.PLP.part.nonpolar>
-21.9000

> <Gold.PLP.part.repulsive>
0.5551

> <Gold.PLP.ligand.clash>
0.0000

> <Gold.PLP.ligand.torsion>
0.9689

> <Gold.PLP.Chemscore.Hbond>
3.9920

> <Gold.PLP.Chemscore.CHOScore>
2.0000

> <Gold.PLP.Chemscore.Metal>
0.0000

> <Gold.Chemscore.Hbonds>
donor molecule, donor type, donor heavy atom, donor atom, acceptor molecule, acceptor atom, score
      L1  H     5    25       P1  7948  0.98
      L1  H    10    44       P1  7948  2.00
      P1  H  7989  7998       L1    13  0.95
      L1  C    17    42       P1 10747  1.00
      L1  C    19    43       P1 10186  1.00

> <Gold.PLP.Chemscore.Internal.Correction>
0.1832

> <Gold.Rescore>
     Score         DG    S(hbond)    S(metal)    S(lipo)     H(rot)  DE(clash)    DE(int)     intcor
      9.33     -14.19       3.11        0.00      42.13       2.59       2.59       2.28       ----

> <Gold.Chemscore.Fitness>
9.3252

> <Gold.Chemscore.DG>
-14.1904

> <Gold.Chemscore.ZeroCoef>
-5.4800

> <Gold.Chemscore.Hbond>
3.1143

> <Gold.Chemscore.Metal>
0.0000

> <Gold.Chemscore.Lipo>
42.1342

> <Gold.Chemscore.Internal_Hbond>
0.0000

> <Gold.Chemscore.DEClash>
2.5893

> <Gold.Chemscore.DEInternal>
2.2758

> <Gold.Chemscore.Rot>
2.5864

> <Gold.Chemscore.Internal.Correction>
   9.000000E+99

> <Gold.Chemscore.Hbonds>
donor molecule, donor type, donor heavy atom, donor atom, acceptor molecule, acceptor atom, score
      L1  H     5    25       P1  7948  0.93
      L1  H    10    44       P1  7948  0.97
      P1  H  7989  7998       L1    13  0.21

> <Gold.Chemscore.Hbond.Weighted>
-10.4018

> <Gold.Chemscore.Metal.Weighted>
-0.0000

> <Gold.Chemscore.Lipo.Weighted>
-4.9297

> <Gold.Chemscore.Internal_Hbond.Weighted>
0.0000

> <Gold.Chemscore.DEClash.Weighted>
2.5893

> <Gold.Chemscore.DEInternal.Weighted>
2.2758

> <Gold.Chemscore.Rot.Weighted>
6.6211

> <Gold.Chemscore.Internal.Correction.Weighted>
   9.000000E+99

> <Gold.Protein.RotatedTorsions>
[ 6907 6896 6895 6894 ] final   -0.84 input  -60.11 | X-H torsion
[ 7974 7965 7964 7962 ] final  -77.73 input  175.53 | X-H torsion
[ 8008 7997 7996 7995 ] final    2.33 input   59.86 | X-H torsion
[ 10167 10162 10161 10158 ] final  149.09 input  -65.29 | X-H torsion
[ 10718 10713 10712 10709 ] final  172.38 input   66.30 | X-H torsion
[ 10763 10752 10751 10750 ] final  107.90 input  -60.55 | X-H torsion
[ 11005 11000 10999 10996 ] final -142.88 input  -57.11 | X-H torsion

> <Gold.Protein.ActiveResidues>
 VAL166  LYS551  ARG553  GLY616  TRP617  ASP618  TYR619  PRO620  LYS621  CYS622 
 ASP623  PHE694  ASN695  SER759  ASP760  ASP761  ALA762  ILE779  LEU786  VAL792 
 PHE793  MET794  SER795  GLU796  ALA797  LYS798  CYS799  TRP800  GLU811  SER814 

> <Gold.Protein.RotatedAtoms>
  151.5558  135.1066  159.9960 H   0  0  0  0  0  0  0  0  0  0  0  0  # atno 6907 bound_to 6896
  152.4470  133.7551  159.6726 H   0  0  0  0  0  0  0  0  0  0  0  0  # atno 6908 bound_to 6896
  150.8388  133.7902  159.3093 H   0  0  0  0  0  0  0  0  0  0  0  0  # atno 6909 bound_to 6896
  145.5958  140.9419  143.1267 H   0  0  0  0  0  0  0  0  0  0  0  0  # atno 7974 bound_to 7965
  154.6904  140.2652  155.6819 H   0  0  0  0  0  0  0  0  0  0  0  0  # atno 8008 bound_to 7997
  156.2730  140.2792  156.1403 H   0  0  0  0  0  0  0  0  0  0  0  0  # atno 8009 bound_to 7997
  155.0905  140.0373  157.2657 H   0  0  0  0  0  0  0  0  0  0  0  0  # atno 8010 bound_to 7997
  139.4866  144.5629  151.7198 H   0  0  0  0  0  0  0  0  0  0  0  0  # atno 10167 bound_to 10162
  156.9798  131.0115  151.2884 H   0  0  0  0  0  0  0  0  0  0  0  0  # atno 10718 bound_to 10713
  153.4132  135.3829  155.2064 H   0  0  0  0  0  0  0  0  0  0  0  0  # atno 10763 bound_to 10752
  154.8739  135.3799  154.4475 H   0  0  0  0  0  0  0  0  0  0  0  0  # atno 10764 bound_to 10752
  153.4986  135.7088  153.5906 H   0  0  0  0  0  0  0  0  0  0  0  0  # atno 10765 bound_to 10752
  140.8181  134.2664  157.4912 H   0  0  0  0  0  0  0  0  0  0  0  0  # atno 11005 bound_to 11000
  144.7331  139.7666  143.7339 LP  0  0  0  0  0  0  0  0  0  0  0  0  # atno 17320 bound_to 7965
  146.1613  139.4728  142.9986 LP  0  0  0  0  0  0  0  0  0  0  0  0  # atno 17321 bound_to 7965
  140.5202  144.0890  150.6020 LP  0  0  0  0  0  0  0  0  0  0  0  0  # atno 17342 bound_to 10162
  140.3846  143.2784  152.0131 LP  0  0  0  0  0  0  0  0  0  0  0  0  # atno 17343 bound_to 10162
  157.5534  130.8197  149.8173 LP  0  0  0  0  0  0  0  0  0  0  0  0  # atno 17370 bound_to 10713
  156.0249  130.3783  150.1853 LP  0  0  0  0  0  0  0  0  0  0  0  0  # atno 17371 bound_to 10713
  139.8710  134.9520  156.4102 LP  0  0  0  0  0  0  0  0  0  0  0  0  # atno 17394 bound_to 11000
  140.9128  133.7700  155.9812 LP  0  0  0  0  0  0  0  0  0  0  0  0  # atno 17395 bound_to 11000

$$$$
