AV-unprocessed.smi:131|AV-procd|sdf|1162|dock9
  -GOLD-   2262018303D 1   1.00000     0.00000
 Structure written by MMmdl.
 55 58  0  0  0  0  0  0  0  0  1 V2000
  152.5537  137.5770  153.6383 O   0  0  0  0  0  0  0  0  0  0  0  0
  152.3111  137.8506  154.8129 C   0  0  0  0  0  0  0  0  0  0  0  0
  152.8630  139.1699  155.3837 C   0  0  0  0  0  0  0  0  0  0  0  0
  151.8504  140.0790  155.9698 N   0  0  0  0  0  0  0  0  0  0  0  0
  150.6493  140.3103  155.2544 C   0  0  0  0  0  0  0  0  0  0  0  0
  150.4374  139.7650  154.1706 O   0  0  0  0  0  0  0  0  0  0  0  0
  149.6993  141.2140  155.8933 C   0  0  0  0  0  0  0  0  0  0  0  0
  148.5319  141.4887  155.2873 F   0  0  0  0  0  0  0  0  0  0  0  0
  149.9712  141.7772  157.0885 C   0  0  0  0  0  0  0  0  0  0  0  0
  151.1485  141.5424  157.7768 N   0  0  0  0  0  0  0  0  0  0  0  0
  151.4329  142.1719  159.1254 C   0  0  1  0  0  0  0  0  0  0  0  0
  152.6243  143.1453  159.0319 C   0  0  0  0  0  0  0  0  0  0  0  0
  152.0667  144.4201  159.6343 C   0  0  0  0  0  0  0  0  0  0  0  0
  150.5850  144.3001  159.3129 C   0  0  0  0  0  0  0  0  0  0  0  0
  150.3276  142.9214  159.5436 O   0  0  0  0  0  0  0  0  0  0  0  0
  152.1133  140.6692  157.2290 C   0  0  0  0  0  0  0  0  0  0  0  0
  153.1558  140.4236  157.8396 O   0  0  0  0  0  0  0  0  0  0  0  0
  151.6078  137.0536  155.6420 N   0  0  0  0  0  0  0  0  0  0  0  0
  150.9929  135.8048  155.3620 C   0  0  0  0  0  0  0  0  0  0  0  0
  151.4401  135.1064  154.2199 C   0  0  0  0  0  0  0  0  0  0  0  0
  150.8894  133.8540  153.8862 C   0  0  0  0  0  0  0  0  0  0  0  0
  149.8964  133.2902  154.7104 C   0  0  0  0  0  0  0  0  0  0  0  0
  149.1733  131.7103  154.2888 S   0  0  0  0  0  0  0  0  0  0  0  0
  150.2022  130.6611  154.3658 O   0  0  0  0  0  0  0  0  0  0  0  0
  147.9206  131.5792  155.0494 O   0  0  0  0  0  0  0  0  0  0  0  0
  148.7519  131.9210  152.6228 N   0  0  0  0  0  0  0  0  0  0  0  0
  148.2001  133.2068  152.1782 C   0  0  0  0  0  0  0  0  0  0  0  0
  146.9989  132.8565  151.2984 C   0  0  0  0  0  0  0  0  0  0  0  0
  147.3549  131.4842  150.7431 C   0  0  0  0  0  0  0  0  0  0  0  0
  148.0994  130.8215  151.9015 C   0  0  0  0  0  0  0  0  0  0  0  0
  149.4528  133.9676  155.8623 C   0  0  0  0  0  0  0  0  0  0  0  0
  150.0042  135.2208  156.1916 C   0  0  0  0  0  0  0  0  0  0  0  0
  153.6305  138.9230  156.1188 H   0  0  0  0  0  0  0  0  0  0  0  0
  153.4201  139.6718  154.5910 H   0  0  0  0  0  0  0  0  0  0  0  0
  149.2227  142.4321  157.5077 H   0  0  0  0  0  0  0  0  0  0  0  0
  151.5890  141.3377  159.8119 H   0  0  0  0  0  0  0  0  0  0  0  0
  153.4884  142.7581  159.5725 H   0  0  0  0  0  0  0  0  0  0  0  0
  152.9016  143.3070  157.9889 H   0  0  0  0  0  0  0  0  0  0  0  0
  152.2154  144.4219  160.7148 H   0  0  0  0  0  0  0  0  0  0  0  0
  152.5215  145.3220  159.2237 H   0  0  0  0  0  0  0  0  0  0  0  0
  149.9622  144.9359  159.9424 H   0  0  0  0  0  0  0  0  0  0  0  0
  150.3922  144.5516  158.2690 H   0  0  0  0  0  0  0  0  0  0  0  0
  151.5694  137.3487  156.6069 H   0  0  0  0  0  0  0  0  0  0  0  0
  152.2050  135.5345  153.5881 H   0  0  0  0  0  0  0  0  0  0  0  0
  151.2329  133.3340  153.0043 H   0  0  0  0  0  0  0  0  0  0  0  0
  147.9090  133.8295  153.0251 H   0  0  0  0  0  0  0  0  0  0  0  0
  148.9630  133.7388  151.6090 H   0  0  0  0  0  0  0  0  0  0  0  0
  146.0994  132.7846  151.9114 H   0  0  0  0  0  0  0  0  0  0  0  0
  146.8165  133.5957  150.5177 H   0  0  0  0  0  0  0  0  0  0  0  0
  146.4809  130.9168  150.4220 H   0  0  0  0  0  0  0  0  0  0  0  0
  148.0212  131.5924  149.8863 H   0  0  0  0  0  0  0  0  0  0  0  0
  148.8318  130.0874  151.5648 H   0  0  0  0  0  0  0  0  0  0  0  0
  147.3922  130.3208  152.5636 H   0  0  0  0  0  0  0  0  0  0  0  0
  148.6960  133.5274  156.4951 H   0  0  0  0  0  0  0  0  0  0  0  0
  149.6643  135.7097  157.0915 H   0  0  0  0  0  0  0  0  0  0  0  0
  1  2  2  0  0  0  0
  2  3  1  0  0  0  0
  2 18  1  0  0  0  0
  3  4  1  0  0  0  0
  3 33  1  0  0  0  0
  3 34  1  0  0  0  0
  4 16  1  0  0  0  0
  4  5  1  0  0  0  0
  5  6  2  0  0  0  0
  5  7  1  0  0  0  0
  7  8  1  0  0  0  0
  7  9  2  0  0  0  0
  9 10  1  0  0  0  0
  9 35  1  0  0  0  0
 10 11  1  0  0  0  0
 10 16  1  0  0  0  0
 11 15  1  0  0  0  0
 11 12  1  0  0  0  0
 11 36  1  0  0  0  0
 12 13  1  0  0  0  0
 12 37  1  0  0  0  0
 12 38  1  0  0  0  0
 13 14  1  0  0  0  0
 13 39  1  0  0  0  0
 13 40  1  0  0  0  0
 14 15  1  0  0  0  0
 14 41  1  0  0  0  0
 14 42  1  0  0  0  0
 16 17  2  0  0  0  0
 18 19  1  0  0  0  0
 18 43  1  0  0  0  0
 19 32  1  0  0  0  0
 19 20  2  0  0  0  0
 20 21  1  0  0  0  0
 20 44  1  0  0  0  0
 21 22  2  0  0  0  0
 21 45  1  0  0  0  0
 22 23  1  0  0  0  0
 22 31  1  0  0  0  0
 23 24  2  0  0  0  0
 23 25  2  0  0  0  0
 23 26  1  0  0  0  0
 26 30  1  0  0  0  0
 26 27  1  0  0  0  0
 27 28  1  0  0  0  0
 27 46  1  0  0  0  0
 27 47  1  0  0  0  0
 28 29  1  0  0  0  0
 28 48  1  0  0  0  0
 28 49  1  0  0  0  0
 29 30  1  0  0  0  0
 29 50  1  0  0  0  0
 29 51  1  0  0  0  0
 30 52  1  0  0  0  0
 30 53  1  0  0  0  0
 31 32  2  0  0  0  0
 31 54  1  0  0  0  0
 32 55  1  0  0  0  0
M  END
> <s_m_source_file>
AV-unprocessed.smi

> <i_m_source_file_index>
131

> <i_lp_mmshare_version>
43012

> <i_f3d_flags>
0

> <s_epik_input>
W0NIMl0xW0NIMl1bQ0gyXVtDSDJdTjFTKD1PKSg9TyljKFtjSF1bY0hdMilbY0hdW2NIXWMyW05IXUMoPU8pW0NIMl1uM2MoPU8pYyhGKVtjSF1uKGMzPU8pW0NAQEhdNFtDSDJdW0NIMl1bQ0gyXU80

> <s_epik_cmdline>
J2VwaWtfcHl0aG9uJywgJy1waCcsICc3LjAnLCAnLXRuJywgJzgnLCAnLW1hJywgJzIwMCcsICctbWV0YWxfYmluZGluZycsICctaW1hZScsICc8aW5maWxlLm1hZT4nLCAnLW9tYWUnLCAnPG91dGZpbGUubWFlPic=

> <r_lp_tautomer_probability>
1

> <r_epik_Ionization_Penalty>
1.92533e-06

> <r_epik_Ionization_Penalty_Charging>
3.88729e-08

> <r_epik_Ionization_Penalty_Neutral>
1.88646e-06

> <r_epik_State_Penalty>
-0

> <r_epik_Charging_Adjusted_Penalty>
3.88729e-08

> <i_epik_Tot_Q>
0

> <i_epik_Tot_abs_Q>
0

> <r_epik_Metal_State_Penalty>
-0

> <b_epik_Metal_Only>
0

> <s_epik_Chemistry_Notes>
This compound contains an acetal/aminal-like group ( X-CH(R)-Y where X, Y are N, S, or O) that may be acid/base labile, releasing an aldehyde.

> <s_lp_Force_Field>
OPLS_2005

> <r_lp_Energy>
42.789

> <b_lp_Chiralities_Consistent>
1

> <s_lp_Variant>
AV-unprocessed.smi:131-2

> <Gold.Version>
5.8.1

> <Gold.Id.Protein>
6NUR|6NUR_protein|mol2

> <Gold.PLP.Fitness>
59.0245

> <Gold.PLP.PLP>
-50.7512

> <Gold.PLP.part.hbond>
-3.0000

> <Gold.PLP.part.metal>
0.0000

> <Gold.PLP.part.buried>
-4.1193

> <Gold.PLP.part.nonpolar>
-45.8099

> <Gold.PLP.part.repulsive>
2.4625

> <Gold.PLP.ligand.clash>
0.0000

> <Gold.PLP.ligand.torsion>
1.8450

> <Gold.PLP.Chemscore.Hbond>
2.1500

> <Gold.PLP.Chemscore.CHOScore>
0.9553

> <Gold.PLP.Chemscore.Metal>
0.0000

> <Gold.Chemscore.Hbonds>
donor molecule, donor type, donor heavy atom, donor atom, acceptor molecule, acceptor atom, score
      P1  H  7989  7998       L1     6  0.40
      P1  H  7997  8008       L1    17  0.83
      P1  H 10752 10764       L1     1  0.24

> <Gold.PLP.Chemscore.Internal.Correction>
2.6476

> <Gold.Rescore>
     Score         DG    S(hbond)    S(metal)    S(lipo)     H(rot)  DE(clash)    DE(int)     intcor
     12.81     -18.35       1.64        0.00     105.06       1.92       0.58       4.97       ----

> <Gold.Chemscore.Fitness>
12.8058

> <Gold.Chemscore.DG>
-18.3529

> <Gold.Chemscore.ZeroCoef>
-5.4800

> <Gold.Chemscore.Hbond>
1.6431

> <Gold.Chemscore.Metal>
0.0000

> <Gold.Chemscore.Lipo>
105.0550

> <Gold.Chemscore.Internal_Hbond>
0.0000

> <Gold.Chemscore.DEClash>
0.5766

> <Gold.Chemscore.DEInternal>
4.9705

> <Gold.Chemscore.Rot>
1.9166

> <Gold.Chemscore.Internal.Correction>
   9.000000E+99

> <Gold.Chemscore.Hbonds>
donor molecule, donor type, donor heavy atom, donor atom, acceptor molecule, acceptor atom, score
      P1  H  7989  7998       L1     6  0.01
      P1  H  7997  8008       L1    17  0.75
      P1  H 10752 10764       L1     1  0.01

> <Gold.Chemscore.Hbond.Weighted>
-5.4878

> <Gold.Chemscore.Metal.Weighted>
-0.0000

> <Gold.Chemscore.Lipo.Weighted>
-12.2914

> <Gold.Chemscore.Internal_Hbond.Weighted>
0.0000

> <Gold.Chemscore.DEClash.Weighted>
0.5766

> <Gold.Chemscore.DEInternal.Weighted>
4.9705

> <Gold.Chemscore.Rot.Weighted>
4.9064

> <Gold.Chemscore.Internal.Correction.Weighted>
   9.000000E+99

> <Gold.Protein.RotatedTorsions>
[ 6907 6896 6895 6894 ] final    2.70 input  -60.11 | X-H torsion
[ 7974 7965 7964 7962 ] final -120.55 input  175.53 | X-H torsion
[ 8008 7997 7996 7995 ] final  -76.32 input   59.86 | X-H torsion
[ 10167 10162 10161 10158 ] final -173.15 input  -65.29 | X-H torsion
[ 10718 10713 10712 10709 ] final   -1.23 input   66.30 | X-H torsion
[ 10763 10752 10751 10750 ] final  -79.39 input  -60.55 | X-H torsion
[ 11005 11000 10999 10996 ] final  -52.86 input  -57.11 | X-H torsion

> <Gold.Protein.ActiveResidues>
 VAL166  LYS551  ARG553  GLY616  TRP617  ASP618  TYR619  PRO620  LYS621  CYS622 
 ASP623  PHE694  ASN695  SER759  ASP760  ASP761  ALA762  ILE779  LEU786  VAL792 
 PHE793  MET794  SER795  GLU796  ALA797  LYS798  CYS799  TRP800  GLU811  SER814 

> <Gold.Protein.RotatedAtoms>
  151.6131  135.1038  160.0085 H   0  0  0  0  0  0  0  0  0  0  0  0  # atno 6907 bound_to 6896
  152.4198  133.7093  159.6480 H   0  0  0  0  0  0  0  0  0  0  0  0  # atno 6908 bound_to 6896
  150.8085  133.8392  159.3215 H   0  0  0  0  0  0  0  0  0  0  0  0  # atno 6909 bound_to 6896
  145.0501  140.8212  143.4214 H   0  0  0  0  0  0  0  0  0  0  0  0  # atno 7974 bound_to 7965
  154.5495  140.0729  156.8644 H   0  0  0  0  0  0  0  0  0  0  0  0  # atno 8008 bound_to 7997
  155.3021  140.3385  155.4229 H   0  0  0  0  0  0  0  0  0  0  0  0  # atno 8009 bound_to 7997
  156.1948  140.1699  156.8005 H   0  0  0  0  0  0  0  0  0  0  0  0  # atno 8010 bound_to 7997
  139.5704  144.1654  152.1376 H   0  0  0  0  0  0  0  0  0  0  0  0  # atno 10167 bound_to 10162
  156.8087  130.5417  149.5712 H   0  0  0  0  0  0  0  0  0  0  0  0  # atno 10718 bound_to 10713
  154.5380  135.5697  153.6815 H   0  0  0  0  0  0  0  0  0  0  0  0  # atno 10763 bound_to 10752
  152.9956  135.6221  154.2541 H   0  0  0  0  0  0  0  0  0  0  0  0  # atno 10764 bound_to 10752
  154.2470  135.2860  155.2811 H   0  0  0  0  0  0  0  0  0  0  0  0  # atno 10765 bound_to 10752
  141.0946  133.6627  156.4086 H   0  0  0  0  0  0  0  0  0  0  0  0  # atno 11005 bound_to 11000
  145.1537  139.2499  143.5427 LP  0  0  0  0  0  0  0  0  0  0  0  0  # atno 17320 bound_to 7965
  146.3517  140.1247  142.8599 LP  0  0  0  0  0  0  0  0  0  0  0  0  # atno 17321 bound_to 7965
  140.1186  144.5393  150.6877 LP  0  0  0  0  0  0  0  0  0  0  0  0  # atno 17342 bound_to 10162
  140.6989  143.2421  151.4922 LP  0  0  0  0  0  0  0  0  0  0  0  0  # atno 17343 bound_to 10162
  156.1058  130.6003  150.9968 LP  0  0  0  0  0  0  0  0  0  0  0  0  # atno 17370 bound_to 10713
  157.6517  131.0896  150.8036 LP  0  0  0  0  0  0  0  0  0  0  0  0  # atno 17371 bound_to 10713
  140.5171  134.6340  157.5305 LP  0  0  0  0  0  0  0  0  0  0  0  0  # atno 17394 bound_to 11000
  139.9780  134.7184  155.9914 LP  0  0  0  0  0  0  0  0  0  0  0  0  # atno 17395 bound_to 11000

$$$$
