AV-unprocessed.smi:1419|AV-procd|sdf|5783|dock7
  -GOLD-   22720 5433D 1   1.00000     0.00000
 Structure written by MMmdl.
 41 42  0  0  0  0  0  0  0  0  1 V2000
  152.1757  144.4794  157.9595 C   0  0  0  0  0  0  0  0  0  0  0  0
  152.2730  143.0709  158.5682 C   0  0  1  0  0  0  0  0  0  0  0  0
  151.8998  143.0300  160.0660 C   0  0  0  0  0  0  0  0  0  0  0  0
  152.9415  142.4436  160.8872 N   0  0  0  0  0  0  0  0  0  0  0  0
  153.8049  141.4121  160.5414 C   0  0  0  0  0  0  0  0  0  0  0  0
  154.6163  141.1969  161.6325 C   0  0  0  0  0  0  0  0  0  0  0  0
  154.2754  142.0822  162.6523 N   0  0  0  0  0  0  0  0  0  0  0  0
  153.2780  142.7898  162.1372 C   0  0  0  0  0  0  0  0  0  0  0  0
  151.4123  142.1654  157.8139 N   0  0  0  0  0  0  0  0  0  0  0  0
  151.3473  140.8321  157.9701 C   0  0  0  0  0  0  0  0  0  0  0  0
  152.0570  140.2303  158.7771 O   0  0  0  0  0  0  0  0  0  0  0  0
  150.4498  140.2129  157.1639 N   0  0  0  0  0  0  0  0  0  0  0  0
  150.5410  138.8474  156.6284 C   0  0  0  0  0  0  0  0  0  0  0  0
  150.8307  138.9203  155.1145 C   0  0  2  0  0  0  0  0  0  0  0  0
  152.2514  139.4060  154.7726 C   0  0  0  0  0  0  0  0  0  0  0  0
  149.8338  139.7211  154.4715 O   0  0  0  0  0  0  0  0  0  0  0  0
  149.6403  141.0297  155.0158 C   0  0  1  0  0  0  0  0  0  0  0  0
  148.4948  141.6962  154.2465 C   0  0  0  0  0  0  0  0  0  0  0  0
  149.3409  140.9231  156.5242 C   0  0  0  0  0  0  0  0  0  0  0  0
  152.8730  145.1699  158.4345 H   0  0  0  0  0  0  0  0  0  0  0  0
  151.1717  144.8904  158.0705 H   0  0  0  0  0  0  0  0  0  0  0  0
  152.4130  144.4636  156.8952 H   0  0  0  0  0  0  0  0  0  0  0  0
  153.3071  142.7391  158.4570 H   0  0  0  0  0  0  0  0  0  0  0  0
  151.6950  144.0368  160.4335 H   0  0  0  0  0  0  0  0  0  0  0  0
  150.9869  142.4523  160.2174 H   0  0  0  0  0  0  0  0  0  0  0  0
  153.7692  140.9276  159.5767 H   0  0  0  0  0  0  0  0  0  0  0  0
  155.4134  140.4795  161.7604 H   0  0  0  0  0  0  0  0  0  0  0  0
  152.7782  143.5772  162.6823 H   0  0  0  0  0  0  0  0  0  0  0  0
  150.8041  142.5860  157.1265 H   0  0  0  0  0  0  0  0  0  0  0  0
  151.2860  138.2222  157.1207 H   0  0  0  0  0  0  0  0  0  0  0  0
  149.5885  138.3420  156.7946 H   0  0  0  0  0  0  0  0  0  0  0  0
  150.7276  137.9153  154.7046 H   0  0  0  0  0  0  0  0  0  0  0  0
  153.0007  138.7372  155.1968 H   0  0  0  0  0  0  0  0  0  0  0  0
  152.4550  140.4048  155.1574 H   0  0  0  0  0  0  0  0  0  0  0  0
  152.4032  139.4293  153.6934 H   0  0  0  0  0  0  0  0  0  0  0  0
  150.5422  141.6235  154.8633 H   0  0  0  0  0  0  0  0  0  0  0  0
  148.3143  142.7079  154.6101 H   0  0  0  0  0  0  0  0  0  0  0  0
  147.5679  141.1317  154.3520 H   0  0  0  0  0  0  0  0  0  0  0  0
  148.7255  141.7612  153.1828 H   0  0  0  0  0  0  0  0  0  0  0  0
  148.4132  140.3735  156.6910 H   0  0  0  0  0  0  0  0  0  0  0  0
  149.1793  141.9161  156.9463 H   0  0  0  0  0  0  0  0  0  0  0  0
  1  2  1  0  0  0  0
  1 20  1  0  0  0  0
  1 21  1  0  0  0  0
  1 22  1  0  0  0  0
  2  3  1  0  0  0  0
  2  9  1  0  0  0  0
  2 23  1  0  0  0  0
  3  4  1  0  0  0  0
  3 24  1  0  0  0  0
  3 25  1  0  0  0  0
  4  8  1  0  0  0  0
  4  5  1  0  0  0  0
  5  6  2  0  0  0  0
  5 26  1  0  0  0  0
  6  7  1  0  0  0  0
  6 27  1  0  0  0  0
  7  8  2  0  0  0  0
  8 28  1  0  0  0  0
  9 10  1  0  0  0  0
  9 29  1  0  0  0  0
 10 11  2  0  0  0  0
 10 12  1  0  0  0  0
 12 19  1  0  0  0  0
 12 13  1  0  0  0  0
 13 14  1  0  0  0  0
 13 30  1  0  0  0  0
 13 31  1  0  0  0  0
 14 15  1  0  0  0  0
 14 16  1  0  0  0  0
 14 32  1  0  0  0  0
 15 33  1  0  0  0  0
 15 34  1  0  0  0  0
 15 35  1  0  0  0  0
 16 17  1  0  0  0  0
 17 18  1  0  0  0  0
 17 19  1  0  0  0  0
 17 36  1  0  0  0  0
 18 37  1  0  0  0  0
 18 38  1  0  0  0  0
 18 39  1  0  0  0  0
 19 40  1  0  0  0  0
 19 41  1  0  0  0  0
M  END
> <s_m_source_file>
AV-unprocessed.smi

> <i_m_source_file_index>
1419

> <i_lp_mmshare_version>
43012

> <i_f3d_flags>
0

> <s_epik_input>
W2NIXTFuW2NIXVtjSF1uMVtDSDJdW0NAQEhdKFtDSDNdKVtOSF1DKD1PKU4yW0NIMl1bQ0BASF0oW0NIM10pT1tDQEBIXShbQ0gzXSlbQ0gyXTI=

> <s_epik_cmdline>
J2VwaWtfcHl0aG9uJywgJy1waCcsICc3LjAnLCAnLXRuJywgJzgnLCAnLW1hJywgJzIwMCcsICctbWV0YWxfYmluZGluZycsICctaW1hZScsICc8aW5maWxlLm1hZT4nLCAnLW9tYWUnLCAnPG91dGZpbGUubWFlPic=

> <r_lp_tautomer_probability>
1

> <r_epik_Ionization_Penalty>
0.625124

> <r_epik_Ionization_Penalty_Charging>
0.625093

> <r_epik_Ionization_Penalty_Neutral>
3.17415e-05

> <r_epik_State_Penalty>
0.641455

> <r_epik_Charging_Adjusted_Penalty>
1.26655

> <i_epik_Tot_Q>
0

> <i_epik_Tot_abs_Q>
0

> <r_epik_Metal_State_Penalty>
0.307717

> <b_epik_Metal_Only>
0

> <s_lp_Force_Field>
OPLS_2005

> <r_lp_Energy>
30.8813

> <b_lp_Chiralities_Consistent>
1

> <s_lp_Variant>
AV-unprocessed.smi:1419-10

> <Gold.Version>
5.8.1

> <Gold.Id.Protein>
6NUR|6NUR_protein|mol2

> <Gold.PLP.Fitness>
39.2292

> <Gold.PLP.PLP>
-42.3882

> <Gold.PLP.part.hbond>
-1.0000

> <Gold.PLP.part.metal>
0.0000

> <Gold.PLP.part.buried>
-3.1384

> <Gold.PLP.part.nonpolar>
-38.2781

> <Gold.PLP.part.repulsive>
0.1905

> <Gold.PLP.ligand.clash>
0.4311

> <Gold.PLP.ligand.torsion>
1.3883

> <Gold.PLP.Chemscore.Hbond>
0.0000

> <Gold.PLP.Chemscore.CHOScore>
0.0000

> <Gold.PLP.Chemscore.Metal>
0.0000

> <Gold.PLP.Chemscore.Internal.Correction>
0.0488

> <Gold.Rescore>
     Score         DG    S(hbond)    S(metal)    S(lipo)     H(rot)  DE(clash)    DE(int)     intcor
      9.60     -12.22       0.00        0.00      92.13       1.58       0.05       2.57       ----

> <Gold.Chemscore.Fitness>
9.6045

> <Gold.Chemscore.DG>
-12.2218

> <Gold.Chemscore.ZeroCoef>
-5.4800

> <Gold.Chemscore.Hbond>
0.0000

> <Gold.Chemscore.Metal>
0.0000

> <Gold.Chemscore.Lipo>
92.1258

> <Gold.Chemscore.Internal_Hbond>
0.0000

> <Gold.Chemscore.DEClash>
0.0457

> <Gold.Chemscore.DEInternal>
2.5716

> <Gold.Chemscore.Rot>
1.5769

> <Gold.Chemscore.Internal.Correction>
   9.000000E+99

> <Gold.Chemscore.Hbond.Weighted>
-0.0000

> <Gold.Chemscore.Metal.Weighted>
-0.0000

> <Gold.Chemscore.Lipo.Weighted>
-10.7787

> <Gold.Chemscore.Internal_Hbond.Weighted>
0.0000

> <Gold.Chemscore.DEClash.Weighted>
0.0457

> <Gold.Chemscore.DEInternal.Weighted>
2.5716

> <Gold.Chemscore.Rot.Weighted>
4.0369

> <Gold.Chemscore.Internal.Correction.Weighted>
   9.000000E+99

> <Gold.Protein.RotatedTorsions>
[ 6907 6896 6895 6894 ] final  168.89 input  -60.11 | X-H torsion
[ 7974 7965 7964 7962 ] final   72.72 input  175.53 | X-H torsion
[ 8008 7997 7996 7995 ] final -104.70 input   59.86 | X-H torsion
[ 10167 10162 10161 10158 ] final -124.42 input  -65.29 | X-H torsion
[ 10718 10713 10712 10709 ] final   40.50 input   66.30 | X-H torsion
[ 10763 10752 10751 10750 ] final  109.96 input  -60.55 | X-H torsion
[ 11005 11000 10999 10996 ] final   69.30 input  -57.11 | X-H torsion

> <Gold.Protein.ActiveResidues>
 VAL166  LYS551  ARG553  GLY616  TRP617  ASP618  TYR619  PRO620  LYS621  CYS622 
 ASP623  PHE694  ASN695  SER759  ASP760  ASP761  ALA762  ILE779  LEU786  VAL792 
 PHE793  MET794  SER795  GLU796  ALA797  LYS798  CYS799  TRP800  GLU811  SER814 

> <Gold.Protein.RotatedAtoms>
  151.8405  133.3423  159.3641 H   0  0  0  0  0  0  0  0  0  0  0  0  # atno 6907 bound_to 6896
  150.7236  134.5396  159.5750 H   0  0  0  0  0  0  0  0  0  0  0  0  # atno 6908 bound_to 6896
  152.2869  134.7767  160.0437 H   0  0  0  0  0  0  0  0  0  0  0  0  # atno 6909 bound_to 6896
  145.7498  139.2755  143.1438 H   0  0  0  0  0  0  0  0  0  0  0  0  # atno 7974 bound_to 7965
  154.8891  140.0416  157.1828 H   0  0  0  0  0  0  0  0  0  0  0  0  # atno 8008 bound_to 7997
  154.8559  140.2936  155.5548 H   0  0  0  0  0  0  0  0  0  0  0  0  # atno 8009 bound_to 7997
  156.2997  140.2456  156.3525 H   0  0  0  0  0  0  0  0  0  0  0  0  # atno 8010 bound_to 7997
  139.9930  143.5620  152.2334 H   0  0  0  0  0  0  0  0  0  0  0  0  # atno 10167 bound_to 10162
  157.3828  130.7763  149.7207 H   0  0  0  0  0  0  0  0  0  0  0  0  # atno 10718 bound_to 10713
  153.4421  135.3763  155.2234 H   0  0  0  0  0  0  0  0  0  0  0  0  # atno 10763 bound_to 10752
  154.8754  135.3865  154.4140 H   0  0  0  0  0  0  0  0  0  0  0  0  # atno 10764 bound_to 10752
  153.4687  135.7087  153.6070 H   0  0  0  0  0  0  0  0  0  0  0  0  # atno 10765 bound_to 10752
  139.9661  134.6978  156.0542 H   0  0  0  0  0  0  0  0  0  0  0  0  # atno 11005 bound_to 11000
  146.0367  140.8205  142.9849 LP  0  0  0  0  0  0  0  0  0  0  0  0  # atno 17320 bound_to 7965
  144.6852  140.2850  143.7286 LP  0  0  0  0  0  0  0  0  0  0  0  0  # atno 17321 bound_to 7965
  139.6326  144.7646  151.2504 LP  0  0  0  0  0  0  0  0  0  0  0  0  # atno 17342 bound_to 10162
  140.7447  143.6453  150.8297 LP  0  0  0  0  0  0  0  0  0  0  0  0  # atno 17343 bound_to 10162
  155.9780  130.4057  150.3678 LP  0  0  0  0  0  0  0  0  0  0  0  0  # atno 17370 bound_to 10713
  157.1784  131.0386  151.2760 LP  0  0  0  0  0  0  0  0  0  0  0  0  # atno 17371 bound_to 10713
  141.1341  133.6579  156.3545 LP  0  0  0  0  0  0  0  0  0  0  0  0  # atno 17394 bound_to 11000
  140.5393  134.6136  157.5374 LP  0  0  0  0  0  0  0  0  0  0  0  0  # atno 17395 bound_to 11000

$$$$
