AV-unprocessed.smi:1762|AV-procd|sdf|7113|dock9
  -GOLD-   22720 8343D 1   1.00000     0.00000
 Structure written by MMmdl.
 53 54  0  0  0  0  0  0  0  0  2 V2000
  146.3404  132.5511  150.1336 C   0  0  0  0  0  0  0  0  0  0  0  0
  146.5977  133.4867  151.3200 C   0  0  2  0  0  0  0  0  0  0  0  0
  147.8442  133.0738  152.1212 C   0  0  0  0  0  0  0  0  0  0  0  0
  148.0364  133.9588  153.3049 N   0  3  2  0  0  0  0  0  0  0  0  0
  149.3263  133.6963  154.0320 C   0  0  1  0  0  0  0  0  0  0  0  0
  149.6641  134.8571  154.9927 C   0  0  0  0  0  0  0  0  0  0  0  0
  149.2193  134.8587  156.1414 O   0  0  0  0  0  0  0  0  0  0  0  0
  150.4489  135.8322  154.5095 N   0  0  0  0  0  0  0  0  0  0  0  0
  150.8894  136.9976  155.2650 C   0  0  0  0  0  0  0  0  0  0  0  0
  150.2995  138.2817  154.6659 C   0  0  0  0  0  0  0  0  0  0  0  0
  150.2457  139.4138  155.6745 C   0  0  0  0  0  0  0  0  0  0  0  0
  150.6522  139.2088  157.0103 C   0  0  0  0  0  0  0  0  0  0  0  0
  150.5899  140.2950  157.9046 C   0  0  0  0  0  0  0  0  0  0  0  0
  150.1283  141.5382  157.4307 C   0  0  0  0  0  0  0  0  0  0  0  0
  149.7467  141.6399  156.0780 C   0  0  0  0  0  0  0  0  0  0  0  0
  149.8015  140.6044  155.2126 N   0  0  0  0  0  0  0  0  0  0  0  0
  149.3740  132.3247  154.7883 C   0  0  0  0  0  0  0  0  0  0  0  0
  150.5642  132.1844  155.7605 C   0  0  0  0  0  0  0  0  0  0  0  0
  149.3158  131.1059  153.8461 C   0  0  0  0  0  0  0  0  0  0  0  0
  146.8065  133.9087  154.1440 C   0  0  0  0  0  0  0  0  0  0  0  0
  145.5473  134.2621  153.3275 C   0  0  1  0  0  0  0  0  0  0  0  0
  145.4391  135.7603  152.9893 C   0  0  0  0  0  0  0  0  0  0  0  0
  145.4565  133.4383  152.1682 O   0  0  0  0  0  0  0  0  0  0  0  0
  147.1833  132.5517  149.4421 H   0  0  0  0  0  0  0  0  0  0  0  0
  145.4557  132.8621  149.5774 H   0  0  0  0  0  0  0  0  0  0  0  0
  146.1805  131.5249  150.4662 H   0  0  0  0  0  0  0  0  0  0  0  0
  146.7299  134.4958  150.9296 H   0  0  0  0  0  0  0  0  0  0  0  0
  147.7527  132.0384  152.4543 H   0  0  0  0  0  0  0  0  0  0  0  0
  148.7037  133.1109  151.4524 H   0  0  0  0  0  0  0  0  0  0  0  0
  150.1047  133.6632  153.2670 H   0  0  0  0  0  0  0  0  0  0  0  0
  150.7732  135.7570  153.5560 H   0  0  0  0  0  0  0  0  0  0  0  0
  150.5736  136.8853  156.3030 H   0  0  0  0  0  0  0  0  0  0  0  0
  151.9792  137.0604  155.2647 H   0  0  0  0  0  0  0  0  0  0  0  0
  150.8940  138.6013  153.8085 H   0  0  0  0  0  0  0  0  0  0  0  0
  149.2943  138.0907  154.2877 H   0  0  0  0  0  0  0  0  0  0  0  0
  151.0051  138.2439  157.3436 H   0  0  0  0  0  0  0  0  0  0  0  0
  150.8920  140.1768  158.9348 H   0  0  0  0  0  0  0  0  0  0  0  0
  150.0682  142.3932  158.0878 H   0  0  0  0  0  0  0  0  0  0  0  0
  149.3884  142.5777  155.6799 H   0  0  0  0  0  0  0  0  0  0  0  0
  148.4608  132.2364  155.3747 H   0  0  0  0  0  0  0  0  0  0  0  0
  151.5150  132.1348  155.2295 H   0  0  0  0  0  0  0  0  0  0  0  0
  150.4762  131.2712  156.3496 H   0  0  0  0  0  0  0  0  0  0  0  0
  150.6223  133.0164  156.4618 H   0  0  0  0  0  0  0  0  0  0  0  0
  150.2291  130.9934  153.2612 H   0  0  0  0  0  0  0  0  0  0  0  0
  148.4790  131.1837  153.1515 H   0  0  0  0  0  0  0  0  0  0  0  0
  149.1827  130.1840  154.4131 H   0  0  0  0  0  0  0  0  0  0  0  0
  146.7060  132.9080  154.5671 H   0  0  0  0  0  0  0  0  0  0  0  0
  146.8524  134.6037  154.9798 H   0  0  0  0  0  0  0  0  0  0  0  0
  144.6781  134.0160  153.9381 H   0  0  0  0  0  0  0  0  0  0  0  0
  145.3697  136.3576  153.8988 H   0  0  0  0  0  0  0  0  0  0  0  0
  144.5472  135.9613  152.3954 H   0  0  0  0  0  0  0  0  0  0  0  0
  146.3021  136.1237  152.4316 H   0  0  0  0  0  0  0  0  0  0  0  0
  148.1048  134.9040  152.9547 H   0  0  0  0  0  0  0  0  0  0  0  0
  1  2  1  0  0  0  0
  1 24  1  0  0  0  0
  1 25  1  0  0  0  0
  1 26  1  0  0  0  0
  2 23  1  0  0  0  0
  2  3  1  0  0  0  0
  2 27  1  0  0  0  0
  3  4  1  0  0  0  0
  3 28  1  0  0  0  0
  3 29  1  0  0  0  0
  4  5  1  0  0  0  0
  4 20  1  0  0  0  0
  4 53  1  0  0  0  0
  5  6  1  0  0  0  0
  5 17  1  0  0  0  0
  5 30  1  0  0  0  0
  6  7  2  0  0  0  0
  6  8  1  0  0  0  0
  8  9  1  0  0  0  0
  8 31  1  0  0  0  0
  9 10  1  0  0  0  0
  9 32  1  0  0  0  0
  9 33  1  0  0  0  0
 10 11  1  0  0  0  0
 10 34  1  0  0  0  0
 10 35  1  0  0  0  0
 11 16  1  0  0  0  0
 11 12  2  0  0  0  0
 12 13  1  0  0  0  0
 12 36  1  0  0  0  0
 13 14  2  0  0  0  0
 13 37  1  0  0  0  0
 14 15  1  0  0  0  0
 14 38  1  0  0  0  0
 15 16  2  0  0  0  0
 15 39  1  0  0  0  0
 17 18  1  0  0  0  0
 17 19  1  0  0  0  0
 17 40  1  0  0  0  0
 18 41  1  0  0  0  0
 18 42  1  0  0  0  0
 18 43  1  0  0  0  0
 19 44  1  0  0  0  0
 19 45  1  0  0  0  0
 19 46  1  0  0  0  0
 20 21  1  0  0  0  0
 20 47  1  0  0  0  0
 20 48  1  0  0  0  0
 21 22  1  0  0  0  0
 21 23  1  0  0  0  0
 21 49  1  0  0  0  0
 22 50  1  0  0  0  0
 22 51  1  0  0  0  0
 22 52  1  0  0  0  0
M  CHG  1   4   1
M  END
> <s_m_source_file>
AV-unprocessed.smi

> <i_m_source_file_index>
1762

> <i_lp_mmshare_version>
43012

> <i_f3d_flags>
0

> <s_epik_input>
W0NIM11bQ0BASF0xW0NIMl1OKFtDSDJdW0NASF0oTzEpW0NIM10pW0NAQEhdKFtDSF0oW0NIM10pW0NIM10pQyg9TylbTkhdW0NIMl1bQ0gyXWMyW2NIXVtjSF1bY0hdW2NIXW4y

> <s_epik_cmdline>
J2VwaWtfcHl0aG9uJywgJy1waCcsICc3LjAnLCAnLXRuJywgJzgnLCAnLW1hJywgJzIwMCcsICctbWV0YWxfYmluZGluZycsICctaW1hZScsICc8aW5maWxlLm1hZT4nLCAnLW9tYWUnLCAnPG91dGZpbGUubWFlPic=

> <r_epik_Ionization_Penalty>
2.27005

> <r_epik_Ionization_Penalty_Charging>
2.24983

> <r_epik_Ionization_Penalty_Neutral>
0.0202209

> <r_epik_State_Penalty>
2.40228

> <r_epik_Charging_Adjusted_Penalty>
4.65211

> <i_epik_Tot_Q>
1

> <i_epik_Tot_abs_Q>
1

> <r_epik_Metal_State_Penalty>
2.40762

> <b_epik_Metal_Only>
0

> <s_lp_Force_Field>
OPLS_2005

> <r_lp_Energy>
25.3597

> <b_lp_Chiralities_Consistent>
1

> <s_lp_Variant>
AV-unprocessed.smi:1762-15

> <Gold.Version>
5.8.1

> <Gold.Id.Protein>
6NUR|6NUR_protein|mol2

> <Gold.PLP.Fitness>
51.4797

> <Gold.PLP.PLP>
-39.3405

> <Gold.PLP.part.hbond>
-3.8788

> <Gold.PLP.part.metal>
0.0000

> <Gold.PLP.part.buried>
-3.3045

> <Gold.PLP.part.nonpolar>
-31.9951

> <Gold.PLP.part.repulsive>
0.2958

> <Gold.PLP.ligand.clash>
0.0000

> <Gold.PLP.ligand.torsion>
1.0295

> <Gold.PLP.Chemscore.Hbond>
3.6708

> <Gold.PLP.Chemscore.CHOScore>
1.0000

> <Gold.PLP.Chemscore.Metal>
0.0000

> <Gold.Chemscore.Hbonds>
donor molecule, donor type, donor heavy atom, donor atom, acceptor molecule, acceptor atom, score
      L1  H     4    53       P1  7948  1.98
      L1  H     8    31       P1  7949  0.46
      L1  C    15    39       P1  8028  1.00

> <Gold.PLP.Chemscore.Internal.Correction>
0.1858

> <Gold.Rescore>
     Score         DG    S(hbond)    S(metal)    S(lipo)     H(rot)  DE(clash)    DE(int)     intcor
     15.39     -18.45       1.95        0.00      91.45       1.66       0.31       2.74       ----

> <Gold.Chemscore.Fitness>
15.3944

> <Gold.Chemscore.DG>
-18.4457

> <Gold.Chemscore.ZeroCoef>
-5.4800

> <Gold.Chemscore.Hbond>
1.9536

> <Gold.Chemscore.Metal>
0.0000

> <Gold.Chemscore.Lipo>
91.4457

> <Gold.Chemscore.Internal_Hbond>
0.0000

> <Gold.Chemscore.DEClash>
0.3129

> <Gold.Chemscore.DEInternal>
2.7383

> <Gold.Chemscore.Rot>
1.6635

> <Gold.Chemscore.Internal.Correction>
   9.000000E+99

> <Gold.Chemscore.Hbonds>
donor molecule, donor type, donor heavy atom, donor atom, acceptor molecule, acceptor atom, score
      L1  H     4    53       P1  7948  0.82
      L1  H     8    31       P1  7949  0.03

> <Gold.Chemscore.Hbond.Weighted>
-6.5252

> <Gold.Chemscore.Metal.Weighted>
-0.0000

> <Gold.Chemscore.Lipo.Weighted>
-10.6991

> <Gold.Chemscore.Internal_Hbond.Weighted>
0.0000

> <Gold.Chemscore.DEClash.Weighted>
0.3129

> <Gold.Chemscore.DEInternal.Weighted>
2.7383

> <Gold.Chemscore.Rot.Weighted>
4.2586

> <Gold.Chemscore.Internal.Correction.Weighted>
   9.000000E+99

> <Gold.Protein.RotatedTorsions>
[ 6907 6896 6895 6894 ] final  156.80 input  -60.11 | X-H torsion
[ 7974 7965 7964 7962 ] final  133.23 input  175.53 | X-H torsion
[ 8008 7997 7996 7995 ] final   62.24 input   59.86 | X-H torsion
[ 10167 10162 10161 10158 ] final   10.14 input  -65.29 | X-H torsion
[ 10718 10713 10712 10709 ] final  -31.95 input   66.30 | X-H torsion
[ 10763 10752 10751 10750 ] final  -96.40 input  -60.55 | X-H torsion
[ 11005 11000 10999 10996 ] final  -90.56 input  -57.11 | X-H torsion

> <Gold.Protein.ActiveResidues>
 VAL166  LYS551  ARG553  GLY616  TRP617  ASP618  TYR619  PRO620  LYS621  CYS622 
 ASP623  PHE694  ASN695  SER759  ASP760  ASP761  ALA762  ILE779  LEU786  VAL792 
 PHE793  MET794  SER795  GLU796  ALA797  LYS798  CYS799  TRP800  GLU811  SER814 

> <Gold.Protein.RotatedAtoms>
  152.0244  133.3911  159.4270 H   0  0  0  0  0  0  0  0  0  0  0  0  # atno 6907 bound_to 6896
  150.6887  134.3591  159.4951 H   0  0  0  0  0  0  0  0  0  0  0  0  # atno 6908 bound_to 6896
  152.1369  134.9092  160.0606 H   0  0  0  0  0  0  0  0  0  0  0  0  # atno 6909 bound_to 6896
  144.9887  139.4429  143.5350 H   0  0  0  0  0  0  0  0  0  0  0  0  # atno 7974 bound_to 7965
  155.6111  140.3495  155.4622 H   0  0  0  0  0  0  0  0  0  0  0  0  # atno 8008 bound_to 7997
  156.0153  140.1242  157.0436 H   0  0  0  0  0  0  0  0  0  0  0  0  # atno 8009 bound_to 7997
  154.4295  140.1073  156.5874 H   0  0  0  0  0  0  0  0  0  0  0  0  # atno 8010 bound_to 7997
  140.6212  143.8200  150.7177 H   0  0  0  0  0  0  0  0  0  0  0  0  # atno 10167 bound_to 10162
  156.3809  130.4356  149.7469 H   0  0  0  0  0  0  0  0  0  0  0  0  # atno 10718 bound_to 10713
  154.7236  135.5085  153.8850 H   0  0  0  0  0  0  0  0  0  0  0  0  # atno 10763 bound_to 10752
  153.0884  135.6652  153.9911 H   0  0  0  0  0  0  0  0  0  0  0  0  # atno 10764 bound_to 10752
  153.9729  135.3036  155.3405 H   0  0  0  0  0  0  0  0  0  0  0  0  # atno 10765 bound_to 10752
  141.1563  133.7700  156.9756 H   0  0  0  0  0  0  0  0  0  0  0  0  # atno 11005 bound_to 11000
  146.3426  139.9205  142.8767 LP  0  0  0  0  0  0  0  0  0  0  0  0  # atno 17320 bound_to 7965
  145.2317  140.9975  143.3987 LP  0  0  0  0  0  0  0  0  0  0  0  0  # atno 17321 bound_to 7965
  140.1791  143.4130  152.1946 LP  0  0  0  0  0  0  0  0  0  0  0  0  # atno 17342 bound_to 10162
  139.5440  144.7282  151.4642 LP  0  0  0  0  0  0  0  0  0  0  0  0  # atno 17343 bound_to 10162
  156.4560  130.7929  151.2950 LP  0  0  0  0  0  0  0  0  0  0  0  0  # atno 17370 bound_to 10713
  157.7492  131.0080  150.3214 LP  0  0  0  0  0  0  0  0  0  0  0  0  # atno 17371 bound_to 10713
  140.1100  134.9482  157.2051 LP  0  0  0  0  0  0  0  0  0  0  0  0  # atno 17394 bound_to 11000
  140.3206  134.2921  155.7247 LP  0  0  0  0  0  0  0  0  0  0  0  0  # atno 17395 bound_to 11000

$$$$
