AV-unprocessed.smi:2763|AV-procd|sdf|10639|dock8
  -GOLD-   2272015 93D 1   1.00000     0.00000
 Structure written by MMmdl.
 37 38  0  0  0  0  0  0  0  0  1 V2000
  151.2756  141.0245  156.4151 O   0  0  0  0  0  0  0  0  0  0  0  0
  150.6459  142.0695  156.2494 C   0  0  0  0  0  0  0  0  0  0  0  0
  150.9735  143.2338  156.8281 N   0  0  0  0  0  0  0  0  0  0  0  0
  152.1038  143.4440  157.7259 C   0  0  0  0  0  0  0  0  0  0  0  0
  151.6316  143.4730  159.1875 C   0  0  0  0  0  0  0  0  0  0  0  0
  152.7573  143.1667  160.1889 C   0  0  1  0  0  0  0  0  0  0  0  0
  152.2760  143.2805  161.6488 C   0  0  0  0  0  0  0  0  0  0  0  0
  153.3968  142.8927  162.6204 C   0  0  0  0  0  0  0  0  0  0  0  0
  153.9530  141.5149  162.2457 C   0  0  0  0  0  0  0  0  0  0  0  0
  154.3459  141.4840  160.7605 C   0  0  0  0  0  0  0  0  0  0  0  0
  153.2254  141.8394  159.9563 O   0  0  0  0  0  0  0  0  0  0  0  0
  149.5559  142.2045  155.4733 N   0  0  0  0  0  0  0  0  0  0  0  0
  148.8910  141.2080  154.7098 C   0  0  0  0  0  0  0  0  0  0  0  0
  147.7391  141.6520  154.0211 C   0  0  0  0  0  0  0  0  0  0  0  0
  147.0058  140.7404  153.2365 C   0  0  0  0  0  0  0  0  0  0  0  0
  147.4445  139.4066  153.1632 C   0  0  0  0  0  0  0  0  0  0  0  0
  146.7718  138.4942  152.4225 F   0  0  0  0  0  0  0  0  0  0  0  0
  148.6005  139.0449  153.8794 C   0  0  0  0  0  0  0  0  0  0  0  0
  149.3045  139.9179  154.6311 N   0  0  0  0  0  0  0  0  0  0  0  0
  150.3979  144.0391  156.6305 H   0  0  0  0  0  0  0  0  0  0  0  0
  152.8567  142.6643  157.5993 H   0  0  0  0  0  0  0  0  0  0  0  0
  152.5804  144.3893  157.4646 H   0  0  0  0  0  0  0  0  0  0  0  0
  151.2180  144.4580  159.4082 H   0  0  0  0  0  0  0  0  0  0  0  0
  150.8173  142.7600  159.3241 H   0  0  0  0  0  0  0  0  0  0  0  0
  153.5751  143.8702  160.0225 H   0  0  0  0  0  0  0  0  0  0  0  0
  151.9384  144.2959  161.8591 H   0  0  0  0  0  0  0  0  0  0  0  0
  151.4171  142.6265  161.8055 H   0  0  0  0  0  0  0  0  0  0  0  0
  154.1944  143.6354  162.5764 H   0  0  0  0  0  0  0  0  0  0  0  0
  153.0277  142.8883  163.6463 H   0  0  0  0  0  0  0  0  0  0  0  0
  154.8131  141.2719  162.8702 H   0  0  0  0  0  0  0  0  0  0  0  0
  153.1996  140.7499  162.4379 H   0  0  0  0  0  0  0  0  0  0  0  0
  155.1788  142.1609  160.5631 H   0  0  0  0  0  0  0  0  0  0  0  0
  154.6767  140.4835  160.4811 H   0  0  0  0  0  0  0  0  0  0  0  0
  149.1534  143.1287  155.4240 H   0  0  0  0  0  0  0  0  0  0  0  0
  147.4165  142.6809  154.0901 H   0  0  0  0  0  0  0  0  0  0  0  0
  146.1232  141.0597  152.7022 H   0  0  0  0  0  0  0  0  0  0  0  0
  148.9698  138.0305  153.8493 H   0  0  0  0  0  0  0  0  0  0  0  0
  1  2  2  0  0  0  0
  2  3  1  0  0  0  0
  2 12  1  0  0  0  0
  3  4  1  0  0  0  0
  3 20  1  0  0  0  0
  4  5  1  0  0  0  0
  4 21  1  0  0  0  0
  4 22  1  0  0  0  0
  5  6  1  0  0  0  0
  5 23  1  0  0  0  0
  5 24  1  0  0  0  0
  6 11  1  0  0  0  0
  6  7  1  0  0  0  0
  6 25  1  0  0  0  0
  7  8  1  0  0  0  0
  7 26  1  0  0  0  0
  7 27  1  0  0  0  0
  8  9  1  0  0  0  0
  8 28  1  0  0  0  0
  8 29  1  0  0  0  0
  9 10  1  0  0  0  0
  9 30  1  0  0  0  0
  9 31  1  0  0  0  0
 10 11  1  0  0  0  0
 10 32  1  0  0  0  0
 10 33  1  0  0  0  0
 12 13  1  0  0  0  0
 12 34  1  0  0  0  0
 13 19  1  0  0  0  0
 13 14  2  0  0  0  0
 14 15  1  0  0  0  0
 14 35  1  0  0  0  0
 15 16  2  0  0  0  0
 15 36  1  0  0  0  0
 16 17  1  0  0  0  0
 16 18  1  0  0  0  0
 18 19  2  0  0  0  0
 18 37  1  0  0  0  0
M  END
> <s_m_source_file>
AV-unprocessed.smi

> <i_m_source_file_index>
2763

> <i_lp_mmshare_version>
43012

> <i_f3d_flags>
0

> <s_epik_input>
bjFbY0hdYyhGKVtjSF1bY0hdYzFbTkhdQyg9TylbTkhdW0NIMl1bQ0gyXVtDQEBIXTJbQ0gyXVtDSDJdW0NIMl1bQ0gyXU8y

> <s_epik_cmdline>
J2VwaWtfcHl0aG9uJywgJy1waCcsICc3LjAnLCAnLXRuJywgJzgnLCAnLW1hJywgJzIwMCcsICctbWV0YWxfYmluZGluZycsICctaW1hZScsICc8aW5maWxlLm1hZT4nLCAnLW9tYWUnLCAnPG91dGZpbGUubWFlPic=

> <r_lp_tautomer_probability>
1

> <r_epik_Ionization_Penalty>
3.67849e-05

> <r_epik_Ionization_Penalty_Charging>
0

> <r_epik_Ionization_Penalty_Neutral>
3.67849e-05

> <r_epik_State_Penalty>
-0

> <r_epik_Charging_Adjusted_Penalty>
0

> <i_epik_Tot_Q>
0

> <i_epik_Tot_abs_Q>
0

> <r_epik_Metal_State_Penalty>
-0

> <b_epik_Metal_Only>
0

> <s_lp_Force_Field>
OPLS_2005

> <r_lp_Energy>
13.3257

> <b_lp_Chiralities_Consistent>
1

> <s_lp_Variant>
AV-unprocessed.smi:2763-2

> <Gold.Version>
5.8.1

> <Gold.Id.Protein>
6NUR|6NUR_protein|mol2

> <Gold.PLP.Fitness>
52.0641

> <Gold.PLP.PLP>
-44.1803

> <Gold.PLP.part.hbond>
-2.0000

> <Gold.PLP.part.metal>
0.0000

> <Gold.PLP.part.buried>
-2.7587

> <Gold.PLP.part.nonpolar>
-38.9455

> <Gold.PLP.part.repulsive>
0.3522

> <Gold.PLP.ligand.clash>
0.0000

> <Gold.PLP.ligand.torsion>
0.2417

> <Gold.PLP.Chemscore.Hbond>
1.9600

> <Gold.PLP.Chemscore.CHOScore>
0.8260

> <Gold.PLP.Chemscore.Metal>
0.0000

> <Gold.Chemscore.Hbonds>
donor molecule, donor type, donor heavy atom, donor atom, acceptor molecule, acceptor atom, score
      L1  H     3    20       P1  8028  0.94
      L1  H    12    34       P1  8028  1.00
      L1  C    18    37       P1  7948  0.67

> <Gold.PLP.Chemscore.Internal.Correction>
0.0093

> <Gold.Rescore>
     Score         DG    S(hbond)    S(metal)    S(lipo)     H(rot)  DE(clash)    DE(int)     intcor
     18.63     -20.38       1.92        0.00     106.20       1.54       0.16       1.58       ----

> <Gold.Chemscore.Fitness>
18.6342

> <Gold.Chemscore.DG>
-20.3758

> <Gold.Chemscore.ZeroCoef>
-5.4800

> <Gold.Chemscore.Hbond>
1.9189

> <Gold.Chemscore.Metal>
0.0000

> <Gold.Chemscore.Lipo>
106.1962

> <Gold.Chemscore.Internal_Hbond>
0.0000

> <Gold.Chemscore.DEClash>
0.1598

> <Gold.Chemscore.DEInternal>
1.5817

> <Gold.Chemscore.Rot>
1.5384

> <Gold.Chemscore.Internal.Correction>
   9.000000E+99

> <Gold.Chemscore.Hbonds>
donor molecule, donor type, donor heavy atom, donor atom, acceptor molecule, acceptor atom, score
      L1  H     3    20       P1  8028  0.92
      L1  H    12    34       P1  8028  0.99

> <Gold.Chemscore.Hbond.Weighted>
-6.4091

> <Gold.Chemscore.Metal.Weighted>
-0.0000

> <Gold.Chemscore.Lipo.Weighted>
-12.4250

> <Gold.Chemscore.Internal_Hbond.Weighted>
0.0000

> <Gold.Chemscore.DEClash.Weighted>
0.1598

> <Gold.Chemscore.DEInternal.Weighted>
1.5817

> <Gold.Chemscore.Rot.Weighted>
3.9382

> <Gold.Chemscore.Internal.Correction.Weighted>
   9.000000E+99

> <Gold.Protein.RotatedTorsions>
[ 6907 6896 6895 6894 ] final  -31.62 input  -60.11 | X-H torsion
[ 7974 7965 7964 7962 ] final   80.51 input  175.53 | X-H torsion
[ 8008 7997 7996 7995 ] final -147.37 input   59.86 | X-H torsion
[ 10167 10162 10161 10158 ] final -134.29 input  -65.29 | X-H torsion
[ 10718 10713 10712 10709 ] final  -63.49 input   66.30 | X-H torsion
[ 10763 10752 10751 10750 ] final  108.08 input  -60.55 | X-H torsion
[ 11005 11000 10999 10996 ] final -122.27 input  -57.11 | X-H torsion

> <Gold.Protein.ActiveResidues>
 VAL166  LYS551  ARG553  GLY616  TRP617  ASP618  TYR619  PRO620  LYS621  CYS622 
 ASP623  PHE694  ASN695  SER759  ASP760  ASP761  ALA762  ILE779  LEU786  VAL792 
 PHE793  MET794  SER795  GLU796  ALA797  LYS798  CYS799  TRP800  GLU811  SER814 

> <Gold.Protein.RotatedAtoms>
  151.0897  134.9908  159.8396 H   0  0  0  0  0  0  0  0  0  0  0  0  # atno 6907 bound_to 6896
  152.5428  134.2081  159.8749 H   0  0  0  0  0  0  0  0  0  0  0  0  # atno 6908 bound_to 6896
  151.2116  133.4509  159.2632 H   0  0  0  0  0  0  0  0  0  0  0  0  # atno 6909 bound_to 6896
  145.6502  139.2446  143.1981 H   0  0  0  0  0  0  0  0  0  0  0  0  # atno 7974 bound_to 7965
  155.5745  140.0637  157.2798 H   0  0  0  0  0  0  0  0  0  0  0  0  # atno 8008 bound_to 7997
  154.4351  140.1863  156.0959 H   0  0  0  0  0  0  0  0  0  0  0  0  # atno 8009 bound_to 7997
  156.0351  140.3302  155.7186 H   0  0  0  0  0  0  0  0  0  0  0  0  # atno 8010 bound_to 7997
  139.8896  143.6739  152.2614 H   0  0  0  0  0  0  0  0  0  0  0  0  # atno 10167 bound_to 10162
  156.0788  130.4221  150.1285 H   0  0  0  0  0  0  0  0  0  0  0  0  # atno 10718 bound_to 10713
  153.4157  135.3823  155.2079 H   0  0  0  0  0  0  0  0  0  0  0  0  # atno 10763 bound_to 10752
  154.8741  135.3805  154.4446 H   0  0  0  0  0  0  0  0  0  0  0  0  # atno 10764 bound_to 10752
  153.4960  135.7088  153.5920 H   0  0  0  0  0  0  0  0  0  0  0  0  # atno 10765 bound_to 10752
  141.0008  134.0405  157.3540 H   0  0  0  0  0  0  0  0  0  0  0  0  # atno 11005 bound_to 11000
  146.1210  140.7309  142.9458 LP  0  0  0  0  0  0  0  0  0  0  0  0  # atno 17320 bound_to 7965
  144.7125  140.4091  143.7069 LP  0  0  0  0  0  0  0  0  0  0  0  0  # atno 17321 bound_to 7965
  139.7122  144.7618  151.1093 LP  0  0  0  0  0  0  0  0  0  0  0  0  # atno 17342 bound_to 10162
  140.7729  143.5316  150.9417 LP  0  0  0  0  0  0  0  0  0  0  0  0  # atno 17343 bound_to 10162
  156.9320  130.9717  151.3531 LP  0  0  0  0  0  0  0  0  0  0  0  0  # atno 17370 bound_to 10713
  157.5895  130.8433  149.8638 LP  0  0  0  0  0  0  0  0  0  0  0  0  # atno 17371 bound_to 10713
  139.9038  135.0173  156.7391 LP  0  0  0  0  0  0  0  0  0  0  0  0  # atno 17394 bound_to 11000
  140.6892  133.9405  155.7956 LP  0  0  0  0  0  0  0  0  0  0  0  0  # atno 17395 bound_to 11000

$$$$
