AV-unprocessed.smi:35|AV-procd|sdf|263|dock5
  -GOLD-   2262016 33D 1   1.00000     0.00000
 Structure written by MMmdl.
 28 29  0  0  0  0  0  0  0  0  2 V2000
  150.4308  134.1997  156.2558 O   0  0  0  0  0  0  0  0  0  0  0  0
  150.3490  135.3321  155.7835 C   0  0  0  0  0  0  0  0  0  0  0  0
  151.4307  136.0213  155.3193 N   0  5  0  0  0  0  0  0  0  0  0  0
  151.3331  137.2745  154.7862 C   0  0  0  0  0  0  0  0  0  0  0  0
  152.3076  137.9089  154.3813 O   0  0  0  0  0  0  0  0  0  0  0  0
  150.0523  137.8870  154.6878 N   0  0  0  0  0  0  0  0  0  0  0  0
  149.9570  139.2841  154.0980 C   0  0  2  0  0  0  0  0  0  0  0  0
  150.7785  140.1548  154.8216 O   0  0  0  0  0  0  0  0  0  0  0  0
  150.0018  140.8534  155.7900 C   0  0  1  0  0  0  0  0  0  0  0  0
  150.7465  142.0912  156.3193 C   0  0  0  0  0  0  0  0  0  0  0  0
  149.9374  142.7823  157.2474 O   0  0  0  0  0  0  0  0  0  0  0  0
  148.7118  141.1328  155.0129 C   0  0  1  0  0  0  0  0  0  0  0  0
  148.8707  142.2670  154.1754 O   0  0  0  0  0  0  0  0  0  0  0  0
  148.5202  139.8385  154.2229 C   0  0  1  0  0  0  0  0  0  0  0  0
  147.8886  140.0507  152.9740 O   0  0  0  0  0  0  0  0  0  0  0  0
  148.9398  137.2199  155.1788 C   0  0  0  0  0  0  0  0  0  0  0  0
  149.0454  135.9854  155.7104 C   0  0  0  0  0  0  0  0  0  0  0  0
  147.3711  135.1524  156.3657 Br  0  0  0  0  0  0  0  0  0  0  0  0
  150.3257  139.1920  153.0748 H   0  0  0  0  0  0  0  0  0  0  0  0
  149.7592  140.1835  156.6170 H   0  0  0  0  0  0  0  0  0  0  0  0
  151.6984  141.8192  156.7765 H   0  0  0  0  0  0  0  0  0  0  0  0
  150.9620  142.7777  155.5002 H   0  0  0  0  0  0  0  0  0  0  0  0
  149.3373  143.3342  156.7695 H   0  0  0  0  0  0  0  0  0  0  0  0
  147.8704  141.3207  155.6806 H   0  0  0  0  0  0  0  0  0  0  0  0
  149.0189  143.0205  154.7266 H   0  0  0  0  0  0  0  0  0  0  0  0
  147.9161  139.1478  154.8134 H   0  0  0  0  0  0  0  0  0  0  0  0
  148.5593  140.0702  152.3070 H   0  0  0  0  0  0  0  0  0  0  0  0
  147.9632  137.6779  155.1481 H   0  0  0  0  0  0  0  0  0  0  0  0
  1  2  2  0  0  0  0
  2 17  1  0  0  0  0
  2  3  1  0  0  0  0
  3  4  1  0  0  0  0
  4  5  2  0  0  0  0
  4  6  1  0  0  0  0
  6  7  1  0  0  0  0
  6 16  1  0  0  0  0
  7 14  1  0  0  0  0
  7  8  1  0  0  0  0
  7 19  1  0  0  0  0
  8  9  1  0  0  0  0
  9 10  1  0  0  0  0
  9 12  1  0  0  0  0
  9 20  1  0  0  0  0
 10 11  1  0  0  0  0
 10 21  1  0  0  0  0
 10 22  1  0  0  0  0
 11 23  1  0  0  0  0
 12 13  1  0  0  0  0
 12 14  1  0  0  0  0
 12 24  1  0  0  0  0
 13 25  1  0  0  0  0
 14 15  1  0  0  0  0
 14 26  1  0  0  0  0
 15 27  1  0  0  0  0
 16 17  2  0  0  0  0
 16 28  1  0  0  0  0
 17 18  1  0  0  0  0
M  CHG  1   3  -1
M  END
> <s_m_source_file>
AV-unprocessed.smi

> <i_m_source_file_index>
35

> <i_lp_mmshare_version>
43012

> <i_f3d_flags>
0

> <s_epik_input>
Tz1jMVtuSF1jKD1PKW4oW2NIXWMxQnIpW0NAQEhdMk9bQ0BASF0oW0NIMl1bT0hdKVtDQEBIXShbT0hdKVtDQEhdMltPSF0=

> <s_epik_cmdline>
J2VwaWtfcHl0aG9uJywgJy1waCcsICc3LjAnLCAnLXRuJywgJzgnLCAnLW1hJywgJzIwMCcsICctbWV0YWxfYmluZGluZycsICctaW1hZScsICc8aW5maWxlLm1hZT4nLCAnLW9tYWUnLCAnPG91dGZpbGUubWFlPic=

> <r_epik_Ionization_Penalty>
1.06112

> <r_epik_Ionization_Penalty_Charging>
2.1796e-09

> <r_epik_Ionization_Penalty_Neutral>
1.06112

> <r_epik_State_Penalty>
1.11484

> <r_epik_Charging_Adjusted_Penalty>
1.11484

> <i_epik_Tot_Q>
-1

> <i_epik_Tot_abs_Q>
1

> <r_epik_Metal_State_Penalty>
0.0032876

> <b_epik_Metal_Only>
0

> <s_epik_Chemistry_Notes>
This compound contains an acetal/aminal-like group ( X-CH(R)-Y where X, Y are N, S, or O) that may be acid/base labile, releasing an aldehyde.

> <s_lp_Force_Field>
OPLS_2005

> <r_lp_Energy>
42.0638

> <b_lp_Chiralities_Consistent>
1

> <s_lp_Variant>
AV-unprocessed.smi:35-17

> <Gold.Version>
5.8.1

> <Gold.Id.Protein>
6NUR|6NUR_protein|mol2

> <Gold.PLP.Fitness>
46.6919

> <Gold.PLP.PLP>
-27.9843

> <Gold.PLP.part.hbond>
-6.7461

> <Gold.PLP.part.metal>
0.0000

> <Gold.PLP.part.buried>
-5.0694

> <Gold.PLP.part.nonpolar>
-17.3663

> <Gold.PLP.part.repulsive>
0.2856

> <Gold.PLP.ligand.clash>
0.0000

> <Gold.PLP.ligand.torsion>
0.0373

> <Gold.PLP.Chemscore.Hbond>
6.2538

> <Gold.PLP.Chemscore.CHOScore>
0.0000

> <Gold.PLP.Chemscore.Metal>
0.0000

> <Gold.Chemscore.Hbonds>
donor molecule, donor type, donor heavy atom, donor atom, acceptor molecule, acceptor atom, score
      L1  H    11    23       P1  8028  1.00
      L1  H    13    25       P1  8028  1.00
      L1  H    15    27       P1  7957  1.00
      P1  H  7989  7998       L1     8  0.95
      P1  H  8011  8017       L1    13  0.24
      P1  H 10752 10765       L1     3  2.00

> <Gold.PLP.Chemscore.Internal.Correction>
0.0210

> <Gold.Rescore>
     Score         DG    S(hbond)    S(metal)    S(lipo)     H(rot)  DE(clash)    DE(int)     intcor
     12.14     -13.70       4.09        0.00      32.69       3.63       0.16       1.40       ----

> <Gold.Chemscore.Fitness>
12.1394

> <Gold.Chemscore.DG>
-13.6958

> <Gold.Chemscore.ZeroCoef>
-5.4800

> <Gold.Chemscore.Hbond>
4.0939

> <Gold.Chemscore.Metal>
0.0000

> <Gold.Chemscore.Lipo>
32.6925

> <Gold.Chemscore.Internal_Hbond>
0.0000

> <Gold.Chemscore.DEClash>
0.1576

> <Gold.Chemscore.DEInternal>
1.3988

> <Gold.Chemscore.Rot>
3.6261

> <Gold.Chemscore.Internal.Correction>
   9.000000E+99

> <Gold.Chemscore.Hbonds>
donor molecule, donor type, donor heavy atom, donor atom, acceptor molecule, acceptor atom, score
      L1  H    11    23       P1  8028  0.97
      L1  H    13    25       P1  8028  0.99
      L1  H    15    27       P1  7957  0.94
      P1  H  7989  7998       L1     8  0.21
      P1  H  8011  8017       L1    13  0.19
      P1  H 10752 10765       L1     3  0.35

> <Gold.Chemscore.Hbond.Weighted>
-13.6735

> <Gold.Chemscore.Metal.Weighted>
-0.0000

> <Gold.Chemscore.Lipo.Weighted>
-3.8250

> <Gold.Chemscore.Internal_Hbond.Weighted>
0.0000

> <Gold.Chemscore.DEClash.Weighted>
0.1576

> <Gold.Chemscore.DEInternal.Weighted>
1.3988

> <Gold.Chemscore.Rot.Weighted>
9.2828

> <Gold.Chemscore.Internal.Correction.Weighted>
   9.000000E+99

> <Gold.Protein.RotatedTorsions>
[ 6907 6896 6895 6894 ] final    2.75 input  -60.11 | X-H torsion
[ 7974 7965 7964 7962 ] final    3.08 input  175.53 | X-H torsion
[ 8008 7997 7996 7995 ] final  174.90 input   59.86 | X-H torsion
[ 10167 10162 10161 10158 ] final   28.92 input  -65.29 | X-H torsion
[ 10718 10713 10712 10709 ] final   22.54 input   66.30 | X-H torsion
[ 10763 10752 10751 10750 ] final -168.07 input  -60.55 | X-H torsion
[ 11005 11000 10999 10996 ] final  129.76 input  -57.11 | X-H torsion

> <Gold.Protein.ActiveResidues>
 VAL166  LYS551  ARG553  GLY616  TRP617  ASP618  TYR619  PRO620  LYS621  CYS622 
 ASP623  PHE694  ASN695  SER759  ASP760  ASP761  ALA762  ILE779  LEU786  VAL792 
 PHE793  MET794  SER795  GLU796  ALA797  LYS798  CYS799  TRP800  GLU811  SER814 

> <Gold.Protein.RotatedAtoms>
  151.6139  135.1038  160.0086 H   0  0  0  0  0  0  0  0  0  0  0  0  # atno 6907 bound_to 6896
  152.4193  133.7086  159.6476 H   0  0  0  0  0  0  0  0  0  0  0  0  # atno 6908 bound_to 6896
  150.8081  133.8399  159.3217 H   0  0  0  0  0  0  0  0  0  0  0  0  # atno 6909 bound_to 6896
  146.2445  140.0739  142.8361 H   0  0  0  0  0  0  0  0  0  0  0  0  # atno 7974 bound_to 7965
  156.0927  140.1422  156.9572 H   0  0  0  0  0  0  0  0  0  0  0  0  # atno 8008 bound_to 7997
  154.4652  140.0929  156.7047 H   0  0  0  0  0  0  0  0  0  0  0  0  # atno 8009 bound_to 7997
  155.4893  140.3447  155.4354 H   0  0  0  0  0  0  0  0  0  0  0  0  # atno 8010 bound_to 7997
  140.4810  144.0615  150.6265 H   0  0  0  0  0  0  0  0  0  0  0  0  # atno 10167 bound_to 10162
  157.1538  130.6686  149.6020 H   0  0  0  0  0  0  0  0  0  0  0  0  # atno 10718 bound_to 10713
  154.6666  135.2933  154.9797 H   0  0  0  0  0  0  0  0  0  0  0  0  # atno 10763 bound_to 10752
  154.0838  135.6600  153.4846 H   0  0  0  0  0  0  0  0  0  0  0  0  # atno 10764 bound_to 10752
  153.0461  135.5204  154.7642 H   0  0  0  0  0  0  0  0  0  0  0  0  # atno 10765 bound_to 10752
  139.9633  134.9597  156.9195 H   0  0  0  0  0  0  0  0  0  0  0  0  # atno 11005 bound_to 11000
  145.0792  140.9209  143.4835 LP  0  0  0  0  0  0  0  0  0  0  0  0  # atno 17320 bound_to 7965
  145.0888  139.2905  143.5745 LP  0  0  0  0  0  0  0  0  0  0  0  0  # atno 17321 bound_to 7965
  140.3857  143.2779  152.0119 LP  0  0  0  0  0  0  0  0  0  0  0  0  # atno 17342 bound_to 10162
  139.4833  144.6118  151.7419 LP  0  0  0  0  0  0  0  0  0  0  0  0  # atno 17343 bound_to 10162
  155.9766  130.4735  150.6537 LP  0  0  0  0  0  0  0  0  0  0  0  0  # atno 17370 bound_to 10713
  157.4196  131.0835  151.1143 LP  0  0  0  0  0  0  0  0  0  0  0  0  # atno 17371 bound_to 10713
  140.5451  134.0682  155.7352 LP  0  0  0  0  0  0  0  0  0  0  0  0  # atno 17394 bound_to 11000
  141.1312  133.9299  157.2532 LP  0  0  0  0  0  0  0  0  0  0  0  0  # atno 17395 bound_to 11000

$$$$
