AV-unprocessed.smi:287|AV-procd|sdf|2197|dock8
  -GOLD-   2262022 03D 1   1.00000     0.00000
 Structure written by MMmdl.
 55 58  0  0  0  0  0  0  0  0  1 V2000
  152.2588  144.5987  160.3157 C   0  0  0  0  0  0  0  0  0  0  0  0
  152.5214  143.1662  159.9997 C   0  0  0  0  0  0  0  0  0  0  0  0
  152.1296  142.3350  158.9912 C   0  0  0  0  0  0  0  0  0  0  0  0
  152.7083  141.0554  159.2438 C   0  0  0  0  0  0  0  0  0  0  0  0
  152.5367  139.8134  158.3791 C   0  0  1  0  0  0  0  0  0  0  0  0
  151.7705  140.1711  157.0945 C   0  0  0  0  0  0  0  0  0  0  0  0
  153.7676  139.2722  157.9400 O   0  0  0  0  0  0  0  0  0  0  0  0
  151.8122  138.6732  159.1298 C   0  0  0  0  0  0  0  0  0  0  0  0
  150.3607  138.7761  159.0506 N   0  0  0  0  0  0  0  0  0  0  0  0
  149.6020  137.7014  158.7504 C   0  0  0  0  0  0  0  0  0  0  0  0
  149.7099  137.2507  157.4778 N   0  0  0  0  0  0  0  0  0  0  0  0
  149.0037  136.1898  157.0777 C   0  0  0  0  0  0  0  0  0  0  0  0
  148.1448  135.4474  157.7784 N   0  0  0  0  0  0  0  0  0  0  0  0
  148.0286  135.8968  159.0616 C   0  0  0  0  0  0  0  0  0  0  0  0
  148.7161  137.0080  159.6282 C   0  0  0  0  0  0  0  0  0  0  0  0
  148.3351  137.1491  160.9584 N   0  0  0  0  0  0  0  0  0  0  0  0
  147.4821  136.1812  161.1578 C   0  0  0  0  0  0  0  0  0  0  0  0
  147.2422  135.3751  160.0660 N   0  0  0  0  0  0  0  0  0  0  0  0
  146.3335  134.1867  159.9360 C   0  0  2  0  0  0  0  0  0  0  0  0
  145.0201  134.6519  159.9675 O   0  0  0  0  0  0  0  0  0  0  0  0
  144.4130  134.4419  161.2467 C   0  0  1  0  0  0  0  0  0  0  0  0
  143.1982  133.5220  161.0017 C   0  0  0  0  0  0  0  0  0  0  0  0
  142.6585  133.1045  162.2375 O   0  0  0  0  0  0  0  0  0  0  0  0
  145.5308  133.8452  162.1303 C   0  0  1  0  0  0  0  0  0  0  0  0
  145.0735  132.8817  163.0595 O   0  0  0  0  0  0  0  0  0  0  0  0
  146.4820  133.2237  161.1224 C   0  0  2  0  0  0  0  0  0  0  0  0
  147.7975  133.1432  161.6409 O   0  0  0  0  0  0  0  0  0  0  0  0
  153.4271  141.2188  160.4039 C   0  0  0  0  0  0  0  0  0  0  0  0
  154.2757  140.3147  161.2362 C   0  0  0  0  0  0  0  0  0  0  0  0
  153.3176  142.4947  160.8687 O   0  0  0  0  0  0  0  0  0  0  0  0
  146.5816  133.7498  158.9682 H   0  0  0  0  0  0  0  0  0  0  0  0
  144.0798  135.3896  161.6722 H   0  0  0  0  0  0  0  0  0  0  0  0
  146.0303  134.6515  162.6698 H   0  0  0  0  0  0  0  0  0  0  0  0
  146.1318  132.2400  160.8061 H   0  0  0  0  0  0  0  0  0  0  0  0
  151.4035  144.9703  159.7512 H   0  0  0  0  0  0  0  0  0  0  0  0
  153.1234  145.2133  160.0649 H   0  0  0  0  0  0  0  0  0  0  0  0
  152.0449  144.7300  161.3767 H   0  0  0  0  0  0  0  0  0  0  0  0
  151.4922  142.6119  158.1644 H   0  0  0  0  0  0  0  0  0  0  0  0
  150.7807  140.5692  157.3212 H   0  0  0  0  0  0  0  0  0  0  0  0
  151.6319  139.2980  156.4553 H   0  0  0  0  0  0  0  0  0  0  0  0
  152.3020  140.9257  156.5130 H   0  0  0  0  0  0  0  0  0  0  0  0
  154.2368  138.9462  158.6925 H   0  0  0  0  0  0  0  0  0  0  0  0
  152.0919  137.7251  158.6686 H   0  0  0  0  0  0  0  0  0  0  0  0
  152.1355  138.6280  160.1707 H   0  0  0  0  0  0  0  0  0  0  0  0
  149.9817  139.7033  159.1805 H   0  0  0  0  0  0  0  0  0  0  0  0
  149.1486  135.8935  156.0493 H   0  0  0  0  0  0  0  0  0  0  0  0
  147.0047  136.0344  162.1152 H   0  0  0  0  0  0  0  0  0  0  0  0
  142.4347  134.0177  160.4012 H   0  0  0  0  0  0  0  0  0  0  0  0
  143.4894  132.6141  160.4737 H   0  0  0  0  0  0  0  0  0  0  0  0
  143.3617  133.0380  162.8653 H   0  0  0  0  0  0  0  0  0  0  0  0
  145.8261  132.4384  163.4212 H   0  0  0  0  0  0  0  0  0  0  0  0
  148.2706  132.4841  161.1554 H   0  0  0  0  0  0  0  0  0  0  0  0
  155.0850  139.8894  160.6426 H   0  0  0  0  0  0  0  0  0  0  0  0
  153.6832  139.4938  161.6402 H   0  0  0  0  0  0  0  0  0  0  0  0
  154.7209  140.8510  162.0746 H   0  0  0  0  0  0  0  0  0  0  0  0
  1  2  1  0  0  0  0
  1 35  1  0  0  0  0
  1 36  1  0  0  0  0
  1 37  1  0  0  0  0
  2 30  1  0  0  0  0
  2  3  2  0  0  0  0
  3  4  1  0  0  0  0
  3 38  1  0  0  0  0
  4  5  1  0  0  0  0
  4 28  2  0  0  0  0
  5  6  1  0  0  0  0
  5  7  1  0  0  0  0
  5  8  1  0  0  0  0
  6 39  1  0  0  0  0
  6 40  1  0  0  0  0
  6 41  1  0  0  0  0
  7 42  1  0  0  0  0
  8  9  1  0  0  0  0
  8 43  1  0  0  0  0
  8 44  1  0  0  0  0
  9 10  1  0  0  0  0
  9 45  1  0  0  0  0
 10 15  1  0  0  0  0
 10 11  2  0  0  0  0
 11 12  1  0  0  0  0
 12 13  2  0  0  0  0
 12 46  1  0  0  0  0
 13 14  1  0  0  0  0
 14 18  1  0  0  0  0
 14 15  2  0  0  0  0
 15 16  1  0  0  0  0
 16 17  2  0  0  0  0
 17 18  1  0  0  0  0
 17 47  1  0  0  0  0
 18 19  1  0  0  0  0
 19 31  1  0  0  0  0
 19 26  1  0  0  0  0
 19 20  1  0  0  0  0
 20 21  1  0  0  0  0
 21 32  1  0  0  0  0
 21 22  1  0  0  0  0
 21 24  1  0  0  0  0
 22 23  1  0  0  0  0
 22 48  1  0  0  0  0
 22 49  1  0  0  0  0
 23 50  1  0  0  0  0
 24 33  1  0  0  0  0
 24 25  1  0  0  0  0
 24 26  1  0  0  0  0
 25 51  1  0  0  0  0
 26 34  1  0  0  0  0
 26 27  1  0  0  0  0
 27 52  1  0  0  0  0
 28 29  1  0  0  0  0
 28 30  1  0  0  0  0
 29 53  1  0  0  0  0
 29 54  1  0  0  0  0
 29 55  1  0  0  0  0
M  END
> <s_m_source_file>
AV-unprocessed.smi

> <i_m_source_file_index>
287

> <i_lp_mmshare_version>
43012

> <i_f3d_flags>
0

> <s_epik_input>
W0NIM11jMVtjSF1jKGMobzEpW0NIM10pW0NAQF0oW0NIM10pKFtPSF0pW0NIMl1bTkhdYyhuW2NIXW4yKWMoYzIzKW5bY0hdbjNbQ0BASF00T1tDQEhdKFtDSDJdW09IXSlbQ0BASF0oW09IXSlbQ0BIXTRbT0hd

> <s_epik_cmdline>
J2VwaWtfcHl0aG9uJywgJy1waCcsICc3LjAnLCAnLXRuJywgJzgnLCAnLW1hJywgJzIwMCcsICctbWV0YWxfYmluZGluZycsICctaW1hZScsICc8aW5maWxlLm1hZT4nLCAnLW9tYWUnLCAnPG91dGZpbGUubWFlPic=

> <r_lp_tautomer_probability>
1

> <r_epik_Ionization_Penalty>
0.000992612

> <r_epik_Ionization_Penalty_Charging>
0

> <r_epik_Ionization_Penalty_Neutral>
0.000992612

> <r_epik_State_Penalty>
-0

> <r_epik_Charging_Adjusted_Penalty>
0

> <i_epik_Tot_Q>
0

> <i_epik_Tot_abs_Q>
0

> <r_epik_Metal_State_Penalty>
-0

> <b_epik_Metal_Only>
0

> <s_epik_Chemistry_Notes>
This compound contains an acetal/aminal-like group ( X-CH(R)-Y where X, Y are N, S, or O) that may be acid/base labile, releasing an aldehyde.

> <s_lp_Force_Field>
OPLS_2005

> <r_lp_Energy>
44.9714

> <b_lp_Chiralities_Consistent>
1

> <s_lp_Variant>
AV-unprocessed.smi:287-21

> <Gold.Version>
5.8.1

> <Gold.Id.Protein>
6NUR|6NUR_protein|mol2

> <Gold.PLP.Fitness>
49.3947

> <Gold.PLP.PLP>
-45.1762

> <Gold.PLP.part.hbond>
-5.5714

> <Gold.PLP.part.metal>
0.0000

> <Gold.PLP.part.buried>
-6.3640

> <Gold.PLP.part.nonpolar>
-33.7346

> <Gold.PLP.part.repulsive>
0.2008

> <Gold.PLP.ligand.clash>
0.0000

> <Gold.PLP.ligand.torsion>
1.5636

> <Gold.PLP.Chemscore.Hbond>
2.4210

> <Gold.PLP.Chemscore.CHOScore>
0.0000

> <Gold.PLP.Chemscore.Metal>
0.0000

> <Gold.Chemscore.Hbonds>
donor molecule, donor type, donor heavy atom, donor atom, acceptor molecule, acceptor atom, score
      P1  H  6931  6943       L1    16  0.98
      P1  H  6934  6947       L1    16  0.36
      P1  H  7997  8010       L1     7  0.80

> <Gold.PLP.Chemscore.Internal.Correction>
0.0827

> <Gold.Rescore>
     Score         DG    S(hbond)    S(metal)    S(lipo)     H(rot)  DE(clash)    DE(int)     intcor
      8.48     -11.24       2.24        0.00     100.68       5.27       0.18       2.59       ----

> <Gold.Chemscore.Fitness>
8.4760

> <Gold.Chemscore.DG>
-11.2425

> <Gold.Chemscore.ZeroCoef>
-5.4800

> <Gold.Chemscore.Hbond>
2.2356

> <Gold.Chemscore.Metal>
0.0000

> <Gold.Chemscore.Lipo>
100.6799

> <Gold.Chemscore.Internal_Hbond>
0.0000

> <Gold.Chemscore.DEClash>
0.1796

> <Gold.Chemscore.DEInternal>
2.5868

> <Gold.Chemscore.Rot>
5.2672

> <Gold.Chemscore.Internal.Correction>
   9.000000E+99

> <Gold.Chemscore.Hbonds>
donor molecule, donor type, donor heavy atom, donor atom, acceptor molecule, acceptor atom, score
      P1  H  6931  6943       L1    16  0.90
      P1  H  6934  6947       L1    16  0.08
      P1  H  7997  8010       L1     7  0.43

> <Gold.Chemscore.Hbond.Weighted>
-7.4668

> <Gold.Chemscore.Metal.Weighted>
-0.0000

> <Gold.Chemscore.Lipo.Weighted>
-11.7795

> <Gold.Chemscore.Internal_Hbond.Weighted>
0.0000

> <Gold.Chemscore.DEClash.Weighted>
0.1796

> <Gold.Chemscore.DEInternal.Weighted>
2.5868

> <Gold.Chemscore.Rot.Weighted>
13.4839

> <Gold.Chemscore.Internal.Correction.Weighted>
   9.000000E+99

> <Gold.Protein.RotatedTorsions>
[ 6907 6896 6895 6894 ] final  -58.98 input  -60.11 | X-H torsion
[ 7974 7965 7964 7962 ] final  -17.50 input  175.53 | X-H torsion
[ 8008 7997 7996 7995 ] final   23.09 input   59.86 | X-H torsion
[ 10167 10162 10161 10158 ] final  156.58 input  -65.29 | X-H torsion
[ 10718 10713 10712 10709 ] final  126.00 input   66.30 | X-H torsion
[ 10763 10752 10751 10750 ] final -164.08 input  -60.55 | X-H torsion
[ 11005 11000 10999 10996 ] final  151.13 input  -57.11 | X-H torsion

> <Gold.Protein.ActiveResidues>
 VAL166  LYS551  ARG553  GLY616  TRP617  ASP618  TYR619  PRO620  LYS621  CYS622 
 ASP623  PHE694  ASN695  SER759  ASP760  ASP761  ALA762  ILE779  LEU786  VAL792 
 PHE793  MET794  SER795  GLU796  ALA797  LYS798  CYS799  TRP800  GLU811  SER814 

> <Gold.Protein.RotatedAtoms>
  150.7965  134.7029  159.6559 H   0  0  0  0  0  0  0  0  0  0  0  0  # atno 6907 bound_to 6896
  152.4078  134.6173  160.0051 H   0  0  0  0  0  0  0  0  0  0  0  0  # atno 6908 bound_to 6896
  151.6425  133.3288  159.3169 H   0  0  0  0  0  0  0  0  0  0  0  0  # atno 6909 bound_to 6896
  146.1938  140.3788  142.8448 H   0  0  0  0  0  0  0  0  0  0  0  0  # atno 7974 bound_to 7965
  154.9756  140.3095  155.4969 H   0  0  0  0  0  0  0  0  0  0  0  0  # atno 8008 bound_to 7997
  156.2960  140.2276  156.4791 H   0  0  0  0  0  0  0  0  0  0  0  0  # atno 8009 bound_to 7997
  154.7837  140.0444  157.1135 H   0  0  0  0  0  0  0  0  0  0  0  0  # atno 8010 bound_to 7997
  139.4821  144.4996  151.8188 H   0  0  0  0  0  0  0  0  0  0  0  0  # atno 10167 bound_to 10162
  157.5456  131.1095  150.8787 H   0  0  0  0  0  0  0  0  0  0  0  0  # atno 10718 bound_to 10713
  154.7062  135.2997  154.9266 H   0  0  0  0  0  0  0  0  0  0  0  0  # atno 10763 bound_to 10752
  154.0182  135.6686  153.4774 H   0  0  0  0  0  0  0  0  0  0  0  0  # atno 10764 bound_to 10752
  153.0719  135.5056  154.8234 H   0  0  0  0  0  0  0  0  0  0  0  0  # atno 10765 bound_to 10752
  140.1192  134.8875  157.2047 H   0  0  0  0  0  0  0  0  0  0  0  0  # atno 11005 bound_to 11000
  144.8539  140.7041  143.6151 LP  0  0  0  0  0  0  0  0  0  0  0  0  # atno 17320 bound_to 7965
  145.3709  139.1659  143.4332 LP  0  0  0  0  0  0  0  0  0  0  0  0  # atno 17321 bound_to 7965
  140.4488  144.1885  150.5896 LP  0  0  0  0  0  0  0  0  0  0  0  0  # atno 17342 bound_to 10162
  140.4607  143.2450  151.9224 LP  0  0  0  0  0  0  0  0  0  0  0  0  # atno 17343 bound_to 10162
  156.9327  130.5355  149.5279 LP  0  0  0  0  0  0  0  0  0  0  0  0  # atno 17370 bound_to 10713
  156.0533  130.5599  150.9037 LP  0  0  0  0  0  0  0  0  0  0  0  0  # atno 17371 bound_to 10713
  140.2988  134.3156  155.7295 LP  0  0  0  0  0  0  0  0  0  0  0  0  # atno 17394 bound_to 11000
  141.2148  133.7579  156.9610 LP  0  0  0  0  0  0  0  0  0  0  0  0  # atno 17395 bound_to 11000

$$$$
