AV-unprocessed.smi:1406|AV-procd|sdf|5720|dock7
  -GOLD-   22720 5353D 1   1.00000     0.00000
 Structure written by MMmdl.
 41 43  0  0  0  0  0  0  0  0  2 V2000
  148.9891  138.1187  154.8266 C   0  0  0  0  0  0  0  0  0  0  0  0
  150.0731  139.1777  154.5404 C   0  0  1  0  0  0  0  0  0  0  0  0
  149.6435  140.5973  154.9449 C   0  0  0  0  0  0  0  0  0  0  0  0
  149.4898  141.4759  154.0957 O   0  0  0  0  0  0  0  0  0  0  0  0
  149.4544  140.8090  156.2571 N   0  0  0  0  0  0  0  0  0  0  0  0
  149.0235  142.0699  156.8529 C   0  0  1  0  0  0  0  0  0  0  0  0
  147.7976  141.9101  157.7692 C   0  0  0  0  0  0  0  0  0  0  0  0
  148.0351  142.8812  158.9427 C   0  0  0  0  0  0  0  0  0  0  0  0
  149.2836  143.5947  158.6134 N   0  3  1  0  0  0  0  0  0  0  0  0
  150.0515  144.1656  159.7413 C   0  0  0  0  0  0  0  0  0  0  0  0
  151.2644  144.9408  159.1887 C   0  0  0  0  0  0  0  0  0  0  0  0
  152.1154  144.0711  158.2410 C   0  0  0  0  0  0  0  0  0  0  0  0
  151.2458  143.4276  157.1438 C   0  0  0  0  0  0  0  0  0  0  0  0
  150.0757  142.6672  157.7913 C   0  0  2  0  0  0  0  0  0  0  0  0
  151.3471  138.8378  155.1620 N   0  0  0  0  0  0  0  0  0  0  0  0
  152.5739  138.7940  154.6374 C   0  0  0  0  0  0  0  0  0  0  0  0
  153.5225  138.4854  155.5102 N   0  0  0  0  0  0  0  0  0  0  0  0
  152.7609  138.3485  156.6360 C   0  0  0  0  0  0  0  0  0  0  0  0
  151.4532  138.5585  156.4852 N   0  0  0  0  0  0  0  0  0  0  0  0
  148.0588  138.3584  154.3105 H   0  0  0  0  0  0  0  0  0  0  0  0
  148.7653  138.0382  155.8911 H   0  0  0  0  0  0  0  0  0  0  0  0
  149.3080  137.1344  154.4822 H   0  0  0  0  0  0  0  0  0  0  0  0
  150.2360  139.1874  153.4612 H   0  0  0  0  0  0  0  0  0  0  0  0
  149.6020  140.0331  156.8863 H   0  0  0  0  0  0  0  0  0  0  0  0
  148.7756  142.7959  156.0754 H   0  0  0  0  0  0  0  0  0  0  0  0
  146.8753  142.1375  157.2334 H   0  0  0  0  0  0  0  0  0  0  0  0
  147.7125  140.8904  158.1479 H   0  0  0  0  0  0  0  0  0  0  0  0
  147.2123  143.5843  159.0747 H   0  0  0  0  0  0  0  0  0  0  0  0
  148.1557  142.3223  159.8721 H   0  0  0  0  0  0  0  0  0  0  0  0
  149.4115  144.8317  160.3209 H   0  0  0  0  0  0  0  0  0  0  0  0
  150.3791  143.3683  160.4103 H   0  0  0  0  0  0  0  0  0  0  0  0
  150.9131  145.8211  158.6484 H   0  0  0  0  0  0  0  0  0  0  0  0
  151.8788  145.3097  160.0104 H   0  0  0  0  0  0  0  0  0  0  0  0
  152.9068  144.6704  157.7896 H   0  0  0  0  0  0  0  0  0  0  0  0
  152.6111  143.2878  158.8163 H   0  0  0  0  0  0  0  0  0  0  0  0
  150.8678  144.1970  156.4688 H   0  0  0  0  0  0  0  0  0  0  0  0
  151.8525  142.7517  156.5408 H   0  0  0  0  0  0  0  0  0  0  0  0
  150.4686  141.8783  158.4375 H   0  0  0  0  0  0  0  0  0  0  0  0
  152.7781  138.9963  153.5961 H   0  0  0  0  0  0  0  0  0  0  0  0
  153.1836  138.0932  157.5965 H   0  0  0  0  0  0  0  0  0  0  0  0
  149.0245  144.3607  158.0080 H   0  0  0  0  0  0  0  0  0  0  0  0
  1  2  1  0  0  0  0
  1 20  1  0  0  0  0
  1 21  1  0  0  0  0
  1 22  1  0  0  0  0
  2  3  1  0  0  0  0
  2 15  1  0  0  0  0
  2 23  1  0  0  0  0
  3  4  2  0  0  0  0
  3  5  1  0  0  0  0
  5  6  1  0  0  0  0
  5 24  1  0  0  0  0
  6 14  1  0  0  0  0
  6  7  1  0  0  0  0
  6 25  1  0  0  0  0
  7  8  1  0  0  0  0
  7 26  1  0  0  0  0
  7 27  1  0  0  0  0
  8  9  1  0  0  0  0
  8 28  1  0  0  0  0
  8 29  1  0  0  0  0
  9 14  1  0  0  0  0
  9 10  1  0  0  0  0
  9 41  1  0  0  0  0
 10 11  1  0  0  0  0
 10 30  1  0  0  0  0
 10 31  1  0  0  0  0
 11 12  1  0  0  0  0
 11 32  1  0  0  0  0
 11 33  1  0  0  0  0
 12 13  1  0  0  0  0
 12 34  1  0  0  0  0
 12 35  1  0  0  0  0
 13 14  1  0  0  0  0
 13 36  1  0  0  0  0
 13 37  1  0  0  0  0
 14 38  1  0  0  0  0
 15 19  1  0  0  0  0
 15 16  1  0  0  0  0
 16 17  2  0  0  0  0
 16 39  1  0  0  0  0
 17 18  1  0  0  0  0
 18 19  2  0  0  0  0
 18 40  1  0  0  0  0
M  CHG  1   9   1
M  END
> <s_m_source_file>
AV-unprocessed.smi

> <i_m_source_file_index>
1406

> <i_lp_mmshare_version>
43012

> <i_f3d_flags>
0

> <s_epik_input>
bjFbY0hdbltjSF1uMVtDQEhdKFtDSDNdKUMoPU8pW05IXVtDQEhdKFtDSDJdW0NIMl0yKVtDQEBIXShOMjMpW0NIMl1bQ0gyXVtDSDJdW0NIMl0z

> <s_epik_cmdline>
J2VwaWtfcHl0aG9uJywgJy1waCcsICc3LjAnLCAnLXRuJywgJzgnLCAnLW1hJywgJzIwMCcsICctbWV0YWxfYmluZGluZycsICctaW1hZScsICc8aW5maWxlLm1hZT4nLCAnLW9tYWUnLCAnPG91dGZpbGUubWFlPic=

> <r_lp_tautomer_probability>
1

> <r_epik_Ionization_Penalty>
0.00197066

> <r_epik_Ionization_Penalty_Charging>
0.00196223

> <r_epik_Ionization_Penalty_Neutral>
8.43107e-06

> <r_epik_State_Penalty>
0.00133866

> <r_epik_Charging_Adjusted_Penalty>
0.00330089

> <i_epik_Tot_Q>
1

> <i_epik_Tot_abs_Q>
1

> <r_epik_Metal_State_Penalty>
-0

> <b_epik_Metal_Only>
0

> <s_lp_Force_Field>
OPLS_2005

> <r_lp_Energy>
39.8871

> <b_lp_Chiralities_Consistent>
1

> <s_lp_Variant>
AV-unprocessed.smi:1406-12

> <Gold.Version>
5.8.1

> <Gold.Id.Protein>
6NUR|6NUR_protein|mol2

> <Gold.PLP.Fitness>
40.1659

> <Gold.PLP.PLP>
-31.9456

> <Gold.PLP.part.hbond>
-4.7244

> <Gold.PLP.part.metal>
0.0000

> <Gold.PLP.part.buried>
-0.7480

> <Gold.PLP.part.nonpolar>
-28.8072

> <Gold.PLP.part.repulsive>
0.3084

> <Gold.PLP.ligand.clash>
0.0000

> <Gold.PLP.ligand.torsion>
0.3107

> <Gold.PLP.Chemscore.Hbond>
2.9122

> <Gold.PLP.Chemscore.CHOScore>
0.0000

> <Gold.PLP.Chemscore.Metal>
0.0000

> <Gold.Chemscore.Hbonds>
donor molecule, donor type, donor heavy atom, donor atom, acceptor molecule, acceptor atom, score
      L1  H     9    41       P1  8029  1.25
      P1  H  7989  7998       L1     4  0.02
      P1  H  7997  8009       L1    17  0.57
      P1  H  8011  8017       L1     4  0.66

> <Gold.PLP.Chemscore.Internal.Correction>
0.1052

> <Gold.Rescore>
     Score         DG    S(hbond)    S(metal)    S(lipo)     H(rot)  DE(clash)    DE(int)     intcor
      9.21     -10.82       0.65        0.00      68.30       1.89       0.52       1.09       ----

> <Gold.Chemscore.Fitness>
9.2143

> <Gold.Chemscore.DG>
-10.8214

> <Gold.Chemscore.ZeroCoef>
-5.4800

> <Gold.Chemscore.Hbond>
0.6525

> <Gold.Chemscore.Metal>
0.0000

> <Gold.Chemscore.Lipo>
68.3026

> <Gold.Chemscore.Internal_Hbond>
0.0000

> <Gold.Chemscore.DEClash>
0.5186

> <Gold.Chemscore.DEInternal>
1.0885

> <Gold.Chemscore.Rot>
1.8865

> <Gold.Chemscore.Internal.Correction>
   9.000000E+99

> <Gold.Chemscore.Hbonds>
donor molecule, donor type, donor heavy atom, donor atom, acceptor molecule, acceptor atom, score
      L1  H     9    41       P1  8029  0.06
      P1  H  7997  8009       L1    17  0.04
      P1  H  8011  8017       L1     4  0.62

> <Gold.Chemscore.Hbond.Weighted>
-2.1795

> <Gold.Chemscore.Metal.Weighted>
-0.0000

> <Gold.Chemscore.Lipo.Weighted>
-7.9914

> <Gold.Chemscore.Internal_Hbond.Weighted>
0.0000

> <Gold.Chemscore.DEClash.Weighted>
0.5186

> <Gold.Chemscore.DEInternal.Weighted>
1.0885

> <Gold.Chemscore.Rot.Weighted>
4.8295

> <Gold.Chemscore.Internal.Correction.Weighted>
   9.000000E+99

> <Gold.Protein.RotatedTorsions>
[ 6907 6896 6895 6894 ] final  -24.42 input  -60.11 | X-H torsion
[ 7974 7965 7964 7962 ] final   32.07 input  175.53 | X-H torsion
[ 8008 7997 7996 7995 ] final -149.82 input   59.86 | X-H torsion
[ 10167 10162 10161 10158 ] final -106.33 input  -65.29 | X-H torsion
[ 10718 10713 10712 10709 ] final  175.91 input   66.30 | X-H torsion
[ 10763 10752 10751 10750 ] final -163.12 input  -60.55 | X-H torsion
[ 11005 11000 10999 10996 ] final -148.34 input  -57.11 | X-H torsion

> <Gold.Protein.ActiveResidues>
 VAL166  LYS551  ARG553  GLY616  TRP617  ASP618  TYR619  PRO620  LYS621  CYS622 
 ASP623  PHE694  ASN695  SER759  ASP760  ASP761  ALA762  ILE779  LEU786  VAL792 
 PHE793  MET794  SER795  GLU796  ALA797  LYS798  CYS799  TRP800  GLU811  SER814 

> <Gold.Protein.RotatedAtoms>
  151.1898  135.0397  159.8827 H   0  0  0  0  0  0  0  0  0  0  0  0  # atno 6907 bound_to 6896
  152.5440  134.0969  159.8311 H   0  0  0  0  0  0  0  0  0  0  0  0  # atno 6908 bound_to 6896
  151.1096  133.5135  159.2638 H   0  0  0  0  0  0  0  0  0  0  0  0  # atno 6909 bound_to 6896
  146.1510  139.6574  142.9099 H   0  0  0  0  0  0  0  0  0  0  0  0  # atno 7974 bound_to 7965
  155.6138  140.0674  157.2698 H   0  0  0  0  0  0  0  0  0  0  0  0  # atno 8008 bound_to 7997
  154.4247  140.1797  156.1347 H   0  0  0  0  0  0  0  0  0  0  0  0  # atno 8009 bound_to 7997
  156.0064  140.3331  155.6900 H   0  0  0  0  0  0  0  0  0  0  0  0  # atno 8010 bound_to 7997
  140.1889  143.3908  152.1222 H   0  0  0  0  0  0  0  0  0  0  0  0  # atno 10167 bound_to 10162
  156.9278  130.9961  151.2992 H   0  0  0  0  0  0  0  0  0  0  0  0  # atno 10718 bound_to 10713
  154.7152  135.3014  154.9135 H   0  0  0  0  0  0  0  0  0  0  0  0  # atno 10763 bound_to 10752
  154.0025  135.6705  153.4764 H   0  0  0  0  0  0  0  0  0  0  0  0  # atno 10764 bound_to 10752
  153.0787  135.5020  154.8373 H   0  0  0  0  0  0  0  0  0  0  0  0  # atno 10765 bound_to 10752
  140.7622  134.3285  157.5098 H   0  0  0  0  0  0  0  0  0  0  0  0  # atno 11005 bound_to 11000
  145.4824  141.0438  143.2638 LP  0  0  0  0  0  0  0  0  0  0  0  0  # atno 17320 bound_to 7965
  144.7904  139.6341  143.7116 LP  0  0  0  0  0  0  0  0  0  0  0  0  # atno 17321 bound_to 7965
  139.5264  144.7107  151.5213 LP  0  0  0  0  0  0  0  0  0  0  0  0  # atno 17342 bound_to 10162
  140.6469  143.8775  150.6746 LP  0  0  0  0  0  0  0  0  0  0  0  0  # atno 17343 bound_to 10162
  157.5866  130.8414  149.8598 LP  0  0  0  0  0  0  0  0  0  0  0  0  # atno 17370 bound_to 10713
  156.0461  130.3727  150.1315 LP  0  0  0  0  0  0  0  0  0  0  0  0  # atno 17371 bound_to 10713
  139.8769  134.9209  156.3262 LP  0  0  0  0  0  0  0  0  0  0  0  0  # atno 17394 bound_to 11000
  140.9652  133.7362  156.0457 LP  0  0  0  0  0  0  0  0  0  0  0  0  # atno 17395 bound_to 11000

$$$$
