AV-unprocessed.smi:76|AV-procd|sdf|767|dock7
  -GOLD-   2262017113D 1   1.00000     0.00000
 Structure written by MMmdl.
 55 58  0  0  0  0  0  0  0  0  1 V2000
  149.7890  141.5732  155.3648 C   0  0  0  0  0  0  0  0  0  0  0  0
  149.3711  141.4743  156.8457 C   0  0  2  0  0  0  0  0  0  0  0  0
  149.9639  142.6130  157.7026 C   0  0  0  0  0  0  0  0  0  0  0  0
  151.4734  142.4304  157.9741 C   0  0  1  0  0  0  0  0  0  0  0  0
  152.0485  143.5603  158.8518 C   0  0  0  0  0  0  0  0  0  0  0  0
  151.3686  143.6702  159.9934 F   0  0  0  0  0  0  0  0  0  0  0  0
  153.3271  143.3112  159.1345 F   0  0  0  0  0  0  0  0  0  0  0  0
  151.9850  144.7208  158.1989 F   0  0  0  0  0  0  0  0  0  0  0  0
  151.7115  141.0378  158.5907 C   0  0  0  0  0  0  0  0  0  0  0  0
  151.1220  139.9246  157.7110 C   0  0  0  0  0  0  0  0  0  0  0  0
  149.7049  140.1723  157.4351 N   0  0  0  0  0  0  0  0  0  0  0  0
  148.9548  139.1202  157.0153 C   0  0  0  0  0  0  0  0  0  0  0  0
  149.3514  137.8522  157.3071 N   0  0  0  0  0  0  0  0  0  0  0  0
  148.6303  136.8063  156.8949 C   0  0  0  0  0  0  0  0  0  0  0  0
  147.4976  136.8009  156.1909 N   0  0  0  0  0  0  0  0  0  0  0  0
  147.0916  138.0683  155.8948 C   0  0  0  0  0  0  0  0  0  0  0  0
  147.7522  139.2731  156.2681 C   0  0  0  0  0  0  0  0  0  0  0  0
  147.0273  140.3675  155.8115 N   0  0  0  0  0  0  0  0  0  0  0  0
  146.0027  139.8400  155.1997 C   0  0  0  0  0  0  0  0  0  0  0  0
  145.9704  138.4634  155.1848 N   0  0  0  0  0  0  0  0  0  0  0  0
  144.9451  137.6196  154.5869 C   0  0  0  0  0  0  0  0  0  0  0  0
  145.2376  137.1554  153.1243 C   0  0  0  0  0  0  0  0  0  0  0  0
  145.9996  138.2531  152.3354 C   0  0  0  0  0  0  0  0  0  0  0  0
  146.1811  137.9098  150.9764 O   0  0  0  0  0  0  0  0  0  0  0  0
  146.0790  135.8546  153.1384 C   0  0  0  0  0  0  0  0  0  0  0  0
  145.2755  134.6281  153.6102 C   0  0  0  0  0  0  0  0  0  0  0  0
  144.1173  134.4609  152.8021 O   0  0  0  0  0  0  0  0  0  0  0  0
  143.2300  135.5702  152.8664 C   0  0  0  0  0  0  0  0  0  0  0  0
  143.9376  136.8332  152.3445 C   0  0  0  0  0  0  0  0  0  0  0  0
  149.5201  142.5447  154.9497 H   0  0  0  0  0  0  0  0  0  0  0  0
  149.2878  140.8150  154.7624 H   0  0  0  0  0  0  0  0  0  0  0  0
  150.8624  141.4437  155.2286 H   0  0  0  0  0  0  0  0  0  0  0  0
  148.2905  141.6056  156.8728 H   0  0  0  0  0  0  0  0  0  0  0  0
  149.7777  143.5736  157.2216 H   0  0  0  0  0  0  0  0  0  0  0  0
  149.4322  142.6459  158.6544 H   0  0  0  0  0  0  0  0  0  0  0  0
  151.9979  142.4671  157.0186 H   0  0  0  0  0  0  0  0  0  0  0  0
  152.7784  140.8630  158.7310 H   0  0  0  0  0  0  0  0  0  0  0  0
  151.2586  140.9909  159.5817 H   0  0  0  0  0  0  0  0  0  0  0  0
  151.6729  139.8554  156.7723 H   0  0  0  0  0  0  0  0  0  0  0  0
  151.2414  138.9681  158.2223 H   0  0  0  0  0  0  0  0  0  0  0  0
  149.0162  135.8352  157.1683 H   0  0  0  0  0  0  0  0  0  0  0  0
  145.2373  140.4465  154.7380 H   0  0  0  0  0  0  0  0  0  0  0  0
  144.8089  136.7509  155.2320 H   0  0  0  0  0  0  0  0  0  0  0  0
  144.0045  138.1648  154.6466 H   0  0  0  0  0  0  0  0  0  0  0  0
  145.4520  139.1956  152.3665 H   0  0  0  0  0  0  0  0  0  0  0  0
  146.9749  138.4531  152.7796 H   0  0  0  0  0  0  0  0  0  0  0  0
  145.3856  138.1143  150.5077 H   0  0  0  0  0  0  0  0  0  0  0  0
  146.4510  135.6502  152.1333 H   0  0  0  0  0  0  0  0  0  0  0  0
  146.9625  135.9758  153.7662 H   0  0  0  0  0  0  0  0  0  0  0  0
  145.8890  133.7311  153.5260 H   0  0  0  0  0  0  0  0  0  0  0  0
  144.9937  134.7108  154.6601 H   0  0  0  0  0  0  0  0  0  0  0  0
  142.3591  135.3520  152.2481 H   0  0  0  0  0  0  0  0  0  0  0  0
  142.8630  135.7044  153.8842 H   0  0  0  0  0  0  0  0  0  0  0  0
  143.2523  137.6798  152.3489 H   0  0  0  0  0  0  0  0  0  0  0  0
  144.1796  136.6647  151.2941 H   0  0  0  0  0  0  0  0  0  0  0  0
  1  2  1  0  0  0  0
  1 30  1  0  0  0  0
  1 31  1  0  0  0  0
  1 32  1  0  0  0  0
  2 11  1  0  0  0  0
  2  3  1  0  0  0  0
  2 33  1  0  0  0  0
  3  4  1  0  0  0  0
  3 34  1  0  0  0  0
  3 35  1  0  0  0  0
  4  5  1  0  0  0  0
  4  9  1  0  0  0  0
  4 36  1  0  0  0  0
  5  6  1  0  0  0  0
  5  7  1  0  0  0  0
  5  8  1  0  0  0  0
  9 10  1  0  0  0  0
  9 37  1  0  0  0  0
  9 38  1  0  0  0  0
 10 11  1  0  0  0  0
 10 39  1  0  0  0  0
 10 40  1  0  0  0  0
 11 12  1  0  0  0  0
 12 17  1  0  0  0  0
 12 13  2  0  0  0  0
 13 14  1  0  0  0  0
 14 15  2  0  0  0  0
 14 41  1  0  0  0  0
 15 16  1  0  0  0  0
 16 20  1  0  0  0  0
 16 17  2  0  0  0  0
 17 18  1  0  0  0  0
 18 19  2  0  0  0  0
 19 20  1  0  0  0  0
 19 42  1  0  0  0  0
 20 21  1  0  0  0  0
 21 22  1  0  0  0  0
 21 43  1  0  0  0  0
 21 44  1  0  0  0  0
 22 29  1  0  0  0  0
 22 23  1  0  0  0  0
 22 25  1  0  0  0  0
 23 24  1  0  0  0  0
 23 45  1  0  0  0  0
 23 46  1  0  0  0  0
 24 47  1  0  0  0  0
 25 26  1  0  0  0  0
 25 48  1  0  0  0  0
 25 49  1  0  0  0  0
 26 27  1  0  0  0  0
 26 50  1  0  0  0  0
 26 51  1  0  0  0  0
 27 28  1  0  0  0  0
 28 29  1  0  0  0  0
 28 52  1  0  0  0  0
 28 53  1  0  0  0  0
 29 54  1  0  0  0  0
 29 55  1  0  0  0  0
M  END
> <s_m_source_file>
AV-unprocessed.smi

> <i_m_source_file_index>
76

> <i_lp_mmshare_version>
43012

> <i_f3d_flags>
0

> <s_epik_input>
W0NIM11bQ0BASF0xW0NIMl1bQ0BASF0oQyhGKShGKUYpW0NIMl1bQ0gyXU4xYyhuW2NIXW4yKWMoYzIzKW5bY0hdbjNbQ0gyXUM0KFtDSDJdW09IXSlbQ0gyXVtDSDJdT1tDSDJdW0NIMl00

> <s_epik_cmdline>
J2VwaWtfcHl0aG9uJywgJy1waCcsICc3LjAnLCAnLXRuJywgJzgnLCAnLW1hJywgJzIwMCcsICctbWV0YWxfYmluZGluZycsICctaW1hZScsICc8aW5maWxlLm1hZT4nLCAnLW9tYWUnLCAnPG91dGZpbGUubWFlPic=

> <r_lp_tautomer_probability>
1

> <r_epik_Ionization_Penalty>
0.00244097

> <r_epik_Ionization_Penalty_Charging>
0

> <r_epik_Ionization_Penalty_Neutral>
0.00244097

> <r_epik_State_Penalty>
0.00151846

> <r_epik_Charging_Adjusted_Penalty>
0.00151846

> <i_epik_Tot_Q>
0

> <i_epik_Tot_abs_Q>
0

> <r_epik_Metal_State_Penalty>
-0

> <b_epik_Metal_Only>
0

> <s_lp_Force_Field>
OPLS_2005

> <r_lp_Energy>
36.8654

> <b_lp_Chiralities_Consistent>
1

> <s_lp_Variant>
AV-unprocessed.smi:76-1

> <Gold.Version>
5.8.1

> <Gold.Id.Protein>
6NUR|6NUR_protein|mol2

> <Gold.PLP.Fitness>
44.8977

> <Gold.PLP.PLP>
-38.4263

> <Gold.PLP.part.hbond>
-3.0000

> <Gold.PLP.part.metal>
0.0000

> <Gold.PLP.part.buried>
-2.5793

> <Gold.PLP.part.nonpolar>
-33.2856

> <Gold.PLP.part.repulsive>
0.1436

> <Gold.PLP.ligand.clash>
0.0000

> <Gold.PLP.ligand.torsion>
1.3711

> <Gold.PLP.Chemscore.Hbond>
1.9913

> <Gold.PLP.Chemscore.CHOScore>
0.8924

> <Gold.PLP.Chemscore.Metal>
0.0000

> <Gold.Chemscore.Hbonds>
donor molecule, donor type, donor heavy atom, donor atom, acceptor molecule, acceptor atom, score
      L1  H    24    47       P1 10171  1.00
      P1  H  7954  7966       L1    24  0.44
      L1  C    19    42       P1 10175  0.48

> <Gold.PLP.Chemscore.Internal.Correction>
0.5626

> <Gold.Rescore>
     Score         DG    S(hbond)    S(metal)    S(lipo)     H(rot)  DE(clash)    DE(int)     intcor
     11.55     -14.24       1.78        0.00      78.12       2.47       0.16       2.53       ----

> <Gold.Chemscore.Fitness>
11.5509

> <Gold.Chemscore.DG>
-14.2358

> <Gold.Chemscore.ZeroCoef>
-5.4800

> <Gold.Chemscore.Hbond>
1.7753

> <Gold.Chemscore.Metal>
0.0000

> <Gold.Chemscore.Lipo>
78.1228

> <Gold.Chemscore.Internal_Hbond>
0.0000

> <Gold.Chemscore.DEClash>
0.1586

> <Gold.Chemscore.DEInternal>
2.5263

> <Gold.Chemscore.Rot>
2.4665

> <Gold.Chemscore.Internal.Correction>
   9.000000E+99

> <Gold.Chemscore.Hbonds>
donor molecule, donor type, donor heavy atom, donor atom, acceptor molecule, acceptor atom, score
      L1  H    24    47       P1 10171  1.00
      P1  H  7954  7966       L1    24  0.42

> <Gold.Chemscore.Hbond.Weighted>
-5.9296

> <Gold.Chemscore.Metal.Weighted>
-0.0000

> <Gold.Chemscore.Lipo.Weighted>
-9.1404

> <Gold.Chemscore.Internal_Hbond.Weighted>
0.0000

> <Gold.Chemscore.DEClash.Weighted>
0.1586

> <Gold.Chemscore.DEInternal.Weighted>
2.5263

> <Gold.Chemscore.Rot.Weighted>
6.3142

> <Gold.Chemscore.Internal.Correction.Weighted>
   9.000000E+99

> <Gold.Protein.RotatedTorsions>
[ 6907 6896 6895 6894 ] final  153.11 input  -60.11 | X-H torsion
[ 7974 7965 7964 7962 ] final  106.69 input  175.53 | X-H torsion
[ 8008 7997 7996 7995 ] final   32.23 input   59.86 | X-H torsion
[ 10167 10162 10161 10158 ] final   86.62 input  -65.29 | X-H torsion
[ 10718 10713 10712 10709 ] final  -78.62 input   66.30 | X-H torsion
[ 10763 10752 10751 10750 ] final -151.81 input  -60.55 | X-H torsion
[ 11005 11000 10999 10996 ] final -120.77 input  -57.11 | X-H torsion

> <Gold.Protein.ActiveResidues>
 VAL166  LYS551  ARG553  GLY616  TRP617  ASP618  TYR619  PRO620  LYS621  CYS622 
 ASP623  PHE694  ASN695  SER759  ASP760  ASP761  ALA762  ILE779  LEU786  VAL792 
 PHE793  MET794  SER795  GLU796  ALA797  LYS798  CYS799  TRP800  GLU811  SER814 

> <Gold.Protein.RotatedAtoms>
  152.0773  133.4135  159.4485 H   0  0  0  0  0  0  0  0  0  0  0  0  # atno 6907 bound_to 6896
  150.6862  134.3023  159.4720 H   0  0  0  0  0  0  0  0  0  0  0  0  # atno 6908 bound_to 6896
  152.0861  134.9438  160.0623 H   0  0  0  0  0  0  0  0  0  0  0  0  # atno 6909 bound_to 6896
  145.3033  139.2562  143.3802 H   0  0  0  0  0  0  0  0  0  0  0  0  # atno 7974 bound_to 7965
  155.1192  140.3246  155.4502 H   0  0  0  0  0  0  0  0  0  0  0  0  # atno 8008 bound_to 7997
  156.2668  140.2030  156.6262 H   0  0  0  0  0  0  0  0  0  0  0  0  # atno 8009 bound_to 7997
  154.6697  140.0538  157.0139 H   0  0  0  0  0  0  0  0  0  0  0  0  # atno 8010 bound_to 7997
  139.8856  144.6415  150.8794 H   0  0  0  0  0  0  0  0  0  0  0  0  # atno 10167 bound_to 10162
  156.0113  130.4523  150.3524 H   0  0  0  0  0  0  0  0  0  0  0  0  # atno 10718 bound_to 10713
  154.8034  135.3251  154.7493 H   0  0  0  0  0  0  0  0  0  0  0  0  # atno 10763 bound_to 10752
  153.8156  135.6892  153.4839 H   0  0  0  0  0  0  0  0  0  0  0  0  # atno 10764 bound_to 10752
  153.1764  135.4603  154.9915 H   0  0  0  0  0  0  0  0  0  0  0  0  # atno 10765 bound_to 10752
  141.0119  134.0252  157.3402 H   0  0  0  0  0  0  0  0  0  0  0  0  # atno 11005 bound_to 11000
  146.3144  140.3552  142.8660 LP  0  0  0  0  0  0  0  0  0  0  0  0  # atno 17320 bound_to 7965
  144.9075  140.7718  143.5828 LP  0  0  0  0  0  0  0  0  0  0  0  0  # atno 17321 bound_to 7965
  140.7736  143.3550  151.1938 LP  0  0  0  0  0  0  0  0  0  0  0  0  # atno 17342 bound_to 10162
  139.7156  143.9306  152.2965 LP  0  0  0  0  0  0  0  0  0  0  0  0  # atno 17343 bound_to 10162
  157.1616  131.0346  151.2838 LP  0  0  0  0  0  0  0  0  0  0  0  0  # atno 17370 bound_to 10713
  157.4306  130.7488  149.6987 LP  0  0  0  0  0  0  0  0  0  0  0  0  # atno 17371 bound_to 10713
  139.9094  135.0187  156.7629 LP  0  0  0  0  0  0  0  0  0  0  0  0  # atno 17394 bound_to 11000
  140.6719  133.9551  155.7861 LP  0  0  0  0  0  0  0  0  0  0  0  0  # atno 17395 bound_to 11000

$$$$
