AV-unprocessed.smi:833|AV-procd|sdf|3881|dock10
  -GOLD-   22720 1333D 1   1.00000     0.00000
 Structure written by MMmdl.
 39 40  0  0  0  0  0  0  0  0  1 V2000
  148.5012  139.7919  154.9088 C   0  0  0  0  0  0  0  0  0  0  0  0
  149.1821  138.4866  155.3419 C   0  0  1  0  0  0  0  0  0  0  0  0
  149.0503  137.5803  154.2660 O   0  0  0  0  0  0  0  0  0  0  0  0
  150.6792  138.6907  155.6520 C   0  0  0  0  0  0  0  0  0  0  0  0
  150.8843  139.5885  156.7834 N   0  0  0  0  0  0  0  0  0  0  0  0
  151.9664  139.5997  157.5732 C   0  0  0  0  0  0  0  0  0  0  0  0
  152.9232  138.8389  157.4290 O   0  0  0  0  0  0  0  0  0  0  0  0
  151.8524  140.5250  158.5400 N   0  0  0  0  0  0  0  0  0  0  0  0
  152.7606  140.7963  159.6017 C   0  0  0  0  0  0  0  0  0  0  0  0
  153.6377  139.7992  160.0941 C   0  0  0  0  0  0  0  0  0  0  0  0
  154.5671  140.1307  161.0947 C   0  0  0  0  0  0  0  0  0  0  0  0
  154.5990  141.4560  161.5584 C   0  0  0  0  0  0  0  0  0  0  0  0
  153.7808  142.4199  161.0907 N   0  0  0  0  0  0  0  0  0  0  0  0
  152.8682  142.1126  160.1359 C   0  0  0  0  0  0  0  0  0  0  0  0
  152.0262  143.1606  159.6971 N   0  0  0  0  0  0  0  0  0  0  0  0
  151.8191  144.2968  160.5908 C   0  0  0  0  0  0  0  0  0  0  0  0
  151.7303  145.5400  159.6994 C   0  0  0  0  0  0  0  0  0  0  0  0
  151.3628  144.9775  158.3298 C   0  0  0  0  0  0  0  0  0  0  0  0
  152.0961  143.6393  158.3206 C   0  0  0  0  0  0  0  0  0  0  0  0
  148.5400  140.5363  155.7044 H   0  0  0  0  0  0  0  0  0  0  0  0
  147.4507  139.6267  154.6662 H   0  0  0  0  0  0  0  0  0  0  0  0
  148.9834  140.2197  154.0291 H   0  0  0  0  0  0  0  0  0  0  0  0
  148.6609  138.0875  156.2133 H   0  0  0  0  0  0  0  0  0  0  0  0
  149.2927  138.0258  153.4677 H   0  0  0  0  0  0  0  0  0  0  0  0
  151.1979  137.7405  155.7941 H   0  0  0  0  0  0  0  0  0  0  0  0
  151.1624  139.1715  154.8010 H   0  0  0  0  0  0  0  0  0  0  0  0
  150.1459  140.2485  156.9788 H   0  0  0  0  0  0  0  0  0  0  0  0
  150.9686  141.0100  158.5925 H   0  0  0  0  0  0  0  0  0  0  0  0
  153.6280  138.7927  159.7041 H   0  0  0  0  0  0  0  0  0  0  0  0
  155.2479  139.3898  161.4868 H   0  0  0  0  0  0  0  0  0  0  0  0
  155.3038  141.7528  162.3208 H   0  0  0  0  0  0  0  0  0  0  0  0
  150.8791  144.1567  161.1247 H   0  0  0  0  0  0  0  0  0  0  0  0
  152.6173  144.3919  161.3284 H   0  0  0  0  0  0  0  0  0  0  0  0
  151.0123  146.2741  160.0659 H   0  0  0  0  0  0  0  0  0  0  0  0
  152.7069  146.0232  159.6456 H   0  0  0  0  0  0  0  0  0  0  0  0
  150.2858  144.8146  158.2703 H   0  0  0  0  0  0  0  0  0  0  0  0
  151.6554  145.6289  157.5060 H   0  0  0  0  0  0  0  0  0  0  0  0
  153.1318  143.7965  158.0170 H   0  0  0  0  0  0  0  0  0  0  0  0
  151.6392  142.9309  157.6291 H   0  0  0  0  0  0  0  0  0  0  0  0
  1  2  1  0  0  0  0
  1 20  1  0  0  0  0
  1 21  1  0  0  0  0
  1 22  1  0  0  0  0
  2  3  1  0  0  0  0
  2  4  1  0  0  0  0
  2 23  1  0  0  0  0
  3 24  1  0  0  0  0
  4  5  1  0  0  0  0
  4 25  1  0  0  0  0
  4 26  1  0  0  0  0
  5  6  1  0  0  0  0
  5 27  1  0  0  0  0
  6  7  2  0  0  0  0
  6  8  1  0  0  0  0
  8  9  1  0  0  0  0
  8 28  1  0  0  0  0
  9 14  1  0  0  0  0
  9 10  2  0  0  0  0
 10 11  1  0  0  0  0
 10 29  1  0  0  0  0
 11 12  2  0  0  0  0
 11 30  1  0  0  0  0
 12 13  1  0  0  0  0
 12 31  1  0  0  0  0
 13 14  2  0  0  0  0
 14 15  1  0  0  0  0
 15 19  1  0  0  0  0
 15 16  1  0  0  0  0
 16 17  1  0  0  0  0
 16 32  1  0  0  0  0
 16 33  1  0  0  0  0
 17 18  1  0  0  0  0
 17 34  1  0  0  0  0
 17 35  1  0  0  0  0
 18 19  1  0  0  0  0
 18 36  1  0  0  0  0
 18 37  1  0  0  0  0
 19 38  1  0  0  0  0
 19 39  1  0  0  0  0
M  END
> <s_m_source_file>
AV-unprocessed.smi

> <i_m_source_file_index>
833

> <i_lp_mmshare_version>
43012

> <i_f3d_flags>
0

> <s_epik_input>
W0NIM11bQ0BIXShbT0hdKVtDSDJdW05IXUMoPU8pW05IXWMxW2NIXVtjSF1bY0hdbmMxTjJbQ0gyXVtDSDJdW0NIMl1bQ0gyXTI=

> <s_epik_cmdline>
J2VwaWtfcHl0aG9uJywgJy1waCcsICc3LjAnLCAnLXRuJywgJzgnLCAnLW1hJywgJzIwMCcsICctbWV0YWxfYmluZGluZycsICctaW1hZScsICc8aW5maWxlLm1hZT4nLCAnLW9tYWUnLCAnPG91dGZpbGUubWFlPic=

> <r_lp_tautomer_probability>
1

> <r_epik_Ionization_Penalty>
0.0986749

> <r_epik_Ionization_Penalty_Charging>
0

> <r_epik_Ionization_Penalty_Neutral>
0.0986749

> <r_epik_State_Penalty>
0.0881977

> <r_epik_Charging_Adjusted_Penalty>
0.0881977

> <i_epik_Tot_Q>
0

> <i_epik_Tot_abs_Q>
0

> <r_epik_Metal_State_Penalty>
0.0755487

> <b_epik_Metal_Only>
0

> <s_lp_Force_Field>
OPLS_2005

> <r_lp_Energy>
30.9988

> <b_lp_Chiralities_Consistent>
1

> <s_lp_Variant>
AV-unprocessed.smi:833-2

> <Gold.Version>
5.8.1

> <Gold.Id.Protein>
6NUR|6NUR_protein|mol2

> <Gold.PLP.Fitness>
49.7760

> <Gold.PLP.PLP>
-44.8354

> <Gold.PLP.part.hbond>
-2.7967

> <Gold.PLP.part.metal>
0.0000

> <Gold.PLP.part.buried>
-4.7018

> <Gold.PLP.part.nonpolar>
-36.1754

> <Gold.PLP.part.repulsive>
0.2040

> <Gold.PLP.ligand.clash>
0.0000

> <Gold.PLP.ligand.torsion>
0.6942

> <Gold.PLP.Chemscore.Hbond>
2.0000

> <Gold.PLP.Chemscore.CHOScore>
0.0000

> <Gold.PLP.Chemscore.Metal>
0.0000

> <Gold.Chemscore.Hbonds>
donor molecule, donor type, donor heavy atom, donor atom, acceptor molecule, acceptor atom, score
      P1  H  7997  8009       L1     7  0.98

> <Gold.PLP.Chemscore.Internal.Correction>
0.3291

> <Gold.Rescore>
     Score         DG    S(hbond)    S(metal)    S(lipo)     H(rot)  DE(clash)    DE(int)     intcor
     15.59     -17.59       1.75        0.00      98.03       2.03       0.30       1.70       ----

> <Gold.Chemscore.Fitness>
15.5941

> <Gold.Chemscore.DG>
-17.5928

> <Gold.Chemscore.ZeroCoef>
-5.4800

> <Gold.Chemscore.Hbond>
1.7489

> <Gold.Chemscore.Metal>
0.0000

> <Gold.Chemscore.Lipo>
98.0322

> <Gold.Chemscore.Internal_Hbond>
0.0000

> <Gold.Chemscore.DEClash>
0.2984

> <Gold.Chemscore.DEInternal>
1.7003

> <Gold.Chemscore.Rot>
2.0306

> <Gold.Chemscore.Internal.Correction>
   9.000000E+99

> <Gold.Chemscore.Hbonds>
donor molecule, donor type, donor heavy atom, donor atom, acceptor molecule, acceptor atom, score
      L1  H     3    24       P1  7948  0.01
      P1  H  7997  8009       L1     7  0.46

> <Gold.Chemscore.Hbond.Weighted>
-5.8415

> <Gold.Chemscore.Metal.Weighted>
-0.0000

> <Gold.Chemscore.Lipo.Weighted>
-11.4698

> <Gold.Chemscore.Internal_Hbond.Weighted>
0.0000

> <Gold.Chemscore.DEClash.Weighted>
0.2984

> <Gold.Chemscore.DEInternal.Weighted>
1.7003

> <Gold.Chemscore.Rot.Weighted>
5.1984

> <Gold.Chemscore.Internal.Correction.Weighted>
   9.000000E+99

> <Gold.Protein.RotatedTorsions>
[ 6907 6896 6895 6894 ] final  -83.37 input  -60.11 | X-H torsion
[ 7974 7965 7964 7962 ] final   71.79 input  175.53 | X-H torsion
[ 8008 7997 7996 7995 ] final  168.03 input   59.86 | X-H torsion
[ 10167 10162 10161 10158 ] final   65.88 input  -65.29 | X-H torsion
[ 10718 10713 10712 10709 ] final  -45.01 input   66.30 | X-H torsion
[ 10763 10752 10751 10750 ] final   86.99 input  -60.55 | X-H torsion
[ 11005 11000 10999 10996 ] final -165.66 input  -57.11 | X-H torsion

> <Gold.Protein.ActiveResidues>
 VAL166  LYS551  ARG553  GLY616  TRP617  ASP618  TYR619  PRO620  LYS621  CYS622 
 ASP623  PHE694  ASN695  SER759  ASP760  ASP761  ALA762  ILE779  LEU786  VAL792 
 PHE793  MET794  SER795  GLU796  ALA797  LYS798  CYS799  TRP800  GLU811  SER814 

> <Gold.Protein.RotatedAtoms>
  150.6886  134.3522  159.4913 H   0  0  0  0  0  0  0  0  0  0  0  0  # atno 6907 bound_to 6896
  152.1361  134.9095  160.0565 H   0  0  0  0  0  0  0  0  0  0  0  0  # atno 6908 bound_to 6896
  152.0246  133.3878  159.4309 H   0  0  0  0  0  0  0  0  0  0  0  0  # atno 6909 bound_to 6896
  145.7615  139.2802  143.1373 H   0  0  0  0  0  0  0  0  0  0  0  0  # atno 7974 bound_to 7965
  156.1582  140.1601  156.8657 H   0  0  0  0  0  0  0  0  0  0  0  0  # atno 8008 bound_to 7997
  154.5135  140.0795  156.8072 H   0  0  0  0  0  0  0  0  0  0  0  0  # atno 8009 bound_to 7997
  155.3760  140.3403  155.4247 H   0  0  0  0  0  0  0  0  0  0  0  0  # atno 8010 bound_to 7997
  140.1064  144.4857  150.7005 H   0  0  0  0  0  0  0  0  0  0  0  0  # atno 10167 bound_to 10162
  156.2327  130.4174  149.8856 H   0  0  0  0  0  0  0  0  0  0  0  0  # atno 10718 bound_to 10713
  153.1624  135.4560  154.9790 H   0  0  0  0  0  0  0  0  0  0  0  0  # atno 10763 bound_to 10752
  154.7907  135.3219  154.7786 H   0  0  0  0  0  0  0  0  0  0  0  0  # atno 10764 bound_to 10752
  153.8274  135.6941  153.4873 H   0  0  0  0  0  0  0  0  0  0  0  0  # atno 10765 bound_to 10752
  140.5732  134.5217  157.5165 H   0  0  0  0  0  0  0  0  0  0  0  0  # atno 11005 bound_to 11000
  146.0259  140.8304  142.9900 LP  0  0  0  0  0  0  0  0  0  0  0  0  # atno 17320 bound_to 7965
  144.6829  140.2698  143.7307 LP  0  0  0  0  0  0  0  0  0  0  0  0  # atno 17321 bound_to 7965
  140.6949  143.2398  151.5027 LP  0  0  0  0  0  0  0  0  0  0  0  0  # atno 17342 bound_to 10162
  139.5643  144.2081  152.1740 LP  0  0  0  0  0  0  0  0  0  0  0  0  # atno 17343 bound_to 10162
  156.6464  130.8726  151.3523 LP  0  0  0  0  0  0  0  0  0  0  0  0  # atno 17370 bound_to 10713
  157.7140  130.9475  150.1189 LP  0  0  0  0  0  0  0  0  0  0  0  0  # atno 17371 bound_to 10713
  139.9352  134.7889  156.0822 LP  0  0  0  0  0  0  0  0  0  0  0  0  # atno 17394 bound_to 11000
  141.1043  133.6666  156.2827 LP  0  0  0  0  0  0  0  0  0  0  0  0  # atno 17395 bound_to 11000

$$$$
