AV-unprocessed.smi:1539|AV-procd|sdf|6197|dock10
  -GOLD-   22720 6363D 1   1.00000     0.00000
 Structure written by MMmdl.
 41 42  0  0  0  0  0  0  0  0  1 V2000
  147.9015  132.6199  162.1566 C   0  0  0  0  0  0  0  0  0  0  0  0
  146.5550  133.3398  162.0498 C   0  0  0  0  0  0  0  0  0  0  0  0
  145.5420  132.6568  161.8962 O   0  0  0  0  0  0  0  0  0  0  0  0
  146.5196  134.6937  162.1141 N   0  0  0  0  0  0  0  0  0  0  0  0
  145.2622  135.4388  161.9521 C   0  0  0  0  0  0  0  0  0  0  0  0
  144.9572  135.7126  160.4637 C   0  0  0  0  0  0  0  0  0  0  0  0
  146.0700  136.5038  159.7406 C   0  0  0  0  0  0  0  0  0  0  0  0
  147.3483  135.7666  159.7394 N   0  0  0  0  0  0  0  0  0  0  0  0
  147.6974  134.8148  158.8343 C   0  0  0  0  0  0  0  0  0  0  0  0
  148.8337  134.3466  158.7489 O   0  0  0  0  0  0  0  0  0  0  0  0
  146.6936  134.3964  158.0439 N   0  0  0  0  0  0  0  0  0  0  0  0
  146.8070  133.3686  157.0164 C   0  0  0  0  0  0  0  0  0  0  0  0
  146.7032  133.9720  155.6067 C   0  0  0  0  0  0  0  0  0  0  0  0
  146.7232  132.9439  154.5866 N   0  0  0  0  0  0  0  0  0  0  0  0
  147.6332  132.8157  153.5458 C   0  0  0  0  0  0  0  0  0  0  0  0
  147.2615  131.6971  152.8347 C   0  0  0  0  0  0  0  0  0  0  0  0
  146.1334  131.1241  153.4177 N   0  0  0  0  0  0  0  0  0  0  0  0
  145.8731  131.9173  154.4492 C   0  0  0  0  0  0  0  0  0  0  0  0
  148.2212  136.1056  160.8786 C   0  0  0  0  0  0  0  0  0  0  0  0
  147.7113  135.5521  162.2372 C   0  0  0  0  0  0  0  0  0  0  0  0
  148.6131  133.0097  161.4288 H   0  0  0  0  0  0  0  0  0  0  0  0
  147.7822  131.5532  161.9640 H   0  0  0  0  0  0  0  0  0  0  0  0
  148.3197  132.7342  163.1568 H   0  0  0  0  0  0  0  0  0  0  0  0
  144.4309  134.8966  162.4062 H   0  0  0  0  0  0  0  0  0  0  0  0
  145.3081  136.3855  162.4912 H   0  0  0  0  0  0  0  0  0  0  0  0
  144.7767  134.7690  159.9477 H   0  0  0  0  0  0  0  0  0  0  0  0
  144.0237  136.2715  160.3939 H   0  0  0  0  0  0  0  0  0  0  0  0
  145.7586  136.7498  158.7244 H   0  0  0  0  0  0  0  0  0  0  0  0
  146.1953  137.4697  160.2314 H   0  0  0  0  0  0  0  0  0  0  0  0
  145.7837  134.8141  158.1748 H   0  0  0  0  0  0  0  0  0  0  0  0
  147.7453  132.8232  157.1330 H   0  0  0  0  0  0  0  0  0  0  0  0
  146.0069  132.6443  157.1723 H   0  0  0  0  0  0  0  0  0  0  0  0
  145.7819  134.5471  155.5032 H   0  0  0  0  0  0  0  0  0  0  0  0
  147.5295  134.6590  155.4184 H   0  0  0  0  0  0  0  0  0  0  0  0
  148.4468  133.5115  153.4021 H   0  0  0  0  0  0  0  0  0  0  0  0
  147.7161  131.2634  151.9561 H   0  0  0  0  0  0  0  0  0  0  0  0
  145.0454  131.7460  155.1221 H   0  0  0  0  0  0  0  0  0  0  0  0
  149.2419  135.7551  160.7196 H   0  0  0  0  0  0  0  0  0  0  0  0
  148.3212  137.1900  160.9415 H   0  0  0  0  0  0  0  0  0  0  0  0
  147.4734  136.3934  162.8895 H   0  0  0  0  0  0  0  0  0  0  0  0
  148.5247  135.0485  162.7590 H   0  0  0  0  0  0  0  0  0  0  0  0
  1  2  1  0  0  0  0
  1 21  1  0  0  0  0
  1 22  1  0  0  0  0
  1 23  1  0  0  0  0
  2  3  2  0  0  0  0
  2  4  1  0  0  0  0
  4 20  1  0  0  0  0
  4  5  1  0  0  0  0
  5  6  1  0  0  0  0
  5 24  1  0  0  0  0
  5 25  1  0  0  0  0
  6  7  1  0  0  0  0
  6 26  1  0  0  0  0
  6 27  1  0  0  0  0
  7  8  1  0  0  0  0
  7 28  1  0  0  0  0
  7 29  1  0  0  0  0
  8  9  1  0  0  0  0
  8 19  1  0  0  0  0
  9 10  2  0  0  0  0
  9 11  1  0  0  0  0
 11 12  1  0  0  0  0
 11 30  1  0  0  0  0
 12 13  1  0  0  0  0
 12 31  1  0  0  0  0
 12 32  1  0  0  0  0
 13 14  1  0  0  0  0
 13 33  1  0  0  0  0
 13 34  1  0  0  0  0
 14 18  1  0  0  0  0
 14 15  1  0  0  0  0
 15 16  2  0  0  0  0
 15 35  1  0  0  0  0
 16 17  1  0  0  0  0
 16 36  1  0  0  0  0
 17 18  2  0  0  0  0
 18 37  1  0  0  0  0
 19 20  1  0  0  0  0
 19 38  1  0  0  0  0
 19 39  1  0  0  0  0
 20 40  1  0  0  0  0
 20 41  1  0  0  0  0
M  END
> <s_m_source_file>
AV-unprocessed.smi

> <i_m_source_file_index>
1539

> <i_lp_mmshare_version>
43012

> <i_f3d_flags>
0

> <s_epik_input>
W0NIM11DKD1PKU4xW0NIMl1bQ0gyXVtDSDJdTihbQ0gyXVtDSDJdMSlDKD1PKVtOSF1bQ0gyXVtDSDJdbjJbY0hdW2NIXW5bY0hdMg==

> <s_epik_cmdline>
J2VwaWtfcHl0aG9uJywgJy1waCcsICc3LjAnLCAnLXRuJywgJzgnLCAnLW1hJywgJzIwMCcsICctbWV0YWxfYmluZGluZycsICctaW1hZScsICc8aW5maWxlLm1hZT4nLCAnLW9tYWUnLCAnPG91dGZpbGUubWFlPic=

> <r_lp_tautomer_probability>
1

> <r_epik_Ionization_Penalty>
0.624284

> <r_epik_Ionization_Penalty_Charging>
0.624238

> <r_epik_Ionization_Penalty_Neutral>
4.66445e-05

> <r_epik_State_Penalty>
0.64053

> <r_epik_Charging_Adjusted_Penalty>
1.26477

> <i_epik_Tot_Q>
0

> <i_epik_Tot_abs_Q>
0

> <r_epik_Metal_State_Penalty>
0.307534

> <b_epik_Metal_Only>
0

> <s_lp_Force_Field>
OPLS_2005

> <r_lp_Energy>
41.7081

> <b_lp_Chiralities_Consistent>
1

> <s_lp_Variant>
AV-unprocessed.smi:1539-2

> <Gold.Version>
5.8.1

> <Gold.Id.Protein>
6NUR|6NUR_protein|mol2

> <Gold.PLP.Fitness>
37.1016

> <Gold.PLP.PLP>
-25.3430

> <Gold.PLP.part.hbond>
-1.0000

> <Gold.PLP.part.metal>
0.0000

> <Gold.PLP.part.buried>
-3.0322

> <Gold.PLP.part.nonpolar>
-21.7982

> <Gold.PLP.part.repulsive>
0.2051

> <Gold.PLP.ligand.clash>
0.0000

> <Gold.PLP.ligand.torsion>
0.1280

> <Gold.PLP.Chemscore.Hbond>
1.0000

> <Gold.PLP.Chemscore.CHOScore>
3.0000

> <Gold.PLP.Chemscore.Metal>
0.0000

> <Gold.Chemscore.Hbonds>
donor molecule, donor type, donor heavy atom, donor atom, acceptor molecule, acceptor atom, score
      P1  H  6896  6909       L1    10  1.00
      L1  C    16    36       P1 10747  1.00
      L1  C    18    37       P1 10957  0.87

> <Gold.PLP.Chemscore.Internal.Correction>
0.0147

> <Gold.Rescore>
     Score         DG    S(hbond)    S(metal)    S(lipo)     H(rot)  DE(clash)    DE(int)     intcor
     10.10     -10.18       0.98        0.00      48.19       1.65       0.02       0.06       ----

> <Gold.Chemscore.Fitness>
10.0950

> <Gold.Chemscore.DG>
-10.1806

> <Gold.Chemscore.ZeroCoef>
-5.4800

> <Gold.Chemscore.Hbond>
0.9850

> <Gold.Chemscore.Metal>
0.0000

> <Gold.Chemscore.Lipo>
48.1944

> <Gold.Chemscore.Internal_Hbond>
0.0000

> <Gold.Chemscore.DEClash>
0.0234

> <Gold.Chemscore.DEInternal>
0.0621

> <Gold.Chemscore.Rot>
1.6516

> <Gold.Chemscore.Internal.Correction>
   9.000000E+99

> <Gold.Chemscore.Hbonds>
donor molecule, donor type, donor heavy atom, donor atom, acceptor molecule, acceptor atom, score
      P1  H  6896  6909       L1    10  0.98

> <Gold.Chemscore.Hbond.Weighted>
-3.2899

> <Gold.Chemscore.Metal.Weighted>
-0.0000

> <Gold.Chemscore.Lipo.Weighted>
-5.6387

> <Gold.Chemscore.Internal_Hbond.Weighted>
0.0000

> <Gold.Chemscore.DEClash.Weighted>
0.0234

> <Gold.Chemscore.DEInternal.Weighted>
0.0621

> <Gold.Chemscore.Rot.Weighted>
4.2280

> <Gold.Chemscore.Internal.Correction.Weighted>
   9.000000E+99

> <Gold.Protein.RotatedTorsions>
[ 6907 6896 6895 6894 ] final   15.62 input  -60.11 | X-H torsion
[ 7974 7965 7964 7962 ] final   69.36 input  175.53 | X-H torsion
[ 8008 7997 7996 7995 ] final  -26.08 input   59.86 | X-H torsion
[ 10167 10162 10161 10158 ] final    4.02 input  -65.29 | X-H torsion
[ 10718 10713 10712 10709 ] final   33.81 input   66.30 | X-H torsion
[ 10763 10752 10751 10750 ] final   17.89 input  -60.55 | X-H torsion
[ 11005 11000 10999 10996 ] final  130.43 input  -57.11 | X-H torsion

> <Gold.Protein.ActiveResidues>
 VAL166  LYS551  ARG553  GLY616  TRP617  ASP618  TYR619  PRO620  LYS621  CYS622 
 ASP623  PHE694  ASN695  SER759  ASP760  ASP761  ALA762  ILE779  LEU786  VAL792 
 PHE793  MET794  SER795  GLU796  ALA797  LYS798  CYS799  TRP800  GLU811  SER814 

> <Gold.Protein.RotatedAtoms>
  151.8210  135.0651  160.0424 H   0  0  0  0  0  0  0  0  0  0  0  0  # atno 6907 bound_to 6896
  152.2951  133.5595  159.5590 H   0  0  0  0  0  0  0  0  0  0  0  0  # atno 6908 bound_to 6896
  150.7247  134.0289  159.3769 H   0  0  0  0  0  0  0  0  0  0  0  0  # atno 6909 bound_to 6896
  145.7914  139.2936  143.1208 H   0  0  0  0  0  0  0  0  0  0  0  0  # atno 7974 bound_to 7965
  154.4443  140.1909  156.0719 H   0  0  0  0  0  0  0  0  0  0  0  0  # atno 8008 bound_to 7997
  156.0504  140.3309  155.7318 H   0  0  0  0  0  0  0  0  0  0  0  0  # atno 8009 bound_to 7997
  155.5565  140.0599  157.2829 H   0  0  0  0  0  0  0  0  0  0  0  0  # atno 8010 bound_to 7997
  140.6556  143.7435  150.7649 H   0  0  0  0  0  0  0  0  0  0  0  0  # atno 10167 bound_to 10162
  157.3025  130.7358  149.6675 H   0  0  0  0  0  0  0  0  0  0  0  0  # atno 10718 bound_to 10713
  153.1298  135.6737  153.9197 H   0  0  0  0  0  0  0  0  0  0  0  0  # atno 10763 bound_to 10752
  153.8687  135.3072  155.3442 H   0  0  0  0  0  0  0  0  0  0  0  0  # atno 10764 bound_to 10752
  154.7697  135.4945  153.9706 H   0  0  0  0  0  0  0  0  0  0  0  0  # atno 10765 bound_to 10752
  139.9671  134.9587  156.9292 H   0  0  0  0  0  0  0  0  0  0  0  0  # atno 11005 bound_to 11000
  145.9973  140.8551  143.0036 LP  0  0  0  0  0  0  0  0  0  0  0  0  # atno 17320 bound_to 7965
  144.6781  140.2301  143.7356 LP  0  0  0  0  0  0  0  0  0  0  0  0  # atno 17321 bound_to 7965
  140.1094  143.4713  152.2379 LP  0  0  0  0  0  0  0  0  0  0  0  0  # atno 17342 bound_to 10162
  139.5778  144.7496  151.3718 LP  0  0  0  0  0  0  0  0  0  0  0  0  # atno 17343 bound_to 10162
  155.9672  130.4275  150.4749 LP  0  0  0  0  0  0  0  0  0  0  0  0  # atno 17370 bound_to 10713
  157.2733  131.0591  151.2246 LP  0  0  0  0  0  0  0  0  0  0  0  0  # atno 17371 bound_to 10713
  140.5372  134.0755  155.7331 LP  0  0  0  0  0  0  0  0  0  0  0  0  # atno 17394 bound_to 11000
  141.1351  133.9235  157.2451 LP  0  0  0  0  0  0  0  0  0  0  0  0  # atno 17395 bound_to 11000

$$$$
