AV-unprocessed.smi:2560|AV-procd|sdf|10038|dock8
  -GOLD-   2272014 83D 1   1.00000     0.00000
 Structure written by MMmdl.
 31 32  0  0  0  0  0  0  0  0  1 V2000
  145.7986  143.3997  153.1510 C   0  0  0  0  0  0  0  0  0  0  0  0
  147.2020  142.3431  153.6032 S   0  0  0  0  0  0  0  0  0  0  0  0
  146.5423  140.7189  153.7957 C   0  0  0  0  0  0  0  0  0  0  0  0
  145.5503  140.4807  154.6728 N   0  0  0  0  0  0  0  0  0  0  0  0
  145.1573  138.8374  154.6075 S   0  0  0  0  0  0  0  0  0  0  0  0
  146.3673  138.5650  153.3882 C   0  0  0  0  0  0  0  0  0  0  0  0
  146.6072  137.2801  152.8198 N   0  0  0  0  0  0  0  0  0  0  0  0
  145.8322  136.1755  152.7623 C   0  0  0  0  0  0  0  0  0  0  0  0
  144.7051  136.1640  153.2540 O   0  0  0  0  0  0  0  0  0  0  0  0
  146.3667  135.1098  152.1434 N   0  0  0  0  0  0  0  0  0  0  0  0
  145.7231  133.8162  151.9503 C   0  0  2  0  0  0  0  0  0  0  0  0
  146.5576  132.9900  150.9839 C   0  0  0  0  0  0  0  0  0  0  0  0
  146.0424  132.2831  149.9635 C   0  0  0  0  0  0  0  0  0  0  0  0
  144.5574  132.2099  149.6628 C   0  0  0  0  0  0  0  0  0  0  0  0
  143.7046  132.7029  150.8446 C   0  0  0  0  0  0  0  0  0  0  0  0
  144.2698  133.9961  151.4515 C   0  0  0  0  0  0  0  0  0  0  0  0
  147.0139  139.6873  153.0738 N   0  0  0  0  0  0  0  0  0  0  0  0
  146.1314  144.4280  153.0123 H   0  0  0  0  0  0  0  0  0  0  0  0
  145.0413  143.3840  153.9350 H   0  0  0  0  0  0  0  0  0  0  0  0
  145.3446  143.0548  152.2218 H   0  0  0  0  0  0  0  0  0  0  0  0
  147.5125  137.1787  152.3844 H   0  0  0  0  0  0  0  0  0  0  0  0
  147.2996  135.2098  151.7690 H   0  0  0  0  0  0  0  0  0  0  0  0
  145.7189  133.2745  152.8975 H   0  0  0  0  0  0  0  0  0  0  0  0
  147.6264  132.9891  151.1421 H   0  0  0  0  0  0  0  0  0  0  0  0
  146.7000  131.7385  149.3022 H   0  0  0  0  0  0  0  0  0  0  0  0
  144.3610  132.8135  148.7763 H   0  0  0  0  0  0  0  0  0  0  0  0
  144.2901  131.1824  149.4150 H   0  0  0  0  0  0  0  0  0  0  0  0
  142.6744  132.8542  150.5218 H   0  0  0  0  0  0  0  0  0  0  0  0
  143.6754  131.9324  151.6163 H   0  0  0  0  0  0  0  0  0  0  0  0
  143.6323  134.3351  152.2687 H   0  0  0  0  0  0  0  0  0  0  0  0
  144.2349  134.7787  150.6918 H   0  0  0  0  0  0  0  0  0  0  0  0
  1  2  1  0  0  0  0
  1 18  1  0  0  0  0
  1 19  1  0  0  0  0
  1 20  1  0  0  0  0
  2  3  1  0  0  0  0
  3 17  1  0  0  0  0
  3  4  2  0  0  0  0
  4  5  1  0  0  0  0
  5  6  1  0  0  0  0
  6  7  1  0  0  0  0
  6 17  2  0  0  0  0
  7  8  1  0  0  0  0
  7 21  1  0  0  0  0
  8  9  2  0  0  0  0
  8 10  1  0  0  0  0
 10 11  1  0  0  0  0
 10 22  1  0  0  0  0
 11 16  1  0  0  0  0
 11 12  1  0  0  0  0
 11 23  1  0  0  0  0
 12 13  2  0  0  0  0
 12 24  1  0  0  0  0
 13 14  1  0  0  0  0
 13 25  1  0  0  0  0
 14 15  1  0  0  0  0
 14 26  1  0  0  0  0
 14 27  1  0  0  0  0
 15 16  1  0  0  0  0
 15 28  1  0  0  0  0
 15 29  1  0  0  0  0
 16 30  1  0  0  0  0
 16 31  1  0  0  0  0
M  END
> <s_m_source_file>
AV-unprocessed.smi

> <i_m_source_file_index>
2560

> <i_lp_mmshare_version>
43012

> <i_f3d_flags>
0

> <s_epik_input>
W0NIM11TYzFuc2MobjEpW05IXUMoPU8pW05IXVtDQEBIXTJbQ0hdPVtDSF1bQ0gyXVtDSDJdW0NIMl0y

> <s_epik_cmdline>
J2VwaWtfcHl0aG9uJywgJy1waCcsICc3LjAnLCAnLXRuJywgJzgnLCAnLW1hJywgJzIwMCcsICctbWV0YWxfYmluZGluZycsICctaW1hZScsICc8aW5maWxlLm1hZT4nLCAnLW9tYWUnLCAnPG91dGZpbGUubWFlPic=

> <r_lp_tautomer_probability>
1

> <r_epik_Ionization_Penalty>
2.65559e-05

> <r_epik_Ionization_Penalty_Charging>
0

> <r_epik_Ionization_Penalty_Neutral>
2.65559e-05

> <r_epik_State_Penalty>
-0

> <r_epik_Charging_Adjusted_Penalty>
0

> <i_epik_Tot_Q>
0

> <i_epik_Tot_abs_Q>
0

> <r_epik_Metal_State_Penalty>
-0

> <b_epik_Metal_Only>
0

> <s_lp_Force_Field>
OPLS_2005

> <r_lp_Energy>
8.21818

> <b_lp_Chiralities_Consistent>
1

> <s_lp_Variant>
AV-unprocessed.smi:2560-1

> <Gold.Version>
5.8.1

> <Gold.Id.Protein>
6NUR|6NUR_protein|mol2

> <Gold.PLP.Fitness>
35.5452

> <Gold.PLP.PLP>
-30.2296

> <Gold.PLP.part.hbond>
-2.0000

> <Gold.PLP.part.metal>
0.0000

> <Gold.PLP.part.buried>
-5.3942

> <Gold.PLP.part.nonpolar>
-23.4379

> <Gold.PLP.part.repulsive>
0.3913

> <Gold.PLP.ligand.clash>
0.0000

> <Gold.PLP.ligand.torsion>
0.2374

> <Gold.PLP.Chemscore.Hbond>
1.9280

> <Gold.PLP.Chemscore.CHOScore>
0.0000

> <Gold.PLP.Chemscore.Metal>
0.0000

> <Gold.Chemscore.Hbonds>
donor molecule, donor type, donor heavy atom, donor atom, acceptor molecule, acceptor atom, score
      L1  H     7    21       P1  7948  1.00
      L1  H    10    22       P1  7948  0.94

> <Gold.PLP.Chemscore.Internal.Correction>
0.0065

> <Gold.Rescore>
     Score         DG    S(hbond)    S(metal)    S(lipo)     H(rot)  DE(clash)    DE(int)     intcor
     15.97     -16.27       1.91        0.00      65.04       1.25       0.06       0.24       ----

> <Gold.Chemscore.Fitness>
15.9690

> <Gold.Chemscore.DG>
-16.2707

> <Gold.Chemscore.ZeroCoef>
-5.4800

> <Gold.Chemscore.Hbond>
1.9122

> <Gold.Chemscore.Metal>
0.0000

> <Gold.Chemscore.Lipo>
65.0432

> <Gold.Chemscore.Internal_Hbond>
0.0000

> <Gold.Chemscore.DEClash>
0.0571

> <Gold.Chemscore.DEInternal>
0.2446

> <Gold.Chemscore.Rot>
1.2524

> <Gold.Chemscore.Internal.Correction>
   9.000000E+99

> <Gold.Chemscore.Hbonds>
donor molecule, donor type, donor heavy atom, donor atom, acceptor molecule, acceptor atom, score
      L1  H     7    21       P1  7948  0.98
      L1  H    10    22       P1  7948  0.87

> <Gold.Chemscore.Hbond.Weighted>
-6.3868

> <Gold.Chemscore.Metal.Weighted>
-0.0000

> <Gold.Chemscore.Lipo.Weighted>
-7.6101

> <Gold.Chemscore.Internal_Hbond.Weighted>
0.0000

> <Gold.Chemscore.DEClash.Weighted>
0.0571

> <Gold.Chemscore.DEInternal.Weighted>
0.2446

> <Gold.Chemscore.Rot.Weighted>
3.2062

> <Gold.Chemscore.Internal.Correction.Weighted>
   9.000000E+99

> <Gold.Protein.RotatedTorsions>
[ 6907 6896 6895 6894 ] final  127.53 input  -60.11 | X-H torsion
[ 7974 7965 7964 7962 ] final  161.77 input  175.53 | X-H torsion
[ 8008 7997 7996 7995 ] final    5.79 input   59.86 | X-H torsion
[ 10167 10162 10161 10158 ] final -142.37 input  -65.29 | X-H torsion
[ 10718 10713 10712 10709 ] final   22.72 input   66.30 | X-H torsion
[ 10763 10752 10751 10750 ] final   25.06 input  -60.55 | X-H torsion
[ 11005 11000 10999 10996 ] final  122.31 input  -57.11 | X-H torsion

> <Gold.Protein.ActiveResidues>
 VAL166  LYS551  ARG553  GLY616  TRP617  ASP618  TYR619  PRO620  LYS621  CYS622 
 ASP623  PHE694  ASN695  SER759  ASP760  ASP761  ALA762  ILE779  LEU786  VAL792 
 PHE793  MET794  SER795  GLU796  ALA797  LYS798  CYS799  TRP800  GLU811  SER814 

> <Gold.Protein.RotatedAtoms>
  152.3804  133.6538  159.6156 H   0  0  0  0  0  0  0  0  0  0  0  0  # atno 6907 bound_to 6896
  150.7736  133.9124  159.3382 H   0  0  0  0  0  0  0  0  0  0  0  0  # atno 6908 bound_to 6896
  151.6930  135.0944  160.0288 H   0  0  0  0  0  0  0  0  0  0  0  0  # atno 6909 bound_to 6896
  144.7669  139.7945  143.6311 H   0  0  0  0  0  0  0  0  0  0  0  0  # atno 7974 bound_to 7965
  154.7328  140.2734  155.6441 H   0  0  0  0  0  0  0  0  0  0  0  0  # atno 8008 bound_to 7997
  156.2854  140.2712  156.1958 H   0  0  0  0  0  0  0  0  0  0  0  0  # atno 8009 bound_to 7997
  155.0360  140.0371  157.2481 H   0  0  0  0  0  0  0  0  0  0  0  0  # atno 8010 bound_to 7997
  139.8095  143.7722  152.2663 H   0  0  0  0  0  0  0  0  0  0  0  0  # atno 10167 bound_to 10162
  157.1562  130.6697  149.6028 H   0  0  0  0  0  0  0  0  0  0  0  0  # atno 10718 bound_to 10713
  153.0718  135.6591  154.0230 H   0  0  0  0  0  0  0  0  0  0  0  0  # atno 10763 bound_to 10752
  153.9874  135.2949  155.3416 H   0  0  0  0  0  0  0  0  0  0  0  0  # atno 10764 bound_to 10752
  154.7095  135.5211  153.8715 H   0  0  0  0  0  0  0  0  0  0  0  0  # atno 10765 bound_to 10752
  139.9263  134.9641  156.8090 H   0  0  0  0  0  0  0  0  0  0  0  0  # atno 11005 bound_to 11000
  146.1784  139.4966  142.9882 LP  0  0  0  0  0  0  0  0  0  0  0  0  # atno 17320 bound_to 7965
  145.6441  141.0278  143.1795 LP  0  0  0  0  0  0  0  0  0  0  0  0  # atno 17321 bound_to 7965
  139.7866  144.7425  151.0013 LP  0  0  0  0  0  0  0  0  0  0  0  0  # atno 17342 bound_to 10162
  140.7818  143.4485  151.0447 LP  0  0  0  0  0  0  0  0  0  0  0  0  # atno 17343 bound_to 10162
  155.9761  130.4727  150.6509 LP  0  0  0  0  0  0  0  0  0  0  0  0  # atno 17370 bound_to 10713
  157.4174  131.0832  151.1163 LP  0  0  0  0  0  0  0  0  0  0  0  0  # atno 17371 bound_to 10713
  140.6327  133.9890  155.7670 LP  0  0  0  0  0  0  0  0  0  0  0  0  # atno 17394 bound_to 11000
  141.0822  134.0044  157.3368 LP  0  0  0  0  0  0  0  0  0  0  0  0  # atno 17395 bound_to 11000

$$$$
