AV-unprocessed.smi:2212|AV-procd|sdf|8953|dock8
  -GOLD-   2272012173D 1   1.00000     0.00000
 Structure written by MMmdl.
 31 32  0  0  0  0  0  0  0  0  1 V2000
  153.3051  142.1165  160.2002 C   0  0  0  0  0  0  0  0  0  0  0  0
  153.2972  143.4072  159.6042 O   0  0  0  0  0  0  0  0  0  0  0  0
  152.0919  143.7807  158.9353 C   0  0  0  0  0  0  0  0  0  0  0  0
  151.7767  142.8501  157.7557 C   0  0  0  0  0  0  0  0  0  0  0  0
  150.3474  142.8413  157.4721 N   0  0  0  0  0  0  0  0  0  0  0  0
  149.5308  141.7998  157.6809 C   0  0  0  0  0  0  0  0  0  0  0  0
  149.9512  140.7265  158.1245 O   0  0  0  0  0  0  0  0  0  0  0  0
  148.2356  142.1215  157.3064 N   0  0  0  0  0  0  0  0  0  0  0  0
  147.8012  141.7297  156.1489 C   0  0  0  0  0  0  0  0  0  0  0  0
  146.5414  141.9250  155.6062 N   0  0  0  0  0  0  0  0  0  0  0  0
  146.5218  141.3580  154.3619 C   0  0  0  0  0  0  0  0  0  0  0  0
  147.7196  140.8288  154.1292 C   0  0  0  0  0  0  0  0  0  0  0  0
  148.5276  141.0400  155.2052 O   0  0  0  0  0  0  0  0  0  0  0  0
  150.9981  143.9794  160.0017 C   0  0  0  0  0  0  0  0  0  0  0  0
  150.6130  145.2877  159.3084 C   0  0  0  0  0  0  0  0  0  0  0  0
  152.0229  145.3052  158.7158 C   0  0  0  0  0  0  0  0  0  0  0  0
  154.3035  141.9062  160.5828 H   0  0  0  0  0  0  0  0  0  0  0  0
  153.0543  141.3347  159.4832 H   0  0  0  0  0  0  0  0  0  0  0  0
  152.6164  142.0554  161.0426 H   0  0  0  0  0  0  0  0  0  0  0  0
  152.3105  143.1809  156.8634 H   0  0  0  0  0  0  0  0  0  0  0  0
  152.1180  141.8331  157.9505 H   0  0  0  0  0  0  0  0  0  0  0  0
  149.9508  143.6928  157.1012 H   0  0  0  0  0  0  0  0  0  0  0  0
  145.7491  142.3963  156.0187 H   0  0  0  0  0  0  0  0  0  0  0  0
  145.6268  141.3950  153.7585 H   0  0  0  0  0  0  0  0  0  0  0  0
  148.1355  140.2949  153.2874 H   0  0  0  0  0  0  0  0  0  0  0  0
  150.2131  143.2226  160.0027 H   0  0  0  0  0  0  0  0  0  0  0  0
  151.3970  144.1406  161.0050 H   0  0  0  0  0  0  0  0  0  0  0  0
  149.8361  145.1563  158.5534 H   0  0  0  0  0  0  0  0  0  0  0  0
  150.3897  146.1144  159.9832 H   0  0  0  0  0  0  0  0  0  0  0  0
  152.7255  145.8649  159.3358 H   0  0  0  0  0  0  0  0  0  0  0  0
  152.0705  145.6199  157.6729 H   0  0  0  0  0  0  0  0  0  0  0  0
  1  2  1  0  0  0  0
  1 17  1  0  0  0  0
  1 18  1  0  0  0  0
  1 19  1  0  0  0  0
  2  3  1  0  0  0  0
  3 16  1  0  0  0  0
  3  4  1  0  0  0  0
  3 14  1  0  0  0  0
  4  5  1  0  0  0  0
  4 20  1  0  0  0  0
  4 21  1  0  0  0  0
  5 22  1  0  0  0  0
  5  6  1  0  0  0  0
  6  8  1  0  0  0  0
  6  7  2  0  0  0  0
  8  9  2  0  0  0  0
  9 13  1  0  0  0  0
  9 10  1  0  0  0  0
 10 23  1  0  0  0  0
 10 11  1  0  0  0  0
 11 24  1  0  0  0  0
 11 12  2  0  0  0  0
 12 25  1  0  0  0  0
 12 13  1  0  0  0  0
 14 15  1  0  0  0  0
 14 26  1  0  0  0  0
 14 27  1  0  0  0  0
 15 16  1  0  0  0  0
 15 28  1  0  0  0  0
 15 29  1  0  0  0  0
 16 30  1  0  0  0  0
 16 31  1  0  0  0  0
M  END
> <s_m_source_file>
AV-unprocessed.smi

> <i_m_source_file_index>
2212

> <i_lp_mmshare_version>
43012

> <i_f3d_flags>
0

> <s_epik_input>
W0NIMl0xW0NIMl1bQ0gyXUMxKE9bQ0gzXSlbQ0gyXVtOSF1DKD1PKVtOSF1jMm5bY0hdW2NIXW8y

> <s_epik_cmdline>
J2VwaWtfcHl0aG9uJywgJy1waCcsICc3LjAnLCAnLXRuJywgJzgnLCAnLW1hJywgJzIwMCcsICctbWV0YWxfYmluZGluZycsICctaW1hZScsICc8aW5maWxlLm1hZT4nLCAnLW9tYWUnLCAnPG91dGZpbGUubWFlPic=

> <r_lp_tautomer_probability>
0.107061

> <r_epik_Ionization_Penalty>
1.29244

> <r_epik_Ionization_Penalty_Charging>
1.29208

> <r_epik_Ionization_Penalty_Neutral>
0.000357989

> <r_epik_State_Penalty>
2.59896

> <r_epik_Charging_Adjusted_Penalty>
3.89105

> <i_epik_Tot_Q>
0

> <i_epik_Tot_abs_Q>
0

> <r_epik_Metal_State_Penalty>
3.62496

> <b_epik_Metal_Only>
0

> <s_lp_Force_Field>
OPLS_2005

> <r_lp_Energy>
40.2308

> <b_lp_Chiralities_Consistent>
1

> <s_lp_Variant>
AV-unprocessed.smi:2212-3

> <Gold.Version>
5.8.1

> <Gold.Id.Protein>
6NUR|6NUR_protein|mol2

> <Gold.PLP.Fitness>
34.5397

> <Gold.PLP.PLP>
-27.9031

> <Gold.PLP.part.hbond>
-1.0000

> <Gold.PLP.part.metal>
0.0000

> <Gold.PLP.part.buried>
-5.6211

> <Gold.PLP.part.nonpolar>
-22.0976

> <Gold.PLP.part.repulsive>
0.8666

> <Gold.PLP.ligand.clash>
0.0000

> <Gold.PLP.ligand.torsion>
1.2433

> <Gold.PLP.Chemscore.Hbond>
0.9913

> <Gold.PLP.Chemscore.CHOScore>
1.9601

> <Gold.PLP.Chemscore.Metal>
0.0000

> <Gold.Chemscore.Hbonds>
donor molecule, donor type, donor heavy atom, donor atom, acceptor molecule, acceptor atom, score
      L1  H     5    22       P1  8028  0.94
      L1  C    11    24       P1 10175  1.00
      L1  C    12    25       P1  7957  0.84

> <Gold.PLP.Chemscore.Internal.Correction>
0.2692

> <Gold.Rescore>
     Score         DG    S(hbond)    S(metal)    S(lipo)     H(rot)  DE(clash)    DE(int)     intcor
     11.30     -13.28       0.92        0.00      76.26       1.64       0.05       1.93       ----

> <Gold.Chemscore.Fitness>
11.2998

> <Gold.Chemscore.DG>
-13.2758

> <Gold.Chemscore.ZeroCoef>
-5.4800

> <Gold.Chemscore.Hbond>
0.9206

> <Gold.Chemscore.Metal>
0.0000

> <Gold.Chemscore.Lipo>
76.2580

> <Gold.Chemscore.Internal_Hbond>
0.0000

> <Gold.Chemscore.DEClash>
0.0493

> <Gold.Chemscore.DEInternal>
1.9267

> <Gold.Chemscore.Rot>
1.6411

> <Gold.Chemscore.Internal.Correction>
   9.000000E+99

> <Gold.Chemscore.Hbonds>
donor molecule, donor type, donor heavy atom, donor atom, acceptor molecule, acceptor atom, score
      L1  H     5    22       P1  8028  0.83

> <Gold.Chemscore.Hbond.Weighted>
-3.0747

> <Gold.Chemscore.Metal.Weighted>
-0.0000

> <Gold.Chemscore.Lipo.Weighted>
-8.9222

> <Gold.Chemscore.Internal_Hbond.Weighted>
0.0000

> <Gold.Chemscore.DEClash.Weighted>
0.0493

> <Gold.Chemscore.DEInternal.Weighted>
1.9267

> <Gold.Chemscore.Rot.Weighted>
4.2011

> <Gold.Chemscore.Internal.Correction.Weighted>
   9.000000E+99

> <Gold.Protein.RotatedTorsions>
[ 6907 6896 6895 6894 ] final  -90.70 input  -60.11 | X-H torsion
[ 7974 7965 7964 7962 ] final  -52.17 input  175.53 | X-H torsion
[ 8008 7997 7996 7995 ] final   82.31 input   59.86 | X-H torsion
[ 10167 10162 10161 10158 ] final  -18.79 input  -65.29 | X-H torsion
[ 10718 10713 10712 10709 ] final  172.94 input   66.30 | X-H torsion
[ 10763 10752 10751 10750 ] final -133.05 input  -60.55 | X-H torsion
[ 11005 11000 10999 10996 ] final  118.52 input  -57.11 | X-H torsion

> <Gold.Protein.ActiveResidues>
 VAL166  LYS551  ARG553  GLY616  TRP617  ASP618  TYR619  PRO620  LYS621  CYS622 
 ASP623  PHE694  ASN695  SER759  ASP760  ASP761  ALA762  ILE779  LEU786  VAL792 
 PHE793  MET794  SER795  GLU796  ALA797  LYS798  CYS799  TRP800  GLU811  SER814 

> <Gold.Protein.RotatedAtoms>
  150.6884  134.2391  159.4465 H   0  0  0  0  0  0  0  0  0  0  0  0  # atno 6907 bound_to 6896
  152.0337  134.9750  160.0582 H   0  0  0  0  0  0  0  0  0  0  0  0  # atno 6908 bound_to 6896
  152.1279  133.4356  159.4744 H   0  0  0  0  0  0  0  0  0  0  0  0  # atno 6909 bound_to 6896
  145.9109  140.7915  142.9695 H   0  0  0  0  0  0  0  0  0  0  0  0  # atno 7974 bound_to 7965
  155.9089  140.3428  155.6083 H   0  0  0  0  0  0  0  0  0  0  0  0  # atno 8008 bound_to 7997
  155.7411  140.0808  157.2264 H   0  0  0  0  0  0  0  0  0  0  0  0  # atno 8009 bound_to 7997
  154.4053  140.1570  156.2605 H   0  0  0  0  0  0  0  0  0  0  0  0  # atno 8010 bound_to 7997
  140.7262  143.4882  151.0027 H   0  0  0  0  0  0  0  0  0  0  0  0  # atno 10167 bound_to 10162
  156.9715  131.0091  151.2904 H   0  0  0  0  0  0  0  0  0  0  0  0  # atno 10718 bound_to 10713
  154.8737  135.3778  154.4509 H   0  0  0  0  0  0  0  0  0  0  0  0  # atno 10763 bound_to 10752
  153.5186  135.7029  153.5748 H   0  0  0  0  0  0  0  0  0  0  0  0  # atno 10764 bound_to 10752
  153.4006  135.3949  155.1950 H   0  0  0  0  0  0  0  0  0  0  0  0  # atno 10765 bound_to 10752
  139.9112  134.9621  156.7516 H   0  0  0  0  0  0  0  0  0  0  0  0  # atno 11005 bound_to 11000
  144.6743  140.1825  143.7404 LP  0  0  0  0  0  0  0  0  0  0  0  0  # atno 17320 bound_to 7965
  145.8672  139.2253  143.1682 LP  0  0  0  0  0  0  0  0  0  0  0  0  # atno 17321 bound_to 7965
  139.8584  143.7346  152.3175 LP  0  0  0  0  0  0  0  0  0  0  0  0  # atno 17342 bound_to 10162
  139.7553  144.7522  151.0445 LP  0  0  0  0  0  0  0  0  0  0  0  0  # atno 17343 bound_to 10162
  157.5589  130.8232  149.8240 LP  0  0  0  0  0  0  0  0  0  0  0  0  # atno 17370 bound_to 10713
  156.0281  130.3773  150.1766 LP  0  0  0  0  0  0  0  0  0  0  0  0  # atno 17371 bound_to 10713
  140.6769  133.9509  155.7888 LP  0  0  0  0  0  0  0  0  0  0  0  0  # atno 17394 bound_to 11000
  141.0538  134.0446  157.3749 LP  0  0  0  0  0  0  0  0  0  0  0  0  # atno 17395 bound_to 11000

$$$$
