AV-unprocessed.smi:3267|AV-procd|sdf|12507|dock6
  -GOLD-   2272018413D 1   1.00000     0.00000
 Structure written by MMmdl.
 38 39  0  0  0  0  0  0  0  0  1 V2000
  146.6011  142.5905  154.1472 C   0  0  0  0  0  0  0  0  0  0  0  0
  147.5089  141.5433  154.8123 C   0  0  1  0  0  0  0  0  0  0  0  0
  148.0897  140.5117  153.8159 C   0  0  0  0  0  0  0  0  0  0  0  0
  147.1479  139.4722  153.4331 N   0  0  0  0  0  0  0  0  0  0  0  0
  146.8067  139.0492  152.1653 C   0  0  0  0  0  0  0  0  0  0  0  0
  145.8846  138.0517  152.3032 C   0  0  0  0  0  0  0  0  0  0  0  0
  145.7185  137.9379  153.7118 C   0  0  0  0  0  0  0  0  0  0  0  0
  146.4741  138.7900  154.3850 N   0  0  0  0  0  0  0  0  0  0  0  0
  148.5725  142.2243  155.5468 N   0  0  0  0  0  0  0  0  0  0  0  0
  149.6160  141.6255  156.1369 C   0  0  0  0  0  0  0  0  0  0  0  0
  149.7996  140.4079  156.1484 O   0  0  0  0  0  0  0  0  0  0  0  0
  150.4355  142.5147  156.7130 N   0  0  0  0  0  0  0  0  0  0  0  0
  151.6455  142.1790  157.4536 C   0  0  0  0  0  0  0  0  0  0  0  0
  151.9502  143.2268  158.5369 C   0  0  1  0  0  0  0  0  0  0  0  0
  152.1764  144.6365  157.9917 C   0  0  0  0  0  0  0  0  0  0  0  0
  151.7467  145.5434  159.1367 C   0  0  0  0  0  0  0  0  0  0  0  0
  151.0625  144.5990  160.1285 C   0  0  0  0  0  0  0  0  0  0  0  0
  150.8335  143.4063  159.3938 O   0  0  0  0  0  0  0  0  0  0  0  0
  145.7996  142.1119  153.5840 H   0  0  0  0  0  0  0  0  0  0  0  0
  147.1559  143.2310  153.4610 H   0  0  0  0  0  0  0  0  0  0  0  0
  146.1372  143.2353  154.8943 H   0  0  0  0  0  0  0  0  0  0  0  0
  146.8958  140.9975  155.5318 H   0  0  0  0  0  0  0  0  0  0  0  0
  148.4547  141.0057  152.9139 H   0  0  0  0  0  0  0  0  0  0  0  0
  148.9573  140.0262  154.2641 H   0  0  0  0  0  0  0  0  0  0  0  0
  147.2468  139.4861  151.2808 H   0  0  0  0  0  0  0  0  0  0  0  0
  145.4018  137.4895  151.5178 H   0  0  0  0  0  0  0  0  0  0  0  0
  145.0754  137.2665  154.2614 H   0  0  0  0  0  0  0  0  0  0  0  0
  148.5186  143.2314  155.5912 H   0  0  0  0  0  0  0  0  0  0  0  0
  150.1982  143.4939  156.6490 H   0  0  0  0  0  0  0  0  0  0  0  0
  151.5424  141.1896  157.9024 H   0  0  0  0  0  0  0  0  0  0  0  0
  152.4738  142.1147  156.7475 H   0  0  0  0  0  0  0  0  0  0  0  0
  152.8123  142.9248  159.1349 H   0  0  0  0  0  0  0  0  0  0  0  0
  153.2097  144.8018  157.6853 H   0  0  0  0  0  0  0  0  0  0  0  0
  151.5377  144.8168  157.1262 H   0  0  0  0  0  0  0  0  0  0  0  0
  152.5969  146.0454  159.5999 H   0  0  0  0  0  0  0  0  0  0  0  0
  151.0582  146.3099  158.7791 H   0  0  0  0  0  0  0  0  0  0  0  0
  151.7240  144.3798  160.9680 H   0  0  0  0  0  0  0  0  0  0  0  0
  150.1322  145.0062  160.5251 H   0  0  0  0  0  0  0  0  0  0  0  0
  1  2  1  0  0  0  0
  1 19  1  0  0  0  0
  1 20  1  0  0  0  0
  1 21  1  0  0  0  0
  2  3  1  0  0  0  0
  2  9  1  0  0  0  0
  2 22  1  0  0  0  0
  3  4  1  0  0  0  0
  3 23  1  0  0  0  0
  3 24  1  0  0  0  0
  4  8  1  0  0  0  0
  4  5  1  0  0  0  0
  5  6  2  0  0  0  0
  5 25  1  0  0  0  0
  6  7  1  0  0  0  0
  6 26  1  0  0  0  0
  7  8  2  0  0  0  0
  7 27  1  0  0  0  0
  9 10  1  0  0  0  0
  9 28  1  0  0  0  0
 10 11  2  0  0  0  0
 10 12  1  0  0  0  0
 12 13  1  0  0  0  0
 12 29  1  0  0  0  0
 13 14  1  0  0  0  0
 13 30  1  0  0  0  0
 13 31  1  0  0  0  0
 14 18  1  0  0  0  0
 14 15  1  0  0  0  0
 14 32  1  0  0  0  0
 15 16  1  0  0  0  0
 15 33  1  0  0  0  0
 15 34  1  0  0  0  0
 16 17  1  0  0  0  0
 16 35  1  0  0  0  0
 16 36  1  0  0  0  0
 17 18  1  0  0  0  0
 17 37  1  0  0  0  0
 17 38  1  0  0  0  0
M  END
> <s_m_source_file>
AV-unprocessed.smi

> <i_m_source_file_index>
3267

> <i_lp_mmshare_version>
43012

> <i_f3d_flags>
0

> <s_epik_input>
bjFbY0hdW2NIXVtjSF1uMVtDSDJdW0NAQEhdKFtDSDNdKVtOSF1DKD1PKVtOSF1bQ0gyXVtDQEBIXTJbQ0gyXVtDSDJdW0NIMl1PMg==

> <s_epik_cmdline>
J2VwaWtfcHl0aG9uJywgJy1waCcsICc3LjAnLCAnLXRuJywgJzgnLCAnLW1hJywgJzIwMCcsICctbWV0YWxfYmluZGluZycsICctaW1hZScsICc8aW5maWxlLm1hZT4nLCAnLW9tYWUnLCAnPG91dGZpbGUubWFlPic=

> <r_lp_tautomer_probability>
1

> <r_epik_Ionization_Penalty>
6.24796e-05

> <r_epik_Ionization_Penalty_Charging>
0

> <r_epik_Ionization_Penalty_Neutral>
6.24796e-05

> <r_epik_State_Penalty>
-0

> <r_epik_Charging_Adjusted_Penalty>
0

> <i_epik_Tot_Q>
0

> <i_epik_Tot_abs_Q>
0

> <r_epik_Metal_State_Penalty>
-0

> <b_epik_Metal_Only>
0

> <s_lp_Force_Field>
OPLS_2005

> <r_lp_Energy>
14.3103

> <b_lp_Chiralities_Consistent>
1

> <s_lp_Variant>
AV-unprocessed.smi:3267-4

> <Gold.Version>
5.8.1

> <Gold.Id.Protein>
6NUR|6NUR_protein|mol2

> <Gold.PLP.Fitness>
43.9491

> <Gold.PLP.PLP>
-37.1301

> <Gold.PLP.part.hbond>
-2.0393

> <Gold.PLP.part.metal>
0.0000

> <Gold.PLP.part.buried>
-2.4677

> <Gold.PLP.part.nonpolar>
-32.8865

> <Gold.PLP.part.repulsive>
0.3589

> <Gold.PLP.ligand.clash>
0.0000

> <Gold.PLP.ligand.torsion>
0.5656

> <Gold.PLP.Chemscore.Hbond>
1.7028

> <Gold.PLP.Chemscore.CHOScore>
0.9338

> <Gold.PLP.Chemscore.Metal>
0.0000

> <Gold.Chemscore.Hbonds>
donor molecule, donor type, donor heavy atom, donor atom, acceptor molecule, acceptor atom, score
      L1  H     9    28       P1  8028  0.98
      L1  H    12    29       P1  8028  0.80
      L1  C     5    25       P1  7957  0.87

> <Gold.PLP.Chemscore.Internal.Correction>
0.0406

> <Gold.Rescore>
     Score         DG    S(hbond)    S(metal)    S(lipo)     H(rot)  DE(clash)    DE(int)     intcor
     16.80     -17.93       1.80        0.00      95.90       1.87       0.66       0.46       ----

> <Gold.Chemscore.Fitness>
16.8001

> <Gold.Chemscore.DG>
-17.9279

> <Gold.Chemscore.ZeroCoef>
-5.4800

> <Gold.Chemscore.Hbond>
1.8026

> <Gold.Chemscore.Metal>
0.0000

> <Gold.Chemscore.Lipo>
95.9010

> <Gold.Chemscore.Internal_Hbond>
0.0000

> <Gold.Chemscore.DEClash>
0.6628

> <Gold.Chemscore.DEInternal>
0.4650

> <Gold.Chemscore.Rot>
1.8724

> <Gold.Chemscore.Internal.Correction>
   9.000000E+99

> <Gold.Chemscore.Hbonds>
donor molecule, donor type, donor heavy atom, donor atom, acceptor molecule, acceptor atom, score
      L1  H     9    28       P1  8028  0.92
      L1  H    12    29       P1  8028  0.73

> <Gold.Chemscore.Hbond.Weighted>
-6.0207

> <Gold.Chemscore.Metal.Weighted>
-0.0000

> <Gold.Chemscore.Lipo.Weighted>
-11.2204

> <Gold.Chemscore.Internal_Hbond.Weighted>
0.0000

> <Gold.Chemscore.DEClash.Weighted>
0.6628

> <Gold.Chemscore.DEInternal.Weighted>
0.4650

> <Gold.Chemscore.Rot.Weighted>
4.7933

> <Gold.Chemscore.Internal.Correction.Weighted>
   9.000000E+99

> <Gold.Protein.RotatedTorsions>
[ 6907 6896 6895 6894 ] final -152.49 input  -60.11 | X-H torsion
[ 7974 7965 7964 7962 ] final   33.94 input  175.53 | X-H torsion
[ 8008 7997 7996 7995 ] final   58.90 input   59.86 | X-H torsion
[ 10167 10162 10161 10158 ] final -173.48 input  -65.29 | X-H torsion
[ 10718 10713 10712 10709 ] final  159.20 input   66.30 | X-H torsion
[ 10763 10752 10751 10750 ] final -131.35 input  -60.55 | X-H torsion
[ 11005 11000 10999 10996 ] final -139.33 input  -57.11 | X-H torsion

> <Gold.Protein.ActiveResidues>
 VAL166  LYS551  ARG553  GLY616  TRP617  ASP618  TYR619  PRO620  LYS621  CYS622 
 ASP623  PHE694  ASN695  SER759  ASP760  ASP761  ALA762  ILE779  LEU786  VAL792 
 PHE793  MET794  SER795  GLU796  ALA797  LYS798  CYS799  TRP800  GLU811  SER814 

> <Gold.Protein.RotatedAtoms>
  151.2285  133.4463  159.2602 H   0  0  0  0  0  0  0  0  0  0  0  0  # atno 6907 bound_to 6896
  151.0817  134.9862  159.8369 H   0  0  0  0  0  0  0  0  0  0  0  0  # atno 6908 bound_to 6896
  152.5425  134.2224  159.8846 H   0  0  0  0  0  0  0  0  0  0  0  0  # atno 6909 bound_to 6896
  146.1387  139.6333  142.9178 H   0  0  0  0  0  0  0  0  0  0  0  0  # atno 7974 bound_to 7965
  155.5575  140.3487  155.4483 H   0  0  0  0  0  0  0  0  0  0  0  0  # atno 8008 bound_to 7997
  156.0538  140.1324  157.0045 H   0  0  0  0  0  0  0  0  0  0  0  0  # atno 8009 bound_to 7997
  154.4447  140.0999  156.6400 H   0  0  0  0  0  0  0  0  0  0  0  0  # atno 8010 bound_to 7997
  139.5686  144.1696  152.1350 H   0  0  0  0  0  0  0  0  0  0  0  0  # atno 10167 bound_to 10162
  157.1674  131.0602  151.2200 H   0  0  0  0  0  0  0  0  0  0  0  0  # atno 10718 bound_to 10713
  154.8751  135.3833  154.4233 H   0  0  0  0  0  0  0  0  0  0  0  0  # atno 10763 bound_to 10752
  153.4934  135.7030  153.5876 H   0  0  0  0  0  0  0  0  0  0  0  0  # atno 10764 bound_to 10752
  153.4240  135.3894  155.2096 H   0  0  0  0  0  0  0  0  0  0  0  0  # atno 10765 bound_to 10752
  140.8530  134.2262  157.4750 H   0  0  0  0  0  0  0  0  0  0  0  0  # atno 11005 bound_to 11000
  145.5097  141.0436  143.2494 LP  0  0  0  0  0  0  0  0  0  0  0  0  # atno 17320 bound_to 7965
  144.7768  139.6613  143.7171 LP  0  0  0  0  0  0  0  0  0  0  0  0  # atno 17321 bound_to 7965
  140.1224  144.5361  150.6854 LP  0  0  0  0  0  0  0  0  0  0  0  0  # atno 17342 bound_to 10162
  140.6970  143.2410  151.4972 LP  0  0  0  0  0  0  0  0  0  0  0  0  # atno 17343 bound_to 10162
  157.4075  130.7367  149.6813 LP  0  0  0  0  0  0  0  0  0  0  0  0  # atno 17370 bound_to 10713
  155.9744  130.4104  150.3929 LP  0  0  0  0  0  0  0  0  0  0  0  0  # atno 17371 bound_to 10713
  139.8704  134.9692  156.4660 LP  0  0  0  0  0  0  0  0  0  0  0  0  # atno 17394 bound_to 11000
  140.8769  133.7947  155.9424 LP  0  0  0  0  0  0  0  0  0  0  0  0  # atno 17395 bound_to 11000

$$$$
